CHEMBL1077227
  -OEChem-05192314313D
 Structure written by MMmdl.
 56 59  0     1  0  0  0  0  0999 V2000
   15.2899   -4.6440    7.5351 C   0  0  0  0  0  0  0  0  0  0  0  0
   14.2408   -3.9683    6.6690 N   0  0  0  0  0  0  0  0  0  0  0  0
   14.7206   -3.0566    5.5418 C   0  0  0  0  0  0  0  0  0  0  0  0
   14.8984   -3.7855    4.1902 C   0  0  1  0  0  0  0  0  0  0  0  0
   15.0728   -5.3257    4.2388 C   0  0  0  0  0  0  0  0  0  0  0  0
   15.2134   -5.9104    2.8261 C   0  0  0  0  0  0  0  0  0  0  0  0
   14.0958   -5.4095    1.8827 C   0  0  1  0  0  0  0  0  0  0  0  0
   12.7022   -6.0636    2.1368 C   0  0  2  0  0  0  0  0  0  0  0  0
   12.7070   -7.5842    2.0907 C   0  0  0  0  0  0  0  0  0  0  0  0
   12.2595   -8.4762    3.0628 C   0  0  0  0  0  0  0  0  0  0  0  0
   12.4745   -9.8243    2.7647 C   0  0  0  0  0  0  0  0  0  0  0  0
   13.0252  -10.0075    1.5129 C   0  0  0  0  0  0  0  0  0  0  0  0
   13.3330   -8.4922    0.7364 S   0  0  0  0  0  0  0  0  0  0  0  0
   11.6991   -5.5164    1.2216 N   0  0  0  0  0  0  0  0  0  0  0  0
   11.7868   -4.1856    0.7799 C   0  0  0  0  0  0  0  0  0  0  0  0
   10.7738   -3.7177   -0.0535 C   0  0  0  0  0  0  0  0  0  0  0  0
   10.8219   -2.4249   -0.5507 C   0  0  0  0  0  0  0  0  0  0  0  0
   11.8669   -1.5627   -0.1974 C   0  0  0  0  0  0  0  0  0  0  0  0
   11.9198   -0.1294   -0.7526 C   0  0  0  0  0  0  0  0  0  0  0  0
   10.4882    0.3797   -0.9919 C   0  0  0  0  0  0  0  0  0  0  0  0
   12.6705   -0.0930   -2.0912 C   0  0  0  0  0  0  0  0  0  0  0  0
   12.6599    0.8143    0.2183 C   0  0  0  0  0  0  0  0  0  0  0  0
   12.8580   -2.0372    0.6716 C   0  0  0  0  0  0  0  0  0  0  0  0
   12.8622   -3.3514    1.1382 C   0  0  0  0  0  0  0  0  0  0  0  0
   14.0094   -3.8677    1.9934 C   0  0  1  0  0  0  0  0  0  0  0  0
   13.7960   -3.4623    3.3445 O   0  0  0  0  0  0  0  0  0  0  0  0
   14.7938   -5.2632    8.2970 H   0  0  0  0  0  0  0  0  0  0  0  0
   15.9303   -5.2798    6.9061 H   0  0  0  0  0  0  0  0  0  0  0  0
   15.9058   -3.8782    8.0293 H   0  0  0  0  0  0  0  0  0  0  0  0
   13.6888   -4.6907    6.2526 H   0  0  0  0  0  0  0  0  0  0  0  0
   13.9835   -2.2511    5.4083 H   0  0  0  0  0  0  0  0  0  0  0  0
   15.6887   -2.6231    5.8332 H   0  0  0  0  0  0  0  0  0  0  0  0
   15.8120   -3.3800    3.7309 H   0  0  0  0  0  0  0  0  0  0  0  0
   15.9756   -5.5670    4.8191 H   0  0  0  0  0  0  0  0  0  0  0  0
   14.1934   -5.7717    4.7264 H   0  0  0  0  0  0  0  0  0  0  0  0
   16.1882   -5.6121    2.4129 H   0  0  0  0  0  0  0  0  0  0  0  0
   15.1616   -7.0074    2.8882 H   0  0  0  0  0  0  0  0  0  0  0  0
   14.3935   -5.6540    0.8524 H   0  0  0  0  0  0  0  0  0  0  0  0
   12.4079   -5.7780    3.1575 H   0  0  0  0  0  0  0  0  0  0  0  0
   11.7833   -8.1509    3.9760 H   0  0  0  0  0  0  0  0  0  0  0  0
   12.2361  -10.6332    3.4394 H   0  0  0  0  0  0  0  0  0  0  0  0
   13.2367  -10.9716    1.0746 H   0  0  0  0  0  0  0  0  0  0  0  0
   11.7139   -6.0913    0.4035 H   0  0  0  0  0  0  0  0  0  0  0  0
    9.9484   -4.3641   -0.3131 H   0  0  0  0  0  0  0  0  0  0  0  0
   10.0456   -2.0792   -1.2172 H   0  0  0  0  0  0  0  0  0  0  0  0
   10.5246    1.4049   -1.3890 H   0  0  0  0  0  0  0  0  0  0  0  0
    9.9822   -0.2760   -1.7158 H   0  0  0  0  0  0  0  0  0  0  0  0
    9.9336    0.3741   -0.0420 H   0  0  0  0  0  0  0  0  0  0  0  0
   12.6965    0.9395   -2.4697 H   0  0  0  0  0  0  0  0  0  0  0  0
   13.6986   -0.4557   -1.9448 H   0  0  0  0  0  0  0  0  0  0  0  0
   12.1545   -0.7371   -2.8184 H   0  0  0  0  0  0  0  0  0  0  0  0
   12.6827    1.8302   -0.2030 H   0  0  0  0  0  0  0  0  0  0  0  0
   12.1355    0.8301    1.1851 H   0  0  0  0  0  0  0  0  0  0  0  0
   13.6892    0.4552    0.3653 H   0  0  0  0  0  0  0  0  0  0  0  0
   13.6418   -1.3656    0.9895 H   0  0  0  0  0  0  0  0  0  0  0  0
   14.9502   -3.4400    1.6167 H   0  0  0  0  0  0  0  0  0  0  0  0
  1  2  1  0  0  0  0
  2  3  1  0  0  0  0
  3  4  1  0  0  0  0
  4  5  1  0  0  0  0
  4 26  1  0  0  0  0
  5  6  1  0  0  0  0
  6  7  1  0  0  0  0
  7  8  1  0  0  0  0
  7 25  1  0  0  0  0
  8  9  1  0  0  0  0
  8 14  1  0  0  0  0
  9 10  2  0  0  0  0
  9 13  1  0  0  0  0
 10 11  1  0  0  0  0
 11 12  2  0  0  0  0
 12 13  1  0  0  0  0
 14 15  1  0  0  0  0
 15 16  2  0  0  0  0
 15 24  1  0  0  0  0
 16 17  1  0  0  0  0
 17 18  2  0  0  0  0
 18 19  1  0  0  0  0
 18 23  1  0  0  0  0
 19 20  1  0  0  0  0
 19 21  1  0  0  0  0
 19 22  1  0  0  0  0
 23 24  2  0  0  0  0
 24 25  1  0  0  0  0
 25 26  1  0  0  0  0
  1 27  1  0  0  0  0
  1 28  1  0  0  0  0
  1 29  1  0  0  0  0
  2 30  1  0  0  0  0
  3 31  1  0  0  0  0
  3 32  1  0  0  0  0
  4 33  1  0  0  0  0
  5 34  1  0  0  0  0
  5 35  1  0  0  0  0
  6 36  1  0  0  0  0
  6 37  1  0  0  0  0
  7 38  1  0  0  0  0
  8 39  1  0  0  0  0
 10 40  1  0  0  0  0
 11 41  1  0  0  0  0
 12 42  1  0  0  0  0
 14 43  1  0  0  0  0
 16 44  1  0  0  0  0
 17 45  1  0  0  0  0
 20 46  1  0  0  0  0
 20 47  1  0  0  0  0
 20 48  1  0  0  0  0
 21 49  1  0  0  0  0
 21 50  1  0  0  0  0
 21 51  1  0  0  0  0
 22 52  1  0  0  0  0
 22 53  1  0  0  0  0
 22 54  1  0  0  0  0
 23 55  1  0  0  0  0
 25 56  1  0  0  0  0
M  END
> <ID>
CHEMBL1077227

> <IC50[nM]>
5

$$$$
CHEMBL1077227
  -OEChem-05192314313D
 Structure written by MMmdl.
 56 59  0     1  0  0  0  0  0999 V2000
   15.2899   -4.6440    7.5351 C   0  0  0  0  0  0  0  0  0  0  0  0
   14.2408   -3.9683    6.6690 N   0  0  0  0  0  0  0  0  0  0  0  0
   14.7206   -3.0566    5.5418 C   0  0  0  0  0  0  0  0  0  0  0  0
   14.8984   -3.7855    4.1902 C   0  0  1  0  0  0  0  0  0  0  0  0
   15.0728   -5.3257    4.2388 C   0  0  0  0  0  0  0  0  0  0  0  0
   15.2134   -5.9104    2.8261 C   0  0  0  0  0  0  0  0  0  0  0  0
   14.0958   -5.4095    1.8827 C   0  0  1  0  0  0  0  0  0  0  0  0
   12.7022   -6.0636    2.1368 C   0  0  2  0  0  0  0  0  0  0  0  0
   12.7070   -7.5842    2.0907 C   0  0  0  0  0  0  0  0  0  0  0  0
   12.2595   -8.4762    3.0628 C   0  0  0  0  0  0  0  0  0  0  0  0
   12.4745   -9.8243    2.7647 C   0  0  0  0  0  0  0  0  0  0  0  0
   13.0252  -10.0075    1.5129 C   0  0  0  0  0  0  0  0  0  0  0  0
   13.3330   -8.4922    0.7364 S   0  0  0  0  0  0  0  0  0  0  0  0
   11.6991   -5.5164    1.2216 N   0  0  0  0  0  0  0  0  0  0  0  0
   11.7868   -4.1856    0.7799 C   0  0  0  0  0  0  0  0  0  0  0  0
   10.7738   -3.7177   -0.0535 C   0  0  0  0  0  0  0  0  0  0  0  0
   10.8219   -2.4249   -0.5507 C   0  0  0  0  0  0  0  0  0  0  0  0
   11.8669   -1.5627   -0.1974 C   0  0  0  0  0  0  0  0  0  0  0  0
   11.9198   -0.1294   -0.7526 C   0  0  0  0  0  0  0  0  0  0  0  0
   10.4882    0.3797   -0.9919 C   0  0  0  0  0  0  0  0  0  0  0  0
   12.6705   -0.0930   -2.0912 C   0  0  0  0  0  0  0  0  0  0  0  0
   12.6599    0.8143    0.2183 C   0  0  0  0  0  0  0  0  0  0  0  0
   12.8580   -2.0372    0.6716 C   0  0  0  0  0  0  0  0  0  0  0  0
   12.8622   -3.3514    1.1382 C   0  0  0  0  0  0  0  0  0  0  0  0
   14.0094   -3.8677    1.9934 C   0  0  1  0  0  0  0  0  0  0  0  0
   13.7960   -3.4623    3.3445 O   0  0  0  0  0  0  0  0  0  0  0  0
   14.7938   -5.2632    8.2970 H   0  0  0  0  0  0  0  0  0  0  0  0
   15.9303   -5.2798    6.9061 H   0  0  0  0  0  0  0  0  0  0  0  0
   15.9058   -3.8782    8.0293 H   0  0  0  0  0  0  0  0  0  0  0  0
   13.6888   -4.6907    6.2526 H   0  0  0  0  0  0  0  0  0  0  0  0
   13.9835   -2.2511    5.4083 H   0  0  0  0  0  0  0  0  0  0  0  0
   15.6887   -2.6231    5.8332 H   0  0  0  0  0  0  0  0  0  0  0  0
   15.8120   -3.3800    3.7309 H   0  0  0  0  0  0  0  0  0  0  0  0
   15.9756   -5.5670    4.8191 H   0  0  0  0  0  0  0  0  0  0  0  0
   14.1934   -5.7717    4.7264 H   0  0  0  0  0  0  0  0  0  0  0  0
   16.1882   -5.6121    2.4129 H   0  0  0  0  0  0  0  0  0  0  0  0
   15.1616   -7.0074    2.8882 H   0  0  0  0  0  0  0  0  0  0  0  0
   14.3935   -5.6540    0.8524 H   0  0  0  0  0  0  0  0  0  0  0  0
   12.4079   -5.7780    3.1575 H   0  0  0  0  0  0  0  0  0  0  0  0
   11.7833   -8.1509    3.9760 H   0  0  0  0  0  0  0  0  0  0  0  0
   12.2361  -10.6332    3.4394 H   0  0  0  0  0  0  0  0  0  0  0  0
   13.2367  -10.9716    1.0746 H   0  0  0  0  0  0  0  0  0  0  0  0
    9.9484   -4.3641   -0.3131 H   0  0  0  0  0  0  0  0  0  0  0  0
   10.0456   -2.0792   -1.2172 H   0  0  0  0  0  0  0  0  0  0  0  0
   12.4516   -1.9181   -1.0587 H   0  0  0  0  0  0  0  0  0  0  0  0
   10.5246    1.4049   -1.3890 H   0  0  0  0  0  0  0  0  0  0  0  0
    9.9822   -0.2760   -1.7158 H   0  0  0  0  0  0  0  0  0  0  0  0
    9.9336    0.3741   -0.0420 H   0  0  0  0  0  0  0  0  0  0  0  0
   12.6965    0.9395   -2.4697 H   0  0  0  0  0  0  0  0  0  0  0  0
   13.6986   -0.4557   -1.9448 H   0  0  0  0  0  0  0  0  0  0  0  0
   12.1545   -0.7371   -2.8184 H   0  0  0  0  0  0  0  0  0  0  0  0
   12.6827    1.8302   -0.2030 H   0  0  0  0  0  0  0  0  0  0  0  0
   12.1355    0.8301    1.1851 H   0  0  0  0  0  0  0  0  0  0  0  0
   13.6892    0.4552    0.3653 H   0  0  0  0  0  0  0  0  0  0  0  0
   13.6418   -1.3656    0.9895 H   0  0  0  0  0  0  0  0  0  0  0  0
   14.9502   -3.4400    1.6167 H   0  0  0  0  0  0  0  0  0  0  0  0
  1  2  1  0  0  0  0
  2  3  1  0  0  0  0
  3  4  1  0  0  0  0
  4  5  1  0  0  0  0
  4 26  1  0  0  0  0
  5  6  1  0  0  0  0
  6  7  1  0  0  0  0
  7  8  1  0  0  0  0
  7 25  1  0  0  0  0
  8  9  1  0  0  0  0
  8 14  1  0  0  0  0
  9 10  2  0  0  0  0
  9 13  1  0  0  0  0
 10 11  1  0  0  0  0
 11 12  2  0  0  0  0
 12 13  1  0  0  0  0
 14 15  2  0  0  0  0
 15 16  1  0  0  0  0
 15 24  1  0  0  0  0
 16 17  2  0  0  0  0
 17 18  1  0  0  0  0
 18 19  1  0  0  0  0
 18 23  1  0  0  0  0
 19 20  1  0  0  0  0
 19 21  1  0  0  0  0
 19 22  1  0  0  0  0
 23 24  2  0  0  0  0
 24 25  1  0  0  0  0
 25 26  1  0  0  0  0
  1 27  1  0  0  0  0
  1 28  1  0  0  0  0
  1 29  1  0  0  0  0
  2 30  1  0  0  0  0
  3 31  1  0  0  0  0
  3 32  1  0  0  0  0
  4 33  1  0  0  0  0
  5 34  1  0  0  0  0
  5 35  1  0  0  0  0
  6 36  1  0  0  0  0
  6 37  1  0  0  0  0
  7 38  1  0  0  0  0
  8 39  1  0  0  0  0
 10 40  1  0  0  0  0
 11 41  1  0  0  0  0
 12 42  1  0  0  0  0
 16 43  1  0  0  0  0
 17 44  1  0  0  0  0
 18 45  1  0  0  0  0
 20 46  1  0  0  0  0
 20 47  1  0  0  0  0
 20 48  1  0  0  0  0
 21 49  1  0  0  0  0
 21 50  1  0  0  0  0
 21 51  1  0  0  0  0
 22 52  1  0  0  0  0
 22 53  1  0  0  0  0
 22 54  1  0  0  0  0
 23 55  1  0  0  0  0
 25 56  1  0  0  0  0
M  END
> <ID>
CHEMBL1077227

> <IC50[nM]>
5

$$$$
CHEMBL1077227
  -OEChem-05192314313D
 Structure written by MMmdl.
 56 59  0     1  0  0  0  0  0999 V2000
   15.2899   -4.6440    7.5351 C   0  0  0  0  0  0  0  0  0  0  0  0
   14.2408   -3.9683    6.6690 N   0  0  0  0  0  0  0  0  0  0  0  0
   14.7206   -3.0566    5.5418 C   0  0  0  0  0  0  0  0  0  0  0  0
   14.8984   -3.7855    4.1902 C   0  0  1  0  0  0  0  0  0  0  0  0
   15.0728   -5.3257    4.2388 C   0  0  0  0  0  0  0  0  0  0  0  0
   15.2134   -5.9104    2.8261 C   0  0  0  0  0  0  0  0  0  0  0  0
   14.0958   -5.4095    1.8827 C   0  0  1  0  0  0  0  0  0  0  0  0
   12.7022   -6.0636    2.1368 C   0  0  2  0  0  0  0  0  0  0  0  0
   12.7070   -7.5842    2.0907 C   0  0  0  0  0  0  0  0  0  0  0  0
   12.2595   -8.4762    3.0628 C   0  0  0  0  0  0  0  0  0  0  0  0
   12.4745   -9.8243    2.7647 C   0  0  0  0  0  0  0  0  0  0  0  0
   13.0252  -10.0075    1.5129 C   0  0  0  0  0  0  0  0  0  0  0  0
   13.3330   -8.4922    0.7364 S   0  0  0  0  0  0  0  0  0  0  0  0
   11.6991   -5.5164    1.2216 N   0  0  0  0  0  0  0  0  0  0  0  0
   11.7868   -4.1856    0.7799 C   0  0  0  0  0  0  0  0  0  0  0  0
   10.7738   -3.7177   -0.0535 C   0  0  0  0  0  0  0  0  0  0  0  0
   10.8219   -2.4249   -0.5507 C   0  0  0  0  0  0  0  0  0  0  0  0
   11.8669   -1.5627   -0.1974 C   0  0  0  0  0  0  0  0  0  0  0  0
   11.9198   -0.1294   -0.7526 C   0  0  0  0  0  0  0  0  0  0  0  0
   10.4882    0.3797   -0.9919 C   0  0  0  0  0  0  0  0  0  0  0  0
   12.6705   -0.0930   -2.0912 C   0  0  0  0  0  0  0  0  0  0  0  0
   12.6599    0.8143    0.2183 C   0  0  0  0  0  0  0  0  0  0  0  0
   12.8580   -2.0372    0.6716 C   0  0  0  0  0  0  0  0  0  0  0  0
   12.8622   -3.3514    1.1382 C   0  0  0  0  0  0  0  0  0  0  0  0
   14.0094   -3.8677    1.9934 C   0  0  1  0  0  0  0  0  0  0  0  0
   13.7960   -3.4623    3.3445 O   0  0  0  0  0  0  0  0  0  0  0  0
   14.7938   -5.2632    8.2970 H   0  0  0  0  0  0  0  0  0  0  0  0
   15.9303   -5.2798    6.9061 H   0  0  0  0  0  0  0  0  0  0  0  0
   15.9058   -3.8782    8.0293 H   0  0  0  0  0  0  0  0  0  0  0  0
   13.6888   -4.6907    6.2526 H   0  0  0  0  0  0  0  0  0  0  0  0
   13.9835   -2.2511    5.4083 H   0  0  0  0  0  0  0  0  0  0  0  0
   15.6887   -2.6231    5.8332 H   0  0  0  0  0  0  0  0  0  0  0  0
   15.8120   -3.3800    3.7309 H   0  0  0  0  0  0  0  0  0  0  0  0
   15.9756   -5.5670    4.8191 H   0  0  0  0  0  0  0  0  0  0  0  0
   14.1934   -5.7717    4.7264 H   0  0  0  0  0  0  0  0  0  0  0  0
   16.1882   -5.6121    2.4129 H   0  0  0  0  0  0  0  0  0  0  0  0
   15.1616   -7.0074    2.8882 H   0  0  0  0  0  0  0  0  0  0  0  0
   14.3935   -5.6540    0.8524 H   0  0  0  0  0  0  0  0  0  0  0  0
   12.4079   -5.7780    3.1575 H   0  0  0  0  0  0  0  0  0  0  0  0
   11.7833   -8.1509    3.9760 H   0  0  0  0  0  0  0  0  0  0  0  0
   12.2361  -10.6332    3.4394 H   0  0  0  0  0  0  0  0  0  0  0  0
   13.2367  -10.9716    1.0746 H   0  0  0  0  0  0  0  0  0  0  0  0
    9.9484   -4.3641   -0.3131 H   0  0  0  0  0  0  0  0  0  0  0  0
   10.0456   -2.0792   -1.2172 H   0  0  0  0  0  0  0  0  0  0  0  0
   10.5246    1.4049   -1.3890 H   0  0  0  0  0  0  0  0  0  0  0  0
    9.9822   -0.2760   -1.7158 H   0  0  0  0  0  0  0  0  0  0  0  0
    9.9336    0.3741   -0.0420 H   0  0  0  0  0  0  0  0  0  0  0  0
   12.6965    0.9395   -2.4697 H   0  0  0  0  0  0  0  0  0  0  0  0
   13.6986   -0.4557   -1.9448 H   0  0  0  0  0  0  0  0  0  0  0  0
   12.1545   -0.7371   -2.8184 H   0  0  0  0  0  0  0  0  0  0  0  0
   12.6827    1.8302   -0.2030 H   0  0  0  0  0  0  0  0  0  0  0  0
   12.1355    0.8301    1.1851 H   0  0  0  0  0  0  0  0  0  0  0  0
   13.6892    0.4552    0.3653 H   0  0  0  0  0  0  0  0  0  0  0  0
   13.6418   -1.3656    0.9895 H   0  0  0  0  0  0  0  0  0  0  0  0
   12.3228   -3.0368    2.0438 H   0  0  0  0  0  0  0  0  0  0  0  0
   14.9502   -3.4400    1.6167 H   0  0  0  0  0  0  0  0  0  0  0  0
  1  2  1  0  0  0  0
  2  3  1  0  0  0  0
  3  4  1  0  0  0  0
  4  5  1  0  0  0  0
  4 26  1  0  0  0  0
  5  6  1  0  0  0  0
  6  7  1  0  0  0  0
  7  8  1  0  0  0  0
  7 25  1  0  0  0  0
  8  9  1  0  0  0  0
  8 14  1  0  0  0  0
  9 10  2  0  0  0  0
  9 13  1  0  0  0  0
 10 11  1  0  0  0  0
 11 12  2  0  0  0  0
 12 13  1  0  0  0  0
 14 15  2  0  0  0  0
 15 16  1  0  0  0  0
 15 24  1  0  0  0  0
 16 17  2  0  0  0  0
 17 18  1  0  0  0  0
 18 19  1  0  0  0  0
 18 23  2  0  0  0  0
 19 20  1  0  0  0  0
 19 21  1  0  0  0  0
 19 22  1  0  0  0  0
 23 24  1  0  0  0  0
 24 25  1  0  0  0  0
 25 26  1  0  0  0  0
  1 27  1  0  0  0  0
  1 28  1  0  0  0  0
  1 29  1  0  0  0  0
  2 30  1  0  0  0  0
  3 31  1  0  0  0  0
  3 32  1  0  0  0  0
  4 33  1  0  0  0  0
  5 34  1  0  0  0  0
  5 35  1  0  0  0  0
  6 36  1  0  0  0  0
  6 37  1  0  0  0  0
  7 38  1  0  0  0  0
  8 39  1  0  0  0  0
 10 40  1  0  0  0  0
 11 41  1  0  0  0  0
 12 42  1  0  0  0  0
 16 43  1  0  0  0  0
 17 44  1  0  0  0  0
 20 45  1  0  0  0  0
 20 46  1  0  0  0  0
 20 47  1  0  0  0  0
 21 48  1  0  0  0  0
 21 49  1  0  0  0  0
 21 50  1  0  0  0  0
 22 51  1  0  0  0  0
 22 52  1  0  0  0  0
 22 53  1  0  0  0  0
 23 54  1  0  0  0  0
 24 55  1  0  0  0  0
 25 56  1  0  0  0  0
M  END
> <ID>
CHEMBL1077227

> <IC50[nM]>
5

$$$$
CHEMBL1077227
  -OEChem-05192314313D
 Structure written by MMmdl.
 56 59  0     1  0  0  0  0  0999 V2000
   15.2899   -4.6440    7.5351 C   0  0  0  0  0  0  0  0  0  0  0  0
   14.2408   -3.9683    6.6690 N   0  0  0  0  0  0  0  0  0  0  0  0
   14.7206   -3.0566    5.5418 C   0  0  0  0  0  0  0  0  0  0  0  0
   14.8984   -3.7855    4.1902 C   0  0  1  0  0  0  0  0  0  0  0  0
   15.0728   -5.3257    4.2388 C   0  0  0  0  0  0  0  0  0  0  0  0
   15.2134   -5.9104    2.8261 C   0  0  0  0  0  0  0  0  0  0  0  0
   14.0958   -5.4095    1.8827 C   0  0  1  0  0  0  0  0  0  0  0  0
   12.7022   -6.0636    2.1368 C   0  0  2  0  0  0  0  0  0  0  0  0
   12.7070   -7.5842    2.0907 C   0  0  0  0  0  0  0  0  0  0  0  0
   12.2595   -8.4762    3.0628 C   0  0  0  0  0  0  0  0  0  0  0  0
   12.4745   -9.8243    2.7647 C   0  0  0  0  0  0  0  0  0  0  0  0
   13.0252  -10.0075    1.5129 C   0  0  0  0  0  0  0  0  0  0  0  0
   13.3330   -8.4922    0.7364 S   0  0  0  0  0  0  0  0  0  0  0  0
   11.6991   -5.5164    1.2216 N   0  0  0  0  0  0  0  0  0  0  0  0
   11.7868   -4.1856    0.7799 C   0  0  0  0  0  0  0  0  0  0  0  0
   10.7738   -3.7177   -0.0535 C   0  0  0  0  0  0  0  0  0  0  0  0
   10.8219   -2.4249   -0.5507 C   0  0  0  0  0  0  0  0  0  0  0  0
   11.8669   -1.5627   -0.1974 C   0  0  0  0  0  0  0  0  0  0  0  0
   11.9198   -0.1294   -0.7526 C   0  0  0  0  0  0  0  0  0  0  0  0
   10.4882    0.3797   -0.9919 C   0  0  0  0  0  0  0  0  0  0  0  0
   12.6705   -0.0930   -2.0912 C   0  0  0  0  0  0  0  0  0  0  0  0
   12.6599    0.8143    0.2183 C   0  0  0  0  0  0  0  0  0  0  0  0
   12.8580   -2.0372    0.6716 C   0  0  0  0  0  0  0  0  0  0  0  0
   12.8622   -3.3514    1.1382 C   0  0  0  0  0  0  0  0  0  0  0  0
   14.0094   -3.8677    1.9934 C   0  0  1  0  0  0  0  0  0  0  0  0
   13.7960   -3.4623    3.3445 O   0  0  0  0  0  0  0  0  0  0  0  0
   14.7938   -5.2632    8.2970 H   0  0  0  0  0  0  0  0  0  0  0  0
   15.9303   -5.2798    6.9061 H   0  0  0  0  0  0  0  0  0  0  0  0
   15.9058   -3.8782    8.0293 H   0  0  0  0  0  0  0  0  0  0  0  0
   13.6888   -4.6907    6.2526 H   0  0  0  0  0  0  0  0  0  0  0  0
   13.9835   -2.2511    5.4083 H   0  0  0  0  0  0  0  0  0  0  0  0
   15.6887   -2.6231    5.8332 H   0  0  0  0  0  0  0  0  0  0  0  0
   15.8120   -3.3800    3.7309 H   0  0  0  0  0  0  0  0  0  0  0  0
   15.9756   -5.5670    4.8191 H   0  0  0  0  0  0  0  0  0  0  0  0
   14.1934   -5.7717    4.7264 H   0  0  0  0  0  0  0  0  0  0  0  0
   16.1882   -5.6121    2.4129 H   0  0  0  0  0  0  0  0  0  0  0  0
   15.1616   -7.0074    2.8882 H   0  0  0  0  0  0  0  0  0  0  0  0
   14.3935   -5.6540    0.8524 H   0  0  0  0  0  0  0  0  0  0  0  0
   12.4079   -5.7780    3.1575 H   0  0  0  0  0  0  0  0  0  0  0  0
   11.7833   -8.1509    3.9760 H   0  0  0  0  0  0  0  0  0  0  0  0
   12.2361  -10.6332    3.4394 H   0  0  0  0  0  0  0  0  0  0  0  0
   13.2367  -10.9716    1.0746 H   0  0  0  0  0  0  0  0  0  0  0  0
   10.7432   -4.3905   -0.9232 H   0  0  0  0  0  0  0  0  0  0  0  0
    9.8337   -3.8051    0.5109 H   0  0  0  0  0  0  0  0  0  0  0  0
   10.0456   -2.0792   -1.2172 H   0  0  0  0  0  0  0  0  0  0  0  0
   10.5246    1.4049   -1.3890 H   0  0  0  0  0  0  0  0  0  0  0  0
    9.9822   -0.2760   -1.7158 H   0  0  0  0  0  0  0  0  0  0  0  0
    9.9336    0.3741   -0.0420 H   0  0  0  0  0  0  0  0  0  0  0  0
   12.6965    0.9395   -2.4697 H   0  0  0  0  0  0  0  0  0  0  0  0
   13.6986   -0.4557   -1.9448 H   0  0  0  0  0  0  0  0  0  0  0  0
   12.1545   -0.7371   -2.8184 H   0  0  0  0  0  0  0  0  0  0  0  0
   12.6827    1.8302   -0.2030 H   0  0  0  0  0  0  0  0  0  0  0  0
   12.1355    0.8301    1.1851 H   0  0  0  0  0  0  0  0  0  0  0  0
   13.6892    0.4552    0.3653 H   0  0  0  0  0  0  0  0  0  0  0  0
   13.6418   -1.3656    0.9895 H   0  0  0  0  0  0  0  0  0  0  0  0
   14.9502   -3.4400    1.6167 H   0  0  0  0  0  0  0  0  0  0  0  0
  1  2  1  0  0  0  0
  2  3  1  0  0  0  0
  3  4  1  0  0  0  0
  4  5  1  0  0  0  0
  4 26  1  0  0  0  0
  5  6  1  0  0  0  0
  6  7  1  0  0  0  0
  7  8  1  0  0  0  0
  7 25  1  0  0  0  0
  8  9  1  0  0  0  0
  8 14  1  0  0  0  0
  9 10  2  0  0  0  0
  9 13  1  0  0  0  0
 10 11  1  0  0  0  0
 11 12  2  0  0  0  0
 12 13  1  0  0  0  0
 14 15  2  0  0  0  0
 15 16  1  0  0  0  0
 15 24  1  0  0  0  0
 16 17  1  0  0  0  0
 17 18  2  0  0  0  0
 18 19  1  0  0  0  0
 18 23  1  0  0  0  0
 19 20  1  0  0  0  0
 19 21  1  0  0  0  0
 19 22  1  0  0  0  0
 23 24  2  0  0  0  0
 24 25  1  0  0  0  0
 25 26  1  0  0  0  0
  1 27  1  0  0  0  0
  1 28  1  0  0  0  0
  1 29  1  0  0  0  0
  2 30  1  0  0  0  0
  3 31  1  0  0  0  0
  3 32  1  0  0  0  0
  4 33  1  0  0  0  0
  5 34  1  0  0  0  0
  5 35  1  0  0  0  0
  6 36  1  0  0  0  0
  6 37  1  0  0  0  0
  7 38  1  0  0  0  0
  8 39  1  0  0  0  0
 10 40  1  0  0  0  0
 11 41  1  0  0  0  0
 12 42  1  0  0  0  0
 16 43  1  0  0  0  0
 16 44  1  0  0  0  0
 17 45  1  0  0  0  0
 20 46  1  0  0  0  0
 20 47  1  0  0  0  0
 20 48  1  0  0  0  0
 21 49  1  0  0  0  0
 21 50  1  0  0  0  0
 21 51  1  0  0  0  0
 22 52  1  0  0  0  0
 22 53  1  0  0  0  0
 22 54  1  0  0  0  0
 23 55  1  0  0  0  0
 25 56  1  0  0  0  0
M  END
> <ID>
CHEMBL1077227

> <IC50[nM]>
5

$$$$
