CHEMBL1096002
  -OEChem-05192314313D
 Structure written by MMmdl.
 51 54  0     1  0  0  0  0  0999 V2000
   14.9398   -6.5745    8.8289 O   0  0  0  0  0  0  0  0  0  0  0  0
   14.5278   -5.2354    8.6990 C   0  0  0  0  0  0  0  0  0  0  0  0
   15.2970   -4.6432    7.5290 C   0  0  0  0  0  0  0  0  0  0  0  0
   14.2597   -3.9478    6.6599 N   0  0  0  0  0  0  0  0  0  0  0  0
   14.7233   -3.0473    5.5240 C   0  0  0  0  0  0  0  0  0  0  0  0
   14.9007   -3.7858    4.1855 C   0  0  1  0  0  0  0  0  0  0  0  0
   15.0793   -5.3248    4.2415 C   0  0  0  0  0  0  0  0  0  0  0  0
   15.2121   -5.9083    2.8276 C   0  0  0  0  0  0  0  0  0  0  0  0
   14.0921   -5.4092    1.8855 C   0  0  1  0  0  0  0  0  0  0  0  0
   12.7002   -6.0672    2.1302 C   0  0  2  0  0  0  0  0  0  0  0  0
   12.7513   -7.5891    2.0317 C   0  0  0  0  0  0  0  0  0  0  0  0
   13.2402   -8.2009    0.8726 C   0  0  0  0  0  0  0  0  0  0  0  0
   13.3148   -9.5869    0.7909 C   0  0  0  0  0  0  0  0  0  0  0  0
   12.8991  -10.3621    1.8687 C   0  0  0  0  0  0  0  0  0  0  0  0
   12.3947   -9.7617    3.0192 C   0  0  0  0  0  0  0  0  0  0  0  0
   12.3191   -8.3736    3.1017 C   0  0  0  0  0  0  0  0  0  0  0  0
   11.7089   -5.5107    1.2081 N   0  0  0  0  0  0  0  0  0  0  0  0
   11.7887   -4.1714    0.7851 C   0  0  0  0  0  0  0  0  0  0  0  0
   10.7851   -3.6834   -0.0443 C   0  0  0  0  0  0  0  0  0  0  0  0
    9.7425   -4.4576   -0.3412 F   0  0  0  0  0  0  0  0  0  0  0  0
   10.8182   -2.3939   -0.5448 C   0  0  0  0  0  0  0  0  0  0  0  0
   11.8627   -1.5566   -0.1858 C   0  0  0  0  0  0  0  0  0  0  0  0
   11.9178    0.0446   -0.8143 Cl  0  0  0  0  0  0  0  0  0  0  0  0
   12.8576   -2.0189    0.6758 C   0  0  0  0  0  0  0  0  0  0  0  0
   12.8659   -3.3411    1.1370 C   0  0  0  0  0  0  0  0  0  0  0  0
   14.0100   -3.8683    1.9858 C   0  0  1  0  0  0  0  0  0  0  0  0
   13.8029   -3.4589    3.3367 O   0  0  0  0  0  0  0  0  0  0  0  0
   14.4781   -6.9794    9.5537 H   0  0  0  0  0  0  0  0  0  0  0  0
   13.4466   -5.1906    8.5013 H   0  0  0  0  0  0  0  0  0  0  0  0
   14.7554   -4.6794    9.6205 H   0  0  0  0  0  0  0  0  0  0  0  0
   16.0431   -3.9191    7.8883 H   0  0  0  0  0  0  0  0  0  0  0  0
   15.8018   -5.4384    6.9607 H   0  0  0  0  0  0  0  0  0  0  0  0
   13.6934   -4.6639    6.2520 H   0  0  0  0  0  0  0  0  0  0  0  0
   13.9777   -2.2505    5.3854 H   0  0  0  0  0  0  0  0  0  0  0  0
   15.6885   -2.6012    5.8057 H   0  0  0  0  0  0  0  0  0  0  0  0
   15.8151   -3.3836    3.7250 H   0  0  0  0  0  0  0  0  0  0  0  0
   15.9864   -5.5622    4.8166 H   0  0  0  0  0  0  0  0  0  0  0  0
   14.2043   -5.7720    4.7358 H   0  0  0  0  0  0  0  0  0  0  0  0
   16.1854   -5.6102    2.4107 H   0  0  0  0  0  0  0  0  0  0  0  0
   15.1605   -7.0053    2.8902 H   0  0  0  0  0  0  0  0  0  0  0  0
   14.3933   -5.6562    0.8568 H   0  0  0  0  0  0  0  0  0  0  0  0
   12.3976   -5.8122    3.1566 H   0  0  0  0  0  0  0  0  0  0  0  0
   13.5608   -7.5946    0.0383 H   0  0  0  0  0  0  0  0  0  0  0  0
   13.6932  -10.0588   -0.1038 H   0  0  0  0  0  0  0  0  0  0  0  0
   12.9682  -11.4384    1.8125 H   0  0  0  0  0  0  0  0  0  0  0  0
   12.0626  -10.3715    3.8464 H   0  0  0  0  0  0  0  0  0  0  0  0
   11.9267   -7.9051    3.9922 H   0  0  0  0  0  0  0  0  0  0  0  0
   11.7413   -6.0729    0.3817 H   0  0  0  0  0  0  0  0  0  0  0  0
   10.0399   -2.0442   -1.2069 H   0  0  0  0  0  0  0  0  0  0  0  0
   13.6377   -1.3431    0.9938 H   0  0  0  0  0  0  0  0  0  0  0  0
   14.9526   -3.4466    1.6069 H   0  0  0  0  0  0  0  0  0  0  0  0
  1  2  1  0  0  0  0
  2  3  1  0  0  0  0
  3  4  1  0  0  0  0
  4  5  1  0  0  0  0
  5  6  1  0  0  0  0
  6  7  1  0  0  0  0
  6 27  1  0  0  0  0
  7  8  1  0  0  0  0
  8  9  1  0  0  0  0
  9 10  1  0  0  0  0
  9 26  1  0  0  0  0
 10 11  1  0  0  0  0
 10 17  1  0  0  0  0
 11 12  2  0  0  0  0
 11 16  1  0  0  0  0
 12 13  1  0  0  0  0
 13 14  2  0  0  0  0
 14 15  1  0  0  0  0
 15 16  2  0  0  0  0
 17 18  1  0  0  0  0
 18 19  2  0  0  0  0
 18 25  1  0  0  0  0
 19 20  1  0  0  0  0
 19 21  1  0  0  0  0
 21 22  2  0  0  0  0
 22 23  1  0  0  0  0
 22 24  1  0  0  0  0
 24 25  2  0  0  0  0
 25 26  1  0  0  0  0
 26 27  1  0  0  0  0
  1 28  1  0  0  0  0
  2 29  1  0  0  0  0
  2 30  1  0  0  0  0
  3 31  1  0  0  0  0
  3 32  1  0  0  0  0
  4 33  1  0  0  0  0
  5 34  1  0  0  0  0
  5 35  1  0  0  0  0
  6 36  1  0  0  0  0
  7 37  1  0  0  0  0
  7 38  1  0  0  0  0
  8 39  1  0  0  0  0
  8 40  1  0  0  0  0
  9 41  1  0  0  0  0
 10 42  1  0  0  0  0
 12 43  1  0  0  0  0
 13 44  1  0  0  0  0
 14 45  1  0  0  0  0
 15 46  1  0  0  0  0
 16 47  1  0  0  0  0
 17 48  1  0  0  0  0
 21 49  1  0  0  0  0
 24 50  1  0  0  0  0
 26 51  1  0  0  0  0
M  END
> <ID>
CHEMBL1096002

> <IC50[nM]>
7

$$$$
CHEMBL1096002
  -OEChem-05192314313D
 Structure written by MMmdl.
 51 54  0     1  0  0  0  0  0999 V2000
   14.9398   -6.5745    8.8289 O   0  0  0  0  0  0  0  0  0  0  0  0
   14.5278   -5.2354    8.6990 C   0  0  0  0  0  0  0  0  0  0  0  0
   15.2970   -4.6432    7.5290 C   0  0  0  0  0  0  0  0  0  0  0  0
   14.2597   -3.9478    6.6599 N   0  0  0  0  0  0  0  0  0  0  0  0
   14.7233   -3.0473    5.5240 C   0  0  0  0  0  0  0  0  0  0  0  0
   14.9007   -3.7858    4.1855 C   0  0  1  0  0  0  0  0  0  0  0  0
   15.0793   -5.3248    4.2415 C   0  0  0  0  0  0  0  0  0  0  0  0
   15.2121   -5.9083    2.8276 C   0  0  0  0  0  0  0  0  0  0  0  0
   14.0921   -5.4092    1.8855 C   0  0  1  0  0  0  0  0  0  0  0  0
   12.7002   -6.0672    2.1302 C   0  0  2  0  0  0  0  0  0  0  0  0
   12.7513   -7.5891    2.0317 C   0  0  0  0  0  0  0  0  0  0  0  0
   13.2402   -8.2009    0.8726 C   0  0  0  0  0  0  0  0  0  0  0  0
   13.3148   -9.5869    0.7909 C   0  0  0  0  0  0  0  0  0  0  0  0
   12.8991  -10.3621    1.8687 C   0  0  0  0  0  0  0  0  0  0  0  0
   12.3947   -9.7617    3.0192 C   0  0  0  0  0  0  0  0  0  0  0  0
   12.3191   -8.3736    3.1017 C   0  0  0  0  0  0  0  0  0  0  0  0
   11.7089   -5.5107    1.2081 N   0  0  0  0  0  0  0  0  0  0  0  0
   11.7887   -4.1714    0.7851 C   0  0  0  0  0  0  0  0  0  0  0  0
   10.7851   -3.6834   -0.0443 C   0  0  0  0  0  0  0  0  0  0  0  0
    9.7425   -4.4576   -0.3412 F   0  0  0  0  0  0  0  0  0  0  0  0
   10.8182   -2.3939   -0.5448 C   0  0  0  0  0  0  0  0  0  0  0  0
   11.8627   -1.5566   -0.1858 C   0  0  0  0  0  0  0  0  0  0  0  0
   11.9178    0.0446   -0.8143 Cl  0  0  0  0  0  0  0  0  0  0  0  0
   12.8576   -2.0189    0.6758 C   0  0  0  0  0  0  0  0  0  0  0  0
   12.8659   -3.3411    1.1370 C   0  0  0  0  0  0  0  0  0  0  0  0
   14.0100   -3.8683    1.9858 C   0  0  1  0  0  0  0  0  0  0  0  0
   13.8029   -3.4589    3.3367 O   0  0  0  0  0  0  0  0  0  0  0  0
   14.4781   -6.9794    9.5537 H   0  0  0  0  0  0  0  0  0  0  0  0
   13.4466   -5.1906    8.5013 H   0  0  0  0  0  0  0  0  0  0  0  0
   14.7554   -4.6794    9.6205 H   0  0  0  0  0  0  0  0  0  0  0  0
   16.0431   -3.9191    7.8883 H   0  0  0  0  0  0  0  0  0  0  0  0
   15.8018   -5.4384    6.9607 H   0  0  0  0  0  0  0  0  0  0  0  0
   13.6934   -4.6639    6.2520 H   0  0  0  0  0  0  0  0  0  0  0  0
   13.9777   -2.2505    5.3854 H   0  0  0  0  0  0  0  0  0  0  0  0
   15.6885   -2.6012    5.8057 H   0  0  0  0  0  0  0  0  0  0  0  0
   15.8151   -3.3836    3.7250 H   0  0  0  0  0  0  0  0  0  0  0  0
   15.9864   -5.5622    4.8166 H   0  0  0  0  0  0  0  0  0  0  0  0
   14.2043   -5.7720    4.7358 H   0  0  0  0  0  0  0  0  0  0  0  0
   16.1854   -5.6102    2.4107 H   0  0  0  0  0  0  0  0  0  0  0  0
   15.1605   -7.0053    2.8902 H   0  0  0  0  0  0  0  0  0  0  0  0
   14.3933   -5.6562    0.8568 H   0  0  0  0  0  0  0  0  0  0  0  0
   12.3976   -5.8122    3.1566 H   0  0  0  0  0  0  0  0  0  0  0  0
   13.5608   -7.5946    0.0383 H   0  0  0  0  0  0  0  0  0  0  0  0
   13.6932  -10.0588   -0.1038 H   0  0  0  0  0  0  0  0  0  0  0  0
   12.9682  -11.4384    1.8125 H   0  0  0  0  0  0  0  0  0  0  0  0
   12.0626  -10.3715    3.8464 H   0  0  0  0  0  0  0  0  0  0  0  0
   11.9267   -7.9051    3.9922 H   0  0  0  0  0  0  0  0  0  0  0  0
   10.0399   -2.0442   -1.2069 H   0  0  0  0  0  0  0  0  0  0  0  0
   11.2809   -1.1989    0.6765 H   0  0  0  0  0  0  0  0  0  0  0  0
   13.6377   -1.3431    0.9938 H   0  0  0  0  0  0  0  0  0  0  0  0
   14.9526   -3.4466    1.6069 H   0  0  0  0  0  0  0  0  0  0  0  0
  1  2  1  0  0  0  0
  2  3  1  0  0  0  0
  3  4  1  0  0  0  0
  4  5  1  0  0  0  0
  5  6  1  0  0  0  0
  6  7  1  0  0  0  0
  6 27  1  0  0  0  0
  7  8  1  0  0  0  0
  8  9  1  0  0  0  0
  9 10  1  0  0  0  0
  9 26  1  0  0  0  0
 10 11  1  0  0  0  0
 10 17  1  0  0  0  0
 11 12  2  0  0  0  0
 11 16  1  0  0  0  0
 12 13  1  0  0  0  0
 13 14  2  0  0  0  0
 14 15  1  0  0  0  0
 15 16  2  0  0  0  0
 17 18  2  0  0  0  0
 18 19  1  0  0  0  0
 18 25  1  0  0  0  0
 19 20  1  0  0  0  0
 19 21  2  0  0  0  0
 21 22  1  0  0  0  0
 22 23  1  0  0  0  0
 22 24  1  0  0  0  0
 24 25  2  0  0  0  0
 25 26  1  0  0  0  0
 26 27  1  0  0  0  0
  1 28  1  0  0  0  0
  2 29  1  0  0  0  0
  2 30  1  0  0  0  0
  3 31  1  0  0  0  0
  3 32  1  0  0  0  0
  4 33  1  0  0  0  0
  5 34  1  0  0  0  0
  5 35  1  0  0  0  0
  6 36  1  0  0  0  0
  7 37  1  0  0  0  0
  7 38  1  0  0  0  0
  8 39  1  0  0  0  0
  8 40  1  0  0  0  0
  9 41  1  0  0  0  0
 10 42  1  0  0  0  0
 12 43  1  0  0  0  0
 13 44  1  0  0  0  0
 14 45  1  0  0  0  0
 15 46  1  0  0  0  0
 16 47  1  0  0  0  0
 21 48  1  0  0  0  0
 22 49  1  0  0  0  0
 24 50  1  0  0  0  0
 26 51  1  0  0  0  0
M  END
> <ID>
CHEMBL1096002

> <IC50[nM]>
7

$$$$
CHEMBL1096002
  -OEChem-05192314313D
 Structure written by MMmdl.
 51 54  0     1  0  0  0  0  0999 V2000
   14.9398   -6.5745    8.8289 O   0  0  0  0  0  0  0  0  0  0  0  0
   14.5278   -5.2354    8.6990 C   0  0  0  0  0  0  0  0  0  0  0  0
   15.2970   -4.6432    7.5290 C   0  0  0  0  0  0  0  0  0  0  0  0
   14.2597   -3.9478    6.6599 N   0  0  0  0  0  0  0  0  0  0  0  0
   14.7233   -3.0473    5.5240 C   0  0  0  0  0  0  0  0  0  0  0  0
   14.9007   -3.7858    4.1855 C   0  0  1  0  0  0  0  0  0  0  0  0
   15.0793   -5.3248    4.2415 C   0  0  0  0  0  0  0  0  0  0  0  0
   15.2121   -5.9083    2.8276 C   0  0  0  0  0  0  0  0  0  0  0  0
   14.0921   -5.4092    1.8855 C   0  0  1  0  0  0  0  0  0  0  0  0
   12.7002   -6.0672    2.1302 C   0  0  2  0  0  0  0  0  0  0  0  0
   12.7513   -7.5891    2.0317 C   0  0  0  0  0  0  0  0  0  0  0  0
   13.2402   -8.2009    0.8726 C   0  0  0  0  0  0  0  0  0  0  0  0
   13.3148   -9.5869    0.7909 C   0  0  0  0  0  0  0  0  0  0  0  0
   12.8991  -10.3621    1.8687 C   0  0  0  0  0  0  0  0  0  0  0  0
   12.3947   -9.7617    3.0192 C   0  0  0  0  0  0  0  0  0  0  0  0
   12.3191   -8.3736    3.1017 C   0  0  0  0  0  0  0  0  0  0  0  0
   11.7089   -5.5107    1.2081 N   0  0  0  0  0  0  0  0  0  0  0  0
   11.7887   -4.1714    0.7851 C   0  0  0  0  0  0  0  0  0  0  0  0
   10.7851   -3.6834   -0.0443 C   0  0  0  0  0  0  0  0  0  0  0  0
    9.7425   -4.4576   -0.3412 F   0  0  0  0  0  0  0  0  0  0  0  0
   10.8182   -2.3939   -0.5448 C   0  0  0  0  0  0  0  0  0  0  0  0
   11.8627   -1.5566   -0.1858 C   0  0  0  0  0  0  0  0  0  0  0  0
   11.9178    0.0446   -0.8143 Cl  0  0  0  0  0  0  0  0  0  0  0  0
   12.8576   -2.0189    0.6758 C   0  0  0  0  0  0  0  0  0  0  0  0
   12.8659   -3.3411    1.1370 C   0  0  0  0  0  0  0  0  0  0  0  0
   14.0100   -3.8683    1.9858 C   0  0  1  0  0  0  0  0  0  0  0  0
   13.8029   -3.4589    3.3367 O   0  0  0  0  0  0  0  0  0  0  0  0
   14.4781   -6.9794    9.5537 H   0  0  0  0  0  0  0  0  0  0  0  0
   13.4466   -5.1906    8.5013 H   0  0  0  0  0  0  0  0  0  0  0  0
   14.7554   -4.6794    9.6205 H   0  0  0  0  0  0  0  0  0  0  0  0
   16.0431   -3.9191    7.8883 H   0  0  0  0  0  0  0  0  0  0  0  0
   15.8018   -5.4384    6.9607 H   0  0  0  0  0  0  0  0  0  0  0  0
   13.6934   -4.6639    6.2520 H   0  0  0  0  0  0  0  0  0  0  0  0
   13.9777   -2.2505    5.3854 H   0  0  0  0  0  0  0  0  0  0  0  0
   15.6885   -2.6012    5.8057 H   0  0  0  0  0  0  0  0  0  0  0  0
   15.8151   -3.3836    3.7250 H   0  0  0  0  0  0  0  0  0  0  0  0
   15.9864   -5.5622    4.8166 H   0  0  0  0  0  0  0  0  0  0  0  0
   14.2043   -5.7720    4.7358 H   0  0  0  0  0  0  0  0  0  0  0  0
   16.1854   -5.6102    2.4107 H   0  0  0  0  0  0  0  0  0  0  0  0
   15.1605   -7.0053    2.8902 H   0  0  0  0  0  0  0  0  0  0  0  0
   14.3933   -5.6562    0.8568 H   0  0  0  0  0  0  0  0  0  0  0  0
   12.3976   -5.8122    3.1566 H   0  0  0  0  0  0  0  0  0  0  0  0
   13.5608   -7.5946    0.0383 H   0  0  0  0  0  0  0  0  0  0  0  0
   13.6932  -10.0588   -0.1038 H   0  0  0  0  0  0  0  0  0  0  0  0
   12.9682  -11.4384    1.8125 H   0  0  0  0  0  0  0  0  0  0  0  0
   12.0626  -10.3715    3.8464 H   0  0  0  0  0  0  0  0  0  0  0  0
   11.9267   -7.9051    3.9922 H   0  0  0  0  0  0  0  0  0  0  0  0
   10.0399   -2.0442   -1.2069 H   0  0  0  0  0  0  0  0  0  0  0  0
   13.6377   -1.3431    0.9938 H   0  0  0  0  0  0  0  0  0  0  0  0
   12.3317   -3.0296    2.0467 H   0  0  0  0  0  0  0  0  0  0  0  0
   14.9526   -3.4466    1.6069 H   0  0  0  0  0  0  0  0  0  0  0  0
  1  2  1  0  0  0  0
  2  3  1  0  0  0  0
  3  4  1  0  0  0  0
  4  5  1  0  0  0  0
  5  6  1  0  0  0  0
  6  7  1  0  0  0  0
  6 27  1  0  0  0  0
  7  8  1  0  0  0  0
  8  9  1  0  0  0  0
  9 10  1  0  0  0  0
  9 26  1  0  0  0  0
 10 11  1  0  0  0  0
 10 17  1  0  0  0  0
 11 12  2  0  0  0  0
 11 16  1  0  0  0  0
 12 13  1  0  0  0  0
 13 14  2  0  0  0  0
 14 15  1  0  0  0  0
 15 16  2  0  0  0  0
 17 18  2  0  0  0  0
 18 19  1  0  0  0  0
 18 25  1  0  0  0  0
 19 20  1  0  0  0  0
 19 21  2  0  0  0  0
 21 22  1  0  0  0  0
 22 23  1  0  0  0  0
 22 24  2  0  0  0  0
 24 25  1  0  0  0  0
 25 26  1  0  0  0  0
 26 27  1  0  0  0  0
  1 28  1  0  0  0  0
  2 29  1  0  0  0  0
  2 30  1  0  0  0  0
  3 31  1  0  0  0  0
  3 32  1  0  0  0  0
  4 33  1  0  0  0  0
  5 34  1  0  0  0  0
  5 35  1  0  0  0  0
  6 36  1  0  0  0  0
  7 37  1  0  0  0  0
  7 38  1  0  0  0  0
  8 39  1  0  0  0  0
  8 40  1  0  0  0  0
  9 41  1  0  0  0  0
 10 42  1  0  0  0  0
 12 43  1  0  0  0  0
 13 44  1  0  0  0  0
 14 45  1  0  0  0  0
 15 46  1  0  0  0  0
 16 47  1  0  0  0  0
 21 48  1  0  0  0  0
 24 49  1  0  0  0  0
 25 50  1  0  0  0  0
 26 51  1  0  0  0  0
M  END
> <ID>
CHEMBL1096002

> <IC50[nM]>
7

$$$$
CHEMBL1096002
  -OEChem-05192314313D
 Structure written by MMmdl.
 51 54  0     1  0  0  0  0  0999 V2000
   14.9398   -6.5745    8.8289 O   0  0  0  0  0  0  0  0  0  0  0  0
   14.5278   -5.2354    8.6990 C   0  0  0  0  0  0  0  0  0  0  0  0
   15.2970   -4.6432    7.5290 C   0  0  0  0  0  0  0  0  0  0  0  0
   14.2597   -3.9478    6.6599 N   0  0  0  0  0  0  0  0  0  0  0  0
   14.7233   -3.0473    5.5240 C   0  0  0  0  0  0  0  0  0  0  0  0
   14.9007   -3.7858    4.1855 C   0  0  1  0  0  0  0  0  0  0  0  0
   15.0793   -5.3248    4.2415 C   0  0  0  0  0  0  0  0  0  0  0  0
   15.2121   -5.9083    2.8276 C   0  0  0  0  0  0  0  0  0  0  0  0
   14.0921   -5.4092    1.8855 C   0  0  1  0  0  0  0  0  0  0  0  0
   12.7002   -6.0672    2.1302 C   0  0  2  0  0  0  0  0  0  0  0  0
   12.7513   -7.5891    2.0317 C   0  0  0  0  0  0  0  0  0  0  0  0
   13.2402   -8.2009    0.8726 C   0  0  0  0  0  0  0  0  0  0  0  0
   13.3148   -9.5869    0.7909 C   0  0  0  0  0  0  0  0  0  0  0  0
   12.8991  -10.3621    1.8687 C   0  0  0  0  0  0  0  0  0  0  0  0
   12.3947   -9.7617    3.0192 C   0  0  0  0  0  0  0  0  0  0  0  0
   12.3191   -8.3736    3.1017 C   0  0  0  0  0  0  0  0  0  0  0  0
   11.7089   -5.5107    1.2081 N   0  0  0  0  0  0  0  0  0  0  0  0
   11.7887   -4.1714    0.7851 C   0  0  0  0  0  0  0  0  0  0  0  0
   10.7851   -3.6834   -0.0443 C   0  0  0  0  0  0  0  0  0  0  0  0
    9.7425   -4.4576   -0.3412 F   0  0  0  0  0  0  0  0  0  0  0  0
   10.8182   -2.3939   -0.5448 C   0  0  0  0  0  0  0  0  0  0  0  0
   11.8627   -1.5566   -0.1858 C   0  0  0  0  0  0  0  0  0  0  0  0
   11.9178    0.0446   -0.8143 Cl  0  0  0  0  0  0  0  0  0  0  0  0
   12.8576   -2.0189    0.6758 C   0  0  0  0  0  0  0  0  0  0  0  0
   12.8659   -3.3411    1.1370 C   0  0  0  0  0  0  0  0  0  0  0  0
   14.0100   -3.8683    1.9858 C   0  0  1  0  0  0  0  0  0  0  0  0
   13.8029   -3.4589    3.3367 O   0  0  0  0  0  0  0  0  0  0  0  0
   14.4781   -6.9794    9.5537 H   0  0  0  0  0  0  0  0  0  0  0  0
   13.4466   -5.1906    8.5013 H   0  0  0  0  0  0  0  0  0  0  0  0
   14.7554   -4.6794    9.6205 H   0  0  0  0  0  0  0  0  0  0  0  0
   16.0431   -3.9191    7.8883 H   0  0  0  0  0  0  0  0  0  0  0  0
   15.8018   -5.4384    6.9607 H   0  0  0  0  0  0  0  0  0  0  0  0
   13.6934   -4.6639    6.2520 H   0  0  0  0  0  0  0  0  0  0  0  0
   13.9777   -2.2505    5.3854 H   0  0  0  0  0  0  0  0  0  0  0  0
   15.6885   -2.6012    5.8057 H   0  0  0  0  0  0  0  0  0  0  0  0
   15.8151   -3.3836    3.7250 H   0  0  0  0  0  0  0  0  0  0  0  0
   15.9864   -5.5622    4.8166 H   0  0  0  0  0  0  0  0  0  0  0  0
   14.2043   -5.7720    4.7358 H   0  0  0  0  0  0  0  0  0  0  0  0
   16.1854   -5.6102    2.4107 H   0  0  0  0  0  0  0  0  0  0  0  0
   15.1605   -7.0053    2.8902 H   0  0  0  0  0  0  0  0  0  0  0  0
   14.3933   -5.6562    0.8568 H   0  0  0  0  0  0  0  0  0  0  0  0
   12.3976   -5.8122    3.1566 H   0  0  0  0  0  0  0  0  0  0  0  0
   13.5608   -7.5946    0.0383 H   0  0  0  0  0  0  0  0  0  0  0  0
   13.6932  -10.0588   -0.1038 H   0  0  0  0  0  0  0  0  0  0  0  0
   12.9682  -11.4384    1.8125 H   0  0  0  0  0  0  0  0  0  0  0  0
   12.0626  -10.3715    3.8464 H   0  0  0  0  0  0  0  0  0  0  0  0
   11.9267   -7.9051    3.9922 H   0  0  0  0  0  0  0  0  0  0  0  0
   11.3240   -4.0516   -0.9297 H   0  0  0  0  0  0  0  0  0  0  0  0
   10.0399   -2.0442   -1.2069 H   0  0  0  0  0  0  0  0  0  0  0  0
   13.6377   -1.3431    0.9938 H   0  0  0  0  0  0  0  0  0  0  0  0
   14.9526   -3.4466    1.6069 H   0  0  0  0  0  0  0  0  0  0  0  0
  1  2  1  0  0  0  0
  2  3  1  0  0  0  0
  3  4  1  0  0  0  0
  4  5  1  0  0  0  0
  5  6  1  0  0  0  0
  6  7  1  0  0  0  0
  6 27  1  0  0  0  0
  7  8  1  0  0  0  0
  8  9  1  0  0  0  0
  9 10  1  0  0  0  0
  9 26  1  0  0  0  0
 10 11  1  0  0  0  0
 10 17  1  0  0  0  0
 11 12  2  0  0  0  0
 11 16  1  0  0  0  0
 12 13  1  0  0  0  0
 13 14  2  0  0  0  0
 14 15  1  0  0  0  0
 15 16  2  0  0  0  0
 17 18  2  0  0  0  0
 18 19  1  0  0  0  0
 18 25  1  0  0  0  0
 19 20  1  0  0  0  0
 19 21  1  0  0  0  0
 21 22  2  0  0  0  0
 22 23  1  0  0  0  0
 22 24  1  0  0  0  0
 24 25  2  0  0  0  0
 25 26  1  0  0  0  0
 26 27  1  0  0  0  0
  1 28  1  0  0  0  0
  2 29  1  0  0  0  0
  2 30  1  0  0  0  0
  3 31  1  0  0  0  0
  3 32  1  0  0  0  0
  4 33  1  0  0  0  0
  5 34  1  0  0  0  0
  5 35  1  0  0  0  0
  6 36  1  0  0  0  0
  7 37  1  0  0  0  0
  7 38  1  0  0  0  0
  8 39  1  0  0  0  0
  8 40  1  0  0  0  0
  9 41  1  0  0  0  0
 10 42  1  0  0  0  0
 12 43  1  0  0  0  0
 13 44  1  0  0  0  0
 14 45  1  0  0  0  0
 15 46  1  0  0  0  0
 16 47  1  0  0  0  0
 19 48  1  0  0  0  0
 21 49  1  0  0  0  0
 24 50  1  0  0  0  0
 26 51  1  0  0  0  0
M  END
> <ID>
CHEMBL1096002

> <IC50[nM]>
7

$$$$
