CHEMBL1077204
  -OEChem-05192314313D
 Structure written by MMmdl.
 65 68  0     1  0  0  0  0  0999 V2000
   17.1208   -7.6407   11.4944 C   0  0  0  0  0  0  0  0  0  0  0  0
   15.6242   -7.2482   11.5606 N   0  0  0  0  0  0  0  0  0  0  0  0
   15.1903   -7.0165   13.0246 C   0  0  0  0  0  0  0  0  0  0  0  0
   15.2858   -6.0369   10.6535 C   0  0  0  0  0  0  0  0  0  0  0  0
   15.3687   -6.4451    9.1688 C   0  0  0  0  0  0  0  0  0  0  0  0
   14.6307   -5.5382    8.2833 N   0  0  0  0  0  0  0  0  0  0  0  0
   15.2046   -4.6148    7.4955 C   0  0  0  0  0  0  0  0  0  0  0  0
   16.4171   -4.3982    7.4780 O   0  0  0  0  0  0  0  0  0  0  0  0
   14.3250   -3.9893    6.6937 N   0  0  0  0  0  0  0  0  0  0  0  0
   14.7079   -3.1014    5.5887 C   0  0  0  0  0  0  0  0  0  0  0  0
   14.9053   -3.7799    4.2057 C   0  0  1  0  0  0  0  0  0  0  0  0
   15.0866   -5.3225    4.2389 C   0  0  0  0  0  0  0  0  0  0  0  0
   15.2182   -5.9111    2.8299 C   0  0  0  0  0  0  0  0  0  0  0  0
   14.1067   -5.4122    1.8780 C   0  0  1  0  0  0  0  0  0  0  0  0
   12.7152   -6.0685    2.1272 C   0  0  2  0  0  0  0  0  0  0  0  0
   12.7619   -7.5943    2.0392 C   0  0  0  0  0  0  0  0  0  0  0  0
   13.2585   -8.2080    0.8850 C   0  0  0  0  0  0  0  0  0  0  0  0
   13.3325   -9.5936    0.8010 C   0  0  0  0  0  0  0  0  0  0  0  0
   12.9111  -10.3707    1.8760 C   0  0  0  0  0  0  0  0  0  0  0  0
   12.4042   -9.7694    3.0248 C   0  0  0  0  0  0  0  0  0  0  0  0
   12.3240   -8.3811    3.1077 C   0  0  0  0  0  0  0  0  0  0  0  0
   11.7146   -5.5161    1.2136 N   0  0  0  0  0  0  0  0  0  0  0  0
   11.7897   -4.1790    0.7828 C   0  0  0  0  0  0  0  0  0  0  0  0
   10.7767   -3.7118   -0.0511 C   0  0  0  0  0  0  0  0  0  0  0  0
   10.8134   -2.4087   -0.5370 C   0  0  0  0  0  0  0  0  0  0  0  0
   11.8546   -1.5518   -0.1784 C   0  0  0  0  0  0  0  0  0  0  0  0
   11.8961   -0.1327   -0.7370 C   0  0  0  0  0  0  0  0  0  0  0  0
   12.5327   -0.1525   -1.9080 F   0  0  0  0  0  0  0  0  0  0  0  0
   10.6622    0.3290   -0.9348 F   0  0  0  0  0  0  0  0  0  0  0  0
   12.5354    0.7038    0.0806 F   0  0  0  0  0  0  0  0  0  0  0  0
   12.8578   -2.0201    0.6775 C   0  0  0  0  0  0  0  0  0  0  0  0
   12.8617   -3.3430    1.1425 C   0  0  0  0  0  0  0  0  0  0  0  0
   14.0142   -3.8707    1.9829 C   0  0  1  0  0  0  0  0  0  0  0  0
   13.8081   -3.4639    3.3402 O   0  0  0  0  0  0  0  0  0  0  0  0
   17.4122   -7.8016   10.4460 H   0  0  0  0  0  0  0  0  0  0  0  0
   17.7310   -6.8328   11.9245 H   0  0  0  0  0  0  0  0  0  0  0  0
   17.2826   -8.5665   12.0660 H   0  0  0  0  0  0  0  0  0  0  0  0
   14.1263   -6.7390   13.0527 H   0  0  0  0  0  0  0  0  0  0  0  0
   15.3437   -7.9396   13.6028 H   0  0  0  0  0  0  0  0  0  0  0  0
   15.7921   -6.2059   13.4614 H   0  0  0  0  0  0  0  0  0  0  0  0
   14.2671   -5.6878   10.8782 H   0  0  0  0  0  0  0  0  0  0  0  0
   16.0027   -5.2256   10.8480 H   0  0  0  0  0  0  0  0  0  0  0  0
   16.4258   -6.4487    8.8647 H   0  0  0  0  0  0  0  0  0  0  0  0
   14.9523   -7.4574    9.0598 H   0  0  0  0  0  0  0  0  0  0  0  0
   13.6336   -5.6126    8.2651 H   0  0  0  0  0  0  0  0  0  0  0  0
   13.3502   -4.1379    6.8601 H   0  0  0  0  0  0  0  0  0  0  0  0
   13.9211   -2.3403    5.4807 H   0  0  0  0  0  0  0  0  0  0  0  0
   15.6550   -2.6134    5.8621 H   0  0  0  0  0  0  0  0  0  0  0  0
   15.8235   -3.3588    3.7704 H   0  0  0  0  0  0  0  0  0  0  0  0
   15.9951   -5.5619    4.8110 H   0  0  0  0  0  0  0  0  0  0  0  0
   14.2130   -5.7730    4.7327 H   0  0  0  0  0  0  0  0  0  0  0  0
   16.1950   -5.6211    2.4155 H   0  0  0  0  0  0  0  0  0  0  0  0
   15.1596   -7.0074    2.8979 H   0  0  0  0  0  0  0  0  0  0  0  0
   14.4108   -5.6594    0.8502 H   0  0  0  0  0  0  0  0  0  0  0  0
   12.4187   -5.8099    3.1544 H   0  0  0  0  0  0  0  0  0  0  0  0
   13.5866   -7.6017    0.0536 H   0  0  0  0  0  0  0  0  0  0  0  0
   13.7146  -10.0641   -0.0929 H   0  0  0  0  0  0  0  0  0  0  0  0
   12.9778  -11.4471    1.8186 H   0  0  0  0  0  0  0  0  0  0  0  0
   12.0730  -10.3795    3.8521 H   0  0  0  0  0  0  0  0  0  0  0  0
   11.9243   -7.9141    3.9957 H   0  0  0  0  0  0  0  0  0  0  0  0
   11.7378   -6.0824    0.3897 H   0  0  0  0  0  0  0  0  0  0  0  0
    9.9593   -4.3638   -0.3216 H   0  0  0  0  0  0  0  0  0  0  0  0
   10.0320   -2.0586   -1.1952 H   0  0  0  0  0  0  0  0  0  0  0  0
   13.6454   -1.3487    0.9863 H   0  0  0  0  0  0  0  0  0  0  0  0
   14.9527   -3.4413    1.6024 H   0  0  0  0  0  0  0  0  0  0  0  0
  1  2  1  0  0  0  0
  2  3  1  0  0  0  0
  2  4  1  0  0  0  0
  4  5  1  0  0  0  0
  5  6  1  0  0  0  0
  6  7  1  0  0  0  0
  7  8  2  0  0  0  0
  7  9  1  0  0  0  0
  9 10  1  0  0  0  0
 10 11  1  0  0  0  0
 11 12  1  0  0  0  0
 11 34  1  0  0  0  0
 12 13  1  0  0  0  0
 13 14  1  0  0  0  0
 14 15  1  0  0  0  0
 14 33  1  0  0  0  0
 15 16  1  0  0  0  0
 15 22  1  0  0  0  0
 16 17  2  0  0  0  0
 16 21  1  0  0  0  0
 17 18  1  0  0  0  0
 18 19  2  0  0  0  0
 19 20  1  0  0  0  0
 20 21  2  0  0  0  0
 22 23  1  0  0  0  0
 23 24  2  0  0  0  0
 23 32  1  0  0  0  0
 24 25  1  0  0  0  0
 25 26  2  0  0  0  0
 26 27  1  0  0  0  0
 26 31  1  0  0  0  0
 27 28  1  0  0  0  0
 27 29  1  0  0  0  0
 27 30  1  0  0  0  0
 31 32  2  0  0  0  0
 32 33  1  0  0  0  0
 33 34  1  0  0  0  0
  1 35  1  0  0  0  0
  1 36  1  0  0  0  0
  1 37  1  0  0  0  0
  3 38  1  0  0  0  0
  3 39  1  0  0  0  0
  3 40  1  0  0  0  0
  4 41  1  0  0  0  0
  4 42  1  0  0  0  0
  5 43  1  0  0  0  0
  5 44  1  0  0  0  0
  6 45  1  0  0  0  0
  9 46  1  0  0  0  0
 10 47  1  0  0  0  0
 10 48  1  0  0  0  0
 11 49  1  0  0  0  0
 12 50  1  0  0  0  0
 12 51  1  0  0  0  0
 13 52  1  0  0  0  0
 13 53  1  0  0  0  0
 14 54  1  0  0  0  0
 15 55  1  0  0  0  0
 17 56  1  0  0  0  0
 18 57  1  0  0  0  0
 19 58  1  0  0  0  0
 20 59  1  0  0  0  0
 21 60  1  0  0  0  0
 22 61  1  0  0  0  0
 24 62  1  0  0  0  0
 25 63  1  0  0  0  0
 31 64  1  0  0  0  0
 33 65  1  0  0  0  0
M  END
> <ID>
CHEMBL1077204

> <IC50[nM]>
8

$$$$
CHEMBL1077204
  -OEChem-05192314313D
 Structure written by MMmdl.
 65 68  0     1  0  0  0  0  0999 V2000
   17.1208   -7.6407   11.4944 C   0  0  0  0  0  0  0  0  0  0  0  0
   15.6242   -7.2482   11.5606 N   0  0  0  0  0  0  0  0  0  0  0  0
   15.1903   -7.0165   13.0246 C   0  0  0  0  0  0  0  0  0  0  0  0
   15.2858   -6.0369   10.6535 C   0  0  0  0  0  0  0  0  0  0  0  0
   15.3687   -6.4451    9.1688 C   0  0  0  0  0  0  0  0  0  0  0  0
   14.6307   -5.5382    8.2833 N   0  0  0  0  0  0  0  0  0  0  0  0
   15.2046   -4.6148    7.4955 C   0  0  0  0  0  0  0  0  0  0  0  0
   16.4171   -4.3982    7.4780 O   0  0  0  0  0  0  0  0  0  0  0  0
   14.3250   -3.9893    6.6937 N   0  0  0  0  0  0  0  0  0  0  0  0
   14.7079   -3.1014    5.5887 C   0  0  0  0  0  0  0  0  0  0  0  0
   14.9053   -3.7799    4.2057 C   0  0  1  0  0  0  0  0  0  0  0  0
   15.0866   -5.3225    4.2389 C   0  0  0  0  0  0  0  0  0  0  0  0
   15.2182   -5.9111    2.8299 C   0  0  0  0  0  0  0  0  0  0  0  0
   14.1067   -5.4122    1.8780 C   0  0  1  0  0  0  0  0  0  0  0  0
   12.7152   -6.0685    2.1272 C   0  0  2  0  0  0  0  0  0  0  0  0
   12.7619   -7.5943    2.0392 C   0  0  0  0  0  0  0  0  0  0  0  0
   13.2585   -8.2080    0.8850 C   0  0  0  0  0  0  0  0  0  0  0  0
   13.3325   -9.5936    0.8010 C   0  0  0  0  0  0  0  0  0  0  0  0
   12.9111  -10.3707    1.8760 C   0  0  0  0  0  0  0  0  0  0  0  0
   12.4042   -9.7694    3.0248 C   0  0  0  0  0  0  0  0  0  0  0  0
   12.3240   -8.3811    3.1077 C   0  0  0  0  0  0  0  0  0  0  0  0
   11.7146   -5.5161    1.2136 N   0  0  0  0  0  0  0  0  0  0  0  0
   11.7897   -4.1790    0.7828 C   0  0  0  0  0  0  0  0  0  0  0  0
   10.7767   -3.7118   -0.0511 C   0  0  0  0  0  0  0  0  0  0  0  0
   10.8134   -2.4087   -0.5370 C   0  0  0  0  0  0  0  0  0  0  0  0
   11.8546   -1.5518   -0.1784 C   0  0  0  0  0  0  0  0  0  0  0  0
   11.8961   -0.1327   -0.7370 C   0  0  0  0  0  0  0  0  0  0  0  0
   12.5327   -0.1525   -1.9080 F   0  0  0  0  0  0  0  0  0  0  0  0
   10.6622    0.3290   -0.9348 F   0  0  0  0  0  0  0  0  0  0  0  0
   12.5354    0.7038    0.0806 F   0  0  0  0  0  0  0  0  0  0  0  0
   12.8578   -2.0201    0.6775 C   0  0  0  0  0  0  0  0  0  0  0  0
   12.8617   -3.3430    1.1425 C   0  0  0  0  0  0  0  0  0  0  0  0
   14.0142   -3.8707    1.9829 C   0  0  1  0  0  0  0  0  0  0  0  0
   13.8081   -3.4639    3.3402 O   0  0  0  0  0  0  0  0  0  0  0  0
   17.4122   -7.8016   10.4460 H   0  0  0  0  0  0  0  0  0  0  0  0
   17.7310   -6.8328   11.9245 H   0  0  0  0  0  0  0  0  0  0  0  0
   17.2826   -8.5665   12.0660 H   0  0  0  0  0  0  0  0  0  0  0  0
   14.1263   -6.7390   13.0527 H   0  0  0  0  0  0  0  0  0  0  0  0
   15.3437   -7.9396   13.6028 H   0  0  0  0  0  0  0  0  0  0  0  0
   15.7921   -6.2059   13.4614 H   0  0  0  0  0  0  0  0  0  0  0  0
   14.2671   -5.6878   10.8782 H   0  0  0  0  0  0  0  0  0  0  0  0
   16.0027   -5.2256   10.8480 H   0  0  0  0  0  0  0  0  0  0  0  0
   16.4258   -6.4487    8.8647 H   0  0  0  0  0  0  0  0  0  0  0  0
   14.9523   -7.4574    9.0598 H   0  0  0  0  0  0  0  0  0  0  0  0
   13.6336   -5.6126    8.2651 H   0  0  0  0  0  0  0  0  0  0  0  0
   16.6071   -3.7087    6.8527 H   0  0  0  0  0  0  0  0  0  0  0  0
   13.9211   -2.3403    5.4807 H   0  0  0  0  0  0  0  0  0  0  0  0
   15.6550   -2.6134    5.8621 H   0  0  0  0  0  0  0  0  0  0  0  0
   15.8235   -3.3588    3.7704 H   0  0  0  0  0  0  0  0  0  0  0  0
   15.9951   -5.5619    4.8110 H   0  0  0  0  0  0  0  0  0  0  0  0
   14.2130   -5.7730    4.7327 H   0  0  0  0  0  0  0  0  0  0  0  0
   16.1950   -5.6211    2.4155 H   0  0  0  0  0  0  0  0  0  0  0  0
   15.1596   -7.0074    2.8979 H   0  0  0  0  0  0  0  0  0  0  0  0
   14.4108   -5.6594    0.8502 H   0  0  0  0  0  0  0  0  0  0  0  0
   12.4187   -5.8099    3.1544 H   0  0  0  0  0  0  0  0  0  0  0  0
   13.5866   -7.6017    0.0536 H   0  0  0  0  0  0  0  0  0  0  0  0
   13.7146  -10.0641   -0.0929 H   0  0  0  0  0  0  0  0  0  0  0  0
   12.9778  -11.4471    1.8186 H   0  0  0  0  0  0  0  0  0  0  0  0
   12.0730  -10.3795    3.8521 H   0  0  0  0  0  0  0  0  0  0  0  0
   11.9243   -7.9141    3.9957 H   0  0  0  0  0  0  0  0  0  0  0  0
   11.7378   -6.0824    0.3897 H   0  0  0  0  0  0  0  0  0  0  0  0
    9.9593   -4.3638   -0.3216 H   0  0  0  0  0  0  0  0  0  0  0  0
   10.0320   -2.0586   -1.1952 H   0  0  0  0  0  0  0  0  0  0  0  0
   13.6454   -1.3487    0.9863 H   0  0  0  0  0  0  0  0  0  0  0  0
   14.9527   -3.4413    1.6024 H   0  0  0  0  0  0  0  0  0  0  0  0
  1  2  1  0  0  0  0
  2  3  1  0  0  0  0
  2  4  1  0  0  0  0
  4  5  1  0  0  0  0
  5  6  1  0  0  0  0
  6  7  1  0  0  0  0
  7  8  1  0  0  0  0
  7  9  2  0  0  0  0
  9 10  1  0  0  0  0
 10 11  1  0  0  0  0
 11 12  1  0  0  0  0
 11 34  1  0  0  0  0
 12 13  1  0  0  0  0
 13 14  1  0  0  0  0
 14 15  1  0  0  0  0
 14 33  1  0  0  0  0
 15 16  1  0  0  0  0
 15 22  1  0  0  0  0
 16 17  2  0  0  0  0
 16 21  1  0  0  0  0
 17 18  1  0  0  0  0
 18 19  2  0  0  0  0
 19 20  1  0  0  0  0
 20 21  2  0  0  0  0
 22 23  1  0  0  0  0
 23 24  2  0  0  0  0
 23 32  1  0  0  0  0
 24 25  1  0  0  0  0
 25 26  2  0  0  0  0
 26 27  1  0  0  0  0
 26 31  1  0  0  0  0
 27 28  1  0  0  0  0
 27 29  1  0  0  0  0
 27 30  1  0  0  0  0
 31 32  2  0  0  0  0
 32 33  1  0  0  0  0
 33 34  1  0  0  0  0
  1 35  1  0  0  0  0
  1 36  1  0  0  0  0
  1 37  1  0  0  0  0
  3 38  1  0  0  0  0
  3 39  1  0  0  0  0
  3 40  1  0  0  0  0
  4 41  1  0  0  0  0
  4 42  1  0  0  0  0
  5 43  1  0  0  0  0
  5 44  1  0  0  0  0
  6 45  1  0  0  0  0
  8 46  1  0  0  0  0
 10 47  1  0  0  0  0
 10 48  1  0  0  0  0
 11 49  1  0  0  0  0
 12 50  1  0  0  0  0
 12 51  1  0  0  0  0
 13 52  1  0  0  0  0
 13 53  1  0  0  0  0
 14 54  1  0  0  0  0
 15 55  1  0  0  0  0
 17 56  1  0  0  0  0
 18 57  1  0  0  0  0
 19 58  1  0  0  0  0
 20 59  1  0  0  0  0
 21 60  1  0  0  0  0
 22 61  1  0  0  0  0
 24 62  1  0  0  0  0
 25 63  1  0  0  0  0
 31 64  1  0  0  0  0
 33 65  1  0  0  0  0
M  END
> <ID>
CHEMBL1077204

> <IC50[nM]>
8

$$$$
CHEMBL1077204
  -OEChem-05192314313D
 Structure written by MMmdl.
 65 68  0     1  0  0  0  0  0999 V2000
   17.1208   -7.6407   11.4944 C   0  0  0  0  0  0  0  0  0  0  0  0
   15.6242   -7.2482   11.5606 N   0  0  0  0  0  0  0  0  0  0  0  0
   15.1903   -7.0165   13.0246 C   0  0  0  0  0  0  0  0  0  0  0  0
   15.2858   -6.0369   10.6535 C   0  0  0  0  0  0  0  0  0  0  0  0
   15.3687   -6.4451    9.1688 C   0  0  0  0  0  0  0  0  0  0  0  0
   14.6307   -5.5382    8.2833 N   0  0  0  0  0  0  0  0  0  0  0  0
   15.2046   -4.6148    7.4955 C   0  0  0  0  0  0  0  0  0  0  0  0
   16.4171   -4.3982    7.4780 O   0  0  0  0  0  0  0  0  0  0  0  0
   14.3250   -3.9893    6.6937 N   0  0  0  0  0  0  0  0  0  0  0  0
   14.7079   -3.1014    5.5887 C   0  0  0  0  0  0  0  0  0  0  0  0
   14.9053   -3.7799    4.2057 C   0  0  1  0  0  0  0  0  0  0  0  0
   15.0866   -5.3225    4.2389 C   0  0  0  0  0  0  0  0  0  0  0  0
   15.2182   -5.9111    2.8299 C   0  0  0  0  0  0  0  0  0  0  0  0
   14.1067   -5.4122    1.8780 C   0  0  1  0  0  0  0  0  0  0  0  0
   12.7152   -6.0685    2.1272 C   0  0  2  0  0  0  0  0  0  0  0  0
   12.7619   -7.5943    2.0392 C   0  0  0  0  0  0  0  0  0  0  0  0
   13.2585   -8.2080    0.8850 C   0  0  0  0  0  0  0  0  0  0  0  0
   13.3325   -9.5936    0.8010 C   0  0  0  0  0  0  0  0  0  0  0  0
   12.9111  -10.3707    1.8760 C   0  0  0  0  0  0  0  0  0  0  0  0
   12.4042   -9.7694    3.0248 C   0  0  0  0  0  0  0  0  0  0  0  0
   12.3240   -8.3811    3.1077 C   0  0  0  0  0  0  0  0  0  0  0  0
   11.7146   -5.5161    1.2136 N   0  0  0  0  0  0  0  0  0  0  0  0
   11.7897   -4.1790    0.7828 C   0  0  0  0  0  0  0  0  0  0  0  0
   10.7767   -3.7118   -0.0511 C   0  0  0  0  0  0  0  0  0  0  0  0
   10.8134   -2.4087   -0.5370 C   0  0  0  0  0  0  0  0  0  0  0  0
   11.8546   -1.5518   -0.1784 C   0  0  0  0  0  0  0  0  0  0  0  0
   11.8961   -0.1327   -0.7370 C   0  0  0  0  0  0  0  0  0  0  0  0
   12.5327   -0.1525   -1.9080 F   0  0  0  0  0  0  0  0  0  0  0  0
   10.6622    0.3290   -0.9348 F   0  0  0  0  0  0  0  0  0  0  0  0
   12.5354    0.7038    0.0806 F   0  0  0  0  0  0  0  0  0  0  0  0
   12.8578   -2.0201    0.6775 C   0  0  0  0  0  0  0  0  0  0  0  0
   12.8617   -3.3430    1.1425 C   0  0  0  0  0  0  0  0  0  0  0  0
   14.0142   -3.8707    1.9829 C   0  0  1  0  0  0  0  0  0  0  0  0
   13.8081   -3.4639    3.3402 O   0  0  0  0  0  0  0  0  0  0  0  0
   17.4122   -7.8016   10.4460 H   0  0  0  0  0  0  0  0  0  0  0  0
   17.7310   -6.8328   11.9245 H   0  0  0  0  0  0  0  0  0  0  0  0
   17.2826   -8.5665   12.0660 H   0  0  0  0  0  0  0  0  0  0  0  0
   14.1263   -6.7390   13.0527 H   0  0  0  0  0  0  0  0  0  0  0  0
   15.3437   -7.9396   13.6028 H   0  0  0  0  0  0  0  0  0  0  0  0
   15.7921   -6.2059   13.4614 H   0  0  0  0  0  0  0  0  0  0  0  0
   14.2671   -5.6878   10.8782 H   0  0  0  0  0  0  0  0  0  0  0  0
   16.0027   -5.2256   10.8480 H   0  0  0  0  0  0  0  0  0  0  0  0
   16.4258   -6.4487    8.8647 H   0  0  0  0  0  0  0  0  0  0  0  0
   14.9523   -7.4574    9.0598 H   0  0  0  0  0  0  0  0  0  0  0  0
   16.6071   -3.7087    6.8527 H   0  0  0  0  0  0  0  0  0  0  0  0
   13.3502   -4.1379    6.8601 H   0  0  0  0  0  0  0  0  0  0  0  0
   13.9211   -2.3403    5.4807 H   0  0  0  0  0  0  0  0  0  0  0  0
   15.6550   -2.6134    5.8621 H   0  0  0  0  0  0  0  0  0  0  0  0
   15.8235   -3.3588    3.7704 H   0  0  0  0  0  0  0  0  0  0  0  0
   15.9951   -5.5619    4.8110 H   0  0  0  0  0  0  0  0  0  0  0  0
   14.2130   -5.7730    4.7327 H   0  0  0  0  0  0  0  0  0  0  0  0
   16.1950   -5.6211    2.4155 H   0  0  0  0  0  0  0  0  0  0  0  0
   15.1596   -7.0074    2.8979 H   0  0  0  0  0  0  0  0  0  0  0  0
   14.4108   -5.6594    0.8502 H   0  0  0  0  0  0  0  0  0  0  0  0
   12.4187   -5.8099    3.1544 H   0  0  0  0  0  0  0  0  0  0  0  0
   13.5866   -7.6017    0.0536 H   0  0  0  0  0  0  0  0  0  0  0  0
   13.7146  -10.0641   -0.0929 H   0  0  0  0  0  0  0  0  0  0  0  0
   12.9778  -11.4471    1.8186 H   0  0  0  0  0  0  0  0  0  0  0  0
   12.0730  -10.3795    3.8521 H   0  0  0  0  0  0  0  0  0  0  0  0
   11.9243   -7.9141    3.9957 H   0  0  0  0  0  0  0  0  0  0  0  0
   11.7378   -6.0824    0.3897 H   0  0  0  0  0  0  0  0  0  0  0  0
    9.9593   -4.3638   -0.3216 H   0  0  0  0  0  0  0  0  0  0  0  0
   10.0320   -2.0586   -1.1952 H   0  0  0  0  0  0  0  0  0  0  0  0
   13.6454   -1.3487    0.9863 H   0  0  0  0  0  0  0  0  0  0  0  0
   14.9527   -3.4413    1.6024 H   0  0  0  0  0  0  0  0  0  0  0  0
  1  2  1  0  0  0  0
  2  3  1  0  0  0  0
  2  4  1  0  0  0  0
  4  5  1  0  0  0  0
  5  6  1  0  0  0  0
  6  7  2  0  0  0  0
  7  8  1  0  0  0  0
  7  9  1  0  0  0  0
  9 10  1  0  0  0  0
 10 11  1  0  0  0  0
 11 12  1  0  0  0  0
 11 34  1  0  0  0  0
 12 13  1  0  0  0  0
 13 14  1  0  0  0  0
 14 15  1  0  0  0  0
 14 33  1  0  0  0  0
 15 16  1  0  0  0  0
 15 22  1  0  0  0  0
 16 17  2  0  0  0  0
 16 21  1  0  0  0  0
 17 18  1  0  0  0  0
 18 19  2  0  0  0  0
 19 20  1  0  0  0  0
 20 21  2  0  0  0  0
 22 23  1  0  0  0  0
 23 24  2  0  0  0  0
 23 32  1  0  0  0  0
 24 25  1  0  0  0  0
 25 26  2  0  0  0  0
 26 27  1  0  0  0  0
 26 31  1  0  0  0  0
 27 28  1  0  0  0  0
 27 29  1  0  0  0  0
 27 30  1  0  0  0  0
 31 32  2  0  0  0  0
 32 33  1  0  0  0  0
 33 34  1  0  0  0  0
  1 35  1  0  0  0  0
  1 36  1  0  0  0  0
  1 37  1  0  0  0  0
  3 38  1  0  0  0  0
  3 39  1  0  0  0  0
  3 40  1  0  0  0  0
  4 41  1  0  0  0  0
  4 42  1  0  0  0  0
  5 43  1  0  0  0  0
  5 44  1  0  0  0  0
  8 45  1  0  0  0  0
  9 46  1  0  0  0  0
 10 47  1  0  0  0  0
 10 48  1  0  0  0  0
 11 49  1  0  0  0  0
 12 50  1  0  0  0  0
 12 51  1  0  0  0  0
 13 52  1  0  0  0  0
 13 53  1  0  0  0  0
 14 54  1  0  0  0  0
 15 55  1  0  0  0  0
 17 56  1  0  0  0  0
 18 57  1  0  0  0  0
 19 58  1  0  0  0  0
 20 59  1  0  0  0  0
 21 60  1  0  0  0  0
 22 61  1  0  0  0  0
 24 62  1  0  0  0  0
 25 63  1  0  0  0  0
 31 64  1  0  0  0  0
 33 65  1  0  0  0  0
M  END
> <ID>
CHEMBL1077204

> <IC50[nM]>
8

$$$$
CHEMBL1077204
  -OEChem-05192314313D
 Structure written by MMmdl.
 65 68  0     1  0  0  0  0  0999 V2000
   17.1208   -7.6407   11.4944 C   0  0  0  0  0  0  0  0  0  0  0  0
   15.6242   -7.2482   11.5606 N   0  0  0  0  0  0  0  0  0  0  0  0
   15.1903   -7.0165   13.0246 C   0  0  0  0  0  0  0  0  0  0  0  0
   15.2858   -6.0369   10.6535 C   0  0  0  0  0  0  0  0  0  0  0  0
   15.3687   -6.4451    9.1688 C   0  0  0  0  0  0  0  0  0  0  0  0
   14.6307   -5.5382    8.2833 N   0  0  0  0  0  0  0  0  0  0  0  0
   15.2046   -4.6148    7.4955 C   0  0  0  0  0  0  0  0  0  0  0  0
   16.4171   -4.3982    7.4780 O   0  0  0  0  0  0  0  0  0  0  0  0
   14.3250   -3.9893    6.6937 N   0  0  0  0  0  0  0  0  0  0  0  0
   14.7079   -3.1014    5.5887 C   0  0  0  0  0  0  0  0  0  0  0  0
   14.9053   -3.7799    4.2057 C   0  0  1  0  0  0  0  0  0  0  0  0
   15.0866   -5.3225    4.2389 C   0  0  0  0  0  0  0  0  0  0  0  0
   15.2182   -5.9111    2.8299 C   0  0  0  0  0  0  0  0  0  0  0  0
   14.1067   -5.4122    1.8780 C   0  0  1  0  0  0  0  0  0  0  0  0
   12.7152   -6.0685    2.1272 C   0  0  2  0  0  0  0  0  0  0  0  0
   12.7619   -7.5943    2.0392 C   0  0  0  0  0  0  0  0  0  0  0  0
   13.2585   -8.2080    0.8850 C   0  0  0  0  0  0  0  0  0  0  0  0
   13.3325   -9.5936    0.8010 C   0  0  0  0  0  0  0  0  0  0  0  0
   12.9111  -10.3707    1.8760 C   0  0  0  0  0  0  0  0  0  0  0  0
   12.4042   -9.7694    3.0248 C   0  0  0  0  0  0  0  0  0  0  0  0
   12.3240   -8.3811    3.1077 C   0  0  0  0  0  0  0  0  0  0  0  0
   11.7146   -5.5161    1.2136 N   0  0  0  0  0  0  0  0  0  0  0  0
   11.7897   -4.1790    0.7828 C   0  0  0  0  0  0  0  0  0  0  0  0
   10.7767   -3.7118   -0.0511 C   0  0  0  0  0  0  0  0  0  0  0  0
   10.8134   -2.4087   -0.5370 C   0  0  0  0  0  0  0  0  0  0  0  0
   11.8546   -1.5518   -0.1784 C   0  0  0  0  0  0  0  0  0  0  0  0
   11.8961   -0.1327   -0.7370 C   0  0  0  0  0  0  0  0  0  0  0  0
   12.5327   -0.1525   -1.9080 F   0  0  0  0  0  0  0  0  0  0  0  0
   10.6622    0.3290   -0.9348 F   0  0  0  0  0  0  0  0  0  0  0  0
   12.5354    0.7038    0.0806 F   0  0  0  0  0  0  0  0  0  0  0  0
   12.8578   -2.0201    0.6775 C   0  0  0  0  0  0  0  0  0  0  0  0
   12.8617   -3.3430    1.1425 C   0  0  0  0  0  0  0  0  0  0  0  0
   14.0142   -3.8707    1.9829 C   0  0  1  0  0  0  0  0  0  0  0  0
   13.8081   -3.4639    3.3402 O   0  0  0  0  0  0  0  0  0  0  0  0
   17.4122   -7.8016   10.4460 H   0  0  0  0  0  0  0  0  0  0  0  0
   17.7310   -6.8328   11.9245 H   0  0  0  0  0  0  0  0  0  0  0  0
   17.2826   -8.5665   12.0660 H   0  0  0  0  0  0  0  0  0  0  0  0
   14.1263   -6.7390   13.0527 H   0  0  0  0  0  0  0  0  0  0  0  0
   15.3437   -7.9396   13.6028 H   0  0  0  0  0  0  0  0  0  0  0  0
   15.7921   -6.2059   13.4614 H   0  0  0  0  0  0  0  0  0  0  0  0
   14.2671   -5.6878   10.8782 H   0  0  0  0  0  0  0  0  0  0  0  0
   16.0027   -5.2256   10.8480 H   0  0  0  0  0  0  0  0  0  0  0  0
   16.4258   -6.4487    8.8647 H   0  0  0  0  0  0  0  0  0  0  0  0
   14.9523   -7.4574    9.0598 H   0  0  0  0  0  0  0  0  0  0  0  0
   13.6336   -5.6126    8.2651 H   0  0  0  0  0  0  0  0  0  0  0  0
   13.3502   -4.1379    6.8601 H   0  0  0  0  0  0  0  0  0  0  0  0
   13.9211   -2.3403    5.4807 H   0  0  0  0  0  0  0  0  0  0  0  0
   15.6550   -2.6134    5.8621 H   0  0  0  0  0  0  0  0  0  0  0  0
   15.8235   -3.3588    3.7704 H   0  0  0  0  0  0  0  0  0  0  0  0
   15.9951   -5.5619    4.8110 H   0  0  0  0  0  0  0  0  0  0  0  0
   14.2130   -5.7730    4.7327 H   0  0  0  0  0  0  0  0  0  0  0  0
   16.1950   -5.6211    2.4155 H   0  0  0  0  0  0  0  0  0  0  0  0
   15.1596   -7.0074    2.8979 H   0  0  0  0  0  0  0  0  0  0  0  0
   14.4108   -5.6594    0.8502 H   0  0  0  0  0  0  0  0  0  0  0  0
   12.4187   -5.8099    3.1544 H   0  0  0  0  0  0  0  0  0  0  0  0
   13.5866   -7.6017    0.0536 H   0  0  0  0  0  0  0  0  0  0  0  0
   13.7146  -10.0641   -0.0929 H   0  0  0  0  0  0  0  0  0  0  0  0
   12.9778  -11.4471    1.8186 H   0  0  0  0  0  0  0  0  0  0  0  0
   12.0730  -10.3795    3.8521 H   0  0  0  0  0  0  0  0  0  0  0  0
   11.9243   -7.9141    3.9957 H   0  0  0  0  0  0  0  0  0  0  0  0
    9.9593   -4.3638   -0.3216 H   0  0  0  0  0  0  0  0  0  0  0  0
   10.0320   -2.0586   -1.1952 H   0  0  0  0  0  0  0  0  0  0  0  0
   11.2737   -1.1994    0.6867 H   0  0  0  0  0  0  0  0  0  0  0  0
   13.6454   -1.3487    0.9863 H   0  0  0  0  0  0  0  0  0  0  0  0
   14.9527   -3.4413    1.6024 H   0  0  0  0  0  0  0  0  0  0  0  0
  1  2  1  0  0  0  0
  2  3  1  0  0  0  0
  2  4  1  0  0  0  0
  4  5  1  0  0  0  0
  5  6  1  0  0  0  0
  6  7  1  0  0  0  0
  7  8  2  0  0  0  0
  7  9  1  0  0  0  0
  9 10  1  0  0  0  0
 10 11  1  0  0  0  0
 11 12  1  0  0  0  0
 11 34  1  0  0  0  0
 12 13  1  0  0  0  0
 13 14  1  0  0  0  0
 14 15  1  0  0  0  0
 14 33  1  0  0  0  0
 15 16  1  0  0  0  0
 15 22  1  0  0  0  0
 16 17  2  0  0  0  0
 16 21  1  0  0  0  0
 17 18  1  0  0  0  0
 18 19  2  0  0  0  0
 19 20  1  0  0  0  0
 20 21  2  0  0  0  0
 22 23  2  0  0  0  0
 23 24  1  0  0  0  0
 23 32  1  0  0  0  0
 24 25  2  0  0  0  0
 25 26  1  0  0  0  0
 26 27  1  0  0  0  0
 26 31  1  0  0  0  0
 27 28  1  0  0  0  0
 27 29  1  0  0  0  0
 27 30  1  0  0  0  0
 31 32  2  0  0  0  0
 32 33  1  0  0  0  0
 33 34  1  0  0  0  0
  1 35  1  0  0  0  0
  1 36  1  0  0  0  0
  1 37  1  0  0  0  0
  3 38  1  0  0  0  0
  3 39  1  0  0  0  0
  3 40  1  0  0  0  0
  4 41  1  0  0  0  0
  4 42  1  0  0  0  0
  5 43  1  0  0  0  0
  5 44  1  0  0  0  0
  6 45  1  0  0  0  0
  9 46  1  0  0  0  0
 10 47  1  0  0  0  0
 10 48  1  0  0  0  0
 11 49  1  0  0  0  0
 12 50  1  0  0  0  0
 12 51  1  0  0  0  0
 13 52  1  0  0  0  0
 13 53  1  0  0  0  0
 14 54  1  0  0  0  0
 15 55  1  0  0  0  0
 17 56  1  0  0  0  0
 18 57  1  0  0  0  0
 19 58  1  0  0  0  0
 20 59  1  0  0  0  0
 21 60  1  0  0  0  0
 24 61  1  0  0  0  0
 25 62  1  0  0  0  0
 26 63  1  0  0  0  0
 31 64  1  0  0  0  0
 33 65  1  0  0  0  0
M  END
> <ID>
CHEMBL1077204

> <IC50[nM]>
8

$$$$
CHEMBL1077204
  -OEChem-05192314313D
 Structure written by MMmdl.
 65 68  0     1  0  0  0  0  0999 V2000
   17.1208   -7.6407   11.4944 C   0  0  0  0  0  0  0  0  0  0  0  0
   15.6242   -7.2482   11.5606 N   0  0  0  0  0  0  0  0  0  0  0  0
   15.1903   -7.0165   13.0246 C   0  0  0  0  0  0  0  0  0  0  0  0
   15.2858   -6.0369   10.6535 C   0  0  0  0  0  0  0  0  0  0  0  0
   15.3687   -6.4451    9.1688 C   0  0  0  0  0  0  0  0  0  0  0  0
   14.6307   -5.5382    8.2833 N   0  0  0  0  0  0  0  0  0  0  0  0
   15.2046   -4.6148    7.4955 C   0  0  0  0  0  0  0  0  0  0  0  0
   16.4171   -4.3982    7.4780 O   0  0  0  0  0  0  0  0  0  0  0  0
   14.3250   -3.9893    6.6937 N   0  0  0  0  0  0  0  0  0  0  0  0
   14.7079   -3.1014    5.5887 C   0  0  0  0  0  0  0  0  0  0  0  0
   14.9053   -3.7799    4.2057 C   0  0  1  0  0  0  0  0  0  0  0  0
   15.0866   -5.3225    4.2389 C   0  0  0  0  0  0  0  0  0  0  0  0
   15.2182   -5.9111    2.8299 C   0  0  0  0  0  0  0  0  0  0  0  0
   14.1067   -5.4122    1.8780 C   0  0  1  0  0  0  0  0  0  0  0  0
   12.7152   -6.0685    2.1272 C   0  0  2  0  0  0  0  0  0  0  0  0
   12.7619   -7.5943    2.0392 C   0  0  0  0  0  0  0  0  0  0  0  0
   13.2585   -8.2080    0.8850 C   0  0  0  0  0  0  0  0  0  0  0  0
   13.3325   -9.5936    0.8010 C   0  0  0  0  0  0  0  0  0  0  0  0
   12.9111  -10.3707    1.8760 C   0  0  0  0  0  0  0  0  0  0  0  0
   12.4042   -9.7694    3.0248 C   0  0  0  0  0  0  0  0  0  0  0  0
   12.3240   -8.3811    3.1077 C   0  0  0  0  0  0  0  0  0  0  0  0
   11.7146   -5.5161    1.2136 N   0  0  0  0  0  0  0  0  0  0  0  0
   11.7897   -4.1790    0.7828 C   0  0  0  0  0  0  0  0  0  0  0  0
   10.7767   -3.7118   -0.0511 C   0  0  0  0  0  0  0  0  0  0  0  0
   10.8134   -2.4087   -0.5370 C   0  0  0  0  0  0  0  0  0  0  0  0
   11.8546   -1.5518   -0.1784 C   0  0  0  0  0  0  0  0  0  0  0  0
   11.8961   -0.1327   -0.7370 C   0  0  0  0  0  0  0  0  0  0  0  0
   12.5327   -0.1525   -1.9080 F   0  0  0  0  0  0  0  0  0  0  0  0
   10.6622    0.3290   -0.9348 F   0  0  0  0  0  0  0  0  0  0  0  0
   12.5354    0.7038    0.0806 F   0  0  0  0  0  0  0  0  0  0  0  0
   12.8578   -2.0201    0.6775 C   0  0  0  0  0  0  0  0  0  0  0  0
   12.8617   -3.3430    1.1425 C   0  0  0  0  0  0  0  0  0  0  0  0
   14.0142   -3.8707    1.9829 C   0  0  1  0  0  0  0  0  0  0  0  0
   13.8081   -3.4639    3.3402 O   0  0  0  0  0  0  0  0  0  0  0  0
   17.4122   -7.8016   10.4460 H   0  0  0  0  0  0  0  0  0  0  0  0
   17.7310   -6.8328   11.9245 H   0  0  0  0  0  0  0  0  0  0  0  0
   17.2826   -8.5665   12.0660 H   0  0  0  0  0  0  0  0  0  0  0  0
   14.1263   -6.7390   13.0527 H   0  0  0  0  0  0  0  0  0  0  0  0
   15.3437   -7.9396   13.6028 H   0  0  0  0  0  0  0  0  0  0  0  0
   15.7921   -6.2059   13.4614 H   0  0  0  0  0  0  0  0  0  0  0  0
   14.2671   -5.6878   10.8782 H   0  0  0  0  0  0  0  0  0  0  0  0
   16.0027   -5.2256   10.8480 H   0  0  0  0  0  0  0  0  0  0  0  0
   16.4258   -6.4487    8.8647 H   0  0  0  0  0  0  0  0  0  0  0  0
   14.9523   -7.4574    9.0598 H   0  0  0  0  0  0  0  0  0  0  0  0
   13.6336   -5.6126    8.2651 H   0  0  0  0  0  0  0  0  0  0  0  0
   13.3502   -4.1379    6.8601 H   0  0  0  0  0  0  0  0  0  0  0  0
   13.9211   -2.3403    5.4807 H   0  0  0  0  0  0  0  0  0  0  0  0
   15.6550   -2.6134    5.8621 H   0  0  0  0  0  0  0  0  0  0  0  0
   15.8235   -3.3588    3.7704 H   0  0  0  0  0  0  0  0  0  0  0  0
   15.9951   -5.5619    4.8110 H   0  0  0  0  0  0  0  0  0  0  0  0
   14.2130   -5.7730    4.7327 H   0  0  0  0  0  0  0  0  0  0  0  0
   16.1950   -5.6211    2.4155 H   0  0  0  0  0  0  0  0  0  0  0  0
   15.1596   -7.0074    2.8979 H   0  0  0  0  0  0  0  0  0  0  0  0
   14.4108   -5.6594    0.8502 H   0  0  0  0  0  0  0  0  0  0  0  0
   12.4187   -5.8099    3.1544 H   0  0  0  0  0  0  0  0  0  0  0  0
   13.5866   -7.6017    0.0536 H   0  0  0  0  0  0  0  0  0  0  0  0
   13.7146  -10.0641   -0.0929 H   0  0  0  0  0  0  0  0  0  0  0  0
   12.9778  -11.4471    1.8186 H   0  0  0  0  0  0  0  0  0  0  0  0
   12.0730  -10.3795    3.8521 H   0  0  0  0  0  0  0  0  0  0  0  0
   11.9243   -7.9141    3.9957 H   0  0  0  0  0  0  0  0  0  0  0  0
    9.9593   -4.3638   -0.3216 H   0  0  0  0  0  0  0  0  0  0  0  0
   10.0320   -2.0586   -1.1952 H   0  0  0  0  0  0  0  0  0  0  0  0
   13.6454   -1.3487    0.9863 H   0  0  0  0  0  0  0  0  0  0  0  0
   12.3276   -3.0343    2.0532 H   0  0  0  0  0  0  0  0  0  0  0  0
   14.9527   -3.4413    1.6024 H   0  0  0  0  0  0  0  0  0  0  0  0
  1  2  1  0  0  0  0
  2  3  1  0  0  0  0
  2  4  1  0  0  0  0
  4  5  1  0  0  0  0
  5  6  1  0  0  0  0
  6  7  1  0  0  0  0
  7  8  2  0  0  0  0
  7  9  1  0  0  0  0
  9 10  1  0  0  0  0
 10 11  1  0  0  0  0
 11 12  1  0  0  0  0
 11 34  1  0  0  0  0
 12 13  1  0  0  0  0
 13 14  1  0  0  0  0
 14 15  1  0  0  0  0
 14 33  1  0  0  0  0
 15 16  1  0  0  0  0
 15 22  1  0  0  0  0
 16 17  2  0  0  0  0
 16 21  1  0  0  0  0
 17 18  1  0  0  0  0
 18 19  2  0  0  0  0
 19 20  1  0  0  0  0
 20 21  2  0  0  0  0
 22 23  2  0  0  0  0
 23 24  1  0  0  0  0
 23 32  1  0  0  0  0
 24 25  2  0  0  0  0
 25 26  1  0  0  0  0
 26 27  1  0  0  0  0
 26 31  2  0  0  0  0
 27 28  1  0  0  0  0
 27 29  1  0  0  0  0
 27 30  1  0  0  0  0
 31 32  1  0  0  0  0
 32 33  1  0  0  0  0
 33 34  1  0  0  0  0
  1 35  1  0  0  0  0
  1 36  1  0  0  0  0
  1 37  1  0  0  0  0
  3 38  1  0  0  0  0
  3 39  1  0  0  0  0
  3 40  1  0  0  0  0
  4 41  1  0  0  0  0
  4 42  1  0  0  0  0
  5 43  1  0  0  0  0
  5 44  1  0  0  0  0
  6 45  1  0  0  0  0
  9 46  1  0  0  0  0
 10 47  1  0  0  0  0
 10 48  1  0  0  0  0
 11 49  1  0  0  0  0
 12 50  1  0  0  0  0
 12 51  1  0  0  0  0
 13 52  1  0  0  0  0
 13 53  1  0  0  0  0
 14 54  1  0  0  0  0
 15 55  1  0  0  0  0
 17 56  1  0  0  0  0
 18 57  1  0  0  0  0
 19 58  1  0  0  0  0
 20 59  1  0  0  0  0
 21 60  1  0  0  0  0
 24 61  1  0  0  0  0
 25 62  1  0  0  0  0
 31 63  1  0  0  0  0
 32 64  1  0  0  0  0
 33 65  1  0  0  0  0
M  END
> <ID>
CHEMBL1077204

> <IC50[nM]>
8

$$$$
CHEMBL1077204
  -OEChem-05192314313D
 Structure written by MMmdl.
 65 68  0     1  0  0  0  0  0999 V2000
   17.1208   -7.6407   11.4944 C   0  0  0  0  0  0  0  0  0  0  0  0
   15.6242   -7.2482   11.5606 N   0  0  0  0  0  0  0  0  0  0  0  0
   15.1903   -7.0165   13.0246 C   0  0  0  0  0  0  0  0  0  0  0  0
   15.2858   -6.0369   10.6535 C   0  0  0  0  0  0  0  0  0  0  0  0
   15.3687   -6.4451    9.1688 C   0  0  0  0  0  0  0  0  0  0  0  0
   14.6307   -5.5382    8.2833 N   0  0  0  0  0  0  0  0  0  0  0  0
   15.2046   -4.6148    7.4955 C   0  0  0  0  0  0  0  0  0  0  0  0
   16.4171   -4.3982    7.4780 O   0  0  0  0  0  0  0  0  0  0  0  0
   14.3250   -3.9893    6.6937 N   0  0  0  0  0  0  0  0  0  0  0  0
   14.7079   -3.1014    5.5887 C   0  0  0  0  0  0  0  0  0  0  0  0
   14.9053   -3.7799    4.2057 C   0  0  1  0  0  0  0  0  0  0  0  0
   15.0866   -5.3225    4.2389 C   0  0  0  0  0  0  0  0  0  0  0  0
   15.2182   -5.9111    2.8299 C   0  0  0  0  0  0  0  0  0  0  0  0
   14.1067   -5.4122    1.8780 C   0  0  1  0  0  0  0  0  0  0  0  0
   12.7152   -6.0685    2.1272 C   0  0  2  0  0  0  0  0  0  0  0  0
   12.7619   -7.5943    2.0392 C   0  0  0  0  0  0  0  0  0  0  0  0
   13.2585   -8.2080    0.8850 C   0  0  0  0  0  0  0  0  0  0  0  0
   13.3325   -9.5936    0.8010 C   0  0  0  0  0  0  0  0  0  0  0  0
   12.9111  -10.3707    1.8760 C   0  0  0  0  0  0  0  0  0  0  0  0
   12.4042   -9.7694    3.0248 C   0  0  0  0  0  0  0  0  0  0  0  0
   12.3240   -8.3811    3.1077 C   0  0  0  0  0  0  0  0  0  0  0  0
   11.7146   -5.5161    1.2136 N   0  0  0  0  0  0  0  0  0  0  0  0
   11.7897   -4.1790    0.7828 C   0  0  0  0  0  0  0  0  0  0  0  0
   10.7767   -3.7118   -0.0511 C   0  0  0  0  0  0  0  0  0  0  0  0
   10.8134   -2.4087   -0.5370 C   0  0  0  0  0  0  0  0  0  0  0  0
   11.8546   -1.5518   -0.1784 C   0  0  0  0  0  0  0  0  0  0  0  0
   11.8961   -0.1327   -0.7370 C   0  0  0  0  0  0  0  0  0  0  0  0
   12.5327   -0.1525   -1.9080 F   0  0  0  0  0  0  0  0  0  0  0  0
   10.6622    0.3290   -0.9348 F   0  0  0  0  0  0  0  0  0  0  0  0
   12.5354    0.7038    0.0806 F   0  0  0  0  0  0  0  0  0  0  0  0
   12.8578   -2.0201    0.6775 C   0  0  0  0  0  0  0  0  0  0  0  0
   12.8617   -3.3430    1.1425 C   0  0  0  0  0  0  0  0  0  0  0  0
   14.0142   -3.8707    1.9829 C   0  0  1  0  0  0  0  0  0  0  0  0
   13.8081   -3.4639    3.3402 O   0  0  0  0  0  0  0  0  0  0  0  0
   17.4122   -7.8016   10.4460 H   0  0  0  0  0  0  0  0  0  0  0  0
   17.7310   -6.8328   11.9245 H   0  0  0  0  0  0  0  0  0  0  0  0
   17.2826   -8.5665   12.0660 H   0  0  0  0  0  0  0  0  0  0  0  0
   14.1263   -6.7390   13.0527 H   0  0  0  0  0  0  0  0  0  0  0  0
   15.3437   -7.9396   13.6028 H   0  0  0  0  0  0  0  0  0  0  0  0
   15.7921   -6.2059   13.4614 H   0  0  0  0  0  0  0  0  0  0  0  0
   14.2671   -5.6878   10.8782 H   0  0  0  0  0  0  0  0  0  0  0  0
   16.0027   -5.2256   10.8480 H   0  0  0  0  0  0  0  0  0  0  0  0
   16.4258   -6.4487    8.8647 H   0  0  0  0  0  0  0  0  0  0  0  0
   14.9523   -7.4574    9.0598 H   0  0  0  0  0  0  0  0  0  0  0  0
   13.6336   -5.6126    8.2651 H   0  0  0  0  0  0  0  0  0  0  0  0
   13.3502   -4.1379    6.8601 H   0  0  0  0  0  0  0  0  0  0  0  0
   13.9211   -2.3403    5.4807 H   0  0  0  0  0  0  0  0  0  0  0  0
   15.6550   -2.6134    5.8621 H   0  0  0  0  0  0  0  0  0  0  0  0
   15.8235   -3.3588    3.7704 H   0  0  0  0  0  0  0  0  0  0  0  0
   15.9951   -5.5619    4.8110 H   0  0  0  0  0  0  0  0  0  0  0  0
   14.2130   -5.7730    4.7327 H   0  0  0  0  0  0  0  0  0  0  0  0
   16.1950   -5.6211    2.4155 H   0  0  0  0  0  0  0  0  0  0  0  0
   15.1596   -7.0074    2.8979 H   0  0  0  0  0  0  0  0  0  0  0  0
   14.4108   -5.6594    0.8502 H   0  0  0  0  0  0  0  0  0  0  0  0
   12.4187   -5.8099    3.1544 H   0  0  0  0  0  0  0  0  0  0  0  0
   13.5866   -7.6017    0.0536 H   0  0  0  0  0  0  0  0  0  0  0  0
   13.7146  -10.0641   -0.0929 H   0  0  0  0  0  0  0  0  0  0  0  0
   12.9778  -11.4471    1.8186 H   0  0  0  0  0  0  0  0  0  0  0  0
   12.0730  -10.3795    3.8521 H   0  0  0  0  0  0  0  0  0  0  0  0
   11.9243   -7.9141    3.9957 H   0  0  0  0  0  0  0  0  0  0  0  0
   10.7574   -4.3758   -0.9279 H   0  0  0  0  0  0  0  0  0  0  0  0
    9.8347   -3.8146    0.5075 H   0  0  0  0  0  0  0  0  0  0  0  0
   10.0320   -2.0586   -1.1952 H   0  0  0  0  0  0  0  0  0  0  0  0
   13.6454   -1.3487    0.9863 H   0  0  0  0  0  0  0  0  0  0  0  0
   14.9527   -3.4413    1.6024 H   0  0  0  0  0  0  0  0  0  0  0  0
  1  2  1  0  0  0  0
  2  3  1  0  0  0  0
  2  4  1  0  0  0  0
  4  5  1  0  0  0  0
  5  6  1  0  0  0  0
  6  7  1  0  0  0  0
  7  8  2  0  0  0  0
  7  9  1  0  0  0  0
  9 10  1  0  0  0  0
 10 11  1  0  0  0  0
 11 12  1  0  0  0  0
 11 34  1  0  0  0  0
 12 13  1  0  0  0  0
 13 14  1  0  0  0  0
 14 15  1  0  0  0  0
 14 33  1  0  0  0  0
 15 16  1  0  0  0  0
 15 22  1  0  0  0  0
 16 17  2  0  0  0  0
 16 21  1  0  0  0  0
 17 18  1  0  0  0  0
 18 19  2  0  0  0  0
 19 20  1  0  0  0  0
 20 21  2  0  0  0  0
 22 23  2  0  0  0  0
 23 24  1  0  0  0  0
 23 32  1  0  0  0  0
 24 25  1  0  0  0  0
 25 26  2  0  0  0  0
 26 27  1  0  0  0  0
 26 31  1  0  0  0  0
 27 28  1  0  0  0  0
 27 29  1  0  0  0  0
 27 30  1  0  0  0  0
 31 32  2  0  0  0  0
 32 33  1  0  0  0  0
 33 34  1  0  0  0  0
  1 35  1  0  0  0  0
  1 36  1  0  0  0  0
  1 37  1  0  0  0  0
  3 38  1  0  0  0  0
  3 39  1  0  0  0  0
  3 40  1  0  0  0  0
  4 41  1  0  0  0  0
  4 42  1  0  0  0  0
  5 43  1  0  0  0  0
  5 44  1  0  0  0  0
  6 45  1  0  0  0  0
  9 46  1  0  0  0  0
 10 47  1  0  0  0  0
 10 48  1  0  0  0  0
 11 49  1  0  0  0  0
 12 50  1  0  0  0  0
 12 51  1  0  0  0  0
 13 52  1  0  0  0  0
 13 53  1  0  0  0  0
 14 54  1  0  0  0  0
 15 55  1  0  0  0  0
 17 56  1  0  0  0  0
 18 57  1  0  0  0  0
 19 58  1  0  0  0  0
 20 59  1  0  0  0  0
 21 60  1  0  0  0  0
 24 61  1  0  0  0  0
 24 62  1  0  0  0  0
 25 63  1  0  0  0  0
 31 64  1  0  0  0  0
 33 65  1  0  0  0  0
M  END
> <ID>
CHEMBL1077204

> <IC50[nM]>
8

$$$$
CHEMBL1077204
  -OEChem-05192314313D
 Structure written by MMmdl.
 65 68  0     1  0  0  0  0  0999 V2000
   17.1208   -7.6407   11.4944 C   0  0  0  0  0  0  0  0  0  0  0  0
   15.6242   -7.2482   11.5606 N   0  0  0  0  0  0  0  0  0  0  0  0
   15.1903   -7.0165   13.0246 C   0  0  0  0  0  0  0  0  0  0  0  0
   15.2858   -6.0369   10.6535 C   0  0  0  0  0  0  0  0  0  0  0  0
   15.3687   -6.4451    9.1688 C   0  0  0  0  0  0  0  0  0  0  0  0
   14.6307   -5.5382    8.2833 N   0  0  0  0  0  0  0  0  0  0  0  0
   15.2046   -4.6148    7.4955 C   0  0  0  0  0  0  0  0  0  0  0  0
   16.4171   -4.3982    7.4780 O   0  0  0  0  0  0  0  0  0  0  0  0
   14.3250   -3.9893    6.6937 N   0  0  0  0  0  0  0  0  0  0  0  0
   14.7079   -3.1014    5.5887 C   0  0  0  0  0  0  0  0  0  0  0  0
   14.9053   -3.7799    4.2057 C   0  0  1  0  0  0  0  0  0  0  0  0
   15.0866   -5.3225    4.2389 C   0  0  0  0  0  0  0  0  0  0  0  0
   15.2182   -5.9111    2.8299 C   0  0  0  0  0  0  0  0  0  0  0  0
   14.1067   -5.4122    1.8780 C   0  0  1  0  0  0  0  0  0  0  0  0
   12.7152   -6.0685    2.1272 C   0  0  2  0  0  0  0  0  0  0  0  0
   12.7619   -7.5943    2.0392 C   0  0  0  0  0  0  0  0  0  0  0  0
   13.2585   -8.2080    0.8850 C   0  0  0  0  0  0  0  0  0  0  0  0
   13.3325   -9.5936    0.8010 C   0  0  0  0  0  0  0  0  0  0  0  0
   12.9111  -10.3707    1.8760 C   0  0  0  0  0  0  0  0  0  0  0  0
   12.4042   -9.7694    3.0248 C   0  0  0  0  0  0  0  0  0  0  0  0
   12.3240   -8.3811    3.1077 C   0  0  0  0  0  0  0  0  0  0  0  0
   11.7146   -5.5161    1.2136 N   0  0  0  0  0  0  0  0  0  0  0  0
   11.7897   -4.1790    0.7828 C   0  0  0  0  0  0  0  0  0  0  0  0
   10.7767   -3.7118   -0.0511 C   0  0  0  0  0  0  0  0  0  0  0  0
   10.8134   -2.4087   -0.5370 C   0  0  0  0  0  0  0  0  0  0  0  0
   11.8546   -1.5518   -0.1784 C   0  0  0  0  0  0  0  0  0  0  0  0
   11.8961   -0.1327   -0.7370 C   0  0  0  0  0  0  0  0  0  0  0  0
   12.5327   -0.1525   -1.9080 F   0  0  0  0  0  0  0  0  0  0  0  0
   10.6622    0.3290   -0.9348 F   0  0  0  0  0  0  0  0  0  0  0  0
   12.5354    0.7038    0.0806 F   0  0  0  0  0  0  0  0  0  0  0  0
   12.8578   -2.0201    0.6775 C   0  0  0  0  0  0  0  0  0  0  0  0
   12.8617   -3.3430    1.1425 C   0  0  0  0  0  0  0  0  0  0  0  0
   14.0142   -3.8707    1.9829 C   0  0  1  0  0  0  0  0  0  0  0  0
   13.8081   -3.4639    3.3402 O   0  0  0  0  0  0  0  0  0  0  0  0
   17.4122   -7.8016   10.4460 H   0  0  0  0  0  0  0  0  0  0  0  0
   17.7310   -6.8328   11.9245 H   0  0  0  0  0  0  0  0  0  0  0  0
   17.2826   -8.5665   12.0660 H   0  0  0  0  0  0  0  0  0  0  0  0
   14.1263   -6.7390   13.0527 H   0  0  0  0  0  0  0  0  0  0  0  0
   15.3437   -7.9396   13.6028 H   0  0  0  0  0  0  0  0  0  0  0  0
   15.7921   -6.2059   13.4614 H   0  0  0  0  0  0  0  0  0  0  0  0
   14.2671   -5.6878   10.8782 H   0  0  0  0  0  0  0  0  0  0  0  0
   16.0027   -5.2256   10.8480 H   0  0  0  0  0  0  0  0  0  0  0  0
   16.4258   -6.4487    8.8647 H   0  0  0  0  0  0  0  0  0  0  0  0
   14.9523   -7.4574    9.0598 H   0  0  0  0  0  0  0  0  0  0  0  0
   13.6336   -5.6126    8.2651 H   0  0  0  0  0  0  0  0  0  0  0  0
   16.6071   -3.7087    6.8527 H   0  0  0  0  0  0  0  0  0  0  0  0
   13.9211   -2.3403    5.4807 H   0  0  0  0  0  0  0  0  0  0  0  0
   15.6550   -2.6134    5.8621 H   0  0  0  0  0  0  0  0  0  0  0  0
   15.8235   -3.3588    3.7704 H   0  0  0  0  0  0  0  0  0  0  0  0
   15.9951   -5.5619    4.8110 H   0  0  0  0  0  0  0  0  0  0  0  0
   14.2130   -5.7730    4.7327 H   0  0  0  0  0  0  0  0  0  0  0  0
   16.1950   -5.6211    2.4155 H   0  0  0  0  0  0  0  0  0  0  0  0
   15.1596   -7.0074    2.8979 H   0  0  0  0  0  0  0  0  0  0  0  0
   14.4108   -5.6594    0.8502 H   0  0  0  0  0  0  0  0  0  0  0  0
   12.4187   -5.8099    3.1544 H   0  0  0  0  0  0  0  0  0  0  0  0
   13.5866   -7.6017    0.0536 H   0  0  0  0  0  0  0  0  0  0  0  0
   13.7146  -10.0641   -0.0929 H   0  0  0  0  0  0  0  0  0  0  0  0
   12.9778  -11.4471    1.8186 H   0  0  0  0  0  0  0  0  0  0  0  0
   12.0730  -10.3795    3.8521 H   0  0  0  0  0  0  0  0  0  0  0  0
   11.9243   -7.9141    3.9957 H   0  0  0  0  0  0  0  0  0  0  0  0
    9.9593   -4.3638   -0.3216 H   0  0  0  0  0  0  0  0  0  0  0  0
   10.0320   -2.0586   -1.1952 H   0  0  0  0  0  0  0  0  0  0  0  0
   11.2737   -1.1994    0.6867 H   0  0  0  0  0  0  0  0  0  0  0  0
   13.6454   -1.3487    0.9863 H   0  0  0  0  0  0  0  0  0  0  0  0
   14.9527   -3.4413    1.6024 H   0  0  0  0  0  0  0  0  0  0  0  0
  1  2  1  0  0  0  0
  2  3  1  0  0  0  0
  2  4  1  0  0  0  0
  4  5  1  0  0  0  0
  5  6  1  0  0  0  0
  6  7  1  0  0  0  0
  7  8  1  0  0  0  0
  7  9  2  0  0  0  0
  9 10  1  0  0  0  0
 10 11  1  0  0  0  0
 11 12  1  0  0  0  0
 11 34  1  0  0  0  0
 12 13  1  0  0  0  0
 13 14  1  0  0  0  0
 14 15  1  0  0  0  0
 14 33  1  0  0  0  0
 15 16  1  0  0  0  0
 15 22  1  0  0  0  0
 16 17  2  0  0  0  0
 16 21  1  0  0  0  0
 17 18  1  0  0  0  0
 18 19  2  0  0  0  0
 19 20  1  0  0  0  0
 20 21  2  0  0  0  0
 22 23  2  0  0  0  0
 23 24  1  0  0  0  0
 23 32  1  0  0  0  0
 24 25  2  0  0  0  0
 25 26  1  0  0  0  0
 26 27  1  0  0  0  0
 26 31  1  0  0  0  0
 27 28  1  0  0  0  0
 27 29  1  0  0  0  0
 27 30  1  0  0  0  0
 31 32  2  0  0  0  0
 32 33  1  0  0  0  0
 33 34  1  0  0  0  0
  1 35  1  0  0  0  0
  1 36  1  0  0  0  0
  1 37  1  0  0  0  0
  3 38  1  0  0  0  0
  3 39  1  0  0  0  0
  3 40  1  0  0  0  0
  4 41  1  0  0  0  0
  4 42  1  0  0  0  0
  5 43  1  0  0  0  0
  5 44  1  0  0  0  0
  6 45  1  0  0  0  0
  8 46  1  0  0  0  0
 10 47  1  0  0  0  0
 10 48  1  0  0  0  0
 11 49  1  0  0  0  0
 12 50  1  0  0  0  0
 12 51  1  0  0  0  0
 13 52  1  0  0  0  0
 13 53  1  0  0  0  0
 14 54  1  0  0  0  0
 15 55  1  0  0  0  0
 17 56  1  0  0  0  0
 18 57  1  0  0  0  0
 19 58  1  0  0  0  0
 20 59  1  0  0  0  0
 21 60  1  0  0  0  0
 24 61  1  0  0  0  0
 25 62  1  0  0  0  0
 26 63  1  0  0  0  0
 31 64  1  0  0  0  0
 33 65  1  0  0  0  0
M  END
> <ID>
CHEMBL1077204

> <IC50[nM]>
8

$$$$
CHEMBL1077204
  -OEChem-05192314313D
 Structure written by MMmdl.
 65 68  0     1  0  0  0  0  0999 V2000
   17.1208   -7.6407   11.4944 C   0  0  0  0  0  0  0  0  0  0  0  0
   15.6242   -7.2482   11.5606 N   0  0  0  0  0  0  0  0  0  0  0  0
   15.1903   -7.0165   13.0246 C   0  0  0  0  0  0  0  0  0  0  0  0
   15.2858   -6.0369   10.6535 C   0  0  0  0  0  0  0  0  0  0  0  0
   15.3687   -6.4451    9.1688 C   0  0  0  0  0  0  0  0  0  0  0  0
   14.6307   -5.5382    8.2833 N   0  0  0  0  0  0  0  0  0  0  0  0
   15.2046   -4.6148    7.4955 C   0  0  0  0  0  0  0  0  0  0  0  0
   16.4171   -4.3982    7.4780 O   0  0  0  0  0  0  0  0  0  0  0  0
   14.3250   -3.9893    6.6937 N   0  0  0  0  0  0  0  0  0  0  0  0
   14.7079   -3.1014    5.5887 C   0  0  0  0  0  0  0  0  0  0  0  0
   14.9053   -3.7799    4.2057 C   0  0  1  0  0  0  0  0  0  0  0  0
   15.0866   -5.3225    4.2389 C   0  0  0  0  0  0  0  0  0  0  0  0
   15.2182   -5.9111    2.8299 C   0  0  0  0  0  0  0  0  0  0  0  0
   14.1067   -5.4122    1.8780 C   0  0  1  0  0  0  0  0  0  0  0  0
   12.7152   -6.0685    2.1272 C   0  0  2  0  0  0  0  0  0  0  0  0
   12.7619   -7.5943    2.0392 C   0  0  0  0  0  0  0  0  0  0  0  0
   13.2585   -8.2080    0.8850 C   0  0  0  0  0  0  0  0  0  0  0  0
   13.3325   -9.5936    0.8010 C   0  0  0  0  0  0  0  0  0  0  0  0
   12.9111  -10.3707    1.8760 C   0  0  0  0  0  0  0  0  0  0  0  0
   12.4042   -9.7694    3.0248 C   0  0  0  0  0  0  0  0  0  0  0  0
   12.3240   -8.3811    3.1077 C   0  0  0  0  0  0  0  0  0  0  0  0
   11.7146   -5.5161    1.2136 N   0  0  0  0  0  0  0  0  0  0  0  0
   11.7897   -4.1790    0.7828 C   0  0  0  0  0  0  0  0  0  0  0  0
   10.7767   -3.7118   -0.0511 C   0  0  0  0  0  0  0  0  0  0  0  0
   10.8134   -2.4087   -0.5370 C   0  0  0  0  0  0  0  0  0  0  0  0
   11.8546   -1.5518   -0.1784 C   0  0  0  0  0  0  0  0  0  0  0  0
   11.8961   -0.1327   -0.7370 C   0  0  0  0  0  0  0  0  0  0  0  0
   12.5327   -0.1525   -1.9080 F   0  0  0  0  0  0  0  0  0  0  0  0
   10.6622    0.3290   -0.9348 F   0  0  0  0  0  0  0  0  0  0  0  0
   12.5354    0.7038    0.0806 F   0  0  0  0  0  0  0  0  0  0  0  0
   12.8578   -2.0201    0.6775 C   0  0  0  0  0  0  0  0  0  0  0  0
   12.8617   -3.3430    1.1425 C   0  0  0  0  0  0  0  0  0  0  0  0
   14.0142   -3.8707    1.9829 C   0  0  1  0  0  0  0  0  0  0  0  0
   13.8081   -3.4639    3.3402 O   0  0  0  0  0  0  0  0  0  0  0  0
   17.4122   -7.8016   10.4460 H   0  0  0  0  0  0  0  0  0  0  0  0
   17.7310   -6.8328   11.9245 H   0  0  0  0  0  0  0  0  0  0  0  0
   17.2826   -8.5665   12.0660 H   0  0  0  0  0  0  0  0  0  0  0  0
   14.1263   -6.7390   13.0527 H   0  0  0  0  0  0  0  0  0  0  0  0
   15.3437   -7.9396   13.6028 H   0  0  0  0  0  0  0  0  0  0  0  0
   15.7921   -6.2059   13.4614 H   0  0  0  0  0  0  0  0  0  0  0  0
   14.2671   -5.6878   10.8782 H   0  0  0  0  0  0  0  0  0  0  0  0
   16.0027   -5.2256   10.8480 H   0  0  0  0  0  0  0  0  0  0  0  0
   16.4258   -6.4487    8.8647 H   0  0  0  0  0  0  0  0  0  0  0  0
   14.9523   -7.4574    9.0598 H   0  0  0  0  0  0  0  0  0  0  0  0
   13.6336   -5.6126    8.2651 H   0  0  0  0  0  0  0  0  0  0  0  0
   16.6071   -3.7087    6.8527 H   0  0  0  0  0  0  0  0  0  0  0  0
   13.9211   -2.3403    5.4807 H   0  0  0  0  0  0  0  0  0  0  0  0
   15.6550   -2.6134    5.8621 H   0  0  0  0  0  0  0  0  0  0  0  0
   15.8235   -3.3588    3.7704 H   0  0  0  0  0  0  0  0  0  0  0  0
   15.9951   -5.5619    4.8110 H   0  0  0  0  0  0  0  0  0  0  0  0
   14.2130   -5.7730    4.7327 H   0  0  0  0  0  0  0  0  0  0  0  0
   16.1950   -5.6211    2.4155 H   0  0  0  0  0  0  0  0  0  0  0  0
   15.1596   -7.0074    2.8979 H   0  0  0  0  0  0  0  0  0  0  0  0
   14.4108   -5.6594    0.8502 H   0  0  0  0  0  0  0  0  0  0  0  0
   12.4187   -5.8099    3.1544 H   0  0  0  0  0  0  0  0  0  0  0  0
   13.5866   -7.6017    0.0536 H   0  0  0  0  0  0  0  0  0  0  0  0
   13.7146  -10.0641   -0.0929 H   0  0  0  0  0  0  0  0  0  0  0  0
   12.9778  -11.4471    1.8186 H   0  0  0  0  0  0  0  0  0  0  0  0
   12.0730  -10.3795    3.8521 H   0  0  0  0  0  0  0  0  0  0  0  0
   11.9243   -7.9141    3.9957 H   0  0  0  0  0  0  0  0  0  0  0  0
    9.9593   -4.3638   -0.3216 H   0  0  0  0  0  0  0  0  0  0  0  0
   10.0320   -2.0586   -1.1952 H   0  0  0  0  0  0  0  0  0  0  0  0
   13.6454   -1.3487    0.9863 H   0  0  0  0  0  0  0  0  0  0  0  0
   12.3276   -3.0343    2.0532 H   0  0  0  0  0  0  0  0  0  0  0  0
   14.9527   -3.4413    1.6024 H   0  0  0  0  0  0  0  0  0  0  0  0
  1  2  1  0  0  0  0
  2  3  1  0  0  0  0
  2  4  1  0  0  0  0
  4  5  1  0  0  0  0
  5  6  1  0  0  0  0
  6  7  1  0  0  0  0
  7  8  1  0  0  0  0
  7  9  2  0  0  0  0
  9 10  1  0  0  0  0
 10 11  1  0  0  0  0
 11 12  1  0  0  0  0
 11 34  1  0  0  0  0
 12 13  1  0  0  0  0
 13 14  1  0  0  0  0
 14 15  1  0  0  0  0
 14 33  1  0  0  0  0
 15 16  1  0  0  0  0
 15 22  1  0  0  0  0
 16 17  2  0  0  0  0
 16 21  1  0  0  0  0
 17 18  1  0  0  0  0
 18 19  2  0  0  0  0
 19 20  1  0  0  0  0
 20 21  2  0  0  0  0
 22 23  2  0  0  0  0
 23 24  1  0  0  0  0
 23 32  1  0  0  0  0
 24 25  2  0  0  0  0
 25 26  1  0  0  0  0
 26 27  1  0  0  0  0
 26 31  2  0  0  0  0
 27 28  1  0  0  0  0
 27 29  1  0  0  0  0
 27 30  1  0  0  0  0
 31 32  1  0  0  0  0
 32 33  1  0  0  0  0
 33 34  1  0  0  0  0
  1 35  1  0  0  0  0
  1 36  1  0  0  0  0
  1 37  1  0  0  0  0
  3 38  1  0  0  0  0
  3 39  1  0  0  0  0
  3 40  1  0  0  0  0
  4 41  1  0  0  0  0
  4 42  1  0  0  0  0
  5 43  1  0  0  0  0
  5 44  1  0  0  0  0
  6 45  1  0  0  0  0
  8 46  1  0  0  0  0
 10 47  1  0  0  0  0
 10 48  1  0  0  0  0
 11 49  1  0  0  0  0
 12 50  1  0  0  0  0
 12 51  1  0  0  0  0
 13 52  1  0  0  0  0
 13 53  1  0  0  0  0
 14 54  1  0  0  0  0
 15 55  1  0  0  0  0
 17 56  1  0  0  0  0
 18 57  1  0  0  0  0
 19 58  1  0  0  0  0
 20 59  1  0  0  0  0
 21 60  1  0  0  0  0
 24 61  1  0  0  0  0
 25 62  1  0  0  0  0
 31 63  1  0  0  0  0
 32 64  1  0  0  0  0
 33 65  1  0  0  0  0
M  END
> <ID>
CHEMBL1077204

> <IC50[nM]>
8

$$$$
CHEMBL1077204
  -OEChem-05192314313D
 Structure written by MMmdl.
 65 68  0     1  0  0  0  0  0999 V2000
   17.1208   -7.6407   11.4944 C   0  0  0  0  0  0  0  0  0  0  0  0
   15.6242   -7.2482   11.5606 N   0  0  0  0  0  0  0  0  0  0  0  0
   15.1903   -7.0165   13.0246 C   0  0  0  0  0  0  0  0  0  0  0  0
   15.2858   -6.0369   10.6535 C   0  0  0  0  0  0  0  0  0  0  0  0
   15.3687   -6.4451    9.1688 C   0  0  0  0  0  0  0  0  0  0  0  0
   14.6307   -5.5382    8.2833 N   0  0  0  0  0  0  0  0  0  0  0  0
   15.2046   -4.6148    7.4955 C   0  0  0  0  0  0  0  0  0  0  0  0
   16.4171   -4.3982    7.4780 O   0  0  0  0  0  0  0  0  0  0  0  0
   14.3250   -3.9893    6.6937 N   0  0  0  0  0  0  0  0  0  0  0  0
   14.7079   -3.1014    5.5887 C   0  0  0  0  0  0  0  0  0  0  0  0
   14.9053   -3.7799    4.2057 C   0  0  1  0  0  0  0  0  0  0  0  0
   15.0866   -5.3225    4.2389 C   0  0  0  0  0  0  0  0  0  0  0  0
   15.2182   -5.9111    2.8299 C   0  0  0  0  0  0  0  0  0  0  0  0
   14.1067   -5.4122    1.8780 C   0  0  1  0  0  0  0  0  0  0  0  0
   12.7152   -6.0685    2.1272 C   0  0  2  0  0  0  0  0  0  0  0  0
   12.7619   -7.5943    2.0392 C   0  0  0  0  0  0  0  0  0  0  0  0
   13.2585   -8.2080    0.8850 C   0  0  0  0  0  0  0  0  0  0  0  0
   13.3325   -9.5936    0.8010 C   0  0  0  0  0  0  0  0  0  0  0  0
   12.9111  -10.3707    1.8760 C   0  0  0  0  0  0  0  0  0  0  0  0
   12.4042   -9.7694    3.0248 C   0  0  0  0  0  0  0  0  0  0  0  0
   12.3240   -8.3811    3.1077 C   0  0  0  0  0  0  0  0  0  0  0  0
   11.7146   -5.5161    1.2136 N   0  0  0  0  0  0  0  0  0  0  0  0
   11.7897   -4.1790    0.7828 C   0  0  0  0  0  0  0  0  0  0  0  0
   10.7767   -3.7118   -0.0511 C   0  0  0  0  0  0  0  0  0  0  0  0
   10.8134   -2.4087   -0.5370 C   0  0  0  0  0  0  0  0  0  0  0  0
   11.8546   -1.5518   -0.1784 C   0  0  0  0  0  0  0  0  0  0  0  0
   11.8961   -0.1327   -0.7370 C   0  0  0  0  0  0  0  0  0  0  0  0
   12.5327   -0.1525   -1.9080 F   0  0  0  0  0  0  0  0  0  0  0  0
   10.6622    0.3290   -0.9348 F   0  0  0  0  0  0  0  0  0  0  0  0
   12.5354    0.7038    0.0806 F   0  0  0  0  0  0  0  0  0  0  0  0
   12.8578   -2.0201    0.6775 C   0  0  0  0  0  0  0  0  0  0  0  0
   12.8617   -3.3430    1.1425 C   0  0  0  0  0  0  0  0  0  0  0  0
   14.0142   -3.8707    1.9829 C   0  0  1  0  0  0  0  0  0  0  0  0
   13.8081   -3.4639    3.3402 O   0  0  0  0  0  0  0  0  0  0  0  0
   17.4122   -7.8016   10.4460 H   0  0  0  0  0  0  0  0  0  0  0  0
   17.7310   -6.8328   11.9245 H   0  0  0  0  0  0  0  0  0  0  0  0
   17.2826   -8.5665   12.0660 H   0  0  0  0  0  0  0  0  0  0  0  0
   14.1263   -6.7390   13.0527 H   0  0  0  0  0  0  0  0  0  0  0  0
   15.3437   -7.9396   13.6028 H   0  0  0  0  0  0  0  0  0  0  0  0
   15.7921   -6.2059   13.4614 H   0  0  0  0  0  0  0  0  0  0  0  0
   14.2671   -5.6878   10.8782 H   0  0  0  0  0  0  0  0  0  0  0  0
   16.0027   -5.2256   10.8480 H   0  0  0  0  0  0  0  0  0  0  0  0
   16.4258   -6.4487    8.8647 H   0  0  0  0  0  0  0  0  0  0  0  0
   14.9523   -7.4574    9.0598 H   0  0  0  0  0  0  0  0  0  0  0  0
   13.6336   -5.6126    8.2651 H   0  0  0  0  0  0  0  0  0  0  0  0
   16.6071   -3.7087    6.8527 H   0  0  0  0  0  0  0  0  0  0  0  0
   13.9211   -2.3403    5.4807 H   0  0  0  0  0  0  0  0  0  0  0  0
   15.6550   -2.6134    5.8621 H   0  0  0  0  0  0  0  0  0  0  0  0
   15.8235   -3.3588    3.7704 H   0  0  0  0  0  0  0  0  0  0  0  0
   15.9951   -5.5619    4.8110 H   0  0  0  0  0  0  0  0  0  0  0  0
   14.2130   -5.7730    4.7327 H   0  0  0  0  0  0  0  0  0  0  0  0
   16.1950   -5.6211    2.4155 H   0  0  0  0  0  0  0  0  0  0  0  0
   15.1596   -7.0074    2.8979 H   0  0  0  0  0  0  0  0  0  0  0  0
   14.4108   -5.6594    0.8502 H   0  0  0  0  0  0  0  0  0  0  0  0
   12.4187   -5.8099    3.1544 H   0  0  0  0  0  0  0  0  0  0  0  0
   13.5866   -7.6017    0.0536 H   0  0  0  0  0  0  0  0  0  0  0  0
   13.7146  -10.0641   -0.0929 H   0  0  0  0  0  0  0  0  0  0  0  0
   12.9778  -11.4471    1.8186 H   0  0  0  0  0  0  0  0  0  0  0  0
   12.0730  -10.3795    3.8521 H   0  0  0  0  0  0  0  0  0  0  0  0
   11.9243   -7.9141    3.9957 H   0  0  0  0  0  0  0  0  0  0  0  0
   10.7574   -4.3758   -0.9279 H   0  0  0  0  0  0  0  0  0  0  0  0
    9.8347   -3.8146    0.5075 H   0  0  0  0  0  0  0  0  0  0  0  0
   10.0320   -2.0586   -1.1952 H   0  0  0  0  0  0  0  0  0  0  0  0
   13.6454   -1.3487    0.9863 H   0  0  0  0  0  0  0  0  0  0  0  0
   14.9527   -3.4413    1.6024 H   0  0  0  0  0  0  0  0  0  0  0  0
  1  2  1  0  0  0  0
  2  3  1  0  0  0  0
  2  4  1  0  0  0  0
  4  5  1  0  0  0  0
  5  6  1  0  0  0  0
  6  7  1  0  0  0  0
  7  8  1  0  0  0  0
  7  9  2  0  0  0  0
  9 10  1  0  0  0  0
 10 11  1  0  0  0  0
 11 12  1  0  0  0  0
 11 34  1  0  0  0  0
 12 13  1  0  0  0  0
 13 14  1  0  0  0  0
 14 15  1  0  0  0  0
 14 33  1  0  0  0  0
 15 16  1  0  0  0  0
 15 22  1  0  0  0  0
 16 17  2  0  0  0  0
 16 21  1  0  0  0  0
 17 18  1  0  0  0  0
 18 19  2  0  0  0  0
 19 20  1  0  0  0  0
 20 21  2  0  0  0  0
 22 23  2  0  0  0  0
 23 24  1  0  0  0  0
 23 32  1  0  0  0  0
 24 25  1  0  0  0  0
 25 26  2  0  0  0  0
 26 27  1  0  0  0  0
 26 31  1  0  0  0  0
 27 28  1  0  0  0  0
 27 29  1  0  0  0  0
 27 30  1  0  0  0  0
 31 32  2  0  0  0  0
 32 33  1  0  0  0  0
 33 34  1  0  0  0  0
  1 35  1  0  0  0  0
  1 36  1  0  0  0  0
  1 37  1  0  0  0  0
  3 38  1  0  0  0  0
  3 39  1  0  0  0  0
  3 40  1  0  0  0  0
  4 41  1  0  0  0  0
  4 42  1  0  0  0  0
  5 43  1  0  0  0  0
  5 44  1  0  0  0  0
  6 45  1  0  0  0  0
  8 46  1  0  0  0  0
 10 47  1  0  0  0  0
 10 48  1  0  0  0  0
 11 49  1  0  0  0  0
 12 50  1  0  0  0  0
 12 51  1  0  0  0  0
 13 52  1  0  0  0  0
 13 53  1  0  0  0  0
 14 54  1  0  0  0  0
 15 55  1  0  0  0  0
 17 56  1  0  0  0  0
 18 57  1  0  0  0  0
 19 58  1  0  0  0  0
 20 59  1  0  0  0  0
 21 60  1  0  0  0  0
 24 61  1  0  0  0  0
 24 62  1  0  0  0  0
 25 63  1  0  0  0  0
 31 64  1  0  0  0  0
 33 65  1  0  0  0  0
M  END
> <ID>
CHEMBL1077204

> <IC50[nM]>
8

$$$$
CHEMBL1077204
  -OEChem-05192314313D
 Structure written by MMmdl.
 65 68  0     1  0  0  0  0  0999 V2000
   17.1208   -7.6407   11.4944 C   0  0  0  0  0  0  0  0  0  0  0  0
   15.6242   -7.2482   11.5606 N   0  0  0  0  0  0  0  0  0  0  0  0
   15.1903   -7.0165   13.0246 C   0  0  0  0  0  0  0  0  0  0  0  0
   15.2858   -6.0369   10.6535 C   0  0  0  0  0  0  0  0  0  0  0  0
   15.3687   -6.4451    9.1688 C   0  0  0  0  0  0  0  0  0  0  0  0
   14.6307   -5.5382    8.2833 N   0  0  0  0  0  0  0  0  0  0  0  0
   15.2046   -4.6148    7.4955 C   0  0  0  0  0  0  0  0  0  0  0  0
   16.4171   -4.3982    7.4780 O   0  0  0  0  0  0  0  0  0  0  0  0
   14.3250   -3.9893    6.6937 N   0  0  0  0  0  0  0  0  0  0  0  0
   14.7079   -3.1014    5.5887 C   0  0  0  0  0  0  0  0  0  0  0  0
   14.9053   -3.7799    4.2057 C   0  0  1  0  0  0  0  0  0  0  0  0
   15.0866   -5.3225    4.2389 C   0  0  0  0  0  0  0  0  0  0  0  0
   15.2182   -5.9111    2.8299 C   0  0  0  0  0  0  0  0  0  0  0  0
   14.1067   -5.4122    1.8780 C   0  0  1  0  0  0  0  0  0  0  0  0
   12.7152   -6.0685    2.1272 C   0  0  2  0  0  0  0  0  0  0  0  0
   12.7619   -7.5943    2.0392 C   0  0  0  0  0  0  0  0  0  0  0  0
   13.2585   -8.2080    0.8850 C   0  0  0  0  0  0  0  0  0  0  0  0
   13.3325   -9.5936    0.8010 C   0  0  0  0  0  0  0  0  0  0  0  0
   12.9111  -10.3707    1.8760 C   0  0  0  0  0  0  0  0  0  0  0  0
   12.4042   -9.7694    3.0248 C   0  0  0  0  0  0  0  0  0  0  0  0
   12.3240   -8.3811    3.1077 C   0  0  0  0  0  0  0  0  0  0  0  0
   11.7146   -5.5161    1.2136 N   0  0  0  0  0  0  0  0  0  0  0  0
   11.7897   -4.1790    0.7828 C   0  0  0  0  0  0  0  0  0  0  0  0
   10.7767   -3.7118   -0.0511 C   0  0  0  0  0  0  0  0  0  0  0  0
   10.8134   -2.4087   -0.5370 C   0  0  0  0  0  0  0  0  0  0  0  0
   11.8546   -1.5518   -0.1784 C   0  0  0  0  0  0  0  0  0  0  0  0
   11.8961   -0.1327   -0.7370 C   0  0  0  0  0  0  0  0  0  0  0  0
   12.5327   -0.1525   -1.9080 F   0  0  0  0  0  0  0  0  0  0  0  0
   10.6622    0.3290   -0.9348 F   0  0  0  0  0  0  0  0  0  0  0  0
   12.5354    0.7038    0.0806 F   0  0  0  0  0  0  0  0  0  0  0  0
   12.8578   -2.0201    0.6775 C   0  0  0  0  0  0  0  0  0  0  0  0
   12.8617   -3.3430    1.1425 C   0  0  0  0  0  0  0  0  0  0  0  0
   14.0142   -3.8707    1.9829 C   0  0  1  0  0  0  0  0  0  0  0  0
   13.8081   -3.4639    3.3402 O   0  0  0  0  0  0  0  0  0  0  0  0
   17.4122   -7.8016   10.4460 H   0  0  0  0  0  0  0  0  0  0  0  0
   17.7310   -6.8328   11.9245 H   0  0  0  0  0  0  0  0  0  0  0  0
   17.2826   -8.5665   12.0660 H   0  0  0  0  0  0  0  0  0  0  0  0
   14.1263   -6.7390   13.0527 H   0  0  0  0  0  0  0  0  0  0  0  0
   15.3437   -7.9396   13.6028 H   0  0  0  0  0  0  0  0  0  0  0  0
   15.7921   -6.2059   13.4614 H   0  0  0  0  0  0  0  0  0  0  0  0
   14.2671   -5.6878   10.8782 H   0  0  0  0  0  0  0  0  0  0  0  0
   16.0027   -5.2256   10.8480 H   0  0  0  0  0  0  0  0  0  0  0  0
   16.4258   -6.4487    8.8647 H   0  0  0  0  0  0  0  0  0  0  0  0
   14.9523   -7.4574    9.0598 H   0  0  0  0  0  0  0  0  0  0  0  0
   16.6071   -3.7087    6.8527 H   0  0  0  0  0  0  0  0  0  0  0  0
   13.3502   -4.1379    6.8601 H   0  0  0  0  0  0  0  0  0  0  0  0
   13.9211   -2.3403    5.4807 H   0  0  0  0  0  0  0  0  0  0  0  0
   15.6550   -2.6134    5.8621 H   0  0  0  0  0  0  0  0  0  0  0  0
   15.8235   -3.3588    3.7704 H   0  0  0  0  0  0  0  0  0  0  0  0
   15.9951   -5.5619    4.8110 H   0  0  0  0  0  0  0  0  0  0  0  0
   14.2130   -5.7730    4.7327 H   0  0  0  0  0  0  0  0  0  0  0  0
   16.1950   -5.6211    2.4155 H   0  0  0  0  0  0  0  0  0  0  0  0
   15.1596   -7.0074    2.8979 H   0  0  0  0  0  0  0  0  0  0  0  0
   14.4108   -5.6594    0.8502 H   0  0  0  0  0  0  0  0  0  0  0  0
   12.4187   -5.8099    3.1544 H   0  0  0  0  0  0  0  0  0  0  0  0
   13.5866   -7.6017    0.0536 H   0  0  0  0  0  0  0  0  0  0  0  0
   13.7146  -10.0641   -0.0929 H   0  0  0  0  0  0  0  0  0  0  0  0
   12.9778  -11.4471    1.8186 H   0  0  0  0  0  0  0  0  0  0  0  0
   12.0730  -10.3795    3.8521 H   0  0  0  0  0  0  0  0  0  0  0  0
   11.9243   -7.9141    3.9957 H   0  0  0  0  0  0  0  0  0  0  0  0
    9.9593   -4.3638   -0.3216 H   0  0  0  0  0  0  0  0  0  0  0  0
   10.0320   -2.0586   -1.1952 H   0  0  0  0  0  0  0  0  0  0  0  0
   11.2737   -1.1994    0.6867 H   0  0  0  0  0  0  0  0  0  0  0  0
   13.6454   -1.3487    0.9863 H   0  0  0  0  0  0  0  0  0  0  0  0
   14.9527   -3.4413    1.6024 H   0  0  0  0  0  0  0  0  0  0  0  0
  1  2  1  0  0  0  0
  2  3  1  0  0  0  0
  2  4  1  0  0  0  0
  4  5  1  0  0  0  0
  5  6  1  0  0  0  0
  6  7  2  0  0  0  0
  7  8  1  0  0  0  0
  7  9  1  0  0  0  0
  9 10  1  0  0  0  0
 10 11  1  0  0  0  0
 11 12  1  0  0  0  0
 11 34  1  0  0  0  0
 12 13  1  0  0  0  0
 13 14  1  0  0  0  0
 14 15  1  0  0  0  0
 14 33  1  0  0  0  0
 15 16  1  0  0  0  0
 15 22  1  0  0  0  0
 16 17  2  0  0  0  0
 16 21  1  0  0  0  0
 17 18  1  0  0  0  0
 18 19  2  0  0  0  0
 19 20  1  0  0  0  0
 20 21  2  0  0  0  0
 22 23  2  0  0  0  0
 23 24  1  0  0  0  0
 23 32  1  0  0  0  0
 24 25  2  0  0  0  0
 25 26  1  0  0  0  0
 26 27  1  0  0  0  0
 26 31  1  0  0  0  0
 27 28  1  0  0  0  0
 27 29  1  0  0  0  0
 27 30  1  0  0  0  0
 31 32  2  0  0  0  0
 32 33  1  0  0  0  0
 33 34  1  0  0  0  0
  1 35  1  0  0  0  0
  1 36  1  0  0  0  0
  1 37  1  0  0  0  0
  3 38  1  0  0  0  0
  3 39  1  0  0  0  0
  3 40  1  0  0  0  0
  4 41  1  0  0  0  0
  4 42  1  0  0  0  0
  5 43  1  0  0  0  0
  5 44  1  0  0  0  0
  8 45  1  0  0  0  0
  9 46  1  0  0  0  0
 10 47  1  0  0  0  0
 10 48  1  0  0  0  0
 11 49  1  0  0  0  0
 12 50  1  0  0  0  0
 12 51  1  0  0  0  0
 13 52  1  0  0  0  0
 13 53  1  0  0  0  0
 14 54  1  0  0  0  0
 15 55  1  0  0  0  0
 17 56  1  0  0  0  0
 18 57  1  0  0  0  0
 19 58  1  0  0  0  0
 20 59  1  0  0  0  0
 21 60  1  0  0  0  0
 24 61  1  0  0  0  0
 25 62  1  0  0  0  0
 26 63  1  0  0  0  0
 31 64  1  0  0  0  0
 33 65  1  0  0  0  0
M  END
> <ID>
CHEMBL1077204

> <IC50[nM]>
8

$$$$
CHEMBL1077204
  -OEChem-05192314313D
 Structure written by MMmdl.
 65 68  0     1  0  0  0  0  0999 V2000
   17.1208   -7.6407   11.4944 C   0  0  0  0  0  0  0  0  0  0  0  0
   15.6242   -7.2482   11.5606 N   0  0  0  0  0  0  0  0  0  0  0  0
   15.1903   -7.0165   13.0246 C   0  0  0  0  0  0  0  0  0  0  0  0
   15.2858   -6.0369   10.6535 C   0  0  0  0  0  0  0  0  0  0  0  0
   15.3687   -6.4451    9.1688 C   0  0  0  0  0  0  0  0  0  0  0  0
   14.6307   -5.5382    8.2833 N   0  0  0  0  0  0  0  0  0  0  0  0
   15.2046   -4.6148    7.4955 C   0  0  0  0  0  0  0  0  0  0  0  0
   16.4171   -4.3982    7.4780 O   0  0  0  0  0  0  0  0  0  0  0  0
   14.3250   -3.9893    6.6937 N   0  0  0  0  0  0  0  0  0  0  0  0
   14.7079   -3.1014    5.5887 C   0  0  0  0  0  0  0  0  0  0  0  0
   14.9053   -3.7799    4.2057 C   0  0  1  0  0  0  0  0  0  0  0  0
   15.0866   -5.3225    4.2389 C   0  0  0  0  0  0  0  0  0  0  0  0
   15.2182   -5.9111    2.8299 C   0  0  0  0  0  0  0  0  0  0  0  0
   14.1067   -5.4122    1.8780 C   0  0  1  0  0  0  0  0  0  0  0  0
   12.7152   -6.0685    2.1272 C   0  0  2  0  0  0  0  0  0  0  0  0
   12.7619   -7.5943    2.0392 C   0  0  0  0  0  0  0  0  0  0  0  0
   13.2585   -8.2080    0.8850 C   0  0  0  0  0  0  0  0  0  0  0  0
   13.3325   -9.5936    0.8010 C   0  0  0  0  0  0  0  0  0  0  0  0
   12.9111  -10.3707    1.8760 C   0  0  0  0  0  0  0  0  0  0  0  0
   12.4042   -9.7694    3.0248 C   0  0  0  0  0  0  0  0  0  0  0  0
   12.3240   -8.3811    3.1077 C   0  0  0  0  0  0  0  0  0  0  0  0
   11.7146   -5.5161    1.2136 N   0  0  0  0  0  0  0  0  0  0  0  0
   11.7897   -4.1790    0.7828 C   0  0  0  0  0  0  0  0  0  0  0  0
   10.7767   -3.7118   -0.0511 C   0  0  0  0  0  0  0  0  0  0  0  0
   10.8134   -2.4087   -0.5370 C   0  0  0  0  0  0  0  0  0  0  0  0
   11.8546   -1.5518   -0.1784 C   0  0  0  0  0  0  0  0  0  0  0  0
   11.8961   -0.1327   -0.7370 C   0  0  0  0  0  0  0  0  0  0  0  0
   12.5327   -0.1525   -1.9080 F   0  0  0  0  0  0  0  0  0  0  0  0
   10.6622    0.3290   -0.9348 F   0  0  0  0  0  0  0  0  0  0  0  0
   12.5354    0.7038    0.0806 F   0  0  0  0  0  0  0  0  0  0  0  0
   12.8578   -2.0201    0.6775 C   0  0  0  0  0  0  0  0  0  0  0  0
   12.8617   -3.3430    1.1425 C   0  0  0  0  0  0  0  0  0  0  0  0
   14.0142   -3.8707    1.9829 C   0  0  1  0  0  0  0  0  0  0  0  0
   13.8081   -3.4639    3.3402 O   0  0  0  0  0  0  0  0  0  0  0  0
   17.4122   -7.8016   10.4460 H   0  0  0  0  0  0  0  0  0  0  0  0
   17.7310   -6.8328   11.9245 H   0  0  0  0  0  0  0  0  0  0  0  0
   17.2826   -8.5665   12.0660 H   0  0  0  0  0  0  0  0  0  0  0  0
   14.1263   -6.7390   13.0527 H   0  0  0  0  0  0  0  0  0  0  0  0
   15.3437   -7.9396   13.6028 H   0  0  0  0  0  0  0  0  0  0  0  0
   15.7921   -6.2059   13.4614 H   0  0  0  0  0  0  0  0  0  0  0  0
   14.2671   -5.6878   10.8782 H   0  0  0  0  0  0  0  0  0  0  0  0
   16.0027   -5.2256   10.8480 H   0  0  0  0  0  0  0  0  0  0  0  0
   16.4258   -6.4487    8.8647 H   0  0  0  0  0  0  0  0  0  0  0  0
   14.9523   -7.4574    9.0598 H   0  0  0  0  0  0  0  0  0  0  0  0
   16.6071   -3.7087    6.8527 H   0  0  0  0  0  0  0  0  0  0  0  0
   13.3502   -4.1379    6.8601 H   0  0  0  0  0  0  0  0  0  0  0  0
   13.9211   -2.3403    5.4807 H   0  0  0  0  0  0  0  0  0  0  0  0
   15.6550   -2.6134    5.8621 H   0  0  0  0  0  0  0  0  0  0  0  0
   15.8235   -3.3588    3.7704 H   0  0  0  0  0  0  0  0  0  0  0  0
   15.9951   -5.5619    4.8110 H   0  0  0  0  0  0  0  0  0  0  0  0
   14.2130   -5.7730    4.7327 H   0  0  0  0  0  0  0  0  0  0  0  0
   16.1950   -5.6211    2.4155 H   0  0  0  0  0  0  0  0  0  0  0  0
   15.1596   -7.0074    2.8979 H   0  0  0  0  0  0  0  0  0  0  0  0
   14.4108   -5.6594    0.8502 H   0  0  0  0  0  0  0  0  0  0  0  0
   12.4187   -5.8099    3.1544 H   0  0  0  0  0  0  0  0  0  0  0  0
   13.5866   -7.6017    0.0536 H   0  0  0  0  0  0  0  0  0  0  0  0
   13.7146  -10.0641   -0.0929 H   0  0  0  0  0  0  0  0  0  0  0  0
   12.9778  -11.4471    1.8186 H   0  0  0  0  0  0  0  0  0  0  0  0
   12.0730  -10.3795    3.8521 H   0  0  0  0  0  0  0  0  0  0  0  0
   11.9243   -7.9141    3.9957 H   0  0  0  0  0  0  0  0  0  0  0  0
    9.9593   -4.3638   -0.3216 H   0  0  0  0  0  0  0  0  0  0  0  0
   10.0320   -2.0586   -1.1952 H   0  0  0  0  0  0  0  0  0  0  0  0
   13.6454   -1.3487    0.9863 H   0  0  0  0  0  0  0  0  0  0  0  0
   12.3276   -3.0343    2.0532 H   0  0  0  0  0  0  0  0  0  0  0  0
   14.9527   -3.4413    1.6024 H   0  0  0  0  0  0  0  0  0  0  0  0
  1  2  1  0  0  0  0
  2  3  1  0  0  0  0
  2  4  1  0  0  0  0
  4  5  1  0  0  0  0
  5  6  1  0  0  0  0
  6  7  2  0  0  0  0
  7  8  1  0  0  0  0
  7  9  1  0  0  0  0
  9 10  1  0  0  0  0
 10 11  1  0  0  0  0
 11 12  1  0  0  0  0
 11 34  1  0  0  0  0
 12 13  1  0  0  0  0
 13 14  1  0  0  0  0
 14 15  1  0  0  0  0
 14 33  1  0  0  0  0
 15 16  1  0  0  0  0
 15 22  1  0  0  0  0
 16 17  2  0  0  0  0
 16 21  1  0  0  0  0
 17 18  1  0  0  0  0
 18 19  2  0  0  0  0
 19 20  1  0  0  0  0
 20 21  2  0  0  0  0
 22 23  2  0  0  0  0
 23 24  1  0  0  0  0
 23 32  1  0  0  0  0
 24 25  2  0  0  0  0
 25 26  1  0  0  0  0
 26 27  1  0  0  0  0
 26 31  2  0  0  0  0
 27 28  1  0  0  0  0
 27 29  1  0  0  0  0
 27 30  1  0  0  0  0
 31 32  1  0  0  0  0
 32 33  1  0  0  0  0
 33 34  1  0  0  0  0
  1 35  1  0  0  0  0
  1 36  1  0  0  0  0
  1 37  1  0  0  0  0
  3 38  1  0  0  0  0
  3 39  1  0  0  0  0
  3 40  1  0  0  0  0
  4 41  1  0  0  0  0
  4 42  1  0  0  0  0
  5 43  1  0  0  0  0
  5 44  1  0  0  0  0
  8 45  1  0  0  0  0
  9 46  1  0  0  0  0
 10 47  1  0  0  0  0
 10 48  1  0  0  0  0
 11 49  1  0  0  0  0
 12 50  1  0  0  0  0
 12 51  1  0  0  0  0
 13 52  1  0  0  0  0
 13 53  1  0  0  0  0
 14 54  1  0  0  0  0
 15 55  1  0  0  0  0
 17 56  1  0  0  0  0
 18 57  1  0  0  0  0
 19 58  1  0  0  0  0
 20 59  1  0  0  0  0
 21 60  1  0  0  0  0
 24 61  1  0  0  0  0
 25 62  1  0  0  0  0
 31 63  1  0  0  0  0
 32 64  1  0  0  0  0
 33 65  1  0  0  0  0
M  END
> <ID>
CHEMBL1077204

> <IC50[nM]>
8

$$$$
CHEMBL1077204
  -OEChem-05192314313D
 Structure written by MMmdl.
 65 68  0     1  0  0  0  0  0999 V2000
   17.1208   -7.6407   11.4944 C   0  0  0  0  0  0  0  0  0  0  0  0
   15.6242   -7.2482   11.5606 N   0  0  0  0  0  0  0  0  0  0  0  0
   15.1903   -7.0165   13.0246 C   0  0  0  0  0  0  0  0  0  0  0  0
   15.2858   -6.0369   10.6535 C   0  0  0  0  0  0  0  0  0  0  0  0
   15.3687   -6.4451    9.1688 C   0  0  0  0  0  0  0  0  0  0  0  0
   14.6307   -5.5382    8.2833 N   0  0  0  0  0  0  0  0  0  0  0  0
   15.2046   -4.6148    7.4955 C   0  0  0  0  0  0  0  0  0  0  0  0
   16.4171   -4.3982    7.4780 O   0  0  0  0  0  0  0  0  0  0  0  0
   14.3250   -3.9893    6.6937 N   0  0  0  0  0  0  0  0  0  0  0  0
   14.7079   -3.1014    5.5887 C   0  0  0  0  0  0  0  0  0  0  0  0
   14.9053   -3.7799    4.2057 C   0  0  1  0  0  0  0  0  0  0  0  0
   15.0866   -5.3225    4.2389 C   0  0  0  0  0  0  0  0  0  0  0  0
   15.2182   -5.9111    2.8299 C   0  0  0  0  0  0  0  0  0  0  0  0
   14.1067   -5.4122    1.8780 C   0  0  1  0  0  0  0  0  0  0  0  0
   12.7152   -6.0685    2.1272 C   0  0  2  0  0  0  0  0  0  0  0  0
   12.7619   -7.5943    2.0392 C   0  0  0  0  0  0  0  0  0  0  0  0
   13.2585   -8.2080    0.8850 C   0  0  0  0  0  0  0  0  0  0  0  0
   13.3325   -9.5936    0.8010 C   0  0  0  0  0  0  0  0  0  0  0  0
   12.9111  -10.3707    1.8760 C   0  0  0  0  0  0  0  0  0  0  0  0
   12.4042   -9.7694    3.0248 C   0  0  0  0  0  0  0  0  0  0  0  0
   12.3240   -8.3811    3.1077 C   0  0  0  0  0  0  0  0  0  0  0  0
   11.7146   -5.5161    1.2136 N   0  0  0  0  0  0  0  0  0  0  0  0
   11.7897   -4.1790    0.7828 C   0  0  0  0  0  0  0  0  0  0  0  0
   10.7767   -3.7118   -0.0511 C   0  0  0  0  0  0  0  0  0  0  0  0
   10.8134   -2.4087   -0.5370 C   0  0  0  0  0  0  0  0  0  0  0  0
   11.8546   -1.5518   -0.1784 C   0  0  0  0  0  0  0  0  0  0  0  0
   11.8961   -0.1327   -0.7370 C   0  0  0  0  0  0  0  0  0  0  0  0
   12.5327   -0.1525   -1.9080 F   0  0  0  0  0  0  0  0  0  0  0  0
   10.6622    0.3290   -0.9348 F   0  0  0  0  0  0  0  0  0  0  0  0
   12.5354    0.7038    0.0806 F   0  0  0  0  0  0  0  0  0  0  0  0
   12.8578   -2.0201    0.6775 C   0  0  0  0  0  0  0  0  0  0  0  0
   12.8617   -3.3430    1.1425 C   0  0  0  0  0  0  0  0  0  0  0  0
   14.0142   -3.8707    1.9829 C   0  0  1  0  0  0  0  0  0  0  0  0
   13.8081   -3.4639    3.3402 O   0  0  0  0  0  0  0  0  0  0  0  0
   17.4122   -7.8016   10.4460 H   0  0  0  0  0  0  0  0  0  0  0  0
   17.7310   -6.8328   11.9245 H   0  0  0  0  0  0  0  0  0  0  0  0
   17.2826   -8.5665   12.0660 H   0  0  0  0  0  0  0  0  0  0  0  0
   14.1263   -6.7390   13.0527 H   0  0  0  0  0  0  0  0  0  0  0  0
   15.3437   -7.9396   13.6028 H   0  0  0  0  0  0  0  0  0  0  0  0
   15.7921   -6.2059   13.4614 H   0  0  0  0  0  0  0  0  0  0  0  0
   14.2671   -5.6878   10.8782 H   0  0  0  0  0  0  0  0  0  0  0  0
   16.0027   -5.2256   10.8480 H   0  0  0  0  0  0  0  0  0  0  0  0
   16.4258   -6.4487    8.8647 H   0  0  0  0  0  0  0  0  0  0  0  0
   14.9523   -7.4574    9.0598 H   0  0  0  0  0  0  0  0  0  0  0  0
   16.6071   -3.7087    6.8527 H   0  0  0  0  0  0  0  0  0  0  0  0
   13.3502   -4.1379    6.8601 H   0  0  0  0  0  0  0  0  0  0  0  0
   13.9211   -2.3403    5.4807 H   0  0  0  0  0  0  0  0  0  0  0  0
   15.6550   -2.6134    5.8621 H   0  0  0  0  0  0  0  0  0  0  0  0
   15.8235   -3.3588    3.7704 H   0  0  0  0  0  0  0  0  0  0  0  0
   15.9951   -5.5619    4.8110 H   0  0  0  0  0  0  0  0  0  0  0  0
   14.2130   -5.7730    4.7327 H   0  0  0  0  0  0  0  0  0  0  0  0
   16.1950   -5.6211    2.4155 H   0  0  0  0  0  0  0  0  0  0  0  0
   15.1596   -7.0074    2.8979 H   0  0  0  0  0  0  0  0  0  0  0  0
   14.4108   -5.6594    0.8502 H   0  0  0  0  0  0  0  0  0  0  0  0
   12.4187   -5.8099    3.1544 H   0  0  0  0  0  0  0  0  0  0  0  0
   13.5866   -7.6017    0.0536 H   0  0  0  0  0  0  0  0  0  0  0  0
   13.7146  -10.0641   -0.0929 H   0  0  0  0  0  0  0  0  0  0  0  0
   12.9778  -11.4471    1.8186 H   0  0  0  0  0  0  0  0  0  0  0  0
   12.0730  -10.3795    3.8521 H   0  0  0  0  0  0  0  0  0  0  0  0
   11.9243   -7.9141    3.9957 H   0  0  0  0  0  0  0  0  0  0  0  0
   10.7574   -4.3758   -0.9279 H   0  0  0  0  0  0  0  0  0  0  0  0
    9.8347   -3.8146    0.5075 H   0  0  0  0  0  0  0  0  0  0  0  0
   10.0320   -2.0586   -1.1952 H   0  0  0  0  0  0  0  0  0  0  0  0
   13.6454   -1.3487    0.9863 H   0  0  0  0  0  0  0  0  0  0  0  0
   14.9527   -3.4413    1.6024 H   0  0  0  0  0  0  0  0  0  0  0  0
  1  2  1  0  0  0  0
  2  3  1  0  0  0  0
  2  4  1  0  0  0  0
  4  5  1  0  0  0  0
  5  6  1  0  0  0  0
  6  7  2  0  0  0  0
  7  8  1  0  0  0  0
  7  9  1  0  0  0  0
  9 10  1  0  0  0  0
 10 11  1  0  0  0  0
 11 12  1  0  0  0  0
 11 34  1  0  0  0  0
 12 13  1  0  0  0  0
 13 14  1  0  0  0  0
 14 15  1  0  0  0  0
 14 33  1  0  0  0  0
 15 16  1  0  0  0  0
 15 22  1  0  0  0  0
 16 17  2  0  0  0  0
 16 21  1  0  0  0  0
 17 18  1  0  0  0  0
 18 19  2  0  0  0  0
 19 20  1  0  0  0  0
 20 21  2  0  0  0  0
 22 23  2  0  0  0  0
 23 24  1  0  0  0  0
 23 32  1  0  0  0  0
 24 25  1  0  0  0  0
 25 26  2  0  0  0  0
 26 27  1  0  0  0  0
 26 31  1  0  0  0  0
 27 28  1  0  0  0  0
 27 29  1  0  0  0  0
 27 30  1  0  0  0  0
 31 32  2  0  0  0  0
 32 33  1  0  0  0  0
 33 34  1  0  0  0  0
  1 35  1  0  0  0  0
  1 36  1  0  0  0  0
  1 37  1  0  0  0  0
  3 38  1  0  0  0  0
  3 39  1  0  0  0  0
  3 40  1  0  0  0  0
  4 41  1  0  0  0  0
  4 42  1  0  0  0  0
  5 43  1  0  0  0  0
  5 44  1  0  0  0  0
  8 45  1  0  0  0  0
  9 46  1  0  0  0  0
 10 47  1  0  0  0  0
 10 48  1  0  0  0  0
 11 49  1  0  0  0  0
 12 50  1  0  0  0  0
 12 51  1  0  0  0  0
 13 52  1  0  0  0  0
 13 53  1  0  0  0  0
 14 54  1  0  0  0  0
 15 55  1  0  0  0  0
 17 56  1  0  0  0  0
 18 57  1  0  0  0  0
 19 58  1  0  0  0  0
 20 59  1  0  0  0  0
 21 60  1  0  0  0  0
 24 61  1  0  0  0  0
 24 62  1  0  0  0  0
 25 63  1  0  0  0  0
 31 64  1  0  0  0  0
 33 65  1  0  0  0  0
M  END
> <ID>
CHEMBL1077204

> <IC50[nM]>
8

$$$$
