CHEMBL1084431
  -OEChem-05192314313D
 Structure written by MMmdl.
 70 74  0     1  0  0  0  0  0999 V2000
   20.4061   -3.7657    7.9254 C   0  0  0  0  0  0  0  0  0  0  0  0
   18.9124   -3.9931    7.7765 C   0  0  0  0  0  0  0  0  0  0  0  0
   18.0258   -2.9250    7.9026 C   0  0  0  0  0  0  0  0  0  0  0  0
   16.6577   -3.1320    7.7478 C   0  0  0  0  0  0  0  0  0  0  0  0
   16.1648   -4.4081    7.4449 C   0  0  0  0  0  0  0  0  0  0  0  0
   14.6878   -4.6643    7.2329 C   0  0  0  0  0  0  0  0  0  0  0  0
   14.1939   -5.6634    7.7631 O   0  0  0  0  0  0  0  0  0  0  0  0
   13.9487   -3.8243    6.4460 N   0  0  0  0  0  0  0  0  0  0  0  0
   12.4795   -4.0242    6.4012 C   0  0  0  0  0  0  0  0  0  0  0  0
   11.6019   -2.8223    6.0038 C   0  0  0  0  0  0  0  0  0  0  0  0
   11.3321   -2.8831    4.4934 N   0  0  0  0  0  0  0  0  0  0  0  0
   14.5613   -2.9978    5.3800 C   0  0  0  0  0  0  0  0  0  0  0  0
   14.7961   -3.6692    4.0001 C   0  0  1  0  0  0  0  0  0  0  0  0
   15.0811   -5.1931    4.0309 C   0  0  0  0  0  0  0  0  0  0  0  0
   15.2403   -5.7746    2.6172 C   0  0  0  0  0  0  0  0  0  0  0  0
   14.1077   -5.3260    1.6628 C   0  0  1  0  0  0  0  0  0  0  0  0
   12.7413   -6.0318    1.9021 C   0  0  2  0  0  0  0  0  0  0  0  0
   12.8422   -7.5568    1.8513 C   0  0  0  0  0  0  0  0  0  0  0  0
   12.4533   -8.3229    2.9526 C   0  0  0  0  0  0  0  0  0  0  0  0
   12.5253   -9.7125    2.8926 C   0  0  0  0  0  0  0  0  0  0  0  0
   12.9477  -10.3381    1.7271 C   0  0  0  0  0  0  0  0  0  0  0  0
   13.3353   -9.5811    0.6254 C   0  0  0  0  0  0  0  0  0  0  0  0
   13.3108   -8.1934    0.6978 C   0  0  0  0  0  0  0  0  0  0  0  0
   11.7319   -5.5273    0.9660 N   0  0  0  0  0  0  0  0  0  0  0  0
   11.7370   -4.1806    0.5580 C   0  0  0  0  0  0  0  0  0  0  0  0
   10.6892   -3.7238   -0.2418 C   0  0  0  0  0  0  0  0  0  0  0  0
   10.6688   -2.4058   -0.6876 C   0  0  0  0  0  0  0  0  0  0  0  0
   11.6907   -1.5255   -0.3218 C   0  0  0  0  0  0  0  0  0  0  0  0
   11.7117   -0.0976   -0.8567 C   0  0  0  0  0  0  0  0  0  0  0  0
   12.2908    0.7357    0.0080 F   0  0  0  0  0  0  0  0  0  0  0  0
   12.4102   -0.0772   -1.9917 F   0  0  0  0  0  0  0  0  0  0  0  0
   10.4766    0.3334   -1.1054 F   0  0  0  0  0  0  0  0  0  0  0  0
   12.7176   -1.9787    0.5071 C   0  0  0  0  0  0  0  0  0  0  0  0
   12.7770   -3.3077    0.9323 C   0  0  0  0  0  0  0  0  0  0  0  0
   13.9477   -3.7906    1.7717 C   0  0  1  0  0  0  0  0  0  0  0  0
   13.6969   -3.4009    3.1267 O   0  0  0  0  0  0  0  0  0  0  0  0
   17.0605   -5.4838    7.3765 C   0  0  0  0  0  0  0  0  0  0  0  0
   18.4268   -5.2802    7.5326 C   0  0  0  0  0  0  0  0  0  0  0  0
   20.6920   -3.8837    8.9810 H   0  0  0  0  0  0  0  0  0  0  0  0
   20.9514   -4.4996    7.3137 H   0  0  0  0  0  0  0  0  0  0  0  0
   20.6574   -2.7490    7.5890 H   0  0  0  0  0  0  0  0  0  0  0  0
   18.4004   -1.9358    8.1206 H   0  0  0  0  0  0  0  0  0  0  0  0
   15.9729   -2.3047    7.8618 H   0  0  0  0  0  0  0  0  0  0  0  0
   12.2800   -4.8291    5.6784 H   0  0  0  0  0  0  0  0  0  0  0  0
   12.1615   -4.3450    7.4042 H   0  0  0  0  0  0  0  0  0  0  0  0
   10.6488   -2.8637    6.5514 H   0  0  0  0  0  0  0  0  0  0  0  0
   12.1249   -1.8860    6.2483 H   0  0  0  0  0  0  0  0  0  0  0  0
   10.7625   -2.1064    4.2245 H   0  0  0  0  0  0  0  0  0  0  0  0
   12.2001   -2.8470    3.9981 H   0  0  0  0  0  0  0  0  0  0  0  0
   13.9049   -2.1303    5.2172 H   0  0  0  0  0  0  0  0  0  0  0  0
   15.5385   -2.6539    5.7499 H   0  0  0  0  0  0  0  0  0  0  0  0
   15.6910   -3.1941    3.5718 H   0  0  0  0  0  0  0  0  0  0  0  0
   16.0088   -5.3701    4.5949 H   0  0  0  0  0  0  0  0  0  0  0  0
   14.2444   -5.7014    4.5324 H   0  0  0  0  0  0  0  0  0  0  0  0
   16.2033   -5.4400    2.2042 H   0  0  0  0  0  0  0  0  0  0  0  0
   15.2316   -6.8725    2.6840 H   0  0  0  0  0  0  0  0  0  0  0  0
   14.4255   -5.5568    0.6353 H   0  0  0  0  0  0  0  0  0  0  0  0
   12.4202   -5.7637    2.9195 H   0  0  0  0  0  0  0  0  0  0  0  0
   12.0972   -7.8382    3.8496 H   0  0  0  0  0  0  0  0  0  0  0  0
   12.2522  -10.3043    3.7538 H   0  0  0  0  0  0  0  0  0  0  0  0
   12.9756  -11.4165    1.6753 H   0  0  0  0  0  0  0  0  0  0  0  0
   13.6541  -10.0705   -0.2830 H   0  0  0  0  0  0  0  0  0  0  0  0
   13.6549   -7.6047   -0.1397 H   0  0  0  0  0  0  0  0  0  0  0  0
   11.8134   -6.0774    0.1349 H   0  0  0  0  0  0  0  0  0  0  0  0
    9.8900   -4.3964   -0.5163 H   0  0  0  0  0  0  0  0  0  0  0  0
    9.8616   -2.0624   -1.3176 H   0  0  0  0  0  0  0  0  0  0  0  0
   13.4829   -1.2869    0.8267 H   0  0  0  0  0  0  0  0  0  0  0  0
   14.8696   -3.3153    1.4054 H   0  0  0  0  0  0  0  0  0  0  0  0
   16.6854   -6.4812    7.2007 H   0  0  0  0  0  0  0  0  0  0  0  0
   19.1102   -6.1138    7.4656 H   0  0  0  0  0  0  0  0  0  0  0  0
  1  2  1  0  0  0  0
  2  3  2  0  0  0  0
  2 38  1  0  0  0  0
  3  4  1  0  0  0  0
  4  5  2  0  0  0  0
  5  6  1  0  0  0  0
  5 37  1  0  0  0  0
  6  7  2  0  0  0  0
  6  8  1  0  0  0  0
  8  9  1  0  0  0  0
  8 12  1  0  0  0  0
  9 10  1  0  0  0  0
 10 11  1  0  0  0  0
 12 13  1  0  0  0  0
 13 14  1  0  0  0  0
 13 36  1  0  0  0  0
 14 15  1  0  0  0  0
 15 16  1  0  0  0  0
 16 17  1  0  0  0  0
 16 35  1  0  0  0  0
 17 18  1  0  0  0  0
 17 24  1  0  0  0  0
 18 19  2  0  0  0  0
 18 23  1  0  0  0  0
 19 20  1  0  0  0  0
 20 21  2  0  0  0  0
 21 22  1  0  0  0  0
 22 23  2  0  0  0  0
 24 25  1  0  0  0  0
 25 26  2  0  0  0  0
 25 34  1  0  0  0  0
 26 27  1  0  0  0  0
 27 28  2  0  0  0  0
 28 29  1  0  0  0  0
 28 33  1  0  0  0  0
 29 30  1  0  0  0  0
 29 31  1  0  0  0  0
 29 32  1  0  0  0  0
 33 34  2  0  0  0  0
 34 35  1  0  0  0  0
 35 36  1  0  0  0  0
 37 38  2  0  0  0  0
  1 39  1  0  0  0  0
  1 40  1  0  0  0  0
  1 41  1  0  0  0  0
  3 42  1  0  0  0  0
  4 43  1  0  0  0  0
  9 44  1  0  0  0  0
  9 45  1  0  0  0  0
 10 46  1  0  0  0  0
 10 47  1  0  0  0  0
 11 48  1  0  0  0  0
 11 49  1  0  0  0  0
 12 50  1  0  0  0  0
 12 51  1  0  0  0  0
 13 52  1  0  0  0  0
 14 53  1  0  0  0  0
 14 54  1  0  0  0  0
 15 55  1  0  0  0  0
 15 56  1  0  0  0  0
 16 57  1  0  0  0  0
 17 58  1  0  0  0  0
 19 59  1  0  0  0  0
 20 60  1  0  0  0  0
 21 61  1  0  0  0  0
 22 62  1  0  0  0  0
 23 63  1  0  0  0  0
 24 64  1  0  0  0  0
 26 65  1  0  0  0  0
 27 66  1  0  0  0  0
 33 67  1  0  0  0  0
 35 68  1  0  0  0  0
 37 69  1  0  0  0  0
 38 70  1  0  0  0  0
M  END
> <ID>
CHEMBL1084431

> <IC50[nM]>
65

$$$$
CHEMBL1084431
  -OEChem-05192314313D
 Structure written by MMmdl.
 70 74  0     1  0  0  0  0  0999 V2000
   20.4061   -3.7657    7.9254 C   0  0  0  0  0  0  0  0  0  0  0  0
   18.9124   -3.9931    7.7765 C   0  0  0  0  0  0  0  0  0  0  0  0
   18.0258   -2.9250    7.9026 C   0  0  0  0  0  0  0  0  0  0  0  0
   16.6577   -3.1320    7.7478 C   0  0  0  0  0  0  0  0  0  0  0  0
   16.1648   -4.4081    7.4449 C   0  0  0  0  0  0  0  0  0  0  0  0
   14.6878   -4.6643    7.2329 C   0  0  0  0  0  0  0  0  0  0  0  0
   14.1939   -5.6634    7.7631 O   0  0  0  0  0  0  0  0  0  0  0  0
   13.9487   -3.8243    6.4460 N   0  0  0  0  0  0  0  0  0  0  0  0
   12.4795   -4.0242    6.4012 C   0  0  0  0  0  0  0  0  0  0  0  0
   11.6019   -2.8223    6.0038 C   0  0  0  0  0  0  0  0  0  0  0  0
   11.3321   -2.8831    4.4934 N   0  0  0  0  0  0  0  0  0  0  0  0
   14.5613   -2.9978    5.3800 C   0  0  0  0  0  0  0  0  0  0  0  0
   14.7961   -3.6692    4.0001 C   0  0  1  0  0  0  0  0  0  0  0  0
   15.0811   -5.1931    4.0309 C   0  0  0  0  0  0  0  0  0  0  0  0
   15.2403   -5.7746    2.6172 C   0  0  0  0  0  0  0  0  0  0  0  0
   14.1077   -5.3260    1.6628 C   0  0  1  0  0  0  0  0  0  0  0  0
   12.7413   -6.0318    1.9021 C   0  0  2  0  0  0  0  0  0  0  0  0
   12.8422   -7.5568    1.8513 C   0  0  0  0  0  0  0  0  0  0  0  0
   12.4533   -8.3229    2.9526 C   0  0  0  0  0  0  0  0  0  0  0  0
   12.5253   -9.7125    2.8926 C   0  0  0  0  0  0  0  0  0  0  0  0
   12.9477  -10.3381    1.7271 C   0  0  0  0  0  0  0  0  0  0  0  0
   13.3353   -9.5811    0.6254 C   0  0  0  0  0  0  0  0  0  0  0  0
   13.3108   -8.1934    0.6978 C   0  0  0  0  0  0  0  0  0  0  0  0
   11.7319   -5.5273    0.9660 N   0  0  0  0  0  0  0  0  0  0  0  0
   11.7370   -4.1806    0.5580 C   0  0  0  0  0  0  0  0  0  0  0  0
   10.6892   -3.7238   -0.2418 C   0  0  0  0  0  0  0  0  0  0  0  0
   10.6688   -2.4058   -0.6876 C   0  0  0  0  0  0  0  0  0  0  0  0
   11.6907   -1.5255   -0.3218 C   0  0  0  0  0  0  0  0  0  0  0  0
   11.7117   -0.0976   -0.8567 C   0  0  0  0  0  0  0  0  0  0  0  0
   12.2908    0.7357    0.0080 F   0  0  0  0  0  0  0  0  0  0  0  0
   12.4102   -0.0772   -1.9917 F   0  0  0  0  0  0  0  0  0  0  0  0
   10.4766    0.3334   -1.1054 F   0  0  0  0  0  0  0  0  0  0  0  0
   12.7176   -1.9787    0.5071 C   0  0  0  0  0  0  0  0  0  0  0  0
   12.7770   -3.3077    0.9323 C   0  0  0  0  0  0  0  0  0  0  0  0
   13.9477   -3.7906    1.7717 C   0  0  1  0  0  0  0  0  0  0  0  0
   13.6969   -3.4009    3.1267 O   0  0  0  0  0  0  0  0  0  0  0  0
   17.0605   -5.4838    7.3765 C   0  0  0  0  0  0  0  0  0  0  0  0
   18.4268   -5.2802    7.5326 C   0  0  0  0  0  0  0  0  0  0  0  0
   20.6920   -3.8837    8.9810 H   0  0  0  0  0  0  0  0  0  0  0  0
   20.9514   -4.4996    7.3137 H   0  0  0  0  0  0  0  0  0  0  0  0
   20.6574   -2.7490    7.5890 H   0  0  0  0  0  0  0  0  0  0  0  0
   18.4004   -1.9358    8.1206 H   0  0  0  0  0  0  0  0  0  0  0  0
   15.9729   -2.3047    7.8618 H   0  0  0  0  0  0  0  0  0  0  0  0
   12.2800   -4.8291    5.6784 H   0  0  0  0  0  0  0  0  0  0  0  0
   12.1615   -4.3450    7.4042 H   0  0  0  0  0  0  0  0  0  0  0  0
   10.6488   -2.8637    6.5514 H   0  0  0  0  0  0  0  0  0  0  0  0
   12.1249   -1.8860    6.2483 H   0  0  0  0  0  0  0  0  0  0  0  0
   10.7625   -2.1064    4.2245 H   0  0  0  0  0  0  0  0  0  0  0  0
   12.2001   -2.8470    3.9981 H   0  0  0  0  0  0  0  0  0  0  0  0
   13.9049   -2.1303    5.2172 H   0  0  0  0  0  0  0  0  0  0  0  0
   15.5385   -2.6539    5.7499 H   0  0  0  0  0  0  0  0  0  0  0  0
   15.6910   -3.1941    3.5718 H   0  0  0  0  0  0  0  0  0  0  0  0
   16.0088   -5.3701    4.5949 H   0  0  0  0  0  0  0  0  0  0  0  0
   14.2444   -5.7014    4.5324 H   0  0  0  0  0  0  0  0  0  0  0  0
   16.2033   -5.4400    2.2042 H   0  0  0  0  0  0  0  0  0  0  0  0
   15.2316   -6.8725    2.6840 H   0  0  0  0  0  0  0  0  0  0  0  0
   14.4255   -5.5568    0.6353 H   0  0  0  0  0  0  0  0  0  0  0  0
   12.4202   -5.7637    2.9195 H   0  0  0  0  0  0  0  0  0  0  0  0
   12.0972   -7.8382    3.8496 H   0  0  0  0  0  0  0  0  0  0  0  0
   12.2522  -10.3043    3.7538 H   0  0  0  0  0  0  0  0  0  0  0  0
   12.9756  -11.4165    1.6753 H   0  0  0  0  0  0  0  0  0  0  0  0
   13.6541  -10.0705   -0.2830 H   0  0  0  0  0  0  0  0  0  0  0  0
   13.6549   -7.6047   -0.1397 H   0  0  0  0  0  0  0  0  0  0  0  0
    9.8900   -4.3964   -0.5163 H   0  0  0  0  0  0  0  0  0  0  0  0
    9.8616   -2.0624   -1.3176 H   0  0  0  0  0  0  0  0  0  0  0  0
   11.1116   -1.1996    0.5548 H   0  0  0  0  0  0  0  0  0  0  0  0
   13.4829   -1.2869    0.8267 H   0  0  0  0  0  0  0  0  0  0  0  0
   14.8696   -3.3153    1.4054 H   0  0  0  0  0  0  0  0  0  0  0  0
   16.6854   -6.4812    7.2007 H   0  0  0  0  0  0  0  0  0  0  0  0
   19.1102   -6.1138    7.4656 H   0  0  0  0  0  0  0  0  0  0  0  0
  1  2  1  0  0  0  0
  2  3  2  0  0  0  0
  2 38  1  0  0  0  0
  3  4  1  0  0  0  0
  4  5  2  0  0  0  0
  5  6  1  0  0  0  0
  5 37  1  0  0  0  0
  6  7  2  0  0  0  0
  6  8  1  0  0  0  0
  8  9  1  0  0  0  0
  8 12  1  0  0  0  0
  9 10  1  0  0  0  0
 10 11  1  0  0  0  0
 12 13  1  0  0  0  0
 13 14  1  0  0  0  0
 13 36  1  0  0  0  0
 14 15  1  0  0  0  0
 15 16  1  0  0  0  0
 16 17  1  0  0  0  0
 16 35  1  0  0  0  0
 17 18  1  0  0  0  0
 17 24  1  0  0  0  0
 18 19  2  0  0  0  0
 18 23  1  0  0  0  0
 19 20  1  0  0  0  0
 20 21  2  0  0  0  0
 21 22  1  0  0  0  0
 22 23  2  0  0  0  0
 24 25  2  0  0  0  0
 25 26  1  0  0  0  0
 25 34  1  0  0  0  0
 26 27  2  0  0  0  0
 27 28  1  0  0  0  0
 28 29  1  0  0  0  0
 28 33  1  0  0  0  0
 29 30  1  0  0  0  0
 29 31  1  0  0  0  0
 29 32  1  0  0  0  0
 33 34  2  0  0  0  0
 34 35  1  0  0  0  0
 35 36  1  0  0  0  0
 37 38  2  0  0  0  0
  1 39  1  0  0  0  0
  1 40  1  0  0  0  0
  1 41  1  0  0  0  0
  3 42  1  0  0  0  0
  4 43  1  0  0  0  0
  9 44  1  0  0  0  0
  9 45  1  0  0  0  0
 10 46  1  0  0  0  0
 10 47  1  0  0  0  0
 11 48  1  0  0  0  0
 11 49  1  0  0  0  0
 12 50  1  0  0  0  0
 12 51  1  0  0  0  0
 13 52  1  0  0  0  0
 14 53  1  0  0  0  0
 14 54  1  0  0  0  0
 15 55  1  0  0  0  0
 15 56  1  0  0  0  0
 16 57  1  0  0  0  0
 17 58  1  0  0  0  0
 19 59  1  0  0  0  0
 20 60  1  0  0  0  0
 21 61  1  0  0  0  0
 22 62  1  0  0  0  0
 23 63  1  0  0  0  0
 26 64  1  0  0  0  0
 27 65  1  0  0  0  0
 28 66  1  0  0  0  0
 33 67  1  0  0  0  0
 35 68  1  0  0  0  0
 37 69  1  0  0  0  0
 38 70  1  0  0  0  0
M  END
> <ID>
CHEMBL1084431

> <IC50[nM]>
65

$$$$
CHEMBL1084431
  -OEChem-05192314313D
 Structure written by MMmdl.
 70 74  0     1  0  0  0  0  0999 V2000
   20.4061   -3.7657    7.9254 C   0  0  0  0  0  0  0  0  0  0  0  0
   18.9124   -3.9931    7.7765 C   0  0  0  0  0  0  0  0  0  0  0  0
   18.0258   -2.9250    7.9026 C   0  0  0  0  0  0  0  0  0  0  0  0
   16.6577   -3.1320    7.7478 C   0  0  0  0  0  0  0  0  0  0  0  0
   16.1648   -4.4081    7.4449 C   0  0  0  0  0  0  0  0  0  0  0  0
   14.6878   -4.6643    7.2329 C   0  0  0  0  0  0  0  0  0  0  0  0
   14.1939   -5.6634    7.7631 O   0  0  0  0  0  0  0  0  0  0  0  0
   13.9487   -3.8243    6.4460 N   0  0  0  0  0  0  0  0  0  0  0  0
   12.4795   -4.0242    6.4012 C   0  0  0  0  0  0  0  0  0  0  0  0
   11.6019   -2.8223    6.0038 C   0  0  0  0  0  0  0  0  0  0  0  0
   11.3321   -2.8831    4.4934 N   0  0  0  0  0  0  0  0  0  0  0  0
   14.5613   -2.9978    5.3800 C   0  0  0  0  0  0  0  0  0  0  0  0
   14.7961   -3.6692    4.0001 C   0  0  1  0  0  0  0  0  0  0  0  0
   15.0811   -5.1931    4.0309 C   0  0  0  0  0  0  0  0  0  0  0  0
   15.2403   -5.7746    2.6172 C   0  0  0  0  0  0  0  0  0  0  0  0
   14.1077   -5.3260    1.6628 C   0  0  1  0  0  0  0  0  0  0  0  0
   12.7413   -6.0318    1.9021 C   0  0  2  0  0  0  0  0  0  0  0  0
   12.8422   -7.5568    1.8513 C   0  0  0  0  0  0  0  0  0  0  0  0
   12.4533   -8.3229    2.9526 C   0  0  0  0  0  0  0  0  0  0  0  0
   12.5253   -9.7125    2.8926 C   0  0  0  0  0  0  0  0  0  0  0  0
   12.9477  -10.3381    1.7271 C   0  0  0  0  0  0  0  0  0  0  0  0
   13.3353   -9.5811    0.6254 C   0  0  0  0  0  0  0  0  0  0  0  0
   13.3108   -8.1934    0.6978 C   0  0  0  0  0  0  0  0  0  0  0  0
   11.7319   -5.5273    0.9660 N   0  0  0  0  0  0  0  0  0  0  0  0
   11.7370   -4.1806    0.5580 C   0  0  0  0  0  0  0  0  0  0  0  0
   10.6892   -3.7238   -0.2418 C   0  0  0  0  0  0  0  0  0  0  0  0
   10.6688   -2.4058   -0.6876 C   0  0  0  0  0  0  0  0  0  0  0  0
   11.6907   -1.5255   -0.3218 C   0  0  0  0  0  0  0  0  0  0  0  0
   11.7117   -0.0976   -0.8567 C   0  0  0  0  0  0  0  0  0  0  0  0
   12.2908    0.7357    0.0080 F   0  0  0  0  0  0  0  0  0  0  0  0
   12.4102   -0.0772   -1.9917 F   0  0  0  0  0  0  0  0  0  0  0  0
   10.4766    0.3334   -1.1054 F   0  0  0  0  0  0  0  0  0  0  0  0
   12.7176   -1.9787    0.5071 C   0  0  0  0  0  0  0  0  0  0  0  0
   12.7770   -3.3077    0.9323 C   0  0  0  0  0  0  0  0  0  0  0  0
   13.9477   -3.7906    1.7717 C   0  0  1  0  0  0  0  0  0  0  0  0
   13.6969   -3.4009    3.1267 O   0  0  0  0  0  0  0  0  0  0  0  0
   17.0605   -5.4838    7.3765 C   0  0  0  0  0  0  0  0  0  0  0  0
   18.4268   -5.2802    7.5326 C   0  0  0  0  0  0  0  0  0  0  0  0
   20.6920   -3.8837    8.9810 H   0  0  0  0  0  0  0  0  0  0  0  0
   20.9514   -4.4996    7.3137 H   0  0  0  0  0  0  0  0  0  0  0  0
   20.6574   -2.7490    7.5890 H   0  0  0  0  0  0  0  0  0  0  0  0
   18.4004   -1.9358    8.1206 H   0  0  0  0  0  0  0  0  0  0  0  0
   15.9729   -2.3047    7.8618 H   0  0  0  0  0  0  0  0  0  0  0  0
   12.2800   -4.8291    5.6784 H   0  0  0  0  0  0  0  0  0  0  0  0
   12.1615   -4.3450    7.4042 H   0  0  0  0  0  0  0  0  0  0  0  0
   10.6488   -2.8637    6.5514 H   0  0  0  0  0  0  0  0  0  0  0  0
   12.1249   -1.8860    6.2483 H   0  0  0  0  0  0  0  0  0  0  0  0
   10.7625   -2.1064    4.2245 H   0  0  0  0  0  0  0  0  0  0  0  0
   12.2001   -2.8470    3.9981 H   0  0  0  0  0  0  0  0  0  0  0  0
   13.9049   -2.1303    5.2172 H   0  0  0  0  0  0  0  0  0  0  0  0
   15.5385   -2.6539    5.7499 H   0  0  0  0  0  0  0  0  0  0  0  0
   15.6910   -3.1941    3.5718 H   0  0  0  0  0  0  0  0  0  0  0  0
   16.0088   -5.3701    4.5949 H   0  0  0  0  0  0  0  0  0  0  0  0
   14.2444   -5.7014    4.5324 H   0  0  0  0  0  0  0  0  0  0  0  0
   16.2033   -5.4400    2.2042 H   0  0  0  0  0  0  0  0  0  0  0  0
   15.2316   -6.8725    2.6840 H   0  0  0  0  0  0  0  0  0  0  0  0
   14.4255   -5.5568    0.6353 H   0  0  0  0  0  0  0  0  0  0  0  0
   12.4202   -5.7637    2.9195 H   0  0  0  0  0  0  0  0  0  0  0  0
   12.0972   -7.8382    3.8496 H   0  0  0  0  0  0  0  0  0  0  0  0
   12.2522  -10.3043    3.7538 H   0  0  0  0  0  0  0  0  0  0  0  0
   12.9756  -11.4165    1.6753 H   0  0  0  0  0  0  0  0  0  0  0  0
   13.6541  -10.0705   -0.2830 H   0  0  0  0  0  0  0  0  0  0  0  0
   13.6549   -7.6047   -0.1397 H   0  0  0  0  0  0  0  0  0  0  0  0
    9.8900   -4.3964   -0.5163 H   0  0  0  0  0  0  0  0  0  0  0  0
    9.8616   -2.0624   -1.3176 H   0  0  0  0  0  0  0  0  0  0  0  0
   13.4829   -1.2869    0.8267 H   0  0  0  0  0  0  0  0  0  0  0  0
   12.2277   -3.0419    1.8475 H   0  0  0  0  0  0  0  0  0  0  0  0
   14.8696   -3.3153    1.4054 H   0  0  0  0  0  0  0  0  0  0  0  0
   16.6854   -6.4812    7.2007 H   0  0  0  0  0  0  0  0  0  0  0  0
   19.1102   -6.1138    7.4656 H   0  0  0  0  0  0  0  0  0  0  0  0
  1  2  1  0  0  0  0
  2  3  2  0  0  0  0
  2 38  1  0  0  0  0
  3  4  1  0  0  0  0
  4  5  2  0  0  0  0
  5  6  1  0  0  0  0
  5 37  1  0  0  0  0
  6  7  2  0  0  0  0
  6  8  1  0  0  0  0
  8  9  1  0  0  0  0
  8 12  1  0  0  0  0
  9 10  1  0  0  0  0
 10 11  1  0  0  0  0
 12 13  1  0  0  0  0
 13 14  1  0  0  0  0
 13 36  1  0  0  0  0
 14 15  1  0  0  0  0
 15 16  1  0  0  0  0
 16 17  1  0  0  0  0
 16 35  1  0  0  0  0
 17 18  1  0  0  0  0
 17 24  1  0  0  0  0
 18 19  2  0  0  0  0
 18 23  1  0  0  0  0
 19 20  1  0  0  0  0
 20 21  2  0  0  0  0
 21 22  1  0  0  0  0
 22 23  2  0  0  0  0
 24 25  2  0  0  0  0
 25 26  1  0  0  0  0
 25 34  1  0  0  0  0
 26 27  2  0  0  0  0
 27 28  1  0  0  0  0
 28 29  1  0  0  0  0
 28 33  2  0  0  0  0
 29 30  1  0  0  0  0
 29 31  1  0  0  0  0
 29 32  1  0  0  0  0
 33 34  1  0  0  0  0
 34 35  1  0  0  0  0
 35 36  1  0  0  0  0
 37 38  2  0  0  0  0
  1 39  1  0  0  0  0
  1 40  1  0  0  0  0
  1 41  1  0  0  0  0
  3 42  1  0  0  0  0
  4 43  1  0  0  0  0
  9 44  1  0  0  0  0
  9 45  1  0  0  0  0
 10 46  1  0  0  0  0
 10 47  1  0  0  0  0
 11 48  1  0  0  0  0
 11 49  1  0  0  0  0
 12 50  1  0  0  0  0
 12 51  1  0  0  0  0
 13 52  1  0  0  0  0
 14 53  1  0  0  0  0
 14 54  1  0  0  0  0
 15 55  1  0  0  0  0
 15 56  1  0  0  0  0
 16 57  1  0  0  0  0
 17 58  1  0  0  0  0
 19 59  1  0  0  0  0
 20 60  1  0  0  0  0
 21 61  1  0  0  0  0
 22 62  1  0  0  0  0
 23 63  1  0  0  0  0
 26 64  1  0  0  0  0
 27 65  1  0  0  0  0
 33 66  1  0  0  0  0
 34 67  1  0  0  0  0
 35 68  1  0  0  0  0
 37 69  1  0  0  0  0
 38 70  1  0  0  0  0
M  END
> <ID>
CHEMBL1084431

> <IC50[nM]>
65

$$$$
CHEMBL1084431
  -OEChem-05192314313D
 Structure written by MMmdl.
 70 74  0     1  0  0  0  0  0999 V2000
   20.4061   -3.7657    7.9254 C   0  0  0  0  0  0  0  0  0  0  0  0
   18.9124   -3.9931    7.7765 C   0  0  0  0  0  0  0  0  0  0  0  0
   18.0258   -2.9250    7.9026 C   0  0  0  0  0  0  0  0  0  0  0  0
   16.6577   -3.1320    7.7478 C   0  0  0  0  0  0  0  0  0  0  0  0
   16.1648   -4.4081    7.4449 C   0  0  0  0  0  0  0  0  0  0  0  0
   14.6878   -4.6643    7.2329 C   0  0  0  0  0  0  0  0  0  0  0  0
   14.1939   -5.6634    7.7631 O   0  0  0  0  0  0  0  0  0  0  0  0
   13.9487   -3.8243    6.4460 N   0  0  0  0  0  0  0  0  0  0  0  0
   12.4795   -4.0242    6.4012 C   0  0  0  0  0  0  0  0  0  0  0  0
   11.6019   -2.8223    6.0038 C   0  0  0  0  0  0  0  0  0  0  0  0
   11.3321   -2.8831    4.4934 N   0  0  0  0  0  0  0  0  0  0  0  0
   14.5613   -2.9978    5.3800 C   0  0  0  0  0  0  0  0  0  0  0  0
   14.7961   -3.6692    4.0001 C   0  0  1  0  0  0  0  0  0  0  0  0
   15.0811   -5.1931    4.0309 C   0  0  0  0  0  0  0  0  0  0  0  0
   15.2403   -5.7746    2.6172 C   0  0  0  0  0  0  0  0  0  0  0  0
   14.1077   -5.3260    1.6628 C   0  0  1  0  0  0  0  0  0  0  0  0
   12.7413   -6.0318    1.9021 C   0  0  2  0  0  0  0  0  0  0  0  0
   12.8422   -7.5568    1.8513 C   0  0  0  0  0  0  0  0  0  0  0  0
   12.4533   -8.3229    2.9526 C   0  0  0  0  0  0  0  0  0  0  0  0
   12.5253   -9.7125    2.8926 C   0  0  0  0  0  0  0  0  0  0  0  0
   12.9477  -10.3381    1.7271 C   0  0  0  0  0  0  0  0  0  0  0  0
   13.3353   -9.5811    0.6254 C   0  0  0  0  0  0  0  0  0  0  0  0
   13.3108   -8.1934    0.6978 C   0  0  0  0  0  0  0  0  0  0  0  0
   11.7319   -5.5273    0.9660 N   0  0  0  0  0  0  0  0  0  0  0  0
   11.7370   -4.1806    0.5580 C   0  0  0  0  0  0  0  0  0  0  0  0
   10.6892   -3.7238   -0.2418 C   0  0  0  0  0  0  0  0  0  0  0  0
   10.6688   -2.4058   -0.6876 C   0  0  0  0  0  0  0  0  0  0  0  0
   11.6907   -1.5255   -0.3218 C   0  0  0  0  0  0  0  0  0  0  0  0
   11.7117   -0.0976   -0.8567 C   0  0  0  0  0  0  0  0  0  0  0  0
   12.2908    0.7357    0.0080 F   0  0  0  0  0  0  0  0  0  0  0  0
   12.4102   -0.0772   -1.9917 F   0  0  0  0  0  0  0  0  0  0  0  0
   10.4766    0.3334   -1.1054 F   0  0  0  0  0  0  0  0  0  0  0  0
   12.7176   -1.9787    0.5071 C   0  0  0  0  0  0  0  0  0  0  0  0
   12.7770   -3.3077    0.9323 C   0  0  0  0  0  0  0  0  0  0  0  0
   13.9477   -3.7906    1.7717 C   0  0  1  0  0  0  0  0  0  0  0  0
   13.6969   -3.4009    3.1267 O   0  0  0  0  0  0  0  0  0  0  0  0
   17.0605   -5.4838    7.3765 C   0  0  0  0  0  0  0  0  0  0  0  0
   18.4268   -5.2802    7.5326 C   0  0  0  0  0  0  0  0  0  0  0  0
   20.6920   -3.8837    8.9810 H   0  0  0  0  0  0  0  0  0  0  0  0
   20.9514   -4.4996    7.3137 H   0  0  0  0  0  0  0  0  0  0  0  0
   20.6574   -2.7490    7.5890 H   0  0  0  0  0  0  0  0  0  0  0  0
   18.4004   -1.9358    8.1206 H   0  0  0  0  0  0  0  0  0  0  0  0
   15.9729   -2.3047    7.8618 H   0  0  0  0  0  0  0  0  0  0  0  0
   12.2800   -4.8291    5.6784 H   0  0  0  0  0  0  0  0  0  0  0  0
   12.1615   -4.3450    7.4042 H   0  0  0  0  0  0  0  0  0  0  0  0
   10.6488   -2.8637    6.5514 H   0  0  0  0  0  0  0  0  0  0  0  0
   12.1249   -1.8860    6.2483 H   0  0  0  0  0  0  0  0  0  0  0  0
   10.7625   -2.1064    4.2245 H   0  0  0  0  0  0  0  0  0  0  0  0
   12.2001   -2.8470    3.9981 H   0  0  0  0  0  0  0  0  0  0  0  0
   13.9049   -2.1303    5.2172 H   0  0  0  0  0  0  0  0  0  0  0  0
   15.5385   -2.6539    5.7499 H   0  0  0  0  0  0  0  0  0  0  0  0
   15.6910   -3.1941    3.5718 H   0  0  0  0  0  0  0  0  0  0  0  0
   16.0088   -5.3701    4.5949 H   0  0  0  0  0  0  0  0  0  0  0  0
   14.2444   -5.7014    4.5324 H   0  0  0  0  0  0  0  0  0  0  0  0
   16.2033   -5.4400    2.2042 H   0  0  0  0  0  0  0  0  0  0  0  0
   15.2316   -6.8725    2.6840 H   0  0  0  0  0  0  0  0  0  0  0  0
   14.4255   -5.5568    0.6353 H   0  0  0  0  0  0  0  0  0  0  0  0
   12.4202   -5.7637    2.9195 H   0  0  0  0  0  0  0  0  0  0  0  0
   12.0972   -7.8382    3.8496 H   0  0  0  0  0  0  0  0  0  0  0  0
   12.2522  -10.3043    3.7538 H   0  0  0  0  0  0  0  0  0  0  0  0
   12.9756  -11.4165    1.6753 H   0  0  0  0  0  0  0  0  0  0  0  0
   13.6541  -10.0705   -0.2830 H   0  0  0  0  0  0  0  0  0  0  0  0
   13.6549   -7.6047   -0.1397 H   0  0  0  0  0  0  0  0  0  0  0  0
   10.6751   -4.3609   -1.1384 H   0  0  0  0  0  0  0  0  0  0  0  0
    9.7634   -3.8777    0.3320 H   0  0  0  0  0  0  0  0  0  0  0  0
    9.8616   -2.0624   -1.3176 H   0  0  0  0  0  0  0  0  0  0  0  0
   13.4829   -1.2869    0.8267 H   0  0  0  0  0  0  0  0  0  0  0  0
   14.8696   -3.3153    1.4054 H   0  0  0  0  0  0  0  0  0  0  0  0
   16.6854   -6.4812    7.2007 H   0  0  0  0  0  0  0  0  0  0  0  0
   19.1102   -6.1138    7.4656 H   0  0  0  0  0  0  0  0  0  0  0  0
  1  2  1  0  0  0  0
  2  3  2  0  0  0  0
  2 38  1  0  0  0  0
  3  4  1  0  0  0  0
  4  5  2  0  0  0  0
  5  6  1  0  0  0  0
  5 37  1  0  0  0  0
  6  7  2  0  0  0  0
  6  8  1  0  0  0  0
  8  9  1  0  0  0  0
  8 12  1  0  0  0  0
  9 10  1  0  0  0  0
 10 11  1  0  0  0  0
 12 13  1  0  0  0  0
 13 14  1  0  0  0  0
 13 36  1  0  0  0  0
 14 15  1  0  0  0  0
 15 16  1  0  0  0  0
 16 17  1  0  0  0  0
 16 35  1  0  0  0  0
 17 18  1  0  0  0  0
 17 24  1  0  0  0  0
 18 19  2  0  0  0  0
 18 23  1  0  0  0  0
 19 20  1  0  0  0  0
 20 21  2  0  0  0  0
 21 22  1  0  0  0  0
 22 23  2  0  0  0  0
 24 25  2  0  0  0  0
 25 26  1  0  0  0  0
 25 34  1  0  0  0  0
 26 27  1  0  0  0  0
 27 28  2  0  0  0  0
 28 29  1  0  0  0  0
 28 33  1  0  0  0  0
 29 30  1  0  0  0  0
 29 31  1  0  0  0  0
 29 32  1  0  0  0  0
 33 34  2  0  0  0  0
 34 35  1  0  0  0  0
 35 36  1  0  0  0  0
 37 38  2  0  0  0  0
  1 39  1  0  0  0  0
  1 40  1  0  0  0  0
  1 41  1  0  0  0  0
  3 42  1  0  0  0  0
  4 43  1  0  0  0  0
  9 44  1  0  0  0  0
  9 45  1  0  0  0  0
 10 46  1  0  0  0  0
 10 47  1  0  0  0  0
 11 48  1  0  0  0  0
 11 49  1  0  0  0  0
 12 50  1  0  0  0  0
 12 51  1  0  0  0  0
 13 52  1  0  0  0  0
 14 53  1  0  0  0  0
 14 54  1  0  0  0  0
 15 55  1  0  0  0  0
 15 56  1  0  0  0  0
 16 57  1  0  0  0  0
 17 58  1  0  0  0  0
 19 59  1  0  0  0  0
 20 60  1  0  0  0  0
 21 61  1  0  0  0  0
 22 62  1  0  0  0  0
 23 63  1  0  0  0  0
 26 64  1  0  0  0  0
 26 65  1  0  0  0  0
 27 66  1  0  0  0  0
 33 67  1  0  0  0  0
 35 68  1  0  0  0  0
 37 69  1  0  0  0  0
 38 70  1  0  0  0  0
M  END
> <ID>
CHEMBL1084431

> <IC50[nM]>
65

$$$$
