CHEMBL1085692
  -OEChem-05192314313D
 Structure written by MMmdl.
 63 66  0     1  0  0  0  0  0999 V2000
   14.6834   -7.3008   11.7225 C   0  0  0  0  0  0  0  0  0  0  0  0
   15.2774   -5.9316   11.3172 N   0  0  0  0  0  0  0  0  0  0  0  0
   15.9300   -5.2530   12.5352 C   0  0  0  0  0  0  0  0  0  0  0  0
   16.2923   -6.0375   10.1526 C   0  0  0  0  0  0  0  0  0  0  0  0
   15.5993   -6.5692    8.8893 C   0  0  0  0  0  0  0  0  0  0  0  0
   14.5542   -5.5430    8.4001 C   0  0  0  0  0  0  0  0  0  0  0  0
   15.1836   -4.5449    7.4457 C   0  0  0  0  0  0  0  0  0  0  0  0
   16.3859   -4.3594    7.3886 O   0  0  0  0  0  0  0  0  0  0  0  0
   14.2892   -3.9272    6.6441 N   0  0  0  0  0  0  0  0  0  0  0  0
   14.6882   -3.0589    5.5552 C   0  0  0  0  0  0  0  0  0  0  0  0
   14.9040   -3.7684    4.1917 C   0  0  1  0  0  0  0  0  0  0  0  0
   15.0828   -5.3154    4.2390 C   0  0  0  0  0  0  0  0  0  0  0  0
   15.2204   -5.9077    2.8305 C   0  0  0  0  0  0  0  0  0  0  0  0
   14.1059   -5.4133    1.8829 C   0  0  1  0  0  0  0  0  0  0  0  0
   12.7128   -6.0662    2.1226 C   0  0  2  0  0  0  0  0  0  0  0  0
   12.7576   -7.5912    2.0355 C   0  0  0  0  0  0  0  0  0  0  0  0
   12.3242   -8.3770    3.1068 C   0  0  0  0  0  0  0  0  0  0  0  0
   12.4016   -9.7648    3.0219 C   0  0  0  0  0  0  0  0  0  0  0  0
   12.9059  -10.3676    1.8713 C   0  0  0  0  0  0  0  0  0  0  0  0
   13.3272   -9.5913    0.7967 C   0  0  0  0  0  0  0  0  0  0  0  0
   13.2504   -8.2070    0.8802 C   0  0  0  0  0  0  0  0  0  0  0  0
   11.7486   -5.5145    1.1710 N   0  0  0  0  0  0  0  0  0  0  0  0
   11.8124   -4.1554    0.7867 C   0  0  0  0  0  0  0  0  0  0  0  0
   10.7992   -3.6430   -0.0245 C   0  0  0  0  0  0  0  0  0  0  0  0
    9.7452   -4.3940   -0.3088 F   0  0  0  0  0  0  0  0  0  0  0  0
   10.8386   -2.3622   -0.5273 C   0  0  0  0  0  0  0  0  0  0  0  0
   11.8857   -1.5286   -0.1663 C   0  0  0  0  0  0  0  0  0  0  0  0
   11.9570    0.2431   -0.8266 Br  0  0  0  0  0  0  0  0  0  0  0  0
   12.8902   -2.0069    0.6804 C   0  0  0  0  0  0  0  0  0  0  0  0
   12.8881   -3.3301    1.1337 C   0  0  0  0  0  0  0  0  0  0  0  0
   14.0302   -3.8699    1.9787 C   0  0  1  0  0  0  0  0  0  0  0  0
   13.8099   -3.4603    3.3270 O   0  0  0  0  0  0  0  0  0  0  0  0
   14.2207   -7.7748   10.8443 H   0  0  0  0  0  0  0  0  0  0  0  0
   15.4846   -7.9480   12.1088 H   0  0  0  0  0  0  0  0  0  0  0  0
   13.9225   -7.1536   12.5031 H   0  0  0  0  0  0  0  0  0  0  0  0
   16.3481   -4.2812   12.2338 H   0  0  0  0  0  0  0  0  0  0  0  0
   15.1731   -5.0993   13.3184 H   0  0  0  0  0  0  0  0  0  0  0  0
   16.7351   -5.8937   12.9241 H   0  0  0  0  0  0  0  0  0  0  0  0
   16.7117   -5.0420    9.9449 H   0  0  0  0  0  0  0  0  0  0  0  0
   17.1026   -6.7243   10.4385 H   0  0  0  0  0  0  0  0  0  0  0  0
   16.3494   -6.7317    8.1013 H   0  0  0  0  0  0  0  0  0  0  0  0
   15.0978   -7.5207    9.1199 H   0  0  0  0  0  0  0  0  0  0  0  0
   13.7422   -6.0744    7.8821 H   0  0  0  0  0  0  0  0  0  0  0  0
   14.1450   -5.0039    9.2672 H   0  0  0  0  0  0  0  0  0  0  0  0
   13.3139   -4.0749    6.8085 H   0  0  0  0  0  0  0  0  0  0  0  0
   13.9058   -2.2971    5.4227 H   0  0  0  0  0  0  0  0  0  0  0  0
   15.6321   -2.5698    5.8379 H   0  0  0  0  0  0  0  0  0  0  0  0
   15.8236   -3.3524    3.7543 H   0  0  0  0  0  0  0  0  0  0  0  0
   15.9880   -5.5533    4.8170 H   0  0  0  0  0  0  0  0  0  0  0  0
   14.2059   -5.7619    4.7306 H   0  0  0  0  0  0  0  0  0  0  0  0
   16.1957   -5.6136    2.4154 H   0  0  0  0  0  0  0  0  0  0  0  0
   15.1670   -7.0042    2.8997 H   0  0  0  0  0  0  0  0  0  0  0  0
   14.4115   -5.6639    0.8564 H   0  0  0  0  0  0  0  0  0  0  0  0
   12.3939   -5.7974    3.1405 H   0  0  0  0  0  0  0  0  0  0  0  0
   11.9306   -7.9096    3.9974 H   0  0  0  0  0  0  0  0  0  0  0  0
   12.0702  -10.3749    3.8492 H   0  0  0  0  0  0  0  0  0  0  0  0
   12.9701  -11.4441    1.8135 H   0  0  0  0  0  0  0  0  0  0  0  0
   13.7114  -10.0617   -0.0964 H   0  0  0  0  0  0  0  0  0  0  0  0
   13.5737   -7.6013    0.0466 H   0  0  0  0  0  0  0  0  0  0  0  0
   11.8342   -6.0529    0.3327 H   0  0  0  0  0  0  0  0  0  0  0  0
   10.0645   -2.0116   -1.1938 H   0  0  0  0  0  0  0  0  0  0  0  0
   13.6828   -1.3420    0.9903 H   0  0  0  0  0  0  0  0  0  0  0  0
   14.9764   -3.4508    1.6059 H   0  0  0  0  0  0  0  0  0  0  0  0
  1  2  1  0  0  0  0
  2  3  1  0  0  0  0
  2  4  1  0  0  0  0
  4  5  1  0  0  0  0
  5  6  1  0  0  0  0
  6  7  1  0  0  0  0
  7  8  2  0  0  0  0
  7  9  1  0  0  0  0
  9 10  1  0  0  0  0
 10 11  1  0  0  0  0
 11 12  1  0  0  0  0
 11 32  1  0  0  0  0
 12 13  1  0  0  0  0
 13 14  1  0  0  0  0
 14 15  1  0  0  0  0
 14 31  1  0  0  0  0
 15 16  1  0  0  0  0
 15 22  1  0  0  0  0
 16 17  2  0  0  0  0
 16 21  1  0  0  0  0
 17 18  1  0  0  0  0
 18 19  2  0  0  0  0
 19 20  1  0  0  0  0
 20 21  2  0  0  0  0
 22 23  1  0  0  0  0
 23 24  2  0  0  0  0
 23 30  1  0  0  0  0
 24 25  1  0  0  0  0
 24 26  1  0  0  0  0
 26 27  2  0  0  0  0
 27 28  1  0  0  0  0
 27 29  1  0  0  0  0
 29 30  2  0  0  0  0
 30 31  1  0  0  0  0
 31 32  1  0  0  0  0
  1 33  1  0  0  0  0
  1 34  1  0  0  0  0
  1 35  1  0  0  0  0
  3 36  1  0  0  0  0
  3 37  1  0  0  0  0
  3 38  1  0  0  0  0
  4 39  1  0  0  0  0
  4 40  1  0  0  0  0
  5 41  1  0  0  0  0
  5 42  1  0  0  0  0
  6 43  1  0  0  0  0
  6 44  1  0  0  0  0
  9 45  1  0  0  0  0
 10 46  1  0  0  0  0
 10 47  1  0  0  0  0
 11 48  1  0  0  0  0
 12 49  1  0  0  0  0
 12 50  1  0  0  0  0
 13 51  1  0  0  0  0
 13 52  1  0  0  0  0
 14 53  1  0  0  0  0
 15 54  1  0  0  0  0
 17 55  1  0  0  0  0
 18 56  1  0  0  0  0
 19 57  1  0  0  0  0
 20 58  1  0  0  0  0
 21 59  1  0  0  0  0
 22 60  1  0  0  0  0
 26 61  1  0  0  0  0
 29 62  1  0  0  0  0
 31 63  1  0  0  0  0
M  END
> <ID>
CHEMBL1085692

> <IC50[nM]>
5

$$$$
CHEMBL1085692
  -OEChem-05192314313D
 Structure written by MMmdl.
 63 66  0     1  0  0  0  0  0999 V2000
   14.6834   -7.3008   11.7225 C   0  0  0  0  0  0  0  0  0  0  0  0
   15.2774   -5.9316   11.3172 N   0  0  0  0  0  0  0  0  0  0  0  0
   15.9300   -5.2530   12.5352 C   0  0  0  0  0  0  0  0  0  0  0  0
   16.2923   -6.0375   10.1526 C   0  0  0  0  0  0  0  0  0  0  0  0
   15.5993   -6.5692    8.8893 C   0  0  0  0  0  0  0  0  0  0  0  0
   14.5542   -5.5430    8.4001 C   0  0  0  0  0  0  0  0  0  0  0  0
   15.1836   -4.5449    7.4457 C   0  0  0  0  0  0  0  0  0  0  0  0
   16.3859   -4.3594    7.3886 O   0  0  0  0  0  0  0  0  0  0  0  0
   14.2892   -3.9272    6.6441 N   0  0  0  0  0  0  0  0  0  0  0  0
   14.6882   -3.0589    5.5552 C   0  0  0  0  0  0  0  0  0  0  0  0
   14.9040   -3.7684    4.1917 C   0  0  1  0  0  0  0  0  0  0  0  0
   15.0828   -5.3154    4.2390 C   0  0  0  0  0  0  0  0  0  0  0  0
   15.2204   -5.9077    2.8305 C   0  0  0  0  0  0  0  0  0  0  0  0
   14.1059   -5.4133    1.8829 C   0  0  1  0  0  0  0  0  0  0  0  0
   12.7128   -6.0662    2.1226 C   0  0  2  0  0  0  0  0  0  0  0  0
   12.7576   -7.5912    2.0355 C   0  0  0  0  0  0  0  0  0  0  0  0
   12.3242   -8.3770    3.1068 C   0  0  0  0  0  0  0  0  0  0  0  0
   12.4016   -9.7648    3.0219 C   0  0  0  0  0  0  0  0  0  0  0  0
   12.9059  -10.3676    1.8713 C   0  0  0  0  0  0  0  0  0  0  0  0
   13.3272   -9.5913    0.7967 C   0  0  0  0  0  0  0  0  0  0  0  0
   13.2504   -8.2070    0.8802 C   0  0  0  0  0  0  0  0  0  0  0  0
   11.7486   -5.5145    1.1710 N   0  0  0  0  0  0  0  0  0  0  0  0
   11.8124   -4.1554    0.7867 C   0  0  0  0  0  0  0  0  0  0  0  0
   10.7992   -3.6430   -0.0245 C   0  0  0  0  0  0  0  0  0  0  0  0
    9.7452   -4.3940   -0.3088 F   0  0  0  0  0  0  0  0  0  0  0  0
   10.8386   -2.3622   -0.5273 C   0  0  0  0  0  0  0  0  0  0  0  0
   11.8857   -1.5286   -0.1663 C   0  0  0  0  0  0  0  0  0  0  0  0
   11.9570    0.2431   -0.8266 Br  0  0  0  0  0  0  0  0  0  0  0  0
   12.8902   -2.0069    0.6804 C   0  0  0  0  0  0  0  0  0  0  0  0
   12.8881   -3.3301    1.1337 C   0  0  0  0  0  0  0  0  0  0  0  0
   14.0302   -3.8699    1.9787 C   0  0  1  0  0  0  0  0  0  0  0  0
   13.8099   -3.4603    3.3270 O   0  0  0  0  0  0  0  0  0  0  0  0
   14.2207   -7.7748   10.8443 H   0  0  0  0  0  0  0  0  0  0  0  0
   15.4846   -7.9480   12.1088 H   0  0  0  0  0  0  0  0  0  0  0  0
   13.9225   -7.1536   12.5031 H   0  0  0  0  0  0  0  0  0  0  0  0
   16.3481   -4.2812   12.2338 H   0  0  0  0  0  0  0  0  0  0  0  0
   15.1731   -5.0993   13.3184 H   0  0  0  0  0  0  0  0  0  0  0  0
   16.7351   -5.8937   12.9241 H   0  0  0  0  0  0  0  0  0  0  0  0
   16.7117   -5.0420    9.9449 H   0  0  0  0  0  0  0  0  0  0  0  0
   17.1026   -6.7243   10.4385 H   0  0  0  0  0  0  0  0  0  0  0  0
   16.3494   -6.7317    8.1013 H   0  0  0  0  0  0  0  0  0  0  0  0
   15.0978   -7.5207    9.1199 H   0  0  0  0  0  0  0  0  0  0  0  0
   13.7422   -6.0744    7.8821 H   0  0  0  0  0  0  0  0  0  0  0  0
   14.1450   -5.0039    9.2672 H   0  0  0  0  0  0  0  0  0  0  0  0
   16.5741   -3.6991    6.7320 H   0  0  0  0  0  0  0  0  0  0  0  0
   13.9058   -2.2971    5.4227 H   0  0  0  0  0  0  0  0  0  0  0  0
   15.6321   -2.5698    5.8379 H   0  0  0  0  0  0  0  0  0  0  0  0
   15.8236   -3.3524    3.7543 H   0  0  0  0  0  0  0  0  0  0  0  0
   15.9880   -5.5533    4.8170 H   0  0  0  0  0  0  0  0  0  0  0  0
   14.2059   -5.7619    4.7306 H   0  0  0  0  0  0  0  0  0  0  0  0
   16.1957   -5.6136    2.4154 H   0  0  0  0  0  0  0  0  0  0  0  0
   15.1670   -7.0042    2.8997 H   0  0  0  0  0  0  0  0  0  0  0  0
   14.4115   -5.6639    0.8564 H   0  0  0  0  0  0  0  0  0  0  0  0
   12.3939   -5.7974    3.1405 H   0  0  0  0  0  0  0  0  0  0  0  0
   11.9306   -7.9096    3.9974 H   0  0  0  0  0  0  0  0  0  0  0  0
   12.0702  -10.3749    3.8492 H   0  0  0  0  0  0  0  0  0  0  0  0
   12.9701  -11.4441    1.8135 H   0  0  0  0  0  0  0  0  0  0  0  0
   13.7114  -10.0617   -0.0964 H   0  0  0  0  0  0  0  0  0  0  0  0
   13.5737   -7.6013    0.0466 H   0  0  0  0  0  0  0  0  0  0  0  0
   11.8342   -6.0529    0.3327 H   0  0  0  0  0  0  0  0  0  0  0  0
   10.0645   -2.0116   -1.1938 H   0  0  0  0  0  0  0  0  0  0  0  0
   13.6828   -1.3420    0.9903 H   0  0  0  0  0  0  0  0  0  0  0  0
   14.9764   -3.4508    1.6059 H   0  0  0  0  0  0  0  0  0  0  0  0
  1  2  1  0  0  0  0
  2  3  1  0  0  0  0
  2  4  1  0  0  0  0
  4  5  1  0  0  0  0
  5  6  1  0  0  0  0
  6  7  1  0  0  0  0
  7  8  1  0  0  0  0
  7  9  2  0  0  0  0
  9 10  1  0  0  0  0
 10 11  1  0  0  0  0
 11 12  1  0  0  0  0
 11 32  1  0  0  0  0
 12 13  1  0  0  0  0
 13 14  1  0  0  0  0
 14 15  1  0  0  0  0
 14 31  1  0  0  0  0
 15 16  1  0  0  0  0
 15 22  1  0  0  0  0
 16 17  2  0  0  0  0
 16 21  1  0  0  0  0
 17 18  1  0  0  0  0
 18 19  2  0  0  0  0
 19 20  1  0  0  0  0
 20 21  2  0  0  0  0
 22 23  1  0  0  0  0
 23 24  2  0  0  0  0
 23 30  1  0  0  0  0
 24 25  1  0  0  0  0
 24 26  1  0  0  0  0
 26 27  2  0  0  0  0
 27 28  1  0  0  0  0
 27 29  1  0  0  0  0
 29 30  2  0  0  0  0
 30 31  1  0  0  0  0
 31 32  1  0  0  0  0
  1 33  1  0  0  0  0
  1 34  1  0  0  0  0
  1 35  1  0  0  0  0
  3 36  1  0  0  0  0
  3 37  1  0  0  0  0
  3 38  1  0  0  0  0
  4 39  1  0  0  0  0
  4 40  1  0  0  0  0
  5 41  1  0  0  0  0
  5 42  1  0  0  0  0
  6 43  1  0  0  0  0
  6 44  1  0  0  0  0
  8 45  1  0  0  0  0
 10 46  1  0  0  0  0
 10 47  1  0  0  0  0
 11 48  1  0  0  0  0
 12 49  1  0  0  0  0
 12 50  1  0  0  0  0
 13 51  1  0  0  0  0
 13 52  1  0  0  0  0
 14 53  1  0  0  0  0
 15 54  1  0  0  0  0
 17 55  1  0  0  0  0
 18 56  1  0  0  0  0
 19 57  1  0  0  0  0
 20 58  1  0  0  0  0
 21 59  1  0  0  0  0
 22 60  1  0  0  0  0
 26 61  1  0  0  0  0
 29 62  1  0  0  0  0
 31 63  1  0  0  0  0
M  END
> <ID>
CHEMBL1085692

> <IC50[nM]>
5

$$$$
CHEMBL1085692
  -OEChem-05192314313D
 Structure written by MMmdl.
 63 66  0     1  0  0  0  0  0999 V2000
   14.6834   -7.3008   11.7225 C   0  0  0  0  0  0  0  0  0  0  0  0
   15.2774   -5.9316   11.3172 N   0  0  0  0  0  0  0  0  0  0  0  0
   15.9300   -5.2530   12.5352 C   0  0  0  0  0  0  0  0  0  0  0  0
   16.2923   -6.0375   10.1526 C   0  0  0  0  0  0  0  0  0  0  0  0
   15.5993   -6.5692    8.8893 C   0  0  0  0  0  0  0  0  0  0  0  0
   14.5542   -5.5430    8.4001 C   0  0  0  0  0  0  0  0  0  0  0  0
   15.1836   -4.5449    7.4457 C   0  0  0  0  0  0  0  0  0  0  0  0
   16.3859   -4.3594    7.3886 O   0  0  0  0  0  0  0  0  0  0  0  0
   14.2892   -3.9272    6.6441 N   0  0  0  0  0  0  0  0  0  0  0  0
   14.6882   -3.0589    5.5552 C   0  0  0  0  0  0  0  0  0  0  0  0
   14.9040   -3.7684    4.1917 C   0  0  1  0  0  0  0  0  0  0  0  0
   15.0828   -5.3154    4.2390 C   0  0  0  0  0  0  0  0  0  0  0  0
   15.2204   -5.9077    2.8305 C   0  0  0  0  0  0  0  0  0  0  0  0
   14.1059   -5.4133    1.8829 C   0  0  1  0  0  0  0  0  0  0  0  0
   12.7128   -6.0662    2.1226 C   0  0  2  0  0  0  0  0  0  0  0  0
   12.7576   -7.5912    2.0355 C   0  0  0  0  0  0  0  0  0  0  0  0
   12.3242   -8.3770    3.1068 C   0  0  0  0  0  0  0  0  0  0  0  0
   12.4016   -9.7648    3.0219 C   0  0  0  0  0  0  0  0  0  0  0  0
   12.9059  -10.3676    1.8713 C   0  0  0  0  0  0  0  0  0  0  0  0
   13.3272   -9.5913    0.7967 C   0  0  0  0  0  0  0  0  0  0  0  0
   13.2504   -8.2070    0.8802 C   0  0  0  0  0  0  0  0  0  0  0  0
   11.7486   -5.5145    1.1710 N   0  0  0  0  0  0  0  0  0  0  0  0
   11.8124   -4.1554    0.7867 C   0  0  0  0  0  0  0  0  0  0  0  0
   10.7992   -3.6430   -0.0245 C   0  0  0  0  0  0  0  0  0  0  0  0
    9.7452   -4.3940   -0.3088 F   0  0  0  0  0  0  0  0  0  0  0  0
   10.8386   -2.3622   -0.5273 C   0  0  0  0  0  0  0  0  0  0  0  0
   11.8857   -1.5286   -0.1663 C   0  0  0  0  0  0  0  0  0  0  0  0
   11.9570    0.2431   -0.8266 Br  0  0  0  0  0  0  0  0  0  0  0  0
   12.8902   -2.0069    0.6804 C   0  0  0  0  0  0  0  0  0  0  0  0
   12.8881   -3.3301    1.1337 C   0  0  0  0  0  0  0  0  0  0  0  0
   14.0302   -3.8699    1.9787 C   0  0  1  0  0  0  0  0  0  0  0  0
   13.8099   -3.4603    3.3270 O   0  0  0  0  0  0  0  0  0  0  0  0
   14.2207   -7.7748   10.8443 H   0  0  0  0  0  0  0  0  0  0  0  0
   15.4846   -7.9480   12.1088 H   0  0  0  0  0  0  0  0  0  0  0  0
   13.9225   -7.1536   12.5031 H   0  0  0  0  0  0  0  0  0  0  0  0
   16.3481   -4.2812   12.2338 H   0  0  0  0  0  0  0  0  0  0  0  0
   15.1731   -5.0993   13.3184 H   0  0  0  0  0  0  0  0  0  0  0  0
   16.7351   -5.8937   12.9241 H   0  0  0  0  0  0  0  0  0  0  0  0
   16.7117   -5.0420    9.9449 H   0  0  0  0  0  0  0  0  0  0  0  0
   17.1026   -6.7243   10.4385 H   0  0  0  0  0  0  0  0  0  0  0  0
   16.3494   -6.7317    8.1013 H   0  0  0  0  0  0  0  0  0  0  0  0
   15.0978   -7.5207    9.1199 H   0  0  0  0  0  0  0  0  0  0  0  0
   13.7422   -6.0744    7.8821 H   0  0  0  0  0  0  0  0  0  0  0  0
   14.1450   -5.0039    9.2672 H   0  0  0  0  0  0  0  0  0  0  0  0
   13.3139   -4.0749    6.8085 H   0  0  0  0  0  0  0  0  0  0  0  0
   13.9058   -2.2971    5.4227 H   0  0  0  0  0  0  0  0  0  0  0  0
   15.6321   -2.5698    5.8379 H   0  0  0  0  0  0  0  0  0  0  0  0
   15.8236   -3.3524    3.7543 H   0  0  0  0  0  0  0  0  0  0  0  0
   15.9880   -5.5533    4.8170 H   0  0  0  0  0  0  0  0  0  0  0  0
   14.2059   -5.7619    4.7306 H   0  0  0  0  0  0  0  0  0  0  0  0
   16.1957   -5.6136    2.4154 H   0  0  0  0  0  0  0  0  0  0  0  0
   15.1670   -7.0042    2.8997 H   0  0  0  0  0  0  0  0  0  0  0  0
   14.4115   -5.6639    0.8564 H   0  0  0  0  0  0  0  0  0  0  0  0
   12.3939   -5.7974    3.1405 H   0  0  0  0  0  0  0  0  0  0  0  0
   11.9306   -7.9096    3.9974 H   0  0  0  0  0  0  0  0  0  0  0  0
   12.0702  -10.3749    3.8492 H   0  0  0  0  0  0  0  0  0  0  0  0
   12.9701  -11.4441    1.8135 H   0  0  0  0  0  0  0  0  0  0  0  0
   13.7114  -10.0617   -0.0964 H   0  0  0  0  0  0  0  0  0  0  0  0
   13.5737   -7.6013    0.0466 H   0  0  0  0  0  0  0  0  0  0  0  0
   10.0645   -2.0116   -1.1938 H   0  0  0  0  0  0  0  0  0  0  0  0
   11.3122   -1.1822    0.7061 H   0  0  0  0  0  0  0  0  0  0  0  0
   13.6828   -1.3420    0.9903 H   0  0  0  0  0  0  0  0  0  0  0  0
   14.9764   -3.4508    1.6059 H   0  0  0  0  0  0  0  0  0  0  0  0
  1  2  1  0  0  0  0
  2  3  1  0  0  0  0
  2  4  1  0  0  0  0
  4  5  1  0  0  0  0
  5  6  1  0  0  0  0
  6  7  1  0  0  0  0
  7  8  2  0  0  0  0
  7  9  1  0  0  0  0
  9 10  1  0  0  0  0
 10 11  1  0  0  0  0
 11 12  1  0  0  0  0
 11 32  1  0  0  0  0
 12 13  1  0  0  0  0
 13 14  1  0  0  0  0
 14 15  1  0  0  0  0
 14 31  1  0  0  0  0
 15 16  1  0  0  0  0
 15 22  1  0  0  0  0
 16 17  2  0  0  0  0
 16 21  1  0  0  0  0
 17 18  1  0  0  0  0
 18 19  2  0  0  0  0
 19 20  1  0  0  0  0
 20 21  2  0  0  0  0
 22 23  2  0  0  0  0
 23 24  1  0  0  0  0
 23 30  1  0  0  0  0
 24 25  1  0  0  0  0
 24 26  2  0  0  0  0
 26 27  1  0  0  0  0
 27 28  1  0  0  0  0
 27 29  1  0  0  0  0
 29 30  2  0  0  0  0
 30 31  1  0  0  0  0
 31 32  1  0  0  0  0
  1 33  1  0  0  0  0
  1 34  1  0  0  0  0
  1 35  1  0  0  0  0
  3 36  1  0  0  0  0
  3 37  1  0  0  0  0
  3 38  1  0  0  0  0
  4 39  1  0  0  0  0
  4 40  1  0  0  0  0
  5 41  1  0  0  0  0
  5 42  1  0  0  0  0
  6 43  1  0  0  0  0
  6 44  1  0  0  0  0
  9 45  1  0  0  0  0
 10 46  1  0  0  0  0
 10 47  1  0  0  0  0
 11 48  1  0  0  0  0
 12 49  1  0  0  0  0
 12 50  1  0  0  0  0
 13 51  1  0  0  0  0
 13 52  1  0  0  0  0
 14 53  1  0  0  0  0
 15 54  1  0  0  0  0
 17 55  1  0  0  0  0
 18 56  1  0  0  0  0
 19 57  1  0  0  0  0
 20 58  1  0  0  0  0
 21 59  1  0  0  0  0
 26 60  1  0  0  0  0
 27 61  1  0  0  0  0
 29 62  1  0  0  0  0
 31 63  1  0  0  0  0
M  END
> <ID>
CHEMBL1085692

> <IC50[nM]>
5

$$$$
CHEMBL1085692
  -OEChem-05192314313D
 Structure written by MMmdl.
 63 66  0     1  0  0  0  0  0999 V2000
   14.6834   -7.3008   11.7225 C   0  0  0  0  0  0  0  0  0  0  0  0
   15.2774   -5.9316   11.3172 N   0  0  0  0  0  0  0  0  0  0  0  0
   15.9300   -5.2530   12.5352 C   0  0  0  0  0  0  0  0  0  0  0  0
   16.2923   -6.0375   10.1526 C   0  0  0  0  0  0  0  0  0  0  0  0
   15.5993   -6.5692    8.8893 C   0  0  0  0  0  0  0  0  0  0  0  0
   14.5542   -5.5430    8.4001 C   0  0  0  0  0  0  0  0  0  0  0  0
   15.1836   -4.5449    7.4457 C   0  0  0  0  0  0  0  0  0  0  0  0
   16.3859   -4.3594    7.3886 O   0  0  0  0  0  0  0  0  0  0  0  0
   14.2892   -3.9272    6.6441 N   0  0  0  0  0  0  0  0  0  0  0  0
   14.6882   -3.0589    5.5552 C   0  0  0  0  0  0  0  0  0  0  0  0
   14.9040   -3.7684    4.1917 C   0  0  1  0  0  0  0  0  0  0  0  0
   15.0828   -5.3154    4.2390 C   0  0  0  0  0  0  0  0  0  0  0  0
   15.2204   -5.9077    2.8305 C   0  0  0  0  0  0  0  0  0  0  0  0
   14.1059   -5.4133    1.8829 C   0  0  1  0  0  0  0  0  0  0  0  0
   12.7128   -6.0662    2.1226 C   0  0  2  0  0  0  0  0  0  0  0  0
   12.7576   -7.5912    2.0355 C   0  0  0  0  0  0  0  0  0  0  0  0
   12.3242   -8.3770    3.1068 C   0  0  0  0  0  0  0  0  0  0  0  0
   12.4016   -9.7648    3.0219 C   0  0  0  0  0  0  0  0  0  0  0  0
   12.9059  -10.3676    1.8713 C   0  0  0  0  0  0  0  0  0  0  0  0
   13.3272   -9.5913    0.7967 C   0  0  0  0  0  0  0  0  0  0  0  0
   13.2504   -8.2070    0.8802 C   0  0  0  0  0  0  0  0  0  0  0  0
   11.7486   -5.5145    1.1710 N   0  0  0  0  0  0  0  0  0  0  0  0
   11.8124   -4.1554    0.7867 C   0  0  0  0  0  0  0  0  0  0  0  0
   10.7992   -3.6430   -0.0245 C   0  0  0  0  0  0  0  0  0  0  0  0
    9.7452   -4.3940   -0.3088 F   0  0  0  0  0  0  0  0  0  0  0  0
   10.8386   -2.3622   -0.5273 C   0  0  0  0  0  0  0  0  0  0  0  0
   11.8857   -1.5286   -0.1663 C   0  0  0  0  0  0  0  0  0  0  0  0
   11.9570    0.2431   -0.8266 Br  0  0  0  0  0  0  0  0  0  0  0  0
   12.8902   -2.0069    0.6804 C   0  0  0  0  0  0  0  0  0  0  0  0
   12.8881   -3.3301    1.1337 C   0  0  0  0  0  0  0  0  0  0  0  0
   14.0302   -3.8699    1.9787 C   0  0  1  0  0  0  0  0  0  0  0  0
   13.8099   -3.4603    3.3270 O   0  0  0  0  0  0  0  0  0  0  0  0
   14.2207   -7.7748   10.8443 H   0  0  0  0  0  0  0  0  0  0  0  0
   15.4846   -7.9480   12.1088 H   0  0  0  0  0  0  0  0  0  0  0  0
   13.9225   -7.1536   12.5031 H   0  0  0  0  0  0  0  0  0  0  0  0
   16.3481   -4.2812   12.2338 H   0  0  0  0  0  0  0  0  0  0  0  0
   15.1731   -5.0993   13.3184 H   0  0  0  0  0  0  0  0  0  0  0  0
   16.7351   -5.8937   12.9241 H   0  0  0  0  0  0  0  0  0  0  0  0
   16.7117   -5.0420    9.9449 H   0  0  0  0  0  0  0  0  0  0  0  0
   17.1026   -6.7243   10.4385 H   0  0  0  0  0  0  0  0  0  0  0  0
   16.3494   -6.7317    8.1013 H   0  0  0  0  0  0  0  0  0  0  0  0
   15.0978   -7.5207    9.1199 H   0  0  0  0  0  0  0  0  0  0  0  0
   13.7422   -6.0744    7.8821 H   0  0  0  0  0  0  0  0  0  0  0  0
   14.1450   -5.0039    9.2672 H   0  0  0  0  0  0  0  0  0  0  0  0
   13.3139   -4.0749    6.8085 H   0  0  0  0  0  0  0  0  0  0  0  0
   13.9058   -2.2971    5.4227 H   0  0  0  0  0  0  0  0  0  0  0  0
   15.6321   -2.5698    5.8379 H   0  0  0  0  0  0  0  0  0  0  0  0
   15.8236   -3.3524    3.7543 H   0  0  0  0  0  0  0  0  0  0  0  0
   15.9880   -5.5533    4.8170 H   0  0  0  0  0  0  0  0  0  0  0  0
   14.2059   -5.7619    4.7306 H   0  0  0  0  0  0  0  0  0  0  0  0
   16.1957   -5.6136    2.4154 H   0  0  0  0  0  0  0  0  0  0  0  0
   15.1670   -7.0042    2.8997 H   0  0  0  0  0  0  0  0  0  0  0  0
   14.4115   -5.6639    0.8564 H   0  0  0  0  0  0  0  0  0  0  0  0
   12.3939   -5.7974    3.1405 H   0  0  0  0  0  0  0  0  0  0  0  0
   11.9306   -7.9096    3.9974 H   0  0  0  0  0  0  0  0  0  0  0  0
   12.0702  -10.3749    3.8492 H   0  0  0  0  0  0  0  0  0  0  0  0
   12.9701  -11.4441    1.8135 H   0  0  0  0  0  0  0  0  0  0  0  0
   13.7114  -10.0617   -0.0964 H   0  0  0  0  0  0  0  0  0  0  0  0
   13.5737   -7.6013    0.0466 H   0  0  0  0  0  0  0  0  0  0  0  0
   10.0645   -2.0116   -1.1938 H   0  0  0  0  0  0  0  0  0  0  0  0
   13.6828   -1.3420    0.9903 H   0  0  0  0  0  0  0  0  0  0  0  0
   12.3578   -3.0189    2.0458 H   0  0  0  0  0  0  0  0  0  0  0  0
   14.9764   -3.4508    1.6059 H   0  0  0  0  0  0  0  0  0  0  0  0
  1  2  1  0  0  0  0
  2  3  1  0  0  0  0
  2  4  1  0  0  0  0
  4  5  1  0  0  0  0
  5  6  1  0  0  0  0
  6  7  1  0  0  0  0
  7  8  2  0  0  0  0
  7  9  1  0  0  0  0
  9 10  1  0  0  0  0
 10 11  1  0  0  0  0
 11 12  1  0  0  0  0
 11 32  1  0  0  0  0
 12 13  1  0  0  0  0
 13 14  1  0  0  0  0
 14 15  1  0  0  0  0
 14 31  1  0  0  0  0
 15 16  1  0  0  0  0
 15 22  1  0  0  0  0
 16 17  2  0  0  0  0
 16 21  1  0  0  0  0
 17 18  1  0  0  0  0
 18 19  2  0  0  0  0
 19 20  1  0  0  0  0
 20 21  2  0  0  0  0
 22 23  2  0  0  0  0
 23 24  1  0  0  0  0
 23 30  1  0  0  0  0
 24 25  1  0  0  0  0
 24 26  2  0  0  0  0
 26 27  1  0  0  0  0
 27 28  1  0  0  0  0
 27 29  2  0  0  0  0
 29 30  1  0  0  0  0
 30 31  1  0  0  0  0
 31 32  1  0  0  0  0
  1 33  1  0  0  0  0
  1 34  1  0  0  0  0
  1 35  1  0  0  0  0
  3 36  1  0  0  0  0
  3 37  1  0  0  0  0
  3 38  1  0  0  0  0
  4 39  1  0  0  0  0
  4 40  1  0  0  0  0
  5 41  1  0  0  0  0
  5 42  1  0  0  0  0
  6 43  1  0  0  0  0
  6 44  1  0  0  0  0
  9 45  1  0  0  0  0
 10 46  1  0  0  0  0
 10 47  1  0  0  0  0
 11 48  1  0  0  0  0
 12 49  1  0  0  0  0
 12 50  1  0  0  0  0
 13 51  1  0  0  0  0
 13 52  1  0  0  0  0
 14 53  1  0  0  0  0
 15 54  1  0  0  0  0
 17 55  1  0  0  0  0
 18 56  1  0  0  0  0
 19 57  1  0  0  0  0
 20 58  1  0  0  0  0
 21 59  1  0  0  0  0
 26 60  1  0  0  0  0
 29 61  1  0  0  0  0
 30 62  1  0  0  0  0
 31 63  1  0  0  0  0
M  END
> <ID>
CHEMBL1085692

> <IC50[nM]>
5

$$$$
CHEMBL1085692
  -OEChem-05192314313D
 Structure written by MMmdl.
 63 66  0     1  0  0  0  0  0999 V2000
   14.6834   -7.3008   11.7225 C   0  0  0  0  0  0  0  0  0  0  0  0
   15.2774   -5.9316   11.3172 N   0  0  0  0  0  0  0  0  0  0  0  0
   15.9300   -5.2530   12.5352 C   0  0  0  0  0  0  0  0  0  0  0  0
   16.2923   -6.0375   10.1526 C   0  0  0  0  0  0  0  0  0  0  0  0
   15.5993   -6.5692    8.8893 C   0  0  0  0  0  0  0  0  0  0  0  0
   14.5542   -5.5430    8.4001 C   0  0  0  0  0  0  0  0  0  0  0  0
   15.1836   -4.5449    7.4457 C   0  0  0  0  0  0  0  0  0  0  0  0
   16.3859   -4.3594    7.3886 O   0  0  0  0  0  0  0  0  0  0  0  0
   14.2892   -3.9272    6.6441 N   0  0  0  0  0  0  0  0  0  0  0  0
   14.6882   -3.0589    5.5552 C   0  0  0  0  0  0  0  0  0  0  0  0
   14.9040   -3.7684    4.1917 C   0  0  1  0  0  0  0  0  0  0  0  0
   15.0828   -5.3154    4.2390 C   0  0  0  0  0  0  0  0  0  0  0  0
   15.2204   -5.9077    2.8305 C   0  0  0  0  0  0  0  0  0  0  0  0
   14.1059   -5.4133    1.8829 C   0  0  1  0  0  0  0  0  0  0  0  0
   12.7128   -6.0662    2.1226 C   0  0  2  0  0  0  0  0  0  0  0  0
   12.7576   -7.5912    2.0355 C   0  0  0  0  0  0  0  0  0  0  0  0
   12.3242   -8.3770    3.1068 C   0  0  0  0  0  0  0  0  0  0  0  0
   12.4016   -9.7648    3.0219 C   0  0  0  0  0  0  0  0  0  0  0  0
   12.9059  -10.3676    1.8713 C   0  0  0  0  0  0  0  0  0  0  0  0
   13.3272   -9.5913    0.7967 C   0  0  0  0  0  0  0  0  0  0  0  0
   13.2504   -8.2070    0.8802 C   0  0  0  0  0  0  0  0  0  0  0  0
   11.7486   -5.5145    1.1710 N   0  0  0  0  0  0  0  0  0  0  0  0
   11.8124   -4.1554    0.7867 C   0  0  0  0  0  0  0  0  0  0  0  0
   10.7992   -3.6430   -0.0245 C   0  0  0  0  0  0  0  0  0  0  0  0
    9.7452   -4.3940   -0.3088 F   0  0  0  0  0  0  0  0  0  0  0  0
   10.8386   -2.3622   -0.5273 C   0  0  0  0  0  0  0  0  0  0  0  0
   11.8857   -1.5286   -0.1663 C   0  0  0  0  0  0  0  0  0  0  0  0
   11.9570    0.2431   -0.8266 Br  0  0  0  0  0  0  0  0  0  0  0  0
   12.8902   -2.0069    0.6804 C   0  0  0  0  0  0  0  0  0  0  0  0
   12.8881   -3.3301    1.1337 C   0  0  0  0  0  0  0  0  0  0  0  0
   14.0302   -3.8699    1.9787 C   0  0  1  0  0  0  0  0  0  0  0  0
   13.8099   -3.4603    3.3270 O   0  0  0  0  0  0  0  0  0  0  0  0
   14.2207   -7.7748   10.8443 H   0  0  0  0  0  0  0  0  0  0  0  0
   15.4846   -7.9480   12.1088 H   0  0  0  0  0  0  0  0  0  0  0  0
   13.9225   -7.1536   12.5031 H   0  0  0  0  0  0  0  0  0  0  0  0
   16.3481   -4.2812   12.2338 H   0  0  0  0  0  0  0  0  0  0  0  0
   15.1731   -5.0993   13.3184 H   0  0  0  0  0  0  0  0  0  0  0  0
   16.7351   -5.8937   12.9241 H   0  0  0  0  0  0  0  0  0  0  0  0
   16.7117   -5.0420    9.9449 H   0  0  0  0  0  0  0  0  0  0  0  0
   17.1026   -6.7243   10.4385 H   0  0  0  0  0  0  0  0  0  0  0  0
   16.3494   -6.7317    8.1013 H   0  0  0  0  0  0  0  0  0  0  0  0
   15.0978   -7.5207    9.1199 H   0  0  0  0  0  0  0  0  0  0  0  0
   13.7422   -6.0744    7.8821 H   0  0  0  0  0  0  0  0  0  0  0  0
   14.1450   -5.0039    9.2672 H   0  0  0  0  0  0  0  0  0  0  0  0
   13.3139   -4.0749    6.8085 H   0  0  0  0  0  0  0  0  0  0  0  0
   13.9058   -2.2971    5.4227 H   0  0  0  0  0  0  0  0  0  0  0  0
   15.6321   -2.5698    5.8379 H   0  0  0  0  0  0  0  0  0  0  0  0
   15.8236   -3.3524    3.7543 H   0  0  0  0  0  0  0  0  0  0  0  0
   15.9880   -5.5533    4.8170 H   0  0  0  0  0  0  0  0  0  0  0  0
   14.2059   -5.7619    4.7306 H   0  0  0  0  0  0  0  0  0  0  0  0
   16.1957   -5.6136    2.4154 H   0  0  0  0  0  0  0  0  0  0  0  0
   15.1670   -7.0042    2.8997 H   0  0  0  0  0  0  0  0  0  0  0  0
   14.4115   -5.6639    0.8564 H   0  0  0  0  0  0  0  0  0  0  0  0
   12.3939   -5.7974    3.1405 H   0  0  0  0  0  0  0  0  0  0  0  0
   11.9306   -7.9096    3.9974 H   0  0  0  0  0  0  0  0  0  0  0  0
   12.0702  -10.3749    3.8492 H   0  0  0  0  0  0  0  0  0  0  0  0
   12.9701  -11.4441    1.8135 H   0  0  0  0  0  0  0  0  0  0  0  0
   13.7114  -10.0617   -0.0964 H   0  0  0  0  0  0  0  0  0  0  0  0
   13.5737   -7.6013    0.0466 H   0  0  0  0  0  0  0  0  0  0  0  0
   11.3169   -4.0179   -0.9197 H   0  0  0  0  0  0  0  0  0  0  0  0
   10.0645   -2.0116   -1.1938 H   0  0  0  0  0  0  0  0  0  0  0  0
   13.6828   -1.3420    0.9903 H   0  0  0  0  0  0  0  0  0  0  0  0
   14.9764   -3.4508    1.6059 H   0  0  0  0  0  0  0  0  0  0  0  0
  1  2  1  0  0  0  0
  2  3  1  0  0  0  0
  2  4  1  0  0  0  0
  4  5  1  0  0  0  0
  5  6  1  0  0  0  0
  6  7  1  0  0  0  0
  7  8  2  0  0  0  0
  7  9  1  0  0  0  0
  9 10  1  0  0  0  0
 10 11  1  0  0  0  0
 11 12  1  0  0  0  0
 11 32  1  0  0  0  0
 12 13  1  0  0  0  0
 13 14  1  0  0  0  0
 14 15  1  0  0  0  0
 14 31  1  0  0  0  0
 15 16  1  0  0  0  0
 15 22  1  0  0  0  0
 16 17  2  0  0  0  0
 16 21  1  0  0  0  0
 17 18  1  0  0  0  0
 18 19  2  0  0  0  0
 19 20  1  0  0  0  0
 20 21  2  0  0  0  0
 22 23  2  0  0  0  0
 23 24  1  0  0  0  0
 23 30  1  0  0  0  0
 24 25  1  0  0  0  0
 24 26  1  0  0  0  0
 26 27  2  0  0  0  0
 27 28  1  0  0  0  0
 27 29  1  0  0  0  0
 29 30  2  0  0  0  0
 30 31  1  0  0  0  0
 31 32  1  0  0  0  0
  1 33  1  0  0  0  0
  1 34  1  0  0  0  0
  1 35  1  0  0  0  0
  3 36  1  0  0  0  0
  3 37  1  0  0  0  0
  3 38  1  0  0  0  0
  4 39  1  0  0  0  0
  4 40  1  0  0  0  0
  5 41  1  0  0  0  0
  5 42  1  0  0  0  0
  6 43  1  0  0  0  0
  6 44  1  0  0  0  0
  9 45  1  0  0  0  0
 10 46  1  0  0  0  0
 10 47  1  0  0  0  0
 11 48  1  0  0  0  0
 12 49  1  0  0  0  0
 12 50  1  0  0  0  0
 13 51  1  0  0  0  0
 13 52  1  0  0  0  0
 14 53  1  0  0  0  0
 15 54  1  0  0  0  0
 17 55  1  0  0  0  0
 18 56  1  0  0  0  0
 19 57  1  0  0  0  0
 20 58  1  0  0  0  0
 21 59  1  0  0  0  0
 24 60  1  0  0  0  0
 26 61  1  0  0  0  0
 29 62  1  0  0  0  0
 31 63  1  0  0  0  0
M  END
> <ID>
CHEMBL1085692

> <IC50[nM]>
5

$$$$
CHEMBL1085692
  -OEChem-05192314313D
 Structure written by MMmdl.
 63 66  0     1  0  0  0  0  0999 V2000
   14.6834   -7.3008   11.7225 C   0  0  0  0  0  0  0  0  0  0  0  0
   15.2774   -5.9316   11.3172 N   0  0  0  0  0  0  0  0  0  0  0  0
   15.9300   -5.2530   12.5352 C   0  0  0  0  0  0  0  0  0  0  0  0
   16.2923   -6.0375   10.1526 C   0  0  0  0  0  0  0  0  0  0  0  0
   15.5993   -6.5692    8.8893 C   0  0  0  0  0  0  0  0  0  0  0  0
   14.5542   -5.5430    8.4001 C   0  0  0  0  0  0  0  0  0  0  0  0
   15.1836   -4.5449    7.4457 C   0  0  0  0  0  0  0  0  0  0  0  0
   16.3859   -4.3594    7.3886 O   0  0  0  0  0  0  0  0  0  0  0  0
   14.2892   -3.9272    6.6441 N   0  0  0  0  0  0  0  0  0  0  0  0
   14.6882   -3.0589    5.5552 C   0  0  0  0  0  0  0  0  0  0  0  0
   14.9040   -3.7684    4.1917 C   0  0  1  0  0  0  0  0  0  0  0  0
   15.0828   -5.3154    4.2390 C   0  0  0  0  0  0  0  0  0  0  0  0
   15.2204   -5.9077    2.8305 C   0  0  0  0  0  0  0  0  0  0  0  0
   14.1059   -5.4133    1.8829 C   0  0  1  0  0  0  0  0  0  0  0  0
   12.7128   -6.0662    2.1226 C   0  0  2  0  0  0  0  0  0  0  0  0
   12.7576   -7.5912    2.0355 C   0  0  0  0  0  0  0  0  0  0  0  0
   12.3242   -8.3770    3.1068 C   0  0  0  0  0  0  0  0  0  0  0  0
   12.4016   -9.7648    3.0219 C   0  0  0  0  0  0  0  0  0  0  0  0
   12.9059  -10.3676    1.8713 C   0  0  0  0  0  0  0  0  0  0  0  0
   13.3272   -9.5913    0.7967 C   0  0  0  0  0  0  0  0  0  0  0  0
   13.2504   -8.2070    0.8802 C   0  0  0  0  0  0  0  0  0  0  0  0
   11.7486   -5.5145    1.1710 N   0  0  0  0  0  0  0  0  0  0  0  0
   11.8124   -4.1554    0.7867 C   0  0  0  0  0  0  0  0  0  0  0  0
   10.7992   -3.6430   -0.0245 C   0  0  0  0  0  0  0  0  0  0  0  0
    9.7452   -4.3940   -0.3088 F   0  0  0  0  0  0  0  0  0  0  0  0
   10.8386   -2.3622   -0.5273 C   0  0  0  0  0  0  0  0  0  0  0  0
   11.8857   -1.5286   -0.1663 C   0  0  0  0  0  0  0  0  0  0  0  0
   11.9570    0.2431   -0.8266 Br  0  0  0  0  0  0  0  0  0  0  0  0
   12.8902   -2.0069    0.6804 C   0  0  0  0  0  0  0  0  0  0  0  0
   12.8881   -3.3301    1.1337 C   0  0  0  0  0  0  0  0  0  0  0  0
   14.0302   -3.8699    1.9787 C   0  0  1  0  0  0  0  0  0  0  0  0
   13.8099   -3.4603    3.3270 O   0  0  0  0  0  0  0  0  0  0  0  0
   14.2207   -7.7748   10.8443 H   0  0  0  0  0  0  0  0  0  0  0  0
   15.4846   -7.9480   12.1088 H   0  0  0  0  0  0  0  0  0  0  0  0
   13.9225   -7.1536   12.5031 H   0  0  0  0  0  0  0  0  0  0  0  0
   16.3481   -4.2812   12.2338 H   0  0  0  0  0  0  0  0  0  0  0  0
   15.1731   -5.0993   13.3184 H   0  0  0  0  0  0  0  0  0  0  0  0
   16.7351   -5.8937   12.9241 H   0  0  0  0  0  0  0  0  0  0  0  0
   16.7117   -5.0420    9.9449 H   0  0  0  0  0  0  0  0  0  0  0  0
   17.1026   -6.7243   10.4385 H   0  0  0  0  0  0  0  0  0  0  0  0
   16.3494   -6.7317    8.1013 H   0  0  0  0  0  0  0  0  0  0  0  0
   15.0978   -7.5207    9.1199 H   0  0  0  0  0  0  0  0  0  0  0  0
   13.7422   -6.0744    7.8821 H   0  0  0  0  0  0  0  0  0  0  0  0
   14.1450   -5.0039    9.2672 H   0  0  0  0  0  0  0  0  0  0  0  0
   16.5741   -3.6991    6.7320 H   0  0  0  0  0  0  0  0  0  0  0  0
   13.9058   -2.2971    5.4227 H   0  0  0  0  0  0  0  0  0  0  0  0
   15.6321   -2.5698    5.8379 H   0  0  0  0  0  0  0  0  0  0  0  0
   15.8236   -3.3524    3.7543 H   0  0  0  0  0  0  0  0  0  0  0  0
   15.9880   -5.5533    4.8170 H   0  0  0  0  0  0  0  0  0  0  0  0
   14.2059   -5.7619    4.7306 H   0  0  0  0  0  0  0  0  0  0  0  0
   16.1957   -5.6136    2.4154 H   0  0  0  0  0  0  0  0  0  0  0  0
   15.1670   -7.0042    2.8997 H   0  0  0  0  0  0  0  0  0  0  0  0
   14.4115   -5.6639    0.8564 H   0  0  0  0  0  0  0  0  0  0  0  0
   12.3939   -5.7974    3.1405 H   0  0  0  0  0  0  0  0  0  0  0  0
   11.9306   -7.9096    3.9974 H   0  0  0  0  0  0  0  0  0  0  0  0
   12.0702  -10.3749    3.8492 H   0  0  0  0  0  0  0  0  0  0  0  0
   12.9701  -11.4441    1.8135 H   0  0  0  0  0  0  0  0  0  0  0  0
   13.7114  -10.0617   -0.0964 H   0  0  0  0  0  0  0  0  0  0  0  0
   13.5737   -7.6013    0.0466 H   0  0  0  0  0  0  0  0  0  0  0  0
   10.0645   -2.0116   -1.1938 H   0  0  0  0  0  0  0  0  0  0  0  0
   11.3122   -1.1822    0.7061 H   0  0  0  0  0  0  0  0  0  0  0  0
   13.6828   -1.3420    0.9903 H   0  0  0  0  0  0  0  0  0  0  0  0
   14.9764   -3.4508    1.6059 H   0  0  0  0  0  0  0  0  0  0  0  0
  1  2  1  0  0  0  0
  2  3  1  0  0  0  0
  2  4  1  0  0  0  0
  4  5  1  0  0  0  0
  5  6  1  0  0  0  0
  6  7  1  0  0  0  0
  7  8  1  0  0  0  0
  7  9  2  0  0  0  0
  9 10  1  0  0  0  0
 10 11  1  0  0  0  0
 11 12  1  0  0  0  0
 11 32  1  0  0  0  0
 12 13  1  0  0  0  0
 13 14  1  0  0  0  0
 14 15  1  0  0  0  0
 14 31  1  0  0  0  0
 15 16  1  0  0  0  0
 15 22  1  0  0  0  0
 16 17  2  0  0  0  0
 16 21  1  0  0  0  0
 17 18  1  0  0  0  0
 18 19  2  0  0  0  0
 19 20  1  0  0  0  0
 20 21  2  0  0  0  0
 22 23  2  0  0  0  0
 23 24  1  0  0  0  0
 23 30  1  0  0  0  0
 24 25  1  0  0  0  0
 24 26  2  0  0  0  0
 26 27  1  0  0  0  0
 27 28  1  0  0  0  0
 27 29  1  0  0  0  0
 29 30  2  0  0  0  0
 30 31  1  0  0  0  0
 31 32  1  0  0  0  0
  1 33  1  0  0  0  0
  1 34  1  0  0  0  0
  1 35  1  0  0  0  0
  3 36  1  0  0  0  0
  3 37  1  0  0  0  0
  3 38  1  0  0  0  0
  4 39  1  0  0  0  0
  4 40  1  0  0  0  0
  5 41  1  0  0  0  0
  5 42  1  0  0  0  0
  6 43  1  0  0  0  0
  6 44  1  0  0  0  0
  8 45  1  0  0  0  0
 10 46  1  0  0  0  0
 10 47  1  0  0  0  0
 11 48  1  0  0  0  0
 12 49  1  0  0  0  0
 12 50  1  0  0  0  0
 13 51  1  0  0  0  0
 13 52  1  0  0  0  0
 14 53  1  0  0  0  0
 15 54  1  0  0  0  0
 17 55  1  0  0  0  0
 18 56  1  0  0  0  0
 19 57  1  0  0  0  0
 20 58  1  0  0  0  0
 21 59  1  0  0  0  0
 26 60  1  0  0  0  0
 27 61  1  0  0  0  0
 29 62  1  0  0  0  0
 31 63  1  0  0  0  0
M  END
> <ID>
CHEMBL1085692

> <IC50[nM]>
5

$$$$
CHEMBL1085692
  -OEChem-05192314313D
 Structure written by MMmdl.
 63 66  0     1  0  0  0  0  0999 V2000
   14.6834   -7.3008   11.7225 C   0  0  0  0  0  0  0  0  0  0  0  0
   15.2774   -5.9316   11.3172 N   0  0  0  0  0  0  0  0  0  0  0  0
   15.9300   -5.2530   12.5352 C   0  0  0  0  0  0  0  0  0  0  0  0
   16.2923   -6.0375   10.1526 C   0  0  0  0  0  0  0  0  0  0  0  0
   15.5993   -6.5692    8.8893 C   0  0  0  0  0  0  0  0  0  0  0  0
   14.5542   -5.5430    8.4001 C   0  0  0  0  0  0  0  0  0  0  0  0
   15.1836   -4.5449    7.4457 C   0  0  0  0  0  0  0  0  0  0  0  0
   16.3859   -4.3594    7.3886 O   0  0  0  0  0  0  0  0  0  0  0  0
   14.2892   -3.9272    6.6441 N   0  0  0  0  0  0  0  0  0  0  0  0
   14.6882   -3.0589    5.5552 C   0  0  0  0  0  0  0  0  0  0  0  0
   14.9040   -3.7684    4.1917 C   0  0  1  0  0  0  0  0  0  0  0  0
   15.0828   -5.3154    4.2390 C   0  0  0  0  0  0  0  0  0  0  0  0
   15.2204   -5.9077    2.8305 C   0  0  0  0  0  0  0  0  0  0  0  0
   14.1059   -5.4133    1.8829 C   0  0  1  0  0  0  0  0  0  0  0  0
   12.7128   -6.0662    2.1226 C   0  0  2  0  0  0  0  0  0  0  0  0
   12.7576   -7.5912    2.0355 C   0  0  0  0  0  0  0  0  0  0  0  0
   12.3242   -8.3770    3.1068 C   0  0  0  0  0  0  0  0  0  0  0  0
   12.4016   -9.7648    3.0219 C   0  0  0  0  0  0  0  0  0  0  0  0
   12.9059  -10.3676    1.8713 C   0  0  0  0  0  0  0  0  0  0  0  0
   13.3272   -9.5913    0.7967 C   0  0  0  0  0  0  0  0  0  0  0  0
   13.2504   -8.2070    0.8802 C   0  0  0  0  0  0  0  0  0  0  0  0
   11.7486   -5.5145    1.1710 N   0  0  0  0  0  0  0  0  0  0  0  0
   11.8124   -4.1554    0.7867 C   0  0  0  0  0  0  0  0  0  0  0  0
   10.7992   -3.6430   -0.0245 C   0  0  0  0  0  0  0  0  0  0  0  0
    9.7452   -4.3940   -0.3088 F   0  0  0  0  0  0  0  0  0  0  0  0
   10.8386   -2.3622   -0.5273 C   0  0  0  0  0  0  0  0  0  0  0  0
   11.8857   -1.5286   -0.1663 C   0  0  0  0  0  0  0  0  0  0  0  0
   11.9570    0.2431   -0.8266 Br  0  0  0  0  0  0  0  0  0  0  0  0
   12.8902   -2.0069    0.6804 C   0  0  0  0  0  0  0  0  0  0  0  0
   12.8881   -3.3301    1.1337 C   0  0  0  0  0  0  0  0  0  0  0  0
   14.0302   -3.8699    1.9787 C   0  0  1  0  0  0  0  0  0  0  0  0
   13.8099   -3.4603    3.3270 O   0  0  0  0  0  0  0  0  0  0  0  0
   14.2207   -7.7748   10.8443 H   0  0  0  0  0  0  0  0  0  0  0  0
   15.4846   -7.9480   12.1088 H   0  0  0  0  0  0  0  0  0  0  0  0
   13.9225   -7.1536   12.5031 H   0  0  0  0  0  0  0  0  0  0  0  0
   16.3481   -4.2812   12.2338 H   0  0  0  0  0  0  0  0  0  0  0  0
   15.1731   -5.0993   13.3184 H   0  0  0  0  0  0  0  0  0  0  0  0
   16.7351   -5.8937   12.9241 H   0  0  0  0  0  0  0  0  0  0  0  0
   16.7117   -5.0420    9.9449 H   0  0  0  0  0  0  0  0  0  0  0  0
   17.1026   -6.7243   10.4385 H   0  0  0  0  0  0  0  0  0  0  0  0
   16.3494   -6.7317    8.1013 H   0  0  0  0  0  0  0  0  0  0  0  0
   15.0978   -7.5207    9.1199 H   0  0  0  0  0  0  0  0  0  0  0  0
   13.7422   -6.0744    7.8821 H   0  0  0  0  0  0  0  0  0  0  0  0
   14.1450   -5.0039    9.2672 H   0  0  0  0  0  0  0  0  0  0  0  0
   16.5741   -3.6991    6.7320 H   0  0  0  0  0  0  0  0  0  0  0  0
   13.9058   -2.2971    5.4227 H   0  0  0  0  0  0  0  0  0  0  0  0
   15.6321   -2.5698    5.8379 H   0  0  0  0  0  0  0  0  0  0  0  0
   15.8236   -3.3524    3.7543 H   0  0  0  0  0  0  0  0  0  0  0  0
   15.9880   -5.5533    4.8170 H   0  0  0  0  0  0  0  0  0  0  0  0
   14.2059   -5.7619    4.7306 H   0  0  0  0  0  0  0  0  0  0  0  0
   16.1957   -5.6136    2.4154 H   0  0  0  0  0  0  0  0  0  0  0  0
   15.1670   -7.0042    2.8997 H   0  0  0  0  0  0  0  0  0  0  0  0
   14.4115   -5.6639    0.8564 H   0  0  0  0  0  0  0  0  0  0  0  0
   12.3939   -5.7974    3.1405 H   0  0  0  0  0  0  0  0  0  0  0  0
   11.9306   -7.9096    3.9974 H   0  0  0  0  0  0  0  0  0  0  0  0
   12.0702  -10.3749    3.8492 H   0  0  0  0  0  0  0  0  0  0  0  0
   12.9701  -11.4441    1.8135 H   0  0  0  0  0  0  0  0  0  0  0  0
   13.7114  -10.0617   -0.0964 H   0  0  0  0  0  0  0  0  0  0  0  0
   13.5737   -7.6013    0.0466 H   0  0  0  0  0  0  0  0  0  0  0  0
   10.0645   -2.0116   -1.1938 H   0  0  0  0  0  0  0  0  0  0  0  0
   13.6828   -1.3420    0.9903 H   0  0  0  0  0  0  0  0  0  0  0  0
   12.3578   -3.0189    2.0458 H   0  0  0  0  0  0  0  0  0  0  0  0
   14.9764   -3.4508    1.6059 H   0  0  0  0  0  0  0  0  0  0  0  0
  1  2  1  0  0  0  0
  2  3  1  0  0  0  0
  2  4  1  0  0  0  0
  4  5  1  0  0  0  0
  5  6  1  0  0  0  0
  6  7  1  0  0  0  0
  7  8  1  0  0  0  0
  7  9  2  0  0  0  0
  9 10  1  0  0  0  0
 10 11  1  0  0  0  0
 11 12  1  0  0  0  0
 11 32  1  0  0  0  0
 12 13  1  0  0  0  0
 13 14  1  0  0  0  0
 14 15  1  0  0  0  0
 14 31  1  0  0  0  0
 15 16  1  0  0  0  0
 15 22  1  0  0  0  0
 16 17  2  0  0  0  0
 16 21  1  0  0  0  0
 17 18  1  0  0  0  0
 18 19  2  0  0  0  0
 19 20  1  0  0  0  0
 20 21  2  0  0  0  0
 22 23  2  0  0  0  0
 23 24  1  0  0  0  0
 23 30  1  0  0  0  0
 24 25  1  0  0  0  0
 24 26  2  0  0  0  0
 26 27  1  0  0  0  0
 27 28  1  0  0  0  0
 27 29  2  0  0  0  0
 29 30  1  0  0  0  0
 30 31  1  0  0  0  0
 31 32  1  0  0  0  0
  1 33  1  0  0  0  0
  1 34  1  0  0  0  0
  1 35  1  0  0  0  0
  3 36  1  0  0  0  0
  3 37  1  0  0  0  0
  3 38  1  0  0  0  0
  4 39  1  0  0  0  0
  4 40  1  0  0  0  0
  5 41  1  0  0  0  0
  5 42  1  0  0  0  0
  6 43  1  0  0  0  0
  6 44  1  0  0  0  0
  8 45  1  0  0  0  0
 10 46  1  0  0  0  0
 10 47  1  0  0  0  0
 11 48  1  0  0  0  0
 12 49  1  0  0  0  0
 12 50  1  0  0  0  0
 13 51  1  0  0  0  0
 13 52  1  0  0  0  0
 14 53  1  0  0  0  0
 15 54  1  0  0  0  0
 17 55  1  0  0  0  0
 18 56  1  0  0  0  0
 19 57  1  0  0  0  0
 20 58  1  0  0  0  0
 21 59  1  0  0  0  0
 26 60  1  0  0  0  0
 29 61  1  0  0  0  0
 30 62  1  0  0  0  0
 31 63  1  0  0  0  0
M  END
> <ID>
CHEMBL1085692

> <IC50[nM]>
5

$$$$
CHEMBL1085692
  -OEChem-05192314313D
 Structure written by MMmdl.
 63 66  0     1  0  0  0  0  0999 V2000
   14.6834   -7.3008   11.7225 C   0  0  0  0  0  0  0  0  0  0  0  0
   15.2774   -5.9316   11.3172 N   0  0  0  0  0  0  0  0  0  0  0  0
   15.9300   -5.2530   12.5352 C   0  0  0  0  0  0  0  0  0  0  0  0
   16.2923   -6.0375   10.1526 C   0  0  0  0  0  0  0  0  0  0  0  0
   15.5993   -6.5692    8.8893 C   0  0  0  0  0  0  0  0  0  0  0  0
   14.5542   -5.5430    8.4001 C   0  0  0  0  0  0  0  0  0  0  0  0
   15.1836   -4.5449    7.4457 C   0  0  0  0  0  0  0  0  0  0  0  0
   16.3859   -4.3594    7.3886 O   0  0  0  0  0  0  0  0  0  0  0  0
   14.2892   -3.9272    6.6441 N   0  0  0  0  0  0  0  0  0  0  0  0
   14.6882   -3.0589    5.5552 C   0  0  0  0  0  0  0  0  0  0  0  0
   14.9040   -3.7684    4.1917 C   0  0  1  0  0  0  0  0  0  0  0  0
   15.0828   -5.3154    4.2390 C   0  0  0  0  0  0  0  0  0  0  0  0
   15.2204   -5.9077    2.8305 C   0  0  0  0  0  0  0  0  0  0  0  0
   14.1059   -5.4133    1.8829 C   0  0  1  0  0  0  0  0  0  0  0  0
   12.7128   -6.0662    2.1226 C   0  0  2  0  0  0  0  0  0  0  0  0
   12.7576   -7.5912    2.0355 C   0  0  0  0  0  0  0  0  0  0  0  0
   12.3242   -8.3770    3.1068 C   0  0  0  0  0  0  0  0  0  0  0  0
   12.4016   -9.7648    3.0219 C   0  0  0  0  0  0  0  0  0  0  0  0
   12.9059  -10.3676    1.8713 C   0  0  0  0  0  0  0  0  0  0  0  0
   13.3272   -9.5913    0.7967 C   0  0  0  0  0  0  0  0  0  0  0  0
   13.2504   -8.2070    0.8802 C   0  0  0  0  0  0  0  0  0  0  0  0
   11.7486   -5.5145    1.1710 N   0  0  0  0  0  0  0  0  0  0  0  0
   11.8124   -4.1554    0.7867 C   0  0  0  0  0  0  0  0  0  0  0  0
   10.7992   -3.6430   -0.0245 C   0  0  0  0  0  0  0  0  0  0  0  0
    9.7452   -4.3940   -0.3088 F   0  0  0  0  0  0  0  0  0  0  0  0
   10.8386   -2.3622   -0.5273 C   0  0  0  0  0  0  0  0  0  0  0  0
   11.8857   -1.5286   -0.1663 C   0  0  0  0  0  0  0  0  0  0  0  0
   11.9570    0.2431   -0.8266 Br  0  0  0  0  0  0  0  0  0  0  0  0
   12.8902   -2.0069    0.6804 C   0  0  0  0  0  0  0  0  0  0  0  0
   12.8881   -3.3301    1.1337 C   0  0  0  0  0  0  0  0  0  0  0  0
   14.0302   -3.8699    1.9787 C   0  0  1  0  0  0  0  0  0  0  0  0
   13.8099   -3.4603    3.3270 O   0  0  0  0  0  0  0  0  0  0  0  0
   14.2207   -7.7748   10.8443 H   0  0  0  0  0  0  0  0  0  0  0  0
   15.4846   -7.9480   12.1088 H   0  0  0  0  0  0  0  0  0  0  0  0
   13.9225   -7.1536   12.5031 H   0  0  0  0  0  0  0  0  0  0  0  0
   16.3481   -4.2812   12.2338 H   0  0  0  0  0  0  0  0  0  0  0  0
   15.1731   -5.0993   13.3184 H   0  0  0  0  0  0  0  0  0  0  0  0
   16.7351   -5.8937   12.9241 H   0  0  0  0  0  0  0  0  0  0  0  0
   16.7117   -5.0420    9.9449 H   0  0  0  0  0  0  0  0  0  0  0  0
   17.1026   -6.7243   10.4385 H   0  0  0  0  0  0  0  0  0  0  0  0
   16.3494   -6.7317    8.1013 H   0  0  0  0  0  0  0  0  0  0  0  0
   15.0978   -7.5207    9.1199 H   0  0  0  0  0  0  0  0  0  0  0  0
   13.7422   -6.0744    7.8821 H   0  0  0  0  0  0  0  0  0  0  0  0
   14.1450   -5.0039    9.2672 H   0  0  0  0  0  0  0  0  0  0  0  0
   16.5741   -3.6991    6.7320 H   0  0  0  0  0  0  0  0  0  0  0  0
   13.9058   -2.2971    5.4227 H   0  0  0  0  0  0  0  0  0  0  0  0
   15.6321   -2.5698    5.8379 H   0  0  0  0  0  0  0  0  0  0  0  0
   15.8236   -3.3524    3.7543 H   0  0  0  0  0  0  0  0  0  0  0  0
   15.9880   -5.5533    4.8170 H   0  0  0  0  0  0  0  0  0  0  0  0
   14.2059   -5.7619    4.7306 H   0  0  0  0  0  0  0  0  0  0  0  0
   16.1957   -5.6136    2.4154 H   0  0  0  0  0  0  0  0  0  0  0  0
   15.1670   -7.0042    2.8997 H   0  0  0  0  0  0  0  0  0  0  0  0
   14.4115   -5.6639    0.8564 H   0  0  0  0  0  0  0  0  0  0  0  0
   12.3939   -5.7974    3.1405 H   0  0  0  0  0  0  0  0  0  0  0  0
   11.9306   -7.9096    3.9974 H   0  0  0  0  0  0  0  0  0  0  0  0
   12.0702  -10.3749    3.8492 H   0  0  0  0  0  0  0  0  0  0  0  0
   12.9701  -11.4441    1.8135 H   0  0  0  0  0  0  0  0  0  0  0  0
   13.7114  -10.0617   -0.0964 H   0  0  0  0  0  0  0  0  0  0  0  0
   13.5737   -7.6013    0.0466 H   0  0  0  0  0  0  0  0  0  0  0  0
   11.3169   -4.0179   -0.9197 H   0  0  0  0  0  0  0  0  0  0  0  0
   10.0645   -2.0116   -1.1938 H   0  0  0  0  0  0  0  0  0  0  0  0
   13.6828   -1.3420    0.9903 H   0  0  0  0  0  0  0  0  0  0  0  0
   14.9764   -3.4508    1.6059 H   0  0  0  0  0  0  0  0  0  0  0  0
  1  2  1  0  0  0  0
  2  3  1  0  0  0  0
  2  4  1  0  0  0  0
  4  5  1  0  0  0  0
  5  6  1  0  0  0  0
  6  7  1  0  0  0  0
  7  8  1  0  0  0  0
  7  9  2  0  0  0  0
  9 10  1  0  0  0  0
 10 11  1  0  0  0  0
 11 12  1  0  0  0  0
 11 32  1  0  0  0  0
 12 13  1  0  0  0  0
 13 14  1  0  0  0  0
 14 15  1  0  0  0  0
 14 31  1  0  0  0  0
 15 16  1  0  0  0  0
 15 22  1  0  0  0  0
 16 17  2  0  0  0  0
 16 21  1  0  0  0  0
 17 18  1  0  0  0  0
 18 19  2  0  0  0  0
 19 20  1  0  0  0  0
 20 21  2  0  0  0  0
 22 23  2  0  0  0  0
 23 24  1  0  0  0  0
 23 30  1  0  0  0  0
 24 25  1  0  0  0  0
 24 26  1  0  0  0  0
 26 27  2  0  0  0  0
 27 28  1  0  0  0  0
 27 29  1  0  0  0  0
 29 30  2  0  0  0  0
 30 31  1  0  0  0  0
 31 32  1  0  0  0  0
  1 33  1  0  0  0  0
  1 34  1  0  0  0  0
  1 35  1  0  0  0  0
  3 36  1  0  0  0  0
  3 37  1  0  0  0  0
  3 38  1  0  0  0  0
  4 39  1  0  0  0  0
  4 40  1  0  0  0  0
  5 41  1  0  0  0  0
  5 42  1  0  0  0  0
  6 43  1  0  0  0  0
  6 44  1  0  0  0  0
  8 45  1  0  0  0  0
 10 46  1  0  0  0  0
 10 47  1  0  0  0  0
 11 48  1  0  0  0  0
 12 49  1  0  0  0  0
 12 50  1  0  0  0  0
 13 51  1  0  0  0  0
 13 52  1  0  0  0  0
 14 53  1  0  0  0  0
 15 54  1  0  0  0  0
 17 55  1  0  0  0  0
 18 56  1  0  0  0  0
 19 57  1  0  0  0  0
 20 58  1  0  0  0  0
 21 59  1  0  0  0  0
 24 60  1  0  0  0  0
 26 61  1  0  0  0  0
 29 62  1  0  0  0  0
 31 63  1  0  0  0  0
M  END
> <ID>
CHEMBL1085692

> <IC50[nM]>
5

$$$$
