CHEMBL1093087
  -OEChem-05192314313D
 Structure written by MMmdl.
 65 69  0     1  0  0  0  0  0999 V2000
   17.0595   -4.3278    9.3015 N   0  0  0  0  0  0  0  0  0  0  0  0
   16.4111   -3.6781    8.0642 C   0  0  0  0  0  0  0  0  0  0  0  0
   15.4283   -4.6540    7.4209 C   0  0  0  0  0  0  0  0  0  0  0  0
   14.3173   -3.9632    6.7098 N   0  0  0  0  0  0  0  0  0  0  0  0
   14.6711   -3.1205    5.5672 C   0  0  0  0  0  0  0  0  0  0  0  0
   14.8777   -3.7953    4.1876 C   0  0  1  0  0  0  0  0  0  0  0  0
   15.1008   -5.3295    4.2145 C   0  0  0  0  0  0  0  0  0  0  0  0
   15.2228   -5.9222    2.8121 C   0  0  0  0  0  0  0  0  0  0  0  0
   14.1174   -5.4218    1.8557 C   0  0  1  0  0  0  0  0  0  0  0  0
   12.7216   -6.0747    2.0945 C   0  0  2  0  0  0  0  0  0  0  0  0
   12.7729   -7.6008    2.0278 C   0  0  0  0  0  0  0  0  0  0  0  0
   13.2706   -8.2220    0.8801 C   0  0  0  0  0  0  0  0  0  0  0  0
   13.3326   -9.6058    0.8050 C   0  0  0  0  0  0  0  0  0  0  0  0
   12.9181  -10.3802    1.8839 C   0  0  0  0  0  0  0  0  0  0  0  0
   12.4178   -9.7705    3.0309 C   0  0  0  0  0  0  0  0  0  0  0  0
   12.3383   -8.3811    3.1031 C   0  0  0  0  0  0  0  0  0  0  0  0
   11.7413   -5.5300    1.1481 N   0  0  0  0  0  0  0  0  0  0  0  0
   11.8102   -4.1920    0.7296 C   0  0  0  0  0  0  0  0  0  0  0  0
   10.7818   -3.7078   -0.0824 C   0  0  0  0  0  0  0  0  0  0  0  0
   10.8015   -2.3932   -0.5399 C   0  0  0  0  0  0  0  0  0  0  0  0
   11.8482   -1.5380   -0.1822 C   0  0  0  0  0  0  0  0  0  0  0  0
   11.8927   -0.1087   -0.7182 C   0  0  0  0  0  0  0  0  0  0  0  0
   10.6612    0.3848   -0.9020 F   0  0  0  0  0  0  0  0  0  0  0  0
   12.5434    0.7151    0.1022 F   0  0  0  0  0  0  0  0  0  0  0  0
   12.5269   -0.1156   -1.8900 F   0  0  0  0  0  0  0  0  0  0  0  0
   12.8592   -2.0214    0.6553 C   0  0  0  0  0  0  0  0  0  0  0  0
   12.8763   -3.3505    1.0997 C   0  0  0  0  0  0  0  0  0  0  0  0
   14.0264   -3.8788    1.9517 C   0  0  1  0  0  0  0  0  0  0  0  0
   13.7985   -3.4740    3.3022 O   0  0  0  0  0  0  0  0  0  0  0  0
   13.3153   -3.3837    7.5227 C   0  0  0  0  0  0  0  0  0  0  0  0
   13.5260   -3.1620    8.8770 C   0  0  0  0  0  0  0  0  0  0  0  0
   12.6670   -2.3578    9.6181 C   0  0  0  0  0  0  0  0  0  0  0  0
   11.5921   -1.7940    8.9796 C   0  0  0  0  0  0  0  0  0  0  0  0
   11.2437   -2.1161    7.6763 C   0  0  0  0  0  0  0  0  0  0  0  0
   12.1204   -2.9427    6.9433 C   0  0  0  0  0  0  0  0  0  0  0  0
   17.7017   -3.6845    9.7184 H   0  0  0  0  0  0  0  0  0  0  0  0
   16.3490   -4.5657    9.9638 H   0  0  0  0  0  0  0  0  0  0  0  0
   15.8744   -2.7676    8.3692 H   0  0  0  0  0  0  0  0  0  0  0  0
   17.1939   -3.4161    7.3372 H   0  0  0  0  0  0  0  0  0  0  0  0
   15.9742   -5.2788    6.6986 H   0  0  0  0  0  0  0  0  0  0  0  0
   14.9999   -5.2923    8.2077 H   0  0  0  0  0  0  0  0  0  0  0  0
   13.8671   -2.3791    5.4491 H   0  0  0  0  0  0  0  0  0  0  0  0
   15.6097   -2.6062    5.8211 H   0  0  0  0  0  0  0  0  0  0  0  0
   15.7951   -3.3587    3.7660 H   0  0  0  0  0  0  0  0  0  0  0  0
   16.0258   -5.5428    4.7704 H   0  0  0  0  0  0  0  0  0  0  0  0
   14.2488   -5.8019    4.7253 H   0  0  0  0  0  0  0  0  0  0  0  0
   16.2017   -5.6425    2.3957 H   0  0  0  0  0  0  0  0  0  0  0  0
   15.1552   -7.0176    2.8858 H   0  0  0  0  0  0  0  0  0  0  0  0
   14.4269   -5.6724    0.8303 H   0  0  0  0  0  0  0  0  0  0  0  0
   12.4061   -5.7997    3.1118 H   0  0  0  0  0  0  0  0  0  0  0  0
   13.6086   -7.6226    0.0477 H   0  0  0  0  0  0  0  0  0  0  0  0
   13.7026  -10.0820   -0.0910 H   0  0  0  0  0  0  0  0  0  0  0  0
   12.9846  -11.4569    1.8314 H   0  0  0  0  0  0  0  0  0  0  0  0
   12.0913  -10.3742    3.8648 H   0  0  0  0  0  0  0  0  0  0  0  0
   11.9413   -7.9077    3.9889 H   0  0  0  0  0  0  0  0  0  0  0  0
   11.8013   -6.0903    0.3220 H   0  0  0  0  0  0  0  0  0  0  0  0
    9.9649   -4.3585   -0.3574 H   0  0  0  0  0  0  0  0  0  0  0  0
   10.0050   -2.0324   -1.1738 H   0  0  0  0  0  0  0  0  0  0  0  0
   13.6475   -1.3526    0.9677 H   0  0  0  0  0  0  0  0  0  0  0  0
   14.9689   -3.4493    1.5812 H   0  0  0  0  0  0  0  0  0  0  0  0
   14.3728   -3.6227    9.3640 H   0  0  0  0  0  0  0  0  0  0  0  0
   12.8418   -2.1818   10.6692 H   0  0  0  0  0  0  0  0  0  0  0  0
   10.9932   -1.0705    9.5128 H   0  0  0  0  0  0  0  0  0  0  0  0
   10.3296   -1.7455    7.2365 H   0  0  0  0  0  0  0  0  0  0  0  0
   11.8694   -3.2354    5.9345 H   0  0  0  0  0  0  0  0  0  0  0  0
  1  2  1  0  0  0  0
  2  3  1  0  0  0  0
  3  4  1  0  0  0  0
  4  5  1  0  0  0  0
  4 30  1  0  0  0  0
  5  6  1  0  0  0  0
  6  7  1  0  0  0  0
  6 29  1  0  0  0  0
  7  8  1  0  0  0  0
  8  9  1  0  0  0  0
  9 10  1  0  0  0  0
  9 28  1  0  0  0  0
 10 11  1  0  0  0  0
 10 17  1  0  0  0  0
 11 12  2  0  0  0  0
 11 16  1  0  0  0  0
 12 13  1  0  0  0  0
 13 14  2  0  0  0  0
 14 15  1  0  0  0  0
 15 16  2  0  0  0  0
 17 18  1  0  0  0  0
 18 19  2  0  0  0  0
 18 27  1  0  0  0  0
 19 20  1  0  0  0  0
 20 21  2  0  0  0  0
 21 22  1  0  0  0  0
 21 26  1  0  0  0  0
 22 23  1  0  0  0  0
 22 24  1  0  0  0  0
 22 25  1  0  0  0  0
 26 27  2  0  0  0  0
 27 28  1  0  0  0  0
 28 29  1  0  0  0  0
 30 31  2  0  0  0  0
 30 35  1  0  0  0  0
 31 32  1  0  0  0  0
 32 33  2  0  0  0  0
 33 34  1  0  0  0  0
 34 35  2  0  0  0  0
  1 36  1  0  0  0  0
  1 37  1  0  0  0  0
  2 38  1  0  0  0  0
  2 39  1  0  0  0  0
  3 40  1  0  0  0  0
  3 41  1  0  0  0  0
  5 42  1  0  0  0  0
  5 43  1  0  0  0  0
  6 44  1  0  0  0  0
  7 45  1  0  0  0  0
  7 46  1  0  0  0  0
  8 47  1  0  0  0  0
  8 48  1  0  0  0  0
  9 49  1  0  0  0  0
 10 50  1  0  0  0  0
 12 51  1  0  0  0  0
 13 52  1  0  0  0  0
 14 53  1  0  0  0  0
 15 54  1  0  0  0  0
 16 55  1  0  0  0  0
 17 56  1  0  0  0  0
 19 57  1  0  0  0  0
 20 58  1  0  0  0  0
 26 59  1  0  0  0  0
 28 60  1  0  0  0  0
 31 61  1  0  0  0  0
 32 62  1  0  0  0  0
 33 63  1  0  0  0  0
 34 64  1  0  0  0  0
 35 65  1  0  0  0  0
M  END
> <ID>
CHEMBL1093087

> <IC50[nM]>
19

$$$$
CHEMBL1093087
  -OEChem-05192314313D
 Structure written by MMmdl.
 65 69  0     1  0  0  0  0  0999 V2000
   17.0595   -4.3278    9.3015 N   0  0  0  0  0  0  0  0  0  0  0  0
   16.4111   -3.6781    8.0642 C   0  0  0  0  0  0  0  0  0  0  0  0
   15.4283   -4.6540    7.4209 C   0  0  0  0  0  0  0  0  0  0  0  0
   14.3173   -3.9632    6.7098 N   0  0  0  0  0  0  0  0  0  0  0  0
   14.6711   -3.1205    5.5672 C   0  0  0  0  0  0  0  0  0  0  0  0
   14.8777   -3.7953    4.1876 C   0  0  1  0  0  0  0  0  0  0  0  0
   15.1008   -5.3295    4.2145 C   0  0  0  0  0  0  0  0  0  0  0  0
   15.2228   -5.9222    2.8121 C   0  0  0  0  0  0  0  0  0  0  0  0
   14.1174   -5.4218    1.8557 C   0  0  1  0  0  0  0  0  0  0  0  0
   12.7216   -6.0747    2.0945 C   0  0  2  0  0  0  0  0  0  0  0  0
   12.7729   -7.6008    2.0278 C   0  0  0  0  0  0  0  0  0  0  0  0
   13.2706   -8.2220    0.8801 C   0  0  0  0  0  0  0  0  0  0  0  0
   13.3326   -9.6058    0.8050 C   0  0  0  0  0  0  0  0  0  0  0  0
   12.9181  -10.3802    1.8839 C   0  0  0  0  0  0  0  0  0  0  0  0
   12.4178   -9.7705    3.0309 C   0  0  0  0  0  0  0  0  0  0  0  0
   12.3383   -8.3811    3.1031 C   0  0  0  0  0  0  0  0  0  0  0  0
   11.7413   -5.5300    1.1481 N   0  0  0  0  0  0  0  0  0  0  0  0
   11.8102   -4.1920    0.7296 C   0  0  0  0  0  0  0  0  0  0  0  0
   10.7818   -3.7078   -0.0824 C   0  0  0  0  0  0  0  0  0  0  0  0
   10.8015   -2.3932   -0.5399 C   0  0  0  0  0  0  0  0  0  0  0  0
   11.8482   -1.5380   -0.1822 C   0  0  0  0  0  0  0  0  0  0  0  0
   11.8927   -0.1087   -0.7182 C   0  0  0  0  0  0  0  0  0  0  0  0
   10.6612    0.3848   -0.9020 F   0  0  0  0  0  0  0  0  0  0  0  0
   12.5434    0.7151    0.1022 F   0  0  0  0  0  0  0  0  0  0  0  0
   12.5269   -0.1156   -1.8900 F   0  0  0  0  0  0  0  0  0  0  0  0
   12.8592   -2.0214    0.6553 C   0  0  0  0  0  0  0  0  0  0  0  0
   12.8763   -3.3505    1.0997 C   0  0  0  0  0  0  0  0  0  0  0  0
   14.0264   -3.8788    1.9517 C   0  0  1  0  0  0  0  0  0  0  0  0
   13.7985   -3.4740    3.3022 O   0  0  0  0  0  0  0  0  0  0  0  0
   13.3153   -3.3837    7.5227 C   0  0  0  0  0  0  0  0  0  0  0  0
   13.5260   -3.1620    8.8770 C   0  0  0  0  0  0  0  0  0  0  0  0
   12.6670   -2.3578    9.6181 C   0  0  0  0  0  0  0  0  0  0  0  0
   11.5921   -1.7940    8.9796 C   0  0  0  0  0  0  0  0  0  0  0  0
   11.2437   -2.1161    7.6763 C   0  0  0  0  0  0  0  0  0  0  0  0
   12.1204   -2.9427    6.9433 C   0  0  0  0  0  0  0  0  0  0  0  0
   17.7017   -3.6845    9.7184 H   0  0  0  0  0  0  0  0  0  0  0  0
   16.3490   -4.5657    9.9638 H   0  0  0  0  0  0  0  0  0  0  0  0
   15.8744   -2.7676    8.3692 H   0  0  0  0  0  0  0  0  0  0  0  0
   17.1939   -3.4161    7.3372 H   0  0  0  0  0  0  0  0  0  0  0  0
   15.9742   -5.2788    6.6986 H   0  0  0  0  0  0  0  0  0  0  0  0
   14.9999   -5.2923    8.2077 H   0  0  0  0  0  0  0  0  0  0  0  0
   13.8671   -2.3791    5.4491 H   0  0  0  0  0  0  0  0  0  0  0  0
   15.6097   -2.6062    5.8211 H   0  0  0  0  0  0  0  0  0  0  0  0
   15.7951   -3.3587    3.7660 H   0  0  0  0  0  0  0  0  0  0  0  0
   16.0258   -5.5428    4.7704 H   0  0  0  0  0  0  0  0  0  0  0  0
   14.2488   -5.8019    4.7253 H   0  0  0  0  0  0  0  0  0  0  0  0
   16.2017   -5.6425    2.3957 H   0  0  0  0  0  0  0  0  0  0  0  0
   15.1552   -7.0176    2.8858 H   0  0  0  0  0  0  0  0  0  0  0  0
   14.4269   -5.6724    0.8303 H   0  0  0  0  0  0  0  0  0  0  0  0
   12.4061   -5.7997    3.1118 H   0  0  0  0  0  0  0  0  0  0  0  0
   13.6086   -7.6226    0.0477 H   0  0  0  0  0  0  0  0  0  0  0  0
   13.7026  -10.0820   -0.0910 H   0  0  0  0  0  0  0  0  0  0  0  0
   12.9846  -11.4569    1.8314 H   0  0  0  0  0  0  0  0  0  0  0  0
   12.0913  -10.3742    3.8648 H   0  0  0  0  0  0  0  0  0  0  0  0
   11.9413   -7.9077    3.9889 H   0  0  0  0  0  0  0  0  0  0  0  0
    9.9649   -4.3585   -0.3574 H   0  0  0  0  0  0  0  0  0  0  0  0
   10.0050   -2.0324   -1.1738 H   0  0  0  0  0  0  0  0  0  0  0  0
   11.2775   -1.1970    0.6942 H   0  0  0  0  0  0  0  0  0  0  0  0
   13.6475   -1.3526    0.9677 H   0  0  0  0  0  0  0  0  0  0  0  0
   14.9689   -3.4493    1.5812 H   0  0  0  0  0  0  0  0  0  0  0  0
   14.3728   -3.6227    9.3640 H   0  0  0  0  0  0  0  0  0  0  0  0
   12.8418   -2.1818   10.6692 H   0  0  0  0  0  0  0  0  0  0  0  0
   10.9932   -1.0705    9.5128 H   0  0  0  0  0  0  0  0  0  0  0  0
   10.3296   -1.7455    7.2365 H   0  0  0  0  0  0  0  0  0  0  0  0
   11.8694   -3.2354    5.9345 H   0  0  0  0  0  0  0  0  0  0  0  0
  1  2  1  0  0  0  0
  2  3  1  0  0  0  0
  3  4  1  0  0  0  0
  4  5  1  0  0  0  0
  4 30  1  0  0  0  0
  5  6  1  0  0  0  0
  6  7  1  0  0  0  0
  6 29  1  0  0  0  0
  7  8  1  0  0  0  0
  8  9  1  0  0  0  0
  9 10  1  0  0  0  0
  9 28  1  0  0  0  0
 10 11  1  0  0  0  0
 10 17  1  0  0  0  0
 11 12  2  0  0  0  0
 11 16  1  0  0  0  0
 12 13  1  0  0  0  0
 13 14  2  0  0  0  0
 14 15  1  0  0  0  0
 15 16  2  0  0  0  0
 17 18  2  0  0  0  0
 18 19  1  0  0  0  0
 18 27  1  0  0  0  0
 19 20  2  0  0  0  0
 20 21  1  0  0  0  0
 21 22  1  0  0  0  0
 21 26  1  0  0  0  0
 22 23  1  0  0  0  0
 22 24  1  0  0  0  0
 22 25  1  0  0  0  0
 26 27  2  0  0  0  0
 27 28  1  0  0  0  0
 28 29  1  0  0  0  0
 30 31  2  0  0  0  0
 30 35  1  0  0  0  0
 31 32  1  0  0  0  0
 32 33  2  0  0  0  0
 33 34  1  0  0  0  0
 34 35  2  0  0  0  0
  1 36  1  0  0  0  0
  1 37  1  0  0  0  0
  2 38  1  0  0  0  0
  2 39  1  0  0  0  0
  3 40  1  0  0  0  0
  3 41  1  0  0  0  0
  5 42  1  0  0  0  0
  5 43  1  0  0  0  0
  6 44  1  0  0  0  0
  7 45  1  0  0  0  0
  7 46  1  0  0  0  0
  8 47  1  0  0  0  0
  8 48  1  0  0  0  0
  9 49  1  0  0  0  0
 10 50  1  0  0  0  0
 12 51  1  0  0  0  0
 13 52  1  0  0  0  0
 14 53  1  0  0  0  0
 15 54  1  0  0  0  0
 16 55  1  0  0  0  0
 19 56  1  0  0  0  0
 20 57  1  0  0  0  0
 21 58  1  0  0  0  0
 26 59  1  0  0  0  0
 28 60  1  0  0  0  0
 31 61  1  0  0  0  0
 32 62  1  0  0  0  0
 33 63  1  0  0  0  0
 34 64  1  0  0  0  0
 35 65  1  0  0  0  0
M  END
> <ID>
CHEMBL1093087

> <IC50[nM]>
19

$$$$
CHEMBL1093087
  -OEChem-05192314313D
 Structure written by MMmdl.
 65 69  0     1  0  0  0  0  0999 V2000
   17.0595   -4.3278    9.3015 N   0  0  0  0  0  0  0  0  0  0  0  0
   16.4111   -3.6781    8.0642 C   0  0  0  0  0  0  0  0  0  0  0  0
   15.4283   -4.6540    7.4209 C   0  0  0  0  0  0  0  0  0  0  0  0
   14.3173   -3.9632    6.7098 N   0  0  0  0  0  0  0  0  0  0  0  0
   14.6711   -3.1205    5.5672 C   0  0  0  0  0  0  0  0  0  0  0  0
   14.8777   -3.7953    4.1876 C   0  0  1  0  0  0  0  0  0  0  0  0
   15.1008   -5.3295    4.2145 C   0  0  0  0  0  0  0  0  0  0  0  0
   15.2228   -5.9222    2.8121 C   0  0  0  0  0  0  0  0  0  0  0  0
   14.1174   -5.4218    1.8557 C   0  0  1  0  0  0  0  0  0  0  0  0
   12.7216   -6.0747    2.0945 C   0  0  2  0  0  0  0  0  0  0  0  0
   12.7729   -7.6008    2.0278 C   0  0  0  0  0  0  0  0  0  0  0  0
   13.2706   -8.2220    0.8801 C   0  0  0  0  0  0  0  0  0  0  0  0
   13.3326   -9.6058    0.8050 C   0  0  0  0  0  0  0  0  0  0  0  0
   12.9181  -10.3802    1.8839 C   0  0  0  0  0  0  0  0  0  0  0  0
   12.4178   -9.7705    3.0309 C   0  0  0  0  0  0  0  0  0  0  0  0
   12.3383   -8.3811    3.1031 C   0  0  0  0  0  0  0  0  0  0  0  0
   11.7413   -5.5300    1.1481 N   0  0  0  0  0  0  0  0  0  0  0  0
   11.8102   -4.1920    0.7296 C   0  0  0  0  0  0  0  0  0  0  0  0
   10.7818   -3.7078   -0.0824 C   0  0  0  0  0  0  0  0  0  0  0  0
   10.8015   -2.3932   -0.5399 C   0  0  0  0  0  0  0  0  0  0  0  0
   11.8482   -1.5380   -0.1822 C   0  0  0  0  0  0  0  0  0  0  0  0
   11.8927   -0.1087   -0.7182 C   0  0  0  0  0  0  0  0  0  0  0  0
   10.6612    0.3848   -0.9020 F   0  0  0  0  0  0  0  0  0  0  0  0
   12.5434    0.7151    0.1022 F   0  0  0  0  0  0  0  0  0  0  0  0
   12.5269   -0.1156   -1.8900 F   0  0  0  0  0  0  0  0  0  0  0  0
   12.8592   -2.0214    0.6553 C   0  0  0  0  0  0  0  0  0  0  0  0
   12.8763   -3.3505    1.0997 C   0  0  0  0  0  0  0  0  0  0  0  0
   14.0264   -3.8788    1.9517 C   0  0  1  0  0  0  0  0  0  0  0  0
   13.7985   -3.4740    3.3022 O   0  0  0  0  0  0  0  0  0  0  0  0
   13.3153   -3.3837    7.5227 C   0  0  0  0  0  0  0  0  0  0  0  0
   13.5260   -3.1620    8.8770 C   0  0  0  0  0  0  0  0  0  0  0  0
   12.6670   -2.3578    9.6181 C   0  0  0  0  0  0  0  0  0  0  0  0
   11.5921   -1.7940    8.9796 C   0  0  0  0  0  0  0  0  0  0  0  0
   11.2437   -2.1161    7.6763 C   0  0  0  0  0  0  0  0  0  0  0  0
   12.1204   -2.9427    6.9433 C   0  0  0  0  0  0  0  0  0  0  0  0
   17.7017   -3.6845    9.7184 H   0  0  0  0  0  0  0  0  0  0  0  0
   16.3490   -4.5657    9.9638 H   0  0  0  0  0  0  0  0  0  0  0  0
   15.8744   -2.7676    8.3692 H   0  0  0  0  0  0  0  0  0  0  0  0
   17.1939   -3.4161    7.3372 H   0  0  0  0  0  0  0  0  0  0  0  0
   15.9742   -5.2788    6.6986 H   0  0  0  0  0  0  0  0  0  0  0  0
   14.9999   -5.2923    8.2077 H   0  0  0  0  0  0  0  0  0  0  0  0
   13.8671   -2.3791    5.4491 H   0  0  0  0  0  0  0  0  0  0  0  0
   15.6097   -2.6062    5.8211 H   0  0  0  0  0  0  0  0  0  0  0  0
   15.7951   -3.3587    3.7660 H   0  0  0  0  0  0  0  0  0  0  0  0
   16.0258   -5.5428    4.7704 H   0  0  0  0  0  0  0  0  0  0  0  0
   14.2488   -5.8019    4.7253 H   0  0  0  0  0  0  0  0  0  0  0  0
   16.2017   -5.6425    2.3957 H   0  0  0  0  0  0  0  0  0  0  0  0
   15.1552   -7.0176    2.8858 H   0  0  0  0  0  0  0  0  0  0  0  0
   14.4269   -5.6724    0.8303 H   0  0  0  0  0  0  0  0  0  0  0  0
   12.4061   -5.7997    3.1118 H   0  0  0  0  0  0  0  0  0  0  0  0
   13.6086   -7.6226    0.0477 H   0  0  0  0  0  0  0  0  0  0  0  0
   13.7026  -10.0820   -0.0910 H   0  0  0  0  0  0  0  0  0  0  0  0
   12.9846  -11.4569    1.8314 H   0  0  0  0  0  0  0  0  0  0  0  0
   12.0913  -10.3742    3.8648 H   0  0  0  0  0  0  0  0  0  0  0  0
   11.9413   -7.9077    3.9889 H   0  0  0  0  0  0  0  0  0  0  0  0
    9.9649   -4.3585   -0.3574 H   0  0  0  0  0  0  0  0  0  0  0  0
   10.0050   -2.0324   -1.1738 H   0  0  0  0  0  0  0  0  0  0  0  0
   13.6475   -1.3526    0.9677 H   0  0  0  0  0  0  0  0  0  0  0  0
   12.3329   -3.0567    2.0099 H   0  0  0  0  0  0  0  0  0  0  0  0
   14.9689   -3.4493    1.5812 H   0  0  0  0  0  0  0  0  0  0  0  0
   14.3728   -3.6227    9.3640 H   0  0  0  0  0  0  0  0  0  0  0  0
   12.8418   -2.1818   10.6692 H   0  0  0  0  0  0  0  0  0  0  0  0
   10.9932   -1.0705    9.5128 H   0  0  0  0  0  0  0  0  0  0  0  0
   10.3296   -1.7455    7.2365 H   0  0  0  0  0  0  0  0  0  0  0  0
   11.8694   -3.2354    5.9345 H   0  0  0  0  0  0  0  0  0  0  0  0
  1  2  1  0  0  0  0
  2  3  1  0  0  0  0
  3  4  1  0  0  0  0
  4  5  1  0  0  0  0
  4 30  1  0  0  0  0
  5  6  1  0  0  0  0
  6  7  1  0  0  0  0
  6 29  1  0  0  0  0
  7  8  1  0  0  0  0
  8  9  1  0  0  0  0
  9 10  1  0  0  0  0
  9 28  1  0  0  0  0
 10 11  1  0  0  0  0
 10 17  1  0  0  0  0
 11 12  2  0  0  0  0
 11 16  1  0  0  0  0
 12 13  1  0  0  0  0
 13 14  2  0  0  0  0
 14 15  1  0  0  0  0
 15 16  2  0  0  0  0
 17 18  2  0  0  0  0
 18 19  1  0  0  0  0
 18 27  1  0  0  0  0
 19 20  2  0  0  0  0
 20 21  1  0  0  0  0
 21 22  1  0  0  0  0
 21 26  2  0  0  0  0
 22 23  1  0  0  0  0
 22 24  1  0  0  0  0
 22 25  1  0  0  0  0
 26 27  1  0  0  0  0
 27 28  1  0  0  0  0
 28 29  1  0  0  0  0
 30 31  2  0  0  0  0
 30 35  1  0  0  0  0
 31 32  1  0  0  0  0
 32 33  2  0  0  0  0
 33 34  1  0  0  0  0
 34 35  2  0  0  0  0
  1 36  1  0  0  0  0
  1 37  1  0  0  0  0
  2 38  1  0  0  0  0
  2 39  1  0  0  0  0
  3 40  1  0  0  0  0
  3 41  1  0  0  0  0
  5 42  1  0  0  0  0
  5 43  1  0  0  0  0
  6 44  1  0  0  0  0
  7 45  1  0  0  0  0
  7 46  1  0  0  0  0
  8 47  1  0  0  0  0
  8 48  1  0  0  0  0
  9 49  1  0  0  0  0
 10 50  1  0  0  0  0
 12 51  1  0  0  0  0
 13 52  1  0  0  0  0
 14 53  1  0  0  0  0
 15 54  1  0  0  0  0
 16 55  1  0  0  0  0
 19 56  1  0  0  0  0
 20 57  1  0  0  0  0
 26 58  1  0  0  0  0
 27 59  1  0  0  0  0
 28 60  1  0  0  0  0
 31 61  1  0  0  0  0
 32 62  1  0  0  0  0
 33 63  1  0  0  0  0
 34 64  1  0  0  0  0
 35 65  1  0  0  0  0
M  END
> <ID>
CHEMBL1093087

> <IC50[nM]>
19

$$$$
CHEMBL1093087
  -OEChem-05192314313D
 Structure written by MMmdl.
 65 69  0     1  0  0  0  0  0999 V2000
   17.0595   -4.3278    9.3015 N   0  0  0  0  0  0  0  0  0  0  0  0
   16.4111   -3.6781    8.0642 C   0  0  0  0  0  0  0  0  0  0  0  0
   15.4283   -4.6540    7.4209 C   0  0  0  0  0  0  0  0  0  0  0  0
   14.3173   -3.9632    6.7098 N   0  0  0  0  0  0  0  0  0  0  0  0
   14.6711   -3.1205    5.5672 C   0  0  0  0  0  0  0  0  0  0  0  0
   14.8777   -3.7953    4.1876 C   0  0  1  0  0  0  0  0  0  0  0  0
   15.1008   -5.3295    4.2145 C   0  0  0  0  0  0  0  0  0  0  0  0
   15.2228   -5.9222    2.8121 C   0  0  0  0  0  0  0  0  0  0  0  0
   14.1174   -5.4218    1.8557 C   0  0  1  0  0  0  0  0  0  0  0  0
   12.7216   -6.0747    2.0945 C   0  0  2  0  0  0  0  0  0  0  0  0
   12.7729   -7.6008    2.0278 C   0  0  0  0  0  0  0  0  0  0  0  0
   13.2706   -8.2220    0.8801 C   0  0  0  0  0  0  0  0  0  0  0  0
   13.3326   -9.6058    0.8050 C   0  0  0  0  0  0  0  0  0  0  0  0
   12.9181  -10.3802    1.8839 C   0  0  0  0  0  0  0  0  0  0  0  0
   12.4178   -9.7705    3.0309 C   0  0  0  0  0  0  0  0  0  0  0  0
   12.3383   -8.3811    3.1031 C   0  0  0  0  0  0  0  0  0  0  0  0
   11.7413   -5.5300    1.1481 N   0  0  0  0  0  0  0  0  0  0  0  0
   11.8102   -4.1920    0.7296 C   0  0  0  0  0  0  0  0  0  0  0  0
   10.7818   -3.7078   -0.0824 C   0  0  0  0  0  0  0  0  0  0  0  0
   10.8015   -2.3932   -0.5399 C   0  0  0  0  0  0  0  0  0  0  0  0
   11.8482   -1.5380   -0.1822 C   0  0  0  0  0  0  0  0  0  0  0  0
   11.8927   -0.1087   -0.7182 C   0  0  0  0  0  0  0  0  0  0  0  0
   10.6612    0.3848   -0.9020 F   0  0  0  0  0  0  0  0  0  0  0  0
   12.5434    0.7151    0.1022 F   0  0  0  0  0  0  0  0  0  0  0  0
   12.5269   -0.1156   -1.8900 F   0  0  0  0  0  0  0  0  0  0  0  0
   12.8592   -2.0214    0.6553 C   0  0  0  0  0  0  0  0  0  0  0  0
   12.8763   -3.3505    1.0997 C   0  0  0  0  0  0  0  0  0  0  0  0
   14.0264   -3.8788    1.9517 C   0  0  1  0  0  0  0  0  0  0  0  0
   13.7985   -3.4740    3.3022 O   0  0  0  0  0  0  0  0  0  0  0  0
   13.3153   -3.3837    7.5227 C   0  0  0  0  0  0  0  0  0  0  0  0
   13.5260   -3.1620    8.8770 C   0  0  0  0  0  0  0  0  0  0  0  0
   12.6670   -2.3578    9.6181 C   0  0  0  0  0  0  0  0  0  0  0  0
   11.5921   -1.7940    8.9796 C   0  0  0  0  0  0  0  0  0  0  0  0
   11.2437   -2.1161    7.6763 C   0  0  0  0  0  0  0  0  0  0  0  0
   12.1204   -2.9427    6.9433 C   0  0  0  0  0  0  0  0  0  0  0  0
   17.7017   -3.6845    9.7184 H   0  0  0  0  0  0  0  0  0  0  0  0
   16.3490   -4.5657    9.9638 H   0  0  0  0  0  0  0  0  0  0  0  0
   15.8744   -2.7676    8.3692 H   0  0  0  0  0  0  0  0  0  0  0  0
   17.1939   -3.4161    7.3372 H   0  0  0  0  0  0  0  0  0  0  0  0
   15.9742   -5.2788    6.6986 H   0  0  0  0  0  0  0  0  0  0  0  0
   14.9999   -5.2923    8.2077 H   0  0  0  0  0  0  0  0  0  0  0  0
   13.8671   -2.3791    5.4491 H   0  0  0  0  0  0  0  0  0  0  0  0
   15.6097   -2.6062    5.8211 H   0  0  0  0  0  0  0  0  0  0  0  0
   15.7951   -3.3587    3.7660 H   0  0  0  0  0  0  0  0  0  0  0  0
   16.0258   -5.5428    4.7704 H   0  0  0  0  0  0  0  0  0  0  0  0
   14.2488   -5.8019    4.7253 H   0  0  0  0  0  0  0  0  0  0  0  0
   16.2017   -5.6425    2.3957 H   0  0  0  0  0  0  0  0  0  0  0  0
   15.1552   -7.0176    2.8858 H   0  0  0  0  0  0  0  0  0  0  0  0
   14.4269   -5.6724    0.8303 H   0  0  0  0  0  0  0  0  0  0  0  0
   12.4061   -5.7997    3.1118 H   0  0  0  0  0  0  0  0  0  0  0  0
   13.6086   -7.6226    0.0477 H   0  0  0  0  0  0  0  0  0  0  0  0
   13.7026  -10.0820   -0.0910 H   0  0  0  0  0  0  0  0  0  0  0  0
   12.9846  -11.4569    1.8314 H   0  0  0  0  0  0  0  0  0  0  0  0
   12.0913  -10.3742    3.8648 H   0  0  0  0  0  0  0  0  0  0  0  0
   11.9413   -7.9077    3.9889 H   0  0  0  0  0  0  0  0  0  0  0  0
   10.7550   -4.3513   -0.9741 H   0  0  0  0  0  0  0  0  0  0  0  0
    9.8479   -3.8296    0.4859 H   0  0  0  0  0  0  0  0  0  0  0  0
   10.0050   -2.0324   -1.1738 H   0  0  0  0  0  0  0  0  0  0  0  0
   13.6475   -1.3526    0.9677 H   0  0  0  0  0  0  0  0  0  0  0  0
   14.9689   -3.4493    1.5812 H   0  0  0  0  0  0  0  0  0  0  0  0
   14.3728   -3.6227    9.3640 H   0  0  0  0  0  0  0  0  0  0  0  0
   12.8418   -2.1818   10.6692 H   0  0  0  0  0  0  0  0  0  0  0  0
   10.9932   -1.0705    9.5128 H   0  0  0  0  0  0  0  0  0  0  0  0
   10.3296   -1.7455    7.2365 H   0  0  0  0  0  0  0  0  0  0  0  0
   11.8694   -3.2354    5.9345 H   0  0  0  0  0  0  0  0  0  0  0  0
  1  2  1  0  0  0  0
  2  3  1  0  0  0  0
  3  4  1  0  0  0  0
  4  5  1  0  0  0  0
  4 30  1  0  0  0  0
  5  6  1  0  0  0  0
  6  7  1  0  0  0  0
  6 29  1  0  0  0  0
  7  8  1  0  0  0  0
  8  9  1  0  0  0  0
  9 10  1  0  0  0  0
  9 28  1  0  0  0  0
 10 11  1  0  0  0  0
 10 17  1  0  0  0  0
 11 12  2  0  0  0  0
 11 16  1  0  0  0  0
 12 13  1  0  0  0  0
 13 14  2  0  0  0  0
 14 15  1  0  0  0  0
 15 16  2  0  0  0  0
 17 18  2  0  0  0  0
 18 19  1  0  0  0  0
 18 27  1  0  0  0  0
 19 20  1  0  0  0  0
 20 21  2  0  0  0  0
 21 22  1  0  0  0  0
 21 26  1  0  0  0  0
 22 23  1  0  0  0  0
 22 24  1  0  0  0  0
 22 25  1  0  0  0  0
 26 27  2  0  0  0  0
 27 28  1  0  0  0  0
 28 29  1  0  0  0  0
 30 31  2  0  0  0  0
 30 35  1  0  0  0  0
 31 32  1  0  0  0  0
 32 33  2  0  0  0  0
 33 34  1  0  0  0  0
 34 35  2  0  0  0  0
  1 36  1  0  0  0  0
  1 37  1  0  0  0  0
  2 38  1  0  0  0  0
  2 39  1  0  0  0  0
  3 40  1  0  0  0  0
  3 41  1  0  0  0  0
  5 42  1  0  0  0  0
  5 43  1  0  0  0  0
  6 44  1  0  0  0  0
  7 45  1  0  0  0  0
  7 46  1  0  0  0  0
  8 47  1  0  0  0  0
  8 48  1  0  0  0  0
  9 49  1  0  0  0  0
 10 50  1  0  0  0  0
 12 51  1  0  0  0  0
 13 52  1  0  0  0  0
 14 53  1  0  0  0  0
 15 54  1  0  0  0  0
 16 55  1  0  0  0  0
 19 56  1  0  0  0  0
 19 57  1  0  0  0  0
 20 58  1  0  0  0  0
 26 59  1  0  0  0  0
 28 60  1  0  0  0  0
 31 61  1  0  0  0  0
 32 62  1  0  0  0  0
 33 63  1  0  0  0  0
 34 64  1  0  0  0  0
 35 65  1  0  0  0  0
M  END
> <ID>
CHEMBL1093087

> <IC50[nM]>
19

$$$$
