CHEMBL1084677
  -OEChem-05192314313D
 Structure written by MMmdl.
 61 64  0     1  0  0  0  0  0999 V2000
   16.1912   -7.7412   11.8466 C   0  0  0  0  0  0  0  0  0  0  0  0
   15.1910   -6.9123   11.0170 N   0  0  0  0  0  0  0  0  0  0  0  0
   15.9171   -5.9921   10.0050 C   0  0  0  0  0  0  0  0  0  0  0  0
   14.8572   -5.3740    9.0989 C   0  0  0  0  0  0  0  0  0  0  0  0
   15.6866   -4.1881    7.8512 S   0  0  0  0  0  0  0  0  0  0  0  0
   15.9605   -2.8994    8.4965 O   0  0  0  0  0  0  0  0  0  0  0  0
   16.7692   -4.9053    7.1723 O   0  0  0  0  0  0  0  0  0  0  0  0
   14.3931   -3.9357    6.7113 N   0  0  0  0  0  0  0  0  0  0  0  0
   14.7292   -3.0772    5.5493 C   0  0  0  0  0  0  0  0  0  0  0  0
   14.9090   -3.7899    4.1939 C   0  0  1  0  0  0  0  0  0  0  0  0
   15.0802   -5.3264    4.2516 C   0  0  0  0  0  0  0  0  0  0  0  0
   15.2184   -5.9103    2.8356 C   0  0  0  0  0  0  0  0  0  0  0  0
   14.1038   -5.4145    1.8827 C   0  0  1  0  0  0  0  0  0  0  0  0
   12.7108   -6.0690    2.1214 C   0  0  2  0  0  0  0  0  0  0  0  0
   12.7593   -7.5926    2.0373 C   0  0  0  0  0  0  0  0  0  0  0  0
   12.3256   -8.3763    3.1078 C   0  0  0  0  0  0  0  0  0  0  0  0
   12.4034   -9.7655    3.0228 C   0  0  0  0  0  0  0  0  0  0  0  0
   12.9076  -10.3673    1.8725 C   0  0  0  0  0  0  0  0  0  0  0  0
   13.3297   -9.5928    0.7978 C   0  0  0  0  0  0  0  0  0  0  0  0
   13.2528   -8.2067    0.8813 C   0  0  0  0  0  0  0  0  0  0  0  0
   11.7374   -5.5233    1.1763 N   0  0  0  0  0  0  0  0  0  0  0  0
   11.7936   -4.1831    0.7614 C   0  0  0  0  0  0  0  0  0  0  0  0
   10.7743   -3.7096   -0.0570 C   0  0  0  0  0  0  0  0  0  0  0  0
   10.8089   -2.4050   -0.5396 C   0  0  0  0  0  0  0  0  0  0  0  0
   11.8578   -1.5536   -0.1865 C   0  0  0  0  0  0  0  0  0  0  0  0
   11.9038   -0.1354   -0.7457 C   0  0  0  0  0  0  0  0  0  0  0  0
   10.6704    0.3354   -0.9312 F   0  0  0  0  0  0  0  0  0  0  0  0
   12.5538    0.6943    0.0706 F   0  0  0  0  0  0  0  0  0  0  0  0
   12.5323   -0.1555   -1.9215 F   0  0  0  0  0  0  0  0  0  0  0  0
   12.8594   -2.0221    0.6688 C   0  0  0  0  0  0  0  0  0  0  0  0
   12.8662   -3.3440    1.1312 C   0  0  0  0  0  0  0  0  0  0  0  0
   14.0156   -3.8719    1.9779 C   0  0  1  0  0  0  0  0  0  0  0  0
   13.8095   -3.4697    3.3345 O   0  0  0  0  0  0  0  0  0  0  0  0
   15.6413   -8.3810   12.5525 H   0  0  0  0  0  0  0  0  0  0  0  0
   16.7927   -8.3702   11.1739 H   0  0  0  0  0  0  0  0  0  0  0  0
   16.8538   -7.0639   12.4054 H   0  0  0  0  0  0  0  0  0  0  0  0
   14.5897   -7.5350   10.5164 H   0  0  0  0  0  0  0  0  0  0  0  0
   16.4601   -5.1999   10.5413 H   0  0  0  0  0  0  0  0  0  0  0  0
   16.6263   -6.5810    9.4048 H   0  0  0  0  0  0  0  0  0  0  0  0
   14.3335   -6.1719    8.5520 H   0  0  0  0  0  0  0  0  0  0  0  0
   14.1349   -4.8138    9.7108 H   0  0  0  0  0  0  0  0  0  0  0  0
   14.1096   -4.8293    6.3632 H   0  0  0  0  0  0  0  0  0  0  0  0
   13.9210   -2.3400    5.4341 H   0  0  0  0  0  0  0  0  0  0  0  0
   15.6703   -2.5566    5.7801 H   0  0  0  0  0  0  0  0  0  0  0  0
   15.8264   -3.3856    3.7413 H   0  0  0  0  0  0  0  0  0  0  0  0
   15.9831   -5.5678    4.8317 H   0  0  0  0  0  0  0  0  0  0  0  0
   14.2005   -5.7698    4.7410 H   0  0  0  0  0  0  0  0  0  0  0  0
   16.1939   -5.6121    2.4239 H   0  0  0  0  0  0  0  0  0  0  0  0
   15.1671   -7.0073    2.8990 H   0  0  0  0  0  0  0  0  0  0  0  0
   14.4118   -5.6644    0.8567 H   0  0  0  0  0  0  0  0  0  0  0  0
   12.3943   -5.8013    3.1403 H   0  0  0  0  0  0  0  0  0  0  0  0
   11.9315   -7.9085    3.9979 H   0  0  0  0  0  0  0  0  0  0  0  0
   12.0723  -10.3759    3.8500 H   0  0  0  0  0  0  0  0  0  0  0  0
   12.9712  -11.4439    1.8148 H   0  0  0  0  0  0  0  0  0  0  0  0
   13.7142  -10.0638   -0.0948 H   0  0  0  0  0  0  0  0  0  0  0  0
   13.5762   -7.6004    0.0481 H   0  0  0  0  0  0  0  0  0  0  0  0
   11.8058   -6.0789    0.3476 H   0  0  0  0  0  0  0  0  0  0  0  0
    9.9513   -4.3578   -0.3195 H   0  0  0  0  0  0  0  0  0  0  0  0
   10.0224   -2.0500   -1.1890 H   0  0  0  0  0  0  0  0  0  0  0  0
   13.6453   -1.3498    0.9798 H   0  0  0  0  0  0  0  0  0  0  0  0
   14.9568   -3.4468    1.5992 H   0  0  0  0  0  0  0  0  0  0  0  0
  1  2  1  0  0  0  0
  2  3  1  0  0  0  0
  3  4  1  0  0  0  0
  4  5  1  0  0  0  0
  5  6  2  0  0  0  0
  5  7  2  0  0  0  0
  5  8  1  0  0  0  0
  8  9  1  0  0  0  0
  9 10  1  0  0  0  0
 10 11  1  0  0  0  0
 10 33  1  0  0  0  0
 11 12  1  0  0  0  0
 12 13  1  0  0  0  0
 13 14  1  0  0  0  0
 13 32  1  0  0  0  0
 14 15  1  0  0  0  0
 14 21  1  0  0  0  0
 15 16  2  0  0  0  0
 15 20  1  0  0  0  0
 16 17  1  0  0  0  0
 17 18  2  0  0  0  0
 18 19  1  0  0  0  0
 19 20  2  0  0  0  0
 21 22  1  0  0  0  0
 22 23  2  0  0  0  0
 22 31  1  0  0  0  0
 23 24  1  0  0  0  0
 24 25  2  0  0  0  0
 25 26  1  0  0  0  0
 25 30  1  0  0  0  0
 26 27  1  0  0  0  0
 26 28  1  0  0  0  0
 26 29  1  0  0  0  0
 30 31  2  0  0  0  0
 31 32  1  0  0  0  0
 32 33  1  0  0  0  0
  1 34  1  0  0  0  0
  1 35  1  0  0  0  0
  1 36  1  0  0  0  0
  2 37  1  0  0  0  0
  3 38  1  0  0  0  0
  3 39  1  0  0  0  0
  4 40  1  0  0  0  0
  4 41  1  0  0  0  0
  8 42  1  0  0  0  0
  9 43  1  0  0  0  0
  9 44  1  0  0  0  0
 10 45  1  0  0  0  0
 11 46  1  0  0  0  0
 11 47  1  0  0  0  0
 12 48  1  0  0  0  0
 12 49  1  0  0  0  0
 13 50  1  0  0  0  0
 14 51  1  0  0  0  0
 16 52  1  0  0  0  0
 17 53  1  0  0  0  0
 18 54  1  0  0  0  0
 19 55  1  0  0  0  0
 20 56  1  0  0  0  0
 21 57  1  0  0  0  0
 23 58  1  0  0  0  0
 24 59  1  0  0  0  0
 30 60  1  0  0  0  0
 32 61  1  0  0  0  0
M  END
> <ID>
CHEMBL1084677

> <IC50[nM]>
4

$$$$
CHEMBL1084677
  -OEChem-05192314313D
 Structure written by MMmdl.
 61 64  0     1  0  0  0  0  0999 V2000
   16.1912   -7.7412   11.8466 C   0  0  0  0  0  0  0  0  0  0  0  0
   15.1910   -6.9123   11.0170 N   0  0  0  0  0  0  0  0  0  0  0  0
   15.9171   -5.9921   10.0050 C   0  0  0  0  0  0  0  0  0  0  0  0
   14.8572   -5.3740    9.0989 C   0  0  0  0  0  0  0  0  0  0  0  0
   15.6866   -4.1881    7.8512 S   0  0  0  0  0  0  0  0  0  0  0  0
   15.9605   -2.8994    8.4965 O   0  0  0  0  0  0  0  0  0  0  0  0
   16.7692   -4.9053    7.1723 O   0  0  0  0  0  0  0  0  0  0  0  0
   14.3931   -3.9357    6.7113 N   0  0  0  0  0  0  0  0  0  0  0  0
   14.7292   -3.0772    5.5493 C   0  0  0  0  0  0  0  0  0  0  0  0
   14.9090   -3.7899    4.1939 C   0  0  1  0  0  0  0  0  0  0  0  0
   15.0802   -5.3264    4.2516 C   0  0  0  0  0  0  0  0  0  0  0  0
   15.2184   -5.9103    2.8356 C   0  0  0  0  0  0  0  0  0  0  0  0
   14.1038   -5.4145    1.8827 C   0  0  1  0  0  0  0  0  0  0  0  0
   12.7108   -6.0690    2.1214 C   0  0  2  0  0  0  0  0  0  0  0  0
   12.7593   -7.5926    2.0373 C   0  0  0  0  0  0  0  0  0  0  0  0
   12.3256   -8.3763    3.1078 C   0  0  0  0  0  0  0  0  0  0  0  0
   12.4034   -9.7655    3.0228 C   0  0  0  0  0  0  0  0  0  0  0  0
   12.9076  -10.3673    1.8725 C   0  0  0  0  0  0  0  0  0  0  0  0
   13.3297   -9.5928    0.7978 C   0  0  0  0  0  0  0  0  0  0  0  0
   13.2528   -8.2067    0.8813 C   0  0  0  0  0  0  0  0  0  0  0  0
   11.7374   -5.5233    1.1763 N   0  0  0  0  0  0  0  0  0  0  0  0
   11.7936   -4.1831    0.7614 C   0  0  0  0  0  0  0  0  0  0  0  0
   10.7743   -3.7096   -0.0570 C   0  0  0  0  0  0  0  0  0  0  0  0
   10.8089   -2.4050   -0.5396 C   0  0  0  0  0  0  0  0  0  0  0  0
   11.8578   -1.5536   -0.1865 C   0  0  0  0  0  0  0  0  0  0  0  0
   11.9038   -0.1354   -0.7457 C   0  0  0  0  0  0  0  0  0  0  0  0
   10.6704    0.3354   -0.9312 F   0  0  0  0  0  0  0  0  0  0  0  0
   12.5538    0.6943    0.0706 F   0  0  0  0  0  0  0  0  0  0  0  0
   12.5323   -0.1555   -1.9215 F   0  0  0  0  0  0  0  0  0  0  0  0
   12.8594   -2.0221    0.6688 C   0  0  0  0  0  0  0  0  0  0  0  0
   12.8662   -3.3440    1.1312 C   0  0  0  0  0  0  0  0  0  0  0  0
   14.0156   -3.8719    1.9779 C   0  0  1  0  0  0  0  0  0  0  0  0
   13.8095   -3.4697    3.3345 O   0  0  0  0  0  0  0  0  0  0  0  0
   15.6413   -8.3810   12.5525 H   0  0  0  0  0  0  0  0  0  0  0  0
   16.7927   -8.3702   11.1739 H   0  0  0  0  0  0  0  0  0  0  0  0
   16.8538   -7.0639   12.4054 H   0  0  0  0  0  0  0  0  0  0  0  0
   14.5897   -7.5350   10.5164 H   0  0  0  0  0  0  0  0  0  0  0  0
   16.4601   -5.1999   10.5413 H   0  0  0  0  0  0  0  0  0  0  0  0
   16.6263   -6.5810    9.4048 H   0  0  0  0  0  0  0  0  0  0  0  0
   14.3335   -6.1719    8.5520 H   0  0  0  0  0  0  0  0  0  0  0  0
   14.1349   -4.8138    9.7108 H   0  0  0  0  0  0  0  0  0  0  0  0
   14.1096   -4.8293    6.3632 H   0  0  0  0  0  0  0  0  0  0  0  0
   13.9210   -2.3400    5.4341 H   0  0  0  0  0  0  0  0  0  0  0  0
   15.6703   -2.5566    5.7801 H   0  0  0  0  0  0  0  0  0  0  0  0
   15.8264   -3.3856    3.7413 H   0  0  0  0  0  0  0  0  0  0  0  0
   15.9831   -5.5678    4.8317 H   0  0  0  0  0  0  0  0  0  0  0  0
   14.2005   -5.7698    4.7410 H   0  0  0  0  0  0  0  0  0  0  0  0
   16.1939   -5.6121    2.4239 H   0  0  0  0  0  0  0  0  0  0  0  0
   15.1671   -7.0073    2.8990 H   0  0  0  0  0  0  0  0  0  0  0  0
   14.4118   -5.6644    0.8567 H   0  0  0  0  0  0  0  0  0  0  0  0
   12.3943   -5.8013    3.1403 H   0  0  0  0  0  0  0  0  0  0  0  0
   11.9315   -7.9085    3.9979 H   0  0  0  0  0  0  0  0  0  0  0  0
   12.0723  -10.3759    3.8500 H   0  0  0  0  0  0  0  0  0  0  0  0
   12.9712  -11.4439    1.8148 H   0  0  0  0  0  0  0  0  0  0  0  0
   13.7142  -10.0638   -0.0948 H   0  0  0  0  0  0  0  0  0  0  0  0
   13.5762   -7.6004    0.0481 H   0  0  0  0  0  0  0  0  0  0  0  0
    9.9513   -4.3578   -0.3195 H   0  0  0  0  0  0  0  0  0  0  0  0
   10.0224   -2.0500   -1.1890 H   0  0  0  0  0  0  0  0  0  0  0  0
   11.2809   -1.1966    0.6794 H   0  0  0  0  0  0  0  0  0  0  0  0
   13.6453   -1.3498    0.9798 H   0  0  0  0  0  0  0  0  0  0  0  0
   14.9568   -3.4468    1.5992 H   0  0  0  0  0  0  0  0  0  0  0  0
  1  2  1  0  0  0  0
  2  3  1  0  0  0  0
  3  4  1  0  0  0  0
  4  5  1  0  0  0  0
  5  6  2  0  0  0  0
  5  7  2  0  0  0  0
  5  8  1  0  0  0  0
  8  9  1  0  0  0  0
  9 10  1  0  0  0  0
 10 11  1  0  0  0  0
 10 33  1  0  0  0  0
 11 12  1  0  0  0  0
 12 13  1  0  0  0  0
 13 14  1  0  0  0  0
 13 32  1  0  0  0  0
 14 15  1  0  0  0  0
 14 21  1  0  0  0  0
 15 16  2  0  0  0  0
 15 20  1  0  0  0  0
 16 17  1  0  0  0  0
 17 18  2  0  0  0  0
 18 19  1  0  0  0  0
 19 20  2  0  0  0  0
 21 22  2  0  0  0  0
 22 23  1  0  0  0  0
 22 31  1  0  0  0  0
 23 24  2  0  0  0  0
 24 25  1  0  0  0  0
 25 26  1  0  0  0  0
 25 30  1  0  0  0  0
 26 27  1  0  0  0  0
 26 28  1  0  0  0  0
 26 29  1  0  0  0  0
 30 31  2  0  0  0  0
 31 32  1  0  0  0  0
 32 33  1  0  0  0  0
  1 34  1  0  0  0  0
  1 35  1  0  0  0  0
  1 36  1  0  0  0  0
  2 37  1  0  0  0  0
  3 38  1  0  0  0  0
  3 39  1  0  0  0  0
  4 40  1  0  0  0  0
  4 41  1  0  0  0  0
  8 42  1  0  0  0  0
  9 43  1  0  0  0  0
  9 44  1  0  0  0  0
 10 45  1  0  0  0  0
 11 46  1  0  0  0  0
 11 47  1  0  0  0  0
 12 48  1  0  0  0  0
 12 49  1  0  0  0  0
 13 50  1  0  0  0  0
 14 51  1  0  0  0  0
 16 52  1  0  0  0  0
 17 53  1  0  0  0  0
 18 54  1  0  0  0  0
 19 55  1  0  0  0  0
 20 56  1  0  0  0  0
 23 57  1  0  0  0  0
 24 58  1  0  0  0  0
 25 59  1  0  0  0  0
 30 60  1  0  0  0  0
 32 61  1  0  0  0  0
M  END
> <ID>
CHEMBL1084677

> <IC50[nM]>
4

$$$$
CHEMBL1084677
  -OEChem-05192314313D
 Structure written by MMmdl.
 61 64  0     1  0  0  0  0  0999 V2000
   16.1912   -7.7412   11.8466 C   0  0  0  0  0  0  0  0  0  0  0  0
   15.1910   -6.9123   11.0170 N   0  0  0  0  0  0  0  0  0  0  0  0
   15.9171   -5.9921   10.0050 C   0  0  0  0  0  0  0  0  0  0  0  0
   14.8572   -5.3740    9.0989 C   0  0  0  0  0  0  0  0  0  0  0  0
   15.6866   -4.1881    7.8512 S   0  0  0  0  0  0  0  0  0  0  0  0
   15.9605   -2.8994    8.4965 O   0  0  0  0  0  0  0  0  0  0  0  0
   16.7692   -4.9053    7.1723 O   0  0  0  0  0  0  0  0  0  0  0  0
   14.3931   -3.9357    6.7113 N   0  0  0  0  0  0  0  0  0  0  0  0
   14.7292   -3.0772    5.5493 C   0  0  0  0  0  0  0  0  0  0  0  0
   14.9090   -3.7899    4.1939 C   0  0  1  0  0  0  0  0  0  0  0  0
   15.0802   -5.3264    4.2516 C   0  0  0  0  0  0  0  0  0  0  0  0
   15.2184   -5.9103    2.8356 C   0  0  0  0  0  0  0  0  0  0  0  0
   14.1038   -5.4145    1.8827 C   0  0  1  0  0  0  0  0  0  0  0  0
   12.7108   -6.0690    2.1214 C   0  0  2  0  0  0  0  0  0  0  0  0
   12.7593   -7.5926    2.0373 C   0  0  0  0  0  0  0  0  0  0  0  0
   12.3256   -8.3763    3.1078 C   0  0  0  0  0  0  0  0  0  0  0  0
   12.4034   -9.7655    3.0228 C   0  0  0  0  0  0  0  0  0  0  0  0
   12.9076  -10.3673    1.8725 C   0  0  0  0  0  0  0  0  0  0  0  0
   13.3297   -9.5928    0.7978 C   0  0  0  0  0  0  0  0  0  0  0  0
   13.2528   -8.2067    0.8813 C   0  0  0  0  0  0  0  0  0  0  0  0
   11.7374   -5.5233    1.1763 N   0  0  0  0  0  0  0  0  0  0  0  0
   11.7936   -4.1831    0.7614 C   0  0  0  0  0  0  0  0  0  0  0  0
   10.7743   -3.7096   -0.0570 C   0  0  0  0  0  0  0  0  0  0  0  0
   10.8089   -2.4050   -0.5396 C   0  0  0  0  0  0  0  0  0  0  0  0
   11.8578   -1.5536   -0.1865 C   0  0  0  0  0  0  0  0  0  0  0  0
   11.9038   -0.1354   -0.7457 C   0  0  0  0  0  0  0  0  0  0  0  0
   10.6704    0.3354   -0.9312 F   0  0  0  0  0  0  0  0  0  0  0  0
   12.5538    0.6943    0.0706 F   0  0  0  0  0  0  0  0  0  0  0  0
   12.5323   -0.1555   -1.9215 F   0  0  0  0  0  0  0  0  0  0  0  0
   12.8594   -2.0221    0.6688 C   0  0  0  0  0  0  0  0  0  0  0  0
   12.8662   -3.3440    1.1312 C   0  0  0  0  0  0  0  0  0  0  0  0
   14.0156   -3.8719    1.9779 C   0  0  1  0  0  0  0  0  0  0  0  0
   13.8095   -3.4697    3.3345 O   0  0  0  0  0  0  0  0  0  0  0  0
   15.6413   -8.3810   12.5525 H   0  0  0  0  0  0  0  0  0  0  0  0
   16.7927   -8.3702   11.1739 H   0  0  0  0  0  0  0  0  0  0  0  0
   16.8538   -7.0639   12.4054 H   0  0  0  0  0  0  0  0  0  0  0  0
   14.5897   -7.5350   10.5164 H   0  0  0  0  0  0  0  0  0  0  0  0
   16.4601   -5.1999   10.5413 H   0  0  0  0  0  0  0  0  0  0  0  0
   16.6263   -6.5810    9.4048 H   0  0  0  0  0  0  0  0  0  0  0  0
   14.3335   -6.1719    8.5520 H   0  0  0  0  0  0  0  0  0  0  0  0
   14.1349   -4.8138    9.7108 H   0  0  0  0  0  0  0  0  0  0  0  0
   14.1096   -4.8293    6.3632 H   0  0  0  0  0  0  0  0  0  0  0  0
   13.9210   -2.3400    5.4341 H   0  0  0  0  0  0  0  0  0  0  0  0
   15.6703   -2.5566    5.7801 H   0  0  0  0  0  0  0  0  0  0  0  0
   15.8264   -3.3856    3.7413 H   0  0  0  0  0  0  0  0  0  0  0  0
   15.9831   -5.5678    4.8317 H   0  0  0  0  0  0  0  0  0  0  0  0
   14.2005   -5.7698    4.7410 H   0  0  0  0  0  0  0  0  0  0  0  0
   16.1939   -5.6121    2.4239 H   0  0  0  0  0  0  0  0  0  0  0  0
   15.1671   -7.0073    2.8990 H   0  0  0  0  0  0  0  0  0  0  0  0
   14.4118   -5.6644    0.8567 H   0  0  0  0  0  0  0  0  0  0  0  0
   12.3943   -5.8013    3.1403 H   0  0  0  0  0  0  0  0  0  0  0  0
   11.9315   -7.9085    3.9979 H   0  0  0  0  0  0  0  0  0  0  0  0
   12.0723  -10.3759    3.8500 H   0  0  0  0  0  0  0  0  0  0  0  0
   12.9712  -11.4439    1.8148 H   0  0  0  0  0  0  0  0  0  0  0  0
   13.7142  -10.0638   -0.0948 H   0  0  0  0  0  0  0  0  0  0  0  0
   13.5762   -7.6004    0.0481 H   0  0  0  0  0  0  0  0  0  0  0  0
    9.9513   -4.3578   -0.3195 H   0  0  0  0  0  0  0  0  0  0  0  0
   10.0224   -2.0500   -1.1890 H   0  0  0  0  0  0  0  0  0  0  0  0
   13.6453   -1.3498    0.9798 H   0  0  0  0  0  0  0  0  0  0  0  0
   12.3261   -3.0387    2.0396 H   0  0  0  0  0  0  0  0  0  0  0  0
   14.9568   -3.4468    1.5992 H   0  0  0  0  0  0  0  0  0  0  0  0
  1  2  1  0  0  0  0
  2  3  1  0  0  0  0
  3  4  1  0  0  0  0
  4  5  1  0  0  0  0
  5  6  2  0  0  0  0
  5  7  2  0  0  0  0
  5  8  1  0  0  0  0
  8  9  1  0  0  0  0
  9 10  1  0  0  0  0
 10 11  1  0  0  0  0
 10 33  1  0  0  0  0
 11 12  1  0  0  0  0
 12 13  1  0  0  0  0
 13 14  1  0  0  0  0
 13 32  1  0  0  0  0
 14 15  1  0  0  0  0
 14 21  1  0  0  0  0
 15 16  2  0  0  0  0
 15 20  1  0  0  0  0
 16 17  1  0  0  0  0
 17 18  2  0  0  0  0
 18 19  1  0  0  0  0
 19 20  2  0  0  0  0
 21 22  2  0  0  0  0
 22 23  1  0  0  0  0
 22 31  1  0  0  0  0
 23 24  2  0  0  0  0
 24 25  1  0  0  0  0
 25 26  1  0  0  0  0
 25 30  2  0  0  0  0
 26 27  1  0  0  0  0
 26 28  1  0  0  0  0
 26 29  1  0  0  0  0
 30 31  1  0  0  0  0
 31 32  1  0  0  0  0
 32 33  1  0  0  0  0
  1 34  1  0  0  0  0
  1 35  1  0  0  0  0
  1 36  1  0  0  0  0
  2 37  1  0  0  0  0
  3 38  1  0  0  0  0
  3 39  1  0  0  0  0
  4 40  1  0  0  0  0
  4 41  1  0  0  0  0
  8 42  1  0  0  0  0
  9 43  1  0  0  0  0
  9 44  1  0  0  0  0
 10 45  1  0  0  0  0
 11 46  1  0  0  0  0
 11 47  1  0  0  0  0
 12 48  1  0  0  0  0
 12 49  1  0  0  0  0
 13 50  1  0  0  0  0
 14 51  1  0  0  0  0
 16 52  1  0  0  0  0
 17 53  1  0  0  0  0
 18 54  1  0  0  0  0
 19 55  1  0  0  0  0
 20 56  1  0  0  0  0
 23 57  1  0  0  0  0
 24 58  1  0  0  0  0
 30 59  1  0  0  0  0
 31 60  1  0  0  0  0
 32 61  1  0  0  0  0
M  END
> <ID>
CHEMBL1084677

> <IC50[nM]>
4

$$$$
CHEMBL1084677
  -OEChem-05192314313D
 Structure written by MMmdl.
 61 64  0     1  0  0  0  0  0999 V2000
   16.1912   -7.7412   11.8466 C   0  0  0  0  0  0  0  0  0  0  0  0
   15.1910   -6.9123   11.0170 N   0  0  0  0  0  0  0  0  0  0  0  0
   15.9171   -5.9921   10.0050 C   0  0  0  0  0  0  0  0  0  0  0  0
   14.8572   -5.3740    9.0989 C   0  0  0  0  0  0  0  0  0  0  0  0
   15.6866   -4.1881    7.8512 S   0  0  0  0  0  0  0  0  0  0  0  0
   15.9605   -2.8994    8.4965 O   0  0  0  0  0  0  0  0  0  0  0  0
   16.7692   -4.9053    7.1723 O   0  0  0  0  0  0  0  0  0  0  0  0
   14.3931   -3.9357    6.7113 N   0  0  0  0  0  0  0  0  0  0  0  0
   14.7292   -3.0772    5.5493 C   0  0  0  0  0  0  0  0  0  0  0  0
   14.9090   -3.7899    4.1939 C   0  0  1  0  0  0  0  0  0  0  0  0
   15.0802   -5.3264    4.2516 C   0  0  0  0  0  0  0  0  0  0  0  0
   15.2184   -5.9103    2.8356 C   0  0  0  0  0  0  0  0  0  0  0  0
   14.1038   -5.4145    1.8827 C   0  0  1  0  0  0  0  0  0  0  0  0
   12.7108   -6.0690    2.1214 C   0  0  2  0  0  0  0  0  0  0  0  0
   12.7593   -7.5926    2.0373 C   0  0  0  0  0  0  0  0  0  0  0  0
   12.3256   -8.3763    3.1078 C   0  0  0  0  0  0  0  0  0  0  0  0
   12.4034   -9.7655    3.0228 C   0  0  0  0  0  0  0  0  0  0  0  0
   12.9076  -10.3673    1.8725 C   0  0  0  0  0  0  0  0  0  0  0  0
   13.3297   -9.5928    0.7978 C   0  0  0  0  0  0  0  0  0  0  0  0
   13.2528   -8.2067    0.8813 C   0  0  0  0  0  0  0  0  0  0  0  0
   11.7374   -5.5233    1.1763 N   0  0  0  0  0  0  0  0  0  0  0  0
   11.7936   -4.1831    0.7614 C   0  0  0  0  0  0  0  0  0  0  0  0
   10.7743   -3.7096   -0.0570 C   0  0  0  0  0  0  0  0  0  0  0  0
   10.8089   -2.4050   -0.5396 C   0  0  0  0  0  0  0  0  0  0  0  0
   11.8578   -1.5536   -0.1865 C   0  0  0  0  0  0  0  0  0  0  0  0
   11.9038   -0.1354   -0.7457 C   0  0  0  0  0  0  0  0  0  0  0  0
   10.6704    0.3354   -0.9312 F   0  0  0  0  0  0  0  0  0  0  0  0
   12.5538    0.6943    0.0706 F   0  0  0  0  0  0  0  0  0  0  0  0
   12.5323   -0.1555   -1.9215 F   0  0  0  0  0  0  0  0  0  0  0  0
   12.8594   -2.0221    0.6688 C   0  0  0  0  0  0  0  0  0  0  0  0
   12.8662   -3.3440    1.1312 C   0  0  0  0  0  0  0  0  0  0  0  0
   14.0156   -3.8719    1.9779 C   0  0  1  0  0  0  0  0  0  0  0  0
   13.8095   -3.4697    3.3345 O   0  0  0  0  0  0  0  0  0  0  0  0
   15.6413   -8.3810   12.5525 H   0  0  0  0  0  0  0  0  0  0  0  0
   16.7927   -8.3702   11.1739 H   0  0  0  0  0  0  0  0  0  0  0  0
   16.8538   -7.0639   12.4054 H   0  0  0  0  0  0  0  0  0  0  0  0
   14.5897   -7.5350   10.5164 H   0  0  0  0  0  0  0  0  0  0  0  0
   16.4601   -5.1999   10.5413 H   0  0  0  0  0  0  0  0  0  0  0  0
   16.6263   -6.5810    9.4048 H   0  0  0  0  0  0  0  0  0  0  0  0
   14.3335   -6.1719    8.5520 H   0  0  0  0  0  0  0  0  0  0  0  0
   14.1349   -4.8138    9.7108 H   0  0  0  0  0  0  0  0  0  0  0  0
   14.1096   -4.8293    6.3632 H   0  0  0  0  0  0  0  0  0  0  0  0
   13.9210   -2.3400    5.4341 H   0  0  0  0  0  0  0  0  0  0  0  0
   15.6703   -2.5566    5.7801 H   0  0  0  0  0  0  0  0  0  0  0  0
   15.8264   -3.3856    3.7413 H   0  0  0  0  0  0  0  0  0  0  0  0
   15.9831   -5.5678    4.8317 H   0  0  0  0  0  0  0  0  0  0  0  0
   14.2005   -5.7698    4.7410 H   0  0  0  0  0  0  0  0  0  0  0  0
   16.1939   -5.6121    2.4239 H   0  0  0  0  0  0  0  0  0  0  0  0
   15.1671   -7.0073    2.8990 H   0  0  0  0  0  0  0  0  0  0  0  0
   14.4118   -5.6644    0.8567 H   0  0  0  0  0  0  0  0  0  0  0  0
   12.3943   -5.8013    3.1403 H   0  0  0  0  0  0  0  0  0  0  0  0
   11.9315   -7.9085    3.9979 H   0  0  0  0  0  0  0  0  0  0  0  0
   12.0723  -10.3759    3.8500 H   0  0  0  0  0  0  0  0  0  0  0  0
   12.9712  -11.4439    1.8148 H   0  0  0  0  0  0  0  0  0  0  0  0
   13.7142  -10.0638   -0.0948 H   0  0  0  0  0  0  0  0  0  0  0  0
   13.5762   -7.6004    0.0481 H   0  0  0  0  0  0  0  0  0  0  0  0
   10.7418   -4.3706   -0.9356 H   0  0  0  0  0  0  0  0  0  0  0  0
    9.8389   -3.8109    0.5128 H   0  0  0  0  0  0  0  0  0  0  0  0
   10.0224   -2.0500   -1.1890 H   0  0  0  0  0  0  0  0  0  0  0  0
   13.6453   -1.3498    0.9798 H   0  0  0  0  0  0  0  0  0  0  0  0
   14.9568   -3.4468    1.5992 H   0  0  0  0  0  0  0  0  0  0  0  0
  1  2  1  0  0  0  0
  2  3  1  0  0  0  0
  3  4  1  0  0  0  0
  4  5  1  0  0  0  0
  5  6  2  0  0  0  0
  5  7  2  0  0  0  0
  5  8  1  0  0  0  0
  8  9  1  0  0  0  0
  9 10  1  0  0  0  0
 10 11  1  0  0  0  0
 10 33  1  0  0  0  0
 11 12  1  0  0  0  0
 12 13  1  0  0  0  0
 13 14  1  0  0  0  0
 13 32  1  0  0  0  0
 14 15  1  0  0  0  0
 14 21  1  0  0  0  0
 15 16  2  0  0  0  0
 15 20  1  0  0  0  0
 16 17  1  0  0  0  0
 17 18  2  0  0  0  0
 18 19  1  0  0  0  0
 19 20  2  0  0  0  0
 21 22  2  0  0  0  0
 22 23  1  0  0  0  0
 22 31  1  0  0  0  0
 23 24  1  0  0  0  0
 24 25  2  0  0  0  0
 25 26  1  0  0  0  0
 25 30  1  0  0  0  0
 26 27  1  0  0  0  0
 26 28  1  0  0  0  0
 26 29  1  0  0  0  0
 30 31  2  0  0  0  0
 31 32  1  0  0  0  0
 32 33  1  0  0  0  0
  1 34  1  0  0  0  0
  1 35  1  0  0  0  0
  1 36  1  0  0  0  0
  2 37  1  0  0  0  0
  3 38  1  0  0  0  0
  3 39  1  0  0  0  0
  4 40  1  0  0  0  0
  4 41  1  0  0  0  0
  8 42  1  0  0  0  0
  9 43  1  0  0  0  0
  9 44  1  0  0  0  0
 10 45  1  0  0  0  0
 11 46  1  0  0  0  0
 11 47  1  0  0  0  0
 12 48  1  0  0  0  0
 12 49  1  0  0  0  0
 13 50  1  0  0  0  0
 14 51  1  0  0  0  0
 16 52  1  0  0  0  0
 17 53  1  0  0  0  0
 18 54  1  0  0  0  0
 19 55  1  0  0  0  0
 20 56  1  0  0  0  0
 23 57  1  0  0  0  0
 23 58  1  0  0  0  0
 24 59  1  0  0  0  0
 30 60  1  0  0  0  0
 32 61  1  0  0  0  0
M  END
> <ID>
CHEMBL1084677

> <IC50[nM]>
4

$$$$
