CHEMBL1084935
  -OEChem-05192314313D
 Structure written by MMmdl.
 69 72  0     1  0  0  0  0  0999 V2000
   11.8941   -2.8870    6.6585 C   0  0  0  0  0  0  0  0  0  0  0  0
   13.1611   -3.1833    7.4914 C   0  0  0  0  0  0  0  0  0  0  0  0
   14.1889   -3.9556    6.6529 N   0  0  2  0  0  0  0  0  0  0  0  0
   15.2831   -4.6170    7.5349 C   0  0  0  0  0  0  0  0  0  0  0  0
   14.6484   -5.6321    8.4883 C   0  0  0  0  0  0  0  0  0  0  0  0
   15.6314   -6.4882    9.0155 O   0  0  0  0  0  0  0  0  0  0  0  0
   14.7830   -3.0434    5.5472 C   0  0  0  0  0  0  0  0  0  0  0  0
   14.9397   -3.7821    4.1936 C   0  0  1  0  0  0  0  0  0  0  0  0
   15.0827   -5.3316    4.2335 C   0  0  0  0  0  0  0  0  0  0  0  0
   15.2131   -5.9184    2.8241 C   0  0  0  0  0  0  0  0  0  0  0  0
   14.0995   -5.4193    1.8815 C   0  0  1  0  0  0  0  0  0  0  0  0
   12.7089   -6.0737    2.1363 C   0  0  2  0  0  0  0  0  0  0  0  0
   12.7560   -7.5938    2.0385 C   0  0  0  0  0  0  0  0  0  0  0  0
   12.3233   -8.3792    3.1082 C   0  0  0  0  0  0  0  0  0  0  0  0
   12.4013   -9.7662    3.0214 C   0  0  0  0  0  0  0  0  0  0  0  0
   12.9053  -10.3669    1.8706 C   0  0  0  0  0  0  0  0  0  0  0  0
   13.3256   -9.5903    0.7954 C   0  0  0  0  0  0  0  0  0  0  0  0
   13.2476   -8.2058    0.8797 C   0  0  0  0  0  0  0  0  0  0  0  0
   11.7083   -5.5287    1.2201 N   0  0  0  0  0  0  0  0  0  0  0  0
   11.7889   -4.1985    0.7863 C   0  0  0  0  0  0  0  0  0  0  0  0
   10.7777   -3.7353   -0.0458 C   0  0  0  0  0  0  0  0  0  0  0  0
   10.8328   -2.4457   -0.5434 C   0  0  0  0  0  0  0  0  0  0  0  0
   11.8762   -1.5795   -0.1948 C   0  0  0  0  0  0  0  0  0  0  0  0
   11.9234   -0.1516   -0.7693 C   0  0  0  0  0  0  0  0  0  0  0  0
   12.6677    0.8246    0.1645 C   0  0  0  0  0  0  0  0  0  0  0  0
   10.4765    0.3389   -0.9933 C   0  0  0  0  0  0  0  0  0  0  0  0
   12.6705   -0.1459   -2.1072 C   0  0  0  0  0  0  0  0  0  0  0  0
   12.8668   -2.0505    0.6751 C   0  0  0  0  0  0  0  0  0  0  0  0
   12.8600   -3.3611    1.1455 C   0  0  0  0  0  0  0  0  0  0  0  0
   14.0148   -3.8794    1.9822 C   0  0  1  0  0  0  0  0  0  0  0  0
   13.8256   -3.4715    3.3390 O   0  0  0  0  0  0  0  0  0  0  0  0
   11.1703   -2.3339    7.2752 H   0  0  0  0  0  0  0  0  0  0  0  0
   12.1656   -2.2821    5.7808 H   0  0  0  0  0  0  0  0  0  0  0  0
   11.4442   -3.8341    6.3261 H   0  0  0  0  0  0  0  0  0  0  0  0
   13.6057   -2.2337    7.8239 H   0  0  0  0  0  0  0  0  0  0  0  0
   12.8843   -3.7857    8.3691 H   0  0  0  0  0  0  0  0  0  0  0  0
   16.0102   -5.1304    6.8885 H   0  0  0  0  0  0  0  0  0  0  0  0
   15.7971   -3.8403    8.1202 H   0  0  0  0  0  0  0  0  0  0  0  0
   14.1543   -5.0963    9.3122 H   0  0  0  0  0  0  0  0  0  0  0  0
   13.9041   -6.2284    7.9402 H   0  0  0  0  0  0  0  0  0  0  0  0
   15.2250   -7.1127    9.6049 H   0  0  0  0  0  0  0  0  0  0  0  0
   14.1152   -2.1811    5.4039 H   0  0  0  0  0  0  0  0  0  0  0  0
   15.7724   -2.6907    5.8739 H   0  0  0  0  0  0  0  0  0  0  0  0
   15.8534   -3.3915    3.7217 H   0  0  0  0  0  0  0  0  0  0  0  0
   15.9795   -5.5932    4.8143 H   0  0  0  0  0  0  0  0  0  0  0  0
   14.1935   -5.7605    4.7187 H   0  0  0  0  0  0  0  0  0  0  0  0
   16.1880   -5.6258    2.4071 H   0  0  0  0  0  0  0  0  0  0  0  0
   15.1567   -7.0150    2.8900 H   0  0  0  0  0  0  0  0  0  0  0  0
   14.3976   -5.6690    0.8525 H   0  0  0  0  0  0  0  0  0  0  0  0
   12.4129   -5.8166    3.1640 H   0  0  0  0  0  0  0  0  0  0  0  0
   11.9297   -7.9128    3.9992 H   0  0  0  0  0  0  0  0  0  0  0  0
   12.0704  -10.3775    3.8479 H   0  0  0  0  0  0  0  0  0  0  0  0
   12.9704  -11.4434    1.8123 H   0  0  0  0  0  0  0  0  0  0  0  0
   13.7096  -10.0602   -0.0980 H   0  0  0  0  0  0  0  0  0  0  0  0
   13.5681   -7.5982    0.0463 H   0  0  0  0  0  0  0  0  0  0  0  0
   11.7309   -6.0993    0.3992 H   0  0  0  0  0  0  0  0  0  0  0  0
    9.9507   -4.3802   -0.3036 H   0  0  0  0  0  0  0  0  0  0  0  0
   10.0579   -2.1012   -1.2121 H   0  0  0  0  0  0  0  0  0  0  0  0
   12.6763    1.8284   -0.2852 H   0  0  0  0  0  0  0  0  0  0  0  0
   12.1559    0.8632    1.1374 H   0  0  0  0  0  0  0  0  0  0  0  0
   13.7019    0.4783    0.3077 H   0  0  0  0  0  0  0  0  0  0  0  0
   10.4941    1.3592   -1.4041 H   0  0  0  0  0  0  0  0  0  0  0  0
    9.9673   -0.3323   -1.7006 H   0  0  0  0  0  0  0  0  0  0  0  0
    9.9370    0.3390   -0.0347 H   0  0  0  0  0  0  0  0  0  0  0  0
   12.6981    0.8781   -2.5080 H   0  0  0  0  0  0  0  0  0  0  0  0
   13.6981   -0.5076   -1.9547 H   0  0  0  0  0  0  0  0  0  0  0  0
   12.1518   -0.8044   -2.8195 H   0  0  0  0  0  0  0  0  0  0  0  0
   13.6547   -1.3817    0.9887 H   0  0  0  0  0  0  0  0  0  0  0  0
   14.9514   -3.4552    1.5913 H   0  0  0  0  0  0  0  0  0  0  0  0
  1  2  1  0  0  0  0
  2  3  1  0  0  0  0
  3  4  1  0  0  0  0
  3  7  1  0  0  0  0
  4  5  1  0  0  0  0
  5  6  1  0  0  0  0
  7  8  1  0  0  0  0
  8  9  1  0  0  0  0
  8 31  1  0  0  0  0
  9 10  1  0  0  0  0
 10 11  1  0  0  0  0
 11 12  1  0  0  0  0
 11 30  1  0  0  0  0
 12 13  1  0  0  0  0
 12 19  1  0  0  0  0
 13 14  2  0  0  0  0
 13 18  1  0  0  0  0
 14 15  1  0  0  0  0
 15 16  2  0  0  0  0
 16 17  1  0  0  0  0
 17 18  2  0  0  0  0
 19 20  1  0  0  0  0
 20 21  2  0  0  0  0
 20 29  1  0  0  0  0
 21 22  1  0  0  0  0
 22 23  2  0  0  0  0
 23 24  1  0  0  0  0
 23 28  1  0  0  0  0
 24 25  1  0  0  0  0
 24 26  1  0  0  0  0
 24 27  1  0  0  0  0
 28 29  2  0  0  0  0
 29 30  1  0  0  0  0
 30 31  1  0  0  0  0
  1 32  1  0  0  0  0
  1 33  1  0  0  0  0
  1 34  1  0  0  0  0
  2 35  1  0  0  0  0
  2 36  1  0  0  0  0
  4 37  1  0  0  0  0
  4 38  1  0  0  0  0
  5 39  1  0  0  0  0
  5 40  1  0  0  0  0
  6 41  1  0  0  0  0
  7 42  1  0  0  0  0
  7 43  1  0  0  0  0
  8 44  1  0  0  0  0
  9 45  1  0  0  0  0
  9 46  1  0  0  0  0
 10 47  1  0  0  0  0
 10 48  1  0  0  0  0
 11 49  1  0  0  0  0
 12 50  1  0  0  0  0
 14 51  1  0  0  0  0
 15 52  1  0  0  0  0
 16 53  1  0  0  0  0
 17 54  1  0  0  0  0
 18 55  1  0  0  0  0
 19 56  1  0  0  0  0
 21 57  1  0  0  0  0
 22 58  1  0  0  0  0
 25 59  1  0  0  0  0
 25 60  1  0  0  0  0
 25 61  1  0  0  0  0
 26 62  1  0  0  0  0
 26 63  1  0  0  0  0
 26 64  1  0  0  0  0
 27 65  1  0  0  0  0
 27 66  1  0  0  0  0
 27 67  1  0  0  0  0
 28 68  1  0  0  0  0
 30 69  1  0  0  0  0
M  END
> <ID>
CHEMBL1084935

> <IC50[nM]>
19

$$$$
CHEMBL1084935
  -OEChem-05192314313D
 Structure written by MMmdl.
 69 72  0     1  0  0  0  0  0999 V2000
   11.8941   -2.8870    6.6585 C   0  0  0  0  0  0  0  0  0  0  0  0
   13.1611   -3.1833    7.4914 C   0  0  0  0  0  0  0  0  0  0  0  0
   14.1889   -3.9556    6.6529 N   0  0  2  0  0  0  0  0  0  0  0  0
   15.2831   -4.6170    7.5349 C   0  0  0  0  0  0  0  0  0  0  0  0
   14.6484   -5.6321    8.4883 C   0  0  0  0  0  0  0  0  0  0  0  0
   15.6314   -6.4882    9.0155 O   0  0  0  0  0  0  0  0  0  0  0  0
   14.7830   -3.0434    5.5472 C   0  0  0  0  0  0  0  0  0  0  0  0
   14.9397   -3.7821    4.1936 C   0  0  1  0  0  0  0  0  0  0  0  0
   15.0827   -5.3316    4.2335 C   0  0  0  0  0  0  0  0  0  0  0  0
   15.2131   -5.9184    2.8241 C   0  0  0  0  0  0  0  0  0  0  0  0
   14.0995   -5.4193    1.8815 C   0  0  1  0  0  0  0  0  0  0  0  0
   12.7089   -6.0737    2.1363 C   0  0  2  0  0  0  0  0  0  0  0  0
   12.7560   -7.5938    2.0385 C   0  0  0  0  0  0  0  0  0  0  0  0
   12.3233   -8.3792    3.1082 C   0  0  0  0  0  0  0  0  0  0  0  0
   12.4013   -9.7662    3.0214 C   0  0  0  0  0  0  0  0  0  0  0  0
   12.9053  -10.3669    1.8706 C   0  0  0  0  0  0  0  0  0  0  0  0
   13.3256   -9.5903    0.7954 C   0  0  0  0  0  0  0  0  0  0  0  0
   13.2476   -8.2058    0.8797 C   0  0  0  0  0  0  0  0  0  0  0  0
   11.7083   -5.5287    1.2201 N   0  0  0  0  0  0  0  0  0  0  0  0
   11.7889   -4.1985    0.7863 C   0  0  0  0  0  0  0  0  0  0  0  0
   10.7777   -3.7353   -0.0458 C   0  0  0  0  0  0  0  0  0  0  0  0
   10.8328   -2.4457   -0.5434 C   0  0  0  0  0  0  0  0  0  0  0  0
   11.8762   -1.5795   -0.1948 C   0  0  0  0  0  0  0  0  0  0  0  0
   11.9234   -0.1516   -0.7693 C   0  0  0  0  0  0  0  0  0  0  0  0
   12.6677    0.8246    0.1645 C   0  0  0  0  0  0  0  0  0  0  0  0
   10.4765    0.3389   -0.9933 C   0  0  0  0  0  0  0  0  0  0  0  0
   12.6705   -0.1459   -2.1072 C   0  0  0  0  0  0  0  0  0  0  0  0
   12.8668   -2.0505    0.6751 C   0  0  0  0  0  0  0  0  0  0  0  0
   12.8600   -3.3611    1.1455 C   0  0  0  0  0  0  0  0  0  0  0  0
   14.0148   -3.8794    1.9822 C   0  0  1  0  0  0  0  0  0  0  0  0
   13.8256   -3.4715    3.3390 O   0  0  0  0  0  0  0  0  0  0  0  0
   11.1703   -2.3339    7.2752 H   0  0  0  0  0  0  0  0  0  0  0  0
   12.1656   -2.2821    5.7808 H   0  0  0  0  0  0  0  0  0  0  0  0
   11.4442   -3.8341    6.3261 H   0  0  0  0  0  0  0  0  0  0  0  0
   13.6057   -2.2337    7.8239 H   0  0  0  0  0  0  0  0  0  0  0  0
   12.8843   -3.7857    8.3691 H   0  0  0  0  0  0  0  0  0  0  0  0
   16.0102   -5.1304    6.8885 H   0  0  0  0  0  0  0  0  0  0  0  0
   15.7971   -3.8403    8.1202 H   0  0  0  0  0  0  0  0  0  0  0  0
   14.1543   -5.0963    9.3122 H   0  0  0  0  0  0  0  0  0  0  0  0
   13.9041   -6.2284    7.9402 H   0  0  0  0  0  0  0  0  0  0  0  0
   15.2250   -7.1127    9.6049 H   0  0  0  0  0  0  0  0  0  0  0  0
   14.1152   -2.1811    5.4039 H   0  0  0  0  0  0  0  0  0  0  0  0
   15.7724   -2.6907    5.8739 H   0  0  0  0  0  0  0  0  0  0  0  0
   15.8534   -3.3915    3.7217 H   0  0  0  0  0  0  0  0  0  0  0  0
   15.9795   -5.5932    4.8143 H   0  0  0  0  0  0  0  0  0  0  0  0
   14.1935   -5.7605    4.7187 H   0  0  0  0  0  0  0  0  0  0  0  0
   16.1880   -5.6258    2.4071 H   0  0  0  0  0  0  0  0  0  0  0  0
   15.1567   -7.0150    2.8900 H   0  0  0  0  0  0  0  0  0  0  0  0
   14.3976   -5.6690    0.8525 H   0  0  0  0  0  0  0  0  0  0  0  0
   12.4129   -5.8166    3.1640 H   0  0  0  0  0  0  0  0  0  0  0  0
   11.9297   -7.9128    3.9992 H   0  0  0  0  0  0  0  0  0  0  0  0
   12.0704  -10.3775    3.8479 H   0  0  0  0  0  0  0  0  0  0  0  0
   12.9704  -11.4434    1.8123 H   0  0  0  0  0  0  0  0  0  0  0  0
   13.7096  -10.0602   -0.0980 H   0  0  0  0  0  0  0  0  0  0  0  0
   13.5681   -7.5982    0.0463 H   0  0  0  0  0  0  0  0  0  0  0  0
    9.9507   -4.3802   -0.3036 H   0  0  0  0  0  0  0  0  0  0  0  0
   10.0579   -2.1012   -1.2121 H   0  0  0  0  0  0  0  0  0  0  0  0
   11.2916   -1.2170    0.6636 H   0  0  0  0  0  0  0  0  0  0  0  0
   12.6763    1.8284   -0.2852 H   0  0  0  0  0  0  0  0  0  0  0  0
   12.1559    0.8632    1.1374 H   0  0  0  0  0  0  0  0  0  0  0  0
   13.7019    0.4783    0.3077 H   0  0  0  0  0  0  0  0  0  0  0  0
   10.4941    1.3592   -1.4041 H   0  0  0  0  0  0  0  0  0  0  0  0
    9.9673   -0.3323   -1.7006 H   0  0  0  0  0  0  0  0  0  0  0  0
    9.9370    0.3390   -0.0347 H   0  0  0  0  0  0  0  0  0  0  0  0
   12.6981    0.8781   -2.5080 H   0  0  0  0  0  0  0  0  0  0  0  0
   13.6981   -0.5076   -1.9547 H   0  0  0  0  0  0  0  0  0  0  0  0
   12.1518   -0.8044   -2.8195 H   0  0  0  0  0  0  0  0  0  0  0  0
   13.6547   -1.3817    0.9887 H   0  0  0  0  0  0  0  0  0  0  0  0
   14.9514   -3.4552    1.5913 H   0  0  0  0  0  0  0  0  0  0  0  0
  1  2  1  0  0  0  0
  2  3  1  0  0  0  0
  3  4  1  0  0  0  0
  3  7  1  0  0  0  0
  4  5  1  0  0  0  0
  5  6  1  0  0  0  0
  7  8  1  0  0  0  0
  8  9  1  0  0  0  0
  8 31  1  0  0  0  0
  9 10  1  0  0  0  0
 10 11  1  0  0  0  0
 11 12  1  0  0  0  0
 11 30  1  0  0  0  0
 12 13  1  0  0  0  0
 12 19  1  0  0  0  0
 13 14  2  0  0  0  0
 13 18  1  0  0  0  0
 14 15  1  0  0  0  0
 15 16  2  0  0  0  0
 16 17  1  0  0  0  0
 17 18  2  0  0  0  0
 19 20  2  0  0  0  0
 20 21  1  0  0  0  0
 20 29  1  0  0  0  0
 21 22  2  0  0  0  0
 22 23  1  0  0  0  0
 23 24  1  0  0  0  0
 23 28  1  0  0  0  0
 24 25  1  0  0  0  0
 24 26  1  0  0  0  0
 24 27  1  0  0  0  0
 28 29  2  0  0  0  0
 29 30  1  0  0  0  0
 30 31  1  0  0  0  0
  1 32  1  0  0  0  0
  1 33  1  0  0  0  0
  1 34  1  0  0  0  0
  2 35  1  0  0  0  0
  2 36  1  0  0  0  0
  4 37  1  0  0  0  0
  4 38  1  0  0  0  0
  5 39  1  0  0  0  0
  5 40  1  0  0  0  0
  6 41  1  0  0  0  0
  7 42  1  0  0  0  0
  7 43  1  0  0  0  0
  8 44  1  0  0  0  0
  9 45  1  0  0  0  0
  9 46  1  0  0  0  0
 10 47  1  0  0  0  0
 10 48  1  0  0  0  0
 11 49  1  0  0  0  0
 12 50  1  0  0  0  0
 14 51  1  0  0  0  0
 15 52  1  0  0  0  0
 16 53  1  0  0  0  0
 17 54  1  0  0  0  0
 18 55  1  0  0  0  0
 21 56  1  0  0  0  0
 22 57  1  0  0  0  0
 23 58  1  0  0  0  0
 25 59  1  0  0  0  0
 25 60  1  0  0  0  0
 25 61  1  0  0  0  0
 26 62  1  0  0  0  0
 26 63  1  0  0  0  0
 26 64  1  0  0  0  0
 27 65  1  0  0  0  0
 27 66  1  0  0  0  0
 27 67  1  0  0  0  0
 28 68  1  0  0  0  0
 30 69  1  0  0  0  0
M  END
> <ID>
CHEMBL1084935

> <IC50[nM]>
19

$$$$
CHEMBL1084935
  -OEChem-05192314313D
 Structure written by MMmdl.
 69 72  0     1  0  0  0  0  0999 V2000
   11.8941   -2.8870    6.6585 C   0  0  0  0  0  0  0  0  0  0  0  0
   13.1611   -3.1833    7.4914 C   0  0  0  0  0  0  0  0  0  0  0  0
   14.1889   -3.9556    6.6529 N   0  0  2  0  0  0  0  0  0  0  0  0
   15.2831   -4.6170    7.5349 C   0  0  0  0  0  0  0  0  0  0  0  0
   14.6484   -5.6321    8.4883 C   0  0  0  0  0  0  0  0  0  0  0  0
   15.6314   -6.4882    9.0155 O   0  0  0  0  0  0  0  0  0  0  0  0
   14.7830   -3.0434    5.5472 C   0  0  0  0  0  0  0  0  0  0  0  0
   14.9397   -3.7821    4.1936 C   0  0  1  0  0  0  0  0  0  0  0  0
   15.0827   -5.3316    4.2335 C   0  0  0  0  0  0  0  0  0  0  0  0
   15.2131   -5.9184    2.8241 C   0  0  0  0  0  0  0  0  0  0  0  0
   14.0995   -5.4193    1.8815 C   0  0  1  0  0  0  0  0  0  0  0  0
   12.7089   -6.0737    2.1363 C   0  0  2  0  0  0  0  0  0  0  0  0
   12.7560   -7.5938    2.0385 C   0  0  0  0  0  0  0  0  0  0  0  0
   12.3233   -8.3792    3.1082 C   0  0  0  0  0  0  0  0  0  0  0  0
   12.4013   -9.7662    3.0214 C   0  0  0  0  0  0  0  0  0  0  0  0
   12.9053  -10.3669    1.8706 C   0  0  0  0  0  0  0  0  0  0  0  0
   13.3256   -9.5903    0.7954 C   0  0  0  0  0  0  0  0  0  0  0  0
   13.2476   -8.2058    0.8797 C   0  0  0  0  0  0  0  0  0  0  0  0
   11.7083   -5.5287    1.2201 N   0  0  0  0  0  0  0  0  0  0  0  0
   11.7889   -4.1985    0.7863 C   0  0  0  0  0  0  0  0  0  0  0  0
   10.7777   -3.7353   -0.0458 C   0  0  0  0  0  0  0  0  0  0  0  0
   10.8328   -2.4457   -0.5434 C   0  0  0  0  0  0  0  0  0  0  0  0
   11.8762   -1.5795   -0.1948 C   0  0  0  0  0  0  0  0  0  0  0  0
   11.9234   -0.1516   -0.7693 C   0  0  0  0  0  0  0  0  0  0  0  0
   12.6677    0.8246    0.1645 C   0  0  0  0  0  0  0  0  0  0  0  0
   10.4765    0.3389   -0.9933 C   0  0  0  0  0  0  0  0  0  0  0  0
   12.6705   -0.1459   -2.1072 C   0  0  0  0  0  0  0  0  0  0  0  0
   12.8668   -2.0505    0.6751 C   0  0  0  0  0  0  0  0  0  0  0  0
   12.8600   -3.3611    1.1455 C   0  0  0  0  0  0  0  0  0  0  0  0
   14.0148   -3.8794    1.9822 C   0  0  1  0  0  0  0  0  0  0  0  0
   13.8256   -3.4715    3.3390 O   0  0  0  0  0  0  0  0  0  0  0  0
   11.1703   -2.3339    7.2752 H   0  0  0  0  0  0  0  0  0  0  0  0
   12.1656   -2.2821    5.7808 H   0  0  0  0  0  0  0  0  0  0  0  0
   11.4442   -3.8341    6.3261 H   0  0  0  0  0  0  0  0  0  0  0  0
   13.6057   -2.2337    7.8239 H   0  0  0  0  0  0  0  0  0  0  0  0
   12.8843   -3.7857    8.3691 H   0  0  0  0  0  0  0  0  0  0  0  0
   16.0102   -5.1304    6.8885 H   0  0  0  0  0  0  0  0  0  0  0  0
   15.7971   -3.8403    8.1202 H   0  0  0  0  0  0  0  0  0  0  0  0
   14.1543   -5.0963    9.3122 H   0  0  0  0  0  0  0  0  0  0  0  0
   13.9041   -6.2284    7.9402 H   0  0  0  0  0  0  0  0  0  0  0  0
   15.2250   -7.1127    9.6049 H   0  0  0  0  0  0  0  0  0  0  0  0
   14.1152   -2.1811    5.4039 H   0  0  0  0  0  0  0  0  0  0  0  0
   15.7724   -2.6907    5.8739 H   0  0  0  0  0  0  0  0  0  0  0  0
   15.8534   -3.3915    3.7217 H   0  0  0  0  0  0  0  0  0  0  0  0
   15.9795   -5.5932    4.8143 H   0  0  0  0  0  0  0  0  0  0  0  0
   14.1935   -5.7605    4.7187 H   0  0  0  0  0  0  0  0  0  0  0  0
   16.1880   -5.6258    2.4071 H   0  0  0  0  0  0  0  0  0  0  0  0
   15.1567   -7.0150    2.8900 H   0  0  0  0  0  0  0  0  0  0  0  0
   14.3976   -5.6690    0.8525 H   0  0  0  0  0  0  0  0  0  0  0  0
   12.4129   -5.8166    3.1640 H   0  0  0  0  0  0  0  0  0  0  0  0
   11.9297   -7.9128    3.9992 H   0  0  0  0  0  0  0  0  0  0  0  0
   12.0704  -10.3775    3.8479 H   0  0  0  0  0  0  0  0  0  0  0  0
   12.9704  -11.4434    1.8123 H   0  0  0  0  0  0  0  0  0  0  0  0
   13.7096  -10.0602   -0.0980 H   0  0  0  0  0  0  0  0  0  0  0  0
   13.5681   -7.5982    0.0463 H   0  0  0  0  0  0  0  0  0  0  0  0
    9.9507   -4.3802   -0.3036 H   0  0  0  0  0  0  0  0  0  0  0  0
   10.0579   -2.1012   -1.2121 H   0  0  0  0  0  0  0  0  0  0  0  0
   12.6763    1.8284   -0.2852 H   0  0  0  0  0  0  0  0  0  0  0  0
   12.1559    0.8632    1.1374 H   0  0  0  0  0  0  0  0  0  0  0  0
   13.7019    0.4783    0.3077 H   0  0  0  0  0  0  0  0  0  0  0  0
   10.4941    1.3592   -1.4041 H   0  0  0  0  0  0  0  0  0  0  0  0
    9.9673   -0.3323   -1.7006 H   0  0  0  0  0  0  0  0  0  0  0  0
    9.9370    0.3390   -0.0347 H   0  0  0  0  0  0  0  0  0  0  0  0
   12.6981    0.8781   -2.5080 H   0  0  0  0  0  0  0  0  0  0  0  0
   13.6981   -0.5076   -1.9547 H   0  0  0  0  0  0  0  0  0  0  0  0
   12.1518   -0.8044   -2.8195 H   0  0  0  0  0  0  0  0  0  0  0  0
   13.6547   -1.3817    0.9887 H   0  0  0  0  0  0  0  0  0  0  0  0
   12.3265   -3.0463    2.0545 H   0  0  0  0  0  0  0  0  0  0  0  0
   14.9514   -3.4552    1.5913 H   0  0  0  0  0  0  0  0  0  0  0  0
  1  2  1  0  0  0  0
  2  3  1  0  0  0  0
  3  4  1  0  0  0  0
  3  7  1  0  0  0  0
  4  5  1  0  0  0  0
  5  6  1  0  0  0  0
  7  8  1  0  0  0  0
  8  9  1  0  0  0  0
  8 31  1  0  0  0  0
  9 10  1  0  0  0  0
 10 11  1  0  0  0  0
 11 12  1  0  0  0  0
 11 30  1  0  0  0  0
 12 13  1  0  0  0  0
 12 19  1  0  0  0  0
 13 14  2  0  0  0  0
 13 18  1  0  0  0  0
 14 15  1  0  0  0  0
 15 16  2  0  0  0  0
 16 17  1  0  0  0  0
 17 18  2  0  0  0  0
 19 20  2  0  0  0  0
 20 21  1  0  0  0  0
 20 29  1  0  0  0  0
 21 22  2  0  0  0  0
 22 23  1  0  0  0  0
 23 24  1  0  0  0  0
 23 28  2  0  0  0  0
 24 25  1  0  0  0  0
 24 26  1  0  0  0  0
 24 27  1  0  0  0  0
 28 29  1  0  0  0  0
 29 30  1  0  0  0  0
 30 31  1  0  0  0  0
  1 32  1  0  0  0  0
  1 33  1  0  0  0  0
  1 34  1  0  0  0  0
  2 35  1  0  0  0  0
  2 36  1  0  0  0  0
  4 37  1  0  0  0  0
  4 38  1  0  0  0  0
  5 39  1  0  0  0  0
  5 40  1  0  0  0  0
  6 41  1  0  0  0  0
  7 42  1  0  0  0  0
  7 43  1  0  0  0  0
  8 44  1  0  0  0  0
  9 45  1  0  0  0  0
  9 46  1  0  0  0  0
 10 47  1  0  0  0  0
 10 48  1  0  0  0  0
 11 49  1  0  0  0  0
 12 50  1  0  0  0  0
 14 51  1  0  0  0  0
 15 52  1  0  0  0  0
 16 53  1  0  0  0  0
 17 54  1  0  0  0  0
 18 55  1  0  0  0  0
 21 56  1  0  0  0  0
 22 57  1  0  0  0  0
 25 58  1  0  0  0  0
 25 59  1  0  0  0  0
 25 60  1  0  0  0  0
 26 61  1  0  0  0  0
 26 62  1  0  0  0  0
 26 63  1  0  0  0  0
 27 64  1  0  0  0  0
 27 65  1  0  0  0  0
 27 66  1  0  0  0  0
 28 67  1  0  0  0  0
 29 68  1  0  0  0  0
 30 69  1  0  0  0  0
M  END
> <ID>
CHEMBL1084935

> <IC50[nM]>
19

$$$$
CHEMBL1084935
  -OEChem-05192314313D
 Structure written by MMmdl.
 69 72  0     1  0  0  0  0  0999 V2000
   11.8941   -2.8870    6.6585 C   0  0  0  0  0  0  0  0  0  0  0  0
   13.1611   -3.1833    7.4914 C   0  0  0  0  0  0  0  0  0  0  0  0
   14.1889   -3.9556    6.6529 N   0  0  2  0  0  0  0  0  0  0  0  0
   15.2831   -4.6170    7.5349 C   0  0  0  0  0  0  0  0  0  0  0  0
   14.6484   -5.6321    8.4883 C   0  0  0  0  0  0  0  0  0  0  0  0
   15.6314   -6.4882    9.0155 O   0  0  0  0  0  0  0  0  0  0  0  0
   14.7830   -3.0434    5.5472 C   0  0  0  0  0  0  0  0  0  0  0  0
   14.9397   -3.7821    4.1936 C   0  0  1  0  0  0  0  0  0  0  0  0
   15.0827   -5.3316    4.2335 C   0  0  0  0  0  0  0  0  0  0  0  0
   15.2131   -5.9184    2.8241 C   0  0  0  0  0  0  0  0  0  0  0  0
   14.0995   -5.4193    1.8815 C   0  0  1  0  0  0  0  0  0  0  0  0
   12.7089   -6.0737    2.1363 C   0  0  2  0  0  0  0  0  0  0  0  0
   12.7560   -7.5938    2.0385 C   0  0  0  0  0  0  0  0  0  0  0  0
   12.3233   -8.3792    3.1082 C   0  0  0  0  0  0  0  0  0  0  0  0
   12.4013   -9.7662    3.0214 C   0  0  0  0  0  0  0  0  0  0  0  0
   12.9053  -10.3669    1.8706 C   0  0  0  0  0  0  0  0  0  0  0  0
   13.3256   -9.5903    0.7954 C   0  0  0  0  0  0  0  0  0  0  0  0
   13.2476   -8.2058    0.8797 C   0  0  0  0  0  0  0  0  0  0  0  0
   11.7083   -5.5287    1.2201 N   0  0  0  0  0  0  0  0  0  0  0  0
   11.7889   -4.1985    0.7863 C   0  0  0  0  0  0  0  0  0  0  0  0
   10.7777   -3.7353   -0.0458 C   0  0  0  0  0  0  0  0  0  0  0  0
   10.8328   -2.4457   -0.5434 C   0  0  0  0  0  0  0  0  0  0  0  0
   11.8762   -1.5795   -0.1948 C   0  0  0  0  0  0  0  0  0  0  0  0
   11.9234   -0.1516   -0.7693 C   0  0  0  0  0  0  0  0  0  0  0  0
   12.6677    0.8246    0.1645 C   0  0  0  0  0  0  0  0  0  0  0  0
   10.4765    0.3389   -0.9933 C   0  0  0  0  0  0  0  0  0  0  0  0
   12.6705   -0.1459   -2.1072 C   0  0  0  0  0  0  0  0  0  0  0  0
   12.8668   -2.0505    0.6751 C   0  0  0  0  0  0  0  0  0  0  0  0
   12.8600   -3.3611    1.1455 C   0  0  0  0  0  0  0  0  0  0  0  0
   14.0148   -3.8794    1.9822 C   0  0  1  0  0  0  0  0  0  0  0  0
   13.8256   -3.4715    3.3390 O   0  0  0  0  0  0  0  0  0  0  0  0
   11.1703   -2.3339    7.2752 H   0  0  0  0  0  0  0  0  0  0  0  0
   12.1656   -2.2821    5.7808 H   0  0  0  0  0  0  0  0  0  0  0  0
   11.4442   -3.8341    6.3261 H   0  0  0  0  0  0  0  0  0  0  0  0
   13.6057   -2.2337    7.8239 H   0  0  0  0  0  0  0  0  0  0  0  0
   12.8843   -3.7857    8.3691 H   0  0  0  0  0  0  0  0  0  0  0  0
   16.0102   -5.1304    6.8885 H   0  0  0  0  0  0  0  0  0  0  0  0
   15.7971   -3.8403    8.1202 H   0  0  0  0  0  0  0  0  0  0  0  0
   14.1543   -5.0963    9.3122 H   0  0  0  0  0  0  0  0  0  0  0  0
   13.9041   -6.2284    7.9402 H   0  0  0  0  0  0  0  0  0  0  0  0
   15.2250   -7.1127    9.6049 H   0  0  0  0  0  0  0  0  0  0  0  0
   14.1152   -2.1811    5.4039 H   0  0  0  0  0  0  0  0  0  0  0  0
   15.7724   -2.6907    5.8739 H   0  0  0  0  0  0  0  0  0  0  0  0
   15.8534   -3.3915    3.7217 H   0  0  0  0  0  0  0  0  0  0  0  0
   15.9795   -5.5932    4.8143 H   0  0  0  0  0  0  0  0  0  0  0  0
   14.1935   -5.7605    4.7187 H   0  0  0  0  0  0  0  0  0  0  0  0
   16.1880   -5.6258    2.4071 H   0  0  0  0  0  0  0  0  0  0  0  0
   15.1567   -7.0150    2.8900 H   0  0  0  0  0  0  0  0  0  0  0  0
   14.3976   -5.6690    0.8525 H   0  0  0  0  0  0  0  0  0  0  0  0
   12.4129   -5.8166    3.1640 H   0  0  0  0  0  0  0  0  0  0  0  0
   11.9297   -7.9128    3.9992 H   0  0  0  0  0  0  0  0  0  0  0  0
   12.0704  -10.3775    3.8479 H   0  0  0  0  0  0  0  0  0  0  0  0
   12.9704  -11.4434    1.8123 H   0  0  0  0  0  0  0  0  0  0  0  0
   13.7096  -10.0602   -0.0980 H   0  0  0  0  0  0  0  0  0  0  0  0
   13.5681   -7.5982    0.0463 H   0  0  0  0  0  0  0  0  0  0  0  0
   10.7453   -4.4103   -0.9137 H   0  0  0  0  0  0  0  0  0  0  0  0
    9.8374   -3.8188    0.5189 H   0  0  0  0  0  0  0  0  0  0  0  0
   10.0579   -2.1012   -1.2121 H   0  0  0  0  0  0  0  0  0  0  0  0
   12.6763    1.8284   -0.2852 H   0  0  0  0  0  0  0  0  0  0  0  0
   12.1559    0.8632    1.1374 H   0  0  0  0  0  0  0  0  0  0  0  0
   13.7019    0.4783    0.3077 H   0  0  0  0  0  0  0  0  0  0  0  0
   10.4941    1.3592   -1.4041 H   0  0  0  0  0  0  0  0  0  0  0  0
    9.9673   -0.3323   -1.7006 H   0  0  0  0  0  0  0  0  0  0  0  0
    9.9370    0.3390   -0.0347 H   0  0  0  0  0  0  0  0  0  0  0  0
   12.6981    0.8781   -2.5080 H   0  0  0  0  0  0  0  0  0  0  0  0
   13.6981   -0.5076   -1.9547 H   0  0  0  0  0  0  0  0  0  0  0  0
   12.1518   -0.8044   -2.8195 H   0  0  0  0  0  0  0  0  0  0  0  0
   13.6547   -1.3817    0.9887 H   0  0  0  0  0  0  0  0  0  0  0  0
   14.9514   -3.4552    1.5913 H   0  0  0  0  0  0  0  0  0  0  0  0
  1  2  1  0  0  0  0
  2  3  1  0  0  0  0
  3  4  1  0  0  0  0
  3  7  1  0  0  0  0
  4  5  1  0  0  0  0
  5  6  1  0  0  0  0
  7  8  1  0  0  0  0
  8  9  1  0  0  0  0
  8 31  1  0  0  0  0
  9 10  1  0  0  0  0
 10 11  1  0  0  0  0
 11 12  1  0  0  0  0
 11 30  1  0  0  0  0
 12 13  1  0  0  0  0
 12 19  1  0  0  0  0
 13 14  2  0  0  0  0
 13 18  1  0  0  0  0
 14 15  1  0  0  0  0
 15 16  2  0  0  0  0
 16 17  1  0  0  0  0
 17 18  2  0  0  0  0
 19 20  2  0  0  0  0
 20 21  1  0  0  0  0
 20 29  1  0  0  0  0
 21 22  1  0  0  0  0
 22 23  2  0  0  0  0
 23 24  1  0  0  0  0
 23 28  1  0  0  0  0
 24 25  1  0  0  0  0
 24 26  1  0  0  0  0
 24 27  1  0  0  0  0
 28 29  2  0  0  0  0
 29 30  1  0  0  0  0
 30 31  1  0  0  0  0
  1 32  1  0  0  0  0
  1 33  1  0  0  0  0
  1 34  1  0  0  0  0
  2 35  1  0  0  0  0
  2 36  1  0  0  0  0
  4 37  1  0  0  0  0
  4 38  1  0  0  0  0
  5 39  1  0  0  0  0
  5 40  1  0  0  0  0
  6 41  1  0  0  0  0
  7 42  1  0  0  0  0
  7 43  1  0  0  0  0
  8 44  1  0  0  0  0
  9 45  1  0  0  0  0
  9 46  1  0  0  0  0
 10 47  1  0  0  0  0
 10 48  1  0  0  0  0
 11 49  1  0  0  0  0
 12 50  1  0  0  0  0
 14 51  1  0  0  0  0
 15 52  1  0  0  0  0
 16 53  1  0  0  0  0
 17 54  1  0  0  0  0
 18 55  1  0  0  0  0
 21 56  1  0  0  0  0
 21 57  1  0  0  0  0
 22 58  1  0  0  0  0
 25 59  1  0  0  0  0
 25 60  1  0  0  0  0
 25 61  1  0  0  0  0
 26 62  1  0  0  0  0
 26 63  1  0  0  0  0
 26 64  1  0  0  0  0
 27 65  1  0  0  0  0
 27 66  1  0  0  0  0
 27 67  1  0  0  0  0
 28 68  1  0  0  0  0
 30 69  1  0  0  0  0
M  END
> <ID>
CHEMBL1084935

> <IC50[nM]>
19

$$$$
