CHEMBL1088740
  -OEChem-05192314313D
 Structure written by MMmdl.
 42 45  0     1  0  0  0  0  0999 V2000
   14.8892   -3.7991    4.1929 C   0  0  0  0  0  0  0  0  0  0  0  0
   15.0808   -5.3250    4.2402 C   0  0  0  0  0  0  0  0  0  0  0  0
   15.2237   -5.9069    2.8274 C   0  0  0  0  0  0  0  0  0  0  0  0
   14.1038   -5.4118    1.8796 C   0  0  1  0  0  0  0  0  0  0  0  0
   12.7087   -6.0667    2.1153 C   0  0  2  0  0  0  0  0  0  0  0  0
   12.7572   -7.5920    2.0339 C   0  0  0  0  0  0  0  0  0  0  0  0
   12.3194   -8.3758    3.1038 C   0  0  0  0  0  0  0  0  0  0  0  0
   12.3980   -9.7668    3.0196 C   0  0  0  0  0  0  0  0  0  0  0  0
   12.9045  -10.3679    1.8688 C   0  0  0  0  0  0  0  0  0  0  0  0
   13.3260   -9.5931    0.7968 C   0  0  0  0  0  0  0  0  0  0  0  0
   13.2504   -8.2090    0.8799 C   0  0  0  0  0  0  0  0  0  0  0  0
   11.7397   -5.5251    1.1637 N   0  0  0  0  0  0  0  0  0  0  0  0
   11.7924   -4.1803    0.7520 C   0  0  0  0  0  0  0  0  0  0  0  0
   10.7746   -3.7011   -0.0615 C   0  0  0  0  0  0  0  0  0  0  0  0
   10.8035   -2.4006   -0.5426 C   0  0  0  0  0  0  0  0  0  0  0  0
   11.8593   -1.5510   -0.1937 C   0  0  0  0  0  0  0  0  0  0  0  0
   11.9084   -0.1473   -0.7566 C   0  0  0  0  0  0  0  0  0  0  0  0
   12.8529   -2.0176    0.6651 C   0  0  0  0  0  0  0  0  0  0  0  0
   12.8644   -3.3330    1.1272 C   0  0  0  0  0  0  0  0  0  0  0  0
   14.0098   -3.8678    1.9787 C   0  0  1  0  0  0  0  0  0  0  0  0
   13.8065   -3.4533    3.3284 O   0  0  0  0  0  0  0  0  0  0  0  0
   14.6738   -3.4305    5.2067 H   0  0  0  0  0  0  0  0  0  0  0  0
   15.8123   -3.3306    3.8209 H   0  0  0  0  0  0  0  0  0  0  0  0
   15.9884   -5.5556    4.8174 H   0  0  0  0  0  0  0  0  0  0  0  0
   14.2085   -5.7818    4.7305 H   0  0  0  0  0  0  0  0  0  0  0  0
   16.1974   -5.6036    2.4153 H   0  0  0  0  0  0  0  0  0  0  0  0
   15.1774   -7.0042    2.8890 H   0  0  0  0  0  0  0  0  0  0  0  0
   14.4103   -5.6570    0.8520 H   0  0  0  0  0  0  0  0  0  0  0  0
   12.3878   -5.7965    3.1322 H   0  0  0  0  0  0  0  0  0  0  0  0
   11.9219   -7.9077    3.9922 H   0  0  0  0  0  0  0  0  0  0  0  0
   12.0663  -10.3774    3.8464 H   0  0  0  0  0  0  0  0  0  0  0  0
   12.9696  -11.4444    1.8105 H   0  0  0  0  0  0  0  0  0  0  0  0
   13.7102  -10.0638   -0.0961 H   0  0  0  0  0  0  0  0  0  0  0  0
   13.5752   -7.6040    0.0463 H   0  0  0  0  0  0  0  0  0  0  0  0
   11.8180   -6.0782    0.3343 H   0  0  0  0  0  0  0  0  0  0  0  0
    9.9507   -4.3486   -0.3228 H   0  0  0  0  0  0  0  0  0  0  0  0
   10.0123   -2.0441   -1.1856 H   0  0  0  0  0  0  0  0  0  0  0  0
   11.3768    0.5383   -0.0803 H   0  0  0  0  0  0  0  0  0  0  0  0
   12.9565    0.1725   -0.8531 H   0  0  0  0  0  0  0  0  0  0  0  0
   11.4279   -0.1321   -1.7460 H   0  0  0  0  0  0  0  0  0  0  0  0
   13.6345   -1.3425    0.9809 H   0  0  0  0  0  0  0  0  0  0  0  0
   14.9512   -3.4440    1.5990 H   0  0  0  0  0  0  0  0  0  0  0  0
  1  2  1  0  0  0  0
  1 21  1  0  0  0  0
  2  3  1  0  0  0  0
  3  4  1  0  0  0  0
  4  5  1  0  0  0  0
  4 20  1  0  0  0  0
  5  6  1  0  0  0  0
  5 12  1  0  0  0  0
  6  7  2  0  0  0  0
  6 11  1  0  0  0  0
  7  8  1  0  0  0  0
  8  9  2  0  0  0  0
  9 10  1  0  0  0  0
 10 11  2  0  0  0  0
 12 13  1  0  0  0  0
 13 14  2  0  0  0  0
 13 19  1  0  0  0  0
 14 15  1  0  0  0  0
 15 16  2  0  0  0  0
 16 17  1  0  0  0  0
 16 18  1  0  0  0  0
 18 19  2  0  0  0  0
 19 20  1  0  0  0  0
 20 21  1  0  0  0  0
  1 22  1  0  0  0  0
  1 23  1  0  0  0  0
  2 24  1  0  0  0  0
  2 25  1  0  0  0  0
  3 26  1  0  0  0  0
  3 27  1  0  0  0  0
  4 28  1  0  0  0  0
  5 29  1  0  0  0  0
  7 30  1  0  0  0  0
  8 31  1  0  0  0  0
  9 32  1  0  0  0  0
 10 33  1  0  0  0  0
 11 34  1  0  0  0  0
 12 35  1  0  0  0  0
 14 36  1  0  0  0  0
 15 37  1  0  0  0  0
 17 38  1  0  0  0  0
 17 39  1  0  0  0  0
 17 40  1  0  0  0  0
 18 41  1  0  0  0  0
 20 42  1  0  0  0  0
M  END
> <ID>
CHEMBL1088740

> <IC50[nM]>
420

$$$$
CHEMBL1088740
  -OEChem-05192314313D
 Structure written by MMmdl.
 42 45  0     1  0  0  0  0  0999 V2000
   14.8892   -3.7991    4.1929 C   0  0  0  0  0  0  0  0  0  0  0  0
   15.0808   -5.3250    4.2402 C   0  0  0  0  0  0  0  0  0  0  0  0
   15.2237   -5.9069    2.8274 C   0  0  0  0  0  0  0  0  0  0  0  0
   14.1038   -5.4118    1.8796 C   0  0  1  0  0  0  0  0  0  0  0  0
   12.7087   -6.0667    2.1153 C   0  0  2  0  0  0  0  0  0  0  0  0
   12.7572   -7.5920    2.0339 C   0  0  0  0  0  0  0  0  0  0  0  0
   12.3194   -8.3758    3.1038 C   0  0  0  0  0  0  0  0  0  0  0  0
   12.3980   -9.7668    3.0196 C   0  0  0  0  0  0  0  0  0  0  0  0
   12.9045  -10.3679    1.8688 C   0  0  0  0  0  0  0  0  0  0  0  0
   13.3260   -9.5931    0.7968 C   0  0  0  0  0  0  0  0  0  0  0  0
   13.2504   -8.2090    0.8799 C   0  0  0  0  0  0  0  0  0  0  0  0
   11.7397   -5.5251    1.1637 N   0  0  0  0  0  0  0  0  0  0  0  0
   11.7924   -4.1803    0.7520 C   0  0  0  0  0  0  0  0  0  0  0  0
   10.7746   -3.7011   -0.0615 C   0  0  0  0  0  0  0  0  0  0  0  0
   10.8035   -2.4006   -0.5426 C   0  0  0  0  0  0  0  0  0  0  0  0
   11.8593   -1.5510   -0.1937 C   0  0  0  0  0  0  0  0  0  0  0  0
   11.9084   -0.1473   -0.7566 C   0  0  0  0  0  0  0  0  0  0  0  0
   12.8529   -2.0176    0.6651 C   0  0  0  0  0  0  0  0  0  0  0  0
   12.8644   -3.3330    1.1272 C   0  0  0  0  0  0  0  0  0  0  0  0
   14.0098   -3.8678    1.9787 C   0  0  1  0  0  0  0  0  0  0  0  0
   13.8065   -3.4533    3.3284 O   0  0  0  0  0  0  0  0  0  0  0  0
   14.6738   -3.4305    5.2067 H   0  0  0  0  0  0  0  0  0  0  0  0
   15.8123   -3.3306    3.8209 H   0  0  0  0  0  0  0  0  0  0  0  0
   15.9884   -5.5556    4.8174 H   0  0  0  0  0  0  0  0  0  0  0  0
   14.2085   -5.7818    4.7305 H   0  0  0  0  0  0  0  0  0  0  0  0
   16.1974   -5.6036    2.4153 H   0  0  0  0  0  0  0  0  0  0  0  0
   15.1774   -7.0042    2.8890 H   0  0  0  0  0  0  0  0  0  0  0  0
   14.4103   -5.6570    0.8520 H   0  0  0  0  0  0  0  0  0  0  0  0
   12.3878   -5.7965    3.1322 H   0  0  0  0  0  0  0  0  0  0  0  0
   11.9219   -7.9077    3.9922 H   0  0  0  0  0  0  0  0  0  0  0  0
   12.0663  -10.3774    3.8464 H   0  0  0  0  0  0  0  0  0  0  0  0
   12.9696  -11.4444    1.8105 H   0  0  0  0  0  0  0  0  0  0  0  0
   13.7102  -10.0638   -0.0961 H   0  0  0  0  0  0  0  0  0  0  0  0
   13.5752   -7.6040    0.0463 H   0  0  0  0  0  0  0  0  0  0  0  0
    9.9507   -4.3486   -0.3228 H   0  0  0  0  0  0  0  0  0  0  0  0
   10.0123   -2.0441   -1.1856 H   0  0  0  0  0  0  0  0  0  0  0  0
   11.2827   -1.1863    0.6691 H   0  0  0  0  0  0  0  0  0  0  0  0
   12.8015    0.3699   -0.3760 H   0  0  0  0  0  0  0  0  0  0  0  0
   11.9521   -0.1941   -1.8547 H   0  0  0  0  0  0  0  0  0  0  0  0
   11.0070    0.4029   -0.4486 H   0  0  0  0  0  0  0  0  0  0  0  0
   13.6345   -1.3425    0.9809 H   0  0  0  0  0  0  0  0  0  0  0  0
   14.9512   -3.4440    1.5990 H   0  0  0  0  0  0  0  0  0  0  0  0
  1  2  1  0  0  0  0
  1 21  1  0  0  0  0
  2  3  1  0  0  0  0
  3  4  1  0  0  0  0
  4  5  1  0  0  0  0
  4 20  1  0  0  0  0
  5  6  1  0  0  0  0
  5 12  1  0  0  0  0
  6  7  2  0  0  0  0
  6 11  1  0  0  0  0
  7  8  1  0  0  0  0
  8  9  2  0  0  0  0
  9 10  1  0  0  0  0
 10 11  2  0  0  0  0
 12 13  2  0  0  0  0
 13 14  1  0  0  0  0
 13 19  1  0  0  0  0
 14 15  2  0  0  0  0
 15 16  1  0  0  0  0
 16 17  1  0  0  0  0
 16 18  1  0  0  0  0
 18 19  2  0  0  0  0
 19 20  1  0  0  0  0
 20 21  1  0  0  0  0
  1 22  1  0  0  0  0
  1 23  1  0  0  0  0
  2 24  1  0  0  0  0
  2 25  1  0  0  0  0
  3 26  1  0  0  0  0
  3 27  1  0  0  0  0
  4 28  1  0  0  0  0
  5 29  1  0  0  0  0
  7 30  1  0  0  0  0
  8 31  1  0  0  0  0
  9 32  1  0  0  0  0
 10 33  1  0  0  0  0
 11 34  1  0  0  0  0
 14 35  1  0  0  0  0
 15 36  1  0  0  0  0
 16 37  1  0  0  0  0
 17 38  1  0  0  0  0
 17 39  1  0  0  0  0
 17 40  1  0  0  0  0
 18 41  1  0  0  0  0
 20 42  1  0  0  0  0
M  END
> <ID>
CHEMBL1088740

> <IC50[nM]>
420

$$$$
CHEMBL1088740
  -OEChem-05192314313D
 Structure written by MMmdl.
 42 45  0     1  0  0  0  0  0999 V2000
   14.8892   -3.7991    4.1929 C   0  0  0  0  0  0  0  0  0  0  0  0
   15.0808   -5.3250    4.2402 C   0  0  0  0  0  0  0  0  0  0  0  0
   15.2237   -5.9069    2.8274 C   0  0  0  0  0  0  0  0  0  0  0  0
   14.1038   -5.4118    1.8796 C   0  0  1  0  0  0  0  0  0  0  0  0
   12.7087   -6.0667    2.1153 C   0  0  2  0  0  0  0  0  0  0  0  0
   12.7572   -7.5920    2.0339 C   0  0  0  0  0  0  0  0  0  0  0  0
   12.3194   -8.3758    3.1038 C   0  0  0  0  0  0  0  0  0  0  0  0
   12.3980   -9.7668    3.0196 C   0  0  0  0  0  0  0  0  0  0  0  0
   12.9045  -10.3679    1.8688 C   0  0  0  0  0  0  0  0  0  0  0  0
   13.3260   -9.5931    0.7968 C   0  0  0  0  0  0  0  0  0  0  0  0
   13.2504   -8.2090    0.8799 C   0  0  0  0  0  0  0  0  0  0  0  0
   11.7397   -5.5251    1.1637 N   0  0  0  0  0  0  0  0  0  0  0  0
   11.7924   -4.1803    0.7520 C   0  0  0  0  0  0  0  0  0  0  0  0
   10.7746   -3.7011   -0.0615 C   0  0  0  0  0  0  0  0  0  0  0  0
   10.8035   -2.4006   -0.5426 C   0  0  0  0  0  0  0  0  0  0  0  0
   11.8593   -1.5510   -0.1937 C   0  0  0  0  0  0  0  0  0  0  0  0
   11.9084   -0.1473   -0.7566 C   0  0  0  0  0  0  0  0  0  0  0  0
   12.8529   -2.0176    0.6651 C   0  0  0  0  0  0  0  0  0  0  0  0
   12.8644   -3.3330    1.1272 C   0  0  0  0  0  0  0  0  0  0  0  0
   14.0098   -3.8678    1.9787 C   0  0  1  0  0  0  0  0  0  0  0  0
   13.8065   -3.4533    3.3284 O   0  0  0  0  0  0  0  0  0  0  0  0
   14.6738   -3.4305    5.2067 H   0  0  0  0  0  0  0  0  0  0  0  0
   15.8123   -3.3306    3.8209 H   0  0  0  0  0  0  0  0  0  0  0  0
   15.9884   -5.5556    4.8174 H   0  0  0  0  0  0  0  0  0  0  0  0
   14.2085   -5.7818    4.7305 H   0  0  0  0  0  0  0  0  0  0  0  0
   16.1974   -5.6036    2.4153 H   0  0  0  0  0  0  0  0  0  0  0  0
   15.1774   -7.0042    2.8890 H   0  0  0  0  0  0  0  0  0  0  0  0
   14.4103   -5.6570    0.8520 H   0  0  0  0  0  0  0  0  0  0  0  0
   12.3878   -5.7965    3.1322 H   0  0  0  0  0  0  0  0  0  0  0  0
   11.9219   -7.9077    3.9922 H   0  0  0  0  0  0  0  0  0  0  0  0
   12.0663  -10.3774    3.8464 H   0  0  0  0  0  0  0  0  0  0  0  0
   12.9696  -11.4444    1.8105 H   0  0  0  0  0  0  0  0  0  0  0  0
   13.7102  -10.0638   -0.0961 H   0  0  0  0  0  0  0  0  0  0  0  0
   13.5752   -7.6040    0.0463 H   0  0  0  0  0  0  0  0  0  0  0  0
    9.9507   -4.3486   -0.3228 H   0  0  0  0  0  0  0  0  0  0  0  0
   10.0123   -2.0441   -1.1856 H   0  0  0  0  0  0  0  0  0  0  0  0
   12.8015    0.3699   -0.3760 H   0  0  0  0  0  0  0  0  0  0  0  0
   11.9521   -0.1941   -1.8547 H   0  0  0  0  0  0  0  0  0  0  0  0
   11.0070    0.4029   -0.4486 H   0  0  0  0  0  0  0  0  0  0  0  0
   13.6345   -1.3425    0.9809 H   0  0  0  0  0  0  0  0  0  0  0  0
   12.3201   -3.0297    2.0337 H   0  0  0  0  0  0  0  0  0  0  0  0
   14.9512   -3.4440    1.5990 H   0  0  0  0  0  0  0  0  0  0  0  0
  1  2  1  0  0  0  0
  1 21  1  0  0  0  0
  2  3  1  0  0  0  0
  3  4  1  0  0  0  0
  4  5  1  0  0  0  0
  4 20  1  0  0  0  0
  5  6  1  0  0  0  0
  5 12  1  0  0  0  0
  6  7  2  0  0  0  0
  6 11  1  0  0  0  0
  7  8  1  0  0  0  0
  8  9  2  0  0  0  0
  9 10  1  0  0  0  0
 10 11  2  0  0  0  0
 12 13  2  0  0  0  0
 13 14  1  0  0  0  0
 13 19  1  0  0  0  0
 14 15  2  0  0  0  0
 15 16  1  0  0  0  0
 16 17  1  0  0  0  0
 16 18  2  0  0  0  0
 18 19  1  0  0  0  0
 19 20  1  0  0  0  0
 20 21  1  0  0  0  0
  1 22  1  0  0  0  0
  1 23  1  0  0  0  0
  2 24  1  0  0  0  0
  2 25  1  0  0  0  0
  3 26  1  0  0  0  0
  3 27  1  0  0  0  0
  4 28  1  0  0  0  0
  5 29  1  0  0  0  0
  7 30  1  0  0  0  0
  8 31  1  0  0  0  0
  9 32  1  0  0  0  0
 10 33  1  0  0  0  0
 11 34  1  0  0  0  0
 14 35  1  0  0  0  0
 15 36  1  0  0  0  0
 17 37  1  0  0  0  0
 17 38  1  0  0  0  0
 17 39  1  0  0  0  0
 18 40  1  0  0  0  0
 19 41  1  0  0  0  0
 20 42  1  0  0  0  0
M  END
> <ID>
CHEMBL1088740

> <IC50[nM]>
420

$$$$
CHEMBL1088740
  -OEChem-05192314313D
 Structure written by MMmdl.
 42 45  0     1  0  0  0  0  0999 V2000
   14.8892   -3.7991    4.1929 C   0  0  0  0  0  0  0  0  0  0  0  0
   15.0808   -5.3250    4.2402 C   0  0  0  0  0  0  0  0  0  0  0  0
   15.2237   -5.9069    2.8274 C   0  0  0  0  0  0  0  0  0  0  0  0
   14.1038   -5.4118    1.8796 C   0  0  1  0  0  0  0  0  0  0  0  0
   12.7087   -6.0667    2.1153 C   0  0  2  0  0  0  0  0  0  0  0  0
   12.7572   -7.5920    2.0339 C   0  0  0  0  0  0  0  0  0  0  0  0
   12.3194   -8.3758    3.1038 C   0  0  0  0  0  0  0  0  0  0  0  0
   12.3980   -9.7668    3.0196 C   0  0  0  0  0  0  0  0  0  0  0  0
   12.9045  -10.3679    1.8688 C   0  0  0  0  0  0  0  0  0  0  0  0
   13.3260   -9.5931    0.7968 C   0  0  0  0  0  0  0  0  0  0  0  0
   13.2504   -8.2090    0.8799 C   0  0  0  0  0  0  0  0  0  0  0  0
   11.7397   -5.5251    1.1637 N   0  0  0  0  0  0  0  0  0  0  0  0
   11.7924   -4.1803    0.7520 C   0  0  0  0  0  0  0  0  0  0  0  0
   10.7746   -3.7011   -0.0615 C   0  0  0  0  0  0  0  0  0  0  0  0
   10.8035   -2.4006   -0.5426 C   0  0  0  0  0  0  0  0  0  0  0  0
   11.8593   -1.5510   -0.1937 C   0  0  0  0  0  0  0  0  0  0  0  0
   11.9084   -0.1473   -0.7566 C   0  0  0  0  0  0  0  0  0  0  0  0
   12.8529   -2.0176    0.6651 C   0  0  0  0  0  0  0  0  0  0  0  0
   12.8644   -3.3330    1.1272 C   0  0  0  0  0  0  0  0  0  0  0  0
   14.0098   -3.8678    1.9787 C   0  0  1  0  0  0  0  0  0  0  0  0
   13.8065   -3.4533    3.3284 O   0  0  0  0  0  0  0  0  0  0  0  0
   14.6738   -3.4305    5.2067 H   0  0  0  0  0  0  0  0  0  0  0  0
   15.8123   -3.3306    3.8209 H   0  0  0  0  0  0  0  0  0  0  0  0
   15.9884   -5.5556    4.8174 H   0  0  0  0  0  0  0  0  0  0  0  0
   14.2085   -5.7818    4.7305 H   0  0  0  0  0  0  0  0  0  0  0  0
   16.1974   -5.6036    2.4153 H   0  0  0  0  0  0  0  0  0  0  0  0
   15.1774   -7.0042    2.8890 H   0  0  0  0  0  0  0  0  0  0  0  0
   14.4103   -5.6570    0.8520 H   0  0  0  0  0  0  0  0  0  0  0  0
   12.3878   -5.7965    3.1322 H   0  0  0  0  0  0  0  0  0  0  0  0
   11.9219   -7.9077    3.9922 H   0  0  0  0  0  0  0  0  0  0  0  0
   12.0663  -10.3774    3.8464 H   0  0  0  0  0  0  0  0  0  0  0  0
   12.9696  -11.4444    1.8105 H   0  0  0  0  0  0  0  0  0  0  0  0
   13.7102  -10.0638   -0.0961 H   0  0  0  0  0  0  0  0  0  0  0  0
   13.5752   -7.6040    0.0463 H   0  0  0  0  0  0  0  0  0  0  0  0
   10.7393   -4.3605   -0.9413 H   0  0  0  0  0  0  0  0  0  0  0  0
    9.8409   -3.8032    0.5110 H   0  0  0  0  0  0  0  0  0  0  0  0
   10.0123   -2.0441   -1.1856 H   0  0  0  0  0  0  0  0  0  0  0  0
   12.8015    0.3699   -0.3760 H   0  0  0  0  0  0  0  0  0  0  0  0
   11.9521   -0.1941   -1.8547 H   0  0  0  0  0  0  0  0  0  0  0  0
   11.0070    0.4029   -0.4486 H   0  0  0  0  0  0  0  0  0  0  0  0
   13.6345   -1.3425    0.9809 H   0  0  0  0  0  0  0  0  0  0  0  0
   14.9512   -3.4440    1.5990 H   0  0  0  0  0  0  0  0  0  0  0  0
  1  2  1  0  0  0  0
  1 21  1  0  0  0  0
  2  3  1  0  0  0  0
  3  4  1  0  0  0  0
  4  5  1  0  0  0  0
  4 20  1  0  0  0  0
  5  6  1  0  0  0  0
  5 12  1  0  0  0  0
  6  7  2  0  0  0  0
  6 11  1  0  0  0  0
  7  8  1  0  0  0  0
  8  9  2  0  0  0  0
  9 10  1  0  0  0  0
 10 11  2  0  0  0  0
 12 13  2  0  0  0  0
 13 14  1  0  0  0  0
 13 19  1  0  0  0  0
 14 15  1  0  0  0  0
 15 16  2  0  0  0  0
 16 17  1  0  0  0  0
 16 18  1  0  0  0  0
 18 19  2  0  0  0  0
 19 20  1  0  0  0  0
 20 21  1  0  0  0  0
  1 22  1  0  0  0  0
  1 23  1  0  0  0  0
  2 24  1  0  0  0  0
  2 25  1  0  0  0  0
  3 26  1  0  0  0  0
  3 27  1  0  0  0  0
  4 28  1  0  0  0  0
  5 29  1  0  0  0  0
  7 30  1  0  0  0  0
  8 31  1  0  0  0  0
  9 32  1  0  0  0  0
 10 33  1  0  0  0  0
 11 34  1  0  0  0  0
 14 35  1  0  0  0  0
 14 36  1  0  0  0  0
 15 37  1  0  0  0  0
 17 38  1  0  0  0  0
 17 39  1  0  0  0  0
 17 40  1  0  0  0  0
 18 41  1  0  0  0  0
 20 42  1  0  0  0  0
M  END
> <ID>
CHEMBL1088740

> <IC50[nM]>
420

$$$$
