CHEMBL1084115
  -OEChem-05192314313D
 Structure written by MMmdl.
 48 51  0     1  0  0  0  0  0999 V2000
   12.7905    0.8113    0.0884 C   0  0  0  0  0  0  0  0  0  0  0  0
   11.9263   -0.1652   -0.7557 C   0  0  0  0  0  0  0  0  0  0  0  0
   12.4938   -0.2209   -2.1702 C   0  0  0  0  0  0  0  0  0  0  0  0
   10.4639    0.3327   -0.8178 C   0  0  0  0  0  0  0  0  0  0  0  0
   11.8952   -1.5870   -0.1857 C   0  0  0  0  0  0  0  0  0  0  0  0
   10.8567   -2.4703   -0.5485 C   0  0  0  0  0  0  0  0  0  0  0  0
   10.8008   -3.7530   -0.0487 C   0  0  0  0  0  0  0  0  0  0  0  0
   11.8122   -4.2238    0.7871 C   0  0  0  0  0  0  0  0  0  0  0  0
   12.8826   -3.3657    1.1452 C   0  0  0  0  0  0  0  0  0  0  0  0
   12.8768   -2.0583    0.6771 C   0  0  0  0  0  0  0  0  0  0  0  0
   14.0286   -3.8762    1.9932 C   0  0  1  0  0  0  0  0  0  0  0  0
   13.8036   -3.4388    3.3367 O   0  0  0  0  0  0  0  0  0  0  0  0
   14.8743   -3.7832    4.2226 C   0  0  0  0  0  0  0  0  0  0  0  0
   15.0676   -5.3199    4.2586 C   0  0  0  0  0  0  0  0  0  0  0  0
   15.2317   -5.8973    2.8508 C   0  0  0  0  0  0  0  0  0  0  0  0
   14.1288   -5.4003    1.8929 C   0  0  1  0  0  0  0  0  0  0  0  0
   12.7338   -6.0798    2.1298 C   0  0  2  0  0  0  0  0  0  0  0  0
   12.7833   -7.5758    1.9513 C   0  0  0  0  0  0  0  0  0  0  0  0
   13.3328   -8.2240    0.8368 C   0  0  0  0  0  0  0  0  0  0  0  0
   13.3036   -9.5996    0.9042 C   0  0  0  0  0  0  0  0  0  0  0  0
   12.5533  -10.1505    2.3594 S   0  0  0  0  0  0  0  0  0  0  0  0
   12.2835   -8.5069    2.8549 C   0  0  0  0  0  0  0  0  0  0  0  0
   11.7330   -5.5400    1.2141 N   0  0  0  0  0  0  0  0  0  0  0  0
   12.3927    0.8620    1.1127 H   0  0  0  0  0  0  0  0  0  0  0  0
   13.8294    0.4510    0.1161 H   0  0  0  0  0  0  0  0  0  0  0  0
   12.7617    1.8127   -0.3660 H   0  0  0  0  0  0  0  0  0  0  0  0
   11.8913   -0.9095   -2.7807 H   0  0  0  0  0  0  0  0  0  0  0  0
   12.4660    0.7843   -2.6161 H   0  0  0  0  0  0  0  0  0  0  0  0
   13.5338   -0.5774   -2.1341 H   0  0  0  0  0  0  0  0  0  0  0  0
    9.8631   -0.3667   -1.4177 H   0  0  0  0  0  0  0  0  0  0  0  0
   10.0524    0.3891    0.2007 H   0  0  0  0  0  0  0  0  0  0  0  0
   10.4357    1.3303   -1.2805 H   0  0  0  0  0  0  0  0  0  0  0  0
   10.0904   -2.1344   -1.2315 H   0  0  0  0  0  0  0  0  0  0  0  0
    9.9713   -4.3953   -0.3051 H   0  0  0  0  0  0  0  0  0  0  0  0
   13.6606   -1.3863    0.9940 H   0  0  0  0  0  0  0  0  0  0  0  0
   14.9654   -3.4418    1.6140 H   0  0  0  0  0  0  0  0  0  0  0  0
   15.8026   -3.3086    3.8719 H   0  0  0  0  0  0  0  0  0  0  0  0
   14.6381   -3.4232    5.2348 H   0  0  0  0  0  0  0  0  0  0  0  0
   15.9666   -5.5534    4.8478 H   0  0  0  0  0  0  0  0  0  0  0  0
   14.1884   -5.7798    4.7334 H   0  0  0  0  0  0  0  0  0  0  0  0
   16.2113   -5.5930    2.4536 H   0  0  0  0  0  0  0  0  0  0  0  0
   15.1843   -6.9947    2.9088 H   0  0  0  0  0  0  0  0  0  0  0  0
   14.4427   -5.6483    0.8682 H   0  0  0  0  0  0  0  0  0  0  0  0
   12.4281   -5.8630    3.1640 H   0  0  0  0  0  0  0  0  0  0  0  0
   13.7453   -7.6889   -0.0058 H   0  0  0  0  0  0  0  0  0  0  0  0
   13.7008  -10.2530    0.1414 H   0  0  0  0  0  0  0  0  0  0  0  0
   11.7793   -8.2364    3.7709 H   0  0  0  0  0  0  0  0  0  0  0  0
   10.8463   -5.6428    1.6648 H   0  0  0  0  0  0  0  0  0  0  0  0
  1  2  1  0  0  0  0
  2  3  1  0  0  0  0
  2  4  1  0  0  0  0
  2  5  1  0  0  0  0
  5  6  2  0  0  0  0
  5 10  1  0  0  0  0
  6  7  1  0  0  0  0
  7  8  2  0  0  0  0
  8  9  1  0  0  0  0
  8 23  1  0  0  0  0
  9 10  2  0  0  0  0
  9 11  1  0  0  0  0
 11 12  1  0  0  0  0
 11 16  1  0  0  0  0
 12 13  1  0  0  0  0
 13 14  1  0  0  0  0
 14 15  1  0  0  0  0
 15 16  1  0  0  0  0
 16 17  1  0  0  0  0
 17 18  1  0  0  0  0
 17 23  1  0  0  0  0
 18 19  1  0  0  0  0
 18 22  2  0  0  0  0
 19 20  2  0  0  0  0
 20 21  1  0  0  0  0
 21 22  1  0  0  0  0
  1 24  1  0  0  0  0
  1 25  1  0  0  0  0
  1 26  1  0  0  0  0
  3 27  1  0  0  0  0
  3 28  1  0  0  0  0
  3 29  1  0  0  0  0
  4 30  1  0  0  0  0
  4 31  1  0  0  0  0
  4 32  1  0  0  0  0
  6 33  1  0  0  0  0
  7 34  1  0  0  0  0
 10 35  1  0  0  0  0
 11 36  1  0  0  0  0
 13 37  1  0  0  0  0
 13 38  1  0  0  0  0
 14 39  1  0  0  0  0
 14 40  1  0  0  0  0
 15 41  1  0  0  0  0
 15 42  1  0  0  0  0
 16 43  1  0  0  0  0
 17 44  1  0  0  0  0
 19 45  1  0  0  0  0
 20 46  1  0  0  0  0
 22 47  1  0  0  0  0
 23 48  1  0  0  0  0
M  END
> <ID>
CHEMBL1084115

> <IC50[nM]>
120

$$$$
CHEMBL1084115
  -OEChem-05192314313D
 Structure written by MMmdl.
 48 51  0     1  0  0  0  0  0999 V2000
   12.7905    0.8113    0.0884 C   0  0  0  0  0  0  0  0  0  0  0  0
   11.9263   -0.1652   -0.7557 C   0  0  0  0  0  0  0  0  0  0  0  0
   12.4938   -0.2209   -2.1702 C   0  0  0  0  0  0  0  0  0  0  0  0
   10.4639    0.3327   -0.8178 C   0  0  0  0  0  0  0  0  0  0  0  0
   11.8952   -1.5870   -0.1857 C   0  0  0  0  0  0  0  0  0  0  0  0
   10.8567   -2.4703   -0.5485 C   0  0  0  0  0  0  0  0  0  0  0  0
   10.8008   -3.7530   -0.0487 C   0  0  0  0  0  0  0  0  0  0  0  0
   11.8122   -4.2238    0.7871 C   0  0  0  0  0  0  0  0  0  0  0  0
   12.8826   -3.3657    1.1452 C   0  0  0  0  0  0  0  0  0  0  0  0
   12.8768   -2.0583    0.6771 C   0  0  0  0  0  0  0  0  0  0  0  0
   14.0286   -3.8762    1.9932 C   0  0  1  0  0  0  0  0  0  0  0  0
   13.8036   -3.4388    3.3367 O   0  0  0  0  0  0  0  0  0  0  0  0
   14.8743   -3.7832    4.2226 C   0  0  0  0  0  0  0  0  0  0  0  0
   15.0676   -5.3199    4.2586 C   0  0  0  0  0  0  0  0  0  0  0  0
   15.2317   -5.8973    2.8508 C   0  0  0  0  0  0  0  0  0  0  0  0
   14.1288   -5.4003    1.8929 C   0  0  1  0  0  0  0  0  0  0  0  0
   12.7338   -6.0798    2.1298 C   0  0  2  0  0  0  0  0  0  0  0  0
   12.7833   -7.5758    1.9513 C   0  0  0  0  0  0  0  0  0  0  0  0
   13.3328   -8.2240    0.8368 C   0  0  0  0  0  0  0  0  0  0  0  0
   13.3036   -9.5996    0.9042 C   0  0  0  0  0  0  0  0  0  0  0  0
   12.5533  -10.1505    2.3594 S   0  0  0  0  0  0  0  0  0  0  0  0
   12.2835   -8.5069    2.8549 C   0  0  0  0  0  0  0  0  0  0  0  0
   11.7330   -5.5400    1.2141 N   0  0  0  0  0  0  0  0  0  0  0  0
   12.3927    0.8620    1.1127 H   0  0  0  0  0  0  0  0  0  0  0  0
   13.8294    0.4510    0.1161 H   0  0  0  0  0  0  0  0  0  0  0  0
   12.7617    1.8127   -0.3660 H   0  0  0  0  0  0  0  0  0  0  0  0
   11.8913   -0.9095   -2.7807 H   0  0  0  0  0  0  0  0  0  0  0  0
   12.4660    0.7843   -2.6161 H   0  0  0  0  0  0  0  0  0  0  0  0
   13.5338   -0.5774   -2.1341 H   0  0  0  0  0  0  0  0  0  0  0  0
    9.8631   -0.3667   -1.4177 H   0  0  0  0  0  0  0  0  0  0  0  0
   10.0524    0.3891    0.2007 H   0  0  0  0  0  0  0  0  0  0  0  0
   10.4357    1.3303   -1.2805 H   0  0  0  0  0  0  0  0  0  0  0  0
   11.3031   -1.2352    0.6720 H   0  0  0  0  0  0  0  0  0  0  0  0
   10.0904   -2.1344   -1.2315 H   0  0  0  0  0  0  0  0  0  0  0  0
    9.9713   -4.3953   -0.3051 H   0  0  0  0  0  0  0  0  0  0  0  0
   13.6606   -1.3863    0.9940 H   0  0  0  0  0  0  0  0  0  0  0  0
   14.9654   -3.4418    1.6140 H   0  0  0  0  0  0  0  0  0  0  0  0
   15.8026   -3.3086    3.8719 H   0  0  0  0  0  0  0  0  0  0  0  0
   14.6381   -3.4232    5.2348 H   0  0  0  0  0  0  0  0  0  0  0  0
   15.9666   -5.5534    4.8478 H   0  0  0  0  0  0  0  0  0  0  0  0
   14.1884   -5.7798    4.7334 H   0  0  0  0  0  0  0  0  0  0  0  0
   16.2113   -5.5930    2.4536 H   0  0  0  0  0  0  0  0  0  0  0  0
   15.1843   -6.9947    2.9088 H   0  0  0  0  0  0  0  0  0  0  0  0
   14.4427   -5.6483    0.8682 H   0  0  0  0  0  0  0  0  0  0  0  0
   12.4281   -5.8630    3.1640 H   0  0  0  0  0  0  0  0  0  0  0  0
   13.7453   -7.6889   -0.0058 H   0  0  0  0  0  0  0  0  0  0  0  0
   13.7008  -10.2530    0.1414 H   0  0  0  0  0  0  0  0  0  0  0  0
   11.7793   -8.2364    3.7709 H   0  0  0  0  0  0  0  0  0  0  0  0
  1  2  1  0  0  0  0
  2  3  1  0  0  0  0
  2  4  1  0  0  0  0
  2  5  1  0  0  0  0
  5  6  1  0  0  0  0
  5 10  1  0  0  0  0
  6  7  2  0  0  0  0
  7  8  1  0  0  0  0
  8  9  1  0  0  0  0
  8 23  2  0  0  0  0
  9 10  2  0  0  0  0
  9 11  1  0  0  0  0
 11 12  1  0  0  0  0
 11 16  1  0  0  0  0
 12 13  1  0  0  0  0
 13 14  1  0  0  0  0
 14 15  1  0  0  0  0
 15 16  1  0  0  0  0
 16 17  1  0  0  0  0
 17 18  1  0  0  0  0
 17 23  1  0  0  0  0
 18 19  1  0  0  0  0
 18 22  2  0  0  0  0
 19 20  2  0  0  0  0
 20 21  1  0  0  0  0
 21 22  1  0  0  0  0
  1 24  1  0  0  0  0
  1 25  1  0  0  0  0
  1 26  1  0  0  0  0
  3 27  1  0  0  0  0
  3 28  1  0  0  0  0
  3 29  1  0  0  0  0
  4 30  1  0  0  0  0
  4 31  1  0  0  0  0
  4 32  1  0  0  0  0
  5 33  1  0  0  0  0
  6 34  1  0  0  0  0
  7 35  1  0  0  0  0
 10 36  1  0  0  0  0
 11 37  1  0  0  0  0
 13 38  1  0  0  0  0
 13 39  1  0  0  0  0
 14 40  1  0  0  0  0
 14 41  1  0  0  0  0
 15 42  1  0  0  0  0
 15 43  1  0  0  0  0
 16 44  1  0  0  0  0
 17 45  1  0  0  0  0
 19 46  1  0  0  0  0
 20 47  1  0  0  0  0
 22 48  1  0  0  0  0
M  END
> <ID>
CHEMBL1084115

> <IC50[nM]>
120

$$$$
CHEMBL1084115
  -OEChem-05192314313D
 Structure written by MMmdl.
 48 51  0     1  0  0  0  0  0999 V2000
   12.7905    0.8113    0.0884 C   0  0  0  0  0  0  0  0  0  0  0  0
   11.9263   -0.1652   -0.7557 C   0  0  0  0  0  0  0  0  0  0  0  0
   12.4938   -0.2209   -2.1702 C   0  0  0  0  0  0  0  0  0  0  0  0
   10.4639    0.3327   -0.8178 C   0  0  0  0  0  0  0  0  0  0  0  0
   11.8952   -1.5870   -0.1857 C   0  0  0  0  0  0  0  0  0  0  0  0
   10.8567   -2.4703   -0.5485 C   0  0  0  0  0  0  0  0  0  0  0  0
   10.8008   -3.7530   -0.0487 C   0  0  0  0  0  0  0  0  0  0  0  0
   11.8122   -4.2238    0.7871 C   0  0  0  0  0  0  0  0  0  0  0  0
   12.8826   -3.3657    1.1452 C   0  0  0  0  0  0  0  0  0  0  0  0
   12.8768   -2.0583    0.6771 C   0  0  0  0  0  0  0  0  0  0  0  0
   14.0286   -3.8762    1.9932 C   0  0  1  0  0  0  0  0  0  0  0  0
   13.8036   -3.4388    3.3367 O   0  0  0  0  0  0  0  0  0  0  0  0
   14.8743   -3.7832    4.2226 C   0  0  0  0  0  0  0  0  0  0  0  0
   15.0676   -5.3199    4.2586 C   0  0  0  0  0  0  0  0  0  0  0  0
   15.2317   -5.8973    2.8508 C   0  0  0  0  0  0  0  0  0  0  0  0
   14.1288   -5.4003    1.8929 C   0  0  1  0  0  0  0  0  0  0  0  0
   12.7338   -6.0798    2.1298 C   0  0  2  0  0  0  0  0  0  0  0  0
   12.7833   -7.5758    1.9513 C   0  0  0  0  0  0  0  0  0  0  0  0
   13.3328   -8.2240    0.8368 C   0  0  0  0  0  0  0  0  0  0  0  0
   13.3036   -9.5996    0.9042 C   0  0  0  0  0  0  0  0  0  0  0  0
   12.5533  -10.1505    2.3594 S   0  0  0  0  0  0  0  0  0  0  0  0
   12.2835   -8.5069    2.8549 C   0  0  0  0  0  0  0  0  0  0  0  0
   11.7330   -5.5400    1.2141 N   0  0  0  0  0  0  0  0  0  0  0  0
   12.3927    0.8620    1.1127 H   0  0  0  0  0  0  0  0  0  0  0  0
   13.8294    0.4510    0.1161 H   0  0  0  0  0  0  0  0  0  0  0  0
   12.7617    1.8127   -0.3660 H   0  0  0  0  0  0  0  0  0  0  0  0
   11.8913   -0.9095   -2.7807 H   0  0  0  0  0  0  0  0  0  0  0  0
   12.4660    0.7843   -2.6161 H   0  0  0  0  0  0  0  0  0  0  0  0
   13.5338   -0.5774   -2.1341 H   0  0  0  0  0  0  0  0  0  0  0  0
    9.8631   -0.3667   -1.4177 H   0  0  0  0  0  0  0  0  0  0  0  0
   10.0524    0.3891    0.2007 H   0  0  0  0  0  0  0  0  0  0  0  0
   10.4357    1.3303   -1.2805 H   0  0  0  0  0  0  0  0  0  0  0  0
   10.0904   -2.1344   -1.2315 H   0  0  0  0  0  0  0  0  0  0  0  0
    9.9713   -4.3953   -0.3051 H   0  0  0  0  0  0  0  0  0  0  0  0
   12.3411   -3.0535    2.0503 H   0  0  0  0  0  0  0  0  0  0  0  0
   13.6606   -1.3863    0.9940 H   0  0  0  0  0  0  0  0  0  0  0  0
   14.9654   -3.4418    1.6140 H   0  0  0  0  0  0  0  0  0  0  0  0
   15.8026   -3.3086    3.8719 H   0  0  0  0  0  0  0  0  0  0  0  0
   14.6381   -3.4232    5.2348 H   0  0  0  0  0  0  0  0  0  0  0  0
   15.9666   -5.5534    4.8478 H   0  0  0  0  0  0  0  0  0  0  0  0
   14.1884   -5.7798    4.7334 H   0  0  0  0  0  0  0  0  0  0  0  0
   16.2113   -5.5930    2.4536 H   0  0  0  0  0  0  0  0  0  0  0  0
   15.1843   -6.9947    2.9088 H   0  0  0  0  0  0  0  0  0  0  0  0
   14.4427   -5.6483    0.8682 H   0  0  0  0  0  0  0  0  0  0  0  0
   12.4281   -5.8630    3.1640 H   0  0  0  0  0  0  0  0  0  0  0  0
   13.7453   -7.6889   -0.0058 H   0  0  0  0  0  0  0  0  0  0  0  0
   13.7008  -10.2530    0.1414 H   0  0  0  0  0  0  0  0  0  0  0  0
   11.7793   -8.2364    3.7709 H   0  0  0  0  0  0  0  0  0  0  0  0
  1  2  1  0  0  0  0
  2  3  1  0  0  0  0
  2  4  1  0  0  0  0
  2  5  1  0  0  0  0
  5  6  1  0  0  0  0
  5 10  2  0  0  0  0
  6  7  2  0  0  0  0
  7  8  1  0  0  0  0
  8  9  1  0  0  0  0
  8 23  2  0  0  0  0
  9 10  1  0  0  0  0
  9 11  1  0  0  0  0
 11 12  1  0  0  0  0
 11 16  1  0  0  0  0
 12 13  1  0  0  0  0
 13 14  1  0  0  0  0
 14 15  1  0  0  0  0
 15 16  1  0  0  0  0
 16 17  1  0  0  0  0
 17 18  1  0  0  0  0
 17 23  1  0  0  0  0
 18 19  1  0  0  0  0
 18 22  2  0  0  0  0
 19 20  2  0  0  0  0
 20 21  1  0  0  0  0
 21 22  1  0  0  0  0
  1 24  1  0  0  0  0
  1 25  1  0  0  0  0
  1 26  1  0  0  0  0
  3 27  1  0  0  0  0
  3 28  1  0  0  0  0
  3 29  1  0  0  0  0
  4 30  1  0  0  0  0
  4 31  1  0  0  0  0
  4 32  1  0  0  0  0
  6 33  1  0  0  0  0
  7 34  1  0  0  0  0
  9 35  1  0  0  0  0
 10 36  1  0  0  0  0
 11 37  1  0  0  0  0
 13 38  1  0  0  0  0
 13 39  1  0  0  0  0
 14 40  1  0  0  0  0
 14 41  1  0  0  0  0
 15 42  1  0  0  0  0
 15 43  1  0  0  0  0
 16 44  1  0  0  0  0
 17 45  1  0  0  0  0
 19 46  1  0  0  0  0
 20 47  1  0  0  0  0
 22 48  1  0  0  0  0
M  END
> <ID>
CHEMBL1084115

> <IC50[nM]>
120

$$$$
CHEMBL1084115
  -OEChem-05192314313D
 Structure written by MMmdl.
 48 51  0     1  0  0  0  0  0999 V2000
   12.7905    0.8113    0.0884 C   0  0  0  0  0  0  0  0  0  0  0  0
   11.9263   -0.1652   -0.7557 C   0  0  0  0  0  0  0  0  0  0  0  0
   12.4938   -0.2209   -2.1702 C   0  0  0  0  0  0  0  0  0  0  0  0
   10.4639    0.3327   -0.8178 C   0  0  0  0  0  0  0  0  0  0  0  0
   11.8952   -1.5870   -0.1857 C   0  0  0  0  0  0  0  0  0  0  0  0
   10.8567   -2.4703   -0.5485 C   0  0  0  0  0  0  0  0  0  0  0  0
   10.8008   -3.7530   -0.0487 C   0  0  0  0  0  0  0  0  0  0  0  0
   11.8122   -4.2238    0.7871 C   0  0  0  0  0  0  0  0  0  0  0  0
   12.8826   -3.3657    1.1452 C   0  0  0  0  0  0  0  0  0  0  0  0
   12.8768   -2.0583    0.6771 C   0  0  0  0  0  0  0  0  0  0  0  0
   14.0286   -3.8762    1.9932 C   0  0  1  0  0  0  0  0  0  0  0  0
   13.8036   -3.4388    3.3367 O   0  0  0  0  0  0  0  0  0  0  0  0
   14.8743   -3.7832    4.2226 C   0  0  0  0  0  0  0  0  0  0  0  0
   15.0676   -5.3199    4.2586 C   0  0  0  0  0  0  0  0  0  0  0  0
   15.2317   -5.8973    2.8508 C   0  0  0  0  0  0  0  0  0  0  0  0
   14.1288   -5.4003    1.8929 C   0  0  1  0  0  0  0  0  0  0  0  0
   12.7338   -6.0798    2.1298 C   0  0  2  0  0  0  0  0  0  0  0  0
   12.7833   -7.5758    1.9513 C   0  0  0  0  0  0  0  0  0  0  0  0
   13.3328   -8.2240    0.8368 C   0  0  0  0  0  0  0  0  0  0  0  0
   13.3036   -9.5996    0.9042 C   0  0  0  0  0  0  0  0  0  0  0  0
   12.5533  -10.1505    2.3594 S   0  0  0  0  0  0  0  0  0  0  0  0
   12.2835   -8.5069    2.8549 C   0  0  0  0  0  0  0  0  0  0  0  0
   11.7330   -5.5400    1.2141 N   0  0  0  0  0  0  0  0  0  0  0  0
   12.3927    0.8620    1.1127 H   0  0  0  0  0  0  0  0  0  0  0  0
   13.8294    0.4510    0.1161 H   0  0  0  0  0  0  0  0  0  0  0  0
   12.7617    1.8127   -0.3660 H   0  0  0  0  0  0  0  0  0  0  0  0
   11.8913   -0.9095   -2.7807 H   0  0  0  0  0  0  0  0  0  0  0  0
   12.4660    0.7843   -2.6161 H   0  0  0  0  0  0  0  0  0  0  0  0
   13.5338   -0.5774   -2.1341 H   0  0  0  0  0  0  0  0  0  0  0  0
    9.8631   -0.3667   -1.4177 H   0  0  0  0  0  0  0  0  0  0  0  0
   10.0524    0.3891    0.2007 H   0  0  0  0  0  0  0  0  0  0  0  0
   10.4357    1.3303   -1.2805 H   0  0  0  0  0  0  0  0  0  0  0  0
   10.0904   -2.1344   -1.2315 H   0  0  0  0  0  0  0  0  0  0  0  0
    9.8604   -3.8320    0.5165 H   0  0  0  0  0  0  0  0  0  0  0  0
   10.7656   -4.4294   -0.9154 H   0  0  0  0  0  0  0  0  0  0  0  0
   13.6606   -1.3863    0.9940 H   0  0  0  0  0  0  0  0  0  0  0  0
   14.9654   -3.4418    1.6140 H   0  0  0  0  0  0  0  0  0  0  0  0
   15.8026   -3.3086    3.8719 H   0  0  0  0  0  0  0  0  0  0  0  0
   14.6381   -3.4232    5.2348 H   0  0  0  0  0  0  0  0  0  0  0  0
   15.9666   -5.5534    4.8478 H   0  0  0  0  0  0  0  0  0  0  0  0
   14.1884   -5.7798    4.7334 H   0  0  0  0  0  0  0  0  0  0  0  0
   16.2113   -5.5930    2.4536 H   0  0  0  0  0  0  0  0  0  0  0  0
   15.1843   -6.9947    2.9088 H   0  0  0  0  0  0  0  0  0  0  0  0
   14.4427   -5.6483    0.8682 H   0  0  0  0  0  0  0  0  0  0  0  0
   12.4281   -5.8630    3.1640 H   0  0  0  0  0  0  0  0  0  0  0  0
   13.7453   -7.6889   -0.0058 H   0  0  0  0  0  0  0  0  0  0  0  0
   13.7008  -10.2530    0.1414 H   0  0  0  0  0  0  0  0  0  0  0  0
   11.7793   -8.2364    3.7709 H   0  0  0  0  0  0  0  0  0  0  0  0
  1  2  1  0  0  0  0
  2  3  1  0  0  0  0
  2  4  1  0  0  0  0
  2  5  1  0  0  0  0
  5  6  2  0  0  0  0
  5 10  1  0  0  0  0
  6  7  1  0  0  0  0
  7  8  1  0  0  0  0
  8  9  1  0  0  0  0
  8 23  2  0  0  0  0
  9 10  2  0  0  0  0
  9 11  1  0  0  0  0
 11 12  1  0  0  0  0
 11 16  1  0  0  0  0
 12 13  1  0  0  0  0
 13 14  1  0  0  0  0
 14 15  1  0  0  0  0
 15 16  1  0  0  0  0
 16 17  1  0  0  0  0
 17 18  1  0  0  0  0
 17 23  1  0  0  0  0
 18 19  1  0  0  0  0
 18 22  2  0  0  0  0
 19 20  2  0  0  0  0
 20 21  1  0  0  0  0
 21 22  1  0  0  0  0
  1 24  1  0  0  0  0
  1 25  1  0  0  0  0
  1 26  1  0  0  0  0
  3 27  1  0  0  0  0
  3 28  1  0  0  0  0
  3 29  1  0  0  0  0
  4 30  1  0  0  0  0
  4 31  1  0  0  0  0
  4 32  1  0  0  0  0
  6 33  1  0  0  0  0
  7 34  1  0  0  0  0
  7 35  1  0  0  0  0
 10 36  1  0  0  0  0
 11 37  1  0  0  0  0
 13 38  1  0  0  0  0
 13 39  1  0  0  0  0
 14 40  1  0  0  0  0
 14 41  1  0  0  0  0
 15 42  1  0  0  0  0
 15 43  1  0  0  0  0
 16 44  1  0  0  0  0
 17 45  1  0  0  0  0
 19 46  1  0  0  0  0
 20 47  1  0  0  0  0
 22 48  1  0  0  0  0
M  END
> <ID>
CHEMBL1084115

> <IC50[nM]>
120

$$$$
