CHEMBL1078774
  -OEChem-05192314313D
 Structure written by MMmdl.
 52 55  0     1  0  0  0  0  0999 V2000
   12.8146    0.8080    0.0689 C   0  0  0  0  0  0  0  0  0  0  0  0
   11.9194   -0.1474   -0.7542 C   0  0  0  0  0  0  0  0  0  0  0  0
   10.4685    0.3660   -0.7781 C   0  0  0  0  0  0  0  0  0  0  0  0
   12.4753   -0.2208   -2.1781 C   0  0  0  0  0  0  0  0  0  0  0  0
   11.8886   -1.5790   -0.1851 C   0  0  0  0  0  0  0  0  0  0  0  0
   10.8516   -2.4541   -0.5469 C   0  0  0  0  0  0  0  0  0  0  0  0
   10.7947   -3.7435   -0.0550 C   0  0  0  0  0  0  0  0  0  0  0  0
   11.8117   -4.2036    0.7644 C   0  0  0  0  0  0  0  0  0  0  0  0
   12.8807   -3.3692    1.1329 C   0  0  0  0  0  0  0  0  0  0  0  0
   12.8820   -2.0552    0.6763 C   0  0  0  0  0  0  0  0  0  0  0  0
   14.0286   -3.8741    1.9864 C   0  0  1  0  0  0  0  0  0  0  0  0
   13.8076   -3.4485    3.3326 O   0  0  0  0  0  0  0  0  0  0  0  0
   14.8758   -3.7894    4.2165 C   0  0  0  0  0  0  0  0  0  0  0  0
   15.0715   -5.3181    4.2567 C   0  0  0  0  0  0  0  0  0  0  0  0
   15.2314   -5.9009    2.8436 C   0  0  0  0  0  0  0  0  0  0  0  0
   14.1181   -5.4079    1.8901 C   0  0  1  0  0  0  0  0  0  0  0  0
   12.7185   -6.0488    2.1265 C   0  0  2  0  0  0  0  0  0  0  0  0
   12.7612   -7.5479    2.0351 C   0  0  0  0  0  0  0  0  0  0  0  0
   13.2453   -8.1893    0.8854 C   0  0  0  0  0  0  0  0  0  0  0  0
   13.3212   -9.5776    0.8297 C   0  0  0  0  0  0  0  0  0  0  0  0
   12.9274  -10.3120    1.9477 C   0  0  0  0  0  0  0  0  0  0  0  0
   12.9755  -11.6650    2.0910 O   0  0  0  0  0  0  0  0  0  0  0  0
   12.4304   -9.6686    3.0444 C   0  0  0  0  0  0  0  0  0  0  0  0
   12.0577  -10.4439    4.0695 F   0  0  0  0  0  0  0  0  0  0  0  0
   12.3226   -8.3021    3.1210 C   0  0  0  0  0  0  0  0  0  0  0  0
   11.7434   -5.5361    1.1782 N   0  0  0  0  0  0  0  0  0  0  0  0
   13.8470    0.4283    0.0768 H   0  0  0  0  0  0  0  0  0  0  0  0
   12.7960    1.8098   -0.3850 H   0  0  0  0  0  0  0  0  0  0  0  0
   12.4375    0.8658    1.1006 H   0  0  0  0  0  0  0  0  0  0  0  0
    9.8448   -0.3231   -1.3665 H   0  0  0  0  0  0  0  0  0  0  0  0
   10.0826    0.4222    0.2504 H   0  0  0  0  0  0  0  0  0  0  0  0
   10.4411    1.3662   -1.2352 H   0  0  0  0  0  0  0  0  0  0  0  0
   11.8515   -0.8968   -2.7814 H   0  0  0  0  0  0  0  0  0  0  0  0
   12.4674    0.7835   -2.6269 H   0  0  0  0  0  0  0  0  0  0  0  0
   13.5069   -0.6016   -2.1497 H   0  0  0  0  0  0  0  0  0  0  0  0
   10.0827   -2.1118   -1.2237 H   0  0  0  0  0  0  0  0  0  0  0  0
    9.9647   -4.3869   -0.3071 H   0  0  0  0  0  0  0  0  0  0  0  0
   13.6687   -1.3871    0.9945 H   0  0  0  0  0  0  0  0  0  0  0  0
   14.9676   -3.4454    1.6062 H   0  0  0  0  0  0  0  0  0  0  0  0
   15.8033   -3.3142    3.8646 H   0  0  0  0  0  0  0  0  0  0  0  0
   14.6392   -3.4274    5.2279 H   0  0  0  0  0  0  0  0  0  0  0  0
   15.9735   -5.5480    4.8427 H   0  0  0  0  0  0  0  0  0  0  0  0
   14.1953   -5.7785    4.7366 H   0  0  0  0  0  0  0  0  0  0  0  0
   16.2076   -5.5939    2.4401 H   0  0  0  0  0  0  0  0  0  0  0  0
   15.1883   -6.9984    2.9040 H   0  0  0  0  0  0  0  0  0  0  0  0
   14.4256   -5.6592    0.8643 H   0  0  0  0  0  0  0  0  0  0  0  0
   12.3990   -5.7773    3.1435 H   0  0  0  0  0  0  0  0  0  0  0  0
   13.5616   -7.6010    0.0367 H   0  0  0  0  0  0  0  0  0  0  0  0
   13.6774  -10.0755   -0.0601 H   0  0  0  0  0  0  0  0  0  0  0  0
   12.6476  -11.9048    2.9498 H   0  0  0  0  0  0  0  0  0  0  0  0
   11.9097   -7.8256    3.9979 H   0  0  0  0  0  0  0  0  0  0  0  0
   10.8420   -5.6651    1.5915 H   0  0  0  0  0  0  0  0  0  0  0  0
  1  2  1  0  0  0  0
  2  3  1  0  0  0  0
  2  4  1  0  0  0  0
  2  5  1  0  0  0  0
  5  6  2  0  0  0  0
  5 10  1  0  0  0  0
  6  7  1  0  0  0  0
  7  8  2  0  0  0  0
  8  9  1  0  0  0  0
  8 26  1  0  0  0  0
  9 10  2  0  0  0  0
  9 11  1  0  0  0  0
 11 12  1  0  0  0  0
 11 16  1  0  0  0  0
 12 13  1  0  0  0  0
 13 14  1  0  0  0  0
 14 15  1  0  0  0  0
 15 16  1  0  0  0  0
 16 17  1  0  0  0  0
 17 18  1  0  0  0  0
 17 26  1  0  0  0  0
 18 19  2  0  0  0  0
 18 25  1  0  0  0  0
 19 20  1  0  0  0  0
 20 21  2  0  0  0  0
 21 22  1  0  0  0  0
 21 23  1  0  0  0  0
 23 24  1  0  0  0  0
 23 25  2  0  0  0  0
  1 27  1  0  0  0  0
  1 28  1  0  0  0  0
  1 29  1  0  0  0  0
  3 30  1  0  0  0  0
  3 31  1  0  0  0  0
  3 32  1  0  0  0  0
  4 33  1  0  0  0  0
  4 34  1  0  0  0  0
  4 35  1  0  0  0  0
  6 36  1  0  0  0  0
  7 37  1  0  0  0  0
 10 38  1  0  0  0  0
 11 39  1  0  0  0  0
 13 40  1  0  0  0  0
 13 41  1  0  0  0  0
 14 42  1  0  0  0  0
 14 43  1  0  0  0  0
 15 44  1  0  0  0  0
 15 45  1  0  0  0  0
 16 46  1  0  0  0  0
 17 47  1  0  0  0  0
 19 48  1  0  0  0  0
 20 49  1  0  0  0  0
 22 50  1  0  0  0  0
 25 51  1  0  0  0  0
 26 52  1  0  0  0  0
M  END
> <ID>
CHEMBL1078774

> <IC50[nM]>
17

$$$$
CHEMBL1078774
  -OEChem-05192314313D
 Structure written by MMmdl.
 52 55  0     1  0  0  0  0  0999 V2000
   12.8146    0.8080    0.0689 C   0  0  0  0  0  0  0  0  0  0  0  0
   11.9194   -0.1474   -0.7542 C   0  0  0  0  0  0  0  0  0  0  0  0
   10.4685    0.3660   -0.7781 C   0  0  0  0  0  0  0  0  0  0  0  0
   12.4753   -0.2208   -2.1781 C   0  0  0  0  0  0  0  0  0  0  0  0
   11.8886   -1.5790   -0.1851 C   0  0  0  0  0  0  0  0  0  0  0  0
   10.8516   -2.4541   -0.5469 C   0  0  0  0  0  0  0  0  0  0  0  0
   10.7947   -3.7435   -0.0550 C   0  0  0  0  0  0  0  0  0  0  0  0
   11.8117   -4.2036    0.7644 C   0  0  0  0  0  0  0  0  0  0  0  0
   12.8807   -3.3692    1.1329 C   0  0  0  0  0  0  0  0  0  0  0  0
   12.8820   -2.0552    0.6763 C   0  0  0  0  0  0  0  0  0  0  0  0
   14.0286   -3.8741    1.9864 C   0  0  1  0  0  0  0  0  0  0  0  0
   13.8076   -3.4485    3.3326 O   0  0  0  0  0  0  0  0  0  0  0  0
   14.8758   -3.7894    4.2165 C   0  0  0  0  0  0  0  0  0  0  0  0
   15.0715   -5.3181    4.2567 C   0  0  0  0  0  0  0  0  0  0  0  0
   15.2314   -5.9009    2.8436 C   0  0  0  0  0  0  0  0  0  0  0  0
   14.1181   -5.4079    1.8901 C   0  0  1  0  0  0  0  0  0  0  0  0
   12.7185   -6.0488    2.1265 C   0  0  2  0  0  0  0  0  0  0  0  0
   12.7612   -7.5479    2.0351 C   0  0  0  0  0  0  0  0  0  0  0  0
   13.2453   -8.1893    0.8854 C   0  0  0  0  0  0  0  0  0  0  0  0
   13.3212   -9.5776    0.8297 C   0  0  0  0  0  0  0  0  0  0  0  0
   12.9274  -10.3120    1.9477 C   0  0  0  0  0  0  0  0  0  0  0  0
   12.9755  -11.6650    2.0910 O   0  0  0  0  0  0  0  0  0  0  0  0
   12.4304   -9.6686    3.0444 C   0  0  0  0  0  0  0  0  0  0  0  0
   12.0577  -10.4439    4.0695 F   0  0  0  0  0  0  0  0  0  0  0  0
   12.3226   -8.3021    3.1210 C   0  0  0  0  0  0  0  0  0  0  0  0
   11.7434   -5.5361    1.1782 N   0  0  0  0  0  0  0  0  0  0  0  0
   13.8470    0.4283    0.0768 H   0  0  0  0  0  0  0  0  0  0  0  0
   12.7960    1.8098   -0.3850 H   0  0  0  0  0  0  0  0  0  0  0  0
   12.4375    0.8658    1.1006 H   0  0  0  0  0  0  0  0  0  0  0  0
    9.8448   -0.3231   -1.3665 H   0  0  0  0  0  0  0  0  0  0  0  0
   10.0826    0.4222    0.2504 H   0  0  0  0  0  0  0  0  0  0  0  0
   10.4411    1.3662   -1.2352 H   0  0  0  0  0  0  0  0  0  0  0  0
   11.8515   -0.8968   -2.7814 H   0  0  0  0  0  0  0  0  0  0  0  0
   12.4674    0.7835   -2.6269 H   0  0  0  0  0  0  0  0  0  0  0  0
   13.5069   -0.6016   -2.1497 H   0  0  0  0  0  0  0  0  0  0  0  0
   10.0827   -2.1118   -1.2237 H   0  0  0  0  0  0  0  0  0  0  0  0
    9.9647   -4.3869   -0.3071 H   0  0  0  0  0  0  0  0  0  0  0  0
   13.6687   -1.3871    0.9945 H   0  0  0  0  0  0  0  0  0  0  0  0
   14.9676   -3.4454    1.6062 H   0  0  0  0  0  0  0  0  0  0  0  0
   15.8033   -3.3142    3.8646 H   0  0  0  0  0  0  0  0  0  0  0  0
   14.6392   -3.4274    5.2279 H   0  0  0  0  0  0  0  0  0  0  0  0
   15.9735   -5.5480    4.8427 H   0  0  0  0  0  0  0  0  0  0  0  0
   14.1953   -5.7785    4.7366 H   0  0  0  0  0  0  0  0  0  0  0  0
   16.2076   -5.5939    2.4401 H   0  0  0  0  0  0  0  0  0  0  0  0
   15.1883   -6.9984    2.9040 H   0  0  0  0  0  0  0  0  0  0  0  0
   14.4256   -5.6592    0.8643 H   0  0  0  0  0  0  0  0  0  0  0  0
   12.3990   -5.7773    3.1435 H   0  0  0  0  0  0  0  0  0  0  0  0
   11.7445   -7.5546    1.6152 H   0  0  0  0  0  0  0  0  0  0  0  0
   13.5616   -7.6010    0.0367 H   0  0  0  0  0  0  0  0  0  0  0  0
   13.6774  -10.0755   -0.0601 H   0  0  0  0  0  0  0  0  0  0  0  0
   11.9097   -7.8256    3.9979 H   0  0  0  0  0  0  0  0  0  0  0  0
   10.8420   -5.6651    1.5915 H   0  0  0  0  0  0  0  0  0  0  0  0
  1  2  1  0  0  0  0
  2  3  1  0  0  0  0
  2  4  1  0  0  0  0
  2  5  1  0  0  0  0
  5  6  2  0  0  0  0
  5 10  1  0  0  0  0
  6  7  1  0  0  0  0
  7  8  2  0  0  0  0
  8  9  1  0  0  0  0
  8 26  1  0  0  0  0
  9 10  2  0  0  0  0
  9 11  1  0  0  0  0
 11 12  1  0  0  0  0
 11 16  1  0  0  0  0
 12 13  1  0  0  0  0
 13 14  1  0  0  0  0
 14 15  1  0  0  0  0
 15 16  1  0  0  0  0
 16 17  1  0  0  0  0
 17 18  1  0  0  0  0
 17 26  1  0  0  0  0
 18 19  1  0  0  0  0
 18 25  1  0  0  0  0
 19 20  2  0  0  0  0
 20 21  1  0  0  0  0
 21 22  2  0  0  0  0
 21 23  1  0  0  0  0
 23 24  1  0  0  0  0
 23 25  2  0  0  0  0
  1 27  1  0  0  0  0
  1 28  1  0  0  0  0
  1 29  1  0  0  0  0
  3 30  1  0  0  0  0
  3 31  1  0  0  0  0
  3 32  1  0  0  0  0
  4 33  1  0  0  0  0
  4 34  1  0  0  0  0
  4 35  1  0  0  0  0
  6 36  1  0  0  0  0
  7 37  1  0  0  0  0
 10 38  1  0  0  0  0
 11 39  1  0  0  0  0
 13 40  1  0  0  0  0
 13 41  1  0  0  0  0
 14 42  1  0  0  0  0
 14 43  1  0  0  0  0
 15 44  1  0  0  0  0
 15 45  1  0  0  0  0
 16 46  1  0  0  0  0
 17 47  1  0  0  0  0
 18 48  1  0  0  0  0
 19 49  1  0  0  0  0
 20 50  1  0  0  0  0
 25 51  1  0  0  0  0
 26 52  1  0  0  0  0
M  END
> <ID>
CHEMBL1078774

> <IC50[nM]>
17

$$$$
CHEMBL1078774
  -OEChem-05192314313D
 Structure written by MMmdl.
 52 55  0     1  0  0  0  0  0999 V2000
   12.8146    0.8080    0.0689 C   0  0  0  0  0  0  0  0  0  0  0  0
   11.9194   -0.1474   -0.7542 C   0  0  0  0  0  0  0  0  0  0  0  0
   10.4685    0.3660   -0.7781 C   0  0  0  0  0  0  0  0  0  0  0  0
   12.4753   -0.2208   -2.1781 C   0  0  0  0  0  0  0  0  0  0  0  0
   11.8886   -1.5790   -0.1851 C   0  0  0  0  0  0  0  0  0  0  0  0
   10.8516   -2.4541   -0.5469 C   0  0  0  0  0  0  0  0  0  0  0  0
   10.7947   -3.7435   -0.0550 C   0  0  0  0  0  0  0  0  0  0  0  0
   11.8117   -4.2036    0.7644 C   0  0  0  0  0  0  0  0  0  0  0  0
   12.8807   -3.3692    1.1329 C   0  0  0  0  0  0  0  0  0  0  0  0
   12.8820   -2.0552    0.6763 C   0  0  0  0  0  0  0  0  0  0  0  0
   14.0286   -3.8741    1.9864 C   0  0  1  0  0  0  0  0  0  0  0  0
   13.8076   -3.4485    3.3326 O   0  0  0  0  0  0  0  0  0  0  0  0
   14.8758   -3.7894    4.2165 C   0  0  0  0  0  0  0  0  0  0  0  0
   15.0715   -5.3181    4.2567 C   0  0  0  0  0  0  0  0  0  0  0  0
   15.2314   -5.9009    2.8436 C   0  0  0  0  0  0  0  0  0  0  0  0
   14.1181   -5.4079    1.8901 C   0  0  1  0  0  0  0  0  0  0  0  0
   12.7185   -6.0488    2.1265 C   0  0  2  0  0  0  0  0  0  0  0  0
   12.7612   -7.5479    2.0351 C   0  0  0  0  0  0  0  0  0  0  0  0
   13.2453   -8.1893    0.8854 C   0  0  0  0  0  0  0  0  0  0  0  0
   13.3212   -9.5776    0.8297 C   0  0  0  0  0  0  0  0  0  0  0  0
   12.9274  -10.3120    1.9477 C   0  0  0  0  0  0  0  0  0  0  0  0
   12.9755  -11.6650    2.0910 O   0  0  0  0  0  0  0  0  0  0  0  0
   12.4304   -9.6686    3.0444 C   0  0  0  0  0  0  0  0  0  0  0  0
   12.0577  -10.4439    4.0695 F   0  0  0  0  0  0  0  0  0  0  0  0
   12.3226   -8.3021    3.1210 C   0  0  0  0  0  0  0  0  0  0  0  0
   11.7434   -5.5361    1.1782 N   0  0  0  0  0  0  0  0  0  0  0  0
   13.8470    0.4283    0.0768 H   0  0  0  0  0  0  0  0  0  0  0  0
   12.7960    1.8098   -0.3850 H   0  0  0  0  0  0  0  0  0  0  0  0
   12.4375    0.8658    1.1006 H   0  0  0  0  0  0  0  0  0  0  0  0
    9.8448   -0.3231   -1.3665 H   0  0  0  0  0  0  0  0  0  0  0  0
   10.0826    0.4222    0.2504 H   0  0  0  0  0  0  0  0  0  0  0  0
   10.4411    1.3662   -1.2352 H   0  0  0  0  0  0  0  0  0  0  0  0
   11.8515   -0.8968   -2.7814 H   0  0  0  0  0  0  0  0  0  0  0  0
   12.4674    0.7835   -2.6269 H   0  0  0  0  0  0  0  0  0  0  0  0
   13.5069   -0.6016   -2.1497 H   0  0  0  0  0  0  0  0  0  0  0  0
   10.0827   -2.1118   -1.2237 H   0  0  0  0  0  0  0  0  0  0  0  0
    9.9647   -4.3869   -0.3071 H   0  0  0  0  0  0  0  0  0  0  0  0
   13.6687   -1.3871    0.9945 H   0  0  0  0  0  0  0  0  0  0  0  0
   14.9676   -3.4454    1.6062 H   0  0  0  0  0  0  0  0  0  0  0  0
   15.8033   -3.3142    3.8646 H   0  0  0  0  0  0  0  0  0  0  0  0
   14.6392   -3.4274    5.2279 H   0  0  0  0  0  0  0  0  0  0  0  0
   15.9735   -5.5480    4.8427 H   0  0  0  0  0  0  0  0  0  0  0  0
   14.1953   -5.7785    4.7366 H   0  0  0  0  0  0  0  0  0  0  0  0
   16.2076   -5.5939    2.4401 H   0  0  0  0  0  0  0  0  0  0  0  0
   15.1883   -6.9984    2.9040 H   0  0  0  0  0  0  0  0  0  0  0  0
   14.4256   -5.6592    0.8643 H   0  0  0  0  0  0  0  0  0  0  0  0
   12.3990   -5.7773    3.1435 H   0  0  0  0  0  0  0  0  0  0  0  0
   13.5616   -7.6010    0.0367 H   0  0  0  0  0  0  0  0  0  0  0  0
   13.6774  -10.0755   -0.0601 H   0  0  0  0  0  0  0  0  0  0  0  0
   11.4154   -9.7290    2.6246 H   0  0  0  0  0  0  0  0  0  0  0  0
   11.9097   -7.8256    3.9979 H   0  0  0  0  0  0  0  0  0  0  0  0
   10.8420   -5.6651    1.5915 H   0  0  0  0  0  0  0  0  0  0  0  0
  1  2  1  0  0  0  0
  2  3  1  0  0  0  0
  2  4  1  0  0  0  0
  2  5  1  0  0  0  0
  5  6  2  0  0  0  0
  5 10  1  0  0  0  0
  6  7  1  0  0  0  0
  7  8  2  0  0  0  0
  8  9  1  0  0  0  0
  8 26  1  0  0  0  0
  9 10  2  0  0  0  0
  9 11  1  0  0  0  0
 11 12  1  0  0  0  0
 11 16  1  0  0  0  0
 12 13  1  0  0  0  0
 13 14  1  0  0  0  0
 14 15  1  0  0  0  0
 15 16  1  0  0  0  0
 16 17  1  0  0  0  0
 17 18  1  0  0  0  0
 17 26  1  0  0  0  0
 18 19  1  0  0  0  0
 18 25  2  0  0  0  0
 19 20  2  0  0  0  0
 20 21  1  0  0  0  0
 21 22  2  0  0  0  0
 21 23  1  0  0  0  0
 23 24  1  0  0  0  0
 23 25  1  0  0  0  0
  1 27  1  0  0  0  0
  1 28  1  0  0  0  0
  1 29  1  0  0  0  0
  3 30  1  0  0  0  0
  3 31  1  0  0  0  0
  3 32  1  0  0  0  0
  4 33  1  0  0  0  0
  4 34  1  0  0  0  0
  4 35  1  0  0  0  0
  6 36  1  0  0  0  0
  7 37  1  0  0  0  0
 10 38  1  0  0  0  0
 11 39  1  0  0  0  0
 13 40  1  0  0  0  0
 13 41  1  0  0  0  0
 14 42  1  0  0  0  0
 14 43  1  0  0  0  0
 15 44  1  0  0  0  0
 15 45  1  0  0  0  0
 16 46  1  0  0  0  0
 17 47  1  0  0  0  0
 19 48  1  0  0  0  0
 20 49  1  0  0  0  0
 23 50  1  0  0  0  0
 25 51  1  0  0  0  0
 26 52  1  0  0  0  0
M  END
> <ID>
CHEMBL1078774

> <IC50[nM]>
17

$$$$
CHEMBL1078774
  -OEChem-05192314313D
 Structure written by MMmdl.
 52 55  0     1  0  0  0  0  0999 V2000
   12.8146    0.8080    0.0689 C   0  0  0  0  0  0  0  0  0  0  0  0
   11.9194   -0.1474   -0.7542 C   0  0  0  0  0  0  0  0  0  0  0  0
   10.4685    0.3660   -0.7781 C   0  0  0  0  0  0  0  0  0  0  0  0
   12.4753   -0.2208   -2.1781 C   0  0  0  0  0  0  0  0  0  0  0  0
   11.8886   -1.5790   -0.1851 C   0  0  0  0  0  0  0  0  0  0  0  0
   10.8516   -2.4541   -0.5469 C   0  0  0  0  0  0  0  0  0  0  0  0
   10.7947   -3.7435   -0.0550 C   0  0  0  0  0  0  0  0  0  0  0  0
   11.8117   -4.2036    0.7644 C   0  0  0  0  0  0  0  0  0  0  0  0
   12.8807   -3.3692    1.1329 C   0  0  0  0  0  0  0  0  0  0  0  0
   12.8820   -2.0552    0.6763 C   0  0  0  0  0  0  0  0  0  0  0  0
   14.0286   -3.8741    1.9864 C   0  0  1  0  0  0  0  0  0  0  0  0
   13.8076   -3.4485    3.3326 O   0  0  0  0  0  0  0  0  0  0  0  0
   14.8758   -3.7894    4.2165 C   0  0  0  0  0  0  0  0  0  0  0  0
   15.0715   -5.3181    4.2567 C   0  0  0  0  0  0  0  0  0  0  0  0
   15.2314   -5.9009    2.8436 C   0  0  0  0  0  0  0  0  0  0  0  0
   14.1181   -5.4079    1.8901 C   0  0  1  0  0  0  0  0  0  0  0  0
   12.7185   -6.0488    2.1265 C   0  0  2  0  0  0  0  0  0  0  0  0
   12.7612   -7.5479    2.0351 C   0  0  0  0  0  0  0  0  0  0  0  0
   13.2453   -8.1893    0.8854 C   0  0  0  0  0  0  0  0  0  0  0  0
   13.3212   -9.5776    0.8297 C   0  0  0  0  0  0  0  0  0  0  0  0
   12.9274  -10.3120    1.9477 C   0  0  0  0  0  0  0  0  0  0  0  0
   12.9755  -11.6650    2.0910 O   0  0  0  0  0  0  0  0  0  0  0  0
   12.4304   -9.6686    3.0444 C   0  0  0  0  0  0  0  0  0  0  0  0
   12.0577  -10.4439    4.0695 F   0  0  0  0  0  0  0  0  0  0  0  0
   12.3226   -8.3021    3.1210 C   0  0  0  0  0  0  0  0  0  0  0  0
   11.7434   -5.5361    1.1782 N   0  0  0  0  0  0  0  0  0  0  0  0
   13.8470    0.4283    0.0768 H   0  0  0  0  0  0  0  0  0  0  0  0
   12.7960    1.8098   -0.3850 H   0  0  0  0  0  0  0  0  0  0  0  0
   12.4375    0.8658    1.1006 H   0  0  0  0  0  0  0  0  0  0  0  0
    9.8448   -0.3231   -1.3665 H   0  0  0  0  0  0  0  0  0  0  0  0
   10.0826    0.4222    0.2504 H   0  0  0  0  0  0  0  0  0  0  0  0
   10.4411    1.3662   -1.2352 H   0  0  0  0  0  0  0  0  0  0  0  0
   11.8515   -0.8968   -2.7814 H   0  0  0  0  0  0  0  0  0  0  0  0
   12.4674    0.7835   -2.6269 H   0  0  0  0  0  0  0  0  0  0  0  0
   13.5069   -0.6016   -2.1497 H   0  0  0  0  0  0  0  0  0  0  0  0
   10.0827   -2.1118   -1.2237 H   0  0  0  0  0  0  0  0  0  0  0  0
    9.9647   -4.3869   -0.3071 H   0  0  0  0  0  0  0  0  0  0  0  0
   13.6687   -1.3871    0.9945 H   0  0  0  0  0  0  0  0  0  0  0  0
   14.9676   -3.4454    1.6062 H   0  0  0  0  0  0  0  0  0  0  0  0
   15.8033   -3.3142    3.8646 H   0  0  0  0  0  0  0  0  0  0  0  0
   14.6392   -3.4274    5.2279 H   0  0  0  0  0  0  0  0  0  0  0  0
   15.9735   -5.5480    4.8427 H   0  0  0  0  0  0  0  0  0  0  0  0
   14.1953   -5.7785    4.7366 H   0  0  0  0  0  0  0  0  0  0  0  0
   16.2076   -5.5939    2.4401 H   0  0  0  0  0  0  0  0  0  0  0  0
   15.1883   -6.9984    2.9040 H   0  0  0  0  0  0  0  0  0  0  0  0
   14.4256   -5.6592    0.8643 H   0  0  0  0  0  0  0  0  0  0  0  0
   12.3990   -5.7773    3.1435 H   0  0  0  0  0  0  0  0  0  0  0  0
   13.5616   -7.6010    0.0367 H   0  0  0  0  0  0  0  0  0  0  0  0
   12.6911   -9.9035   -0.0110 H   0  0  0  0  0  0  0  0  0  0  0  0
   14.3701   -9.8372    0.6240 H   0  0  0  0  0  0  0  0  0  0  0  0
   11.9097   -7.8256    3.9979 H   0  0  0  0  0  0  0  0  0  0  0  0
   10.8420   -5.6651    1.5915 H   0  0  0  0  0  0  0  0  0  0  0  0
  1  2  1  0  0  0  0
  2  3  1  0  0  0  0
  2  4  1  0  0  0  0
  2  5  1  0  0  0  0
  5  6  2  0  0  0  0
  5 10  1  0  0  0  0
  6  7  1  0  0  0  0
  7  8  2  0  0  0  0
  8  9  1  0  0  0  0
  8 26  1  0  0  0  0
  9 10  2  0  0  0  0
  9 11  1  0  0  0  0
 11 12  1  0  0  0  0
 11 16  1  0  0  0  0
 12 13  1  0  0  0  0
 13 14  1  0  0  0  0
 14 15  1  0  0  0  0
 15 16  1  0  0  0  0
 16 17  1  0  0  0  0
 17 18  1  0  0  0  0
 17 26  1  0  0  0  0
 18 19  2  0  0  0  0
 18 25  1  0  0  0  0
 19 20  1  0  0  0  0
 20 21  1  0  0  0  0
 21 22  2  0  0  0  0
 21 23  1  0  0  0  0
 23 24  1  0  0  0  0
 23 25  2  0  0  0  0
  1 27  1  0  0  0  0
  1 28  1  0  0  0  0
  1 29  1  0  0  0  0
  3 30  1  0  0  0  0
  3 31  1  0  0  0  0
  3 32  1  0  0  0  0
  4 33  1  0  0  0  0
  4 34  1  0  0  0  0
  4 35  1  0  0  0  0
  6 36  1  0  0  0  0
  7 37  1  0  0  0  0
 10 38  1  0  0  0  0
 11 39  1  0  0  0  0
 13 40  1  0  0  0  0
 13 41  1  0  0  0  0
 14 42  1  0  0  0  0
 14 43  1  0  0  0  0
 15 44  1  0  0  0  0
 15 45  1  0  0  0  0
 16 46  1  0  0  0  0
 17 47  1  0  0  0  0
 19 48  1  0  0  0  0
 20 49  1  0  0  0  0
 20 50  1  0  0  0  0
 25 51  1  0  0  0  0
 26 52  1  0  0  0  0
M  END
> <ID>
CHEMBL1078774

> <IC50[nM]>
17

$$$$
CHEMBL1078774
  -OEChem-05192314313D
 Structure written by MMmdl.
 52 55  0     1  0  0  0  0  0999 V2000
   12.8146    0.8080    0.0689 C   0  0  0  0  0  0  0  0  0  0  0  0
   11.9194   -0.1474   -0.7542 C   0  0  0  0  0  0  0  0  0  0  0  0
   10.4685    0.3660   -0.7781 C   0  0  0  0  0  0  0  0  0  0  0  0
   12.4753   -0.2208   -2.1781 C   0  0  0  0  0  0  0  0  0  0  0  0
   11.8886   -1.5790   -0.1851 C   0  0  0  0  0  0  0  0  0  0  0  0
   10.8516   -2.4541   -0.5469 C   0  0  0  0  0  0  0  0  0  0  0  0
   10.7947   -3.7435   -0.0550 C   0  0  0  0  0  0  0  0  0  0  0  0
   11.8117   -4.2036    0.7644 C   0  0  0  0  0  0  0  0  0  0  0  0
   12.8807   -3.3692    1.1329 C   0  0  0  0  0  0  0  0  0  0  0  0
   12.8820   -2.0552    0.6763 C   0  0  0  0  0  0  0  0  0  0  0  0
   14.0286   -3.8741    1.9864 C   0  0  1  0  0  0  0  0  0  0  0  0
   13.8076   -3.4485    3.3326 O   0  0  0  0  0  0  0  0  0  0  0  0
   14.8758   -3.7894    4.2165 C   0  0  0  0  0  0  0  0  0  0  0  0
   15.0715   -5.3181    4.2567 C   0  0  0  0  0  0  0  0  0  0  0  0
   15.2314   -5.9009    2.8436 C   0  0  0  0  0  0  0  0  0  0  0  0
   14.1181   -5.4079    1.8901 C   0  0  1  0  0  0  0  0  0  0  0  0
   12.7185   -6.0488    2.1265 C   0  0  2  0  0  0  0  0  0  0  0  0
   12.7612   -7.5479    2.0351 C   0  0  0  0  0  0  0  0  0  0  0  0
   13.2453   -8.1893    0.8854 C   0  0  0  0  0  0  0  0  0  0  0  0
   13.3212   -9.5776    0.8297 C   0  0  0  0  0  0  0  0  0  0  0  0
   12.9274  -10.3120    1.9477 C   0  0  0  0  0  0  0  0  0  0  0  0
   12.9755  -11.6650    2.0910 O   0  0  0  0  0  0  0  0  0  0  0  0
   12.4304   -9.6686    3.0444 C   0  0  0  0  0  0  0  0  0  0  0  0
   12.0577  -10.4439    4.0695 F   0  0  0  0  0  0  0  0  0  0  0  0
   12.3226   -8.3021    3.1210 C   0  0  0  0  0  0  0  0  0  0  0  0
   11.7434   -5.5361    1.1782 N   0  0  0  0  0  0  0  0  0  0  0  0
   13.8470    0.4283    0.0768 H   0  0  0  0  0  0  0  0  0  0  0  0
   12.7960    1.8098   -0.3850 H   0  0  0  0  0  0  0  0  0  0  0  0
   12.4375    0.8658    1.1006 H   0  0  0  0  0  0  0  0  0  0  0  0
    9.8448   -0.3231   -1.3665 H   0  0  0  0  0  0  0  0  0  0  0  0
   10.0826    0.4222    0.2504 H   0  0  0  0  0  0  0  0  0  0  0  0
   10.4411    1.3662   -1.2352 H   0  0  0  0  0  0  0  0  0  0  0  0
   11.8515   -0.8968   -2.7814 H   0  0  0  0  0  0  0  0  0  0  0  0
   12.4674    0.7835   -2.6269 H   0  0  0  0  0  0  0  0  0  0  0  0
   13.5069   -0.6016   -2.1497 H   0  0  0  0  0  0  0  0  0  0  0  0
   11.3009   -1.2295    0.6765 H   0  0  0  0  0  0  0  0  0  0  0  0
   10.0827   -2.1118   -1.2237 H   0  0  0  0  0  0  0  0  0  0  0  0
    9.9647   -4.3869   -0.3071 H   0  0  0  0  0  0  0  0  0  0  0  0
   13.6687   -1.3871    0.9945 H   0  0  0  0  0  0  0  0  0  0  0  0
   14.9676   -3.4454    1.6062 H   0  0  0  0  0  0  0  0  0  0  0  0
   15.8033   -3.3142    3.8646 H   0  0  0  0  0  0  0  0  0  0  0  0
   14.6392   -3.4274    5.2279 H   0  0  0  0  0  0  0  0  0  0  0  0
   15.9735   -5.5480    4.8427 H   0  0  0  0  0  0  0  0  0  0  0  0
   14.1953   -5.7785    4.7366 H   0  0  0  0  0  0  0  0  0  0  0  0
   16.2076   -5.5939    2.4401 H   0  0  0  0  0  0  0  0  0  0  0  0
   15.1883   -6.9984    2.9040 H   0  0  0  0  0  0  0  0  0  0  0  0
   14.4256   -5.6592    0.8643 H   0  0  0  0  0  0  0  0  0  0  0  0
   12.3990   -5.7773    3.1435 H   0  0  0  0  0  0  0  0  0  0  0  0
   13.5616   -7.6010    0.0367 H   0  0  0  0  0  0  0  0  0  0  0  0
   13.6774  -10.0755   -0.0601 H   0  0  0  0  0  0  0  0  0  0  0  0
   12.6476  -11.9048    2.9498 H   0  0  0  0  0  0  0  0  0  0  0  0
   11.9097   -7.8256    3.9979 H   0  0  0  0  0  0  0  0  0  0  0  0
  1  2  1  0  0  0  0
  2  3  1  0  0  0  0
  2  4  1  0  0  0  0
  2  5  1  0  0  0  0
  5  6  1  0  0  0  0
  5 10  1  0  0  0  0
  6  7  2  0  0  0  0
  7  8  1  0  0  0  0
  8  9  1  0  0  0  0
  8 26  2  0  0  0  0
  9 10  2  0  0  0  0
  9 11  1  0  0  0  0
 11 12  1  0  0  0  0
 11 16  1  0  0  0  0
 12 13  1  0  0  0  0
 13 14  1  0  0  0  0
 14 15  1  0  0  0  0
 15 16  1  0  0  0  0
 16 17  1  0  0  0  0
 17 18  1  0  0  0  0
 17 26  1  0  0  0  0
 18 19  2  0  0  0  0
 18 25  1  0  0  0  0
 19 20  1  0  0  0  0
 20 21  2  0  0  0  0
 21 22  1  0  0  0  0
 21 23  1  0  0  0  0
 23 24  1  0  0  0  0
 23 25  2  0  0  0  0
  1 27  1  0  0  0  0
  1 28  1  0  0  0  0
  1 29  1  0  0  0  0
  3 30  1  0  0  0  0
  3 31  1  0  0  0  0
  3 32  1  0  0  0  0
  4 33  1  0  0  0  0
  4 34  1  0  0  0  0
  4 35  1  0  0  0  0
  5 36  1  0  0  0  0
  6 37  1  0  0  0  0
  7 38  1  0  0  0  0
 10 39  1  0  0  0  0
 11 40  1  0  0  0  0
 13 41  1  0  0  0  0
 13 42  1  0  0  0  0
 14 43  1  0  0  0  0
 14 44  1  0  0  0  0
 15 45  1  0  0  0  0
 15 46  1  0  0  0  0
 16 47  1  0  0  0  0
 17 48  1  0  0  0  0
 19 49  1  0  0  0  0
 20 50  1  0  0  0  0
 22 51  1  0  0  0  0
 25 52  1  0  0  0  0
M  END
> <ID>
CHEMBL1078774

> <IC50[nM]>
17

$$$$
CHEMBL1078774
  -OEChem-05192314313D
 Structure written by MMmdl.
 52 55  0     1  0  0  0  0  0999 V2000
   12.8146    0.8080    0.0689 C   0  0  0  0  0  0  0  0  0  0  0  0
   11.9194   -0.1474   -0.7542 C   0  0  0  0  0  0  0  0  0  0  0  0
   10.4685    0.3660   -0.7781 C   0  0  0  0  0  0  0  0  0  0  0  0
   12.4753   -0.2208   -2.1781 C   0  0  0  0  0  0  0  0  0  0  0  0
   11.8886   -1.5790   -0.1851 C   0  0  0  0  0  0  0  0  0  0  0  0
   10.8516   -2.4541   -0.5469 C   0  0  0  0  0  0  0  0  0  0  0  0
   10.7947   -3.7435   -0.0550 C   0  0  0  0  0  0  0  0  0  0  0  0
   11.8117   -4.2036    0.7644 C   0  0  0  0  0  0  0  0  0  0  0  0
   12.8807   -3.3692    1.1329 C   0  0  0  0  0  0  0  0  0  0  0  0
   12.8820   -2.0552    0.6763 C   0  0  0  0  0  0  0  0  0  0  0  0
   14.0286   -3.8741    1.9864 C   0  0  1  0  0  0  0  0  0  0  0  0
   13.8076   -3.4485    3.3326 O   0  0  0  0  0  0  0  0  0  0  0  0
   14.8758   -3.7894    4.2165 C   0  0  0  0  0  0  0  0  0  0  0  0
   15.0715   -5.3181    4.2567 C   0  0  0  0  0  0  0  0  0  0  0  0
   15.2314   -5.9009    2.8436 C   0  0  0  0  0  0  0  0  0  0  0  0
   14.1181   -5.4079    1.8901 C   0  0  1  0  0  0  0  0  0  0  0  0
   12.7185   -6.0488    2.1265 C   0  0  2  0  0  0  0  0  0  0  0  0
   12.7612   -7.5479    2.0351 C   0  0  0  0  0  0  0  0  0  0  0  0
   13.2453   -8.1893    0.8854 C   0  0  0  0  0  0  0  0  0  0  0  0
   13.3212   -9.5776    0.8297 C   0  0  0  0  0  0  0  0  0  0  0  0
   12.9274  -10.3120    1.9477 C   0  0  0  0  0  0  0  0  0  0  0  0
   12.9755  -11.6650    2.0910 O   0  0  0  0  0  0  0  0  0  0  0  0
   12.4304   -9.6686    3.0444 C   0  0  0  0  0  0  0  0  0  0  0  0
   12.0577  -10.4439    4.0695 F   0  0  0  0  0  0  0  0  0  0  0  0
   12.3226   -8.3021    3.1210 C   0  0  0  0  0  0  0  0  0  0  0  0
   11.7434   -5.5361    1.1782 N   0  0  0  0  0  0  0  0  0  0  0  0
   13.8470    0.4283    0.0768 H   0  0  0  0  0  0  0  0  0  0  0  0
   12.7960    1.8098   -0.3850 H   0  0  0  0  0  0  0  0  0  0  0  0
   12.4375    0.8658    1.1006 H   0  0  0  0  0  0  0  0  0  0  0  0
    9.8448   -0.3231   -1.3665 H   0  0  0  0  0  0  0  0  0  0  0  0
   10.0826    0.4222    0.2504 H   0  0  0  0  0  0  0  0  0  0  0  0
   10.4411    1.3662   -1.2352 H   0  0  0  0  0  0  0  0  0  0  0  0
   11.8515   -0.8968   -2.7814 H   0  0  0  0  0  0  0  0  0  0  0  0
   12.4674    0.7835   -2.6269 H   0  0  0  0  0  0  0  0  0  0  0  0
   13.5069   -0.6016   -2.1497 H   0  0  0  0  0  0  0  0  0  0  0  0
   10.0827   -2.1118   -1.2237 H   0  0  0  0  0  0  0  0  0  0  0  0
    9.9647   -4.3869   -0.3071 H   0  0  0  0  0  0  0  0  0  0  0  0
   12.3362   -3.0608    2.0376 H   0  0  0  0  0  0  0  0  0  0  0  0
   13.6687   -1.3871    0.9945 H   0  0  0  0  0  0  0  0  0  0  0  0
   14.9676   -3.4454    1.6062 H   0  0  0  0  0  0  0  0  0  0  0  0
   15.8033   -3.3142    3.8646 H   0  0  0  0  0  0  0  0  0  0  0  0
   14.6392   -3.4274    5.2279 H   0  0  0  0  0  0  0  0  0  0  0  0
   15.9735   -5.5480    4.8427 H   0  0  0  0  0  0  0  0  0  0  0  0
   14.1953   -5.7785    4.7366 H   0  0  0  0  0  0  0  0  0  0  0  0
   16.2076   -5.5939    2.4401 H   0  0  0  0  0  0  0  0  0  0  0  0
   15.1883   -6.9984    2.9040 H   0  0  0  0  0  0  0  0  0  0  0  0
   14.4256   -5.6592    0.8643 H   0  0  0  0  0  0  0  0  0  0  0  0
   12.3990   -5.7773    3.1435 H   0  0  0  0  0  0  0  0  0  0  0  0
   13.5616   -7.6010    0.0367 H   0  0  0  0  0  0  0  0  0  0  0  0
   13.6774  -10.0755   -0.0601 H   0  0  0  0  0  0  0  0  0  0  0  0
   12.6476  -11.9048    2.9498 H   0  0  0  0  0  0  0  0  0  0  0  0
   11.9097   -7.8256    3.9979 H   0  0  0  0  0  0  0  0  0  0  0  0
  1  2  1  0  0  0  0
  2  3  1  0  0  0  0
  2  4  1  0  0  0  0
  2  5  1  0  0  0  0
  5  6  1  0  0  0  0
  5 10  2  0  0  0  0
  6  7  2  0  0  0  0
  7  8  1  0  0  0  0
  8  9  1  0  0  0  0
  8 26  2  0  0  0  0
  9 10  1  0  0  0  0
  9 11  1  0  0  0  0
 11 12  1  0  0  0  0
 11 16  1  0  0  0  0
 12 13  1  0  0  0  0
 13 14  1  0  0  0  0
 14 15  1  0  0  0  0
 15 16  1  0  0  0  0
 16 17  1  0  0  0  0
 17 18  1  0  0  0  0
 17 26  1  0  0  0  0
 18 19  2  0  0  0  0
 18 25  1  0  0  0  0
 19 20  1  0  0  0  0
 20 21  2  0  0  0  0
 21 22  1  0  0  0  0
 21 23  1  0  0  0  0
 23 24  1  0  0  0  0
 23 25  2  0  0  0  0
  1 27  1  0  0  0  0
  1 28  1  0  0  0  0
  1 29  1  0  0  0  0
  3 30  1  0  0  0  0
  3 31  1  0  0  0  0
  3 32  1  0  0  0  0
  4 33  1  0  0  0  0
  4 34  1  0  0  0  0
  4 35  1  0  0  0  0
  6 36  1  0  0  0  0
  7 37  1  0  0  0  0
  9 38  1  0  0  0  0
 10 39  1  0  0  0  0
 11 40  1  0  0  0  0
 13 41  1  0  0  0  0
 13 42  1  0  0  0  0
 14 43  1  0  0  0  0
 14 44  1  0  0  0  0
 15 45  1  0  0  0  0
 15 46  1  0  0  0  0
 16 47  1  0  0  0  0
 17 48  1  0  0  0  0
 19 49  1  0  0  0  0
 20 50  1  0  0  0  0
 22 51  1  0  0  0  0
 25 52  1  0  0  0  0
M  END
> <ID>
CHEMBL1078774

> <IC50[nM]>
17

$$$$
CHEMBL1078774
  -OEChem-05192314313D
 Structure written by MMmdl.
 52 55  0     1  0  0  0  0  0999 V2000
   12.8146    0.8080    0.0689 C   0  0  0  0  0  0  0  0  0  0  0  0
   11.9194   -0.1474   -0.7542 C   0  0  0  0  0  0  0  0  0  0  0  0
   10.4685    0.3660   -0.7781 C   0  0  0  0  0  0  0  0  0  0  0  0
   12.4753   -0.2208   -2.1781 C   0  0  0  0  0  0  0  0  0  0  0  0
   11.8886   -1.5790   -0.1851 C   0  0  0  0  0  0  0  0  0  0  0  0
   10.8516   -2.4541   -0.5469 C   0  0  0  0  0  0  0  0  0  0  0  0
   10.7947   -3.7435   -0.0550 C   0  0  0  0  0  0  0  0  0  0  0  0
   11.8117   -4.2036    0.7644 C   0  0  0  0  0  0  0  0  0  0  0  0
   12.8807   -3.3692    1.1329 C   0  0  0  0  0  0  0  0  0  0  0  0
   12.8820   -2.0552    0.6763 C   0  0  0  0  0  0  0  0  0  0  0  0
   14.0286   -3.8741    1.9864 C   0  0  1  0  0  0  0  0  0  0  0  0
   13.8076   -3.4485    3.3326 O   0  0  0  0  0  0  0  0  0  0  0  0
   14.8758   -3.7894    4.2165 C   0  0  0  0  0  0  0  0  0  0  0  0
   15.0715   -5.3181    4.2567 C   0  0  0  0  0  0  0  0  0  0  0  0
   15.2314   -5.9009    2.8436 C   0  0  0  0  0  0  0  0  0  0  0  0
   14.1181   -5.4079    1.8901 C   0  0  1  0  0  0  0  0  0  0  0  0
   12.7185   -6.0488    2.1265 C   0  0  2  0  0  0  0  0  0  0  0  0
   12.7612   -7.5479    2.0351 C   0  0  0  0  0  0  0  0  0  0  0  0
   13.2453   -8.1893    0.8854 C   0  0  0  0  0  0  0  0  0  0  0  0
   13.3212   -9.5776    0.8297 C   0  0  0  0  0  0  0  0  0  0  0  0
   12.9274  -10.3120    1.9477 C   0  0  0  0  0  0  0  0  0  0  0  0
   12.9755  -11.6650    2.0910 O   0  0  0  0  0  0  0  0  0  0  0  0
   12.4304   -9.6686    3.0444 C   0  0  0  0  0  0  0  0  0  0  0  0
   12.0577  -10.4439    4.0695 F   0  0  0  0  0  0  0  0  0  0  0  0
   12.3226   -8.3021    3.1210 C   0  0  0  0  0  0  0  0  0  0  0  0
   11.7434   -5.5361    1.1782 N   0  0  0  0  0  0  0  0  0  0  0  0
   13.8470    0.4283    0.0768 H   0  0  0  0  0  0  0  0  0  0  0  0
   12.7960    1.8098   -0.3850 H   0  0  0  0  0  0  0  0  0  0  0  0
   12.4375    0.8658    1.1006 H   0  0  0  0  0  0  0  0  0  0  0  0
    9.8448   -0.3231   -1.3665 H   0  0  0  0  0  0  0  0  0  0  0  0
   10.0826    0.4222    0.2504 H   0  0  0  0  0  0  0  0  0  0  0  0
   10.4411    1.3662   -1.2352 H   0  0  0  0  0  0  0  0  0  0  0  0
   11.8515   -0.8968   -2.7814 H   0  0  0  0  0  0  0  0  0  0  0  0
   12.4674    0.7835   -2.6269 H   0  0  0  0  0  0  0  0  0  0  0  0
   13.5069   -0.6016   -2.1497 H   0  0  0  0  0  0  0  0  0  0  0  0
   10.0827   -2.1118   -1.2237 H   0  0  0  0  0  0  0  0  0  0  0  0
    9.8592   -3.8271    0.5176 H   0  0  0  0  0  0  0  0  0  0  0  0
   10.7541   -4.4166   -0.9241 H   0  0  0  0  0  0  0  0  0  0  0  0
   13.6687   -1.3871    0.9945 H   0  0  0  0  0  0  0  0  0  0  0  0
   14.9676   -3.4454    1.6062 H   0  0  0  0  0  0  0  0  0  0  0  0
   15.8033   -3.3142    3.8646 H   0  0  0  0  0  0  0  0  0  0  0  0
   14.6392   -3.4274    5.2279 H   0  0  0  0  0  0  0  0  0  0  0  0
   15.9735   -5.5480    4.8427 H   0  0  0  0  0  0  0  0  0  0  0  0
   14.1953   -5.7785    4.7366 H   0  0  0  0  0  0  0  0  0  0  0  0
   16.2076   -5.5939    2.4401 H   0  0  0  0  0  0  0  0  0  0  0  0
   15.1883   -6.9984    2.9040 H   0  0  0  0  0  0  0  0  0  0  0  0
   14.4256   -5.6592    0.8643 H   0  0  0  0  0  0  0  0  0  0  0  0
   12.3990   -5.7773    3.1435 H   0  0  0  0  0  0  0  0  0  0  0  0
   13.5616   -7.6010    0.0367 H   0  0  0  0  0  0  0  0  0  0  0  0
   13.6774  -10.0755   -0.0601 H   0  0  0  0  0  0  0  0  0  0  0  0
   12.6476  -11.9048    2.9498 H   0  0  0  0  0  0  0  0  0  0  0  0
   11.9097   -7.8256    3.9979 H   0  0  0  0  0  0  0  0  0  0  0  0
  1  2  1  0  0  0  0
  2  3  1  0  0  0  0
  2  4  1  0  0  0  0
  2  5  1  0  0  0  0
  5  6  2  0  0  0  0
  5 10  1  0  0  0  0
  6  7  1  0  0  0  0
  7  8  1  0  0  0  0
  8  9  1  0  0  0  0
  8 26  2  0  0  0  0
  9 10  2  0  0  0  0
  9 11  1  0  0  0  0
 11 12  1  0  0  0  0
 11 16  1  0  0  0  0
 12 13  1  0  0  0  0
 13 14  1  0  0  0  0
 14 15  1  0  0  0  0
 15 16  1  0  0  0  0
 16 17  1  0  0  0  0
 17 18  1  0  0  0  0
 17 26  1  0  0  0  0
 18 19  2  0  0  0  0
 18 25  1  0  0  0  0
 19 20  1  0  0  0  0
 20 21  2  0  0  0  0
 21 22  1  0  0  0  0
 21 23  1  0  0  0  0
 23 24  1  0  0  0  0
 23 25  2  0  0  0  0
  1 27  1  0  0  0  0
  1 28  1  0  0  0  0
  1 29  1  0  0  0  0
  3 30  1  0  0  0  0
  3 31  1  0  0  0  0
  3 32  1  0  0  0  0
  4 33  1  0  0  0  0
  4 34  1  0  0  0  0
  4 35  1  0  0  0  0
  6 36  1  0  0  0  0
  7 37  1  0  0  0  0
  7 38  1  0  0  0  0
 10 39  1  0  0  0  0
 11 40  1  0  0  0  0
 13 41  1  0  0  0  0
 13 42  1  0  0  0  0
 14 43  1  0  0  0  0
 14 44  1  0  0  0  0
 15 45  1  0  0  0  0
 15 46  1  0  0  0  0
 16 47  1  0  0  0  0
 17 48  1  0  0  0  0
 19 49  1  0  0  0  0
 20 50  1  0  0  0  0
 22 51  1  0  0  0  0
 25 52  1  0  0  0  0
M  END
> <ID>
CHEMBL1078774

> <IC50[nM]>
17

$$$$
CHEMBL1078774
  -OEChem-05192314313D
 Structure written by MMmdl.
 52 55  0     1  0  0  0  0  0999 V2000
   12.8146    0.8080    0.0689 C   0  0  0  0  0  0  0  0  0  0  0  0
   11.9194   -0.1474   -0.7542 C   0  0  0  0  0  0  0  0  0  0  0  0
   10.4685    0.3660   -0.7781 C   0  0  0  0  0  0  0  0  0  0  0  0
   12.4753   -0.2208   -2.1781 C   0  0  0  0  0  0  0  0  0  0  0  0
   11.8886   -1.5790   -0.1851 C   0  0  0  0  0  0  0  0  0  0  0  0
   10.8516   -2.4541   -0.5469 C   0  0  0  0  0  0  0  0  0  0  0  0
   10.7947   -3.7435   -0.0550 C   0  0  0  0  0  0  0  0  0  0  0  0
   11.8117   -4.2036    0.7644 C   0  0  0  0  0  0  0  0  0  0  0  0
   12.8807   -3.3692    1.1329 C   0  0  0  0  0  0  0  0  0  0  0  0
   12.8820   -2.0552    0.6763 C   0  0  0  0  0  0  0  0  0  0  0  0
   14.0286   -3.8741    1.9864 C   0  0  1  0  0  0  0  0  0  0  0  0
   13.8076   -3.4485    3.3326 O   0  0  0  0  0  0  0  0  0  0  0  0
   14.8758   -3.7894    4.2165 C   0  0  0  0  0  0  0  0  0  0  0  0
   15.0715   -5.3181    4.2567 C   0  0  0  0  0  0  0  0  0  0  0  0
   15.2314   -5.9009    2.8436 C   0  0  0  0  0  0  0  0  0  0  0  0
   14.1181   -5.4079    1.8901 C   0  0  1  0  0  0  0  0  0  0  0  0
   12.7185   -6.0488    2.1265 C   0  0  2  0  0  0  0  0  0  0  0  0
   12.7612   -7.5479    2.0351 C   0  0  0  0  0  0  0  0  0  0  0  0
   13.2453   -8.1893    0.8854 C   0  0  0  0  0  0  0  0  0  0  0  0
   13.3212   -9.5776    0.8297 C   0  0  0  0  0  0  0  0  0  0  0  0
   12.9274  -10.3120    1.9477 C   0  0  0  0  0  0  0  0  0  0  0  0
   12.9755  -11.6650    2.0910 O   0  0  0  0  0  0  0  0  0  0  0  0
   12.4304   -9.6686    3.0444 C   0  0  0  0  0  0  0  0  0  0  0  0
   12.0577  -10.4439    4.0695 F   0  0  0  0  0  0  0  0  0  0  0  0
   12.3226   -8.3021    3.1210 C   0  0  0  0  0  0  0  0  0  0  0  0
   11.7434   -5.5361    1.1782 N   0  0  0  0  0  0  0  0  0  0  0  0
   13.8470    0.4283    0.0768 H   0  0  0  0  0  0  0  0  0  0  0  0
   12.7960    1.8098   -0.3850 H   0  0  0  0  0  0  0  0  0  0  0  0
   12.4375    0.8658    1.1006 H   0  0  0  0  0  0  0  0  0  0  0  0
    9.8448   -0.3231   -1.3665 H   0  0  0  0  0  0  0  0  0  0  0  0
   10.0826    0.4222    0.2504 H   0  0  0  0  0  0  0  0  0  0  0  0
   10.4411    1.3662   -1.2352 H   0  0  0  0  0  0  0  0  0  0  0  0
   11.8515   -0.8968   -2.7814 H   0  0  0  0  0  0  0  0  0  0  0  0
   12.4674    0.7835   -2.6269 H   0  0  0  0  0  0  0  0  0  0  0  0
   13.5069   -0.6016   -2.1497 H   0  0  0  0  0  0  0  0  0  0  0  0
   11.3009   -1.2295    0.6765 H   0  0  0  0  0  0  0  0  0  0  0  0
   10.0827   -2.1118   -1.2237 H   0  0  0  0  0  0  0  0  0  0  0  0
    9.9647   -4.3869   -0.3071 H   0  0  0  0  0  0  0  0  0  0  0  0
   13.6687   -1.3871    0.9945 H   0  0  0  0  0  0  0  0  0  0  0  0
   14.9676   -3.4454    1.6062 H   0  0  0  0  0  0  0  0  0  0  0  0
   15.8033   -3.3142    3.8646 H   0  0  0  0  0  0  0  0  0  0  0  0
   14.6392   -3.4274    5.2279 H   0  0  0  0  0  0  0  0  0  0  0  0
   15.9735   -5.5480    4.8427 H   0  0  0  0  0  0  0  0  0  0  0  0
   14.1953   -5.7785    4.7366 H   0  0  0  0  0  0  0  0  0  0  0  0
   16.2076   -5.5939    2.4401 H   0  0  0  0  0  0  0  0  0  0  0  0
   15.1883   -6.9984    2.9040 H   0  0  0  0  0  0  0  0  0  0  0  0
   14.4256   -5.6592    0.8643 H   0  0  0  0  0  0  0  0  0  0  0  0
   12.3990   -5.7773    3.1435 H   0  0  0  0  0  0  0  0  0  0  0  0
   11.7445   -7.5546    1.6152 H   0  0  0  0  0  0  0  0  0  0  0  0
   13.5616   -7.6010    0.0367 H   0  0  0  0  0  0  0  0  0  0  0  0
   13.6774  -10.0755   -0.0601 H   0  0  0  0  0  0  0  0  0  0  0  0
   11.9097   -7.8256    3.9979 H   0  0  0  0  0  0  0  0  0  0  0  0
  1  2  1  0  0  0  0
  2  3  1  0  0  0  0
  2  4  1  0  0  0  0
  2  5  1  0  0  0  0
  5  6  1  0  0  0  0
  5 10  1  0  0  0  0
  6  7  2  0  0  0  0
  7  8  1  0  0  0  0
  8  9  1  0  0  0  0
  8 26  2  0  0  0  0
  9 10  2  0  0  0  0
  9 11  1  0  0  0  0
 11 12  1  0  0  0  0
 11 16  1  0  0  0  0
 12 13  1  0  0  0  0
 13 14  1  0  0  0  0
 14 15  1  0  0  0  0
 15 16  1  0  0  0  0
 16 17  1  0  0  0  0
 17 18  1  0  0  0  0
 17 26  1  0  0  0  0
 18 19  1  0  0  0  0
 18 25  1  0  0  0  0
 19 20  2  0  0  0  0
 20 21  1  0  0  0  0
 21 22  2  0  0  0  0
 21 23  1  0  0  0  0
 23 24  1  0  0  0  0
 23 25  2  0  0  0  0
  1 27  1  0  0  0  0
  1 28  1  0  0  0  0
  1 29  1  0  0  0  0
  3 30  1  0  0  0  0
  3 31  1  0  0  0  0
  3 32  1  0  0  0  0
  4 33  1  0  0  0  0
  4 34  1  0  0  0  0
  4 35  1  0  0  0  0
  5 36  1  0  0  0  0
  6 37  1  0  0  0  0
  7 38  1  0  0  0  0
 10 39  1  0  0  0  0
 11 40  1  0  0  0  0
 13 41  1  0  0  0  0
 13 42  1  0  0  0  0
 14 43  1  0  0  0  0
 14 44  1  0  0  0  0
 15 45  1  0  0  0  0
 15 46  1  0  0  0  0
 16 47  1  0  0  0  0
 17 48  1  0  0  0  0
 18 49  1  0  0  0  0
 19 50  1  0  0  0  0
 20 51  1  0  0  0  0
 25 52  1  0  0  0  0
M  END
> <ID>
CHEMBL1078774

> <IC50[nM]>
17

$$$$
CHEMBL1078774
  -OEChem-05192314313D
 Structure written by MMmdl.
 52 55  0     1  0  0  0  0  0999 V2000
   12.8146    0.8080    0.0689 C   0  0  0  0  0  0  0  0  0  0  0  0
   11.9194   -0.1474   -0.7542 C   0  0  0  0  0  0  0  0  0  0  0  0
   10.4685    0.3660   -0.7781 C   0  0  0  0  0  0  0  0  0  0  0  0
   12.4753   -0.2208   -2.1781 C   0  0  0  0  0  0  0  0  0  0  0  0
   11.8886   -1.5790   -0.1851 C   0  0  0  0  0  0  0  0  0  0  0  0
   10.8516   -2.4541   -0.5469 C   0  0  0  0  0  0  0  0  0  0  0  0
   10.7947   -3.7435   -0.0550 C   0  0  0  0  0  0  0  0  0  0  0  0
   11.8117   -4.2036    0.7644 C   0  0  0  0  0  0  0  0  0  0  0  0
   12.8807   -3.3692    1.1329 C   0  0  0  0  0  0  0  0  0  0  0  0
   12.8820   -2.0552    0.6763 C   0  0  0  0  0  0  0  0  0  0  0  0
   14.0286   -3.8741    1.9864 C   0  0  1  0  0  0  0  0  0  0  0  0
   13.8076   -3.4485    3.3326 O   0  0  0  0  0  0  0  0  0  0  0  0
   14.8758   -3.7894    4.2165 C   0  0  0  0  0  0  0  0  0  0  0  0
   15.0715   -5.3181    4.2567 C   0  0  0  0  0  0  0  0  0  0  0  0
   15.2314   -5.9009    2.8436 C   0  0  0  0  0  0  0  0  0  0  0  0
   14.1181   -5.4079    1.8901 C   0  0  1  0  0  0  0  0  0  0  0  0
   12.7185   -6.0488    2.1265 C   0  0  2  0  0  0  0  0  0  0  0  0
   12.7612   -7.5479    2.0351 C   0  0  0  0  0  0  0  0  0  0  0  0
   13.2453   -8.1893    0.8854 C   0  0  0  0  0  0  0  0  0  0  0  0
   13.3212   -9.5776    0.8297 C   0  0  0  0  0  0  0  0  0  0  0  0
   12.9274  -10.3120    1.9477 C   0  0  0  0  0  0  0  0  0  0  0  0
   12.9755  -11.6650    2.0910 O   0  0  0  0  0  0  0  0  0  0  0  0
   12.4304   -9.6686    3.0444 C   0  0  0  0  0  0  0  0  0  0  0  0
   12.0577  -10.4439    4.0695 F   0  0  0  0  0  0  0  0  0  0  0  0
   12.3226   -8.3021    3.1210 C   0  0  0  0  0  0  0  0  0  0  0  0
   11.7434   -5.5361    1.1782 N   0  0  0  0  0  0  0  0  0  0  0  0
   13.8470    0.4283    0.0768 H   0  0  0  0  0  0  0  0  0  0  0  0
   12.7960    1.8098   -0.3850 H   0  0  0  0  0  0  0  0  0  0  0  0
   12.4375    0.8658    1.1006 H   0  0  0  0  0  0  0  0  0  0  0  0
    9.8448   -0.3231   -1.3665 H   0  0  0  0  0  0  0  0  0  0  0  0
   10.0826    0.4222    0.2504 H   0  0  0  0  0  0  0  0  0  0  0  0
   10.4411    1.3662   -1.2352 H   0  0  0  0  0  0  0  0  0  0  0  0
   11.8515   -0.8968   -2.7814 H   0  0  0  0  0  0  0  0  0  0  0  0
   12.4674    0.7835   -2.6269 H   0  0  0  0  0  0  0  0  0  0  0  0
   13.5069   -0.6016   -2.1497 H   0  0  0  0  0  0  0  0  0  0  0  0
   11.3009   -1.2295    0.6765 H   0  0  0  0  0  0  0  0  0  0  0  0
   10.0827   -2.1118   -1.2237 H   0  0  0  0  0  0  0  0  0  0  0  0
    9.9647   -4.3869   -0.3071 H   0  0  0  0  0  0  0  0  0  0  0  0
   13.6687   -1.3871    0.9945 H   0  0  0  0  0  0  0  0  0  0  0  0
   14.9676   -3.4454    1.6062 H   0  0  0  0  0  0  0  0  0  0  0  0
   15.8033   -3.3142    3.8646 H   0  0  0  0  0  0  0  0  0  0  0  0
   14.6392   -3.4274    5.2279 H   0  0  0  0  0  0  0  0  0  0  0  0
   15.9735   -5.5480    4.8427 H   0  0  0  0  0  0  0  0  0  0  0  0
   14.1953   -5.7785    4.7366 H   0  0  0  0  0  0  0  0  0  0  0  0
   16.2076   -5.5939    2.4401 H   0  0  0  0  0  0  0  0  0  0  0  0
   15.1883   -6.9984    2.9040 H   0  0  0  0  0  0  0  0  0  0  0  0
   14.4256   -5.6592    0.8643 H   0  0  0  0  0  0  0  0  0  0  0  0
   12.3990   -5.7773    3.1435 H   0  0  0  0  0  0  0  0  0  0  0  0
   13.5616   -7.6010    0.0367 H   0  0  0  0  0  0  0  0  0  0  0  0
   13.6774  -10.0755   -0.0601 H   0  0  0  0  0  0  0  0  0  0  0  0
   11.4154   -9.7290    2.6246 H   0  0  0  0  0  0  0  0  0  0  0  0
   11.9097   -7.8256    3.9979 H   0  0  0  0  0  0  0  0  0  0  0  0
  1  2  1  0  0  0  0
  2  3  1  0  0  0  0
  2  4  1  0  0  0  0
  2  5  1  0  0  0  0
  5  6  1  0  0  0  0
  5 10  1  0  0  0  0
  6  7  2  0  0  0  0
  7  8  1  0  0  0  0
  8  9  1  0  0  0  0
  8 26  2  0  0  0  0
  9 10  2  0  0  0  0
  9 11  1  0  0  0  0
 11 12  1  0  0  0  0
 11 16  1  0  0  0  0
 12 13  1  0  0  0  0
 13 14  1  0  0  0  0
 14 15  1  0  0  0  0
 15 16  1  0  0  0  0
 16 17  1  0  0  0  0
 17 18  1  0  0  0  0
 17 26  1  0  0  0  0
 18 19  1  0  0  0  0
 18 25  2  0  0  0  0
 19 20  2  0  0  0  0
 20 21  1  0  0  0  0
 21 22  2  0  0  0  0
 21 23  1  0  0  0  0
 23 24  1  0  0  0  0
 23 25  1  0  0  0  0
  1 27  1  0  0  0  0
  1 28  1  0  0  0  0
  1 29  1  0  0  0  0
  3 30  1  0  0  0  0
  3 31  1  0  0  0  0
  3 32  1  0  0  0  0
  4 33  1  0  0  0  0
  4 34  1  0  0  0  0
  4 35  1  0  0  0  0
  5 36  1  0  0  0  0
  6 37  1  0  0  0  0
  7 38  1  0  0  0  0
 10 39  1  0  0  0  0
 11 40  1  0  0  0  0
 13 41  1  0  0  0  0
 13 42  1  0  0  0  0
 14 43  1  0  0  0  0
 14 44  1  0  0  0  0
 15 45  1  0  0  0  0
 15 46  1  0  0  0  0
 16 47  1  0  0  0  0
 17 48  1  0  0  0  0
 19 49  1  0  0  0  0
 20 50  1  0  0  0  0
 23 51  1  0  0  0  0
 25 52  1  0  0  0  0
M  END
> <ID>
CHEMBL1078774

> <IC50[nM]>
17

$$$$
CHEMBL1078774
  -OEChem-05192314313D
 Structure written by MMmdl.
 52 55  0     1  0  0  0  0  0999 V2000
   12.8146    0.8080    0.0689 C   0  0  0  0  0  0  0  0  0  0  0  0
   11.9194   -0.1474   -0.7542 C   0  0  0  0  0  0  0  0  0  0  0  0
   10.4685    0.3660   -0.7781 C   0  0  0  0  0  0  0  0  0  0  0  0
   12.4753   -0.2208   -2.1781 C   0  0  0  0  0  0  0  0  0  0  0  0
   11.8886   -1.5790   -0.1851 C   0  0  0  0  0  0  0  0  0  0  0  0
   10.8516   -2.4541   -0.5469 C   0  0  0  0  0  0  0  0  0  0  0  0
   10.7947   -3.7435   -0.0550 C   0  0  0  0  0  0  0  0  0  0  0  0
   11.8117   -4.2036    0.7644 C   0  0  0  0  0  0  0  0  0  0  0  0
   12.8807   -3.3692    1.1329 C   0  0  0  0  0  0  0  0  0  0  0  0
   12.8820   -2.0552    0.6763 C   0  0  0  0  0  0  0  0  0  0  0  0
   14.0286   -3.8741    1.9864 C   0  0  1  0  0  0  0  0  0  0  0  0
   13.8076   -3.4485    3.3326 O   0  0  0  0  0  0  0  0  0  0  0  0
   14.8758   -3.7894    4.2165 C   0  0  0  0  0  0  0  0  0  0  0  0
   15.0715   -5.3181    4.2567 C   0  0  0  0  0  0  0  0  0  0  0  0
   15.2314   -5.9009    2.8436 C   0  0  0  0  0  0  0  0  0  0  0  0
   14.1181   -5.4079    1.8901 C   0  0  1  0  0  0  0  0  0  0  0  0
   12.7185   -6.0488    2.1265 C   0  0  2  0  0  0  0  0  0  0  0  0
   12.7612   -7.5479    2.0351 C   0  0  0  0  0  0  0  0  0  0  0  0
   13.2453   -8.1893    0.8854 C   0  0  0  0  0  0  0  0  0  0  0  0
   13.3212   -9.5776    0.8297 C   0  0  0  0  0  0  0  0  0  0  0  0
   12.9274  -10.3120    1.9477 C   0  0  0  0  0  0  0  0  0  0  0  0
   12.9755  -11.6650    2.0910 O   0  0  0  0  0  0  0  0  0  0  0  0
   12.4304   -9.6686    3.0444 C   0  0  0  0  0  0  0  0  0  0  0  0
   12.0577  -10.4439    4.0695 F   0  0  0  0  0  0  0  0  0  0  0  0
   12.3226   -8.3021    3.1210 C   0  0  0  0  0  0  0  0  0  0  0  0
   11.7434   -5.5361    1.1782 N   0  0  0  0  0  0  0  0  0  0  0  0
   13.8470    0.4283    0.0768 H   0  0  0  0  0  0  0  0  0  0  0  0
   12.7960    1.8098   -0.3850 H   0  0  0  0  0  0  0  0  0  0  0  0
   12.4375    0.8658    1.1006 H   0  0  0  0  0  0  0  0  0  0  0  0
    9.8448   -0.3231   -1.3665 H   0  0  0  0  0  0  0  0  0  0  0  0
   10.0826    0.4222    0.2504 H   0  0  0  0  0  0  0  0  0  0  0  0
   10.4411    1.3662   -1.2352 H   0  0  0  0  0  0  0  0  0  0  0  0
   11.8515   -0.8968   -2.7814 H   0  0  0  0  0  0  0  0  0  0  0  0
   12.4674    0.7835   -2.6269 H   0  0  0  0  0  0  0  0  0  0  0  0
   13.5069   -0.6016   -2.1497 H   0  0  0  0  0  0  0  0  0  0  0  0
   11.3009   -1.2295    0.6765 H   0  0  0  0  0  0  0  0  0  0  0  0
   10.0827   -2.1118   -1.2237 H   0  0  0  0  0  0  0  0  0  0  0  0
    9.9647   -4.3869   -0.3071 H   0  0  0  0  0  0  0  0  0  0  0  0
   13.6687   -1.3871    0.9945 H   0  0  0  0  0  0  0  0  0  0  0  0
   14.9676   -3.4454    1.6062 H   0  0  0  0  0  0  0  0  0  0  0  0
   15.8033   -3.3142    3.8646 H   0  0  0  0  0  0  0  0  0  0  0  0
   14.6392   -3.4274    5.2279 H   0  0  0  0  0  0  0  0  0  0  0  0
   15.9735   -5.5480    4.8427 H   0  0  0  0  0  0  0  0  0  0  0  0
   14.1953   -5.7785    4.7366 H   0  0  0  0  0  0  0  0  0  0  0  0
   16.2076   -5.5939    2.4401 H   0  0  0  0  0  0  0  0  0  0  0  0
   15.1883   -6.9984    2.9040 H   0  0  0  0  0  0  0  0  0  0  0  0
   14.4256   -5.6592    0.8643 H   0  0  0  0  0  0  0  0  0  0  0  0
   12.3990   -5.7773    3.1435 H   0  0  0  0  0  0  0  0  0  0  0  0
   13.5616   -7.6010    0.0367 H   0  0  0  0  0  0  0  0  0  0  0  0
   12.6911   -9.9035   -0.0110 H   0  0  0  0  0  0  0  0  0  0  0  0
   14.3701   -9.8372    0.6240 H   0  0  0  0  0  0  0  0  0  0  0  0
   11.9097   -7.8256    3.9979 H   0  0  0  0  0  0  0  0  0  0  0  0
  1  2  1  0  0  0  0
  2  3  1  0  0  0  0
  2  4  1  0  0  0  0
  2  5  1  0  0  0  0
  5  6  1  0  0  0  0
  5 10  1  0  0  0  0
  6  7  2  0  0  0  0
  7  8  1  0  0  0  0
  8  9  1  0  0  0  0
  8 26  2  0  0  0  0
  9 10  2  0  0  0  0
  9 11  1  0  0  0  0
 11 12  1  0  0  0  0
 11 16  1  0  0  0  0
 12 13  1  0  0  0  0
 13 14  1  0  0  0  0
 14 15  1  0  0  0  0
 15 16  1  0  0  0  0
 16 17  1  0  0  0  0
 17 18  1  0  0  0  0
 17 26  1  0  0  0  0
 18 19  2  0  0  0  0
 18 25  1  0  0  0  0
 19 20  1  0  0  0  0
 20 21  1  0  0  0  0
 21 22  2  0  0  0  0
 21 23  1  0  0  0  0
 23 24  1  0  0  0  0
 23 25  2  0  0  0  0
  1 27  1  0  0  0  0
  1 28  1  0  0  0  0
  1 29  1  0  0  0  0
  3 30  1  0  0  0  0
  3 31  1  0  0  0  0
  3 32  1  0  0  0  0
  4 33  1  0  0  0  0
  4 34  1  0  0  0  0
  4 35  1  0  0  0  0
  5 36  1  0  0  0  0
  6 37  1  0  0  0  0
  7 38  1  0  0  0  0
 10 39  1  0  0  0  0
 11 40  1  0  0  0  0
 13 41  1  0  0  0  0
 13 42  1  0  0  0  0
 14 43  1  0  0  0  0
 14 44  1  0  0  0  0
 15 45  1  0  0  0  0
 15 46  1  0  0  0  0
 16 47  1  0  0  0  0
 17 48  1  0  0  0  0
 19 49  1  0  0  0  0
 20 50  1  0  0  0  0
 20 51  1  0  0  0  0
 25 52  1  0  0  0  0
M  END
> <ID>
CHEMBL1078774

> <IC50[nM]>
17

$$$$
CHEMBL1078774
  -OEChem-05192314313D
 Structure written by MMmdl.
 52 55  0     1  0  0  0  0  0999 V2000
   12.8146    0.8080    0.0689 C   0  0  0  0  0  0  0  0  0  0  0  0
   11.9194   -0.1474   -0.7542 C   0  0  0  0  0  0  0  0  0  0  0  0
   10.4685    0.3660   -0.7781 C   0  0  0  0  0  0  0  0  0  0  0  0
   12.4753   -0.2208   -2.1781 C   0  0  0  0  0  0  0  0  0  0  0  0
   11.8886   -1.5790   -0.1851 C   0  0  0  0  0  0  0  0  0  0  0  0
   10.8516   -2.4541   -0.5469 C   0  0  0  0  0  0  0  0  0  0  0  0
   10.7947   -3.7435   -0.0550 C   0  0  0  0  0  0  0  0  0  0  0  0
   11.8117   -4.2036    0.7644 C   0  0  0  0  0  0  0  0  0  0  0  0
   12.8807   -3.3692    1.1329 C   0  0  0  0  0  0  0  0  0  0  0  0
   12.8820   -2.0552    0.6763 C   0  0  0  0  0  0  0  0  0  0  0  0
   14.0286   -3.8741    1.9864 C   0  0  1  0  0  0  0  0  0  0  0  0
   13.8076   -3.4485    3.3326 O   0  0  0  0  0  0  0  0  0  0  0  0
   14.8758   -3.7894    4.2165 C   0  0  0  0  0  0  0  0  0  0  0  0
   15.0715   -5.3181    4.2567 C   0  0  0  0  0  0  0  0  0  0  0  0
   15.2314   -5.9009    2.8436 C   0  0  0  0  0  0  0  0  0  0  0  0
   14.1181   -5.4079    1.8901 C   0  0  1  0  0  0  0  0  0  0  0  0
   12.7185   -6.0488    2.1265 C   0  0  2  0  0  0  0  0  0  0  0  0
   12.7612   -7.5479    2.0351 C   0  0  0  0  0  0  0  0  0  0  0  0
   13.2453   -8.1893    0.8854 C   0  0  0  0  0  0  0  0  0  0  0  0
   13.3212   -9.5776    0.8297 C   0  0  0  0  0  0  0  0  0  0  0  0
   12.9274  -10.3120    1.9477 C   0  0  0  0  0  0  0  0  0  0  0  0
   12.9755  -11.6650    2.0910 O   0  0  0  0  0  0  0  0  0  0  0  0
   12.4304   -9.6686    3.0444 C   0  0  0  0  0  0  0  0  0  0  0  0
   12.0577  -10.4439    4.0695 F   0  0  0  0  0  0  0  0  0  0  0  0
   12.3226   -8.3021    3.1210 C   0  0  0  0  0  0  0  0  0  0  0  0
   11.7434   -5.5361    1.1782 N   0  0  0  0  0  0  0  0  0  0  0  0
   13.8470    0.4283    0.0768 H   0  0  0  0  0  0  0  0  0  0  0  0
   12.7960    1.8098   -0.3850 H   0  0  0  0  0  0  0  0  0  0  0  0
   12.4375    0.8658    1.1006 H   0  0  0  0  0  0  0  0  0  0  0  0
    9.8448   -0.3231   -1.3665 H   0  0  0  0  0  0  0  0  0  0  0  0
   10.0826    0.4222    0.2504 H   0  0  0  0  0  0  0  0  0  0  0  0
   10.4411    1.3662   -1.2352 H   0  0  0  0  0  0  0  0  0  0  0  0
   11.8515   -0.8968   -2.7814 H   0  0  0  0  0  0  0  0  0  0  0  0
   12.4674    0.7835   -2.6269 H   0  0  0  0  0  0  0  0  0  0  0  0
   13.5069   -0.6016   -2.1497 H   0  0  0  0  0  0  0  0  0  0  0  0
   10.0827   -2.1118   -1.2237 H   0  0  0  0  0  0  0  0  0  0  0  0
    9.9647   -4.3869   -0.3071 H   0  0  0  0  0  0  0  0  0  0  0  0
   12.3362   -3.0608    2.0376 H   0  0  0  0  0  0  0  0  0  0  0  0
   13.6687   -1.3871    0.9945 H   0  0  0  0  0  0  0  0  0  0  0  0
   14.9676   -3.4454    1.6062 H   0  0  0  0  0  0  0  0  0  0  0  0
   15.8033   -3.3142    3.8646 H   0  0  0  0  0  0  0  0  0  0  0  0
   14.6392   -3.4274    5.2279 H   0  0  0  0  0  0  0  0  0  0  0  0
   15.9735   -5.5480    4.8427 H   0  0  0  0  0  0  0  0  0  0  0  0
   14.1953   -5.7785    4.7366 H   0  0  0  0  0  0  0  0  0  0  0  0
   16.2076   -5.5939    2.4401 H   0  0  0  0  0  0  0  0  0  0  0  0
   15.1883   -6.9984    2.9040 H   0  0  0  0  0  0  0  0  0  0  0  0
   14.4256   -5.6592    0.8643 H   0  0  0  0  0  0  0  0  0  0  0  0
   12.3990   -5.7773    3.1435 H   0  0  0  0  0  0  0  0  0  0  0  0
   11.7445   -7.5546    1.6152 H   0  0  0  0  0  0  0  0  0  0  0  0
   13.5616   -7.6010    0.0367 H   0  0  0  0  0  0  0  0  0  0  0  0
   13.6774  -10.0755   -0.0601 H   0  0  0  0  0  0  0  0  0  0  0  0
   11.9097   -7.8256    3.9979 H   0  0  0  0  0  0  0  0  0  0  0  0
  1  2  1  0  0  0  0
  2  3  1  0  0  0  0
  2  4  1  0  0  0  0
  2  5  1  0  0  0  0
  5  6  1  0  0  0  0
  5 10  2  0  0  0  0
  6  7  2  0  0  0  0
  7  8  1  0  0  0  0
  8  9  1  0  0  0  0
  8 26  2  0  0  0  0
  9 10  1  0  0  0  0
  9 11  1  0  0  0  0
 11 12  1  0  0  0  0
 11 16  1  0  0  0  0
 12 13  1  0  0  0  0
 13 14  1  0  0  0  0
 14 15  1  0  0  0  0
 15 16  1  0  0  0  0
 16 17  1  0  0  0  0
 17 18  1  0  0  0  0
 17 26  1  0  0  0  0
 18 19  1  0  0  0  0
 18 25  1  0  0  0  0
 19 20  2  0  0  0  0
 20 21  1  0  0  0  0
 21 22  2  0  0  0  0
 21 23  1  0  0  0  0
 23 24  1  0  0  0  0
 23 25  2  0  0  0  0
  1 27  1  0  0  0  0
  1 28  1  0  0  0  0
  1 29  1  0  0  0  0
  3 30  1  0  0  0  0
  3 31  1  0  0  0  0
  3 32  1  0  0  0  0
  4 33  1  0  0  0  0
  4 34  1  0  0  0  0
  4 35  1  0  0  0  0
  6 36  1  0  0  0  0
  7 37  1  0  0  0  0
  9 38  1  0  0  0  0
 10 39  1  0  0  0  0
 11 40  1  0  0  0  0
 13 41  1  0  0  0  0
 13 42  1  0  0  0  0
 14 43  1  0  0  0  0
 14 44  1  0  0  0  0
 15 45  1  0  0  0  0
 15 46  1  0  0  0  0
 16 47  1  0  0  0  0
 17 48  1  0  0  0  0
 18 49  1  0  0  0  0
 19 50  1  0  0  0  0
 20 51  1  0  0  0  0
 25 52  1  0  0  0  0
M  END
> <ID>
CHEMBL1078774

> <IC50[nM]>
17

$$$$
CHEMBL1078774
  -OEChem-05192314313D
 Structure written by MMmdl.
 52 55  0     1  0  0  0  0  0999 V2000
   12.8146    0.8080    0.0689 C   0  0  0  0  0  0  0  0  0  0  0  0
   11.9194   -0.1474   -0.7542 C   0  0  0  0  0  0  0  0  0  0  0  0
   10.4685    0.3660   -0.7781 C   0  0  0  0  0  0  0  0  0  0  0  0
   12.4753   -0.2208   -2.1781 C   0  0  0  0  0  0  0  0  0  0  0  0
   11.8886   -1.5790   -0.1851 C   0  0  0  0  0  0  0  0  0  0  0  0
   10.8516   -2.4541   -0.5469 C   0  0  0  0  0  0  0  0  0  0  0  0
   10.7947   -3.7435   -0.0550 C   0  0  0  0  0  0  0  0  0  0  0  0
   11.8117   -4.2036    0.7644 C   0  0  0  0  0  0  0  0  0  0  0  0
   12.8807   -3.3692    1.1329 C   0  0  0  0  0  0  0  0  0  0  0  0
   12.8820   -2.0552    0.6763 C   0  0  0  0  0  0  0  0  0  0  0  0
   14.0286   -3.8741    1.9864 C   0  0  1  0  0  0  0  0  0  0  0  0
   13.8076   -3.4485    3.3326 O   0  0  0  0  0  0  0  0  0  0  0  0
   14.8758   -3.7894    4.2165 C   0  0  0  0  0  0  0  0  0  0  0  0
   15.0715   -5.3181    4.2567 C   0  0  0  0  0  0  0  0  0  0  0  0
   15.2314   -5.9009    2.8436 C   0  0  0  0  0  0  0  0  0  0  0  0
   14.1181   -5.4079    1.8901 C   0  0  1  0  0  0  0  0  0  0  0  0
   12.7185   -6.0488    2.1265 C   0  0  2  0  0  0  0  0  0  0  0  0
   12.7612   -7.5479    2.0351 C   0  0  0  0  0  0  0  0  0  0  0  0
   13.2453   -8.1893    0.8854 C   0  0  0  0  0  0  0  0  0  0  0  0
   13.3212   -9.5776    0.8297 C   0  0  0  0  0  0  0  0  0  0  0  0
   12.9274  -10.3120    1.9477 C   0  0  0  0  0  0  0  0  0  0  0  0
   12.9755  -11.6650    2.0910 O   0  0  0  0  0  0  0  0  0  0  0  0
   12.4304   -9.6686    3.0444 C   0  0  0  0  0  0  0  0  0  0  0  0
   12.0577  -10.4439    4.0695 F   0  0  0  0  0  0  0  0  0  0  0  0
   12.3226   -8.3021    3.1210 C   0  0  0  0  0  0  0  0  0  0  0  0
   11.7434   -5.5361    1.1782 N   0  0  0  0  0  0  0  0  0  0  0  0
   13.8470    0.4283    0.0768 H   0  0  0  0  0  0  0  0  0  0  0  0
   12.7960    1.8098   -0.3850 H   0  0  0  0  0  0  0  0  0  0  0  0
   12.4375    0.8658    1.1006 H   0  0  0  0  0  0  0  0  0  0  0  0
    9.8448   -0.3231   -1.3665 H   0  0  0  0  0  0  0  0  0  0  0  0
   10.0826    0.4222    0.2504 H   0  0  0  0  0  0  0  0  0  0  0  0
   10.4411    1.3662   -1.2352 H   0  0  0  0  0  0  0  0  0  0  0  0
   11.8515   -0.8968   -2.7814 H   0  0  0  0  0  0  0  0  0  0  0  0
   12.4674    0.7835   -2.6269 H   0  0  0  0  0  0  0  0  0  0  0  0
   13.5069   -0.6016   -2.1497 H   0  0  0  0  0  0  0  0  0  0  0  0
   10.0827   -2.1118   -1.2237 H   0  0  0  0  0  0  0  0  0  0  0  0
    9.9647   -4.3869   -0.3071 H   0  0  0  0  0  0  0  0  0  0  0  0
   12.3362   -3.0608    2.0376 H   0  0  0  0  0  0  0  0  0  0  0  0
   13.6687   -1.3871    0.9945 H   0  0  0  0  0  0  0  0  0  0  0  0
   14.9676   -3.4454    1.6062 H   0  0  0  0  0  0  0  0  0  0  0  0
   15.8033   -3.3142    3.8646 H   0  0  0  0  0  0  0  0  0  0  0  0
   14.6392   -3.4274    5.2279 H   0  0  0  0  0  0  0  0  0  0  0  0
   15.9735   -5.5480    4.8427 H   0  0  0  0  0  0  0  0  0  0  0  0
   14.1953   -5.7785    4.7366 H   0  0  0  0  0  0  0  0  0  0  0  0
   16.2076   -5.5939    2.4401 H   0  0  0  0  0  0  0  0  0  0  0  0
   15.1883   -6.9984    2.9040 H   0  0  0  0  0  0  0  0  0  0  0  0
   14.4256   -5.6592    0.8643 H   0  0  0  0  0  0  0  0  0  0  0  0
   12.3990   -5.7773    3.1435 H   0  0  0  0  0  0  0  0  0  0  0  0
   13.5616   -7.6010    0.0367 H   0  0  0  0  0  0  0  0  0  0  0  0
   13.6774  -10.0755   -0.0601 H   0  0  0  0  0  0  0  0  0  0  0  0
   11.4154   -9.7290    2.6246 H   0  0  0  0  0  0  0  0  0  0  0  0
   11.9097   -7.8256    3.9979 H   0  0  0  0  0  0  0  0  0  0  0  0
  1  2  1  0  0  0  0
  2  3  1  0  0  0  0
  2  4  1  0  0  0  0
  2  5  1  0  0  0  0
  5  6  1  0  0  0  0
  5 10  2  0  0  0  0
  6  7  2  0  0  0  0
  7  8  1  0  0  0  0
  8  9  1  0  0  0  0
  8 26  2  0  0  0  0
  9 10  1  0  0  0  0
  9 11  1  0  0  0  0
 11 12  1  0  0  0  0
 11 16  1  0  0  0  0
 12 13  1  0  0  0  0
 13 14  1  0  0  0  0
 14 15  1  0  0  0  0
 15 16  1  0  0  0  0
 16 17  1  0  0  0  0
 17 18  1  0  0  0  0
 17 26  1  0  0  0  0
 18 19  1  0  0  0  0
 18 25  2  0  0  0  0
 19 20  2  0  0  0  0
 20 21  1  0  0  0  0
 21 22  2  0  0  0  0
 21 23  1  0  0  0  0
 23 24  1  0  0  0  0
 23 25  1  0  0  0  0
  1 27  1  0  0  0  0
  1 28  1  0  0  0  0
  1 29  1  0  0  0  0
  3 30  1  0  0  0  0
  3 31  1  0  0  0  0
  3 32  1  0  0  0  0
  4 33  1  0  0  0  0
  4 34  1  0  0  0  0
  4 35  1  0  0  0  0
  6 36  1  0  0  0  0
  7 37  1  0  0  0  0
  9 38  1  0  0  0  0
 10 39  1  0  0  0  0
 11 40  1  0  0  0  0
 13 41  1  0  0  0  0
 13 42  1  0  0  0  0
 14 43  1  0  0  0  0
 14 44  1  0  0  0  0
 15 45  1  0  0  0  0
 15 46  1  0  0  0  0
 16 47  1  0  0  0  0
 17 48  1  0  0  0  0
 19 49  1  0  0  0  0
 20 50  1  0  0  0  0
 23 51  1  0  0  0  0
 25 52  1  0  0  0  0
M  END
> <ID>
CHEMBL1078774

> <IC50[nM]>
17

$$$$
CHEMBL1078774
  -OEChem-05192314313D
 Structure written by MMmdl.
 52 55  0     1  0  0  0  0  0999 V2000
   12.8146    0.8080    0.0689 C   0  0  0  0  0  0  0  0  0  0  0  0
   11.9194   -0.1474   -0.7542 C   0  0  0  0  0  0  0  0  0  0  0  0
   10.4685    0.3660   -0.7781 C   0  0  0  0  0  0  0  0  0  0  0  0
   12.4753   -0.2208   -2.1781 C   0  0  0  0  0  0  0  0  0  0  0  0
   11.8886   -1.5790   -0.1851 C   0  0  0  0  0  0  0  0  0  0  0  0
   10.8516   -2.4541   -0.5469 C   0  0  0  0  0  0  0  0  0  0  0  0
   10.7947   -3.7435   -0.0550 C   0  0  0  0  0  0  0  0  0  0  0  0
   11.8117   -4.2036    0.7644 C   0  0  0  0  0  0  0  0  0  0  0  0
   12.8807   -3.3692    1.1329 C   0  0  0  0  0  0  0  0  0  0  0  0
   12.8820   -2.0552    0.6763 C   0  0  0  0  0  0  0  0  0  0  0  0
   14.0286   -3.8741    1.9864 C   0  0  1  0  0  0  0  0  0  0  0  0
   13.8076   -3.4485    3.3326 O   0  0  0  0  0  0  0  0  0  0  0  0
   14.8758   -3.7894    4.2165 C   0  0  0  0  0  0  0  0  0  0  0  0
   15.0715   -5.3181    4.2567 C   0  0  0  0  0  0  0  0  0  0  0  0
   15.2314   -5.9009    2.8436 C   0  0  0  0  0  0  0  0  0  0  0  0
   14.1181   -5.4079    1.8901 C   0  0  1  0  0  0  0  0  0  0  0  0
   12.7185   -6.0488    2.1265 C   0  0  2  0  0  0  0  0  0  0  0  0
   12.7612   -7.5479    2.0351 C   0  0  0  0  0  0  0  0  0  0  0  0
   13.2453   -8.1893    0.8854 C   0  0  0  0  0  0  0  0  0  0  0  0
   13.3212   -9.5776    0.8297 C   0  0  0  0  0  0  0  0  0  0  0  0
   12.9274  -10.3120    1.9477 C   0  0  0  0  0  0  0  0  0  0  0  0
   12.9755  -11.6650    2.0910 O   0  0  0  0  0  0  0  0  0  0  0  0
   12.4304   -9.6686    3.0444 C   0  0  0  0  0  0  0  0  0  0  0  0
   12.0577  -10.4439    4.0695 F   0  0  0  0  0  0  0  0  0  0  0  0
   12.3226   -8.3021    3.1210 C   0  0  0  0  0  0  0  0  0  0  0  0
   11.7434   -5.5361    1.1782 N   0  0  0  0  0  0  0  0  0  0  0  0
   13.8470    0.4283    0.0768 H   0  0  0  0  0  0  0  0  0  0  0  0
   12.7960    1.8098   -0.3850 H   0  0  0  0  0  0  0  0  0  0  0  0
   12.4375    0.8658    1.1006 H   0  0  0  0  0  0  0  0  0  0  0  0
    9.8448   -0.3231   -1.3665 H   0  0  0  0  0  0  0  0  0  0  0  0
   10.0826    0.4222    0.2504 H   0  0  0  0  0  0  0  0  0  0  0  0
   10.4411    1.3662   -1.2352 H   0  0  0  0  0  0  0  0  0  0  0  0
   11.8515   -0.8968   -2.7814 H   0  0  0  0  0  0  0  0  0  0  0  0
   12.4674    0.7835   -2.6269 H   0  0  0  0  0  0  0  0  0  0  0  0
   13.5069   -0.6016   -2.1497 H   0  0  0  0  0  0  0  0  0  0  0  0
   10.0827   -2.1118   -1.2237 H   0  0  0  0  0  0  0  0  0  0  0  0
    9.9647   -4.3869   -0.3071 H   0  0  0  0  0  0  0  0  0  0  0  0
   12.3362   -3.0608    2.0376 H   0  0  0  0  0  0  0  0  0  0  0  0
   13.6687   -1.3871    0.9945 H   0  0  0  0  0  0  0  0  0  0  0  0
   14.9676   -3.4454    1.6062 H   0  0  0  0  0  0  0  0  0  0  0  0
   15.8033   -3.3142    3.8646 H   0  0  0  0  0  0  0  0  0  0  0  0
   14.6392   -3.4274    5.2279 H   0  0  0  0  0  0  0  0  0  0  0  0
   15.9735   -5.5480    4.8427 H   0  0  0  0  0  0  0  0  0  0  0  0
   14.1953   -5.7785    4.7366 H   0  0  0  0  0  0  0  0  0  0  0  0
   16.2076   -5.5939    2.4401 H   0  0  0  0  0  0  0  0  0  0  0  0
   15.1883   -6.9984    2.9040 H   0  0  0  0  0  0  0  0  0  0  0  0
   14.4256   -5.6592    0.8643 H   0  0  0  0  0  0  0  0  0  0  0  0
   12.3990   -5.7773    3.1435 H   0  0  0  0  0  0  0  0  0  0  0  0
   13.5616   -7.6010    0.0367 H   0  0  0  0  0  0  0  0  0  0  0  0
   12.6911   -9.9035   -0.0110 H   0  0  0  0  0  0  0  0  0  0  0  0
   14.3701   -9.8372    0.6240 H   0  0  0  0  0  0  0  0  0  0  0  0
   11.9097   -7.8256    3.9979 H   0  0  0  0  0  0  0  0  0  0  0  0
  1  2  1  0  0  0  0
  2  3  1  0  0  0  0
  2  4  1  0  0  0  0
  2  5  1  0  0  0  0
  5  6  1  0  0  0  0
  5 10  2  0  0  0  0
  6  7  2  0  0  0  0
  7  8  1  0  0  0  0
  8  9  1  0  0  0  0
  8 26  2  0  0  0  0
  9 10  1  0  0  0  0
  9 11  1  0  0  0  0
 11 12  1  0  0  0  0
 11 16  1  0  0  0  0
 12 13  1  0  0  0  0
 13 14  1  0  0  0  0
 14 15  1  0  0  0  0
 15 16  1  0  0  0  0
 16 17  1  0  0  0  0
 17 18  1  0  0  0  0
 17 26  1  0  0  0  0
 18 19  2  0  0  0  0
 18 25  1  0  0  0  0
 19 20  1  0  0  0  0
 20 21  1  0  0  0  0
 21 22  2  0  0  0  0
 21 23  1  0  0  0  0
 23 24  1  0  0  0  0
 23 25  2  0  0  0  0
  1 27  1  0  0  0  0
  1 28  1  0  0  0  0
  1 29  1  0  0  0  0
  3 30  1  0  0  0  0
  3 31  1  0  0  0  0
  3 32  1  0  0  0  0
  4 33  1  0  0  0  0
  4 34  1  0  0  0  0
  4 35  1  0  0  0  0
  6 36  1  0  0  0  0
  7 37  1  0  0  0  0
  9 38  1  0  0  0  0
 10 39  1  0  0  0  0
 11 40  1  0  0  0  0
 13 41  1  0  0  0  0
 13 42  1  0  0  0  0
 14 43  1  0  0  0  0
 14 44  1  0  0  0  0
 15 45  1  0  0  0  0
 15 46  1  0  0  0  0
 16 47  1  0  0  0  0
 17 48  1  0  0  0  0
 19 49  1  0  0  0  0
 20 50  1  0  0  0  0
 20 51  1  0  0  0  0
 25 52  1  0  0  0  0
M  END
> <ID>
CHEMBL1078774

> <IC50[nM]>
17

$$$$
CHEMBL1078774
  -OEChem-05192314313D
 Structure written by MMmdl.
 52 55  0     1  0  0  0  0  0999 V2000
   12.8146    0.8080    0.0689 C   0  0  0  0  0  0  0  0  0  0  0  0
   11.9194   -0.1474   -0.7542 C   0  0  0  0  0  0  0  0  0  0  0  0
   10.4685    0.3660   -0.7781 C   0  0  0  0  0  0  0  0  0  0  0  0
   12.4753   -0.2208   -2.1781 C   0  0  0  0  0  0  0  0  0  0  0  0
   11.8886   -1.5790   -0.1851 C   0  0  0  0  0  0  0  0  0  0  0  0
   10.8516   -2.4541   -0.5469 C   0  0  0  0  0  0  0  0  0  0  0  0
   10.7947   -3.7435   -0.0550 C   0  0  0  0  0  0  0  0  0  0  0  0
   11.8117   -4.2036    0.7644 C   0  0  0  0  0  0  0  0  0  0  0  0
   12.8807   -3.3692    1.1329 C   0  0  0  0  0  0  0  0  0  0  0  0
   12.8820   -2.0552    0.6763 C   0  0  0  0  0  0  0  0  0  0  0  0
   14.0286   -3.8741    1.9864 C   0  0  1  0  0  0  0  0  0  0  0  0
   13.8076   -3.4485    3.3326 O   0  0  0  0  0  0  0  0  0  0  0  0
   14.8758   -3.7894    4.2165 C   0  0  0  0  0  0  0  0  0  0  0  0
   15.0715   -5.3181    4.2567 C   0  0  0  0  0  0  0  0  0  0  0  0
   15.2314   -5.9009    2.8436 C   0  0  0  0  0  0  0  0  0  0  0  0
   14.1181   -5.4079    1.8901 C   0  0  1  0  0  0  0  0  0  0  0  0
   12.7185   -6.0488    2.1265 C   0  0  2  0  0  0  0  0  0  0  0  0
   12.7612   -7.5479    2.0351 C   0  0  0  0  0  0  0  0  0  0  0  0
   13.2453   -8.1893    0.8854 C   0  0  0  0  0  0  0  0  0  0  0  0
   13.3212   -9.5776    0.8297 C   0  0  0  0  0  0  0  0  0  0  0  0
   12.9274  -10.3120    1.9477 C   0  0  0  0  0  0  0  0  0  0  0  0
   12.9755  -11.6650    2.0910 O   0  0  0  0  0  0  0  0  0  0  0  0
   12.4304   -9.6686    3.0444 C   0  0  0  0  0  0  0  0  0  0  0  0
   12.0577  -10.4439    4.0695 F   0  0  0  0  0  0  0  0  0  0  0  0
   12.3226   -8.3021    3.1210 C   0  0  0  0  0  0  0  0  0  0  0  0
   11.7434   -5.5361    1.1782 N   0  0  0  0  0  0  0  0  0  0  0  0
   13.8470    0.4283    0.0768 H   0  0  0  0  0  0  0  0  0  0  0  0
   12.7960    1.8098   -0.3850 H   0  0  0  0  0  0  0  0  0  0  0  0
   12.4375    0.8658    1.1006 H   0  0  0  0  0  0  0  0  0  0  0  0
    9.8448   -0.3231   -1.3665 H   0  0  0  0  0  0  0  0  0  0  0  0
   10.0826    0.4222    0.2504 H   0  0  0  0  0  0  0  0  0  0  0  0
   10.4411    1.3662   -1.2352 H   0  0  0  0  0  0  0  0  0  0  0  0
   11.8515   -0.8968   -2.7814 H   0  0  0  0  0  0  0  0  0  0  0  0
   12.4674    0.7835   -2.6269 H   0  0  0  0  0  0  0  0  0  0  0  0
   13.5069   -0.6016   -2.1497 H   0  0  0  0  0  0  0  0  0  0  0  0
   10.0827   -2.1118   -1.2237 H   0  0  0  0  0  0  0  0  0  0  0  0
    9.8592   -3.8271    0.5176 H   0  0  0  0  0  0  0  0  0  0  0  0
   10.7541   -4.4166   -0.9241 H   0  0  0  0  0  0  0  0  0  0  0  0
   13.6687   -1.3871    0.9945 H   0  0  0  0  0  0  0  0  0  0  0  0
   14.9676   -3.4454    1.6062 H   0  0  0  0  0  0  0  0  0  0  0  0
   15.8033   -3.3142    3.8646 H   0  0  0  0  0  0  0  0  0  0  0  0
   14.6392   -3.4274    5.2279 H   0  0  0  0  0  0  0  0  0  0  0  0
   15.9735   -5.5480    4.8427 H   0  0  0  0  0  0  0  0  0  0  0  0
   14.1953   -5.7785    4.7366 H   0  0  0  0  0  0  0  0  0  0  0  0
   16.2076   -5.5939    2.4401 H   0  0  0  0  0  0  0  0  0  0  0  0
   15.1883   -6.9984    2.9040 H   0  0  0  0  0  0  0  0  0  0  0  0
   14.4256   -5.6592    0.8643 H   0  0  0  0  0  0  0  0  0  0  0  0
   12.3990   -5.7773    3.1435 H   0  0  0  0  0  0  0  0  0  0  0  0
   11.7445   -7.5546    1.6152 H   0  0  0  0  0  0  0  0  0  0  0  0
   13.5616   -7.6010    0.0367 H   0  0  0  0  0  0  0  0  0  0  0  0
   13.6774  -10.0755   -0.0601 H   0  0  0  0  0  0  0  0  0  0  0  0
   11.9097   -7.8256    3.9979 H   0  0  0  0  0  0  0  0  0  0  0  0
  1  2  1  0  0  0  0
  2  3  1  0  0  0  0
  2  4  1  0  0  0  0
  2  5  1  0  0  0  0
  5  6  2  0  0  0  0
  5 10  1  0  0  0  0
  6  7  1  0  0  0  0
  7  8  1  0  0  0  0
  8  9  1  0  0  0  0
  8 26  2  0  0  0  0
  9 10  2  0  0  0  0
  9 11  1  0  0  0  0
 11 12  1  0  0  0  0
 11 16  1  0  0  0  0
 12 13  1  0  0  0  0
 13 14  1  0  0  0  0
 14 15  1  0  0  0  0
 15 16  1  0  0  0  0
 16 17  1  0  0  0  0
 17 18  1  0  0  0  0
 17 26  1  0  0  0  0
 18 19  1  0  0  0  0
 18 25  1  0  0  0  0
 19 20  2  0  0  0  0
 20 21  1  0  0  0  0
 21 22  2  0  0  0  0
 21 23  1  0  0  0  0
 23 24  1  0  0  0  0
 23 25  2  0  0  0  0
  1 27  1  0  0  0  0
  1 28  1  0  0  0  0
  1 29  1  0  0  0  0
  3 30  1  0  0  0  0
  3 31  1  0  0  0  0
  3 32  1  0  0  0  0
  4 33  1  0  0  0  0
  4 34  1  0  0  0  0
  4 35  1  0  0  0  0
  6 36  1  0  0  0  0
  7 37  1  0  0  0  0
  7 38  1  0  0  0  0
 10 39  1  0  0  0  0
 11 40  1  0  0  0  0
 13 41  1  0  0  0  0
 13 42  1  0  0  0  0
 14 43  1  0  0  0  0
 14 44  1  0  0  0  0
 15 45  1  0  0  0  0
 15 46  1  0  0  0  0
 16 47  1  0  0  0  0
 17 48  1  0  0  0  0
 18 49  1  0  0  0  0
 19 50  1  0  0  0  0
 20 51  1  0  0  0  0
 25 52  1  0  0  0  0
M  END
> <ID>
CHEMBL1078774

> <IC50[nM]>
17

$$$$
CHEMBL1078774
  -OEChem-05192314313D
 Structure written by MMmdl.
 52 55  0     1  0  0  0  0  0999 V2000
   12.8146    0.8080    0.0689 C   0  0  0  0  0  0  0  0  0  0  0  0
   11.9194   -0.1474   -0.7542 C   0  0  0  0  0  0  0  0  0  0  0  0
   10.4685    0.3660   -0.7781 C   0  0  0  0  0  0  0  0  0  0  0  0
   12.4753   -0.2208   -2.1781 C   0  0  0  0  0  0  0  0  0  0  0  0
   11.8886   -1.5790   -0.1851 C   0  0  0  0  0  0  0  0  0  0  0  0
   10.8516   -2.4541   -0.5469 C   0  0  0  0  0  0  0  0  0  0  0  0
   10.7947   -3.7435   -0.0550 C   0  0  0  0  0  0  0  0  0  0  0  0
   11.8117   -4.2036    0.7644 C   0  0  0  0  0  0  0  0  0  0  0  0
   12.8807   -3.3692    1.1329 C   0  0  0  0  0  0  0  0  0  0  0  0
   12.8820   -2.0552    0.6763 C   0  0  0  0  0  0  0  0  0  0  0  0
   14.0286   -3.8741    1.9864 C   0  0  1  0  0  0  0  0  0  0  0  0
   13.8076   -3.4485    3.3326 O   0  0  0  0  0  0  0  0  0  0  0  0
   14.8758   -3.7894    4.2165 C   0  0  0  0  0  0  0  0  0  0  0  0
   15.0715   -5.3181    4.2567 C   0  0  0  0  0  0  0  0  0  0  0  0
   15.2314   -5.9009    2.8436 C   0  0  0  0  0  0  0  0  0  0  0  0
   14.1181   -5.4079    1.8901 C   0  0  1  0  0  0  0  0  0  0  0  0
   12.7185   -6.0488    2.1265 C   0  0  2  0  0  0  0  0  0  0  0  0
   12.7612   -7.5479    2.0351 C   0  0  0  0  0  0  0  0  0  0  0  0
   13.2453   -8.1893    0.8854 C   0  0  0  0  0  0  0  0  0  0  0  0
   13.3212   -9.5776    0.8297 C   0  0  0  0  0  0  0  0  0  0  0  0
   12.9274  -10.3120    1.9477 C   0  0  0  0  0  0  0  0  0  0  0  0
   12.9755  -11.6650    2.0910 O   0  0  0  0  0  0  0  0  0  0  0  0
   12.4304   -9.6686    3.0444 C   0  0  0  0  0  0  0  0  0  0  0  0
   12.0577  -10.4439    4.0695 F   0  0  0  0  0  0  0  0  0  0  0  0
   12.3226   -8.3021    3.1210 C   0  0  0  0  0  0  0  0  0  0  0  0
   11.7434   -5.5361    1.1782 N   0  0  0  0  0  0  0  0  0  0  0  0
   13.8470    0.4283    0.0768 H   0  0  0  0  0  0  0  0  0  0  0  0
   12.7960    1.8098   -0.3850 H   0  0  0  0  0  0  0  0  0  0  0  0
   12.4375    0.8658    1.1006 H   0  0  0  0  0  0  0  0  0  0  0  0
    9.8448   -0.3231   -1.3665 H   0  0  0  0  0  0  0  0  0  0  0  0
   10.0826    0.4222    0.2504 H   0  0  0  0  0  0  0  0  0  0  0  0
   10.4411    1.3662   -1.2352 H   0  0  0  0  0  0  0  0  0  0  0  0
   11.8515   -0.8968   -2.7814 H   0  0  0  0  0  0  0  0  0  0  0  0
   12.4674    0.7835   -2.6269 H   0  0  0  0  0  0  0  0  0  0  0  0
   13.5069   -0.6016   -2.1497 H   0  0  0  0  0  0  0  0  0  0  0  0
   10.0827   -2.1118   -1.2237 H   0  0  0  0  0  0  0  0  0  0  0  0
    9.8592   -3.8271    0.5176 H   0  0  0  0  0  0  0  0  0  0  0  0
   10.7541   -4.4166   -0.9241 H   0  0  0  0  0  0  0  0  0  0  0  0
   13.6687   -1.3871    0.9945 H   0  0  0  0  0  0  0  0  0  0  0  0
   14.9676   -3.4454    1.6062 H   0  0  0  0  0  0  0  0  0  0  0  0
   15.8033   -3.3142    3.8646 H   0  0  0  0  0  0  0  0  0  0  0  0
   14.6392   -3.4274    5.2279 H   0  0  0  0  0  0  0  0  0  0  0  0
   15.9735   -5.5480    4.8427 H   0  0  0  0  0  0  0  0  0  0  0  0
   14.1953   -5.7785    4.7366 H   0  0  0  0  0  0  0  0  0  0  0  0
   16.2076   -5.5939    2.4401 H   0  0  0  0  0  0  0  0  0  0  0  0
   15.1883   -6.9984    2.9040 H   0  0  0  0  0  0  0  0  0  0  0  0
   14.4256   -5.6592    0.8643 H   0  0  0  0  0  0  0  0  0  0  0  0
   12.3990   -5.7773    3.1435 H   0  0  0  0  0  0  0  0  0  0  0  0
   13.5616   -7.6010    0.0367 H   0  0  0  0  0  0  0  0  0  0  0  0
   13.6774  -10.0755   -0.0601 H   0  0  0  0  0  0  0  0  0  0  0  0
   11.4154   -9.7290    2.6246 H   0  0  0  0  0  0  0  0  0  0  0  0
   11.9097   -7.8256    3.9979 H   0  0  0  0  0  0  0  0  0  0  0  0
  1  2  1  0  0  0  0
  2  3  1  0  0  0  0
  2  4  1  0  0  0  0
  2  5  1  0  0  0  0
  5  6  2  0  0  0  0
  5 10  1  0  0  0  0
  6  7  1  0  0  0  0
  7  8  1  0  0  0  0
  8  9  1  0  0  0  0
  8 26  2  0  0  0  0
  9 10  2  0  0  0  0
  9 11  1  0  0  0  0
 11 12  1  0  0  0  0
 11 16  1  0  0  0  0
 12 13  1  0  0  0  0
 13 14  1  0  0  0  0
 14 15  1  0  0  0  0
 15 16  1  0  0  0  0
 16 17  1  0  0  0  0
 17 18  1  0  0  0  0
 17 26  1  0  0  0  0
 18 19  1  0  0  0  0
 18 25  2  0  0  0  0
 19 20  2  0  0  0  0
 20 21  1  0  0  0  0
 21 22  2  0  0  0  0
 21 23  1  0  0  0  0
 23 24  1  0  0  0  0
 23 25  1  0  0  0  0
  1 27  1  0  0  0  0
  1 28  1  0  0  0  0
  1 29  1  0  0  0  0
  3 30  1  0  0  0  0
  3 31  1  0  0  0  0
  3 32  1  0  0  0  0
  4 33  1  0  0  0  0
  4 34  1  0  0  0  0
  4 35  1  0  0  0  0
  6 36  1  0  0  0  0
  7 37  1  0  0  0  0
  7 38  1  0  0  0  0
 10 39  1  0  0  0  0
 11 40  1  0  0  0  0
 13 41  1  0  0  0  0
 13 42  1  0  0  0  0
 14 43  1  0  0  0  0
 14 44  1  0  0  0  0
 15 45  1  0  0  0  0
 15 46  1  0  0  0  0
 16 47  1  0  0  0  0
 17 48  1  0  0  0  0
 19 49  1  0  0  0  0
 20 50  1  0  0  0  0
 23 51  1  0  0  0  0
 25 52  1  0  0  0  0
M  END
> <ID>
CHEMBL1078774

> <IC50[nM]>
17

$$$$
CHEMBL1078774
  -OEChem-05192314313D
 Structure written by MMmdl.
 52 55  0     1  0  0  0  0  0999 V2000
   12.8146    0.8080    0.0689 C   0  0  0  0  0  0  0  0  0  0  0  0
   11.9194   -0.1474   -0.7542 C   0  0  0  0  0  0  0  0  0  0  0  0
   10.4685    0.3660   -0.7781 C   0  0  0  0  0  0  0  0  0  0  0  0
   12.4753   -0.2208   -2.1781 C   0  0  0  0  0  0  0  0  0  0  0  0
   11.8886   -1.5790   -0.1851 C   0  0  0  0  0  0  0  0  0  0  0  0
   10.8516   -2.4541   -0.5469 C   0  0  0  0  0  0  0  0  0  0  0  0
   10.7947   -3.7435   -0.0550 C   0  0  0  0  0  0  0  0  0  0  0  0
   11.8117   -4.2036    0.7644 C   0  0  0  0  0  0  0  0  0  0  0  0
   12.8807   -3.3692    1.1329 C   0  0  0  0  0  0  0  0  0  0  0  0
   12.8820   -2.0552    0.6763 C   0  0  0  0  0  0  0  0  0  0  0  0
   14.0286   -3.8741    1.9864 C   0  0  1  0  0  0  0  0  0  0  0  0
   13.8076   -3.4485    3.3326 O   0  0  0  0  0  0  0  0  0  0  0  0
   14.8758   -3.7894    4.2165 C   0  0  0  0  0  0  0  0  0  0  0  0
   15.0715   -5.3181    4.2567 C   0  0  0  0  0  0  0  0  0  0  0  0
   15.2314   -5.9009    2.8436 C   0  0  0  0  0  0  0  0  0  0  0  0
   14.1181   -5.4079    1.8901 C   0  0  1  0  0  0  0  0  0  0  0  0
   12.7185   -6.0488    2.1265 C   0  0  2  0  0  0  0  0  0  0  0  0
   12.7612   -7.5479    2.0351 C   0  0  0  0  0  0  0  0  0  0  0  0
   13.2453   -8.1893    0.8854 C   0  0  0  0  0  0  0  0  0  0  0  0
   13.3212   -9.5776    0.8297 C   0  0  0  0  0  0  0  0  0  0  0  0
   12.9274  -10.3120    1.9477 C   0  0  0  0  0  0  0  0  0  0  0  0
   12.9755  -11.6650    2.0910 O   0  0  0  0  0  0  0  0  0  0  0  0
   12.4304   -9.6686    3.0444 C   0  0  0  0  0  0  0  0  0  0  0  0
   12.0577  -10.4439    4.0695 F   0  0  0  0  0  0  0  0  0  0  0  0
   12.3226   -8.3021    3.1210 C   0  0  0  0  0  0  0  0  0  0  0  0
   11.7434   -5.5361    1.1782 N   0  0  0  0  0  0  0  0  0  0  0  0
   13.8470    0.4283    0.0768 H   0  0  0  0  0  0  0  0  0  0  0  0
   12.7960    1.8098   -0.3850 H   0  0  0  0  0  0  0  0  0  0  0  0
   12.4375    0.8658    1.1006 H   0  0  0  0  0  0  0  0  0  0  0  0
    9.8448   -0.3231   -1.3665 H   0  0  0  0  0  0  0  0  0  0  0  0
   10.0826    0.4222    0.2504 H   0  0  0  0  0  0  0  0  0  0  0  0
   10.4411    1.3662   -1.2352 H   0  0  0  0  0  0  0  0  0  0  0  0
   11.8515   -0.8968   -2.7814 H   0  0  0  0  0  0  0  0  0  0  0  0
   12.4674    0.7835   -2.6269 H   0  0  0  0  0  0  0  0  0  0  0  0
   13.5069   -0.6016   -2.1497 H   0  0  0  0  0  0  0  0  0  0  0  0
   10.0827   -2.1118   -1.2237 H   0  0  0  0  0  0  0  0  0  0  0  0
    9.8592   -3.8271    0.5176 H   0  0  0  0  0  0  0  0  0  0  0  0
   10.7541   -4.4166   -0.9241 H   0  0  0  0  0  0  0  0  0  0  0  0
   13.6687   -1.3871    0.9945 H   0  0  0  0  0  0  0  0  0  0  0  0
   14.9676   -3.4454    1.6062 H   0  0  0  0  0  0  0  0  0  0  0  0
   15.8033   -3.3142    3.8646 H   0  0  0  0  0  0  0  0  0  0  0  0
   14.6392   -3.4274    5.2279 H   0  0  0  0  0  0  0  0  0  0  0  0
   15.9735   -5.5480    4.8427 H   0  0  0  0  0  0  0  0  0  0  0  0
   14.1953   -5.7785    4.7366 H   0  0  0  0  0  0  0  0  0  0  0  0
   16.2076   -5.5939    2.4401 H   0  0  0  0  0  0  0  0  0  0  0  0
   15.1883   -6.9984    2.9040 H   0  0  0  0  0  0  0  0  0  0  0  0
   14.4256   -5.6592    0.8643 H   0  0  0  0  0  0  0  0  0  0  0  0
   12.3990   -5.7773    3.1435 H   0  0  0  0  0  0  0  0  0  0  0  0
   13.5616   -7.6010    0.0367 H   0  0  0  0  0  0  0  0  0  0  0  0
   12.6911   -9.9035   -0.0110 H   0  0  0  0  0  0  0  0  0  0  0  0
   14.3701   -9.8372    0.6240 H   0  0  0  0  0  0  0  0  0  0  0  0
   11.9097   -7.8256    3.9979 H   0  0  0  0  0  0  0  0  0  0  0  0
  1  2  1  0  0  0  0
  2  3  1  0  0  0  0
  2  4  1  0  0  0  0
  2  5  1  0  0  0  0
  5  6  2  0  0  0  0
  5 10  1  0  0  0  0
  6  7  1  0  0  0  0
  7  8  1  0  0  0  0
  8  9  1  0  0  0  0
  8 26  2  0  0  0  0
  9 10  2  0  0  0  0
  9 11  1  0  0  0  0
 11 12  1  0  0  0  0
 11 16  1  0  0  0  0
 12 13  1  0  0  0  0
 13 14  1  0  0  0  0
 14 15  1  0  0  0  0
 15 16  1  0  0  0  0
 16 17  1  0  0  0  0
 17 18  1  0  0  0  0
 17 26  1  0  0  0  0
 18 19  2  0  0  0  0
 18 25  1  0  0  0  0
 19 20  1  0  0  0  0
 20 21  1  0  0  0  0
 21 22  2  0  0  0  0
 21 23  1  0  0  0  0
 23 24  1  0  0  0  0
 23 25  2  0  0  0  0
  1 27  1  0  0  0  0
  1 28  1  0  0  0  0
  1 29  1  0  0  0  0
  3 30  1  0  0  0  0
  3 31  1  0  0  0  0
  3 32  1  0  0  0  0
  4 33  1  0  0  0  0
  4 34  1  0  0  0  0
  4 35  1  0  0  0  0
  6 36  1  0  0  0  0
  7 37  1  0  0  0  0
  7 38  1  0  0  0  0
 10 39  1  0  0  0  0
 11 40  1  0  0  0  0
 13 41  1  0  0  0  0
 13 42  1  0  0  0  0
 14 43  1  0  0  0  0
 14 44  1  0  0  0  0
 15 45  1  0  0  0  0
 15 46  1  0  0  0  0
 16 47  1  0  0  0  0
 17 48  1  0  0  0  0
 19 49  1  0  0  0  0
 20 50  1  0  0  0  0
 20 51  1  0  0  0  0
 25 52  1  0  0  0  0
M  END
> <ID>
CHEMBL1078774

> <IC50[nM]>
17

$$$$
