CHEMBL3265012
  -OEChem-05192314333D
 Structure written by MMmdl.
 48 51  0     0  0  0  0  0  0999 V2000
   -4.2558   -3.1075   13.5651 C   0  0  0  0  0  0  0  0  0  0  0  0
   -3.8718   -2.3575   14.7067 O   0  0  0  0  0  0  0  0  0  0  0  0
   -2.5253   -2.1086   14.8120 C   0  0  0  0  0  0  0  0  0  0  0  0
   -1.7526   -2.8682   15.6804 C   0  0  0  0  0  0  0  0  0  0  0  0
   -0.3955   -2.6067   15.8218 C   0  0  0  0  0  0  0  0  0  0  0  0
    0.2199   -1.5810   15.0999 C   0  0  0  0  0  0  0  0  0  0  0  0
    1.6019   -1.3576   15.3437 N   0  0  0  0  0  0  0  0  0  0  0  0
    2.5286   -0.4382   14.7882 C   0  0  0  0  0  0  0  0  0  0  0  0
    2.1607    0.3911   13.7686 N   0  0  0  0  0  0  0  0  0  0  0  0
    3.1048    1.2259   13.2324 C   0  0  0  0  0  0  0  0  0  0  0  0
    4.4053    1.2717   13.7035 C   0  0  0  0  0  0  0  0  0  0  0  0
    4.7404    0.4886   14.7629 N   0  0  0  0  0  0  0  0  0  0  0  0
    5.8950    0.3907   15.4847 C   0  0  0  0  0  0  0  0  0  0  0  0
    5.6038   -0.5479   16.5103 C   0  0  0  0  0  0  0  0  0  0  0  0
    4.3901   -1.0599   16.3616 N   0  0  0  0  0  0  0  0  0  0  0  0
    3.8363   -0.3960   15.3347 C   0  0  0  0  0  0  0  0  0  0  0  0
    2.6462    2.1273   12.1323 C   0  0  0  0  0  0  0  0  0  0  0  0
    3.5538    2.6360   11.1838 C   0  0  0  0  0  0  0  0  0  0  0  0
    3.1137    3.4699   10.1556 C   0  0  0  0  0  0  0  0  0  0  0  0
    1.7615    3.8212   10.0639 C   0  0  0  0  0  0  0  0  0  0  0  0
    1.3043    4.7272    8.9268 C   0  0  0  0  0  0  0  0  0  0  0  0
    2.1134    5.3522    8.2339 O   0  0  0  0  0  0  0  0  0  0  0  0
   -0.0095    4.7686    8.7196 N   0  0  0  0  0  0  0  0  0  0  0  0
    0.8533    3.3219   11.0251 C   0  0  0  0  0  0  0  0  0  0  0  0
   -0.4584    3.6572   10.9807 F   0  0  0  0  0  0  0  0  0  0  0  0
    1.2985    2.4859   12.0366 C   0  0  0  0  0  0  0  0  0  0  0  0
   -0.5548   -0.8117   14.1978 C   0  0  0  0  0  0  0  0  0  0  0  0
   -1.9397   -1.0798   14.0626 C   0  0  0  0  0  0  0  0  0  0  0  0
   -2.7418   -0.3359   13.2115 O   0  0  0  0  0  0  0  0  0  0  0  0
   -2.2196    0.7089   12.4090 C   0  0  0  0  0  0  0  0  0  0  0  0
   -5.3461   -3.2532   13.5712 H   0  0  0  0  0  0  0  0  0  0  0  0
   -3.9637   -2.5642   12.6543 H   0  0  0  0  0  0  0  0  0  0  0  0
   -3.7550   -4.0867   13.5844 H   0  0  0  0  0  0  0  0  0  0  0  0
   -2.2085   -3.6657   16.2483 H   0  0  0  0  0  0  0  0  0  0  0  0
    0.1932   -3.2059   16.5006 H   0  0  0  0  0  0  0  0  0  0  0  0
    1.9950   -1.9618   16.0368 H   0  0  0  0  0  0  0  0  0  0  0  0
    5.1379    1.9155   13.2396 H   0  0  0  0  0  0  0  0  0  0  0  0
    6.8252    0.9122   15.3136 H   0  0  0  0  0  0  0  0  0  0  0  0
    6.2831   -0.8104   17.3078 H   0  0  0  0  0  0  0  0  0  0  0  0
    4.6003    2.3783   11.2528 H   0  0  0  0  0  0  0  0  0  0  0  0
    3.8181    3.8456    9.4282 H   0  0  0  0  0  0  0  0  0  0  0  0
   -0.3811    5.3238    7.9755 H   0  0  0  0  0  0  0  0  0  0  0  0
   -0.6252    4.2445    9.3080 H   0  0  0  0  0  0  0  0  0  0  0  0
    0.5940    2.1059   12.7616 H   0  0  0  0  0  0  0  0  0  0  0  0
   -0.0935   -0.0265   13.6172 H   0  0  0  0  0  0  0  0  0  0  0  0
   -3.0309    1.1580   11.8173 H   0  0  0  0  0  0  0  0  0  0  0  0
   -1.7687    1.4767   13.0548 H   0  0  0  0  0  0  0  0  0  0  0  0
   -1.4535    0.3031   11.7320 H   0  0  0  0  0  0  0  0  0  0  0  0
  1  2  1  0  0  0  0
  2  3  1  0  0  0  0
  3  4  2  0  0  0  0
  3 28  1  0  0  0  0
  4  5  1  0  0  0  0
  5  6  2  0  0  0  0
  6  7  1  0  0  0  0
  6 27  1  0  0  0  0
  7  8  1  0  0  0  0
  8  9  2  0  0  0  0
  8 16  1  0  0  0  0
  9 10  1  0  0  0  0
 10 11  2  0  0  0  0
 10 17  1  0  0  0  0
 11 12  1  0  0  0  0
 12 13  1  0  0  0  0
 12 16  1  0  0  0  0
 13 14  2  0  0  0  0
 14 15  1  0  0  0  0
 15 16  2  0  0  0  0
 17 18  2  0  0  0  0
 17 26  1  0  0  0  0
 18 19  1  0  0  0  0
 19 20  2  0  0  0  0
 20 21  1  0  0  0  0
 20 24  1  0  0  0  0
 21 22  2  0  0  0  0
 21 23  1  0  0  0  0
 24 25  1  0  0  0  0
 24 26  2  0  0  0  0
 27 28  2  0  0  0  0
 28 29  1  0  0  0  0
 29 30  1  0  0  0  0
  1 31  1  0  0  0  0
  1 32  1  0  0  0  0
  1 33  1  0  0  0  0
  4 34  1  0  0  0  0
  5 35  1  0  0  0  0
  7 36  1  0  0  0  0
 11 37  1  0  0  0  0
 13 38  1  0  0  0  0
 14 39  1  0  0  0  0
 18 40  1  0  0  0  0
 19 41  1  0  0  0  0
 23 42  1  0  0  0  0
 23 43  1  0  0  0  0
 26 44  1  0  0  0  0
 27 45  1  0  0  0  0
 30 46  1  0  0  0  0
 30 47  1  0  0  0  0
 30 48  1  0  0  0  0
M  END
> <IC50[nM]>
18.6

$$$$
CHEMBL3265012
  -OEChem-05192314333D
 Structure written by MMmdl.
 48 51  0     0  0  0  0  0  0999 V2000
   -4.2558   -3.1075   13.5651 C   0  0  0  0  0  0  0  0  0  0  0  0
   -3.8718   -2.3575   14.7067 O   0  0  0  0  0  0  0  0  0  0  0  0
   -2.5253   -2.1086   14.8120 C   0  0  0  0  0  0  0  0  0  0  0  0
   -1.7526   -2.8682   15.6804 C   0  0  0  0  0  0  0  0  0  0  0  0
   -0.3955   -2.6067   15.8218 C   0  0  0  0  0  0  0  0  0  0  0  0
    0.2199   -1.5810   15.0999 C   0  0  0  0  0  0  0  0  0  0  0  0
    1.6019   -1.3576   15.3437 N   0  0  0  0  0  0  0  0  0  0  0  0
    2.5286   -0.4382   14.7882 C   0  0  0  0  0  0  0  0  0  0  0  0
    2.1607    0.3911   13.7686 N   0  0  0  0  0  0  0  0  0  0  0  0
    3.1048    1.2259   13.2324 C   0  0  0  0  0  0  0  0  0  0  0  0
    4.4053    1.2717   13.7035 C   0  0  0  0  0  0  0  0  0  0  0  0
    4.7404    0.4886   14.7629 N   0  0  0  0  0  0  0  0  0  0  0  0
    5.8950    0.3907   15.4847 C   0  0  0  0  0  0  0  0  0  0  0  0
    5.6038   -0.5479   16.5103 C   0  0  0  0  0  0  0  0  0  0  0  0
    4.3901   -1.0599   16.3616 N   0  0  0  0  0  0  0  0  0  0  0  0
    3.8363   -0.3960   15.3347 C   0  0  0  0  0  0  0  0  0  0  0  0
    2.6462    2.1273   12.1323 C   0  0  0  0  0  0  0  0  0  0  0  0
    3.5538    2.6360   11.1838 C   0  0  0  0  0  0  0  0  0  0  0  0
    3.1137    3.4699   10.1556 C   0  0  0  0  0  0  0  0  0  0  0  0
    1.7615    3.8212   10.0639 C   0  0  0  0  0  0  0  0  0  0  0  0
    1.3043    4.7272    8.9268 C   0  0  0  0  0  0  0  0  0  0  0  0
    2.1134    5.3522    8.2339 O   0  0  0  0  0  0  0  0  0  0  0  0
   -0.0095    4.7686    8.7196 N   0  0  0  0  0  0  0  0  0  0  0  0
    0.8533    3.3219   11.0251 C   0  0  0  0  0  0  0  0  0  0  0  0
   -0.4584    3.6572   10.9807 F   0  0  0  0  0  0  0  0  0  0  0  0
    1.2985    2.4859   12.0366 C   0  0  0  0  0  0  0  0  0  0  0  0
   -0.5548   -0.8117   14.1978 C   0  0  0  0  0  0  0  0  0  0  0  0
   -1.9397   -1.0798   14.0626 C   0  0  0  0  0  0  0  0  0  0  0  0
   -2.7418   -0.3359   13.2115 O   0  0  0  0  0  0  0  0  0  0  0  0
   -2.2196    0.7089   12.4090 C   0  0  0  0  0  0  0  0  0  0  0  0
   -5.3461   -3.2532   13.5712 H   0  0  0  0  0  0  0  0  0  0  0  0
   -3.9637   -2.5642   12.6543 H   0  0  0  0  0  0  0  0  0  0  0  0
   -3.7550   -4.0867   13.5844 H   0  0  0  0  0  0  0  0  0  0  0  0
   -2.2085   -3.6657   16.2483 H   0  0  0  0  0  0  0  0  0  0  0  0
    0.1932   -3.2059   16.5006 H   0  0  0  0  0  0  0  0  0  0  0  0
    1.9950   -1.9618   16.0368 H   0  0  0  0  0  0  0  0  0  0  0  0
    5.1379    1.9155   13.2396 H   0  0  0  0  0  0  0  0  0  0  0  0
    6.8252    0.9122   15.3136 H   0  0  0  0  0  0  0  0  0  0  0  0
    6.2831   -0.8104   17.3078 H   0  0  0  0  0  0  0  0  0  0  0  0
    4.6003    2.3783   11.2528 H   0  0  0  0  0  0  0  0  0  0  0  0
    3.8181    3.8456    9.4282 H   0  0  0  0  0  0  0  0  0  0  0  0
    1.6461    5.8592    7.5804 H   0  0  0  0  0  0  0  0  0  0  0  0
   -0.2487    5.3580    7.9480 H   0  0  0  0  0  0  0  0  0  0  0  0
    0.5940    2.1059   12.7616 H   0  0  0  0  0  0  0  0  0  0  0  0
   -0.0935   -0.0265   13.6172 H   0  0  0  0  0  0  0  0  0  0  0  0
   -3.0309    1.1580   11.8173 H   0  0  0  0  0  0  0  0  0  0  0  0
   -1.7687    1.4767   13.0548 H   0  0  0  0  0  0  0  0  0  0  0  0
   -1.4535    0.3031   11.7320 H   0  0  0  0  0  0  0  0  0  0  0  0
  1  2  1  0  0  0  0
  2  3  1  0  0  0  0
  3  4  2  0  0  0  0
  3 28  1  0  0  0  0
  4  5  1  0  0  0  0
  5  6  2  0  0  0  0
  6  7  1  0  0  0  0
  6 27  1  0  0  0  0
  7  8  1  0  0  0  0
  8  9  2  0  0  0  0
  8 16  1  0  0  0  0
  9 10  1  0  0  0  0
 10 11  2  0  0  0  0
 10 17  1  0  0  0  0
 11 12  1  0  0  0  0
 12 13  1  0  0  0  0
 12 16  1  0  0  0  0
 13 14  2  0  0  0  0
 14 15  1  0  0  0  0
 15 16  2  0  0  0  0
 17 18  2  0  0  0  0
 17 26  1  0  0  0  0
 18 19  1  0  0  0  0
 19 20  2  0  0  0  0
 20 21  1  0  0  0  0
 20 24  1  0  0  0  0
 21 22  1  0  0  0  0
 21 23  2  0  0  0  0
 24 25  1  0  0  0  0
 24 26  2  0  0  0  0
 27 28  2  0  0  0  0
 28 29  1  0  0  0  0
 29 30  1  0  0  0  0
  1 31  1  0  0  0  0
  1 32  1  0  0  0  0
  1 33  1  0  0  0  0
  4 34  1  0  0  0  0
  5 35  1  0  0  0  0
  7 36  1  0  0  0  0
 11 37  1  0  0  0  0
 13 38  1  0  0  0  0
 14 39  1  0  0  0  0
 18 40  1  0  0  0  0
 19 41  1  0  0  0  0
 22 42  1  0  0  0  0
 23 43  1  0  0  0  0
 26 44  1  0  0  0  0
 27 45  1  0  0  0  0
 30 46  1  0  0  0  0
 30 47  1  0  0  0  0
 30 48  1  0  0  0  0
M  END
> <IC50[nM]>
18.6

$$$$
CHEMBL3265012
  -OEChem-05192314333D
 Structure written by MMmdl.
 48 51  0     0  0  0  0  0  0999 V2000
   -4.2558   -3.1075   13.5651 C   0  0  0  0  0  0  0  0  0  0  0  0
   -3.8718   -2.3575   14.7067 O   0  0  0  0  0  0  0  0  0  0  0  0
   -2.5253   -2.1086   14.8120 C   0  0  0  0  0  0  0  0  0  0  0  0
   -1.7526   -2.8682   15.6804 C   0  0  0  0  0  0  0  0  0  0  0  0
   -0.3955   -2.6067   15.8218 C   0  0  0  0  0  0  0  0  0  0  0  0
    0.2199   -1.5810   15.0999 C   0  0  0  0  0  0  0  0  0  0  0  0
    1.6019   -1.3576   15.3437 N   0  0  0  0  0  0  0  0  0  0  0  0
    2.5286   -0.4382   14.7882 C   0  0  0  0  0  0  0  0  0  0  0  0
    2.1607    0.3911   13.7686 N   0  0  0  0  0  0  0  0  0  0  0  0
    3.1048    1.2259   13.2324 C   0  0  0  0  0  0  0  0  0  0  0  0
    4.4053    1.2717   13.7035 C   0  0  0  0  0  0  0  0  0  0  0  0
    4.7404    0.4886   14.7629 N   0  0  0  0  0  0  0  0  0  0  0  0
    5.8950    0.3907   15.4847 C   0  0  0  0  0  0  0  0  0  0  0  0
    5.6038   -0.5479   16.5103 C   0  0  0  0  0  0  0  0  0  0  0  0
    4.3901   -1.0599   16.3616 N   0  0  0  0  0  0  0  0  0  0  0  0
    3.8363   -0.3960   15.3347 C   0  0  0  0  0  0  0  0  0  0  0  0
    2.6462    2.1273   12.1323 C   0  0  0  0  0  0  0  0  0  0  0  0
    3.5538    2.6360   11.1838 C   0  0  0  0  0  0  0  0  0  0  0  0
    3.1137    3.4699   10.1556 C   0  0  0  0  0  0  0  0  0  0  0  0
    1.7615    3.8212   10.0639 C   0  0  0  0  0  0  0  0  0  0  0  0
    1.3043    4.7272    8.9268 C   0  0  0  0  0  0  0  0  0  0  0  0
    2.1134    5.3522    8.2339 O   0  0  0  0  0  0  0  0  0  0  0  0
   -0.0095    4.7686    8.7196 N   0  0  0  0  0  0  0  0  0  0  0  0
    0.8533    3.3219   11.0251 C   0  0  0  0  0  0  0  0  0  0  0  0
   -0.4584    3.6572   10.9807 F   0  0  0  0  0  0  0  0  0  0  0  0
    1.2985    2.4859   12.0366 C   0  0  0  0  0  0  0  0  0  0  0  0
   -0.5548   -0.8117   14.1978 C   0  0  0  0  0  0  0  0  0  0  0  0
   -1.9397   -1.0798   14.0626 C   0  0  0  0  0  0  0  0  0  0  0  0
   -2.7418   -0.3359   13.2115 O   0  0  0  0  0  0  0  0  0  0  0  0
   -2.2196    0.7089   12.4090 C   0  0  0  0  0  0  0  0  0  0  0  0
   -5.3461   -3.2532   13.5712 H   0  0  0  0  0  0  0  0  0  0  0  0
   -3.9637   -2.5642   12.6543 H   0  0  0  0  0  0  0  0  0  0  0  0
   -3.7550   -4.0867   13.5844 H   0  0  0  0  0  0  0  0  0  0  0  0
   -2.2085   -3.6657   16.2483 H   0  0  0  0  0  0  0  0  0  0  0  0
    0.1932   -3.2059   16.5006 H   0  0  0  0  0  0  0  0  0  0  0  0
    1.2231    0.3892   13.4209 H   0  0  0  0  0  0  0  0  0  0  0  0
    5.1379    1.9155   13.2396 H   0  0  0  0  0  0  0  0  0  0  0  0
    6.8252    0.9122   15.3136 H   0  0  0  0  0  0  0  0  0  0  0  0
    6.2831   -0.8104   17.3078 H   0  0  0  0  0  0  0  0  0  0  0  0
    4.6003    2.3783   11.2528 H   0  0  0  0  0  0  0  0  0  0  0  0
    3.8181    3.8456    9.4282 H   0  0  0  0  0  0  0  0  0  0  0  0
   -0.3811    5.3238    7.9755 H   0  0  0  0  0  0  0  0  0  0  0  0
   -0.6252    4.2445    9.3080 H   0  0  0  0  0  0  0  0  0  0  0  0
    0.5940    2.1059   12.7616 H   0  0  0  0  0  0  0  0  0  0  0  0
   -0.0935   -0.0265   13.6172 H   0  0  0  0  0  0  0  0  0  0  0  0
   -3.0309    1.1580   11.8173 H   0  0  0  0  0  0  0  0  0  0  0  0
   -1.7687    1.4767   13.0548 H   0  0  0  0  0  0  0  0  0  0  0  0
   -1.4535    0.3031   11.7320 H   0  0  0  0  0  0  0  0  0  0  0  0
  1  2  1  0  0  0  0
  2  3  1  0  0  0  0
  3  4  2  0  0  0  0
  3 28  1  0  0  0  0
  4  5  1  0  0  0  0
  5  6  2  0  0  0  0
  6  7  1  0  0  0  0
  6 27  1  0  0  0  0
  7  8  2  0  0  0  0
  8  9  1  0  0  0  0
  8 16  1  0  0  0  0
  9 10  1  0  0  0  0
 10 11  2  0  0  0  0
 10 17  1  0  0  0  0
 11 12  1  0  0  0  0
 12 13  1  0  0  0  0
 12 16  1  0  0  0  0
 13 14  2  0  0  0  0
 14 15  1  0  0  0  0
 15 16  2  0  0  0  0
 17 18  2  0  0  0  0
 17 26  1  0  0  0  0
 18 19  1  0  0  0  0
 19 20  2  0  0  0  0
 20 21  1  0  0  0  0
 20 24  1  0  0  0  0
 21 22  2  0  0  0  0
 21 23  1  0  0  0  0
 24 25  1  0  0  0  0
 24 26  2  0  0  0  0
 27 28  2  0  0  0  0
 28 29  1  0  0  0  0
 29 30  1  0  0  0  0
  1 31  1  0  0  0  0
  1 32  1  0  0  0  0
  1 33  1  0  0  0  0
  4 34  1  0  0  0  0
  5 35  1  0  0  0  0
  9 36  1  0  0  0  0
 11 37  1  0  0  0  0
 13 38  1  0  0  0  0
 14 39  1  0  0  0  0
 18 40  1  0  0  0  0
 19 41  1  0  0  0  0
 23 42  1  0  0  0  0
 23 43  1  0  0  0  0
 26 44  1  0  0  0  0
 27 45  1  0  0  0  0
 30 46  1  0  0  0  0
 30 47  1  0  0  0  0
 30 48  1  0  0  0  0
M  END
> <IC50[nM]>
18.6

$$$$
CHEMBL3265012
  -OEChem-05192314333D
 Structure written by MMmdl.
 48 51  0     0  0  0  0  0  0999 V2000
   -4.2558   -3.1075   13.5651 C   0  0  0  0  0  0  0  0  0  0  0  0
   -3.8718   -2.3575   14.7067 O   0  0  0  0  0  0  0  0  0  0  0  0
   -2.5253   -2.1086   14.8120 C   0  0  0  0  0  0  0  0  0  0  0  0
   -1.7526   -2.8682   15.6804 C   0  0  0  0  0  0  0  0  0  0  0  0
   -0.3955   -2.6067   15.8218 C   0  0  0  0  0  0  0  0  0  0  0  0
    0.2199   -1.5810   15.0999 C   0  0  0  0  0  0  0  0  0  0  0  0
    1.6019   -1.3576   15.3437 N   0  0  0  0  0  0  0  0  0  0  0  0
    2.5286   -0.4382   14.7882 C   0  0  0  0  0  0  0  0  0  0  0  0
    2.1607    0.3911   13.7686 N   0  0  0  0  0  0  0  0  0  0  0  0
    3.1048    1.2259   13.2324 C   0  0  0  0  0  0  0  0  0  0  0  0
    4.4053    1.2717   13.7035 C   0  0  0  0  0  0  0  0  0  0  0  0
    4.7404    0.4886   14.7629 N   0  0  0  0  0  0  0  0  0  0  0  0
    5.8950    0.3907   15.4847 C   0  0  0  0  0  0  0  0  0  0  0  0
    5.6038   -0.5479   16.5103 C   0  0  0  0  0  0  0  0  0  0  0  0
    4.3901   -1.0599   16.3616 N   0  0  0  0  0  0  0  0  0  0  0  0
    3.8363   -0.3960   15.3347 C   0  0  0  0  0  0  0  0  0  0  0  0
    2.6462    2.1273   12.1323 C   0  0  0  0  0  0  0  0  0  0  0  0
    3.5538    2.6360   11.1838 C   0  0  0  0  0  0  0  0  0  0  0  0
    3.1137    3.4699   10.1556 C   0  0  0  0  0  0  0  0  0  0  0  0
    1.7615    3.8212   10.0639 C   0  0  0  0  0  0  0  0  0  0  0  0
    1.3043    4.7272    8.9268 C   0  0  0  0  0  0  0  0  0  0  0  0
    2.1134    5.3522    8.2339 O   0  0  0  0  0  0  0  0  0  0  0  0
   -0.0095    4.7686    8.7196 N   0  0  0  0  0  0  0  0  0  0  0  0
    0.8533    3.3219   11.0251 C   0  0  0  0  0  0  0  0  0  0  0  0
   -0.4584    3.6572   10.9807 F   0  0  0  0  0  0  0  0  0  0  0  0
    1.2985    2.4859   12.0366 C   0  0  0  0  0  0  0  0  0  0  0  0
   -0.5548   -0.8117   14.1978 C   0  0  0  0  0  0  0  0  0  0  0  0
   -1.9397   -1.0798   14.0626 C   0  0  0  0  0  0  0  0  0  0  0  0
   -2.7418   -0.3359   13.2115 O   0  0  0  0  0  0  0  0  0  0  0  0
   -2.2196    0.7089   12.4090 C   0  0  0  0  0  0  0  0  0  0  0  0
   -5.3461   -3.2532   13.5712 H   0  0  0  0  0  0  0  0  0  0  0  0
   -3.9637   -2.5642   12.6543 H   0  0  0  0  0  0  0  0  0  0  0  0
   -3.7550   -4.0867   13.5844 H   0  0  0  0  0  0  0  0  0  0  0  0
   -2.2085   -3.6657   16.2483 H   0  0  0  0  0  0  0  0  0  0  0  0
    0.1932   -3.2059   16.5006 H   0  0  0  0  0  0  0  0  0  0  0  0
    1.2231    0.3892   13.4209 H   0  0  0  0  0  0  0  0  0  0  0  0
    5.1379    1.9155   13.2396 H   0  0  0  0  0  0  0  0  0  0  0  0
    6.8252    0.9122   15.3136 H   0  0  0  0  0  0  0  0  0  0  0  0
    6.2831   -0.8104   17.3078 H   0  0  0  0  0  0  0  0  0  0  0  0
    4.6003    2.3783   11.2528 H   0  0  0  0  0  0  0  0  0  0  0  0
    3.8181    3.8456    9.4282 H   0  0  0  0  0  0  0  0  0  0  0  0
    1.6461    5.8592    7.5804 H   0  0  0  0  0  0  0  0  0  0  0  0
   -0.2487    5.3580    7.9480 H   0  0  0  0  0  0  0  0  0  0  0  0
    0.5940    2.1059   12.7616 H   0  0  0  0  0  0  0  0  0  0  0  0
   -0.0935   -0.0265   13.6172 H   0  0  0  0  0  0  0  0  0  0  0  0
   -3.0309    1.1580   11.8173 H   0  0  0  0  0  0  0  0  0  0  0  0
   -1.7687    1.4767   13.0548 H   0  0  0  0  0  0  0  0  0  0  0  0
   -1.4535    0.3031   11.7320 H   0  0  0  0  0  0  0  0  0  0  0  0
  1  2  1  0  0  0  0
  2  3  1  0  0  0  0
  3  4  2  0  0  0  0
  3 28  1  0  0  0  0
  4  5  1  0  0  0  0
  5  6  2  0  0  0  0
  6  7  1  0  0  0  0
  6 27  1  0  0  0  0
  7  8  2  0  0  0  0
  8  9  1  0  0  0  0
  8 16  1  0  0  0  0
  9 10  1  0  0  0  0
 10 11  2  0  0  0  0
 10 17  1  0  0  0  0
 11 12  1  0  0  0  0
 12 13  1  0  0  0  0
 12 16  1  0  0  0  0
 13 14  2  0  0  0  0
 14 15  1  0  0  0  0
 15 16  2  0  0  0  0
 17 18  2  0  0  0  0
 17 26  1  0  0  0  0
 18 19  1  0  0  0  0
 19 20  2  0  0  0  0
 20 21  1  0  0  0  0
 20 24  1  0  0  0  0
 21 22  1  0  0  0  0
 21 23  2  0  0  0  0
 24 25  1  0  0  0  0
 24 26  2  0  0  0  0
 27 28  2  0  0  0  0
 28 29  1  0  0  0  0
 29 30  1  0  0  0  0
  1 31  1  0  0  0  0
  1 32  1  0  0  0  0
  1 33  1  0  0  0  0
  4 34  1  0  0  0  0
  5 35  1  0  0  0  0
  9 36  1  0  0  0  0
 11 37  1  0  0  0  0
 13 38  1  0  0  0  0
 14 39  1  0  0  0  0
 18 40  1  0  0  0  0
 19 41  1  0  0  0  0
 22 42  1  0  0  0  0
 23 43  1  0  0  0  0
 26 44  1  0  0  0  0
 27 45  1  0  0  0  0
 30 46  1  0  0  0  0
 30 47  1  0  0  0  0
 30 48  1  0  0  0  0
M  END
> <IC50[nM]>
18.6

$$$$
CHEMBL3265012
  -OEChem-05192314333D
 Structure written by MMmdl.
 48 51  0     0  0  0  0  0  0999 V2000
   -4.2558   -3.1075   13.5651 C   0  0  0  0  0  0  0  0  0  0  0  0
   -3.8718   -2.3575   14.7067 O   0  0  0  0  0  0  0  0  0  0  0  0
   -2.5253   -2.1086   14.8120 C   0  0  0  0  0  0  0  0  0  0  0  0
   -1.7526   -2.8682   15.6804 C   0  0  0  0  0  0  0  0  0  0  0  0
   -0.3955   -2.6067   15.8218 C   0  0  0  0  0  0  0  0  0  0  0  0
    0.2199   -1.5810   15.0999 C   0  0  0  0  0  0  0  0  0  0  0  0
    1.6019   -1.3576   15.3437 N   0  0  0  0  0  0  0  0  0  0  0  0
    2.5286   -0.4382   14.7882 C   0  0  0  0  0  0  0  0  0  0  0  0
    2.1607    0.3911   13.7686 N   0  0  0  0  0  0  0  0  0  0  0  0
    3.1048    1.2259   13.2324 C   0  0  0  0  0  0  0  0  0  0  0  0
    4.4053    1.2717   13.7035 C   0  0  0  0  0  0  0  0  0  0  0  0
    4.7404    0.4886   14.7629 N   0  0  0  0  0  0  0  0  0  0  0  0
    5.8950    0.3907   15.4847 C   0  0  0  0  0  0  0  0  0  0  0  0
    5.6038   -0.5479   16.5103 C   0  0  0  0  0  0  0  0  0  0  0  0
    4.3901   -1.0599   16.3616 N   0  0  0  0  0  0  0  0  0  0  0  0
    3.8363   -0.3960   15.3347 C   0  0  0  0  0  0  0  0  0  0  0  0
    2.6462    2.1273   12.1323 C   0  0  0  0  0  0  0  0  0  0  0  0
    3.5538    2.6360   11.1838 C   0  0  0  0  0  0  0  0  0  0  0  0
    3.1137    3.4699   10.1556 C   0  0  0  0  0  0  0  0  0  0  0  0
    1.7615    3.8212   10.0639 C   0  0  0  0  0  0  0  0  0  0  0  0
    1.3043    4.7272    8.9268 C   0  0  0  0  0  0  0  0  0  0  0  0
    2.1134    5.3522    8.2339 O   0  0  0  0  0  0  0  0  0  0  0  0
   -0.0095    4.7686    8.7196 N   0  0  0  0  0  0  0  0  0  0  0  0
    0.8533    3.3219   11.0251 C   0  0  0  0  0  0  0  0  0  0  0  0
   -0.4584    3.6572   10.9807 F   0  0  0  0  0  0  0  0  0  0  0  0
    1.2985    2.4859   12.0366 C   0  0  0  0  0  0  0  0  0  0  0  0
   -0.5548   -0.8117   14.1978 C   0  0  0  0  0  0  0  0  0  0  0  0
   -1.9397   -1.0798   14.0626 C   0  0  0  0  0  0  0  0  0  0  0  0
   -2.7418   -0.3359   13.2115 O   0  0  0  0  0  0  0  0  0  0  0  0
   -2.2196    0.7089   12.4090 C   0  0  0  0  0  0  0  0  0  0  0  0
   -5.3461   -3.2532   13.5712 H   0  0  0  0  0  0  0  0  0  0  0  0
   -3.9637   -2.5642   12.6543 H   0  0  0  0  0  0  0  0  0  0  0  0
   -3.7550   -4.0867   13.5844 H   0  0  0  0  0  0  0  0  0  0  0  0
   -2.2085   -3.6657   16.2483 H   0  0  0  0  0  0  0  0  0  0  0  0
    0.1932   -3.2059   16.5006 H   0  0  0  0  0  0  0  0  0  0  0  0
    5.0630    0.9873   12.8689 H   0  0  0  0  0  0  0  0  0  0  0  0
    4.6092    2.3133   13.9925 H   0  0  0  0  0  0  0  0  0  0  0  0
    6.8252    0.9122   15.3136 H   0  0  0  0  0  0  0  0  0  0  0  0
    6.2831   -0.8104   17.3078 H   0  0  0  0  0  0  0  0  0  0  0  0
    4.6003    2.3783   11.2528 H   0  0  0  0  0  0  0  0  0  0  0  0
    3.8181    3.8456    9.4282 H   0  0  0  0  0  0  0  0  0  0  0  0
   -0.3811    5.3238    7.9755 H   0  0  0  0  0  0  0  0  0  0  0  0
   -0.6252    4.2445    9.3080 H   0  0  0  0  0  0  0  0  0  0  0  0
    0.5940    2.1059   12.7616 H   0  0  0  0  0  0  0  0  0  0  0  0
   -0.0935   -0.0265   13.6172 H   0  0  0  0  0  0  0  0  0  0  0  0
   -3.0309    1.1580   11.8173 H   0  0  0  0  0  0  0  0  0  0  0  0
   -1.7687    1.4767   13.0548 H   0  0  0  0  0  0  0  0  0  0  0  0
   -1.4535    0.3031   11.7320 H   0  0  0  0  0  0  0  0  0  0  0  0
  1  2  1  0  0  0  0
  2  3  1  0  0  0  0
  3  4  2  0  0  0  0
  3 28  1  0  0  0  0
  4  5  1  0  0  0  0
  5  6  2  0  0  0  0
  6  7  1  0  0  0  0
  6 27  1  0  0  0  0
  7  8  2  0  0  0  0
  8  9  1  0  0  0  0
  8 16  1  0  0  0  0
  9 10  2  0  0  0  0
 10 11  1  0  0  0  0
 10 17  1  0  0  0  0
 11 12  1  0  0  0  0
 12 13  1  0  0  0  0
 12 16  1  0  0  0  0
 13 14  2  0  0  0  0
 14 15  1  0  0  0  0
 15 16  2  0  0  0  0
 17 18  2  0  0  0  0
 17 26  1  0  0  0  0
 18 19  1  0  0  0  0
 19 20  2  0  0  0  0
 20 21  1  0  0  0  0
 20 24  1  0  0  0  0
 21 22  2  0  0  0  0
 21 23  1  0  0  0  0
 24 25  1  0  0  0  0
 24 26  2  0  0  0  0
 27 28  2  0  0  0  0
 28 29  1  0  0  0  0
 29 30  1  0  0  0  0
  1 31  1  0  0  0  0
  1 32  1  0  0  0  0
  1 33  1  0  0  0  0
  4 34  1  0  0  0  0
  5 35  1  0  0  0  0
 11 36  1  0  0  0  0
 11 37  1  0  0  0  0
 13 38  1  0  0  0  0
 14 39  1  0  0  0  0
 18 40  1  0  0  0  0
 19 41  1  0  0  0  0
 23 42  1  0  0  0  0
 23 43  1  0  0  0  0
 26 44  1  0  0  0  0
 27 45  1  0  0  0  0
 30 46  1  0  0  0  0
 30 47  1  0  0  0  0
 30 48  1  0  0  0  0
M  END
> <IC50[nM]>
18.6

$$$$
CHEMBL3265012
  -OEChem-05192314333D
 Structure written by MMmdl.
 48 51  0     0  0  0  0  0  0999 V2000
   -4.2558   -3.1075   13.5651 C   0  0  0  0  0  0  0  0  0  0  0  0
   -3.8718   -2.3575   14.7067 O   0  0  0  0  0  0  0  0  0  0  0  0
   -2.5253   -2.1086   14.8120 C   0  0  0  0  0  0  0  0  0  0  0  0
   -1.7526   -2.8682   15.6804 C   0  0  0  0  0  0  0  0  0  0  0  0
   -0.3955   -2.6067   15.8218 C   0  0  0  0  0  0  0  0  0  0  0  0
    0.2199   -1.5810   15.0999 C   0  0  0  0  0  0  0  0  0  0  0  0
    1.6019   -1.3576   15.3437 N   0  0  0  0  0  0  0  0  0  0  0  0
    2.5286   -0.4382   14.7882 C   0  0  0  0  0  0  0  0  0  0  0  0
    2.1607    0.3911   13.7686 N   0  0  0  0  0  0  0  0  0  0  0  0
    3.1048    1.2259   13.2324 C   0  0  0  0  0  0  0  0  0  0  0  0
    4.4053    1.2717   13.7035 C   0  0  0  0  0  0  0  0  0  0  0  0
    4.7404    0.4886   14.7629 N   0  0  0  0  0  0  0  0  0  0  0  0
    5.8950    0.3907   15.4847 C   0  0  0  0  0  0  0  0  0  0  0  0
    5.6038   -0.5479   16.5103 C   0  0  0  0  0  0  0  0  0  0  0  0
    4.3901   -1.0599   16.3616 N   0  0  0  0  0  0  0  0  0  0  0  0
    3.8363   -0.3960   15.3347 C   0  0  0  0  0  0  0  0  0  0  0  0
    2.6462    2.1273   12.1323 C   0  0  0  0  0  0  0  0  0  0  0  0
    3.5538    2.6360   11.1838 C   0  0  0  0  0  0  0  0  0  0  0  0
    3.1137    3.4699   10.1556 C   0  0  0  0  0  0  0  0  0  0  0  0
    1.7615    3.8212   10.0639 C   0  0  0  0  0  0  0  0  0  0  0  0
    1.3043    4.7272    8.9268 C   0  0  0  0  0  0  0  0  0  0  0  0
    2.1134    5.3522    8.2339 O   0  0  0  0  0  0  0  0  0  0  0  0
   -0.0095    4.7686    8.7196 N   0  0  0  0  0  0  0  0  0  0  0  0
    0.8533    3.3219   11.0251 C   0  0  0  0  0  0  0  0  0  0  0  0
   -0.4584    3.6572   10.9807 F   0  0  0  0  0  0  0  0  0  0  0  0
    1.2985    2.4859   12.0366 C   0  0  0  0  0  0  0  0  0  0  0  0
   -0.5548   -0.8117   14.1978 C   0  0  0  0  0  0  0  0  0  0  0  0
   -1.9397   -1.0798   14.0626 C   0  0  0  0  0  0  0  0  0  0  0  0
   -2.7418   -0.3359   13.2115 O   0  0  0  0  0  0  0  0  0  0  0  0
   -2.2196    0.7089   12.4090 C   0  0  0  0  0  0  0  0  0  0  0  0
   -5.3461   -3.2532   13.5712 H   0  0  0  0  0  0  0  0  0  0  0  0
   -3.9637   -2.5642   12.6543 H   0  0  0  0  0  0  0  0  0  0  0  0
   -3.7550   -4.0867   13.5844 H   0  0  0  0  0  0  0  0  0  0  0  0
   -2.2085   -3.6657   16.2483 H   0  0  0  0  0  0  0  0  0  0  0  0
    0.1932   -3.2059   16.5006 H   0  0  0  0  0  0  0  0  0  0  0  0
    5.0630    0.9873   12.8689 H   0  0  0  0  0  0  0  0  0  0  0  0
    4.6092    2.3133   13.9925 H   0  0  0  0  0  0  0  0  0  0  0  0
    6.8252    0.9122   15.3136 H   0  0  0  0  0  0  0  0  0  0  0  0
    6.2831   -0.8104   17.3078 H   0  0  0  0  0  0  0  0  0  0  0  0
    4.6003    2.3783   11.2528 H   0  0  0  0  0  0  0  0  0  0  0  0
    3.8181    3.8456    9.4282 H   0  0  0  0  0  0  0  0  0  0  0  0
    1.6461    5.8592    7.5804 H   0  0  0  0  0  0  0  0  0  0  0  0
   -0.2487    5.3580    7.9480 H   0  0  0  0  0  0  0  0  0  0  0  0
    0.5940    2.1059   12.7616 H   0  0  0  0  0  0  0  0  0  0  0  0
   -0.0935   -0.0265   13.6172 H   0  0  0  0  0  0  0  0  0  0  0  0
   -3.0309    1.1580   11.8173 H   0  0  0  0  0  0  0  0  0  0  0  0
   -1.7687    1.4767   13.0548 H   0  0  0  0  0  0  0  0  0  0  0  0
   -1.4535    0.3031   11.7320 H   0  0  0  0  0  0  0  0  0  0  0  0
  1  2  1  0  0  0  0
  2  3  1  0  0  0  0
  3  4  2  0  0  0  0
  3 28  1  0  0  0  0
  4  5  1  0  0  0  0
  5  6  2  0  0  0  0
  6  7  1  0  0  0  0
  6 27  1  0  0  0  0
  7  8  2  0  0  0  0
  8  9  1  0  0  0  0
  8 16  1  0  0  0  0
  9 10  2  0  0  0  0
 10 11  1  0  0  0  0
 10 17  1  0  0  0  0
 11 12  1  0  0  0  0
 12 13  1  0  0  0  0
 12 16  1  0  0  0  0
 13 14  2  0  0  0  0
 14 15  1  0  0  0  0
 15 16  2  0  0  0  0
 17 18  2  0  0  0  0
 17 26  1  0  0  0  0
 18 19  1  0  0  0  0
 19 20  2  0  0  0  0
 20 21  1  0  0  0  0
 20 24  1  0  0  0  0
 21 22  1  0  0  0  0
 21 23  2  0  0  0  0
 24 25  1  0  0  0  0
 24 26  2  0  0  0  0
 27 28  2  0  0  0  0
 28 29  1  0  0  0  0
 29 30  1  0  0  0  0
  1 31  1  0  0  0  0
  1 32  1  0  0  0  0
  1 33  1  0  0  0  0
  4 34  1  0  0  0  0
  5 35  1  0  0  0  0
 11 36  1  0  0  0  0
 11 37  1  0  0  0  0
 13 38  1  0  0  0  0
 14 39  1  0  0  0  0
 18 40  1  0  0  0  0
 19 41  1  0  0  0  0
 22 42  1  0  0  0  0
 23 43  1  0  0  0  0
 26 44  1  0  0  0  0
 27 45  1  0  0  0  0
 30 46  1  0  0  0  0
 30 47  1  0  0  0  0
 30 48  1  0  0  0  0
M  END
> <IC50[nM]>
18.6

$$$$
CHEMBL3265012
  -OEChem-05192314333D
 Structure written by MMmdl.
 48 51  0     1  0  0  0  0  0999 V2000
   -4.2558   -3.1075   13.5651 C   0  0  0  0  0  0  0  0  0  0  0  0
   -3.8718   -2.3575   14.7067 O   0  0  0  0  0  0  0  0  0  0  0  0
   -2.5253   -2.1086   14.8120 C   0  0  3  0  0  0  0  0  0  0  0  0
   -1.7526   -2.8682   15.6804 C   0  0  0  0  0  0  0  0  0  0  0  0
   -0.3955   -2.6067   15.8218 C   0  0  0  0  0  0  0  0  0  0  0  0
    0.2199   -1.5810   15.0999 C   0  0  0  0  0  0  0  0  0  0  0  0
    1.6019   -1.3576   15.3437 N   0  0  0  0  0  0  0  0  0  0  0  0
    2.5286   -0.4382   14.7882 C   0  0  0  0  0  0  0  0  0  0  0  0
    2.1607    0.3911   13.7686 N   0  0  0  0  0  0  0  0  0  0  0  0
    3.1048    1.2259   13.2324 C   0  0  0  0  0  0  0  0  0  0  0  0
    4.4053    1.2717   13.7035 C   0  0  0  0  0  0  0  0  0  0  0  0
    4.7404    0.4886   14.7629 N   0  0  0  0  0  0  0  0  0  0  0  0
    5.8950    0.3907   15.4847 C   0  0  0  0  0  0  0  0  0  0  0  0
    5.6038   -0.5479   16.5103 C   0  0  0  0  0  0  0  0  0  0  0  0
    4.3901   -1.0599   16.3616 N   0  0  0  0  0  0  0  0  0  0  0  0
    3.8363   -0.3960   15.3347 C   0  0  0  0  0  0  0  0  0  0  0  0
    2.6462    2.1273   12.1323 C   0  0  0  0  0  0  0  0  0  0  0  0
    3.5538    2.6360   11.1838 C   0  0  0  0  0  0  0  0  0  0  0  0
    3.1137    3.4699   10.1556 C   0  0  0  0  0  0  0  0  0  0  0  0
    1.7615    3.8212   10.0639 C   0  0  0  0  0  0  0  0  0  0  0  0
    1.3043    4.7272    8.9268 C   0  0  0  0  0  0  0  0  0  0  0  0
    2.1134    5.3522    8.2339 O   0  0  0  0  0  0  0  0  0  0  0  0
   -0.0095    4.7686    8.7196 N   0  0  0  0  0  0  0  0  0  0  0  0
    0.8533    3.3219   11.0251 C   0  0  0  0  0  0  0  0  0  0  0  0
   -0.4584    3.6572   10.9807 F   0  0  0  0  0  0  0  0  0  0  0  0
    1.2985    2.4859   12.0366 C   0  0  0  0  0  0  0  0  0  0  0  0
   -0.5548   -0.8117   14.1978 C   0  0  0  0  0  0  0  0  0  0  0  0
   -1.9397   -1.0798   14.0626 C   0  0  0  0  0  0  0  0  0  0  0  0
   -2.7418   -0.3359   13.2115 O   0  0  0  0  0  0  0  0  0  0  0  0
   -2.2196    0.7089   12.4090 C   0  0  0  0  0  0  0  0  0  0  0  0
   -5.3461   -3.2532   13.5712 H   0  0  0  0  0  0  0  0  0  0  0  0
   -3.9637   -2.5642   12.6543 H   0  0  0  0  0  0  0  0  0  0  0  0
   -3.7550   -4.0867   13.5844 H   0  0  0  0  0  0  0  0  0  0  0  0
   -2.3241   -2.8224   13.9996 H   0  0  0  0  0  0  0  0  0  0  0  0
   -2.2085   -3.6657   16.2483 H   0  0  0  0  0  0  0  0  0  0  0  0
    0.1932   -3.2059   16.5006 H   0  0  0  0  0  0  0  0  0  0  0  0
    5.1379    1.9155   13.2396 H   0  0  0  0  0  0  0  0  0  0  0  0
    6.8252    0.9122   15.3136 H   0  0  0  0  0  0  0  0  0  0  0  0
    6.2831   -0.8104   17.3078 H   0  0  0  0  0  0  0  0  0  0  0  0
    4.6003    2.3783   11.2528 H   0  0  0  0  0  0  0  0  0  0  0  0
    3.8181    3.8456    9.4282 H   0  0  0  0  0  0  0  0  0  0  0  0
   -0.3811    5.3238    7.9755 H   0  0  0  0  0  0  0  0  0  0  0  0
   -0.6252    4.2445    9.3080 H   0  0  0  0  0  0  0  0  0  0  0  0
    0.5940    2.1059   12.7616 H   0  0  0  0  0  0  0  0  0  0  0  0
   -0.0935   -0.0265   13.6172 H   0  0  0  0  0  0  0  0  0  0  0  0
   -3.0309    1.1580   11.8173 H   0  0  0  0  0  0  0  0  0  0  0  0
   -1.7687    1.4767   13.0548 H   0  0  0  0  0  0  0  0  0  0  0  0
   -1.4535    0.3031   11.7320 H   0  0  0  0  0  0  0  0  0  0  0  0
  1  2  1  0  0  0  0
  2  3  1  0  0  0  0
  3  4  1  0  0  0  0
  3 28  1  0  0  0  0
  4  5  2  0  0  0  0
  5  6  1  0  0  0  0
  6  7  2  0  0  0  0
  6 27  1  0  0  0  0
  7  8  1  0  0  0  0
  8  9  2  0  0  0  0
  8 16  1  0  0  0  0
  9 10  1  0  0  0  0
 10 11  2  0  0  0  0
 10 17  1  0  0  0  0
 11 12  1  0  0  0  0
 12 13  1  0  0  0  0
 12 16  1  0  0  0  0
 13 14  2  0  0  0  0
 14 15  1  0  0  0  0
 15 16  2  0  0  0  0
 17 18  2  0  0  0  0
 17 26  1  0  0  0  0
 18 19  1  0  0  0  0
 19 20  2  0  0  0  0
 20 21  1  0  0  0  0
 20 24  1  0  0  0  0
 21 22  2  0  0  0  0
 21 23  1  0  0  0  0
 24 25  1  0  0  0  0
 24 26  2  0  0  0  0
 27 28  2  0  0  0  0
 28 29  1  0  0  0  0
 29 30  1  0  0  0  0
  1 31  1  0  0  0  0
  1 32  1  0  0  0  0
  1 33  1  0  0  0  0
  3 34  1  0  0  0  0
  4 35  1  0  0  0  0
  5 36  1  0  0  0  0
 11 37  1  0  0  0  0
 13 38  1  0  0  0  0
 14 39  1  0  0  0  0
 18 40  1  0  0  0  0
 19 41  1  0  0  0  0
 23 42  1  0  0  0  0
 23 43  1  0  0  0  0
 26 44  1  0  0  0  0
 27 45  1  0  0  0  0
 30 46  1  0  0  0  0
 30 47  1  0  0  0  0
 30 48  1  0  0  0  0
M  END
> <IC50[nM]>
18.6

$$$$
CHEMBL3265012
  -OEChem-05192314333D
 Structure written by MMmdl.
 48 51  0     0  0  0  0  0  0999 V2000
   -4.2558   -3.1075   13.5651 C   0  0  0  0  0  0  0  0  0  0  0  0
   -3.8718   -2.3575   14.7067 O   0  0  0  0  0  0  0  0  0  0  0  0
   -2.5253   -2.1086   14.8120 C   0  0  0  0  0  0  0  0  0  0  0  0
   -1.7526   -2.8682   15.6804 C   0  0  0  0  0  0  0  0  0  0  0  0
   -0.3955   -2.6067   15.8218 C   0  0  0  0  0  0  0  0  0  0  0  0
    0.2199   -1.5810   15.0999 C   0  0  0  0  0  0  0  0  0  0  0  0
    1.6019   -1.3576   15.3437 N   0  0  0  0  0  0  0  0  0  0  0  0
    2.5286   -0.4382   14.7882 C   0  0  0  0  0  0  0  0  0  0  0  0
    2.1607    0.3911   13.7686 N   0  0  0  0  0  0  0  0  0  0  0  0
    3.1048    1.2259   13.2324 C   0  0  0  0  0  0  0  0  0  0  0  0
    4.4053    1.2717   13.7035 C   0  0  0  0  0  0  0  0  0  0  0  0
    4.7404    0.4886   14.7629 N   0  0  0  0  0  0  0  0  0  0  0  0
    5.8950    0.3907   15.4847 C   0  0  0  0  0  0  0  0  0  0  0  0
    5.6038   -0.5479   16.5103 C   0  0  0  0  0  0  0  0  0  0  0  0
    4.3901   -1.0599   16.3616 N   0  0  0  0  0  0  0  0  0  0  0  0
    3.8363   -0.3960   15.3347 C   0  0  0  0  0  0  0  0  0  0  0  0
    2.6462    2.1273   12.1323 C   0  0  0  0  0  0  0  0  0  0  0  0
    3.5538    2.6360   11.1838 C   0  0  0  0  0  0  0  0  0  0  0  0
    3.1137    3.4699   10.1556 C   0  0  0  0  0  0  0  0  0  0  0  0
    1.7615    3.8212   10.0639 C   0  0  0  0  0  0  0  0  0  0  0  0
    1.3043    4.7272    8.9268 C   0  0  0  0  0  0  0  0  0  0  0  0
    2.1134    5.3522    8.2339 O   0  0  0  0  0  0  0  0  0  0  0  0
   -0.0095    4.7686    8.7196 N   0  0  0  0  0  0  0  0  0  0  0  0
    0.8533    3.3219   11.0251 C   0  0  0  0  0  0  0  0  0  0  0  0
   -0.4584    3.6572   10.9807 F   0  0  0  0  0  0  0  0  0  0  0  0
    1.2985    2.4859   12.0366 C   0  0  0  0  0  0  0  0  0  0  0  0
   -0.5548   -0.8117   14.1978 C   0  0  0  0  0  0  0  0  0  0  0  0
   -1.9397   -1.0798   14.0626 C   0  0  0  0  0  0  0  0  0  0  0  0
   -2.7418   -0.3359   13.2115 O   0  0  0  0  0  0  0  0  0  0  0  0
   -2.2196    0.7089   12.4090 C   0  0  0  0  0  0  0  0  0  0  0  0
   -5.3461   -3.2532   13.5712 H   0  0  0  0  0  0  0  0  0  0  0  0
   -3.9637   -2.5642   12.6543 H   0  0  0  0  0  0  0  0  0  0  0  0
   -3.7550   -4.0867   13.5844 H   0  0  0  0  0  0  0  0  0  0  0  0
   -2.2085   -3.6657   16.2483 H   0  0  0  0  0  0  0  0  0  0  0  0
   -0.2296   -2.3829   16.8859 H   0  0  0  0  0  0  0  0  0  0  0  0
    0.1310   -3.5352   15.5560 H   0  0  0  0  0  0  0  0  0  0  0  0
    5.1379    1.9155   13.2396 H   0  0  0  0  0  0  0  0  0  0  0  0
    6.8252    0.9122   15.3136 H   0  0  0  0  0  0  0  0  0  0  0  0
    6.2831   -0.8104   17.3078 H   0  0  0  0  0  0  0  0  0  0  0  0
    4.6003    2.3783   11.2528 H   0  0  0  0  0  0  0  0  0  0  0  0
    3.8181    3.8456    9.4282 H   0  0  0  0  0  0  0  0  0  0  0  0
   -0.3811    5.3238    7.9755 H   0  0  0  0  0  0  0  0  0  0  0  0
   -0.6252    4.2445    9.3080 H   0  0  0  0  0  0  0  0  0  0  0  0
    0.5940    2.1059   12.7616 H   0  0  0  0  0  0  0  0  0  0  0  0
   -0.0935   -0.0265   13.6172 H   0  0  0  0  0  0  0  0  0  0  0  0
   -3.0309    1.1580   11.8173 H   0  0  0  0  0  0  0  0  0  0  0  0
   -1.7687    1.4767   13.0548 H   0  0  0  0  0  0  0  0  0  0  0  0
   -1.4535    0.3031   11.7320 H   0  0  0  0  0  0  0  0  0  0  0  0
  1  2  1  0  0  0  0
  2  3  1  0  0  0  0
  3  4  2  0  0  0  0
  3 28  1  0  0  0  0
  4  5  1  0  0  0  0
  5  6  1  0  0  0  0
  6  7  2  0  0  0  0
  6 27  1  0  0  0  0
  7  8  1  0  0  0  0
  8  9  2  0  0  0  0
  8 16  1  0  0  0  0
  9 10  1  0  0  0  0
 10 11  2  0  0  0  0
 10 17  1  0  0  0  0
 11 12  1  0  0  0  0
 12 13  1  0  0  0  0
 12 16  1  0  0  0  0
 13 14  2  0  0  0  0
 14 15  1  0  0  0  0
 15 16  2  0  0  0  0
 17 18  2  0  0  0  0
 17 26  1  0  0  0  0
 18 19  1  0  0  0  0
 19 20  2  0  0  0  0
 20 21  1  0  0  0  0
 20 24  1  0  0  0  0
 21 22  2  0  0  0  0
 21 23  1  0  0  0  0
 24 25  1  0  0  0  0
 24 26  2  0  0  0  0
 27 28  2  0  0  0  0
 28 29  1  0  0  0  0
 29 30  1  0  0  0  0
  1 31  1  0  0  0  0
  1 32  1  0  0  0  0
  1 33  1  0  0  0  0
  4 34  1  0  0  0  0
  5 35  1  0  0  0  0
  5 36  1  0  0  0  0
 11 37  1  0  0  0  0
 13 38  1  0  0  0  0
 14 39  1  0  0  0  0
 18 40  1  0  0  0  0
 19 41  1  0  0  0  0
 23 42  1  0  0  0  0
 23 43  1  0  0  0  0
 26 44  1  0  0  0  0
 27 45  1  0  0  0  0
 30 46  1  0  0  0  0
 30 47  1  0  0  0  0
 30 48  1  0  0  0  0
M  END
> <IC50[nM]>
18.6

$$$$
CHEMBL3265012
  -OEChem-05192314333D
 Structure written by MMmdl.
 48 51  0     0  0  0  0  0  0999 V2000
   -4.2558   -3.1075   13.5651 C   0  0  0  0  0  0  0  0  0  0  0  0
   -3.8718   -2.3575   14.7067 O   0  0  0  0  0  0  0  0  0  0  0  0
   -2.5253   -2.1086   14.8120 C   0  0  0  0  0  0  0  0  0  0  0  0
   -1.7526   -2.8682   15.6804 C   0  0  0  0  0  0  0  0  0  0  0  0
   -0.3955   -2.6067   15.8218 C   0  0  0  0  0  0  0  0  0  0  0  0
    0.2199   -1.5810   15.0999 C   0  0  0  0  0  0  0  0  0  0  0  0
    1.6019   -1.3576   15.3437 N   0  0  0  0  0  0  0  0  0  0  0  0
    2.5286   -0.4382   14.7882 C   0  0  0  0  0  0  0  0  0  0  0  0
    2.1607    0.3911   13.7686 N   0  0  0  0  0  0  0  0  0  0  0  0
    3.1048    1.2259   13.2324 C   0  0  0  0  0  0  0  0  0  0  0  0
    4.4053    1.2717   13.7035 C   0  0  0  0  0  0  0  0  0  0  0  0
    4.7404    0.4886   14.7629 N   0  0  0  0  0  0  0  0  0  0  0  0
    5.8950    0.3907   15.4847 C   0  0  0  0  0  0  0  0  0  0  0  0
    5.6038   -0.5479   16.5103 C   0  0  0  0  0  0  0  0  0  0  0  0
    4.3901   -1.0599   16.3616 N   0  0  0  0  0  0  0  0  0  0  0  0
    3.8363   -0.3960   15.3347 C   0  0  0  0  0  0  0  0  0  0  0  0
    2.6462    2.1273   12.1323 C   0  0  0  0  0  0  0  0  0  0  0  0
    3.5538    2.6360   11.1838 C   0  0  0  0  0  0  0  0  0  0  0  0
    3.1137    3.4699   10.1556 C   0  0  0  0  0  0  0  0  0  0  0  0
    1.7615    3.8212   10.0639 C   0  0  0  0  0  0  0  0  0  0  0  0
    1.3043    4.7272    8.9268 C   0  0  0  0  0  0  0  0  0  0  0  0
    2.1134    5.3522    8.2339 O   0  0  0  0  0  0  0  0  0  0  0  0
   -0.0095    4.7686    8.7196 N   0  0  0  0  0  0  0  0  0  0  0  0
    0.8533    3.3219   11.0251 C   0  0  0  0  0  0  0  0  0  0  0  0
   -0.4584    3.6572   10.9807 F   0  0  0  0  0  0  0  0  0  0  0  0
    1.2985    2.4859   12.0366 C   0  0  0  0  0  0  0  0  0  0  0  0
   -0.5548   -0.8117   14.1978 C   0  0  0  0  0  0  0  0  0  0  0  0
   -1.9397   -1.0798   14.0626 C   0  0  0  0  0  0  0  0  0  0  0  0
   -2.7418   -0.3359   13.2115 O   0  0  0  0  0  0  0  0  0  0  0  0
   -2.2196    0.7089   12.4090 C   0  0  0  0  0  0  0  0  0  0  0  0
   -5.3461   -3.2532   13.5712 H   0  0  0  0  0  0  0  0  0  0  0  0
   -3.9637   -2.5642   12.6543 H   0  0  0  0  0  0  0  0  0  0  0  0
   -3.7550   -4.0867   13.5844 H   0  0  0  0  0  0  0  0  0  0  0  0
   -2.2085   -3.6657   16.2483 H   0  0  0  0  0  0  0  0  0  0  0  0
    0.1932   -3.2059   16.5006 H   0  0  0  0  0  0  0  0  0  0  0  0
    5.1379    1.9155   13.2396 H   0  0  0  0  0  0  0  0  0  0  0  0
    6.8252    0.9122   15.3136 H   0  0  0  0  0  0  0  0  0  0  0  0
    6.2831   -0.8104   17.3078 H   0  0  0  0  0  0  0  0  0  0  0  0
    4.6003    2.3783   11.2528 H   0  0  0  0  0  0  0  0  0  0  0  0
    3.8181    3.8456    9.4282 H   0  0  0  0  0  0  0  0  0  0  0  0
   -0.3811    5.3238    7.9755 H   0  0  0  0  0  0  0  0  0  0  0  0
   -0.6252    4.2445    9.3080 H   0  0  0  0  0  0  0  0  0  0  0  0
    0.5940    2.1059   12.7616 H   0  0  0  0  0  0  0  0  0  0  0  0
   -0.4614    0.2386   14.5111 H   0  0  0  0  0  0  0  0  0  0  0  0
   -0.1057   -0.9386   13.2017 H   0  0  0  0  0  0  0  0  0  0  0  0
   -3.0309    1.1580   11.8173 H   0  0  0  0  0  0  0  0  0  0  0  0
   -1.7687    1.4767   13.0548 H   0  0  0  0  0  0  0  0  0  0  0  0
   -1.4535    0.3031   11.7320 H   0  0  0  0  0  0  0  0  0  0  0  0
  1  2  1  0  0  0  0
  2  3  1  0  0  0  0
  3  4  1  0  0  0  0
  3 28  2  0  0  0  0
  4  5  2  0  0  0  0
  5  6  1  0  0  0  0
  6  7  2  0  0  0  0
  6 27  1  0  0  0  0
  7  8  1  0  0  0  0
  8  9  2  0  0  0  0
  8 16  1  0  0  0  0
  9 10  1  0  0  0  0
 10 11  2  0  0  0  0
 10 17  1  0  0  0  0
 11 12  1  0  0  0  0
 12 13  1  0  0  0  0
 12 16  1  0  0  0  0
 13 14  2  0  0  0  0
 14 15  1  0  0  0  0
 15 16  2  0  0  0  0
 17 18  2  0  0  0  0
 17 26  1  0  0  0  0
 18 19  1  0  0  0  0
 19 20  2  0  0  0  0
 20 21  1  0  0  0  0
 20 24  1  0  0  0  0
 21 22  2  0  0  0  0
 21 23  1  0  0  0  0
 24 25  1  0  0  0  0
 24 26  2  0  0  0  0
 27 28  1  0  0  0  0
 28 29  1  0  0  0  0
 29 30  1  0  0  0  0
  1 31  1  0  0  0  0
  1 32  1  0  0  0  0
  1 33  1  0  0  0  0
  4 34  1  0  0  0  0
  5 35  1  0  0  0  0
 11 36  1  0  0  0  0
 13 37  1  0  0  0  0
 14 38  1  0  0  0  0
 18 39  1  0  0  0  0
 19 40  1  0  0  0  0
 23 41  1  0  0  0  0
 23 42  1  0  0  0  0
 26 43  1  0  0  0  0
 27 44  1  0  0  0  0
 27 45  1  0  0  0  0
 30 46  1  0  0  0  0
 30 47  1  0  0  0  0
 30 48  1  0  0  0  0
M  END
> <IC50[nM]>
18.6

$$$$
CHEMBL3265012
  -OEChem-05192314333D
 Structure written by MMmdl.
 48 51  0     1  0  0  0  0  0999 V2000
   -4.2558   -3.1075   13.5651 C   0  0  0  0  0  0  0  0  0  0  0  0
   -3.8718   -2.3575   14.7067 O   0  0  0  0  0  0  0  0  0  0  0  0
   -2.5253   -2.1086   14.8120 C   0  0  3  0  0  0  0  0  0  0  0  0
   -1.7526   -2.8682   15.6804 C   0  0  0  0  0  0  0  0  0  0  0  0
   -0.3955   -2.6067   15.8218 C   0  0  0  0  0  0  0  0  0  0  0  0
    0.2199   -1.5810   15.0999 C   0  0  0  0  0  0  0  0  0  0  0  0
    1.6019   -1.3576   15.3437 N   0  0  0  0  0  0  0  0  0  0  0  0
    2.5286   -0.4382   14.7882 C   0  0  0  0  0  0  0  0  0  0  0  0
    2.1607    0.3911   13.7686 N   0  0  0  0  0  0  0  0  0  0  0  0
    3.1048    1.2259   13.2324 C   0  0  0  0  0  0  0  0  0  0  0  0
    4.4053    1.2717   13.7035 C   0  0  0  0  0  0  0  0  0  0  0  0
    4.7404    0.4886   14.7629 N   0  0  0  0  0  0  0  0  0  0  0  0
    5.8950    0.3907   15.4847 C   0  0  0  0  0  0  0  0  0  0  0  0
    5.6038   -0.5479   16.5103 C   0  0  0  0  0  0  0  0  0  0  0  0
    4.3901   -1.0599   16.3616 N   0  0  0  0  0  0  0  0  0  0  0  0
    3.8363   -0.3960   15.3347 C   0  0  0  0  0  0  0  0  0  0  0  0
    2.6462    2.1273   12.1323 C   0  0  0  0  0  0  0  0  0  0  0  0
    3.5538    2.6360   11.1838 C   0  0  0  0  0  0  0  0  0  0  0  0
    3.1137    3.4699   10.1556 C   0  0  0  0  0  0  0  0  0  0  0  0
    1.7615    3.8212   10.0639 C   0  0  0  0  0  0  0  0  0  0  0  0
    1.3043    4.7272    8.9268 C   0  0  0  0  0  0  0  0  0  0  0  0
    2.1134    5.3522    8.2339 O   0  0  0  0  0  0  0  0  0  0  0  0
   -0.0095    4.7686    8.7196 N   0  0  0  0  0  0  0  0  0  0  0  0
    0.8533    3.3219   11.0251 C   0  0  0  0  0  0  0  0  0  0  0  0
   -0.4584    3.6572   10.9807 F   0  0  0  0  0  0  0  0  0  0  0  0
    1.2985    2.4859   12.0366 C   0  0  0  0  0  0  0  0  0  0  0  0
   -0.5548   -0.8117   14.1978 C   0  0  0  0  0  0  0  0  0  0  0  0
   -1.9397   -1.0798   14.0626 C   0  0  0  0  0  0  0  0  0  0  0  0
   -2.7418   -0.3359   13.2115 O   0  0  0  0  0  0  0  0  0  0  0  0
   -2.2196    0.7089   12.4090 C   0  0  0  0  0  0  0  0  0  0  0  0
   -5.3461   -3.2532   13.5712 H   0  0  0  0  0  0  0  0  0  0  0  0
   -3.9637   -2.5642   12.6543 H   0  0  0  0  0  0  0  0  0  0  0  0
   -3.7550   -4.0867   13.5844 H   0  0  0  0  0  0  0  0  0  0  0  0
   -2.3241   -2.8224   13.9996 H   0  0  0  0  0  0  0  0  0  0  0  0
   -2.2085   -3.6657   16.2483 H   0  0  0  0  0  0  0  0  0  0  0  0
    0.1932   -3.2059   16.5006 H   0  0  0  0  0  0  0  0  0  0  0  0
    5.1379    1.9155   13.2396 H   0  0  0  0  0  0  0  0  0  0  0  0
    6.8252    0.9122   15.3136 H   0  0  0  0  0  0  0  0  0  0  0  0
    6.2831   -0.8104   17.3078 H   0  0  0  0  0  0  0  0  0  0  0  0
    4.6003    2.3783   11.2528 H   0  0  0  0  0  0  0  0  0  0  0  0
    3.8181    3.8456    9.4282 H   0  0  0  0  0  0  0  0  0  0  0  0
    1.6461    5.8592    7.5804 H   0  0  0  0  0  0  0  0  0  0  0  0
   -0.2487    5.3580    7.9480 H   0  0  0  0  0  0  0  0  0  0  0  0
    0.5940    2.1059   12.7616 H   0  0  0  0  0  0  0  0  0  0  0  0
   -0.0935   -0.0265   13.6172 H   0  0  0  0  0  0  0  0  0  0  0  0
   -3.0309    1.1580   11.8173 H   0  0  0  0  0  0  0  0  0  0  0  0
   -1.7687    1.4767   13.0548 H   0  0  0  0  0  0  0  0  0  0  0  0
   -1.4535    0.3031   11.7320 H   0  0  0  0  0  0  0  0  0  0  0  0
  1  2  1  0  0  0  0
  2  3  1  0  0  0  0
  3  4  1  0  0  0  0
  3 28  1  0  0  0  0
  4  5  2  0  0  0  0
  5  6  1  0  0  0  0
  6  7  2  0  0  0  0
  6 27  1  0  0  0  0
  7  8  1  0  0  0  0
  8  9  2  0  0  0  0
  8 16  1  0  0  0  0
  9 10  1  0  0  0  0
 10 11  2  0  0  0  0
 10 17  1  0  0  0  0
 11 12  1  0  0  0  0
 12 13  1  0  0  0  0
 12 16  1  0  0  0  0
 13 14  2  0  0  0  0
 14 15  1  0  0  0  0
 15 16  2  0  0  0  0
 17 18  2  0  0  0  0
 17 26  1  0  0  0  0
 18 19  1  0  0  0  0
 19 20  2  0  0  0  0
 20 21  1  0  0  0  0
 20 24  1  0  0  0  0
 21 22  1  0  0  0  0
 21 23  2  0  0  0  0
 24 25  1  0  0  0  0
 24 26  2  0  0  0  0
 27 28  2  0  0  0  0
 28 29  1  0  0  0  0
 29 30  1  0  0  0  0
  1 31  1  0  0  0  0
  1 32  1  0  0  0  0
  1 33  1  0  0  0  0
  3 34  1  0  0  0  0
  4 35  1  0  0  0  0
  5 36  1  0  0  0  0
 11 37  1  0  0  0  0
 13 38  1  0  0  0  0
 14 39  1  0  0  0  0
 18 40  1  0  0  0  0
 19 41  1  0  0  0  0
 22 42  1  0  0  0  0
 23 43  1  0  0  0  0
 26 44  1  0  0  0  0
 27 45  1  0  0  0  0
 30 46  1  0  0  0  0
 30 47  1  0  0  0  0
 30 48  1  0  0  0  0
M  END
> <IC50[nM]>
18.6

$$$$
CHEMBL3265012
  -OEChem-05192314333D
 Structure written by MMmdl.
 48 51  0     0  0  0  0  0  0999 V2000
   -4.2558   -3.1075   13.5651 C   0  0  0  0  0  0  0  0  0  0  0  0
   -3.8718   -2.3575   14.7067 O   0  0  0  0  0  0  0  0  0  0  0  0
   -2.5253   -2.1086   14.8120 C   0  0  0  0  0  0  0  0  0  0  0  0
   -1.7526   -2.8682   15.6804 C   0  0  0  0  0  0  0  0  0  0  0  0
   -0.3955   -2.6067   15.8218 C   0  0  0  0  0  0  0  0  0  0  0  0
    0.2199   -1.5810   15.0999 C   0  0  0  0  0  0  0  0  0  0  0  0
    1.6019   -1.3576   15.3437 N   0  0  0  0  0  0  0  0  0  0  0  0
    2.5286   -0.4382   14.7882 C   0  0  0  0  0  0  0  0  0  0  0  0
    2.1607    0.3911   13.7686 N   0  0  0  0  0  0  0  0  0  0  0  0
    3.1048    1.2259   13.2324 C   0  0  0  0  0  0  0  0  0  0  0  0
    4.4053    1.2717   13.7035 C   0  0  0  0  0  0  0  0  0  0  0  0
    4.7404    0.4886   14.7629 N   0  0  0  0  0  0  0  0  0  0  0  0
    5.8950    0.3907   15.4847 C   0  0  0  0  0  0  0  0  0  0  0  0
    5.6038   -0.5479   16.5103 C   0  0  0  0  0  0  0  0  0  0  0  0
    4.3901   -1.0599   16.3616 N   0  0  0  0  0  0  0  0  0  0  0  0
    3.8363   -0.3960   15.3347 C   0  0  0  0  0  0  0  0  0  0  0  0
    2.6462    2.1273   12.1323 C   0  0  0  0  0  0  0  0  0  0  0  0
    3.5538    2.6360   11.1838 C   0  0  0  0  0  0  0  0  0  0  0  0
    3.1137    3.4699   10.1556 C   0  0  0  0  0  0  0  0  0  0  0  0
    1.7615    3.8212   10.0639 C   0  0  0  0  0  0  0  0  0  0  0  0
    1.3043    4.7272    8.9268 C   0  0  0  0  0  0  0  0  0  0  0  0
    2.1134    5.3522    8.2339 O   0  0  0  0  0  0  0  0  0  0  0  0
   -0.0095    4.7686    8.7196 N   0  0  0  0  0  0  0  0  0  0  0  0
    0.8533    3.3219   11.0251 C   0  0  0  0  0  0  0  0  0  0  0  0
   -0.4584    3.6572   10.9807 F   0  0  0  0  0  0  0  0  0  0  0  0
    1.2985    2.4859   12.0366 C   0  0  0  0  0  0  0  0  0  0  0  0
   -0.5548   -0.8117   14.1978 C   0  0  0  0  0  0  0  0  0  0  0  0
   -1.9397   -1.0798   14.0626 C   0  0  0  0  0  0  0  0  0  0  0  0
   -2.7418   -0.3359   13.2115 O   0  0  0  0  0  0  0  0  0  0  0  0
   -2.2196    0.7089   12.4090 C   0  0  0  0  0  0  0  0  0  0  0  0
   -5.3461   -3.2532   13.5712 H   0  0  0  0  0  0  0  0  0  0  0  0
   -3.9637   -2.5642   12.6543 H   0  0  0  0  0  0  0  0  0  0  0  0
   -3.7550   -4.0867   13.5844 H   0  0  0  0  0  0  0  0  0  0  0  0
   -2.2085   -3.6657   16.2483 H   0  0  0  0  0  0  0  0  0  0  0  0
   -0.2296   -2.3829   16.8859 H   0  0  0  0  0  0  0  0  0  0  0  0
    0.1310   -3.5352   15.5560 H   0  0  0  0  0  0  0  0  0  0  0  0
    5.1379    1.9155   13.2396 H   0  0  0  0  0  0  0  0  0  0  0  0
    6.8252    0.9122   15.3136 H   0  0  0  0  0  0  0  0  0  0  0  0
    6.2831   -0.8104   17.3078 H   0  0  0  0  0  0  0  0  0  0  0  0
    4.6003    2.3783   11.2528 H   0  0  0  0  0  0  0  0  0  0  0  0
    3.8181    3.8456    9.4282 H   0  0  0  0  0  0  0  0  0  0  0  0
    1.6461    5.8592    7.5804 H   0  0  0  0  0  0  0  0  0  0  0  0
   -0.2487    5.3580    7.9480 H   0  0  0  0  0  0  0  0  0  0  0  0
    0.5940    2.1059   12.7616 H   0  0  0  0  0  0  0  0  0  0  0  0
   -0.0935   -0.0265   13.6172 H   0  0  0  0  0  0  0  0  0  0  0  0
   -3.0309    1.1580   11.8173 H   0  0  0  0  0  0  0  0  0  0  0  0
   -1.7687    1.4767   13.0548 H   0  0  0  0  0  0  0  0  0  0  0  0
   -1.4535    0.3031   11.7320 H   0  0  0  0  0  0  0  0  0  0  0  0
  1  2  1  0  0  0  0
  2  3  1  0  0  0  0
  3  4  2  0  0  0  0
  3 28  1  0  0  0  0
  4  5  1  0  0  0  0
  5  6  1  0  0  0  0
  6  7  2  0  0  0  0
  6 27  1  0  0  0  0
  7  8  1  0  0  0  0
  8  9  2  0  0  0  0
  8 16  1  0  0  0  0
  9 10  1  0  0  0  0
 10 11  2  0  0  0  0
 10 17  1  0  0  0  0
 11 12  1  0  0  0  0
 12 13  1  0  0  0  0
 12 16  1  0  0  0  0
 13 14  2  0  0  0  0
 14 15  1  0  0  0  0
 15 16  2  0  0  0  0
 17 18  2  0  0  0  0
 17 26  1  0  0  0  0
 18 19  1  0  0  0  0
 19 20  2  0  0  0  0
 20 21  1  0  0  0  0
 20 24  1  0  0  0  0
 21 22  1  0  0  0  0
 21 23  2  0  0  0  0
 24 25  1  0  0  0  0
 24 26  2  0  0  0  0
 27 28  2  0  0  0  0
 28 29  1  0  0  0  0
 29 30  1  0  0  0  0
  1 31  1  0  0  0  0
  1 32  1  0  0  0  0
  1 33  1  0  0  0  0
  4 34  1  0  0  0  0
  5 35  1  0  0  0  0
  5 36  1  0  0  0  0
 11 37  1  0  0  0  0
 13 38  1  0  0  0  0
 14 39  1  0  0  0  0
 18 40  1  0  0  0  0
 19 41  1  0  0  0  0
 22 42  1  0  0  0  0
 23 43  1  0  0  0  0
 26 44  1  0  0  0  0
 27 45  1  0  0  0  0
 30 46  1  0  0  0  0
 30 47  1  0  0  0  0
 30 48  1  0  0  0  0
M  END
> <IC50[nM]>
18.6

$$$$
CHEMBL3265012
  -OEChem-05192314333D
 Structure written by MMmdl.
 48 51  0     0  0  0  0  0  0999 V2000
   -4.2558   -3.1075   13.5651 C   0  0  0  0  0  0  0  0  0  0  0  0
   -3.8718   -2.3575   14.7067 O   0  0  0  0  0  0  0  0  0  0  0  0
   -2.5253   -2.1086   14.8120 C   0  0  0  0  0  0  0  0  0  0  0  0
   -1.7526   -2.8682   15.6804 C   0  0  0  0  0  0  0  0  0  0  0  0
   -0.3955   -2.6067   15.8218 C   0  0  0  0  0  0  0  0  0  0  0  0
    0.2199   -1.5810   15.0999 C   0  0  0  0  0  0  0  0  0  0  0  0
    1.6019   -1.3576   15.3437 N   0  0  0  0  0  0  0  0  0  0  0  0
    2.5286   -0.4382   14.7882 C   0  0  0  0  0  0  0  0  0  0  0  0
    2.1607    0.3911   13.7686 N   0  0  0  0  0  0  0  0  0  0  0  0
    3.1048    1.2259   13.2324 C   0  0  0  0  0  0  0  0  0  0  0  0
    4.4053    1.2717   13.7035 C   0  0  0  0  0  0  0  0  0  0  0  0
    4.7404    0.4886   14.7629 N   0  0  0  0  0  0  0  0  0  0  0  0
    5.8950    0.3907   15.4847 C   0  0  0  0  0  0  0  0  0  0  0  0
    5.6038   -0.5479   16.5103 C   0  0  0  0  0  0  0  0  0  0  0  0
    4.3901   -1.0599   16.3616 N   0  0  0  0  0  0  0  0  0  0  0  0
    3.8363   -0.3960   15.3347 C   0  0  0  0  0  0  0  0  0  0  0  0
    2.6462    2.1273   12.1323 C   0  0  0  0  0  0  0  0  0  0  0  0
    3.5538    2.6360   11.1838 C   0  0  0  0  0  0  0  0  0  0  0  0
    3.1137    3.4699   10.1556 C   0  0  0  0  0  0  0  0  0  0  0  0
    1.7615    3.8212   10.0639 C   0  0  0  0  0  0  0  0  0  0  0  0
    1.3043    4.7272    8.9268 C   0  0  0  0  0  0  0  0  0  0  0  0
    2.1134    5.3522    8.2339 O   0  0  0  0  0  0  0  0  0  0  0  0
   -0.0095    4.7686    8.7196 N   0  0  0  0  0  0  0  0  0  0  0  0
    0.8533    3.3219   11.0251 C   0  0  0  0  0  0  0  0  0  0  0  0
   -0.4584    3.6572   10.9807 F   0  0  0  0  0  0  0  0  0  0  0  0
    1.2985    2.4859   12.0366 C   0  0  0  0  0  0  0  0  0  0  0  0
   -0.5548   -0.8117   14.1978 C   0  0  0  0  0  0  0  0  0  0  0  0
   -1.9397   -1.0798   14.0626 C   0  0  0  0  0  0  0  0  0  0  0  0
   -2.7418   -0.3359   13.2115 O   0  0  0  0  0  0  0  0  0  0  0  0
   -2.2196    0.7089   12.4090 C   0  0  0  0  0  0  0  0  0  0  0  0
   -5.3461   -3.2532   13.5712 H   0  0  0  0  0  0  0  0  0  0  0  0
   -3.9637   -2.5642   12.6543 H   0  0  0  0  0  0  0  0  0  0  0  0
   -3.7550   -4.0867   13.5844 H   0  0  0  0  0  0  0  0  0  0  0  0
   -2.2085   -3.6657   16.2483 H   0  0  0  0  0  0  0  0  0  0  0  0
    0.1932   -3.2059   16.5006 H   0  0  0  0  0  0  0  0  0  0  0  0
    5.1379    1.9155   13.2396 H   0  0  0  0  0  0  0  0  0  0  0  0
    6.8252    0.9122   15.3136 H   0  0  0  0  0  0  0  0  0  0  0  0
    6.2831   -0.8104   17.3078 H   0  0  0  0  0  0  0  0  0  0  0  0
    4.6003    2.3783   11.2528 H   0  0  0  0  0  0  0  0  0  0  0  0
    3.8181    3.8456    9.4282 H   0  0  0  0  0  0  0  0  0  0  0  0
    1.6461    5.8592    7.5804 H   0  0  0  0  0  0  0  0  0  0  0  0
   -0.2487    5.3580    7.9480 H   0  0  0  0  0  0  0  0  0  0  0  0
    0.5940    2.1059   12.7616 H   0  0  0  0  0  0  0  0  0  0  0  0
   -0.4614    0.2386   14.5111 H   0  0  0  0  0  0  0  0  0  0  0  0
   -0.1057   -0.9386   13.2017 H   0  0  0  0  0  0  0  0  0  0  0  0
   -3.0309    1.1580   11.8173 H   0  0  0  0  0  0  0  0  0  0  0  0
   -1.7687    1.4767   13.0548 H   0  0  0  0  0  0  0  0  0  0  0  0
   -1.4535    0.3031   11.7320 H   0  0  0  0  0  0  0  0  0  0  0  0
  1  2  1  0  0  0  0
  2  3  1  0  0  0  0
  3  4  1  0  0  0  0
  3 28  2  0  0  0  0
  4  5  2  0  0  0  0
  5  6  1  0  0  0  0
  6  7  2  0  0  0  0
  6 27  1  0  0  0  0
  7  8  1  0  0  0  0
  8  9  2  0  0  0  0
  8 16  1  0  0  0  0
  9 10  1  0  0  0  0
 10 11  2  0  0  0  0
 10 17  1  0  0  0  0
 11 12  1  0  0  0  0
 12 13  1  0  0  0  0
 12 16  1  0  0  0  0
 13 14  2  0  0  0  0
 14 15  1  0  0  0  0
 15 16  2  0  0  0  0
 17 18  2  0  0  0  0
 17 26  1  0  0  0  0
 18 19  1  0  0  0  0
 19 20  2  0  0  0  0
 20 21  1  0  0  0  0
 20 24  1  0  0  0  0
 21 22  1  0  0  0  0
 21 23  2  0  0  0  0
 24 25  1  0  0  0  0
 24 26  2  0  0  0  0
 27 28  1  0  0  0  0
 28 29  1  0  0  0  0
 29 30  1  0  0  0  0
  1 31  1  0  0  0  0
  1 32  1  0  0  0  0
  1 33  1  0  0  0  0
  4 34  1  0  0  0  0
  5 35  1  0  0  0  0
 11 36  1  0  0  0  0
 13 37  1  0  0  0  0
 14 38  1  0  0  0  0
 18 39  1  0  0  0  0
 19 40  1  0  0  0  0
 22 41  1  0  0  0  0
 23 42  1  0  0  0  0
 26 43  1  0  0  0  0
 27 44  1  0  0  0  0
 27 45  1  0  0  0  0
 30 46  1  0  0  0  0
 30 47  1  0  0  0  0
 30 48  1  0  0  0  0
M  END
> <IC50[nM]>
18.6

$$$$
