CHEMBL3265031
  -OEChem-05192314333D
 Structure written by MMmdl.
 58 63  0     0  0  0  0  0  0999 V2000
   -6.8350   -5.5126   14.3646 C   0  0  0  0  0  0  0  0  0  0  0  0
   -6.2469   -4.1256   14.5196 C   0  0  0  0  0  0  0  0  0  0  0  0
   -7.2986   -3.1815   14.6326 O   0  0  0  0  0  0  0  0  0  0  0  0
   -5.3943   -4.0373   15.7957 C   0  0  0  0  0  0  0  0  0  0  0  0
   -4.6708   -2.7036   15.9246 C   0  0  0  0  0  0  0  0  0  0  0  0
   -3.8604   -2.3511   14.7445 N   0  0  0  0  0  0  0  0  0  0  0  0
   -4.6320   -2.3959   13.4920 C   0  0  0  0  0  0  0  0  0  0  0  0
   -5.3661   -3.7377   13.3163 C   0  0  0  0  0  0  0  0  0  0  0  0
   -2.5090   -2.1078   14.8185 C   0  0  0  0  0  0  0  0  0  0  0  0
   -1.9132   -1.0937   14.0521 C   0  0  0  0  0  0  0  0  0  0  0  0
   -0.5452   -0.8202   14.1949 C   0  0  0  0  0  0  0  0  0  0  0  0
    0.2267   -1.5891   15.0857 C   0  0  0  0  0  0  0  0  0  0  0  0
    1.6093   -1.3706   15.3172 N   0  0  0  0  0  0  0  0  0  0  0  0
    2.5356   -0.4465   14.7610 C   0  0  0  0  0  0  0  0  0  0  0  0
    2.1744    0.3801   13.7331 N   0  0  0  0  0  0  0  0  0  0  0  0
    3.1091    1.2393   13.2182 C   0  0  0  0  0  0  0  0  0  0  0  0
    4.4162    1.2819   13.6993 C   0  0  0  0  0  0  0  0  0  0  0  0
    4.7443    0.4889   14.7568 N   0  0  0  0  0  0  0  0  0  0  0  0
    5.8980    0.3793   15.4854 C   0  0  0  0  0  0  0  0  0  0  0  0
    5.5914   -0.5292   16.5255 C   0  0  0  0  0  0  0  0  0  0  0  0
    4.3788   -1.0451   16.3697 N   0  0  0  0  0  0  0  0  0  0  0  0
    3.8374   -0.3956   15.3255 C   0  0  0  0  0  0  0  0  0  0  0  0
    2.6339    2.1607   12.1207 C   0  0  0  0  0  0  0  0  0  0  0  0
    3.5443    2.6413   11.1620 C   0  0  0  0  0  0  0  0  0  0  0  0
    3.1470    3.4630   10.1086 C   0  0  0  0  0  0  0  0  0  0  0  0
    1.8016    3.8175   10.0163 C   0  0  0  0  0  0  0  0  0  0  0  0
    0.9929    4.5961    9.1183 C   0  0  0  0  0  0  0  0  0  0  0  0
   -0.2479    4.6060    9.5144 N   0  0  0  0  0  0  0  0  0  0  0  0
   -0.3355    3.8922   10.6289 N   0  0  0  0  0  0  0  0  0  0  0  0
    0.8848    3.3596   10.9956 C   0  0  0  0  0  0  0  0  0  0  0  0
    1.2708    2.5377   12.0624 C   0  0  0  0  0  0  0  0  0  0  0  0
   -0.3834   -2.6137   15.8106 C   0  0  0  0  0  0  0  0  0  0  0  0
   -1.7318   -2.8604   15.6854 C   0  0  0  0  0  0  0  0  0  0  0  0
   -6.0221   -6.2484   14.2766 H   0  0  0  0  0  0  0  0  0  0  0  0
   -7.4507   -5.7501   15.2447 H   0  0  0  0  0  0  0  0  0  0  0  0
   -7.4599   -5.5468   13.4600 H   0  0  0  0  0  0  0  0  0  0  0  0
   -6.9333   -2.3100   14.7300 H   0  0  0  0  0  0  0  0  0  0  0  0
   -6.0513   -4.1676   16.6682 H   0  0  0  0  0  0  0  0  0  0  0  0
   -4.6463   -4.8436   15.7763 H   0  0  0  0  0  0  0  0  0  0  0  0
   -5.4219   -1.9147   16.0780 H   0  0  0  0  0  0  0  0  0  0  0  0
   -4.0063   -2.7524   16.7999 H   0  0  0  0  0  0  0  0  0  0  0  0
   -5.3737   -1.5837   13.5023 H   0  0  0  0  0  0  0  0  0  0  0  0
   -3.9441   -2.2536   12.6455 H   0  0  0  0  0  0  0  0  0  0  0  0
   -4.6149   -4.5273   13.1672 H   0  0  0  0  0  0  0  0  0  0  0  0
   -6.0071   -3.6685   12.4250 H   0  0  0  0  0  0  0  0  0  0  0  0
   -2.5080   -0.5246   13.3530 H   0  0  0  0  0  0  0  0  0  0  0  0
   -0.0872   -0.0251   13.6253 H   0  0  0  0  0  0  0  0  0  0  0  0
    2.0076   -1.9822   16.0008 H   0  0  0  0  0  0  0  0  0  0  0  0
    5.1518    1.9286   13.2442 H   0  0  0  0  0  0  0  0  0  0  0  0
    6.8387    0.8784   15.3052 H   0  0  0  0  0  0  0  0  0  0  0  0
    6.2576   -0.7714   17.3403 H   0  0  0  0  0  0  0  0  0  0  0  0
    4.5849    2.3646   11.2449 H   0  0  0  0  0  0  0  0  0  0  0  0
    3.8635    3.8164    9.3818 H   0  0  0  0  0  0  0  0  0  0  0  0
    1.3624    5.1019    8.2385 H   0  0  0  0  0  0  0  0  0  0  0  0
   -1.1831    3.7561   11.1418 H   0  0  0  0  0  0  0  0  0  0  0  0
    0.5610    2.2069   12.8061 H   0  0  0  0  0  0  0  0  0  0  0  0
    0.2099   -3.2208   16.4783 H   0  0  0  0  0  0  0  0  0  0  0  0
   -2.1883   -3.6472   16.2676 H   0  0  0  0  0  0  0  0  0  0  0  0
  1  2  1  0  0  0  0
  2  3  1  0  0  0  0
  2  4  1  0  0  0  0
  2  8  1  0  0  0  0
  4  5  1  0  0  0  0
  5  6  1  0  0  0  0
  6  7  1  0  0  0  0
  6  9  1  0  0  0  0
  7  8  1  0  0  0  0
  9 10  2  0  0  0  0
  9 33  1  0  0  0  0
 10 11  1  0  0  0  0
 11 12  2  0  0  0  0
 12 13  1  0  0  0  0
 12 32  1  0  0  0  0
 13 14  1  0  0  0  0
 14 15  2  0  0  0  0
 14 22  1  0  0  0  0
 15 16  1  0  0  0  0
 16 17  2  0  0  0  0
 16 23  1  0  0  0  0
 17 18  1  0  0  0  0
 18 19  1  0  0  0  0
 18 22  1  0  0  0  0
 19 20  2  0  0  0  0
 20 21  1  0  0  0  0
 21 22  2  0  0  0  0
 23 24  2  0  0  0  0
 23 31  1  0  0  0  0
 24 25  1  0  0  0  0
 25 26  2  0  0  0  0
 26 27  1  0  0  0  0
 26 30  1  0  0  0  0
 27 28  2  0  0  0  0
 28 29  1  0  0  0  0
 29 30  1  0  0  0  0
 30 31  2  0  0  0  0
 32 33  2  0  0  0  0
  1 34  1  0  0  0  0
  1 35  1  0  0  0  0
  1 36  1  0  0  0  0
  3 37  1  0  0  0  0
  4 38  1  0  0  0  0
  4 39  1  0  0  0  0
  5 40  1  0  0  0  0
  5 41  1  0  0  0  0
  7 42  1  0  0  0  0
  7 43  1  0  0  0  0
  8 44  1  0  0  0  0
  8 45  1  0  0  0  0
 10 46  1  0  0  0  0
 11 47  1  0  0  0  0
 13 48  1  0  0  0  0
 17 49  1  0  0  0  0
 19 50  1  0  0  0  0
 20 51  1  0  0  0  0
 24 52  1  0  0  0  0
 25 53  1  0  0  0  0
 27 54  1  0  0  0  0
 29 55  1  0  0  0  0
 31 56  1  0  0  0  0
 32 57  1  0  0  0  0
 33 58  1  0  0  0  0
M  END
> <IC50[nM]>
1.4

$$$$
CHEMBL3265031
  -OEChem-05192314333D
 Structure written by MMmdl.
 58 63  0     0  0  0  0  0  0999 V2000
   -6.8350   -5.5126   14.3646 C   0  0  0  0  0  0  0  0  0  0  0  0
   -6.2469   -4.1256   14.5196 C   0  0  0  0  0  0  0  0  0  0  0  0
   -7.2986   -3.1815   14.6326 O   0  0  0  0  0  0  0  0  0  0  0  0
   -5.3943   -4.0373   15.7957 C   0  0  0  0  0  0  0  0  0  0  0  0
   -4.6708   -2.7036   15.9246 C   0  0  0  0  0  0  0  0  0  0  0  0
   -3.8604   -2.3511   14.7445 N   0  0  0  0  0  0  0  0  0  0  0  0
   -4.6320   -2.3959   13.4920 C   0  0  0  0  0  0  0  0  0  0  0  0
   -5.3661   -3.7377   13.3163 C   0  0  0  0  0  0  0  0  0  0  0  0
   -2.5090   -2.1078   14.8185 C   0  0  0  0  0  0  0  0  0  0  0  0
   -1.9132   -1.0937   14.0521 C   0  0  0  0  0  0  0  0  0  0  0  0
   -0.5452   -0.8202   14.1949 C   0  0  0  0  0  0  0  0  0  0  0  0
    0.2267   -1.5891   15.0857 C   0  0  0  0  0  0  0  0  0  0  0  0
    1.6093   -1.3706   15.3172 N   0  0  0  0  0  0  0  0  0  0  0  0
    2.5356   -0.4465   14.7610 C   0  0  0  0  0  0  0  0  0  0  0  0
    2.1744    0.3801   13.7331 N   0  0  0  0  0  0  0  0  0  0  0  0
    3.1091    1.2393   13.2182 C   0  0  0  0  0  0  0  0  0  0  0  0
    4.4162    1.2819   13.6993 C   0  0  0  0  0  0  0  0  0  0  0  0
    4.7443    0.4889   14.7568 N   0  0  0  0  0  0  0  0  0  0  0  0
    5.8980    0.3793   15.4854 C   0  0  0  0  0  0  0  0  0  0  0  0
    5.5914   -0.5292   16.5255 C   0  0  0  0  0  0  0  0  0  0  0  0
    4.3788   -1.0451   16.3697 N   0  0  0  0  0  0  0  0  0  0  0  0
    3.8374   -0.3956   15.3255 C   0  0  0  0  0  0  0  0  0  0  0  0
    2.6339    2.1607   12.1207 C   0  0  0  0  0  0  0  0  0  0  0  0
    3.5443    2.6413   11.1620 C   0  0  0  0  0  0  0  0  0  0  0  0
    3.1470    3.4630   10.1086 C   0  0  0  0  0  0  0  0  0  0  0  0
    1.8016    3.8175   10.0163 C   0  0  0  0  0  0  0  0  0  0  0  0
    0.9929    4.5961    9.1183 C   0  0  0  0  0  0  0  0  0  0  0  0
   -0.2479    4.6060    9.5144 N   0  0  0  0  0  0  0  0  0  0  0  0
   -0.3355    3.8922   10.6289 N   0  0  0  0  0  0  0  0  0  0  0  0
    0.8848    3.3596   10.9956 C   0  0  0  0  0  0  0  0  0  0  0  0
    1.2708    2.5377   12.0624 C   0  0  0  0  0  0  0  0  0  0  0  0
   -0.3834   -2.6137   15.8106 C   0  0  0  0  0  0  0  0  0  0  0  0
   -1.7318   -2.8604   15.6854 C   0  0  0  0  0  0  0  0  0  0  0  0
   -6.0221   -6.2484   14.2766 H   0  0  0  0  0  0  0  0  0  0  0  0
   -7.4507   -5.7501   15.2447 H   0  0  0  0  0  0  0  0  0  0  0  0
   -7.4599   -5.5468   13.4600 H   0  0  0  0  0  0  0  0  0  0  0  0
   -6.9333   -2.3100   14.7300 H   0  0  0  0  0  0  0  0  0  0  0  0
   -6.0513   -4.1676   16.6682 H   0  0  0  0  0  0  0  0  0  0  0  0
   -4.6463   -4.8436   15.7763 H   0  0  0  0  0  0  0  0  0  0  0  0
   -5.4219   -1.9147   16.0780 H   0  0  0  0  0  0  0  0  0  0  0  0
   -4.0063   -2.7524   16.7999 H   0  0  0  0  0  0  0  0  0  0  0  0
   -5.3737   -1.5837   13.5023 H   0  0  0  0  0  0  0  0  0  0  0  0
   -3.9441   -2.2536   12.6455 H   0  0  0  0  0  0  0  0  0  0  0  0
   -4.6149   -4.5273   13.1672 H   0  0  0  0  0  0  0  0  0  0  0  0
   -6.0071   -3.6685   12.4250 H   0  0  0  0  0  0  0  0  0  0  0  0
   -2.5080   -0.5246   13.3530 H   0  0  0  0  0  0  0  0  0  0  0  0
   -0.0872   -0.0251   13.6253 H   0  0  0  0  0  0  0  0  0  0  0  0
    2.0076   -1.9822   16.0008 H   0  0  0  0  0  0  0  0  0  0  0  0
    5.1518    1.9286   13.2442 H   0  0  0  0  0  0  0  0  0  0  0  0
    6.8387    0.8784   15.3052 H   0  0  0  0  0  0  0  0  0  0  0  0
    6.2576   -0.7714   17.3403 H   0  0  0  0  0  0  0  0  0  0  0  0
    4.5849    2.3646   11.2449 H   0  0  0  0  0  0  0  0  0  0  0  0
    3.8635    3.8164    9.3818 H   0  0  0  0  0  0  0  0  0  0  0  0
    1.3624    5.1019    8.2385 H   0  0  0  0  0  0  0  0  0  0  0  0
   -1.0050    5.0720    9.0566 H   0  0  0  0  0  0  0  0  0  0  0  0
    0.5610    2.2069   12.8061 H   0  0  0  0  0  0  0  0  0  0  0  0
    0.2099   -3.2208   16.4783 H   0  0  0  0  0  0  0  0  0  0  0  0
   -2.1883   -3.6472   16.2676 H   0  0  0  0  0  0  0  0  0  0  0  0
  1  2  1  0  0  0  0
  2  3  1  0  0  0  0
  2  4  1  0  0  0  0
  2  8  1  0  0  0  0
  4  5  1  0  0  0  0
  5  6  1  0  0  0  0
  6  7  1  0  0  0  0
  6  9  1  0  0  0  0
  7  8  1  0  0  0  0
  9 10  2  0  0  0  0
  9 33  1  0  0  0  0
 10 11  1  0  0  0  0
 11 12  2  0  0  0  0
 12 13  1  0  0  0  0
 12 32  1  0  0  0  0
 13 14  1  0  0  0  0
 14 15  2  0  0  0  0
 14 22  1  0  0  0  0
 15 16  1  0  0  0  0
 16 17  2  0  0  0  0
 16 23  1  0  0  0  0
 17 18  1  0  0  0  0
 18 19  1  0  0  0  0
 18 22  1  0  0  0  0
 19 20  2  0  0  0  0
 20 21  1  0  0  0  0
 21 22  2  0  0  0  0
 23 24  1  0  0  0  0
 23 31  2  0  0  0  0
 24 25  2  0  0  0  0
 25 26  1  0  0  0  0
 26 27  2  0  0  0  0
 26 30  1  0  0  0  0
 27 28  1  0  0  0  0
 28 29  1  0  0  0  0
 29 30  2  0  0  0  0
 30 31  1  0  0  0  0
 32 33  2  0  0  0  0
  1 34  1  0  0  0  0
  1 35  1  0  0  0  0
  1 36  1  0  0  0  0
  3 37  1  0  0  0  0
  4 38  1  0  0  0  0
  4 39  1  0  0  0  0
  5 40  1  0  0  0  0
  5 41  1  0  0  0  0
  7 42  1  0  0  0  0
  7 43  1  0  0  0  0
  8 44  1  0  0  0  0
  8 45  1  0  0  0  0
 10 46  1  0  0  0  0
 11 47  1  0  0  0  0
 13 48  1  0  0  0  0
 17 49  1  0  0  0  0
 19 50  1  0  0  0  0
 20 51  1  0  0  0  0
 24 52  1  0  0  0  0
 25 53  1  0  0  0  0
 27 54  1  0  0  0  0
 28 55  1  0  0  0  0
 31 56  1  0  0  0  0
 32 57  1  0  0  0  0
 33 58  1  0  0  0  0
M  END
> <IC50[nM]>
1.4

$$$$
CHEMBL3265031
  -OEChem-05192314333D
 Structure written by MMmdl.
 58 63  0     0  0  0  0  0  0999 V2000
   -6.8350   -5.5126   14.3646 C   0  0  0  0  0  0  0  0  0  0  0  0
   -6.2469   -4.1256   14.5196 C   0  0  0  0  0  0  0  0  0  0  0  0
   -7.2986   -3.1815   14.6326 O   0  0  0  0  0  0  0  0  0  0  0  0
   -5.3943   -4.0373   15.7957 C   0  0  0  0  0  0  0  0  0  0  0  0
   -4.6708   -2.7036   15.9246 C   0  0  0  0  0  0  0  0  0  0  0  0
   -3.8604   -2.3511   14.7445 N   0  0  0  0  0  0  0  0  0  0  0  0
   -4.6320   -2.3959   13.4920 C   0  0  0  0  0  0  0  0  0  0  0  0
   -5.3661   -3.7377   13.3163 C   0  0  0  0  0  0  0  0  0  0  0  0
   -2.5090   -2.1078   14.8185 C   0  0  0  0  0  0  0  0  0  0  0  0
   -1.9132   -1.0937   14.0521 C   0  0  0  0  0  0  0  0  0  0  0  0
   -0.5452   -0.8202   14.1949 C   0  0  0  0  0  0  0  0  0  0  0  0
    0.2267   -1.5891   15.0857 C   0  0  0  0  0  0  0  0  0  0  0  0
    1.6093   -1.3706   15.3172 N   0  0  0  0  0  0  0  0  0  0  0  0
    2.5356   -0.4465   14.7610 C   0  0  0  0  0  0  0  0  0  0  0  0
    2.1744    0.3801   13.7331 N   0  0  0  0  0  0  0  0  0  0  0  0
    3.1091    1.2393   13.2182 C   0  0  0  0  0  0  0  0  0  0  0  0
    4.4162    1.2819   13.6993 C   0  0  0  0  0  0  0  0  0  0  0  0
    4.7443    0.4889   14.7568 N   0  0  0  0  0  0  0  0  0  0  0  0
    5.8980    0.3793   15.4854 C   0  0  0  0  0  0  0  0  0  0  0  0
    5.5914   -0.5292   16.5255 C   0  0  0  0  0  0  0  0  0  0  0  0
    4.3788   -1.0451   16.3697 N   0  0  0  0  0  0  0  0  0  0  0  0
    3.8374   -0.3956   15.3255 C   0  0  0  0  0  0  0  0  0  0  0  0
    2.6339    2.1607   12.1207 C   0  0  0  0  0  0  0  0  0  0  0  0
    3.5443    2.6413   11.1620 C   0  0  0  0  0  0  0  0  0  0  0  0
    3.1470    3.4630   10.1086 C   0  0  0  0  0  0  0  0  0  0  0  0
    1.8016    3.8175   10.0163 C   0  0  0  0  0  0  0  0  0  0  0  0
    0.9929    4.5961    9.1183 C   0  0  0  0  0  0  0  0  0  0  0  0
   -0.2479    4.6060    9.5144 N   0  0  0  0  0  0  0  0  0  0  0  0
   -0.3355    3.8922   10.6289 N   0  0  0  0  0  0  0  0  0  0  0  0
    0.8848    3.3596   10.9956 C   0  0  0  0  0  0  0  0  0  0  0  0
    1.2708    2.5377   12.0624 C   0  0  0  0  0  0  0  0  0  0  0  0
   -0.3834   -2.6137   15.8106 C   0  0  0  0  0  0  0  0  0  0  0  0
   -1.7318   -2.8604   15.6854 C   0  0  0  0  0  0  0  0  0  0  0  0
   -6.0221   -6.2484   14.2766 H   0  0  0  0  0  0  0  0  0  0  0  0
   -7.4507   -5.7501   15.2447 H   0  0  0  0  0  0  0  0  0  0  0  0
   -7.4599   -5.5468   13.4600 H   0  0  0  0  0  0  0  0  0  0  0  0
   -6.9333   -2.3100   14.7300 H   0  0  0  0  0  0  0  0  0  0  0  0
   -6.0513   -4.1676   16.6682 H   0  0  0  0  0  0  0  0  0  0  0  0
   -4.6463   -4.8436   15.7763 H   0  0  0  0  0  0  0  0  0  0  0  0
   -5.4219   -1.9147   16.0780 H   0  0  0  0  0  0  0  0  0  0  0  0
   -4.0063   -2.7524   16.7999 H   0  0  0  0  0  0  0  0  0  0  0  0
   -5.3737   -1.5837   13.5023 H   0  0  0  0  0  0  0  0  0  0  0  0
   -3.9441   -2.2536   12.6455 H   0  0  0  0  0  0  0  0  0  0  0  0
   -4.6149   -4.5273   13.1672 H   0  0  0  0  0  0  0  0  0  0  0  0
   -6.0071   -3.6685   12.4250 H   0  0  0  0  0  0  0  0  0  0  0  0
   -2.5080   -0.5246   13.3530 H   0  0  0  0  0  0  0  0  0  0  0  0
   -0.0872   -0.0251   13.6253 H   0  0  0  0  0  0  0  0  0  0  0  0
    1.2452    0.3578   13.3641 H   0  0  0  0  0  0  0  0  0  0  0  0
    5.1518    1.9286   13.2442 H   0  0  0  0  0  0  0  0  0  0  0  0
    6.8387    0.8784   15.3052 H   0  0  0  0  0  0  0  0  0  0  0  0
    6.2576   -0.7714   17.3403 H   0  0  0  0  0  0  0  0  0  0  0  0
    4.5849    2.3646   11.2449 H   0  0  0  0  0  0  0  0  0  0  0  0
    3.8635    3.8164    9.3818 H   0  0  0  0  0  0  0  0  0  0  0  0
    1.3624    5.1019    8.2385 H   0  0  0  0  0  0  0  0  0  0  0  0
   -1.1831    3.7561   11.1418 H   0  0  0  0  0  0  0  0  0  0  0  0
    0.5610    2.2069   12.8061 H   0  0  0  0  0  0  0  0  0  0  0  0
    0.2099   -3.2208   16.4783 H   0  0  0  0  0  0  0  0  0  0  0  0
   -2.1883   -3.6472   16.2676 H   0  0  0  0  0  0  0  0  0  0  0  0
  1  2  1  0  0  0  0
  2  3  1  0  0  0  0
  2  4  1  0  0  0  0
  2  8  1  0  0  0  0
  4  5  1  0  0  0  0
  5  6  1  0  0  0  0
  6  7  1  0  0  0  0
  6  9  1  0  0  0  0
  7  8  1  0  0  0  0
  9 10  2  0  0  0  0
  9 33  1  0  0  0  0
 10 11  1  0  0  0  0
 11 12  2  0  0  0  0
 12 13  1  0  0  0  0
 12 32  1  0  0  0  0
 13 14  2  0  0  0  0
 14 15  1  0  0  0  0
 14 22  1  0  0  0  0
 15 16  1  0  0  0  0
 16 17  2  0  0  0  0
 16 23  1  0  0  0  0
 17 18  1  0  0  0  0
 18 19  1  0  0  0  0
 18 22  1  0  0  0  0
 19 20  2  0  0  0  0
 20 21  1  0  0  0  0
 21 22  2  0  0  0  0
 23 24  2  0  0  0  0
 23 31  1  0  0  0  0
 24 25  1  0  0  0  0
 25 26  2  0  0  0  0
 26 27  1  0  0  0  0
 26 30  1  0  0  0  0
 27 28  2  0  0  0  0
 28 29  1  0  0  0  0
 29 30  1  0  0  0  0
 30 31  2  0  0  0  0
 32 33  2  0  0  0  0
  1 34  1  0  0  0  0
  1 35  1  0  0  0  0
  1 36  1  0  0  0  0
  3 37  1  0  0  0  0
  4 38  1  0  0  0  0
  4 39  1  0  0  0  0
  5 40  1  0  0  0  0
  5 41  1  0  0  0  0
  7 42  1  0  0  0  0
  7 43  1  0  0  0  0
  8 44  1  0  0  0  0
  8 45  1  0  0  0  0
 10 46  1  0  0  0  0
 11 47  1  0  0  0  0
 15 48  1  0  0  0  0
 17 49  1  0  0  0  0
 19 50  1  0  0  0  0
 20 51  1  0  0  0  0
 24 52  1  0  0  0  0
 25 53  1  0  0  0  0
 27 54  1  0  0  0  0
 29 55  1  0  0  0  0
 31 56  1  0  0  0  0
 32 57  1  0  0  0  0
 33 58  1  0  0  0  0
M  END
> <IC50[nM]>
1.4

$$$$
CHEMBL3265031
  -OEChem-05192314333D
 Structure written by MMmdl.
 58 63  0     0  0  0  0  0  0999 V2000
   -6.8350   -5.5126   14.3646 C   0  0  0  0  0  0  0  0  0  0  0  0
   -6.2469   -4.1256   14.5196 C   0  0  0  0  0  0  0  0  0  0  0  0
   -7.2986   -3.1815   14.6326 O   0  0  0  0  0  0  0  0  0  0  0  0
   -5.3943   -4.0373   15.7957 C   0  0  0  0  0  0  0  0  0  0  0  0
   -4.6708   -2.7036   15.9246 C   0  0  0  0  0  0  0  0  0  0  0  0
   -3.8604   -2.3511   14.7445 N   0  0  0  0  0  0  0  0  0  0  0  0
   -4.6320   -2.3959   13.4920 C   0  0  0  0  0  0  0  0  0  0  0  0
   -5.3661   -3.7377   13.3163 C   0  0  0  0  0  0  0  0  0  0  0  0
   -2.5090   -2.1078   14.8185 C   0  0  0  0  0  0  0  0  0  0  0  0
   -1.9132   -1.0937   14.0521 C   0  0  0  0  0  0  0  0  0  0  0  0
   -0.5452   -0.8202   14.1949 C   0  0  0  0  0  0  0  0  0  0  0  0
    0.2267   -1.5891   15.0857 C   0  0  0  0  0  0  0  0  0  0  0  0
    1.6093   -1.3706   15.3172 N   0  0  0  0  0  0  0  0  0  0  0  0
    2.5356   -0.4465   14.7610 C   0  0  0  0  0  0  0  0  0  0  0  0
    2.1744    0.3801   13.7331 N   0  0  0  0  0  0  0  0  0  0  0  0
    3.1091    1.2393   13.2182 C   0  0  0  0  0  0  0  0  0  0  0  0
    4.4162    1.2819   13.6993 C   0  0  0  0  0  0  0  0  0  0  0  0
    4.7443    0.4889   14.7568 N   0  0  0  0  0  0  0  0  0  0  0  0
    5.8980    0.3793   15.4854 C   0  0  0  0  0  0  0  0  0  0  0  0
    5.5914   -0.5292   16.5255 C   0  0  0  0  0  0  0  0  0  0  0  0
    4.3788   -1.0451   16.3697 N   0  0  0  0  0  0  0  0  0  0  0  0
    3.8374   -0.3956   15.3255 C   0  0  0  0  0  0  0  0  0  0  0  0
    2.6339    2.1607   12.1207 C   0  0  0  0  0  0  0  0  0  0  0  0
    3.5443    2.6413   11.1620 C   0  0  0  0  0  0  0  0  0  0  0  0
    3.1470    3.4630   10.1086 C   0  0  0  0  0  0  0  0  0  0  0  0
    1.8016    3.8175   10.0163 C   0  0  0  0  0  0  0  0  0  0  0  0
    0.9929    4.5961    9.1183 C   0  0  0  0  0  0  0  0  0  0  0  0
   -0.2479    4.6060    9.5144 N   0  0  0  0  0  0  0  0  0  0  0  0
   -0.3355    3.8922   10.6289 N   0  0  0  0  0  0  0  0  0  0  0  0
    0.8848    3.3596   10.9956 C   0  0  0  0  0  0  0  0  0  0  0  0
    1.2708    2.5377   12.0624 C   0  0  0  0  0  0  0  0  0  0  0  0
   -0.3834   -2.6137   15.8106 C   0  0  0  0  0  0  0  0  0  0  0  0
   -1.7318   -2.8604   15.6854 C   0  0  0  0  0  0  0  0  0  0  0  0
   -6.0221   -6.2484   14.2766 H   0  0  0  0  0  0  0  0  0  0  0  0
   -7.4507   -5.7501   15.2447 H   0  0  0  0  0  0  0  0  0  0  0  0
   -7.4599   -5.5468   13.4600 H   0  0  0  0  0  0  0  0  0  0  0  0
   -6.9333   -2.3100   14.7300 H   0  0  0  0  0  0  0  0  0  0  0  0
   -6.0513   -4.1676   16.6682 H   0  0  0  0  0  0  0  0  0  0  0  0
   -4.6463   -4.8436   15.7763 H   0  0  0  0  0  0  0  0  0  0  0  0
   -5.4219   -1.9147   16.0780 H   0  0  0  0  0  0  0  0  0  0  0  0
   -4.0063   -2.7524   16.7999 H   0  0  0  0  0  0  0  0  0  0  0  0
   -5.3737   -1.5837   13.5023 H   0  0  0  0  0  0  0  0  0  0  0  0
   -3.9441   -2.2536   12.6455 H   0  0  0  0  0  0  0  0  0  0  0  0
   -4.6149   -4.5273   13.1672 H   0  0  0  0  0  0  0  0  0  0  0  0
   -6.0071   -3.6685   12.4250 H   0  0  0  0  0  0  0  0  0  0  0  0
   -2.5080   -0.5246   13.3530 H   0  0  0  0  0  0  0  0  0  0  0  0
   -0.0872   -0.0251   13.6253 H   0  0  0  0  0  0  0  0  0  0  0  0
    1.2452    0.3578   13.3641 H   0  0  0  0  0  0  0  0  0  0  0  0
    5.1518    1.9286   13.2442 H   0  0  0  0  0  0  0  0  0  0  0  0
    6.8387    0.8784   15.3052 H   0  0  0  0  0  0  0  0  0  0  0  0
    6.2576   -0.7714   17.3403 H   0  0  0  0  0  0  0  0  0  0  0  0
    4.5849    2.3646   11.2449 H   0  0  0  0  0  0  0  0  0  0  0  0
    3.8635    3.8164    9.3818 H   0  0  0  0  0  0  0  0  0  0  0  0
    1.3624    5.1019    8.2385 H   0  0  0  0  0  0  0  0  0  0  0  0
   -1.0050    5.0720    9.0566 H   0  0  0  0  0  0  0  0  0  0  0  0
    0.5610    2.2069   12.8061 H   0  0  0  0  0  0  0  0  0  0  0  0
    0.2099   -3.2208   16.4783 H   0  0  0  0  0  0  0  0  0  0  0  0
   -2.1883   -3.6472   16.2676 H   0  0  0  0  0  0  0  0  0  0  0  0
  1  2  1  0  0  0  0
  2  3  1  0  0  0  0
  2  4  1  0  0  0  0
  2  8  1  0  0  0  0
  4  5  1  0  0  0  0
  5  6  1  0  0  0  0
  6  7  1  0  0  0  0
  6  9  1  0  0  0  0
  7  8  1  0  0  0  0
  9 10  2  0  0  0  0
  9 33  1  0  0  0  0
 10 11  1  0  0  0  0
 11 12  2  0  0  0  0
 12 13  1  0  0  0  0
 12 32  1  0  0  0  0
 13 14  2  0  0  0  0
 14 15  1  0  0  0  0
 14 22  1  0  0  0  0
 15 16  1  0  0  0  0
 16 17  2  0  0  0  0
 16 23  1  0  0  0  0
 17 18  1  0  0  0  0
 18 19  1  0  0  0  0
 18 22  1  0  0  0  0
 19 20  2  0  0  0  0
 20 21  1  0  0  0  0
 21 22  2  0  0  0  0
 23 24  1  0  0  0  0
 23 31  2  0  0  0  0
 24 25  2  0  0  0  0
 25 26  1  0  0  0  0
 26 27  2  0  0  0  0
 26 30  1  0  0  0  0
 27 28  1  0  0  0  0
 28 29  1  0  0  0  0
 29 30  2  0  0  0  0
 30 31  1  0  0  0  0
 32 33  2  0  0  0  0
  1 34  1  0  0  0  0
  1 35  1  0  0  0  0
  1 36  1  0  0  0  0
  3 37  1  0  0  0  0
  4 38  1  0  0  0  0
  4 39  1  0  0  0  0
  5 40  1  0  0  0  0
  5 41  1  0  0  0  0
  7 42  1  0  0  0  0
  7 43  1  0  0  0  0
  8 44  1  0  0  0  0
  8 45  1  0  0  0  0
 10 46  1  0  0  0  0
 11 47  1  0  0  0  0
 15 48  1  0  0  0  0
 17 49  1  0  0  0  0
 19 50  1  0  0  0  0
 20 51  1  0  0  0  0
 24 52  1  0  0  0  0
 25 53  1  0  0  0  0
 27 54  1  0  0  0  0
 28 55  1  0  0  0  0
 31 56  1  0  0  0  0
 32 57  1  0  0  0  0
 33 58  1  0  0  0  0
M  END
> <IC50[nM]>
1.4

$$$$
CHEMBL3265031
  -OEChem-05192314333D
 Structure written by MMmdl.
 58 63  0     0  0  0  0  0  0999 V2000
   -6.8350   -5.5126   14.3646 C   0  0  0  0  0  0  0  0  0  0  0  0
   -6.2469   -4.1256   14.5196 C   0  0  0  0  0  0  0  0  0  0  0  0
   -7.2986   -3.1815   14.6326 O   0  0  0  0  0  0  0  0  0  0  0  0
   -5.3943   -4.0373   15.7957 C   0  0  0  0  0  0  0  0  0  0  0  0
   -4.6708   -2.7036   15.9246 C   0  0  0  0  0  0  0  0  0  0  0  0
   -3.8604   -2.3511   14.7445 N   0  0  0  0  0  0  0  0  0  0  0  0
   -4.6320   -2.3959   13.4920 C   0  0  0  0  0  0  0  0  0  0  0  0
   -5.3661   -3.7377   13.3163 C   0  0  0  0  0  0  0  0  0  0  0  0
   -2.5090   -2.1078   14.8185 C   0  0  0  0  0  0  0  0  0  0  0  0
   -1.9132   -1.0937   14.0521 C   0  0  0  0  0  0  0  0  0  0  0  0
   -0.5452   -0.8202   14.1949 C   0  0  0  0  0  0  0  0  0  0  0  0
    0.2267   -1.5891   15.0857 C   0  0  0  0  0  0  0  0  0  0  0  0
    1.6093   -1.3706   15.3172 N   0  0  0  0  0  0  0  0  0  0  0  0
    2.5356   -0.4465   14.7610 C   0  0  0  0  0  0  0  0  0  0  0  0
    2.1744    0.3801   13.7331 N   0  0  0  0  0  0  0  0  0  0  0  0
    3.1091    1.2393   13.2182 C   0  0  0  0  0  0  0  0  0  0  0  0
    4.4162    1.2819   13.6993 C   0  0  0  0  0  0  0  0  0  0  0  0
    4.7443    0.4889   14.7568 N   0  0  0  0  0  0  0  0  0  0  0  0
    5.8980    0.3793   15.4854 C   0  0  0  0  0  0  0  0  0  0  0  0
    5.5914   -0.5292   16.5255 C   0  0  0  0  0  0  0  0  0  0  0  0
    4.3788   -1.0451   16.3697 N   0  0  0  0  0  0  0  0  0  0  0  0
    3.8374   -0.3956   15.3255 C   0  0  0  0  0  0  0  0  0  0  0  0
    2.6339    2.1607   12.1207 C   0  0  0  0  0  0  0  0  0  0  0  0
    3.5443    2.6413   11.1620 C   0  0  0  0  0  0  0  0  0  0  0  0
    3.1470    3.4630   10.1086 C   0  0  0  0  0  0  0  0  0  0  0  0
    1.8016    3.8175   10.0163 C   0  0  0  0  0  0  0  0  0  0  0  0
    0.9929    4.5961    9.1183 C   0  0  0  0  0  0  0  0  0  0  0  0
   -0.2479    4.6060    9.5144 N   0  0  0  0  0  0  0  0  0  0  0  0
   -0.3355    3.8922   10.6289 N   0  0  0  0  0  0  0  0  0  0  0  0
    0.8848    3.3596   10.9956 C   0  0  0  0  0  0  0  0  0  0  0  0
    1.2708    2.5377   12.0624 C   0  0  0  0  0  0  0  0  0  0  0  0
   -0.3834   -2.6137   15.8106 C   0  0  0  0  0  0  0  0  0  0  0  0
   -1.7318   -2.8604   15.6854 C   0  0  0  0  0  0  0  0  0  0  0  0
   -6.0221   -6.2484   14.2766 H   0  0  0  0  0  0  0  0  0  0  0  0
   -7.4507   -5.7501   15.2447 H   0  0  0  0  0  0  0  0  0  0  0  0
   -7.4599   -5.5468   13.4600 H   0  0  0  0  0  0  0  0  0  0  0  0
   -6.9333   -2.3100   14.7300 H   0  0  0  0  0  0  0  0  0  0  0  0
   -6.0513   -4.1676   16.6682 H   0  0  0  0  0  0  0  0  0  0  0  0
   -4.6463   -4.8436   15.7763 H   0  0  0  0  0  0  0  0  0  0  0  0
   -5.4219   -1.9147   16.0780 H   0  0  0  0  0  0  0  0  0  0  0  0
   -4.0063   -2.7524   16.7999 H   0  0  0  0  0  0  0  0  0  0  0  0
   -5.3737   -1.5837   13.5023 H   0  0  0  0  0  0  0  0  0  0  0  0
   -3.9441   -2.2536   12.6455 H   0  0  0  0  0  0  0  0  0  0  0  0
   -4.6149   -4.5273   13.1672 H   0  0  0  0  0  0  0  0  0  0  0  0
   -6.0071   -3.6685   12.4250 H   0  0  0  0  0  0  0  0  0  0  0  0
   -2.5080   -0.5246   13.3530 H   0  0  0  0  0  0  0  0  0  0  0  0
   -0.0872   -0.0251   13.6253 H   0  0  0  0  0  0  0  0  0  0  0  0
    2.0076   -1.9822   16.0008 H   0  0  0  0  0  0  0  0  0  0  0  0
    5.1518    1.9286   13.2442 H   0  0  0  0  0  0  0  0  0  0  0  0
    6.8387    0.8784   15.3052 H   0  0  0  0  0  0  0  0  0  0  0  0
    6.2576   -0.7714   17.3403 H   0  0  0  0  0  0  0  0  0  0  0  0
    4.5849    2.3646   11.2449 H   0  0  0  0  0  0  0  0  0  0  0  0
    3.8635    3.8164    9.3818 H   0  0  0  0  0  0  0  0  0  0  0  0
    1.3726    5.6281    9.0915 H   0  0  0  0  0  0  0  0  0  0  0  0
    1.0477    4.1590    8.1104 H   0  0  0  0  0  0  0  0  0  0  0  0
    0.5610    2.2069   12.8061 H   0  0  0  0  0  0  0  0  0  0  0  0
    0.2099   -3.2208   16.4783 H   0  0  0  0  0  0  0  0  0  0  0  0
   -2.1883   -3.6472   16.2676 H   0  0  0  0  0  0  0  0  0  0  0  0
  1  2  1  0  0  0  0
  2  3  1  0  0  0  0
  2  4  1  0  0  0  0
  2  8  1  0  0  0  0
  4  5  1  0  0  0  0
  5  6  1  0  0  0  0
  6  7  1  0  0  0  0
  6  9  1  0  0  0  0
  7  8  1  0  0  0  0
  9 10  2  0  0  0  0
  9 33  1  0  0  0  0
 10 11  1  0  0  0  0
 11 12  2  0  0  0  0
 12 13  1  0  0  0  0
 12 32  1  0  0  0  0
 13 14  1  0  0  0  0
 14 15  2  0  0  0  0
 14 22  1  0  0  0  0
 15 16  1  0  0  0  0
 16 17  2  0  0  0  0
 16 23  1  0  0  0  0
 17 18  1  0  0  0  0
 18 19  1  0  0  0  0
 18 22  1  0  0  0  0
 19 20  2  0  0  0  0
 20 21  1  0  0  0  0
 21 22  2  0  0  0  0
 23 24  2  0  0  0  0
 23 31  1  0  0  0  0
 24 25  1  0  0  0  0
 25 26  2  0  0  0  0
 26 27  1  0  0  0  0
 26 30  1  0  0  0  0
 27 28  1  0  0  0  0
 28 29  2  0  0  0  0
 29 30  1  0  0  0  0
 30 31  2  0  0  0  0
 32 33  2  0  0  0  0
  1 34  1  0  0  0  0
  1 35  1  0  0  0  0
  1 36  1  0  0  0  0
  3 37  1  0  0  0  0
  4 38  1  0  0  0  0
  4 39  1  0  0  0  0
  5 40  1  0  0  0  0
  5 41  1  0  0  0  0
  7 42  1  0  0  0  0
  7 43  1  0  0  0  0
  8 44  1  0  0  0  0
  8 45  1  0  0  0  0
 10 46  1  0  0  0  0
 11 47  1  0  0  0  0
 13 48  1  0  0  0  0
 17 49  1  0  0  0  0
 19 50  1  0  0  0  0
 20 51  1  0  0  0  0
 24 52  1  0  0  0  0
 25 53  1  0  0  0  0
 27 54  1  0  0  0  0
 27 55  1  0  0  0  0
 31 56  1  0  0  0  0
 32 57  1  0  0  0  0
 33 58  1  0  0  0  0
M  END
> <IC50[nM]>
1.4

$$$$
CHEMBL3265031
  -OEChem-05192314333D
 Structure written by MMmdl.
 58 63  0     0  0  0  0  0  0999 V2000
   -6.8350   -5.5126   14.3646 C   0  0  0  0  0  0  0  0  0  0  0  0
   -6.2469   -4.1256   14.5196 C   0  0  0  0  0  0  0  0  0  0  0  0
   -7.2986   -3.1815   14.6326 O   0  0  0  0  0  0  0  0  0  0  0  0
   -5.3943   -4.0373   15.7957 C   0  0  0  0  0  0  0  0  0  0  0  0
   -4.6708   -2.7036   15.9246 C   0  0  0  0  0  0  0  0  0  0  0  0
   -3.8604   -2.3511   14.7445 N   0  0  0  0  0  0  0  0  0  0  0  0
   -4.6320   -2.3959   13.4920 C   0  0  0  0  0  0  0  0  0  0  0  0
   -5.3661   -3.7377   13.3163 C   0  0  0  0  0  0  0  0  0  0  0  0
   -2.5090   -2.1078   14.8185 C   0  0  0  0  0  0  0  0  0  0  0  0
   -1.9132   -1.0937   14.0521 C   0  0  0  0  0  0  0  0  0  0  0  0
   -0.5452   -0.8202   14.1949 C   0  0  0  0  0  0  0  0  0  0  0  0
    0.2267   -1.5891   15.0857 C   0  0  0  0  0  0  0  0  0  0  0  0
    1.6093   -1.3706   15.3172 N   0  0  0  0  0  0  0  0  0  0  0  0
    2.5356   -0.4465   14.7610 C   0  0  0  0  0  0  0  0  0  0  0  0
    2.1744    0.3801   13.7331 N   0  0  0  0  0  0  0  0  0  0  0  0
    3.1091    1.2393   13.2182 C   0  0  0  0  0  0  0  0  0  0  0  0
    4.4162    1.2819   13.6993 C   0  0  0  0  0  0  0  0  0  0  0  0
    4.7443    0.4889   14.7568 N   0  0  0  0  0  0  0  0  0  0  0  0
    5.8980    0.3793   15.4854 C   0  0  0  0  0  0  0  0  0  0  0  0
    5.5914   -0.5292   16.5255 C   0  0  0  0  0  0  0  0  0  0  0  0
    4.3788   -1.0451   16.3697 N   0  0  0  0  0  0  0  0  0  0  0  0
    3.8374   -0.3956   15.3255 C   0  0  0  0  0  0  0  0  0  0  0  0
    2.6339    2.1607   12.1207 C   0  0  0  0  0  0  0  0  0  0  0  0
    3.5443    2.6413   11.1620 C   0  0  0  0  0  0  0  0  0  0  0  0
    3.1470    3.4630   10.1086 C   0  0  0  0  0  0  0  0  0  0  0  0
    1.8016    3.8175   10.0163 C   0  0  0  0  0  0  0  0  0  0  0  0
    0.9929    4.5961    9.1183 C   0  0  0  0  0  0  0  0  0  0  0  0
   -0.2479    4.6060    9.5144 N   0  0  0  0  0  0  0  0  0  0  0  0
   -0.3355    3.8922   10.6289 N   0  0  0  0  0  0  0  0  0  0  0  0
    0.8848    3.3596   10.9956 C   0  0  0  0  0  0  0  0  0  0  0  0
    1.2708    2.5377   12.0624 C   0  0  0  0  0  0  0  0  0  0  0  0
   -0.3834   -2.6137   15.8106 C   0  0  0  0  0  0  0  0  0  0  0  0
   -1.7318   -2.8604   15.6854 C   0  0  0  0  0  0  0  0  0  0  0  0
   -6.0221   -6.2484   14.2766 H   0  0  0  0  0  0  0  0  0  0  0  0
   -7.4507   -5.7501   15.2447 H   0  0  0  0  0  0  0  0  0  0  0  0
   -7.4599   -5.5468   13.4600 H   0  0  0  0  0  0  0  0  0  0  0  0
   -6.9333   -2.3100   14.7300 H   0  0  0  0  0  0  0  0  0  0  0  0
   -6.0513   -4.1676   16.6682 H   0  0  0  0  0  0  0  0  0  0  0  0
   -4.6463   -4.8436   15.7763 H   0  0  0  0  0  0  0  0  0  0  0  0
   -5.4219   -1.9147   16.0780 H   0  0  0  0  0  0  0  0  0  0  0  0
   -4.0063   -2.7524   16.7999 H   0  0  0  0  0  0  0  0  0  0  0  0
   -5.3737   -1.5837   13.5023 H   0  0  0  0  0  0  0  0  0  0  0  0
   -3.9441   -2.2536   12.6455 H   0  0  0  0  0  0  0  0  0  0  0  0
   -4.6149   -4.5273   13.1672 H   0  0  0  0  0  0  0  0  0  0  0  0
   -6.0071   -3.6685   12.4250 H   0  0  0  0  0  0  0  0  0  0  0  0
   -2.5080   -0.5246   13.3530 H   0  0  0  0  0  0  0  0  0  0  0  0
   -0.0872   -0.0251   13.6253 H   0  0  0  0  0  0  0  0  0  0  0  0
    1.2452    0.3578   13.3641 H   0  0  0  0  0  0  0  0  0  0  0  0
    5.1518    1.9286   13.2442 H   0  0  0  0  0  0  0  0  0  0  0  0
    6.8387    0.8784   15.3052 H   0  0  0  0  0  0  0  0  0  0  0  0
    6.2576   -0.7714   17.3403 H   0  0  0  0  0  0  0  0  0  0  0  0
    4.5849    2.3646   11.2449 H   0  0  0  0  0  0  0  0  0  0  0  0
    3.8635    3.8164    9.3818 H   0  0  0  0  0  0  0  0  0  0  0  0
    1.3726    5.6281    9.0915 H   0  0  0  0  0  0  0  0  0  0  0  0
    1.0477    4.1590    8.1104 H   0  0  0  0  0  0  0  0  0  0  0  0
    0.5610    2.2069   12.8061 H   0  0  0  0  0  0  0  0  0  0  0  0
    0.2099   -3.2208   16.4783 H   0  0  0  0  0  0  0  0  0  0  0  0
   -2.1883   -3.6472   16.2676 H   0  0  0  0  0  0  0  0  0  0  0  0
  1  2  1  0  0  0  0
  2  3  1  0  0  0  0
  2  4  1  0  0  0  0
  2  8  1  0  0  0  0
  4  5  1  0  0  0  0
  5  6  1  0  0  0  0
  6  7  1  0  0  0  0
  6  9  1  0  0  0  0
  7  8  1  0  0  0  0
  9 10  2  0  0  0  0
  9 33  1  0  0  0  0
 10 11  1  0  0  0  0
 11 12  2  0  0  0  0
 12 13  1  0  0  0  0
 12 32  1  0  0  0  0
 13 14  2  0  0  0  0
 14 15  1  0  0  0  0
 14 22  1  0  0  0  0
 15 16  1  0  0  0  0
 16 17  2  0  0  0  0
 16 23  1  0  0  0  0
 17 18  1  0  0  0  0
 18 19  1  0  0  0  0
 18 22  1  0  0  0  0
 19 20  2  0  0  0  0
 20 21  1  0  0  0  0
 21 22  2  0  0  0  0
 23 24  2  0  0  0  0
 23 31  1  0  0  0  0
 24 25  1  0  0  0  0
 25 26  2  0  0  0  0
 26 27  1  0  0  0  0
 26 30  1  0  0  0  0
 27 28  1  0  0  0  0
 28 29  2  0  0  0  0
 29 30  1  0  0  0  0
 30 31  2  0  0  0  0
 32 33  2  0  0  0  0
  1 34  1  0  0  0  0
  1 35  1  0  0  0  0
  1 36  1  0  0  0  0
  3 37  1  0  0  0  0
  4 38  1  0  0  0  0
  4 39  1  0  0  0  0
  5 40  1  0  0  0  0
  5 41  1  0  0  0  0
  7 42  1  0  0  0  0
  7 43  1  0  0  0  0
  8 44  1  0  0  0  0
  8 45  1  0  0  0  0
 10 46  1  0  0  0  0
 11 47  1  0  0  0  0
 15 48  1  0  0  0  0
 17 49  1  0  0  0  0
 19 50  1  0  0  0  0
 20 51  1  0  0  0  0
 24 52  1  0  0  0  0
 25 53  1  0  0  0  0
 27 54  1  0  0  0  0
 27 55  1  0  0  0  0
 31 56  1  0  0  0  0
 32 57  1  0  0  0  0
 33 58  1  0  0  0  0
M  END
> <IC50[nM]>
1.4

$$$$
CHEMBL3265031
  -OEChem-05192314333D
 Structure written by MMmdl.
 58 63  0     0  0  0  0  0  0999 V2000
   -6.8350   -5.5126   14.3646 C   0  0  0  0  0  0  0  0  0  0  0  0
   -6.2469   -4.1256   14.5196 C   0  0  0  0  0  0  0  0  0  0  0  0
   -7.2986   -3.1815   14.6326 O   0  0  0  0  0  0  0  0  0  0  0  0
   -5.3943   -4.0373   15.7957 C   0  0  0  0  0  0  0  0  0  0  0  0
   -4.6708   -2.7036   15.9246 C   0  0  0  0  0  0  0  0  0  0  0  0
   -3.8604   -2.3511   14.7445 N   0  0  0  0  0  0  0  0  0  0  0  0
   -4.6320   -2.3959   13.4920 C   0  0  0  0  0  0  0  0  0  0  0  0
   -5.3661   -3.7377   13.3163 C   0  0  0  0  0  0  0  0  0  0  0  0
   -2.5090   -2.1078   14.8185 C   0  0  0  0  0  0  0  0  0  0  0  0
   -1.9132   -1.0937   14.0521 C   0  0  0  0  0  0  0  0  0  0  0  0
   -0.5452   -0.8202   14.1949 C   0  0  0  0  0  0  0  0  0  0  0  0
    0.2267   -1.5891   15.0857 C   0  0  0  0  0  0  0  0  0  0  0  0
    1.6093   -1.3706   15.3172 N   0  0  0  0  0  0  0  0  0  0  0  0
    2.5356   -0.4465   14.7610 C   0  0  0  0  0  0  0  0  0  0  0  0
    2.1744    0.3801   13.7331 N   0  0  0  0  0  0  0  0  0  0  0  0
    3.1091    1.2393   13.2182 C   0  0  0  0  0  0  0  0  0  0  0  0
    4.4162    1.2819   13.6993 C   0  0  0  0  0  0  0  0  0  0  0  0
    4.7443    0.4889   14.7568 N   0  0  0  0  0  0  0  0  0  0  0  0
    5.8980    0.3793   15.4854 C   0  0  0  0  0  0  0  0  0  0  0  0
    5.5914   -0.5292   16.5255 C   0  0  0  0  0  0  0  0  0  0  0  0
    4.3788   -1.0451   16.3697 N   0  0  0  0  0  0  0  0  0  0  0  0
    3.8374   -0.3956   15.3255 C   0  0  0  0  0  0  0  0  0  0  0  0
    2.6339    2.1607   12.1207 C   0  0  0  0  0  0  0  0  0  0  0  0
    3.5443    2.6413   11.1620 C   0  0  0  0  0  0  0  0  0  0  0  0
    3.1470    3.4630   10.1086 C   0  0  0  0  0  0  0  0  0  0  0  0
    1.8016    3.8175   10.0163 C   0  0  0  0  0  0  0  0  0  0  0  0
    0.9929    4.5961    9.1183 C   0  0  0  0  0  0  0  0  0  0  0  0
   -0.2479    4.6060    9.5144 N   0  0  0  0  0  0  0  0  0  0  0  0
   -0.3355    3.8922   10.6289 N   0  0  0  0  0  0  0  0  0  0  0  0
    0.8848    3.3596   10.9956 C   0  0  0  0  0  0  0  0  0  0  0  0
    1.2708    2.5377   12.0624 C   0  0  0  0  0  0  0  0  0  0  0  0
   -0.3834   -2.6137   15.8106 C   0  0  0  0  0  0  0  0  0  0  0  0
   -1.7318   -2.8604   15.6854 C   0  0  0  0  0  0  0  0  0  0  0  0
   -6.0221   -6.2484   14.2766 H   0  0  0  0  0  0  0  0  0  0  0  0
   -7.4507   -5.7501   15.2447 H   0  0  0  0  0  0  0  0  0  0  0  0
   -7.4599   -5.5468   13.4600 H   0  0  0  0  0  0  0  0  0  0  0  0
   -6.9333   -2.3100   14.7300 H   0  0  0  0  0  0  0  0  0  0  0  0
   -6.0513   -4.1676   16.6682 H   0  0  0  0  0  0  0  0  0  0  0  0
   -4.6463   -4.8436   15.7763 H   0  0  0  0  0  0  0  0  0  0  0  0
   -5.4219   -1.9147   16.0780 H   0  0  0  0  0  0  0  0  0  0  0  0
   -4.0063   -2.7524   16.7999 H   0  0  0  0  0  0  0  0  0  0  0  0
   -5.3737   -1.5837   13.5023 H   0  0  0  0  0  0  0  0  0  0  0  0
   -3.9441   -2.2536   12.6455 H   0  0  0  0  0  0  0  0  0  0  0  0
   -4.6149   -4.5273   13.1672 H   0  0  0  0  0  0  0  0  0  0  0  0
   -6.0071   -3.6685   12.4250 H   0  0  0  0  0  0  0  0  0  0  0  0
   -2.5080   -0.5246   13.3530 H   0  0  0  0  0  0  0  0  0  0  0  0
   -0.0872   -0.0251   13.6253 H   0  0  0  0  0  0  0  0  0  0  0  0
    5.0784    1.0032   12.8663 H   0  0  0  0  0  0  0  0  0  0  0  0
    4.6192    2.3212   13.9971 H   0  0  0  0  0  0  0  0  0  0  0  0
    6.8387    0.8784   15.3052 H   0  0  0  0  0  0  0  0  0  0  0  0
    6.2576   -0.7714   17.3403 H   0  0  0  0  0  0  0  0  0  0  0  0
    4.5849    2.3646   11.2449 H   0  0  0  0  0  0  0  0  0  0  0  0
    3.8635    3.8164    9.3818 H   0  0  0  0  0  0  0  0  0  0  0  0
    1.3624    5.1019    8.2385 H   0  0  0  0  0  0  0  0  0  0  0  0
   -1.1831    3.7561   11.1418 H   0  0  0  0  0  0  0  0  0  0  0  0
    0.5610    2.2069   12.8061 H   0  0  0  0  0  0  0  0  0  0  0  0
    0.2099   -3.2208   16.4783 H   0  0  0  0  0  0  0  0  0  0  0  0
   -2.1883   -3.6472   16.2676 H   0  0  0  0  0  0  0  0  0  0  0  0
  1  2  1  0  0  0  0
  2  3  1  0  0  0  0
  2  4  1  0  0  0  0
  2  8  1  0  0  0  0
  4  5  1  0  0  0  0
  5  6  1  0  0  0  0
  6  7  1  0  0  0  0
  6  9  1  0  0  0  0
  7  8  1  0  0  0  0
  9 10  2  0  0  0  0
  9 33  1  0  0  0  0
 10 11  1  0  0  0  0
 11 12  2  0  0  0  0
 12 13  1  0  0  0  0
 12 32  1  0  0  0  0
 13 14  2  0  0  0  0
 14 15  1  0  0  0  0
 14 22  1  0  0  0  0
 15 16  2  0  0  0  0
 16 17  1  0  0  0  0
 16 23  1  0  0  0  0
 17 18  1  0  0  0  0
 18 19  1  0  0  0  0
 18 22  1  0  0  0  0
 19 20  2  0  0  0  0
 20 21  1  0  0  0  0
 21 22  2  0  0  0  0
 23 24  2  0  0  0  0
 23 31  1  0  0  0  0
 24 25  1  0  0  0  0
 25 26  2  0  0  0  0
 26 27  1  0  0  0  0
 26 30  1  0  0  0  0
 27 28  2  0  0  0  0
 28 29  1  0  0  0  0
 29 30  1  0  0  0  0
 30 31  2  0  0  0  0
 32 33  2  0  0  0  0
  1 34  1  0  0  0  0
  1 35  1  0  0  0  0
  1 36  1  0  0  0  0
  3 37  1  0  0  0  0
  4 38  1  0  0  0  0
  4 39  1  0  0  0  0
  5 40  1  0  0  0  0
  5 41  1  0  0  0  0
  7 42  1  0  0  0  0
  7 43  1  0  0  0  0
  8 44  1  0  0  0  0
  8 45  1  0  0  0  0
 10 46  1  0  0  0  0
 11 47  1  0  0  0  0
 17 48  1  0  0  0  0
 17 49  1  0  0  0  0
 19 50  1  0  0  0  0
 20 51  1  0  0  0  0
 24 52  1  0  0  0  0
 25 53  1  0  0  0  0
 27 54  1  0  0  0  0
 29 55  1  0  0  0  0
 31 56  1  0  0  0  0
 32 57  1  0  0  0  0
 33 58  1  0  0  0  0
M  END
> <IC50[nM]>
1.4

$$$$
CHEMBL3265031
  -OEChem-05192314333D
 Structure written by MMmdl.
 58 63  0     0  0  0  0  0  0999 V2000
   -6.8350   -5.5126   14.3646 C   0  0  0  0  0  0  0  0  0  0  0  0
   -6.2469   -4.1256   14.5196 C   0  0  0  0  0  0  0  0  0  0  0  0
   -7.2986   -3.1815   14.6326 O   0  0  0  0  0  0  0  0  0  0  0  0
   -5.3943   -4.0373   15.7957 C   0  0  0  0  0  0  0  0  0  0  0  0
   -4.6708   -2.7036   15.9246 C   0  0  0  0  0  0  0  0  0  0  0  0
   -3.8604   -2.3511   14.7445 N   0  0  0  0  0  0  0  0  0  0  0  0
   -4.6320   -2.3959   13.4920 C   0  0  0  0  0  0  0  0  0  0  0  0
   -5.3661   -3.7377   13.3163 C   0  0  0  0  0  0  0  0  0  0  0  0
   -2.5090   -2.1078   14.8185 C   0  0  0  0  0  0  0  0  0  0  0  0
   -1.9132   -1.0937   14.0521 C   0  0  0  0  0  0  0  0  0  0  0  0
   -0.5452   -0.8202   14.1949 C   0  0  0  0  0  0  0  0  0  0  0  0
    0.2267   -1.5891   15.0857 C   0  0  0  0  0  0  0  0  0  0  0  0
    1.6093   -1.3706   15.3172 N   0  0  0  0  0  0  0  0  0  0  0  0
    2.5356   -0.4465   14.7610 C   0  0  0  0  0  0  0  0  0  0  0  0
    2.1744    0.3801   13.7331 N   0  0  0  0  0  0  0  0  0  0  0  0
    3.1091    1.2393   13.2182 C   0  0  0  0  0  0  0  0  0  0  0  0
    4.4162    1.2819   13.6993 C   0  0  0  0  0  0  0  0  0  0  0  0
    4.7443    0.4889   14.7568 N   0  0  0  0  0  0  0  0  0  0  0  0
    5.8980    0.3793   15.4854 C   0  0  0  0  0  0  0  0  0  0  0  0
    5.5914   -0.5292   16.5255 C   0  0  0  0  0  0  0  0  0  0  0  0
    4.3788   -1.0451   16.3697 N   0  0  0  0  0  0  0  0  0  0  0  0
    3.8374   -0.3956   15.3255 C   0  0  0  0  0  0  0  0  0  0  0  0
    2.6339    2.1607   12.1207 C   0  0  0  0  0  0  0  0  0  0  0  0
    3.5443    2.6413   11.1620 C   0  0  0  0  0  0  0  0  0  0  0  0
    3.1470    3.4630   10.1086 C   0  0  0  0  0  0  0  0  0  0  0  0
    1.8016    3.8175   10.0163 C   0  0  0  0  0  0  0  0  0  0  0  0
    0.9929    4.5961    9.1183 C   0  0  0  0  0  0  0  0  0  0  0  0
   -0.2479    4.6060    9.5144 N   0  0  0  0  0  0  0  0  0  0  0  0
   -0.3355    3.8922   10.6289 N   0  0  0  0  0  0  0  0  0  0  0  0
    0.8848    3.3596   10.9956 C   0  0  0  0  0  0  0  0  0  0  0  0
    1.2708    2.5377   12.0624 C   0  0  0  0  0  0  0  0  0  0  0  0
   -0.3834   -2.6137   15.8106 C   0  0  0  0  0  0  0  0  0  0  0  0
   -1.7318   -2.8604   15.6854 C   0  0  0  0  0  0  0  0  0  0  0  0
   -6.0221   -6.2484   14.2766 H   0  0  0  0  0  0  0  0  0  0  0  0
   -7.4507   -5.7501   15.2447 H   0  0  0  0  0  0  0  0  0  0  0  0
   -7.4599   -5.5468   13.4600 H   0  0  0  0  0  0  0  0  0  0  0  0
   -6.9333   -2.3100   14.7300 H   0  0  0  0  0  0  0  0  0  0  0  0
   -6.0513   -4.1676   16.6682 H   0  0  0  0  0  0  0  0  0  0  0  0
   -4.6463   -4.8436   15.7763 H   0  0  0  0  0  0  0  0  0  0  0  0
   -5.4219   -1.9147   16.0780 H   0  0  0  0  0  0  0  0  0  0  0  0
   -4.0063   -2.7524   16.7999 H   0  0  0  0  0  0  0  0  0  0  0  0
   -5.3737   -1.5837   13.5023 H   0  0  0  0  0  0  0  0  0  0  0  0
   -3.9441   -2.2536   12.6455 H   0  0  0  0  0  0  0  0  0  0  0  0
   -4.6149   -4.5273   13.1672 H   0  0  0  0  0  0  0  0  0  0  0  0
   -6.0071   -3.6685   12.4250 H   0  0  0  0  0  0  0  0  0  0  0  0
   -2.5080   -0.5246   13.3530 H   0  0  0  0  0  0  0  0  0  0  0  0
   -0.0872   -0.0251   13.6253 H   0  0  0  0  0  0  0  0  0  0  0  0
    5.0784    1.0032   12.8663 H   0  0  0  0  0  0  0  0  0  0  0  0
    4.6192    2.3212   13.9971 H   0  0  0  0  0  0  0  0  0  0  0  0
    6.8387    0.8784   15.3052 H   0  0  0  0  0  0  0  0  0  0  0  0
    6.2576   -0.7714   17.3403 H   0  0  0  0  0  0  0  0  0  0  0  0
    4.5849    2.3646   11.2449 H   0  0  0  0  0  0  0  0  0  0  0  0
    3.8635    3.8164    9.3818 H   0  0  0  0  0  0  0  0  0  0  0  0
    1.3624    5.1019    8.2385 H   0  0  0  0  0  0  0  0  0  0  0  0
   -1.0050    5.0720    9.0566 H   0  0  0  0  0  0  0  0  0  0  0  0
    0.5610    2.2069   12.8061 H   0  0  0  0  0  0  0  0  0  0  0  0
    0.2099   -3.2208   16.4783 H   0  0  0  0  0  0  0  0  0  0  0  0
   -2.1883   -3.6472   16.2676 H   0  0  0  0  0  0  0  0  0  0  0  0
  1  2  1  0  0  0  0
  2  3  1  0  0  0  0
  2  4  1  0  0  0  0
  2  8  1  0  0  0  0
  4  5  1  0  0  0  0
  5  6  1  0  0  0  0
  6  7  1  0  0  0  0
  6  9  1  0  0  0  0
  7  8  1  0  0  0  0
  9 10  2  0  0  0  0
  9 33  1  0  0  0  0
 10 11  1  0  0  0  0
 11 12  2  0  0  0  0
 12 13  1  0  0  0  0
 12 32  1  0  0  0  0
 13 14  2  0  0  0  0
 14 15  1  0  0  0  0
 14 22  1  0  0  0  0
 15 16  2  0  0  0  0
 16 17  1  0  0  0  0
 16 23  1  0  0  0  0
 17 18  1  0  0  0  0
 18 19  1  0  0  0  0
 18 22  1  0  0  0  0
 19 20  2  0  0  0  0
 20 21  1  0  0  0  0
 21 22  2  0  0  0  0
 23 24  1  0  0  0  0
 23 31  2  0  0  0  0
 24 25  2  0  0  0  0
 25 26  1  0  0  0  0
 26 27  2  0  0  0  0
 26 30  1  0  0  0  0
 27 28  1  0  0  0  0
 28 29  1  0  0  0  0
 29 30  2  0  0  0  0
 30 31  1  0  0  0  0
 32 33  2  0  0  0  0
  1 34  1  0  0  0  0
  1 35  1  0  0  0  0
  1 36  1  0  0  0  0
  3 37  1  0  0  0  0
  4 38  1  0  0  0  0
  4 39  1  0  0  0  0
  5 40  1  0  0  0  0
  5 41  1  0  0  0  0
  7 42  1  0  0  0  0
  7 43  1  0  0  0  0
  8 44  1  0  0  0  0
  8 45  1  0  0  0  0
 10 46  1  0  0  0  0
 11 47  1  0  0  0  0
 17 48  1  0  0  0  0
 17 49  1  0  0  0  0
 19 50  1  0  0  0  0
 20 51  1  0  0  0  0
 24 52  1  0  0  0  0
 25 53  1  0  0  0  0
 27 54  1  0  0  0  0
 28 55  1  0  0  0  0
 31 56  1  0  0  0  0
 32 57  1  0  0  0  0
 33 58  1  0  0  0  0
M  END
> <IC50[nM]>
1.4

$$$$
CHEMBL3265031
  -OEChem-05192314333D
 Structure written by MMmdl.
 58 63  0     0  0  0  0  0  0999 V2000
   -6.8350   -5.5126   14.3646 C   0  0  0  0  0  0  0  0  0  0  0  0
   -6.2469   -4.1256   14.5196 C   0  0  0  0  0  0  0  0  0  0  0  0
   -7.2986   -3.1815   14.6326 O   0  0  0  0  0  0  0  0  0  0  0  0
   -5.3943   -4.0373   15.7957 C   0  0  0  0  0  0  0  0  0  0  0  0
   -4.6708   -2.7036   15.9246 C   0  0  0  0  0  0  0  0  0  0  0  0
   -3.8604   -2.3511   14.7445 N   0  0  0  0  0  0  0  0  0  0  0  0
   -4.6320   -2.3959   13.4920 C   0  0  0  0  0  0  0  0  0  0  0  0
   -5.3661   -3.7377   13.3163 C   0  0  0  0  0  0  0  0  0  0  0  0
   -2.5090   -2.1078   14.8185 C   0  0  0  0  0  0  0  0  0  0  0  0
   -1.9132   -1.0937   14.0521 C   0  0  0  0  0  0  0  0  0  0  0  0
   -0.5452   -0.8202   14.1949 C   0  0  0  0  0  0  0  0  0  0  0  0
    0.2267   -1.5891   15.0857 C   0  0  0  0  0  0  0  0  0  0  0  0
    1.6093   -1.3706   15.3172 N   0  0  0  0  0  0  0  0  0  0  0  0
    2.5356   -0.4465   14.7610 C   0  0  0  0  0  0  0  0  0  0  0  0
    2.1744    0.3801   13.7331 N   0  0  0  0  0  0  0  0  0  0  0  0
    3.1091    1.2393   13.2182 C   0  0  0  0  0  0  0  0  0  0  0  0
    4.4162    1.2819   13.6993 C   0  0  0  0  0  0  0  0  0  0  0  0
    4.7443    0.4889   14.7568 N   0  0  0  0  0  0  0  0  0  0  0  0
    5.8980    0.3793   15.4854 C   0  0  0  0  0  0  0  0  0  0  0  0
    5.5914   -0.5292   16.5255 C   0  0  0  0  0  0  0  0  0  0  0  0
    4.3788   -1.0451   16.3697 N   0  0  0  0  0  0  0  0  0  0  0  0
    3.8374   -0.3956   15.3255 C   0  0  0  0  0  0  0  0  0  0  0  0
    2.6339    2.1607   12.1207 C   0  0  0  0  0  0  0  0  0  0  0  0
    3.5443    2.6413   11.1620 C   0  0  0  0  0  0  0  0  0  0  0  0
    3.1470    3.4630   10.1086 C   0  0  0  0  0  0  0  0  0  0  0  0
    1.8016    3.8175   10.0163 C   0  0  0  0  0  0  0  0  0  0  0  0
    0.9929    4.5961    9.1183 C   0  0  0  0  0  0  0  0  0  0  0  0
   -0.2479    4.6060    9.5144 N   0  0  0  0  0  0  0  0  0  0  0  0
   -0.3355    3.8922   10.6289 N   0  0  0  0  0  0  0  0  0  0  0  0
    0.8848    3.3596   10.9956 C   0  0  0  0  0  0  0  0  0  0  0  0
    1.2708    2.5377   12.0624 C   0  0  0  0  0  0  0  0  0  0  0  0
   -0.3834   -2.6137   15.8106 C   0  0  0  0  0  0  0  0  0  0  0  0
   -1.7318   -2.8604   15.6854 C   0  0  0  0  0  0  0  0  0  0  0  0
   -6.0221   -6.2484   14.2766 H   0  0  0  0  0  0  0  0  0  0  0  0
   -7.4507   -5.7501   15.2447 H   0  0  0  0  0  0  0  0  0  0  0  0
   -7.4599   -5.5468   13.4600 H   0  0  0  0  0  0  0  0  0  0  0  0
   -6.9333   -2.3100   14.7300 H   0  0  0  0  0  0  0  0  0  0  0  0
   -6.0513   -4.1676   16.6682 H   0  0  0  0  0  0  0  0  0  0  0  0
   -4.6463   -4.8436   15.7763 H   0  0  0  0  0  0  0  0  0  0  0  0
   -5.4219   -1.9147   16.0780 H   0  0  0  0  0  0  0  0  0  0  0  0
   -4.0063   -2.7524   16.7999 H   0  0  0  0  0  0  0  0  0  0  0  0
   -5.3737   -1.5837   13.5023 H   0  0  0  0  0  0  0  0  0  0  0  0
   -3.9441   -2.2536   12.6455 H   0  0  0  0  0  0  0  0  0  0  0  0
   -4.6149   -4.5273   13.1672 H   0  0  0  0  0  0  0  0  0  0  0  0
   -6.0071   -3.6685   12.4250 H   0  0  0  0  0  0  0  0  0  0  0  0
   -2.3266   -2.8340   14.0127 H   0  0  0  0  0  0  0  0  0  0  0  0
   -2.5080   -0.5246   13.3530 H   0  0  0  0  0  0  0  0  0  0  0  0
   -0.0872   -0.0251   13.6253 H   0  0  0  0  0  0  0  0  0  0  0  0
    5.1518    1.9286   13.2442 H   0  0  0  0  0  0  0  0  0  0  0  0
    6.8387    0.8784   15.3052 H   0  0  0  0  0  0  0  0  0  0  0  0
    6.2576   -0.7714   17.3403 H   0  0  0  0  0  0  0  0  0  0  0  0
    4.5849    2.3646   11.2449 H   0  0  0  0  0  0  0  0  0  0  0  0
    3.8635    3.8164    9.3818 H   0  0  0  0  0  0  0  0  0  0  0  0
    1.3624    5.1019    8.2385 H   0  0  0  0  0  0  0  0  0  0  0  0
   -1.1831    3.7561   11.1418 H   0  0  0  0  0  0  0  0  0  0  0  0
    0.5610    2.2069   12.8061 H   0  0  0  0  0  0  0  0  0  0  0  0
    0.2099   -3.2208   16.4783 H   0  0  0  0  0  0  0  0  0  0  0  0
   -2.1883   -3.6472   16.2676 H   0  0  0  0  0  0  0  0  0  0  0  0
  1  2  1  0  0  0  0
  2  3  1  0  0  0  0
  2  4  1  0  0  0  0
  2  8  1  0  0  0  0
  4  5  1  0  0  0  0
  5  6  1  0  0  0  0
  6  7  1  0  0  0  0
  6  9  1  0  0  0  0
  7  8  1  0  0  0  0
  9 10  1  0  0  0  0
  9 33  1  0  0  0  0
 10 11  2  0  0  0  0
 11 12  1  0  0  0  0
 12 13  2  0  0  0  0
 12 32  1  0  0  0  0
 13 14  1  0  0  0  0
 14 15  2  0  0  0  0
 14 22  1  0  0  0  0
 15 16  1  0  0  0  0
 16 17  2  0  0  0  0
 16 23  1  0  0  0  0
 17 18  1  0  0  0  0
 18 19  1  0  0  0  0
 18 22  1  0  0  0  0
 19 20  2  0  0  0  0
 20 21  1  0  0  0  0
 21 22  2  0  0  0  0
 23 24  2  0  0  0  0
 23 31  1  0  0  0  0
 24 25  1  0  0  0  0
 25 26  2  0  0  0  0
 26 27  1  0  0  0  0
 26 30  1  0  0  0  0
 27 28  2  0  0  0  0
 28 29  1  0  0  0  0
 29 30  1  0  0  0  0
 30 31  2  0  0  0  0
 32 33  2  0  0  0  0
  1 34  1  0  0  0  0
  1 35  1  0  0  0  0
  1 36  1  0  0  0  0
  3 37  1  0  0  0  0
  4 38  1  0  0  0  0
  4 39  1  0  0  0  0
  5 40  1  0  0  0  0
  5 41  1  0  0  0  0
  7 42  1  0  0  0  0
  7 43  1  0  0  0  0
  8 44  1  0  0  0  0
  8 45  1  0  0  0  0
  9 46  1  0  0  0  0
 10 47  1  0  0  0  0
 11 48  1  0  0  0  0
 17 49  1  0  0  0  0
 19 50  1  0  0  0  0
 20 51  1  0  0  0  0
 24 52  1  0  0  0  0
 25 53  1  0  0  0  0
 27 54  1  0  0  0  0
 29 55  1  0  0  0  0
 31 56  1  0  0  0  0
 32 57  1  0  0  0  0
 33 58  1  0  0  0  0
M  END
> <IC50[nM]>
1.4

$$$$
CHEMBL3265031
  -OEChem-05192314333D
 Structure written by MMmdl.
 58 63  0     0  0  0  0  0  0999 V2000
   -6.8350   -5.5126   14.3646 C   0  0  0  0  0  0  0  0  0  0  0  0
   -6.2469   -4.1256   14.5196 C   0  0  0  0  0  0  0  0  0  0  0  0
   -7.2986   -3.1815   14.6326 O   0  0  0  0  0  0  0  0  0  0  0  0
   -5.3943   -4.0373   15.7957 C   0  0  0  0  0  0  0  0  0  0  0  0
   -4.6708   -2.7036   15.9246 C   0  0  0  0  0  0  0  0  0  0  0  0
   -3.8604   -2.3511   14.7445 N   0  0  0  0  0  0  0  0  0  0  0  0
   -4.6320   -2.3959   13.4920 C   0  0  0  0  0  0  0  0  0  0  0  0
   -5.3661   -3.7377   13.3163 C   0  0  0  0  0  0  0  0  0  0  0  0
   -2.5090   -2.1078   14.8185 C   0  0  0  0  0  0  0  0  0  0  0  0
   -1.9132   -1.0937   14.0521 C   0  0  0  0  0  0  0  0  0  0  0  0
   -0.5452   -0.8202   14.1949 C   0  0  0  0  0  0  0  0  0  0  0  0
    0.2267   -1.5891   15.0857 C   0  0  0  0  0  0  0  0  0  0  0  0
    1.6093   -1.3706   15.3172 N   0  0  0  0  0  0  0  0  0  0  0  0
    2.5356   -0.4465   14.7610 C   0  0  0  0  0  0  0  0  0  0  0  0
    2.1744    0.3801   13.7331 N   0  0  0  0  0  0  0  0  0  0  0  0
    3.1091    1.2393   13.2182 C   0  0  0  0  0  0  0  0  0  0  0  0
    4.4162    1.2819   13.6993 C   0  0  0  0  0  0  0  0  0  0  0  0
    4.7443    0.4889   14.7568 N   0  0  0  0  0  0  0  0  0  0  0  0
    5.8980    0.3793   15.4854 C   0  0  0  0  0  0  0  0  0  0  0  0
    5.5914   -0.5292   16.5255 C   0  0  0  0  0  0  0  0  0  0  0  0
    4.3788   -1.0451   16.3697 N   0  0  0  0  0  0  0  0  0  0  0  0
    3.8374   -0.3956   15.3255 C   0  0  0  0  0  0  0  0  0  0  0  0
    2.6339    2.1607   12.1207 C   0  0  0  0  0  0  0  0  0  0  0  0
    3.5443    2.6413   11.1620 C   0  0  0  0  0  0  0  0  0  0  0  0
    3.1470    3.4630   10.1086 C   0  0  0  0  0  0  0  0  0  0  0  0
    1.8016    3.8175   10.0163 C   0  0  0  0  0  0  0  0  0  0  0  0
    0.9929    4.5961    9.1183 C   0  0  0  0  0  0  0  0  0  0  0  0
   -0.2479    4.6060    9.5144 N   0  0  0  0  0  0  0  0  0  0  0  0
   -0.3355    3.8922   10.6289 N   0  0  0  0  0  0  0  0  0  0  0  0
    0.8848    3.3596   10.9956 C   0  0  0  0  0  0  0  0  0  0  0  0
    1.2708    2.5377   12.0624 C   0  0  0  0  0  0  0  0  0  0  0  0
   -0.3834   -2.6137   15.8106 C   0  0  0  0  0  0  0  0  0  0  0  0
   -1.7318   -2.8604   15.6854 C   0  0  0  0  0  0  0  0  0  0  0  0
   -6.0221   -6.2484   14.2766 H   0  0  0  0  0  0  0  0  0  0  0  0
   -7.4507   -5.7501   15.2447 H   0  0  0  0  0  0  0  0  0  0  0  0
   -7.4599   -5.5468   13.4600 H   0  0  0  0  0  0  0  0  0  0  0  0
   -6.9333   -2.3100   14.7300 H   0  0  0  0  0  0  0  0  0  0  0  0
   -6.0513   -4.1676   16.6682 H   0  0  0  0  0  0  0  0  0  0  0  0
   -4.6463   -4.8436   15.7763 H   0  0  0  0  0  0  0  0  0  0  0  0
   -5.4219   -1.9147   16.0780 H   0  0  0  0  0  0  0  0  0  0  0  0
   -4.0063   -2.7524   16.7999 H   0  0  0  0  0  0  0  0  0  0  0  0
   -5.3737   -1.5837   13.5023 H   0  0  0  0  0  0  0  0  0  0  0  0
   -3.9441   -2.2536   12.6455 H   0  0  0  0  0  0  0  0  0  0  0  0
   -4.6149   -4.5273   13.1672 H   0  0  0  0  0  0  0  0  0  0  0  0
   -6.0071   -3.6685   12.4250 H   0  0  0  0  0  0  0  0  0  0  0  0
   -2.3266   -2.8340   14.0127 H   0  0  0  0  0  0  0  0  0  0  0  0
   -2.5080   -0.5246   13.3530 H   0  0  0  0  0  0  0  0  0  0  0  0
   -0.0872   -0.0251   13.6253 H   0  0  0  0  0  0  0  0  0  0  0  0
    5.1518    1.9286   13.2442 H   0  0  0  0  0  0  0  0  0  0  0  0
    6.8387    0.8784   15.3052 H   0  0  0  0  0  0  0  0  0  0  0  0
    6.2576   -0.7714   17.3403 H   0  0  0  0  0  0  0  0  0  0  0  0
    4.5849    2.3646   11.2449 H   0  0  0  0  0  0  0  0  0  0  0  0
    3.8635    3.8164    9.3818 H   0  0  0  0  0  0  0  0  0  0  0  0
    1.3624    5.1019    8.2385 H   0  0  0  0  0  0  0  0  0  0  0  0
   -1.0050    5.0720    9.0566 H   0  0  0  0  0  0  0  0  0  0  0  0
    0.5610    2.2069   12.8061 H   0  0  0  0  0  0  0  0  0  0  0  0
    0.2099   -3.2208   16.4783 H   0  0  0  0  0  0  0  0  0  0  0  0
   -2.1883   -3.6472   16.2676 H   0  0  0  0  0  0  0  0  0  0  0  0
  1  2  1  0  0  0  0
  2  3  1  0  0  0  0
  2  4  1  0  0  0  0
  2  8  1  0  0  0  0
  4  5  1  0  0  0  0
  5  6  1  0  0  0  0
  6  7  1  0  0  0  0
  6  9  1  0  0  0  0
  7  8  1  0  0  0  0
  9 10  1  0  0  0  0
  9 33  1  0  0  0  0
 10 11  2  0  0  0  0
 11 12  1  0  0  0  0
 12 13  2  0  0  0  0
 12 32  1  0  0  0  0
 13 14  1  0  0  0  0
 14 15  2  0  0  0  0
 14 22  1  0  0  0  0
 15 16  1  0  0  0  0
 16 17  2  0  0  0  0
 16 23  1  0  0  0  0
 17 18  1  0  0  0  0
 18 19  1  0  0  0  0
 18 22  1  0  0  0  0
 19 20  2  0  0  0  0
 20 21  1  0  0  0  0
 21 22  2  0  0  0  0
 23 24  1  0  0  0  0
 23 31  2  0  0  0  0
 24 25  2  0  0  0  0
 25 26  1  0  0  0  0
 26 27  2  0  0  0  0
 26 30  1  0  0  0  0
 27 28  1  0  0  0  0
 28 29  1  0  0  0  0
 29 30  2  0  0  0  0
 30 31  1  0  0  0  0
 32 33  2  0  0  0  0
  1 34  1  0  0  0  0
  1 35  1  0  0  0  0
  1 36  1  0  0  0  0
  3 37  1  0  0  0  0
  4 38  1  0  0  0  0
  4 39  1  0  0  0  0
  5 40  1  0  0  0  0
  5 41  1  0  0  0  0
  7 42  1  0  0  0  0
  7 43  1  0  0  0  0
  8 44  1  0  0  0  0
  8 45  1  0  0  0  0
  9 46  1  0  0  0  0
 10 47  1  0  0  0  0
 11 48  1  0  0  0  0
 17 49  1  0  0  0  0
 19 50  1  0  0  0  0
 20 51  1  0  0  0  0
 24 52  1  0  0  0  0
 25 53  1  0  0  0  0
 27 54  1  0  0  0  0
 28 55  1  0  0  0  0
 31 56  1  0  0  0  0
 32 57  1  0  0  0  0
 33 58  1  0  0  0  0
M  END
> <IC50[nM]>
1.4

$$$$
CHEMBL3265031
  -OEChem-05192314333D
 Structure written by MMmdl.
 58 63  0     0  0  0  0  0  0999 V2000
   -6.8350   -5.5126   14.3646 C   0  0  0  0  0  0  0  0  0  0  0  0
   -6.2469   -4.1256   14.5196 C   0  0  0  0  0  0  0  0  0  0  0  0
   -7.2986   -3.1815   14.6326 O   0  0  0  0  0  0  0  0  0  0  0  0
   -5.3943   -4.0373   15.7957 C   0  0  0  0  0  0  0  0  0  0  0  0
   -4.6708   -2.7036   15.9246 C   0  0  0  0  0  0  0  0  0  0  0  0
   -3.8604   -2.3511   14.7445 N   0  0  0  0  0  0  0  0  0  0  0  0
   -4.6320   -2.3959   13.4920 C   0  0  0  0  0  0  0  0  0  0  0  0
   -5.3661   -3.7377   13.3163 C   0  0  0  0  0  0  0  0  0  0  0  0
   -2.5090   -2.1078   14.8185 C   0  0  0  0  0  0  0  0  0  0  0  0
   -1.9132   -1.0937   14.0521 C   0  0  0  0  0  0  0  0  0  0  0  0
   -0.5452   -0.8202   14.1949 C   0  0  0  0  0  0  0  0  0  0  0  0
    0.2267   -1.5891   15.0857 C   0  0  0  0  0  0  0  0  0  0  0  0
    1.6093   -1.3706   15.3172 N   0  0  0  0  0  0  0  0  0  0  0  0
    2.5356   -0.4465   14.7610 C   0  0  0  0  0  0  0  0  0  0  0  0
    2.1744    0.3801   13.7331 N   0  0  0  0  0  0  0  0  0  0  0  0
    3.1091    1.2393   13.2182 C   0  0  0  0  0  0  0  0  0  0  0  0
    4.4162    1.2819   13.6993 C   0  0  0  0  0  0  0  0  0  0  0  0
    4.7443    0.4889   14.7568 N   0  0  0  0  0  0  0  0  0  0  0  0
    5.8980    0.3793   15.4854 C   0  0  0  0  0  0  0  0  0  0  0  0
    5.5914   -0.5292   16.5255 C   0  0  0  0  0  0  0  0  0  0  0  0
    4.3788   -1.0451   16.3697 N   0  0  0  0  0  0  0  0  0  0  0  0
    3.8374   -0.3956   15.3255 C   0  0  0  0  0  0  0  0  0  0  0  0
    2.6339    2.1607   12.1207 C   0  0  0  0  0  0  0  0  0  0  0  0
    3.5443    2.6413   11.1620 C   0  0  0  0  0  0  0  0  0  0  0  0
    3.1470    3.4630   10.1086 C   0  0  0  0  0  0  0  0  0  0  0  0
    1.8016    3.8175   10.0163 C   0  0  0  0  0  0  0  0  0  0  0  0
    0.9929    4.5961    9.1183 C   0  0  0  0  0  0  0  0  0  0  0  0
   -0.2479    4.6060    9.5144 N   0  0  0  0  0  0  0  0  0  0  0  0
   -0.3355    3.8922   10.6289 N   0  0  0  0  0  0  0  0  0  0  0  0
    0.8848    3.3596   10.9956 C   0  0  0  0  0  0  0  0  0  0  0  0
    1.2708    2.5377   12.0624 C   0  0  0  0  0  0  0  0  0  0  0  0
   -0.3834   -2.6137   15.8106 C   0  0  0  0  0  0  0  0  0  0  0  0
   -1.7318   -2.8604   15.6854 C   0  0  0  0  0  0  0  0  0  0  0  0
   -6.0221   -6.2484   14.2766 H   0  0  0  0  0  0  0  0  0  0  0  0
   -7.4507   -5.7501   15.2447 H   0  0  0  0  0  0  0  0  0  0  0  0
   -7.4599   -5.5468   13.4600 H   0  0  0  0  0  0  0  0  0  0  0  0
   -6.9333   -2.3100   14.7300 H   0  0  0  0  0  0  0  0  0  0  0  0
   -6.0513   -4.1676   16.6682 H   0  0  0  0  0  0  0  0  0  0  0  0
   -4.6463   -4.8436   15.7763 H   0  0  0  0  0  0  0  0  0  0  0  0
   -5.4219   -1.9147   16.0780 H   0  0  0  0  0  0  0  0  0  0  0  0
   -4.0063   -2.7524   16.7999 H   0  0  0  0  0  0  0  0  0  0  0  0
   -5.3737   -1.5837   13.5023 H   0  0  0  0  0  0  0  0  0  0  0  0
   -3.9441   -2.2536   12.6455 H   0  0  0  0  0  0  0  0  0  0  0  0
   -4.6149   -4.5273   13.1672 H   0  0  0  0  0  0  0  0  0  0  0  0
   -6.0071   -3.6685   12.4250 H   0  0  0  0  0  0  0  0  0  0  0  0
   -2.5080   -0.5246   13.3530 H   0  0  0  0  0  0  0  0  0  0  0  0
   -0.0872   -0.0251   13.6253 H   0  0  0  0  0  0  0  0  0  0  0  0
    5.1518    1.9286   13.2442 H   0  0  0  0  0  0  0  0  0  0  0  0
    6.8387    0.8784   15.3052 H   0  0  0  0  0  0  0  0  0  0  0  0
    6.2576   -0.7714   17.3403 H   0  0  0  0  0  0  0  0  0  0  0  0
    4.5849    2.3646   11.2449 H   0  0  0  0  0  0  0  0  0  0  0  0
    3.8635    3.8164    9.3818 H   0  0  0  0  0  0  0  0  0  0  0  0
    1.3624    5.1019    8.2385 H   0  0  0  0  0  0  0  0  0  0  0  0
   -1.1831    3.7561   11.1418 H   0  0  0  0  0  0  0  0  0  0  0  0
    0.5610    2.2069   12.8061 H   0  0  0  0  0  0  0  0  0  0  0  0
    0.1327   -3.5445   15.5329 H   0  0  0  0  0  0  0  0  0  0  0  0
   -0.2017   -2.3968   16.8736 H   0  0  0  0  0  0  0  0  0  0  0  0
   -2.1883   -3.6472   16.2676 H   0  0  0  0  0  0  0  0  0  0  0  0
  1  2  1  0  0  0  0
  2  3  1  0  0  0  0
  2  4  1  0  0  0  0
  2  8  1  0  0  0  0
  4  5  1  0  0  0  0
  5  6  1  0  0  0  0
  6  7  1  0  0  0  0
  6  9  1  0  0  0  0
  7  8  1  0  0  0  0
  9 10  1  0  0  0  0
  9 33  2  0  0  0  0
 10 11  2  0  0  0  0
 11 12  1  0  0  0  0
 12 13  2  0  0  0  0
 12 32  1  0  0  0  0
 13 14  1  0  0  0  0
 14 15  2  0  0  0  0
 14 22  1  0  0  0  0
 15 16  1  0  0  0  0
 16 17  2  0  0  0  0
 16 23  1  0  0  0  0
 17 18  1  0  0  0  0
 18 19  1  0  0  0  0
 18 22  1  0  0  0  0
 19 20  2  0  0  0  0
 20 21  1  0  0  0  0
 21 22  2  0  0  0  0
 23 24  2  0  0  0  0
 23 31  1  0  0  0  0
 24 25  1  0  0  0  0
 25 26  2  0  0  0  0
 26 27  1  0  0  0  0
 26 30  1  0  0  0  0
 27 28  2  0  0  0  0
 28 29  1  0  0  0  0
 29 30  1  0  0  0  0
 30 31  2  0  0  0  0
 32 33  1  0  0  0  0
  1 34  1  0  0  0  0
  1 35  1  0  0  0  0
  1 36  1  0  0  0  0
  3 37  1  0  0  0  0
  4 38  1  0  0  0  0
  4 39  1  0  0  0  0
  5 40  1  0  0  0  0
  5 41  1  0  0  0  0
  7 42  1  0  0  0  0
  7 43  1  0  0  0  0
  8 44  1  0  0  0  0
  8 45  1  0  0  0  0
 10 46  1  0  0  0  0
 11 47  1  0  0  0  0
 17 48  1  0  0  0  0
 19 49  1  0  0  0  0
 20 50  1  0  0  0  0
 24 51  1  0  0  0  0
 25 52  1  0  0  0  0
 27 53  1  0  0  0  0
 29 54  1  0  0  0  0
 31 55  1  0  0  0  0
 32 56  1  0  0  0  0
 32 57  1  0  0  0  0
 33 58  1  0  0  0  0
M  END
> <IC50[nM]>
1.4

$$$$
CHEMBL3265031
  -OEChem-05192314333D
 Structure written by MMmdl.
 58 63  0     0  0  0  0  0  0999 V2000
   -6.8350   -5.5126   14.3646 C   0  0  0  0  0  0  0  0  0  0  0  0
   -6.2469   -4.1256   14.5196 C   0  0  0  0  0  0  0  0  0  0  0  0
   -7.2986   -3.1815   14.6326 O   0  0  0  0  0  0  0  0  0  0  0  0
   -5.3943   -4.0373   15.7957 C   0  0  0  0  0  0  0  0  0  0  0  0
   -4.6708   -2.7036   15.9246 C   0  0  0  0  0  0  0  0  0  0  0  0
   -3.8604   -2.3511   14.7445 N   0  0  0  0  0  0  0  0  0  0  0  0
   -4.6320   -2.3959   13.4920 C   0  0  0  0  0  0  0  0  0  0  0  0
   -5.3661   -3.7377   13.3163 C   0  0  0  0  0  0  0  0  0  0  0  0
   -2.5090   -2.1078   14.8185 C   0  0  0  0  0  0  0  0  0  0  0  0
   -1.9132   -1.0937   14.0521 C   0  0  0  0  0  0  0  0  0  0  0  0
   -0.5452   -0.8202   14.1949 C   0  0  0  0  0  0  0  0  0  0  0  0
    0.2267   -1.5891   15.0857 C   0  0  0  0  0  0  0  0  0  0  0  0
    1.6093   -1.3706   15.3172 N   0  0  0  0  0  0  0  0  0  0  0  0
    2.5356   -0.4465   14.7610 C   0  0  0  0  0  0  0  0  0  0  0  0
    2.1744    0.3801   13.7331 N   0  0  0  0  0  0  0  0  0  0  0  0
    3.1091    1.2393   13.2182 C   0  0  0  0  0  0  0  0  0  0  0  0
    4.4162    1.2819   13.6993 C   0  0  0  0  0  0  0  0  0  0  0  0
    4.7443    0.4889   14.7568 N   0  0  0  0  0  0  0  0  0  0  0  0
    5.8980    0.3793   15.4854 C   0  0  0  0  0  0  0  0  0  0  0  0
    5.5914   -0.5292   16.5255 C   0  0  0  0  0  0  0  0  0  0  0  0
    4.3788   -1.0451   16.3697 N   0  0  0  0  0  0  0  0  0  0  0  0
    3.8374   -0.3956   15.3255 C   0  0  0  0  0  0  0  0  0  0  0  0
    2.6339    2.1607   12.1207 C   0  0  0  0  0  0  0  0  0  0  0  0
    3.5443    2.6413   11.1620 C   0  0  0  0  0  0  0  0  0  0  0  0
    3.1470    3.4630   10.1086 C   0  0  0  0  0  0  0  0  0  0  0  0
    1.8016    3.8175   10.0163 C   0  0  0  0  0  0  0  0  0  0  0  0
    0.9929    4.5961    9.1183 C   0  0  0  0  0  0  0  0  0  0  0  0
   -0.2479    4.6060    9.5144 N   0  0  0  0  0  0  0  0  0  0  0  0
   -0.3355    3.8922   10.6289 N   0  0  0  0  0  0  0  0  0  0  0  0
    0.8848    3.3596   10.9956 C   0  0  0  0  0  0  0  0  0  0  0  0
    1.2708    2.5377   12.0624 C   0  0  0  0  0  0  0  0  0  0  0  0
   -0.3834   -2.6137   15.8106 C   0  0  0  0  0  0  0  0  0  0  0  0
   -1.7318   -2.8604   15.6854 C   0  0  0  0  0  0  0  0  0  0  0  0
   -6.0221   -6.2484   14.2766 H   0  0  0  0  0  0  0  0  0  0  0  0
   -7.4507   -5.7501   15.2447 H   0  0  0  0  0  0  0  0  0  0  0  0
   -7.4599   -5.5468   13.4600 H   0  0  0  0  0  0  0  0  0  0  0  0
   -6.9333   -2.3100   14.7300 H   0  0  0  0  0  0  0  0  0  0  0  0
   -6.0513   -4.1676   16.6682 H   0  0  0  0  0  0  0  0  0  0  0  0
   -4.6463   -4.8436   15.7763 H   0  0  0  0  0  0  0  0  0  0  0  0
   -5.4219   -1.9147   16.0780 H   0  0  0  0  0  0  0  0  0  0  0  0
   -4.0063   -2.7524   16.7999 H   0  0  0  0  0  0  0  0  0  0  0  0
   -5.3737   -1.5837   13.5023 H   0  0  0  0  0  0  0  0  0  0  0  0
   -3.9441   -2.2536   12.6455 H   0  0  0  0  0  0  0  0  0  0  0  0
   -4.6149   -4.5273   13.1672 H   0  0  0  0  0  0  0  0  0  0  0  0
   -6.0071   -3.6685   12.4250 H   0  0  0  0  0  0  0  0  0  0  0  0
   -2.5080   -0.5246   13.3530 H   0  0  0  0  0  0  0  0  0  0  0  0
   -0.0872   -0.0251   13.6253 H   0  0  0  0  0  0  0  0  0  0  0  0
    5.1518    1.9286   13.2442 H   0  0  0  0  0  0  0  0  0  0  0  0
    6.8387    0.8784   15.3052 H   0  0  0  0  0  0  0  0  0  0  0  0
    6.2576   -0.7714   17.3403 H   0  0  0  0  0  0  0  0  0  0  0  0
    4.5849    2.3646   11.2449 H   0  0  0  0  0  0  0  0  0  0  0  0
    3.8635    3.8164    9.3818 H   0  0  0  0  0  0  0  0  0  0  0  0
    1.3624    5.1019    8.2385 H   0  0  0  0  0  0  0  0  0  0  0  0
   -1.0050    5.0720    9.0566 H   0  0  0  0  0  0  0  0  0  0  0  0
    0.5610    2.2069   12.8061 H   0  0  0  0  0  0  0  0  0  0  0  0
    0.1327   -3.5445   15.5329 H   0  0  0  0  0  0  0  0  0  0  0  0
   -0.2017   -2.3968   16.8736 H   0  0  0  0  0  0  0  0  0  0  0  0
   -2.1883   -3.6472   16.2676 H   0  0  0  0  0  0  0  0  0  0  0  0
  1  2  1  0  0  0  0
  2  3  1  0  0  0  0
  2  4  1  0  0  0  0
  2  8  1  0  0  0  0
  4  5  1  0  0  0  0
  5  6  1  0  0  0  0
  6  7  1  0  0  0  0
  6  9  1  0  0  0  0
  7  8  1  0  0  0  0
  9 10  1  0  0  0  0
  9 33  2  0  0  0  0
 10 11  2  0  0  0  0
 11 12  1  0  0  0  0
 12 13  2  0  0  0  0
 12 32  1  0  0  0  0
 13 14  1  0  0  0  0
 14 15  2  0  0  0  0
 14 22  1  0  0  0  0
 15 16  1  0  0  0  0
 16 17  2  0  0  0  0
 16 23  1  0  0  0  0
 17 18  1  0  0  0  0
 18 19  1  0  0  0  0
 18 22  1  0  0  0  0
 19 20  2  0  0  0  0
 20 21  1  0  0  0  0
 21 22  2  0  0  0  0
 23 24  1  0  0  0  0
 23 31  2  0  0  0  0
 24 25  2  0  0  0  0
 25 26  1  0  0  0  0
 26 27  2  0  0  0  0
 26 30  1  0  0  0  0
 27 28  1  0  0  0  0
 28 29  1  0  0  0  0
 29 30  2  0  0  0  0
 30 31  1  0  0  0  0
 32 33  1  0  0  0  0
  1 34  1  0  0  0  0
  1 35  1  0  0  0  0
  1 36  1  0  0  0  0
  3 37  1  0  0  0  0
  4 38  1  0  0  0  0
  4 39  1  0  0  0  0
  5 40  1  0  0  0  0
  5 41  1  0  0  0  0
  7 42  1  0  0  0  0
  7 43  1  0  0  0  0
  8 44  1  0  0  0  0
  8 45  1  0  0  0  0
 10 46  1  0  0  0  0
 11 47  1  0  0  0  0
 17 48  1  0  0  0  0
 19 49  1  0  0  0  0
 20 50  1  0  0  0  0
 24 51  1  0  0  0  0
 25 52  1  0  0  0  0
 27 53  1  0  0  0  0
 28 54  1  0  0  0  0
 31 55  1  0  0  0  0
 32 56  1  0  0  0  0
 32 57  1  0  0  0  0
 33 58  1  0  0  0  0
M  END
> <IC50[nM]>
1.4

$$$$
CHEMBL3265031
  -OEChem-05192314333D
 Structure written by MMmdl.
 58 63  0     0  0  0  0  0  0999 V2000
   -6.8350   -5.5126   14.3646 C   0  0  0  0  0  0  0  0  0  0  0  0
   -6.2469   -4.1256   14.5196 C   0  0  0  0  0  0  0  0  0  0  0  0
   -7.2986   -3.1815   14.6326 O   0  0  0  0  0  0  0  0  0  0  0  0
   -5.3943   -4.0373   15.7957 C   0  0  0  0  0  0  0  0  0  0  0  0
   -4.6708   -2.7036   15.9246 C   0  0  0  0  0  0  0  0  0  0  0  0
   -3.8604   -2.3511   14.7445 N   0  0  0  0  0  0  0  0  0  0  0  0
   -4.6320   -2.3959   13.4920 C   0  0  0  0  0  0  0  0  0  0  0  0
   -5.3661   -3.7377   13.3163 C   0  0  0  0  0  0  0  0  0  0  0  0
   -2.5090   -2.1078   14.8185 C   0  0  0  0  0  0  0  0  0  0  0  0
   -1.9132   -1.0937   14.0521 C   0  0  0  0  0  0  0  0  0  0  0  0
   -0.5452   -0.8202   14.1949 C   0  0  0  0  0  0  0  0  0  0  0  0
    0.2267   -1.5891   15.0857 C   0  0  0  0  0  0  0  0  0  0  0  0
    1.6093   -1.3706   15.3172 N   0  0  0  0  0  0  0  0  0  0  0  0
    2.5356   -0.4465   14.7610 C   0  0  0  0  0  0  0  0  0  0  0  0
    2.1744    0.3801   13.7331 N   0  0  0  0  0  0  0  0  0  0  0  0
    3.1091    1.2393   13.2182 C   0  0  0  0  0  0  0  0  0  0  0  0
    4.4162    1.2819   13.6993 C   0  0  0  0  0  0  0  0  0  0  0  0
    4.7443    0.4889   14.7568 N   0  0  0  0  0  0  0  0  0  0  0  0
    5.8980    0.3793   15.4854 C   0  0  0  0  0  0  0  0  0  0  0  0
    5.5914   -0.5292   16.5255 C   0  0  0  0  0  0  0  0  0  0  0  0
    4.3788   -1.0451   16.3697 N   0  0  0  0  0  0  0  0  0  0  0  0
    3.8374   -0.3956   15.3255 C   0  0  0  0  0  0  0  0  0  0  0  0
    2.6339    2.1607   12.1207 C   0  0  0  0  0  0  0  0  0  0  0  0
    3.5443    2.6413   11.1620 C   0  0  0  0  0  0  0  0  0  0  0  0
    3.1470    3.4630   10.1086 C   0  0  0  0  0  0  0  0  0  0  0  0
    1.8016    3.8175   10.0163 C   0  0  0  0  0  0  0  0  0  0  0  0
    0.9929    4.5961    9.1183 C   0  0  0  0  0  0  0  0  0  0  0  0
   -0.2479    4.6060    9.5144 N   0  0  0  0  0  0  0  0  0  0  0  0
   -0.3355    3.8922   10.6289 N   0  0  0  0  0  0  0  0  0  0  0  0
    0.8848    3.3596   10.9956 C   0  0  0  0  0  0  0  0  0  0  0  0
    1.2708    2.5377   12.0624 C   0  0  0  0  0  0  0  0  0  0  0  0
   -0.3834   -2.6137   15.8106 C   0  0  0  0  0  0  0  0  0  0  0  0
   -1.7318   -2.8604   15.6854 C   0  0  0  0  0  0  0  0  0  0  0  0
   -6.0221   -6.2484   14.2766 H   0  0  0  0  0  0  0  0  0  0  0  0
   -7.4507   -5.7501   15.2447 H   0  0  0  0  0  0  0  0  0  0  0  0
   -7.4599   -5.5468   13.4600 H   0  0  0  0  0  0  0  0  0  0  0  0
   -6.9333   -2.3100   14.7300 H   0  0  0  0  0  0  0  0  0  0  0  0
   -6.0513   -4.1676   16.6682 H   0  0  0  0  0  0  0  0  0  0  0  0
   -4.6463   -4.8436   15.7763 H   0  0  0  0  0  0  0  0  0  0  0  0
   -5.4219   -1.9147   16.0780 H   0  0  0  0  0  0  0  0  0  0  0  0
   -4.0063   -2.7524   16.7999 H   0  0  0  0  0  0  0  0  0  0  0  0
   -5.3737   -1.5837   13.5023 H   0  0  0  0  0  0  0  0  0  0  0  0
   -3.9441   -2.2536   12.6455 H   0  0  0  0  0  0  0  0  0  0  0  0
   -4.6149   -4.5273   13.1672 H   0  0  0  0  0  0  0  0  0  0  0  0
   -6.0071   -3.6685   12.4250 H   0  0  0  0  0  0  0  0  0  0  0  0
   -2.5080   -0.5246   13.3530 H   0  0  0  0  0  0  0  0  0  0  0  0
   -0.0872   -0.0251   13.6253 H   0  0  0  0  0  0  0  0  0  0  0  0
    5.0784    1.0032   12.8663 H   0  0  0  0  0  0  0  0  0  0  0  0
    4.6192    2.3212   13.9971 H   0  0  0  0  0  0  0  0  0  0  0  0
    6.8387    0.8784   15.3052 H   0  0  0  0  0  0  0  0  0  0  0  0
    6.2576   -0.7714   17.3403 H   0  0  0  0  0  0  0  0  0  0  0  0
    4.5849    2.3646   11.2449 H   0  0  0  0  0  0  0  0  0  0  0  0
    3.8635    3.8164    9.3818 H   0  0  0  0  0  0  0  0  0  0  0  0
    1.3726    5.6281    9.0915 H   0  0  0  0  0  0  0  0  0  0  0  0
    1.0477    4.1590    8.1104 H   0  0  0  0  0  0  0  0  0  0  0  0
    0.5610    2.2069   12.8061 H   0  0  0  0  0  0  0  0  0  0  0  0
    0.2099   -3.2208   16.4783 H   0  0  0  0  0  0  0  0  0  0  0  0
   -2.1883   -3.6472   16.2676 H   0  0  0  0  0  0  0  0  0  0  0  0
  1  2  1  0  0  0  0
  2  3  1  0  0  0  0
  2  4  1  0  0  0  0
  2  8  1  0  0  0  0
  4  5  1  0  0  0  0
  5  6  1  0  0  0  0
  6  7  1  0  0  0  0
  6  9  1  0  0  0  0
  7  8  1  0  0  0  0
  9 10  2  0  0  0  0
  9 33  1  0  0  0  0
 10 11  1  0  0  0  0
 11 12  2  0  0  0  0
 12 13  1  0  0  0  0
 12 32  1  0  0  0  0
 13 14  2  0  0  0  0
 14 15  1  0  0  0  0
 14 22  1  0  0  0  0
 15 16  2  0  0  0  0
 16 17  1  0  0  0  0
 16 23  1  0  0  0  0
 17 18  1  0  0  0  0
 18 19  1  0  0  0  0
 18 22  1  0  0  0  0
 19 20  2  0  0  0  0
 20 21  1  0  0  0  0
 21 22  2  0  0  0  0
 23 24  2  0  0  0  0
 23 31  1  0  0  0  0
 24 25  1  0  0  0  0
 25 26  2  0  0  0  0
 26 27  1  0  0  0  0
 26 30  1  0  0  0  0
 27 28  1  0  0  0  0
 28 29  2  0  0  0  0
 29 30  1  0  0  0  0
 30 31  2  0  0  0  0
 32 33  2  0  0  0  0
  1 34  1  0  0  0  0
  1 35  1  0  0  0  0
  1 36  1  0  0  0  0
  3 37  1  0  0  0  0
  4 38  1  0  0  0  0
  4 39  1  0  0  0  0
  5 40  1  0  0  0  0
  5 41  1  0  0  0  0
  7 42  1  0  0  0  0
  7 43  1  0  0  0  0
  8 44  1  0  0  0  0
  8 45  1  0  0  0  0
 10 46  1  0  0  0  0
 11 47  1  0  0  0  0
 17 48  1  0  0  0  0
 17 49  1  0  0  0  0
 19 50  1  0  0  0  0
 20 51  1  0  0  0  0
 24 52  1  0  0  0  0
 25 53  1  0  0  0  0
 27 54  1  0  0  0  0
 27 55  1  0  0  0  0
 31 56  1  0  0  0  0
 32 57  1  0  0  0  0
 33 58  1  0  0  0  0
M  END
> <IC50[nM]>
1.4

$$$$
CHEMBL3265031
  -OEChem-05192314333D
 Structure written by MMmdl.
 58 63  0     0  0  0  0  0  0999 V2000
   -6.8350   -5.5126   14.3646 C   0  0  0  0  0  0  0  0  0  0  0  0
   -6.2469   -4.1256   14.5196 C   0  0  0  0  0  0  0  0  0  0  0  0
   -7.2986   -3.1815   14.6326 O   0  0  0  0  0  0  0  0  0  0  0  0
   -5.3943   -4.0373   15.7957 C   0  0  0  0  0  0  0  0  0  0  0  0
   -4.6708   -2.7036   15.9246 C   0  0  0  0  0  0  0  0  0  0  0  0
   -3.8604   -2.3511   14.7445 N   0  0  0  0  0  0  0  0  0  0  0  0
   -4.6320   -2.3959   13.4920 C   0  0  0  0  0  0  0  0  0  0  0  0
   -5.3661   -3.7377   13.3163 C   0  0  0  0  0  0  0  0  0  0  0  0
   -2.5090   -2.1078   14.8185 C   0  0  0  0  0  0  0  0  0  0  0  0
   -1.9132   -1.0937   14.0521 C   0  0  0  0  0  0  0  0  0  0  0  0
   -0.5452   -0.8202   14.1949 C   0  0  0  0  0  0  0  0  0  0  0  0
    0.2267   -1.5891   15.0857 C   0  0  0  0  0  0  0  0  0  0  0  0
    1.6093   -1.3706   15.3172 N   0  0  0  0  0  0  0  0  0  0  0  0
    2.5356   -0.4465   14.7610 C   0  0  0  0  0  0  0  0  0  0  0  0
    2.1744    0.3801   13.7331 N   0  0  0  0  0  0  0  0  0  0  0  0
    3.1091    1.2393   13.2182 C   0  0  0  0  0  0  0  0  0  0  0  0
    4.4162    1.2819   13.6993 C   0  0  0  0  0  0  0  0  0  0  0  0
    4.7443    0.4889   14.7568 N   0  0  0  0  0  0  0  0  0  0  0  0
    5.8980    0.3793   15.4854 C   0  0  0  0  0  0  0  0  0  0  0  0
    5.5914   -0.5292   16.5255 C   0  0  0  0  0  0  0  0  0  0  0  0
    4.3788   -1.0451   16.3697 N   0  0  0  0  0  0  0  0  0  0  0  0
    3.8374   -0.3956   15.3255 C   0  0  0  0  0  0  0  0  0  0  0  0
    2.6339    2.1607   12.1207 C   0  0  0  0  0  0  0  0  0  0  0  0
    3.5443    2.6413   11.1620 C   0  0  0  0  0  0  0  0  0  0  0  0
    3.1470    3.4630   10.1086 C   0  0  0  0  0  0  0  0  0  0  0  0
    1.8016    3.8175   10.0163 C   0  0  0  0  0  0  0  0  0  0  0  0
    0.9929    4.5961    9.1183 C   0  0  0  0  0  0  0  0  0  0  0  0
   -0.2479    4.6060    9.5144 N   0  0  0  0  0  0  0  0  0  0  0  0
   -0.3355    3.8922   10.6289 N   0  0  0  0  0  0  0  0  0  0  0  0
    0.8848    3.3596   10.9956 C   0  0  0  0  0  0  0  0  0  0  0  0
    1.2708    2.5377   12.0624 C   0  0  0  0  0  0  0  0  0  0  0  0
   -0.3834   -2.6137   15.8106 C   0  0  0  0  0  0  0  0  0  0  0  0
   -1.7318   -2.8604   15.6854 C   0  0  0  0  0  0  0  0  0  0  0  0
   -6.0221   -6.2484   14.2766 H   0  0  0  0  0  0  0  0  0  0  0  0
   -7.4507   -5.7501   15.2447 H   0  0  0  0  0  0  0  0  0  0  0  0
   -7.4599   -5.5468   13.4600 H   0  0  0  0  0  0  0  0  0  0  0  0
   -6.9333   -2.3100   14.7300 H   0  0  0  0  0  0  0  0  0  0  0  0
   -6.0513   -4.1676   16.6682 H   0  0  0  0  0  0  0  0  0  0  0  0
   -4.6463   -4.8436   15.7763 H   0  0  0  0  0  0  0  0  0  0  0  0
   -5.4219   -1.9147   16.0780 H   0  0  0  0  0  0  0  0  0  0  0  0
   -4.0063   -2.7524   16.7999 H   0  0  0  0  0  0  0  0  0  0  0  0
   -5.3737   -1.5837   13.5023 H   0  0  0  0  0  0  0  0  0  0  0  0
   -3.9441   -2.2536   12.6455 H   0  0  0  0  0  0  0  0  0  0  0  0
   -4.6149   -4.5273   13.1672 H   0  0  0  0  0  0  0  0  0  0  0  0
   -6.0071   -3.6685   12.4250 H   0  0  0  0  0  0  0  0  0  0  0  0
   -2.5080   -0.5246   13.3530 H   0  0  0  0  0  0  0  0  0  0  0  0
   -0.0872   -0.0251   13.6253 H   0  0  0  0  0  0  0  0  0  0  0  0
    2.0076   -1.9822   16.0008 H   0  0  0  0  0  0  0  0  0  0  0  0
    5.0784    1.0032   12.8663 H   0  0  0  0  0  0  0  0  0  0  0  0
    4.6192    2.3212   13.9971 H   0  0  0  0  0  0  0  0  0  0  0  0
    6.8387    0.8784   15.3052 H   0  0  0  0  0  0  0  0  0  0  0  0
    6.2576   -0.7714   17.3403 H   0  0  0  0  0  0  0  0  0  0  0  0
    4.5849    2.3646   11.2449 H   0  0  0  0  0  0  0  0  0  0  0  0
    3.8635    3.8164    9.3818 H   0  0  0  0  0  0  0  0  0  0  0  0
    1.3624    5.1019    8.2385 H   0  0  0  0  0  0  0  0  0  0  0  0
    0.5610    2.2069   12.8061 H   0  0  0  0  0  0  0  0  0  0  0  0
    0.2099   -3.2208   16.4783 H   0  0  0  0  0  0  0  0  0  0  0  0
   -2.1883   -3.6472   16.2676 H   0  0  0  0  0  0  0  0  0  0  0  0
  1  2  1  0  0  0  0
  2  3  1  0  0  0  0
  2  4  1  0  0  0  0
  2  8  1  0  0  0  0
  4  5  1  0  0  0  0
  5  6  1  0  0  0  0
  6  7  1  0  0  0  0
  6  9  1  0  0  0  0
  7  8  1  0  0  0  0
  9 10  2  0  0  0  0
  9 33  1  0  0  0  0
 10 11  1  0  0  0  0
 11 12  2  0  0  0  0
 12 13  1  0  0  0  0
 12 32  1  0  0  0  0
 13 14  1  0  0  0  0
 14 15  2  0  0  0  0
 14 22  1  0  0  0  0
 15 16  1  0  0  0  0
 16 17  1  0  0  0  0
 16 23  2  0  0  0  0
 17 18  1  0  0  0  0
 18 19  1  0  0  0  0
 18 22  1  0  0  0  0
 19 20  2  0  0  0  0
 20 21  1  0  0  0  0
 21 22  2  0  0  0  0
 23 24  1  0  0  0  0
 23 31  1  0  0  0  0
 24 25  2  0  0  0  0
 25 26  1  0  0  0  0
 26 27  2  0  0  0  0
 26 30  1  0  0  0  0
 27 28  1  0  0  0  0
 28 29  2  0  0  0  0
 29 30  1  0  0  0  0
 30 31  2  0  0  0  0
 32 33  2  0  0  0  0
  1 34  1  0  0  0  0
  1 35  1  0  0  0  0
  1 36  1  0  0  0  0
  3 37  1  0  0  0  0
  4 38  1  0  0  0  0
  4 39  1  0  0  0  0
  5 40  1  0  0  0  0
  5 41  1  0  0  0  0
  7 42  1  0  0  0  0
  7 43  1  0  0  0  0
  8 44  1  0  0  0  0
  8 45  1  0  0  0  0
 10 46  1  0  0  0  0
 11 47  1  0  0  0  0
 13 48  1  0  0  0  0
 17 49  1  0  0  0  0
 17 50  1  0  0  0  0
 19 51  1  0  0  0  0
 20 52  1  0  0  0  0
 24 53  1  0  0  0  0
 25 54  1  0  0  0  0
 27 55  1  0  0  0  0
 31 56  1  0  0  0  0
 32 57  1  0  0  0  0
 33 58  1  0  0  0  0
M  END
> <IC50[nM]>
1.4

$$$$
CHEMBL3265031
  -OEChem-05192314333D
 Structure written by MMmdl.
 58 63  0     0  0  0  0  0  0999 V2000
   -6.8350   -5.5126   14.3646 C   0  0  0  0  0  0  0  0  0  0  0  0
   -6.2469   -4.1256   14.5196 C   0  0  0  0  0  0  0  0  0  0  0  0
   -7.2986   -3.1815   14.6326 O   0  0  0  0  0  0  0  0  0  0  0  0
   -5.3943   -4.0373   15.7957 C   0  0  0  0  0  0  0  0  0  0  0  0
   -4.6708   -2.7036   15.9246 C   0  0  0  0  0  0  0  0  0  0  0  0
   -3.8604   -2.3511   14.7445 N   0  0  0  0  0  0  0  0  0  0  0  0
   -4.6320   -2.3959   13.4920 C   0  0  0  0  0  0  0  0  0  0  0  0
   -5.3661   -3.7377   13.3163 C   0  0  0  0  0  0  0  0  0  0  0  0
   -2.5090   -2.1078   14.8185 C   0  0  0  0  0  0  0  0  0  0  0  0
   -1.9132   -1.0937   14.0521 C   0  0  0  0  0  0  0  0  0  0  0  0
   -0.5452   -0.8202   14.1949 C   0  0  0  0  0  0  0  0  0  0  0  0
    0.2267   -1.5891   15.0857 C   0  0  0  0  0  0  0  0  0  0  0  0
    1.6093   -1.3706   15.3172 N   0  0  0  0  0  0  0  0  0  0  0  0
    2.5356   -0.4465   14.7610 C   0  0  0  0  0  0  0  0  0  0  0  0
    2.1744    0.3801   13.7331 N   0  0  0  0  0  0  0  0  0  0  0  0
    3.1091    1.2393   13.2182 C   0  0  0  0  0  0  0  0  0  0  0  0
    4.4162    1.2819   13.6993 C   0  0  0  0  0  0  0  0  0  0  0  0
    4.7443    0.4889   14.7568 N   0  0  0  0  0  0  0  0  0  0  0  0
    5.8980    0.3793   15.4854 C   0  0  0  0  0  0  0  0  0  0  0  0
    5.5914   -0.5292   16.5255 C   0  0  0  0  0  0  0  0  0  0  0  0
    4.3788   -1.0451   16.3697 N   0  0  0  0  0  0  0  0  0  0  0  0
    3.8374   -0.3956   15.3255 C   0  0  0  0  0  0  0  0  0  0  0  0
    2.6339    2.1607   12.1207 C   0  0  0  0  0  0  0  0  0  0  0  0
    3.5443    2.6413   11.1620 C   0  0  0  0  0  0  0  0  0  0  0  0
    3.1470    3.4630   10.1086 C   0  0  0  0  0  0  0  0  0  0  0  0
    1.8016    3.8175   10.0163 C   0  0  0  0  0  0  0  0  0  0  0  0
    0.9929    4.5961    9.1183 C   0  0  0  0  0  0  0  0  0  0  0  0
   -0.2479    4.6060    9.5144 N   0  0  0  0  0  0  0  0  0  0  0  0
   -0.3355    3.8922   10.6289 N   0  0  0  0  0  0  0  0  0  0  0  0
    0.8848    3.3596   10.9956 C   0  0  0  0  0  0  0  0  0  0  0  0
    1.2708    2.5377   12.0624 C   0  0  0  0  0  0  0  0  0  0  0  0
   -0.3834   -2.6137   15.8106 C   0  0  0  0  0  0  0  0  0  0  0  0
   -1.7318   -2.8604   15.6854 C   0  0  0  0  0  0  0  0  0  0  0  0
   -6.0221   -6.2484   14.2766 H   0  0  0  0  0  0  0  0  0  0  0  0
   -7.4507   -5.7501   15.2447 H   0  0  0  0  0  0  0  0  0  0  0  0
   -7.4599   -5.5468   13.4600 H   0  0  0  0  0  0  0  0  0  0  0  0
   -6.9333   -2.3100   14.7300 H   0  0  0  0  0  0  0  0  0  0  0  0
   -6.0513   -4.1676   16.6682 H   0  0  0  0  0  0  0  0  0  0  0  0
   -4.6463   -4.8436   15.7763 H   0  0  0  0  0  0  0  0  0  0  0  0
   -5.4219   -1.9147   16.0780 H   0  0  0  0  0  0  0  0  0  0  0  0
   -4.0063   -2.7524   16.7999 H   0  0  0  0  0  0  0  0  0  0  0  0
   -5.3737   -1.5837   13.5023 H   0  0  0  0  0  0  0  0  0  0  0  0
   -3.9441   -2.2536   12.6455 H   0  0  0  0  0  0  0  0  0  0  0  0
   -4.6149   -4.5273   13.1672 H   0  0  0  0  0  0  0  0  0  0  0  0
   -6.0071   -3.6685   12.4250 H   0  0  0  0  0  0  0  0  0  0  0  0
   -2.5080   -0.5246   13.3530 H   0  0  0  0  0  0  0  0  0  0  0  0
   -0.0872   -0.0251   13.6253 H   0  0  0  0  0  0  0  0  0  0  0  0
    1.2452    0.3578   13.3641 H   0  0  0  0  0  0  0  0  0  0  0  0
    5.0784    1.0032   12.8663 H   0  0  0  0  0  0  0  0  0  0  0  0
    4.6192    2.3212   13.9971 H   0  0  0  0  0  0  0  0  0  0  0  0
    6.8387    0.8784   15.3052 H   0  0  0  0  0  0  0  0  0  0  0  0
    6.2576   -0.7714   17.3403 H   0  0  0  0  0  0  0  0  0  0  0  0
    4.5849    2.3646   11.2449 H   0  0  0  0  0  0  0  0  0  0  0  0
    3.8635    3.8164    9.3818 H   0  0  0  0  0  0  0  0  0  0  0  0
    1.3624    5.1019    8.2385 H   0  0  0  0  0  0  0  0  0  0  0  0
    0.5610    2.2069   12.8061 H   0  0  0  0  0  0  0  0  0  0  0  0
    0.2099   -3.2208   16.4783 H   0  0  0  0  0  0  0  0  0  0  0  0
   -2.1883   -3.6472   16.2676 H   0  0  0  0  0  0  0  0  0  0  0  0
  1  2  1  0  0  0  0
  2  3  1  0  0  0  0
  2  4  1  0  0  0  0
  2  8  1  0  0  0  0
  4  5  1  0  0  0  0
  5  6  1  0  0  0  0
  6  7  1  0  0  0  0
  6  9  1  0  0  0  0
  7  8  1  0  0  0  0
  9 10  2  0  0  0  0
  9 33  1  0  0  0  0
 10 11  1  0  0  0  0
 11 12  2  0  0  0  0
 12 13  1  0  0  0  0
 12 32  1  0  0  0  0
 13 14  2  0  0  0  0
 14 15  1  0  0  0  0
 14 22  1  0  0  0  0
 15 16  1  0  0  0  0
 16 17  1  0  0  0  0
 16 23  2  0  0  0  0
 17 18  1  0  0  0  0
 18 19  1  0  0  0  0
 18 22  1  0  0  0  0
 19 20  2  0  0  0  0
 20 21  1  0  0  0  0
 21 22  2  0  0  0  0
 23 24  1  0  0  0  0
 23 31  1  0  0  0  0
 24 25  2  0  0  0  0
 25 26  1  0  0  0  0
 26 27  2  0  0  0  0
 26 30  1  0  0  0  0
 27 28  1  0  0  0  0
 28 29  2  0  0  0  0
 29 30  1  0  0  0  0
 30 31  2  0  0  0  0
 32 33  2  0  0  0  0
  1 34  1  0  0  0  0
  1 35  1  0  0  0  0
  1 36  1  0  0  0  0
  3 37  1  0  0  0  0
  4 38  1  0  0  0  0
  4 39  1  0  0  0  0
  5 40  1  0  0  0  0
  5 41  1  0  0  0  0
  7 42  1  0  0  0  0
  7 43  1  0  0  0  0
  8 44  1  0  0  0  0
  8 45  1  0  0  0  0
 10 46  1  0  0  0  0
 11 47  1  0  0  0  0
 15 48  1  0  0  0  0
 17 49  1  0  0  0  0
 17 50  1  0  0  0  0
 19 51  1  0  0  0  0
 20 52  1  0  0  0  0
 24 53  1  0  0  0  0
 25 54  1  0  0  0  0
 27 55  1  0  0  0  0
 31 56  1  0  0  0  0
 32 57  1  0  0  0  0
 33 58  1  0  0  0  0
M  END
> <IC50[nM]>
1.4

$$$$
CHEMBL3265031
  -OEChem-05192314333D
 Structure written by MMmdl.
 58 63  0     0  0  0  0  0  0999 V2000
   -6.8350   -5.5126   14.3646 C   0  0  0  0  0  0  0  0  0  0  0  0
   -6.2469   -4.1256   14.5196 C   0  0  0  0  0  0  0  0  0  0  0  0
   -7.2986   -3.1815   14.6326 O   0  0  0  0  0  0  0  0  0  0  0  0
   -5.3943   -4.0373   15.7957 C   0  0  0  0  0  0  0  0  0  0  0  0
   -4.6708   -2.7036   15.9246 C   0  0  0  0  0  0  0  0  0  0  0  0
   -3.8604   -2.3511   14.7445 N   0  0  0  0  0  0  0  0  0  0  0  0
   -4.6320   -2.3959   13.4920 C   0  0  0  0  0  0  0  0  0  0  0  0
   -5.3661   -3.7377   13.3163 C   0  0  0  0  0  0  0  0  0  0  0  0
   -2.5090   -2.1078   14.8185 C   0  0  0  0  0  0  0  0  0  0  0  0
   -1.9132   -1.0937   14.0521 C   0  0  0  0  0  0  0  0  0  0  0  0
   -0.5452   -0.8202   14.1949 C   0  0  0  0  0  0  0  0  0  0  0  0
    0.2267   -1.5891   15.0857 C   0  0  0  0  0  0  0  0  0  0  0  0
    1.6093   -1.3706   15.3172 N   0  0  0  0  0  0  0  0  0  0  0  0
    2.5356   -0.4465   14.7610 C   0  0  0  0  0  0  0  0  0  0  0  0
    2.1744    0.3801   13.7331 N   0  0  0  0  0  0  0  0  0  0  0  0
    3.1091    1.2393   13.2182 C   0  0  0  0  0  0  0  0  0  0  0  0
    4.4162    1.2819   13.6993 C   0  0  0  0  0  0  0  0  0  0  0  0
    4.7443    0.4889   14.7568 N   0  0  0  0  0  0  0  0  0  0  0  0
    5.8980    0.3793   15.4854 C   0  0  0  0  0  0  0  0  0  0  0  0
    5.5914   -0.5292   16.5255 C   0  0  0  0  0  0  0  0  0  0  0  0
    4.3788   -1.0451   16.3697 N   0  0  0  0  0  0  0  0  0  0  0  0
    3.8374   -0.3956   15.3255 C   0  0  0  0  0  0  0  0  0  0  0  0
    2.6339    2.1607   12.1207 C   0  0  0  0  0  0  0  0  0  0  0  0
    3.5443    2.6413   11.1620 C   0  0  0  0  0  0  0  0  0  0  0  0
    3.1470    3.4630   10.1086 C   0  0  0  0  0  0  0  0  0  0  0  0
    1.8016    3.8175   10.0163 C   0  0  0  0  0  0  0  0  0  0  0  0
    0.9929    4.5961    9.1183 C   0  0  0  0  0  0  0  0  0  0  0  0
   -0.2479    4.6060    9.5144 N   0  0  0  0  0  0  0  0  0  0  0  0
   -0.3355    3.8922   10.6289 N   0  0  0  0  0  0  0  0  0  0  0  0
    0.8848    3.3596   10.9956 C   0  0  0  0  0  0  0  0  0  0  0  0
    1.2708    2.5377   12.0624 C   0  0  0  0  0  0  0  0  0  0  0  0
   -0.3834   -2.6137   15.8106 C   0  0  0  0  0  0  0  0  0  0  0  0
   -1.7318   -2.8604   15.6854 C   0  0  0  0  0  0  0  0  0  0  0  0
   -6.0221   -6.2484   14.2766 H   0  0  0  0  0  0  0  0  0  0  0  0
   -7.4507   -5.7501   15.2447 H   0  0  0  0  0  0  0  0  0  0  0  0
   -7.4599   -5.5468   13.4600 H   0  0  0  0  0  0  0  0  0  0  0  0
   -6.9333   -2.3100   14.7300 H   0  0  0  0  0  0  0  0  0  0  0  0
   -6.0513   -4.1676   16.6682 H   0  0  0  0  0  0  0  0  0  0  0  0
   -4.6463   -4.8436   15.7763 H   0  0  0  0  0  0  0  0  0  0  0  0
   -5.4219   -1.9147   16.0780 H   0  0  0  0  0  0  0  0  0  0  0  0
   -4.0063   -2.7524   16.7999 H   0  0  0  0  0  0  0  0  0  0  0  0
   -5.3737   -1.5837   13.5023 H   0  0  0  0  0  0  0  0  0  0  0  0
   -3.9441   -2.2536   12.6455 H   0  0  0  0  0  0  0  0  0  0  0  0
   -4.6149   -4.5273   13.1672 H   0  0  0  0  0  0  0  0  0  0  0  0
   -6.0071   -3.6685   12.4250 H   0  0  0  0  0  0  0  0  0  0  0  0
   -2.3266   -2.8340   14.0127 H   0  0  0  0  0  0  0  0  0  0  0  0
   -2.5080   -0.5246   13.3530 H   0  0  0  0  0  0  0  0  0  0  0  0
   -0.0872   -0.0251   13.6253 H   0  0  0  0  0  0  0  0  0  0  0  0
    5.1518    1.9286   13.2442 H   0  0  0  0  0  0  0  0  0  0  0  0
    6.8387    0.8784   15.3052 H   0  0  0  0  0  0  0  0  0  0  0  0
    6.2576   -0.7714   17.3403 H   0  0  0  0  0  0  0  0  0  0  0  0
    4.5849    2.3646   11.2449 H   0  0  0  0  0  0  0  0  0  0  0  0
    3.8635    3.8164    9.3818 H   0  0  0  0  0  0  0  0  0  0  0  0
    1.3726    5.6281    9.0915 H   0  0  0  0  0  0  0  0  0  0  0  0
    1.0477    4.1590    8.1104 H   0  0  0  0  0  0  0  0  0  0  0  0
    0.5610    2.2069   12.8061 H   0  0  0  0  0  0  0  0  0  0  0  0
    0.2099   -3.2208   16.4783 H   0  0  0  0  0  0  0  0  0  0  0  0
   -2.1883   -3.6472   16.2676 H   0  0  0  0  0  0  0  0  0  0  0  0
  1  2  1  0  0  0  0
  2  3  1  0  0  0  0
  2  4  1  0  0  0  0
  2  8  1  0  0  0  0
  4  5  1  0  0  0  0
  5  6  1  0  0  0  0
  6  7  1  0  0  0  0
  6  9  1  0  0  0  0
  7  8  1  0  0  0  0
  9 10  1  0  0  0  0
  9 33  1  0  0  0  0
 10 11  2  0  0  0  0
 11 12  1  0  0  0  0
 12 13  2  0  0  0  0
 12 32  1  0  0  0  0
 13 14  1  0  0  0  0
 14 15  2  0  0  0  0
 14 22  1  0  0  0  0
 15 16  1  0  0  0  0
 16 17  2  0  0  0  0
 16 23  1  0  0  0  0
 17 18  1  0  0  0  0
 18 19  1  0  0  0  0
 18 22  1  0  0  0  0
 19 20  2  0  0  0  0
 20 21  1  0  0  0  0
 21 22  2  0  0  0  0
 23 24  2  0  0  0  0
 23 31  1  0  0  0  0
 24 25  1  0  0  0  0
 25 26  2  0  0  0  0
 26 27  1  0  0  0  0
 26 30  1  0  0  0  0
 27 28  1  0  0  0  0
 28 29  2  0  0  0  0
 29 30  1  0  0  0  0
 30 31  2  0  0  0  0
 32 33  2  0  0  0  0
  1 34  1  0  0  0  0
  1 35  1  0  0  0  0
  1 36  1  0  0  0  0
  3 37  1  0  0  0  0
  4 38  1  0  0  0  0
  4 39  1  0  0  0  0
  5 40  1  0  0  0  0
  5 41  1  0  0  0  0
  7 42  1  0  0  0  0
  7 43  1  0  0  0  0
  8 44  1  0  0  0  0
  8 45  1  0  0  0  0
  9 46  1  0  0  0  0
 10 47  1  0  0  0  0
 11 48  1  0  0  0  0
 17 49  1  0  0  0  0
 19 50  1  0  0  0  0
 20 51  1  0  0  0  0
 24 52  1  0  0  0  0
 25 53  1  0  0  0  0
 27 54  1  0  0  0  0
 27 55  1  0  0  0  0
 31 56  1  0  0  0  0
 32 57  1  0  0  0  0
 33 58  1  0  0  0  0
M  END
> <IC50[nM]>
1.4

$$$$
CHEMBL3265031
  -OEChem-05192314333D
 Structure written by MMmdl.
 58 63  0     0  0  0  0  0  0999 V2000
   -6.8350   -5.5126   14.3646 C   0  0  0  0  0  0  0  0  0  0  0  0
   -6.2469   -4.1256   14.5196 C   0  0  0  0  0  0  0  0  0  0  0  0
   -7.2986   -3.1815   14.6326 O   0  0  0  0  0  0  0  0  0  0  0  0
   -5.3943   -4.0373   15.7957 C   0  0  0  0  0  0  0  0  0  0  0  0
   -4.6708   -2.7036   15.9246 C   0  0  0  0  0  0  0  0  0  0  0  0
   -3.8604   -2.3511   14.7445 N   0  0  0  0  0  0  0  0  0  0  0  0
   -4.6320   -2.3959   13.4920 C   0  0  0  0  0  0  0  0  0  0  0  0
   -5.3661   -3.7377   13.3163 C   0  0  0  0  0  0  0  0  0  0  0  0
   -2.5090   -2.1078   14.8185 C   0  0  0  0  0  0  0  0  0  0  0  0
   -1.9132   -1.0937   14.0521 C   0  0  0  0  0  0  0  0  0  0  0  0
   -0.5452   -0.8202   14.1949 C   0  0  0  0  0  0  0  0  0  0  0  0
    0.2267   -1.5891   15.0857 C   0  0  0  0  0  0  0  0  0  0  0  0
    1.6093   -1.3706   15.3172 N   0  0  0  0  0  0  0  0  0  0  0  0
    2.5356   -0.4465   14.7610 C   0  0  0  0  0  0  0  0  0  0  0  0
    2.1744    0.3801   13.7331 N   0  0  0  0  0  0  0  0  0  0  0  0
    3.1091    1.2393   13.2182 C   0  0  0  0  0  0  0  0  0  0  0  0
    4.4162    1.2819   13.6993 C   0  0  0  0  0  0  0  0  0  0  0  0
    4.7443    0.4889   14.7568 N   0  0  0  0  0  0  0  0  0  0  0  0
    5.8980    0.3793   15.4854 C   0  0  0  0  0  0  0  0  0  0  0  0
    5.5914   -0.5292   16.5255 C   0  0  0  0  0  0  0  0  0  0  0  0
    4.3788   -1.0451   16.3697 N   0  0  0  0  0  0  0  0  0  0  0  0
    3.8374   -0.3956   15.3255 C   0  0  0  0  0  0  0  0  0  0  0  0
    2.6339    2.1607   12.1207 C   0  0  0  0  0  0  0  0  0  0  0  0
    3.5443    2.6413   11.1620 C   0  0  0  0  0  0  0  0  0  0  0  0
    3.1470    3.4630   10.1086 C   0  0  0  0  0  0  0  0  0  0  0  0
    1.8016    3.8175   10.0163 C   0  0  0  0  0  0  0  0  0  0  0  0
    0.9929    4.5961    9.1183 C   0  0  0  0  0  0  0  0  0  0  0  0
   -0.2479    4.6060    9.5144 N   0  0  0  0  0  0  0  0  0  0  0  0
   -0.3355    3.8922   10.6289 N   0  0  0  0  0  0  0  0  0  0  0  0
    0.8848    3.3596   10.9956 C   0  0  0  0  0  0  0  0  0  0  0  0
    1.2708    2.5377   12.0624 C   0  0  0  0  0  0  0  0  0  0  0  0
   -0.3834   -2.6137   15.8106 C   0  0  0  0  0  0  0  0  0  0  0  0
   -1.7318   -2.8604   15.6854 C   0  0  0  0  0  0  0  0  0  0  0  0
   -6.0221   -6.2484   14.2766 H   0  0  0  0  0  0  0  0  0  0  0  0
   -7.4507   -5.7501   15.2447 H   0  0  0  0  0  0  0  0  0  0  0  0
   -7.4599   -5.5468   13.4600 H   0  0  0  0  0  0  0  0  0  0  0  0
   -6.9333   -2.3100   14.7300 H   0  0  0  0  0  0  0  0  0  0  0  0
   -6.0513   -4.1676   16.6682 H   0  0  0  0  0  0  0  0  0  0  0  0
   -4.6463   -4.8436   15.7763 H   0  0  0  0  0  0  0  0  0  0  0  0
   -5.4219   -1.9147   16.0780 H   0  0  0  0  0  0  0  0  0  0  0  0
   -4.0063   -2.7524   16.7999 H   0  0  0  0  0  0  0  0  0  0  0  0
   -5.3737   -1.5837   13.5023 H   0  0  0  0  0  0  0  0  0  0  0  0
   -3.9441   -2.2536   12.6455 H   0  0  0  0  0  0  0  0  0  0  0  0
   -4.6149   -4.5273   13.1672 H   0  0  0  0  0  0  0  0  0  0  0  0
   -6.0071   -3.6685   12.4250 H   0  0  0  0  0  0  0  0  0  0  0  0
   -2.5080   -0.5246   13.3530 H   0  0  0  0  0  0  0  0  0  0  0  0
   -0.0872   -0.0251   13.6253 H   0  0  0  0  0  0  0  0  0  0  0  0
    5.1518    1.9286   13.2442 H   0  0  0  0  0  0  0  0  0  0  0  0
    6.8387    0.8784   15.3052 H   0  0  0  0  0  0  0  0  0  0  0  0
    6.2576   -0.7714   17.3403 H   0  0  0  0  0  0  0  0  0  0  0  0
    4.5849    2.3646   11.2449 H   0  0  0  0  0  0  0  0  0  0  0  0
    3.8635    3.8164    9.3818 H   0  0  0  0  0  0  0  0  0  0  0  0
    1.3726    5.6281    9.0915 H   0  0  0  0  0  0  0  0  0  0  0  0
    1.0477    4.1590    8.1104 H   0  0  0  0  0  0  0  0  0  0  0  0
    0.5610    2.2069   12.8061 H   0  0  0  0  0  0  0  0  0  0  0  0
    0.1327   -3.5445   15.5329 H   0  0  0  0  0  0  0  0  0  0  0  0
   -0.2017   -2.3968   16.8736 H   0  0  0  0  0  0  0  0  0  0  0  0
   -2.1883   -3.6472   16.2676 H   0  0  0  0  0  0  0  0  0  0  0  0
  1  2  1  0  0  0  0
  2  3  1  0  0  0  0
  2  4  1  0  0  0  0
  2  8  1  0  0  0  0
  4  5  1  0  0  0  0
  5  6  1  0  0  0  0
  6  7  1  0  0  0  0
  6  9  1  0  0  0  0
  7  8  1  0  0  0  0
  9 10  1  0  0  0  0
  9 33  2  0  0  0  0
 10 11  2  0  0  0  0
 11 12  1  0  0  0  0
 12 13  2  0  0  0  0
 12 32  1  0  0  0  0
 13 14  1  0  0  0  0
 14 15  2  0  0  0  0
 14 22  1  0  0  0  0
 15 16  1  0  0  0  0
 16 17  2  0  0  0  0
 16 23  1  0  0  0  0
 17 18  1  0  0  0  0
 18 19  1  0  0  0  0
 18 22  1  0  0  0  0
 19 20  2  0  0  0  0
 20 21  1  0  0  0  0
 21 22  2  0  0  0  0
 23 24  2  0  0  0  0
 23 31  1  0  0  0  0
 24 25  1  0  0  0  0
 25 26  2  0  0  0  0
 26 27  1  0  0  0  0
 26 30  1  0  0  0  0
 27 28  1  0  0  0  0
 28 29  2  0  0  0  0
 29 30  1  0  0  0  0
 30 31  2  0  0  0  0
 32 33  1  0  0  0  0
  1 34  1  0  0  0  0
  1 35  1  0  0  0  0
  1 36  1  0  0  0  0
  3 37  1  0  0  0  0
  4 38  1  0  0  0  0
  4 39  1  0  0  0  0
  5 40  1  0  0  0  0
  5 41  1  0  0  0  0
  7 42  1  0  0  0  0
  7 43  1  0  0  0  0
  8 44  1  0  0  0  0
  8 45  1  0  0  0  0
 10 46  1  0  0  0  0
 11 47  1  0  0  0  0
 17 48  1  0  0  0  0
 19 49  1  0  0  0  0
 20 50  1  0  0  0  0
 24 51  1  0  0  0  0
 25 52  1  0  0  0  0
 27 53  1  0  0  0  0
 27 54  1  0  0  0  0
 31 55  1  0  0  0  0
 32 56  1  0  0  0  0
 32 57  1  0  0  0  0
 33 58  1  0  0  0  0
M  END
> <IC50[nM]>
1.4

$$$$
CHEMBL3265031
  -OEChem-05192314333D
 Structure written by MMmdl.
 58 63  0     1  0  0  0  0  0999 V2000
   -6.8350   -5.5126   14.3646 C   0  0  0  0  0  0  0  0  0  0  0  0
   -6.2469   -4.1256   14.5196 C   0  0  0  0  0  0  0  0  0  0  0  0
   -7.2986   -3.1815   14.6326 O   0  0  0  0  0  0  0  0  0  0  0  0
   -5.3943   -4.0373   15.7957 C   0  0  0  0  0  0  0  0  0  0  0  0
   -4.6708   -2.7036   15.9246 C   0  0  0  0  0  0  0  0  0  0  0  0
   -3.8604   -2.3511   14.7445 N   0  0  0  0  0  0  0  0  0  0  0  0
   -4.6320   -2.3959   13.4920 C   0  0  0  0  0  0  0  0  0  0  0  0
   -5.3661   -3.7377   13.3163 C   0  0  0  0  0  0  0  0  0  0  0  0
   -2.5090   -2.1078   14.8185 C   0  0  0  0  0  0  0  0  0  0  0  0
   -1.9132   -1.0937   14.0521 C   0  0  0  0  0  0  0  0  0  0  0  0
   -0.5452   -0.8202   14.1949 C   0  0  0  0  0  0  0  0  0  0  0  0
    0.2267   -1.5891   15.0857 C   0  0  0  0  0  0  0  0  0  0  0  0
    1.6093   -1.3706   15.3172 N   0  0  0  0  0  0  0  0  0  0  0  0
    2.5356   -0.4465   14.7610 C   0  0  0  0  0  0  0  0  0  0  0  0
    2.1744    0.3801   13.7331 N   0  0  0  0  0  0  0  0  0  0  0  0
    3.1091    1.2393   13.2182 C   0  0  0  0  0  0  0  0  0  0  0  0
    4.4162    1.2819   13.6993 C   0  0  0  0  0  0  0  0  0  0  0  0
    4.7443    0.4889   14.7568 N   0  0  0  0  0  0  0  0  0  0  0  0
    5.8980    0.3793   15.4854 C   0  0  0  0  0  0  0  0  0  0  0  0
    5.5914   -0.5292   16.5255 C   0  0  0  0  0  0  0  0  0  0  0  0
    4.3788   -1.0451   16.3697 N   0  0  0  0  0  0  0  0  0  0  0  0
    3.8374   -0.3956   15.3255 C   0  0  0  0  0  0  0  0  0  0  0  0
    2.6339    2.1607   12.1207 C   0  0  0  0  0  0  0  0  0  0  0  0
    3.5443    2.6413   11.1620 C   0  0  0  0  0  0  0  0  0  0  0  0
    3.1470    3.4630   10.1086 C   0  0  0  0  0  0  0  0  0  0  0  0
    1.8016    3.8175   10.0163 C   0  0  3  0  0  0  0  0  0  0  0  0
    0.9929    4.5961    9.1183 C   0  0  0  0  0  0  0  0  0  0  0  0
   -0.2479    4.6060    9.5144 N   0  0  0  0  0  0  0  0  0  0  0  0
   -0.3355    3.8922   10.6289 N   0  0  0  0  0  0  0  0  0  0  0  0
    0.8848    3.3596   10.9956 C   0  0  0  0  0  0  0  0  0  0  0  0
    1.2708    2.5377   12.0624 C   0  0  0  0  0  0  0  0  0  0  0  0
   -0.3834   -2.6137   15.8106 C   0  0  0  0  0  0  0  0  0  0  0  0
   -1.7318   -2.8604   15.6854 C   0  0  0  0  0  0  0  0  0  0  0  0
   -6.0221   -6.2484   14.2766 H   0  0  0  0  0  0  0  0  0  0  0  0
   -7.4507   -5.7501   15.2447 H   0  0  0  0  0  0  0  0  0  0  0  0
   -7.4599   -5.5468   13.4600 H   0  0  0  0  0  0  0  0  0  0  0  0
   -6.9333   -2.3100   14.7300 H   0  0  0  0  0  0  0  0  0  0  0  0
   -6.0513   -4.1676   16.6682 H   0  0  0  0  0  0  0  0  0  0  0  0
   -4.6463   -4.8436   15.7763 H   0  0  0  0  0  0  0  0  0  0  0  0
   -5.4219   -1.9147   16.0780 H   0  0  0  0  0  0  0  0  0  0  0  0
   -4.0063   -2.7524   16.7999 H   0  0  0  0  0  0  0  0  0  0  0  0
   -5.3737   -1.5837   13.5023 H   0  0  0  0  0  0  0  0  0  0  0  0
   -3.9441   -2.2536   12.6455 H   0  0  0  0  0  0  0  0  0  0  0  0
   -4.6149   -4.5273   13.1672 H   0  0  0  0  0  0  0  0  0  0  0  0
   -6.0071   -3.6685   12.4250 H   0  0  0  0  0  0  0  0  0  0  0  0
   -2.5080   -0.5246   13.3530 H   0  0  0  0  0  0  0  0  0  0  0  0
   -0.0872   -0.0251   13.6253 H   0  0  0  0  0  0  0  0  0  0  0  0
    2.0076   -1.9822   16.0008 H   0  0  0  0  0  0  0  0  0  0  0  0
    5.1518    1.9286   13.2442 H   0  0  0  0  0  0  0  0  0  0  0  0
    6.8387    0.8784   15.3052 H   0  0  0  0  0  0  0  0  0  0  0  0
    6.2576   -0.7714   17.3403 H   0  0  0  0  0  0  0  0  0  0  0  0
    4.5849    2.3646   11.2449 H   0  0  0  0  0  0  0  0  0  0  0  0
    3.8635    3.8164    9.3818 H   0  0  0  0  0  0  0  0  0  0  0  0
    1.6061    2.9187    9.4130 H   0  0  0  0  0  0  0  0  0  0  0  0
    1.3624    5.1019    8.2385 H   0  0  0  0  0  0  0  0  0  0  0  0
    0.5610    2.2069   12.8061 H   0  0  0  0  0  0  0  0  0  0  0  0
    0.2099   -3.2208   16.4783 H   0  0  0  0  0  0  0  0  0  0  0  0
   -2.1883   -3.6472   16.2676 H   0  0  0  0  0  0  0  0  0  0  0  0
  1  2  1  0  0  0  0
  2  3  1  0  0  0  0
  2  4  1  0  0  0  0
  2  8  1  0  0  0  0
  4  5  1  0  0  0  0
  5  6  1  0  0  0  0
  6  7  1  0  0  0  0
  6  9  1  0  0  0  0
  7  8  1  0  0  0  0
  9 10  2  0  0  0  0
  9 33  1  0  0  0  0
 10 11  1  0  0  0  0
 11 12  2  0  0  0  0
 12 13  1  0  0  0  0
 12 32  1  0  0  0  0
 13 14  1  0  0  0  0
 14 15  2  0  0  0  0
 14 22  1  0  0  0  0
 15 16  1  0  0  0  0
 16 17  2  0  0  0  0
 16 23  1  0  0  0  0
 17 18  1  0  0  0  0
 18 19  1  0  0  0  0
 18 22  1  0  0  0  0
 19 20  2  0  0  0  0
 20 21  1  0  0  0  0
 21 22  2  0  0  0  0
 23 24  1  0  0  0  0
 23 31  2  0  0  0  0
 24 25  2  0  0  0  0
 25 26  1  0  0  0  0
 26 27  1  0  0  0  0
 26 30  1  0  0  0  0
 27 28  2  0  0  0  0
 28 29  1  0  0  0  0
 29 30  2  0  0  0  0
 30 31  1  0  0  0  0
 32 33  2  0  0  0  0
  1 34  1  0  0  0  0
  1 35  1  0  0  0  0
  1 36  1  0  0  0  0
  3 37  1  0  0  0  0
  4 38  1  0  0  0  0
  4 39  1  0  0  0  0
  5 40  1  0  0  0  0
  5 41  1  0  0  0  0
  7 42  1  0  0  0  0
  7 43  1  0  0  0  0
  8 44  1  0  0  0  0
  8 45  1  0  0  0  0
 10 46  1  0  0  0  0
 11 47  1  0  0  0  0
 13 48  1  0  0  0  0
 17 49  1  0  0  0  0
 19 50  1  0  0  0  0
 20 51  1  0  0  0  0
 24 52  1  0  0  0  0
 25 53  1  0  0  0  0
 26 54  1  0  0  0  0
 27 55  1  0  0  0  0
 31 56  1  0  0  0  0
 32 57  1  0  0  0  0
 33 58  1  0  0  0  0
M  END
> <IC50[nM]>
1.4

$$$$
CHEMBL3265031
  -OEChem-05192314333D
 Structure written by MMmdl.
 58 63  0     0  0  0  0  0  0999 V2000
   -6.8350   -5.5126   14.3646 C   0  0  0  0  0  0  0  0  0  0  0  0
   -6.2469   -4.1256   14.5196 C   0  0  0  0  0  0  0  0  0  0  0  0
   -7.2986   -3.1815   14.6326 O   0  0  0  0  0  0  0  0  0  0  0  0
   -5.3943   -4.0373   15.7957 C   0  0  0  0  0  0  0  0  0  0  0  0
   -4.6708   -2.7036   15.9246 C   0  0  0  0  0  0  0  0  0  0  0  0
   -3.8604   -2.3511   14.7445 N   0  0  0  0  0  0  0  0  0  0  0  0
   -4.6320   -2.3959   13.4920 C   0  0  0  0  0  0  0  0  0  0  0  0
   -5.3661   -3.7377   13.3163 C   0  0  0  0  0  0  0  0  0  0  0  0
   -2.5090   -2.1078   14.8185 C   0  0  0  0  0  0  0  0  0  0  0  0
   -1.9132   -1.0937   14.0521 C   0  0  0  0  0  0  0  0  0  0  0  0
   -0.5452   -0.8202   14.1949 C   0  0  0  0  0  0  0  0  0  0  0  0
    0.2267   -1.5891   15.0857 C   0  0  0  0  0  0  0  0  0  0  0  0
    1.6093   -1.3706   15.3172 N   0  0  0  0  0  0  0  0  0  0  0  0
    2.5356   -0.4465   14.7610 C   0  0  0  0  0  0  0  0  0  0  0  0
    2.1744    0.3801   13.7331 N   0  0  0  0  0  0  0  0  0  0  0  0
    3.1091    1.2393   13.2182 C   0  0  0  0  0  0  0  0  0  0  0  0
    4.4162    1.2819   13.6993 C   0  0  0  0  0  0  0  0  0  0  0  0
    4.7443    0.4889   14.7568 N   0  0  0  0  0  0  0  0  0  0  0  0
    5.8980    0.3793   15.4854 C   0  0  0  0  0  0  0  0  0  0  0  0
    5.5914   -0.5292   16.5255 C   0  0  0  0  0  0  0  0  0  0  0  0
    4.3788   -1.0451   16.3697 N   0  0  0  0  0  0  0  0  0  0  0  0
    3.8374   -0.3956   15.3255 C   0  0  0  0  0  0  0  0  0  0  0  0
    2.6339    2.1607   12.1207 C   0  0  0  0  0  0  0  0  0  0  0  0
    3.5443    2.6413   11.1620 C   0  0  0  0  0  0  0  0  0  0  0  0
    3.1470    3.4630   10.1086 C   0  0  0  0  0  0  0  0  0  0  0  0
    1.8016    3.8175   10.0163 C   0  0  0  0  0  0  0  0  0  0  0  0
    0.9929    4.5961    9.1183 C   0  0  0  0  0  0  0  0  0  0  0  0
   -0.2479    4.6060    9.5144 N   0  0  0  0  0  0  0  0  0  0  0  0
   -0.3355    3.8922   10.6289 N   0  0  0  0  0  0  0  0  0  0  0  0
    0.8848    3.3596   10.9956 C   0  0  0  0  0  0  0  0  0  0  0  0
    1.2708    2.5377   12.0624 C   0  0  0  0  0  0  0  0  0  0  0  0
   -0.3834   -2.6137   15.8106 C   0  0  0  0  0  0  0  0  0  0  0  0
   -1.7318   -2.8604   15.6854 C   0  0  0  0  0  0  0  0  0  0  0  0
   -6.0221   -6.2484   14.2766 H   0  0  0  0  0  0  0  0  0  0  0  0
   -7.4507   -5.7501   15.2447 H   0  0  0  0  0  0  0  0  0  0  0  0
   -7.4599   -5.5468   13.4600 H   0  0  0  0  0  0  0  0  0  0  0  0
   -6.9333   -2.3100   14.7300 H   0  0  0  0  0  0  0  0  0  0  0  0
   -6.0513   -4.1676   16.6682 H   0  0  0  0  0  0  0  0  0  0  0  0
   -4.6463   -4.8436   15.7763 H   0  0  0  0  0  0  0  0  0  0  0  0
   -5.4219   -1.9147   16.0780 H   0  0  0  0  0  0  0  0  0  0  0  0
   -4.0063   -2.7524   16.7999 H   0  0  0  0  0  0  0  0  0  0  0  0
   -5.3737   -1.5837   13.5023 H   0  0  0  0  0  0  0  0  0  0  0  0
   -3.9441   -2.2536   12.6455 H   0  0  0  0  0  0  0  0  0  0  0  0
   -4.6149   -4.5273   13.1672 H   0  0  0  0  0  0  0  0  0  0  0  0
   -6.0071   -3.6685   12.4250 H   0  0  0  0  0  0  0  0  0  0  0  0
   -2.5080   -0.5246   13.3530 H   0  0  0  0  0  0  0  0  0  0  0  0
   -0.0872   -0.0251   13.6253 H   0  0  0  0  0  0  0  0  0  0  0  0
    2.0076   -1.9822   16.0008 H   0  0  0  0  0  0  0  0  0  0  0  0
    5.1518    1.9286   13.2442 H   0  0  0  0  0  0  0  0  0  0  0  0
    6.8387    0.8784   15.3052 H   0  0  0  0  0  0  0  0  0  0  0  0
    6.2576   -0.7714   17.3403 H   0  0  0  0  0  0  0  0  0  0  0  0
    4.3085    3.2034   11.7187 H   0  0  0  0  0  0  0  0  0  0  0  0
    4.0040    1.7537   10.7028 H   0  0  0  0  0  0  0  0  0  0  0  0
    3.8635    3.8164    9.3818 H   0  0  0  0  0  0  0  0  0  0  0  0
    1.3624    5.1019    8.2385 H   0  0  0  0  0  0  0  0  0  0  0  0
    0.5610    2.2069   12.8061 H   0  0  0  0  0  0  0  0  0  0  0  0
    0.2099   -3.2208   16.4783 H   0  0  0  0  0  0  0  0  0  0  0  0
   -2.1883   -3.6472   16.2676 H   0  0  0  0  0  0  0  0  0  0  0  0
  1  2  1  0  0  0  0
  2  3  1  0  0  0  0
  2  4  1  0  0  0  0
  2  8  1  0  0  0  0
  4  5  1  0  0  0  0
  5  6  1  0  0  0  0
  6  7  1  0  0  0  0
  6  9  1  0  0  0  0
  7  8  1  0  0  0  0
  9 10  2  0  0  0  0
  9 33  1  0  0  0  0
 10 11  1  0  0  0  0
 11 12  2  0  0  0  0
 12 13  1  0  0  0  0
 12 32  1  0  0  0  0
 13 14  1  0  0  0  0
 14 15  2  0  0  0  0
 14 22  1  0  0  0  0
 15 16  1  0  0  0  0
 16 17  2  0  0  0  0
 16 23  1  0  0  0  0
 17 18  1  0  0  0  0
 18 19  1  0  0  0  0
 18 22  1  0  0  0  0
 19 20  2  0  0  0  0
 20 21  1  0  0  0  0
 21 22  2  0  0  0  0
 23 24  1  0  0  0  0
 23 31  2  0  0  0  0
 24 25  1  0  0  0  0
 25 26  2  0  0  0  0
 26 27  1  0  0  0  0
 26 30  1  0  0  0  0
 27 28  2  0  0  0  0
 28 29  1  0  0  0  0
 29 30  2  0  0  0  0
 30 31  1  0  0  0  0
 32 33  2  0  0  0  0
  1 34  1  0  0  0  0
  1 35  1  0  0  0  0
  1 36  1  0  0  0  0
  3 37  1  0  0  0  0
  4 38  1  0  0  0  0
  4 39  1  0  0  0  0
  5 40  1  0  0  0  0
  5 41  1  0  0  0  0
  7 42  1  0  0  0  0
  7 43  1  0  0  0  0
  8 44  1  0  0  0  0
  8 45  1  0  0  0  0
 10 46  1  0  0  0  0
 11 47  1  0  0  0  0
 13 48  1  0  0  0  0
 17 49  1  0  0  0  0
 19 50  1  0  0  0  0
 20 51  1  0  0  0  0
 24 52  1  0  0  0  0
 24 53  1  0  0  0  0
 25 54  1  0  0  0  0
 27 55  1  0  0  0  0
 31 56  1  0  0  0  0
 32 57  1  0  0  0  0
 33 58  1  0  0  0  0
M  END
> <IC50[nM]>
1.4

$$$$
CHEMBL3265031
  -OEChem-05192314333D
 Structure written by MMmdl.
 58 63  0     0  0  0  0  0  0999 V2000
   -6.8350   -5.5126   14.3646 C   0  0  0  0  0  0  0  0  0  0  0  0
   -6.2469   -4.1256   14.5196 C   0  0  0  0  0  0  0  0  0  0  0  0
   -7.2986   -3.1815   14.6326 O   0  0  0  0  0  0  0  0  0  0  0  0
   -5.3943   -4.0373   15.7957 C   0  0  0  0  0  0  0  0  0  0  0  0
   -4.6708   -2.7036   15.9246 C   0  0  0  0  0  0  0  0  0  0  0  0
   -3.8604   -2.3511   14.7445 N   0  0  0  0  0  0  0  0  0  0  0  0
   -4.6320   -2.3959   13.4920 C   0  0  0  0  0  0  0  0  0  0  0  0
   -5.3661   -3.7377   13.3163 C   0  0  0  0  0  0  0  0  0  0  0  0
   -2.5090   -2.1078   14.8185 C   0  0  0  0  0  0  0  0  0  0  0  0
   -1.9132   -1.0937   14.0521 C   0  0  0  0  0  0  0  0  0  0  0  0
   -0.5452   -0.8202   14.1949 C   0  0  0  0  0  0  0  0  0  0  0  0
    0.2267   -1.5891   15.0857 C   0  0  0  0  0  0  0  0  0  0  0  0
    1.6093   -1.3706   15.3172 N   0  0  0  0  0  0  0  0  0  0  0  0
    2.5356   -0.4465   14.7610 C   0  0  0  0  0  0  0  0  0  0  0  0
    2.1744    0.3801   13.7331 N   0  0  0  0  0  0  0  0  0  0  0  0
    3.1091    1.2393   13.2182 C   0  0  0  0  0  0  0  0  0  0  0  0
    4.4162    1.2819   13.6993 C   0  0  0  0  0  0  0  0  0  0  0  0
    4.7443    0.4889   14.7568 N   0  0  0  0  0  0  0  0  0  0  0  0
    5.8980    0.3793   15.4854 C   0  0  0  0  0  0  0  0  0  0  0  0
    5.5914   -0.5292   16.5255 C   0  0  0  0  0  0  0  0  0  0  0  0
    4.3788   -1.0451   16.3697 N   0  0  0  0  0  0  0  0  0  0  0  0
    3.8374   -0.3956   15.3255 C   0  0  0  0  0  0  0  0  0  0  0  0
    2.6339    2.1607   12.1207 C   0  0  0  0  0  0  0  0  0  0  0  0
    3.5443    2.6413   11.1620 C   0  0  0  0  0  0  0  0  0  0  0  0
    3.1470    3.4630   10.1086 C   0  0  0  0  0  0  0  0  0  0  0  0
    1.8016    3.8175   10.0163 C   0  0  0  0  0  0  0  0  0  0  0  0
    0.9929    4.5961    9.1183 C   0  0  0  0  0  0  0  0  0  0  0  0
   -0.2479    4.6060    9.5144 N   0  0  0  0  0  0  0  0  0  0  0  0
   -0.3355    3.8922   10.6289 N   0  0  0  0  0  0  0  0  0  0  0  0
    0.8848    3.3596   10.9956 C   0  0  0  0  0  0  0  0  0  0  0  0
    1.2708    2.5377   12.0624 C   0  0  0  0  0  0  0  0  0  0  0  0
   -0.3834   -2.6137   15.8106 C   0  0  0  0  0  0  0  0  0  0  0  0
   -1.7318   -2.8604   15.6854 C   0  0  0  0  0  0  0  0  0  0  0  0
   -6.0221   -6.2484   14.2766 H   0  0  0  0  0  0  0  0  0  0  0  0
   -7.4507   -5.7501   15.2447 H   0  0  0  0  0  0  0  0  0  0  0  0
   -7.4599   -5.5468   13.4600 H   0  0  0  0  0  0  0  0  0  0  0  0
   -6.9333   -2.3100   14.7300 H   0  0  0  0  0  0  0  0  0  0  0  0
   -6.0513   -4.1676   16.6682 H   0  0  0  0  0  0  0  0  0  0  0  0
   -4.6463   -4.8436   15.7763 H   0  0  0  0  0  0  0  0  0  0  0  0
   -5.4219   -1.9147   16.0780 H   0  0  0  0  0  0  0  0  0  0  0  0
   -4.0063   -2.7524   16.7999 H   0  0  0  0  0  0  0  0  0  0  0  0
   -5.3737   -1.5837   13.5023 H   0  0  0  0  0  0  0  0  0  0  0  0
   -3.9441   -2.2536   12.6455 H   0  0  0  0  0  0  0  0  0  0  0  0
   -4.6149   -4.5273   13.1672 H   0  0  0  0  0  0  0  0  0  0  0  0
   -6.0071   -3.6685   12.4250 H   0  0  0  0  0  0  0  0  0  0  0  0
   -2.5080   -0.5246   13.3530 H   0  0  0  0  0  0  0  0  0  0  0  0
   -0.0872   -0.0251   13.6253 H   0  0  0  0  0  0  0  0  0  0  0  0
    2.0076   -1.9822   16.0008 H   0  0  0  0  0  0  0  0  0  0  0  0
    5.1518    1.9286   13.2442 H   0  0  0  0  0  0  0  0  0  0  0  0
    6.8387    0.8784   15.3052 H   0  0  0  0  0  0  0  0  0  0  0  0
    6.2576   -0.7714   17.3403 H   0  0  0  0  0  0  0  0  0  0  0  0
    4.5849    2.3646   11.2449 H   0  0  0  0  0  0  0  0  0  0  0  0
    3.8635    3.8164    9.3818 H   0  0  0  0  0  0  0  0  0  0  0  0
    1.3624    5.1019    8.2385 H   0  0  0  0  0  0  0  0  0  0  0  0
    0.6734    1.6159   12.0045 H   0  0  0  0  0  0  0  0  0  0  0  0
    1.0334    3.0705   12.9950 H   0  0  0  0  0  0  0  0  0  0  0  0
    0.2099   -3.2208   16.4783 H   0  0  0  0  0  0  0  0  0  0  0  0
   -2.1883   -3.6472   16.2676 H   0  0  0  0  0  0  0  0  0  0  0  0
  1  2  1  0  0  0  0
  2  3  1  0  0  0  0
  2  4  1  0  0  0  0
  2  8  1  0  0  0  0
  4  5  1  0  0  0  0
  5  6  1  0  0  0  0
  6  7  1  0  0  0  0
  6  9  1  0  0  0  0
  7  8  1  0  0  0  0
  9 10  2  0  0  0  0
  9 33  1  0  0  0  0
 10 11  1  0  0  0  0
 11 12  2  0  0  0  0
 12 13  1  0  0  0  0
 12 32  1  0  0  0  0
 13 14  1  0  0  0  0
 14 15  2  0  0  0  0
 14 22  1  0  0  0  0
 15 16  1  0  0  0  0
 16 17  2  0  0  0  0
 16 23  1  0  0  0  0
 17 18  1  0  0  0  0
 18 19  1  0  0  0  0
 18 22  1  0  0  0  0
 19 20  2  0  0  0  0
 20 21  1  0  0  0  0
 21 22  2  0  0  0  0
 23 24  2  0  0  0  0
 23 31  1  0  0  0  0
 24 25  1  0  0  0  0
 25 26  2  0  0  0  0
 26 27  1  0  0  0  0
 26 30  1  0  0  0  0
 27 28  2  0  0  0  0
 28 29  1  0  0  0  0
 29 30  2  0  0  0  0
 30 31  1  0  0  0  0
 32 33  2  0  0  0  0
  1 34  1  0  0  0  0
  1 35  1  0  0  0  0
  1 36  1  0  0  0  0
  3 37  1  0  0  0  0
  4 38  1  0  0  0  0
  4 39  1  0  0  0  0
  5 40  1  0  0  0  0
  5 41  1  0  0  0  0
  7 42  1  0  0  0  0
  7 43  1  0  0  0  0
  8 44  1  0  0  0  0
  8 45  1  0  0  0  0
 10 46  1  0  0  0  0
 11 47  1  0  0  0  0
 13 48  1  0  0  0  0
 17 49  1  0  0  0  0
 19 50  1  0  0  0  0
 20 51  1  0  0  0  0
 24 52  1  0  0  0  0
 25 53  1  0  0  0  0
 27 54  1  0  0  0  0
 31 55  1  0  0  0  0
 31 56  1  0  0  0  0
 32 57  1  0  0  0  0
 33 58  1  0  0  0  0
M  END
> <IC50[nM]>
1.4

$$$$
CHEMBL3265031
  -OEChem-05192314333D
 Structure written by MMmdl.
 58 63  0     1  0  0  0  0  0999 V2000
   -6.8350   -5.5126   14.3646 C   0  0  0  0  0  0  0  0  0  0  0  0
   -6.2469   -4.1256   14.5196 C   0  0  0  0  0  0  0  0  0  0  0  0
   -7.2986   -3.1815   14.6326 O   0  0  0  0  0  0  0  0  0  0  0  0
   -5.3943   -4.0373   15.7957 C   0  0  0  0  0  0  0  0  0  0  0  0
   -4.6708   -2.7036   15.9246 C   0  0  0  0  0  0  0  0  0  0  0  0
   -3.8604   -2.3511   14.7445 N   0  0  0  0  0  0  0  0  0  0  0  0
   -4.6320   -2.3959   13.4920 C   0  0  0  0  0  0  0  0  0  0  0  0
   -5.3661   -3.7377   13.3163 C   0  0  0  0  0  0  0  0  0  0  0  0
   -2.5090   -2.1078   14.8185 C   0  0  0  0  0  0  0  0  0  0  0  0
   -1.9132   -1.0937   14.0521 C   0  0  0  0  0  0  0  0  0  0  0  0
   -0.5452   -0.8202   14.1949 C   0  0  0  0  0  0  0  0  0  0  0  0
    0.2267   -1.5891   15.0857 C   0  0  0  0  0  0  0  0  0  0  0  0
    1.6093   -1.3706   15.3172 N   0  0  0  0  0  0  0  0  0  0  0  0
    2.5356   -0.4465   14.7610 C   0  0  0  0  0  0  0  0  0  0  0  0
    2.1744    0.3801   13.7331 N   0  0  0  0  0  0  0  0  0  0  0  0
    3.1091    1.2393   13.2182 C   0  0  0  0  0  0  0  0  0  0  0  0
    4.4162    1.2819   13.6993 C   0  0  0  0  0  0  0  0  0  0  0  0
    4.7443    0.4889   14.7568 N   0  0  0  0  0  0  0  0  0  0  0  0
    5.8980    0.3793   15.4854 C   0  0  0  0  0  0  0  0  0  0  0  0
    5.5914   -0.5292   16.5255 C   0  0  0  0  0  0  0  0  0  0  0  0
    4.3788   -1.0451   16.3697 N   0  0  0  0  0  0  0  0  0  0  0  0
    3.8374   -0.3956   15.3255 C   0  0  0  0  0  0  0  0  0  0  0  0
    2.6339    2.1607   12.1207 C   0  0  3  0  0  0  0  0  0  0  0  0
    3.5443    2.6413   11.1620 C   0  0  0  0  0  0  0  0  0  0  0  0
    3.1470    3.4630   10.1086 C   0  0  0  0  0  0  0  0  0  0  0  0
    1.8016    3.8175   10.0163 C   0  0  0  0  0  0  0  0  0  0  0  0
    0.9929    4.5961    9.1183 C   0  0  0  0  0  0  0  0  0  0  0  0
   -0.2479    4.6060    9.5144 N   0  0  0  0  0  0  0  0  0  0  0  0
   -0.3355    3.8922   10.6289 N   0  0  0  0  0  0  0  0  0  0  0  0
    0.8848    3.3596   10.9956 C   0  0  0  0  0  0  0  0  0  0  0  0
    1.2708    2.5377   12.0624 C   0  0  0  0  0  0  0  0  0  0  0  0
   -0.3834   -2.6137   15.8106 C   0  0  0  0  0  0  0  0  0  0  0  0
   -1.7318   -2.8604   15.6854 C   0  0  0  0  0  0  0  0  0  0  0  0
   -6.0221   -6.2484   14.2766 H   0  0  0  0  0  0  0  0  0  0  0  0
   -7.4507   -5.7501   15.2447 H   0  0  0  0  0  0  0  0  0  0  0  0
   -7.4599   -5.5468   13.4600 H   0  0  0  0  0  0  0  0  0  0  0  0
   -6.9333   -2.3100   14.7300 H   0  0  0  0  0  0  0  0  0  0  0  0
   -6.0513   -4.1676   16.6682 H   0  0  0  0  0  0  0  0  0  0  0  0
   -4.6463   -4.8436   15.7763 H   0  0  0  0  0  0  0  0  0  0  0  0
   -5.4219   -1.9147   16.0780 H   0  0  0  0  0  0  0  0  0  0  0  0
   -4.0063   -2.7524   16.7999 H   0  0  0  0  0  0  0  0  0  0  0  0
   -5.3737   -1.5837   13.5023 H   0  0  0  0  0  0  0  0  0  0  0  0
   -3.9441   -2.2536   12.6455 H   0  0  0  0  0  0  0  0  0  0  0  0
   -4.6149   -4.5273   13.1672 H   0  0  0  0  0  0  0  0  0  0  0  0
   -6.0071   -3.6685   12.4250 H   0  0  0  0  0  0  0  0  0  0  0  0
   -2.5080   -0.5246   13.3530 H   0  0  0  0  0  0  0  0  0  0  0  0
   -0.0872   -0.0251   13.6253 H   0  0  0  0  0  0  0  0  0  0  0  0
    2.0076   -1.9822   16.0008 H   0  0  0  0  0  0  0  0  0  0  0  0
    5.1518    1.9286   13.2442 H   0  0  0  0  0  0  0  0  0  0  0  0
    6.8387    0.8784   15.3052 H   0  0  0  0  0  0  0  0  0  0  0  0
    6.2576   -0.7714   17.3403 H   0  0  0  0  0  0  0  0  0  0  0  0
    2.4207    1.2906   11.4823 H   0  0  0  0  0  0  0  0  0  0  0  0
    4.5849    2.3646   11.2449 H   0  0  0  0  0  0  0  0  0  0  0  0
    3.8635    3.8164    9.3818 H   0  0  0  0  0  0  0  0  0  0  0  0
    1.3624    5.1019    8.2385 H   0  0  0  0  0  0  0  0  0  0  0  0
    0.5610    2.2069   12.8061 H   0  0  0  0  0  0  0  0  0  0  0  0
    0.2099   -3.2208   16.4783 H   0  0  0  0  0  0  0  0  0  0  0  0
   -2.1883   -3.6472   16.2676 H   0  0  0  0  0  0  0  0  0  0  0  0
  1  2  1  0  0  0  0
  2  3  1  0  0  0  0
  2  4  1  0  0  0  0
  2  8  1  0  0  0  0
  4  5  1  0  0  0  0
  5  6  1  0  0  0  0
  6  7  1  0  0  0  0
  6  9  1  0  0  0  0
  7  8  1  0  0  0  0
  9 10  2  0  0  0  0
  9 33  1  0  0  0  0
 10 11  1  0  0  0  0
 11 12  2  0  0  0  0
 12 13  1  0  0  0  0
 12 32  1  0  0  0  0
 13 14  1  0  0  0  0
 14 15  2  0  0  0  0
 14 22  1  0  0  0  0
 15 16  1  0  0  0  0
 16 17  2  0  0  0  0
 16 23  1  0  0  0  0
 17 18  1  0  0  0  0
 18 19  1  0  0  0  0
 18 22  1  0  0  0  0
 19 20  2  0  0  0  0
 20 21  1  0  0  0  0
 21 22  2  0  0  0  0
 23 24  1  0  0  0  0
 23 31  1  0  0  0  0
 24 25  2  0  0  0  0
 25 26  1  0  0  0  0
 26 27  2  0  0  0  0
 26 30  1  0  0  0  0
 27 28  1  0  0  0  0
 28 29  2  0  0  0  0
 29 30  1  0  0  0  0
 30 31  2  0  0  0  0
 32 33  2  0  0  0  0
  1 34  1  0  0  0  0
  1 35  1  0  0  0  0
  1 36  1  0  0  0  0
  3 37  1  0  0  0  0
  4 38  1  0  0  0  0
  4 39  1  0  0  0  0
  5 40  1  0  0  0  0
  5 41  1  0  0  0  0
  7 42  1  0  0  0  0
  7 43  1  0  0  0  0
  8 44  1  0  0  0  0
  8 45  1  0  0  0  0
 10 46  1  0  0  0  0
 11 47  1  0  0  0  0
 13 48  1  0  0  0  0
 17 49  1  0  0  0  0
 19 50  1  0  0  0  0
 20 51  1  0  0  0  0
 23 52  1  0  0  0  0
 24 53  1  0  0  0  0
 25 54  1  0  0  0  0
 27 55  1  0  0  0  0
 31 56  1  0  0  0  0
 32 57  1  0  0  0  0
 33 58  1  0  0  0  0
M  END
> <IC50[nM]>
1.4

$$$$
CHEMBL3265031
  -OEChem-05192314333D
 Structure written by MMmdl.
 58 63  0     1  0  0  0  0  0999 V2000
   -6.8350   -5.5126   14.3646 C   0  0  0  0  0  0  0  0  0  0  0  0
   -6.2469   -4.1256   14.5196 C   0  0  0  0  0  0  0  0  0  0  0  0
   -7.2986   -3.1815   14.6326 O   0  0  0  0  0  0  0  0  0  0  0  0
   -5.3943   -4.0373   15.7957 C   0  0  0  0  0  0  0  0  0  0  0  0
   -4.6708   -2.7036   15.9246 C   0  0  0  0  0  0  0  0  0  0  0  0
   -3.8604   -2.3511   14.7445 N   0  0  0  0  0  0  0  0  0  0  0  0
   -4.6320   -2.3959   13.4920 C   0  0  0  0  0  0  0  0  0  0  0  0
   -5.3661   -3.7377   13.3163 C   0  0  0  0  0  0  0  0  0  0  0  0
   -2.5090   -2.1078   14.8185 C   0  0  0  0  0  0  0  0  0  0  0  0
   -1.9132   -1.0937   14.0521 C   0  0  0  0  0  0  0  0  0  0  0  0
   -0.5452   -0.8202   14.1949 C   0  0  0  0  0  0  0  0  0  0  0  0
    0.2267   -1.5891   15.0857 C   0  0  0  0  0  0  0  0  0  0  0  0
    1.6093   -1.3706   15.3172 N   0  0  0  0  0  0  0  0  0  0  0  0
    2.5356   -0.4465   14.7610 C   0  0  0  0  0  0  0  0  0  0  0  0
    2.1744    0.3801   13.7331 N   0  0  0  0  0  0  0  0  0  0  0  0
    3.1091    1.2393   13.2182 C   0  0  0  0  0  0  0  0  0  0  0  0
    4.4162    1.2819   13.6993 C   0  0  0  0  0  0  0  0  0  0  0  0
    4.7443    0.4889   14.7568 N   0  0  0  0  0  0  0  0  0  0  0  0
    5.8980    0.3793   15.4854 C   0  0  0  0  0  0  0  0  0  0  0  0
    5.5914   -0.5292   16.5255 C   0  0  0  0  0  0  0  0  0  0  0  0
    4.3788   -1.0451   16.3697 N   0  0  0  0  0  0  0  0  0  0  0  0
    3.8374   -0.3956   15.3255 C   0  0  0  0  0  0  0  0  0  0  0  0
    2.6339    2.1607   12.1207 C   0  0  0  0  0  0  0  0  0  0  0  0
    3.5443    2.6413   11.1620 C   0  0  0  0  0  0  0  0  0  0  0  0
    3.1470    3.4630   10.1086 C   0  0  0  0  0  0  0  0  0  0  0  0
    1.8016    3.8175   10.0163 C   0  0  0  0  0  0  0  0  0  0  0  0
    0.9929    4.5961    9.1183 C   0  0  0  0  0  0  0  0  0  0  0  0
   -0.2479    4.6060    9.5144 N   0  0  0  0  0  0  0  0  0  0  0  0
   -0.3355    3.8922   10.6289 N   0  0  0  0  0  0  0  0  0  0  0  0
    0.8848    3.3596   10.9956 C   0  0  3  0  0  0  0  0  0  0  0  0
    1.2708    2.5377   12.0624 C   0  0  0  0  0  0  0  0  0  0  0  0
   -0.3834   -2.6137   15.8106 C   0  0  0  0  0  0  0  0  0  0  0  0
   -1.7318   -2.8604   15.6854 C   0  0  0  0  0  0  0  0  0  0  0  0
   -6.0221   -6.2484   14.2766 H   0  0  0  0  0  0  0  0  0  0  0  0
   -7.4507   -5.7501   15.2447 H   0  0  0  0  0  0  0  0  0  0  0  0
   -7.4599   -5.5468   13.4600 H   0  0  0  0  0  0  0  0  0  0  0  0
   -6.9333   -2.3100   14.7300 H   0  0  0  0  0  0  0  0  0  0  0  0
   -6.0513   -4.1676   16.6682 H   0  0  0  0  0  0  0  0  0  0  0  0
   -4.6463   -4.8436   15.7763 H   0  0  0  0  0  0  0  0  0  0  0  0
   -5.4219   -1.9147   16.0780 H   0  0  0  0  0  0  0  0  0  0  0  0
   -4.0063   -2.7524   16.7999 H   0  0  0  0  0  0  0  0  0  0  0  0
   -5.3737   -1.5837   13.5023 H   0  0  0  0  0  0  0  0  0  0  0  0
   -3.9441   -2.2536   12.6455 H   0  0  0  0  0  0  0  0  0  0  0  0
   -4.6149   -4.5273   13.1672 H   0  0  0  0  0  0  0  0  0  0  0  0
   -6.0071   -3.6685   12.4250 H   0  0  0  0  0  0  0  0  0  0  0  0
   -2.5080   -0.5246   13.3530 H   0  0  0  0  0  0  0  0  0  0  0  0
   -0.0872   -0.0251   13.6253 H   0  0  0  0  0  0  0  0  0  0  0  0
    2.0076   -1.9822   16.0008 H   0  0  0  0  0  0  0  0  0  0  0  0
    5.1518    1.9286   13.2442 H   0  0  0  0  0  0  0  0  0  0  0  0
    6.8387    0.8784   15.3052 H   0  0  0  0  0  0  0  0  0  0  0  0
    6.2576   -0.7714   17.3403 H   0  0  0  0  0  0  0  0  0  0  0  0
    4.5849    2.3646   11.2449 H   0  0  0  0  0  0  0  0  0  0  0  0
    3.8635    3.8164    9.3818 H   0  0  0  0  0  0  0  0  0  0  0  0
    1.3624    5.1019    8.2385 H   0  0  0  0  0  0  0  0  0  0  0  0
    1.0911    4.2508   11.6065 H   0  0  0  0  0  0  0  0  0  0  0  0
    0.5610    2.2069   12.8061 H   0  0  0  0  0  0  0  0  0  0  0  0
    0.2099   -3.2208   16.4783 H   0  0  0  0  0  0  0  0  0  0  0  0
   -2.1883   -3.6472   16.2676 H   0  0  0  0  0  0  0  0  0  0  0  0
  1  2  1  0  0  0  0
  2  3  1  0  0  0  0
  2  4  1  0  0  0  0
  2  8  1  0  0  0  0
  4  5  1  0  0  0  0
  5  6  1  0  0  0  0
  6  7  1  0  0  0  0
  6  9  1  0  0  0  0
  7  8  1  0  0  0  0
  9 10  2  0  0  0  0
  9 33  1  0  0  0  0
 10 11  1  0  0  0  0
 11 12  2  0  0  0  0
 12 13  1  0  0  0  0
 12 32  1  0  0  0  0
 13 14  1  0  0  0  0
 14 15  2  0  0  0  0
 14 22  1  0  0  0  0
 15 16  1  0  0  0  0
 16 17  2  0  0  0  0
 16 23  1  0  0  0  0
 17 18  1  0  0  0  0
 18 19  1  0  0  0  0
 18 22  1  0  0  0  0
 19 20  2  0  0  0  0
 20 21  1  0  0  0  0
 21 22  2  0  0  0  0
 23 24  1  0  0  0  0
 23 31  2  0  0  0  0
 24 25  2  0  0  0  0
 25 26  1  0  0  0  0
 26 27  2  0  0  0  0
 26 30  1  0  0  0  0
 27 28  1  0  0  0  0
 28 29  2  0  0  0  0
 29 30  1  0  0  0  0
 30 31  1  0  0  0  0
 32 33  2  0  0  0  0
  1 34  1  0  0  0  0
  1 35  1  0  0  0  0
  1 36  1  0  0  0  0
  3 37  1  0  0  0  0
  4 38  1  0  0  0  0
  4 39  1  0  0  0  0
  5 40  1  0  0  0  0
  5 41  1  0  0  0  0
  7 42  1  0  0  0  0
  7 43  1  0  0  0  0
  8 44  1  0  0  0  0
  8 45  1  0  0  0  0
 10 46  1  0  0  0  0
 11 47  1  0  0  0  0
 13 48  1  0  0  0  0
 17 49  1  0  0  0  0
 19 50  1  0  0  0  0
 20 51  1  0  0  0  0
 24 52  1  0  0  0  0
 25 53  1  0  0  0  0
 27 54  1  0  0  0  0
 30 55  1  0  0  0  0
 31 56  1  0  0  0  0
 32 57  1  0  0  0  0
 33 58  1  0  0  0  0
M  END
> <IC50[nM]>
1.4

$$$$
CHEMBL3265031
  -OEChem-05192314333D
 Structure written by MMmdl.
 58 63  0     0  0  0  0  0  0999 V2000
   -6.8350   -5.5126   14.3646 C   0  0  0  0  0  0  0  0  0  0  0  0
   -6.2469   -4.1256   14.5196 C   0  0  0  0  0  0  0  0  0  0  0  0
   -7.2986   -3.1815   14.6326 O   0  0  0  0  0  0  0  0  0  0  0  0
   -5.3943   -4.0373   15.7957 C   0  0  0  0  0  0  0  0  0  0  0  0
   -4.6708   -2.7036   15.9246 C   0  0  0  0  0  0  0  0  0  0  0  0
   -3.8604   -2.3511   14.7445 N   0  0  0  0  0  0  0  0  0  0  0  0
   -4.6320   -2.3959   13.4920 C   0  0  0  0  0  0  0  0  0  0  0  0
   -5.3661   -3.7377   13.3163 C   0  0  0  0  0  0  0  0  0  0  0  0
   -2.5090   -2.1078   14.8185 C   0  0  0  0  0  0  0  0  0  0  0  0
   -1.9132   -1.0937   14.0521 C   0  0  0  0  0  0  0  0  0  0  0  0
   -0.5452   -0.8202   14.1949 C   0  0  0  0  0  0  0  0  0  0  0  0
    0.2267   -1.5891   15.0857 C   0  0  0  0  0  0  0  0  0  0  0  0
    1.6093   -1.3706   15.3172 N   0  0  0  0  0  0  0  0  0  0  0  0
    2.5356   -0.4465   14.7610 C   0  0  0  0  0  0  0  0  0  0  0  0
    2.1744    0.3801   13.7331 N   0  0  0  0  0  0  0  0  0  0  0  0
    3.1091    1.2393   13.2182 C   0  0  0  0  0  0  0  0  0  0  0  0
    4.4162    1.2819   13.6993 C   0  0  0  0  0  0  0  0  0  0  0  0
    4.7443    0.4889   14.7568 N   0  0  0  0  0  0  0  0  0  0  0  0
    5.8980    0.3793   15.4854 C   0  0  0  0  0  0  0  0  0  0  0  0
    5.5914   -0.5292   16.5255 C   0  0  0  0  0  0  0  0  0  0  0  0
    4.3788   -1.0451   16.3697 N   0  0  0  0  0  0  0  0  0  0  0  0
    3.8374   -0.3956   15.3255 C   0  0  0  0  0  0  0  0  0  0  0  0
    2.6339    2.1607   12.1207 C   0  0  0  0  0  0  0  0  0  0  0  0
    3.5443    2.6413   11.1620 C   0  0  0  0  0  0  0  0  0  0  0  0
    3.1470    3.4630   10.1086 C   0  0  0  0  0  0  0  0  0  0  0  0
    1.8016    3.8175   10.0163 C   0  0  0  0  0  0  0  0  0  0  0  0
    0.9929    4.5961    9.1183 C   0  0  0  0  0  0  0  0  0  0  0  0
   -0.2479    4.6060    9.5144 N   0  0  0  0  0  0  0  0  0  0  0  0
   -0.3355    3.8922   10.6289 N   0  0  0  0  0  0  0  0  0  0  0  0
    0.8848    3.3596   10.9956 C   0  0  0  0  0  0  0  0  0  0  0  0
    1.2708    2.5377   12.0624 C   0  0  0  0  0  0  0  0  0  0  0  0
   -0.3834   -2.6137   15.8106 C   0  0  0  0  0  0  0  0  0  0  0  0
   -1.7318   -2.8604   15.6854 C   0  0  0  0  0  0  0  0  0  0  0  0
   -6.0221   -6.2484   14.2766 H   0  0  0  0  0  0  0  0  0  0  0  0
   -7.4507   -5.7501   15.2447 H   0  0  0  0  0  0  0  0  0  0  0  0
   -7.4599   -5.5468   13.4600 H   0  0  0  0  0  0  0  0  0  0  0  0
   -6.9333   -2.3100   14.7300 H   0  0  0  0  0  0  0  0  0  0  0  0
   -6.0513   -4.1676   16.6682 H   0  0  0  0  0  0  0  0  0  0  0  0
   -4.6463   -4.8436   15.7763 H   0  0  0  0  0  0  0  0  0  0  0  0
   -5.4219   -1.9147   16.0780 H   0  0  0  0  0  0  0  0  0  0  0  0
   -4.0063   -2.7524   16.7999 H   0  0  0  0  0  0  0  0  0  0  0  0
   -5.3737   -1.5837   13.5023 H   0  0  0  0  0  0  0  0  0  0  0  0
   -3.9441   -2.2536   12.6455 H   0  0  0  0  0  0  0  0  0  0  0  0
   -4.6149   -4.5273   13.1672 H   0  0  0  0  0  0  0  0  0  0  0  0
   -6.0071   -3.6685   12.4250 H   0  0  0  0  0  0  0  0  0  0  0  0
   -2.5080   -0.5246   13.3530 H   0  0  0  0  0  0  0  0  0  0  0  0
   -0.0872   -0.0251   13.6253 H   0  0  0  0  0  0  0  0  0  0  0  0
    2.0076   -1.9822   16.0008 H   0  0  0  0  0  0  0  0  0  0  0  0
    5.1518    1.9286   13.2442 H   0  0  0  0  0  0  0  0  0  0  0  0
    6.8387    0.8784   15.3052 H   0  0  0  0  0  0  0  0  0  0  0  0
    6.2576   -0.7714   17.3403 H   0  0  0  0  0  0  0  0  0  0  0  0
    4.5849    2.3646   11.2449 H   0  0  0  0  0  0  0  0  0  0  0  0
    3.7246    4.3958   10.1878 H   0  0  0  0  0  0  0  0  0  0  0  0
    3.4120    2.9458    9.1746 H   0  0  0  0  0  0  0  0  0  0  0  0
    1.3624    5.1019    8.2385 H   0  0  0  0  0  0  0  0  0  0  0  0
    0.5610    2.2069   12.8061 H   0  0  0  0  0  0  0  0  0  0  0  0
    0.2099   -3.2208   16.4783 H   0  0  0  0  0  0  0  0  0  0  0  0
   -2.1883   -3.6472   16.2676 H   0  0  0  0  0  0  0  0  0  0  0  0
  1  2  1  0  0  0  0
  2  3  1  0  0  0  0
  2  4  1  0  0  0  0
  2  8  1  0  0  0  0
  4  5  1  0  0  0  0
  5  6  1  0  0  0  0
  6  7  1  0  0  0  0
  6  9  1  0  0  0  0
  7  8  1  0  0  0  0
  9 10  2  0  0  0  0
  9 33  1  0  0  0  0
 10 11  1  0  0  0  0
 11 12  2  0  0  0  0
 12 13  1  0  0  0  0
 12 32  1  0  0  0  0
 13 14  1  0  0  0  0
 14 15  2  0  0  0  0
 14 22  1  0  0  0  0
 15 16  1  0  0  0  0
 16 17  2  0  0  0  0
 16 23  1  0  0  0  0
 17 18  1  0  0  0  0
 18 19  1  0  0  0  0
 18 22  1  0  0  0  0
 19 20  2  0  0  0  0
 20 21  1  0  0  0  0
 21 22  2  0  0  0  0
 23 24  2  0  0  0  0
 23 31  1  0  0  0  0
 24 25  1  0  0  0  0
 25 26  1  0  0  0  0
 26 27  2  0  0  0  0
 26 30  1  0  0  0  0
 27 28  1  0  0  0  0
 28 29  2  0  0  0  0
 29 30  1  0  0  0  0
 30 31  2  0  0  0  0
 32 33  2  0  0  0  0
  1 34  1  0  0  0  0
  1 35  1  0  0  0  0
  1 36  1  0  0  0  0
  3 37  1  0  0  0  0
  4 38  1  0  0  0  0
  4 39  1  0  0  0  0
  5 40  1  0  0  0  0
  5 41  1  0  0  0  0
  7 42  1  0  0  0  0
  7 43  1  0  0  0  0
  8 44  1  0  0  0  0
  8 45  1  0  0  0  0
 10 46  1  0  0  0  0
 11 47  1  0  0  0  0
 13 48  1  0  0  0  0
 17 49  1  0  0  0  0
 19 50  1  0  0  0  0
 20 51  1  0  0  0  0
 24 52  1  0  0  0  0
 25 53  1  0  0  0  0
 25 54  1  0  0  0  0
 27 55  1  0  0  0  0
 31 56  1  0  0  0  0
 32 57  1  0  0  0  0
 33 58  1  0  0  0  0
M  END
> <IC50[nM]>
1.4

$$$$
CHEMBL3265031
  -OEChem-05192314333D
 Structure written by MMmdl.
 58 63  0     1  0  0  0  0  0999 V2000
   -6.8350   -5.5126   14.3646 C   0  0  0  0  0  0  0  0  0  0  0  0
   -6.2469   -4.1256   14.5196 C   0  0  0  0  0  0  0  0  0  0  0  0
   -7.2986   -3.1815   14.6326 O   0  0  0  0  0  0  0  0  0  0  0  0
   -5.3943   -4.0373   15.7957 C   0  0  0  0  0  0  0  0  0  0  0  0
   -4.6708   -2.7036   15.9246 C   0  0  0  0  0  0  0  0  0  0  0  0
   -3.8604   -2.3511   14.7445 N   0  0  0  0  0  0  0  0  0  0  0  0
   -4.6320   -2.3959   13.4920 C   0  0  0  0  0  0  0  0  0  0  0  0
   -5.3661   -3.7377   13.3163 C   0  0  0  0  0  0  0  0  0  0  0  0
   -2.5090   -2.1078   14.8185 C   0  0  0  0  0  0  0  0  0  0  0  0
   -1.9132   -1.0937   14.0521 C   0  0  0  0  0  0  0  0  0  0  0  0
   -0.5452   -0.8202   14.1949 C   0  0  0  0  0  0  0  0  0  0  0  0
    0.2267   -1.5891   15.0857 C   0  0  0  0  0  0  0  0  0  0  0  0
    1.6093   -1.3706   15.3172 N   0  0  0  0  0  0  0  0  0  0  0  0
    2.5356   -0.4465   14.7610 C   0  0  0  0  0  0  0  0  0  0  0  0
    2.1744    0.3801   13.7331 N   0  0  0  0  0  0  0  0  0  0  0  0
    3.1091    1.2393   13.2182 C   0  0  0  0  0  0  0  0  0  0  0  0
    4.4162    1.2819   13.6993 C   0  0  0  0  0  0  0  0  0  0  0  0
    4.7443    0.4889   14.7568 N   0  0  0  0  0  0  0  0  0  0  0  0
    5.8980    0.3793   15.4854 C   0  0  0  0  0  0  0  0  0  0  0  0
    5.5914   -0.5292   16.5255 C   0  0  0  0  0  0  0  0  0  0  0  0
    4.3788   -1.0451   16.3697 N   0  0  0  0  0  0  0  0  0  0  0  0
    3.8374   -0.3956   15.3255 C   0  0  0  0  0  0  0  0  0  0  0  0
    2.6339    2.1607   12.1207 C   0  0  0  0  0  0  0  0  0  0  0  0
    3.5443    2.6413   11.1620 C   0  0  0  0  0  0  0  0  0  0  0  0
    3.1470    3.4630   10.1086 C   0  0  0  0  0  0  0  0  0  0  0  0
    1.8016    3.8175   10.0163 C   0  0  3  0  0  0  0  0  0  0  0  0
    0.9929    4.5961    9.1183 C   0  0  0  0  0  0  0  0  0  0  0  0
   -0.2479    4.6060    9.5144 N   0  0  0  0  0  0  0  0  0  0  0  0
   -0.3355    3.8922   10.6289 N   0  0  0  0  0  0  0  0  0  0  0  0
    0.8848    3.3596   10.9956 C   0  0  0  0  0  0  0  0  0  0  0  0
    1.2708    2.5377   12.0624 C   0  0  0  0  0  0  0  0  0  0  0  0
   -0.3834   -2.6137   15.8106 C   0  0  0  0  0  0  0  0  0  0  0  0
   -1.7318   -2.8604   15.6854 C   0  0  0  0  0  0  0  0  0  0  0  0
   -6.0221   -6.2484   14.2766 H   0  0  0  0  0  0  0  0  0  0  0  0
   -7.4507   -5.7501   15.2447 H   0  0  0  0  0  0  0  0  0  0  0  0
   -7.4599   -5.5468   13.4600 H   0  0  0  0  0  0  0  0  0  0  0  0
   -6.9333   -2.3100   14.7300 H   0  0  0  0  0  0  0  0  0  0  0  0
   -6.0513   -4.1676   16.6682 H   0  0  0  0  0  0  0  0  0  0  0  0
   -4.6463   -4.8436   15.7763 H   0  0  0  0  0  0  0  0  0  0  0  0
   -5.4219   -1.9147   16.0780 H   0  0  0  0  0  0  0  0  0  0  0  0
   -4.0063   -2.7524   16.7999 H   0  0  0  0  0  0  0  0  0  0  0  0
   -5.3737   -1.5837   13.5023 H   0  0  0  0  0  0  0  0  0  0  0  0
   -3.9441   -2.2536   12.6455 H   0  0  0  0  0  0  0  0  0  0  0  0
   -4.6149   -4.5273   13.1672 H   0  0  0  0  0  0  0  0  0  0  0  0
   -6.0071   -3.6685   12.4250 H   0  0  0  0  0  0  0  0  0  0  0  0
   -2.5080   -0.5246   13.3530 H   0  0  0  0  0  0  0  0  0  0  0  0
   -0.0872   -0.0251   13.6253 H   0  0  0  0  0  0  0  0  0  0  0  0
    1.2452    0.3578   13.3641 H   0  0  0  0  0  0  0  0  0  0  0  0
    5.1518    1.9286   13.2442 H   0  0  0  0  0  0  0  0  0  0  0  0
    6.8387    0.8784   15.3052 H   0  0  0  0  0  0  0  0  0  0  0  0
    6.2576   -0.7714   17.3403 H   0  0  0  0  0  0  0  0  0  0  0  0
    4.5849    2.3646   11.2449 H   0  0  0  0  0  0  0  0  0  0  0  0
    3.8635    3.8164    9.3818 H   0  0  0  0  0  0  0  0  0  0  0  0
    1.6061    2.9187    9.4130 H   0  0  0  0  0  0  0  0  0  0  0  0
    1.3624    5.1019    8.2385 H   0  0  0  0  0  0  0  0  0  0  0  0
    0.5610    2.2069   12.8061 H   0  0  0  0  0  0  0  0  0  0  0  0
    0.2099   -3.2208   16.4783 H   0  0  0  0  0  0  0  0  0  0  0  0
   -2.1883   -3.6472   16.2676 H   0  0  0  0  0  0  0  0  0  0  0  0
  1  2  1  0  0  0  0
  2  3  1  0  0  0  0
  2  4  1  0  0  0  0
  2  8  1  0  0  0  0
  4  5  1  0  0  0  0
  5  6  1  0  0  0  0
  6  7  1  0  0  0  0
  6  9  1  0  0  0  0
  7  8  1  0  0  0  0
  9 10  2  0  0  0  0
  9 33  1  0  0  0  0
 10 11  1  0  0  0  0
 11 12  2  0  0  0  0
 12 13  1  0  0  0  0
 12 32  1  0  0  0  0
 13 14  2  0  0  0  0
 14 15  1  0  0  0  0
 14 22  1  0  0  0  0
 15 16  1  0  0  0  0
 16 17  2  0  0  0  0
 16 23  1  0  0  0  0
 17 18  1  0  0  0  0
 18 19  1  0  0  0  0
 18 22  1  0  0  0  0
 19 20  2  0  0  0  0
 20 21  1  0  0  0  0
 21 22  2  0  0  0  0
 23 24  1  0  0  0  0
 23 31  2  0  0  0  0
 24 25  2  0  0  0  0
 25 26  1  0  0  0  0
 26 27  1  0  0  0  0
 26 30  1  0  0  0  0
 27 28  2  0  0  0  0
 28 29  1  0  0  0  0
 29 30  2  0  0  0  0
 30 31  1  0  0  0  0
 32 33  2  0  0  0  0
  1 34  1  0  0  0  0
  1 35  1  0  0  0  0
  1 36  1  0  0  0  0
  3 37  1  0  0  0  0
  4 38  1  0  0  0  0
  4 39  1  0  0  0  0
  5 40  1  0  0  0  0
  5 41  1  0  0  0  0
  7 42  1  0  0  0  0
  7 43  1  0  0  0  0
  8 44  1  0  0  0  0
  8 45  1  0  0  0  0
 10 46  1  0  0  0  0
 11 47  1  0  0  0  0
 15 48  1  0  0  0  0
 17 49  1  0  0  0  0
 19 50  1  0  0  0  0
 20 51  1  0  0  0  0
 24 52  1  0  0  0  0
 25 53  1  0  0  0  0
 26 54  1  0  0  0  0
 27 55  1  0  0  0  0
 31 56  1  0  0  0  0
 32 57  1  0  0  0  0
 33 58  1  0  0  0  0
M  END
> <IC50[nM]>
1.4

$$$$
CHEMBL3265031
  -OEChem-05192314333D
 Structure written by MMmdl.
 58 63  0     0  0  0  0  0  0999 V2000
   -6.8350   -5.5126   14.3646 C   0  0  0  0  0  0  0  0  0  0  0  0
   -6.2469   -4.1256   14.5196 C   0  0  0  0  0  0  0  0  0  0  0  0
   -7.2986   -3.1815   14.6326 O   0  0  0  0  0  0  0  0  0  0  0  0
   -5.3943   -4.0373   15.7957 C   0  0  0  0  0  0  0  0  0  0  0  0
   -4.6708   -2.7036   15.9246 C   0  0  0  0  0  0  0  0  0  0  0  0
   -3.8604   -2.3511   14.7445 N   0  0  0  0  0  0  0  0  0  0  0  0
   -4.6320   -2.3959   13.4920 C   0  0  0  0  0  0  0  0  0  0  0  0
   -5.3661   -3.7377   13.3163 C   0  0  0  0  0  0  0  0  0  0  0  0
   -2.5090   -2.1078   14.8185 C   0  0  0  0  0  0  0  0  0  0  0  0
   -1.9132   -1.0937   14.0521 C   0  0  0  0  0  0  0  0  0  0  0  0
   -0.5452   -0.8202   14.1949 C   0  0  0  0  0  0  0  0  0  0  0  0
    0.2267   -1.5891   15.0857 C   0  0  0  0  0  0  0  0  0  0  0  0
    1.6093   -1.3706   15.3172 N   0  0  0  0  0  0  0  0  0  0  0  0
    2.5356   -0.4465   14.7610 C   0  0  0  0  0  0  0  0  0  0  0  0
    2.1744    0.3801   13.7331 N   0  0  0  0  0  0  0  0  0  0  0  0
    3.1091    1.2393   13.2182 C   0  0  0  0  0  0  0  0  0  0  0  0
    4.4162    1.2819   13.6993 C   0  0  0  0  0  0  0  0  0  0  0  0
    4.7443    0.4889   14.7568 N   0  0  0  0  0  0  0  0  0  0  0  0
    5.8980    0.3793   15.4854 C   0  0  0  0  0  0  0  0  0  0  0  0
    5.5914   -0.5292   16.5255 C   0  0  0  0  0  0  0  0  0  0  0  0
    4.3788   -1.0451   16.3697 N   0  0  0  0  0  0  0  0  0  0  0  0
    3.8374   -0.3956   15.3255 C   0  0  0  0  0  0  0  0  0  0  0  0
    2.6339    2.1607   12.1207 C   0  0  0  0  0  0  0  0  0  0  0  0
    3.5443    2.6413   11.1620 C   0  0  0  0  0  0  0  0  0  0  0  0
    3.1470    3.4630   10.1086 C   0  0  0  0  0  0  0  0  0  0  0  0
    1.8016    3.8175   10.0163 C   0  0  0  0  0  0  0  0  0  0  0  0
    0.9929    4.5961    9.1183 C   0  0  0  0  0  0  0  0  0  0  0  0
   -0.2479    4.6060    9.5144 N   0  0  0  0  0  0  0  0  0  0  0  0
   -0.3355    3.8922   10.6289 N   0  0  0  0  0  0  0  0  0  0  0  0
    0.8848    3.3596   10.9956 C   0  0  0  0  0  0  0  0  0  0  0  0
    1.2708    2.5377   12.0624 C   0  0  0  0  0  0  0  0  0  0  0  0
   -0.3834   -2.6137   15.8106 C   0  0  0  0  0  0  0  0  0  0  0  0
   -1.7318   -2.8604   15.6854 C   0  0  0  0  0  0  0  0  0  0  0  0
   -6.0221   -6.2484   14.2766 H   0  0  0  0  0  0  0  0  0  0  0  0
   -7.4507   -5.7501   15.2447 H   0  0  0  0  0  0  0  0  0  0  0  0
   -7.4599   -5.5468   13.4600 H   0  0  0  0  0  0  0  0  0  0  0  0
   -6.9333   -2.3100   14.7300 H   0  0  0  0  0  0  0  0  0  0  0  0
   -6.0513   -4.1676   16.6682 H   0  0  0  0  0  0  0  0  0  0  0  0
   -4.6463   -4.8436   15.7763 H   0  0  0  0  0  0  0  0  0  0  0  0
   -5.4219   -1.9147   16.0780 H   0  0  0  0  0  0  0  0  0  0  0  0
   -4.0063   -2.7524   16.7999 H   0  0  0  0  0  0  0  0  0  0  0  0
   -5.3737   -1.5837   13.5023 H   0  0  0  0  0  0  0  0  0  0  0  0
   -3.9441   -2.2536   12.6455 H   0  0  0  0  0  0  0  0  0  0  0  0
   -4.6149   -4.5273   13.1672 H   0  0  0  0  0  0  0  0  0  0  0  0
   -6.0071   -3.6685   12.4250 H   0  0  0  0  0  0  0  0  0  0  0  0
   -2.5080   -0.5246   13.3530 H   0  0  0  0  0  0  0  0  0  0  0  0
   -0.0872   -0.0251   13.6253 H   0  0  0  0  0  0  0  0  0  0  0  0
    1.2452    0.3578   13.3641 H   0  0  0  0  0  0  0  0  0  0  0  0
    5.1518    1.9286   13.2442 H   0  0  0  0  0  0  0  0  0  0  0  0
    6.8387    0.8784   15.3052 H   0  0  0  0  0  0  0  0  0  0  0  0
    6.2576   -0.7714   17.3403 H   0  0  0  0  0  0  0  0  0  0  0  0
    4.3085    3.2034   11.7187 H   0  0  0  0  0  0  0  0  0  0  0  0
    4.0040    1.7537   10.7028 H   0  0  0  0  0  0  0  0  0  0  0  0
    3.8635    3.8164    9.3818 H   0  0  0  0  0  0  0  0  0  0  0  0
    1.3624    5.1019    8.2385 H   0  0  0  0  0  0  0  0  0  0  0  0
    0.5610    2.2069   12.8061 H   0  0  0  0  0  0  0  0  0  0  0  0
    0.2099   -3.2208   16.4783 H   0  0  0  0  0  0  0  0  0  0  0  0
   -2.1883   -3.6472   16.2676 H   0  0  0  0  0  0  0  0  0  0  0  0
  1  2  1  0  0  0  0
  2  3  1  0  0  0  0
  2  4  1  0  0  0  0
  2  8  1  0  0  0  0
  4  5  1  0  0  0  0
  5  6  1  0  0  0  0
  6  7  1  0  0  0  0
  6  9  1  0  0  0  0
  7  8  1  0  0  0  0
  9 10  2  0  0  0  0
  9 33  1  0  0  0  0
 10 11  1  0  0  0  0
 11 12  2  0  0  0  0
 12 13  1  0  0  0  0
 12 32  1  0  0  0  0
 13 14  2  0  0  0  0
 14 15  1  0  0  0  0
 14 22  1  0  0  0  0
 15 16  1  0  0  0  0
 16 17  2  0  0  0  0
 16 23  1  0  0  0  0
 17 18  1  0  0  0  0
 18 19  1  0  0  0  0
 18 22  1  0  0  0  0
 19 20  2  0  0  0  0
 20 21  1  0  0  0  0
 21 22  2  0  0  0  0
 23 24  1  0  0  0  0
 23 31  2  0  0  0  0
 24 25  1  0  0  0  0
 25 26  2  0  0  0  0
 26 27  1  0  0  0  0
 26 30  1  0  0  0  0
 27 28  2  0  0  0  0
 28 29  1  0  0  0  0
 29 30  2  0  0  0  0
 30 31  1  0  0  0  0
 32 33  2  0  0  0  0
  1 34  1  0  0  0  0
  1 35  1  0  0  0  0
  1 36  1  0  0  0  0
  3 37  1  0  0  0  0
  4 38  1  0  0  0  0
  4 39  1  0  0  0  0
  5 40  1  0  0  0  0
  5 41  1  0  0  0  0
  7 42  1  0  0  0  0
  7 43  1  0  0  0  0
  8 44  1  0  0  0  0
  8 45  1  0  0  0  0
 10 46  1  0  0  0  0
 11 47  1  0  0  0  0
 15 48  1  0  0  0  0
 17 49  1  0  0  0  0
 19 50  1  0  0  0  0
 20 51  1  0  0  0  0
 24 52  1  0  0  0  0
 24 53  1  0  0  0  0
 25 54  1  0  0  0  0
 27 55  1  0  0  0  0
 31 56  1  0  0  0  0
 32 57  1  0  0  0  0
 33 58  1  0  0  0  0
M  END
> <IC50[nM]>
1.4

$$$$
CHEMBL3265031
  -OEChem-05192314333D
 Structure written by MMmdl.
 58 63  0     0  0  0  0  0  0999 V2000
   -6.8350   -5.5126   14.3646 C   0  0  0  0  0  0  0  0  0  0  0  0
   -6.2469   -4.1256   14.5196 C   0  0  0  0  0  0  0  0  0  0  0  0
   -7.2986   -3.1815   14.6326 O   0  0  0  0  0  0  0  0  0  0  0  0
   -5.3943   -4.0373   15.7957 C   0  0  0  0  0  0  0  0  0  0  0  0
   -4.6708   -2.7036   15.9246 C   0  0  0  0  0  0  0  0  0  0  0  0
   -3.8604   -2.3511   14.7445 N   0  0  0  0  0  0  0  0  0  0  0  0
   -4.6320   -2.3959   13.4920 C   0  0  0  0  0  0  0  0  0  0  0  0
   -5.3661   -3.7377   13.3163 C   0  0  0  0  0  0  0  0  0  0  0  0
   -2.5090   -2.1078   14.8185 C   0  0  0  0  0  0  0  0  0  0  0  0
   -1.9132   -1.0937   14.0521 C   0  0  0  0  0  0  0  0  0  0  0  0
   -0.5452   -0.8202   14.1949 C   0  0  0  0  0  0  0  0  0  0  0  0
    0.2267   -1.5891   15.0857 C   0  0  0  0  0  0  0  0  0  0  0  0
    1.6093   -1.3706   15.3172 N   0  0  0  0  0  0  0  0  0  0  0  0
    2.5356   -0.4465   14.7610 C   0  0  0  0  0  0  0  0  0  0  0  0
    2.1744    0.3801   13.7331 N   0  0  0  0  0  0  0  0  0  0  0  0
    3.1091    1.2393   13.2182 C   0  0  0  0  0  0  0  0  0  0  0  0
    4.4162    1.2819   13.6993 C   0  0  0  0  0  0  0  0  0  0  0  0
    4.7443    0.4889   14.7568 N   0  0  0  0  0  0  0  0  0  0  0  0
    5.8980    0.3793   15.4854 C   0  0  0  0  0  0  0  0  0  0  0  0
    5.5914   -0.5292   16.5255 C   0  0  0  0  0  0  0  0  0  0  0  0
    4.3788   -1.0451   16.3697 N   0  0  0  0  0  0  0  0  0  0  0  0
    3.8374   -0.3956   15.3255 C   0  0  0  0  0  0  0  0  0  0  0  0
    2.6339    2.1607   12.1207 C   0  0  0  0  0  0  0  0  0  0  0  0
    3.5443    2.6413   11.1620 C   0  0  0  0  0  0  0  0  0  0  0  0
    3.1470    3.4630   10.1086 C   0  0  0  0  0  0  0  0  0  0  0  0
    1.8016    3.8175   10.0163 C   0  0  0  0  0  0  0  0  0  0  0  0
    0.9929    4.5961    9.1183 C   0  0  0  0  0  0  0  0  0  0  0  0
   -0.2479    4.6060    9.5144 N   0  0  0  0  0  0  0  0  0  0  0  0
   -0.3355    3.8922   10.6289 N   0  0  0  0  0  0  0  0  0  0  0  0
    0.8848    3.3596   10.9956 C   0  0  0  0  0  0  0  0  0  0  0  0
    1.2708    2.5377   12.0624 C   0  0  0  0  0  0  0  0  0  0  0  0
   -0.3834   -2.6137   15.8106 C   0  0  0  0  0  0  0  0  0  0  0  0
   -1.7318   -2.8604   15.6854 C   0  0  0  0  0  0  0  0  0  0  0  0
   -6.0221   -6.2484   14.2766 H   0  0  0  0  0  0  0  0  0  0  0  0
   -7.4507   -5.7501   15.2447 H   0  0  0  0  0  0  0  0  0  0  0  0
   -7.4599   -5.5468   13.4600 H   0  0  0  0  0  0  0  0  0  0  0  0
   -6.9333   -2.3100   14.7300 H   0  0  0  0  0  0  0  0  0  0  0  0
   -6.0513   -4.1676   16.6682 H   0  0  0  0  0  0  0  0  0  0  0  0
   -4.6463   -4.8436   15.7763 H   0  0  0  0  0  0  0  0  0  0  0  0
   -5.4219   -1.9147   16.0780 H   0  0  0  0  0  0  0  0  0  0  0  0
   -4.0063   -2.7524   16.7999 H   0  0  0  0  0  0  0  0  0  0  0  0
   -5.3737   -1.5837   13.5023 H   0  0  0  0  0  0  0  0  0  0  0  0
   -3.9441   -2.2536   12.6455 H   0  0  0  0  0  0  0  0  0  0  0  0
   -4.6149   -4.5273   13.1672 H   0  0  0  0  0  0  0  0  0  0  0  0
   -6.0071   -3.6685   12.4250 H   0  0  0  0  0  0  0  0  0  0  0  0
   -2.5080   -0.5246   13.3530 H   0  0  0  0  0  0  0  0  0  0  0  0
   -0.0872   -0.0251   13.6253 H   0  0  0  0  0  0  0  0  0  0  0  0
    1.2452    0.3578   13.3641 H   0  0  0  0  0  0  0  0  0  0  0  0
    5.1518    1.9286   13.2442 H   0  0  0  0  0  0  0  0  0  0  0  0
    6.8387    0.8784   15.3052 H   0  0  0  0  0  0  0  0  0  0  0  0
    6.2576   -0.7714   17.3403 H   0  0  0  0  0  0  0  0  0  0  0  0
    4.5849    2.3646   11.2449 H   0  0  0  0  0  0  0  0  0  0  0  0
    3.8635    3.8164    9.3818 H   0  0  0  0  0  0  0  0  0  0  0  0
    1.3624    5.1019    8.2385 H   0  0  0  0  0  0  0  0  0  0  0  0
    0.6734    1.6159   12.0045 H   0  0  0  0  0  0  0  0  0  0  0  0
    1.0334    3.0705   12.9950 H   0  0  0  0  0  0  0  0  0  0  0  0
    0.2099   -3.2208   16.4783 H   0  0  0  0  0  0  0  0  0  0  0  0
   -2.1883   -3.6472   16.2676 H   0  0  0  0  0  0  0  0  0  0  0  0
  1  2  1  0  0  0  0
  2  3  1  0  0  0  0
  2  4  1  0  0  0  0
  2  8  1  0  0  0  0
  4  5  1  0  0  0  0
  5  6  1  0  0  0  0
  6  7  1  0  0  0  0
  6  9  1  0  0  0  0
  7  8  1  0  0  0  0
  9 10  2  0  0  0  0
  9 33  1  0  0  0  0
 10 11  1  0  0  0  0
 11 12  2  0  0  0  0
 12 13  1  0  0  0  0
 12 32  1  0  0  0  0
 13 14  2  0  0  0  0
 14 15  1  0  0  0  0
 14 22  1  0  0  0  0
 15 16  1  0  0  0  0
 16 17  2  0  0  0  0
 16 23  1  0  0  0  0
 17 18  1  0  0  0  0
 18 19  1  0  0  0  0
 18 22  1  0  0  0  0
 19 20  2  0  0  0  0
 20 21  1  0  0  0  0
 21 22  2  0  0  0  0
 23 24  2  0  0  0  0
 23 31  1  0  0  0  0
 24 25  1  0  0  0  0
 25 26  2  0  0  0  0
 26 27  1  0  0  0  0
 26 30  1  0  0  0  0
 27 28  2  0  0  0  0
 28 29  1  0  0  0  0
 29 30  2  0  0  0  0
 30 31  1  0  0  0  0
 32 33  2  0  0  0  0
  1 34  1  0  0  0  0
  1 35  1  0  0  0  0
  1 36  1  0  0  0  0
  3 37  1  0  0  0  0
  4 38  1  0  0  0  0
  4 39  1  0  0  0  0
  5 40  1  0  0  0  0
  5 41  1  0  0  0  0
  7 42  1  0  0  0  0
  7 43  1  0  0  0  0
  8 44  1  0  0  0  0
  8 45  1  0  0  0  0
 10 46  1  0  0  0  0
 11 47  1  0  0  0  0
 15 48  1  0  0  0  0
 17 49  1  0  0  0  0
 19 50  1  0  0  0  0
 20 51  1  0  0  0  0
 24 52  1  0  0  0  0
 25 53  1  0  0  0  0
 27 54  1  0  0  0  0
 31 55  1  0  0  0  0
 31 56  1  0  0  0  0
 32 57  1  0  0  0  0
 33 58  1  0  0  0  0
M  END
> <IC50[nM]>
1.4

$$$$
CHEMBL3265031
  -OEChem-05192314333D
 Structure written by MMmdl.
 58 63  0     1  0  0  0  0  0999 V2000
   -6.8350   -5.5126   14.3646 C   0  0  0  0  0  0  0  0  0  0  0  0
   -6.2469   -4.1256   14.5196 C   0  0  0  0  0  0  0  0  0  0  0  0
   -7.2986   -3.1815   14.6326 O   0  0  0  0  0  0  0  0  0  0  0  0
   -5.3943   -4.0373   15.7957 C   0  0  0  0  0  0  0  0  0  0  0  0
   -4.6708   -2.7036   15.9246 C   0  0  0  0  0  0  0  0  0  0  0  0
   -3.8604   -2.3511   14.7445 N   0  0  0  0  0  0  0  0  0  0  0  0
   -4.6320   -2.3959   13.4920 C   0  0  0  0  0  0  0  0  0  0  0  0
   -5.3661   -3.7377   13.3163 C   0  0  0  0  0  0  0  0  0  0  0  0
   -2.5090   -2.1078   14.8185 C   0  0  0  0  0  0  0  0  0  0  0  0
   -1.9132   -1.0937   14.0521 C   0  0  0  0  0  0  0  0  0  0  0  0
   -0.5452   -0.8202   14.1949 C   0  0  0  0  0  0  0  0  0  0  0  0
    0.2267   -1.5891   15.0857 C   0  0  0  0  0  0  0  0  0  0  0  0
    1.6093   -1.3706   15.3172 N   0  0  0  0  0  0  0  0  0  0  0  0
    2.5356   -0.4465   14.7610 C   0  0  0  0  0  0  0  0  0  0  0  0
    2.1744    0.3801   13.7331 N   0  0  0  0  0  0  0  0  0  0  0  0
    3.1091    1.2393   13.2182 C   0  0  0  0  0  0  0  0  0  0  0  0
    4.4162    1.2819   13.6993 C   0  0  0  0  0  0  0  0  0  0  0  0
    4.7443    0.4889   14.7568 N   0  0  0  0  0  0  0  0  0  0  0  0
    5.8980    0.3793   15.4854 C   0  0  0  0  0  0  0  0  0  0  0  0
    5.5914   -0.5292   16.5255 C   0  0  0  0  0  0  0  0  0  0  0  0
    4.3788   -1.0451   16.3697 N   0  0  0  0  0  0  0  0  0  0  0  0
    3.8374   -0.3956   15.3255 C   0  0  0  0  0  0  0  0  0  0  0  0
    2.6339    2.1607   12.1207 C   0  0  3  0  0  0  0  0  0  0  0  0
    3.5443    2.6413   11.1620 C   0  0  0  0  0  0  0  0  0  0  0  0
    3.1470    3.4630   10.1086 C   0  0  0  0  0  0  0  0  0  0  0  0
    1.8016    3.8175   10.0163 C   0  0  0  0  0  0  0  0  0  0  0  0
    0.9929    4.5961    9.1183 C   0  0  0  0  0  0  0  0  0  0  0  0
   -0.2479    4.6060    9.5144 N   0  0  0  0  0  0  0  0  0  0  0  0
   -0.3355    3.8922   10.6289 N   0  0  0  0  0  0  0  0  0  0  0  0
    0.8848    3.3596   10.9956 C   0  0  0  0  0  0  0  0  0  0  0  0
    1.2708    2.5377   12.0624 C   0  0  0  0  0  0  0  0  0  0  0  0
   -0.3834   -2.6137   15.8106 C   0  0  0  0  0  0  0  0  0  0  0  0
   -1.7318   -2.8604   15.6854 C   0  0  0  0  0  0  0  0  0  0  0  0
   -6.0221   -6.2484   14.2766 H   0  0  0  0  0  0  0  0  0  0  0  0
   -7.4507   -5.7501   15.2447 H   0  0  0  0  0  0  0  0  0  0  0  0
   -7.4599   -5.5468   13.4600 H   0  0  0  0  0  0  0  0  0  0  0  0
   -6.9333   -2.3100   14.7300 H   0  0  0  0  0  0  0  0  0  0  0  0
   -6.0513   -4.1676   16.6682 H   0  0  0  0  0  0  0  0  0  0  0  0
   -4.6463   -4.8436   15.7763 H   0  0  0  0  0  0  0  0  0  0  0  0
   -5.4219   -1.9147   16.0780 H   0  0  0  0  0  0  0  0  0  0  0  0
   -4.0063   -2.7524   16.7999 H   0  0  0  0  0  0  0  0  0  0  0  0
   -5.3737   -1.5837   13.5023 H   0  0  0  0  0  0  0  0  0  0  0  0
   -3.9441   -2.2536   12.6455 H   0  0  0  0  0  0  0  0  0  0  0  0
   -4.6149   -4.5273   13.1672 H   0  0  0  0  0  0  0  0  0  0  0  0
   -6.0071   -3.6685   12.4250 H   0  0  0  0  0  0  0  0  0  0  0  0
   -2.5080   -0.5246   13.3530 H   0  0  0  0  0  0  0  0  0  0  0  0
   -0.0872   -0.0251   13.6253 H   0  0  0  0  0  0  0  0  0  0  0  0
    1.2452    0.3578   13.3641 H   0  0  0  0  0  0  0  0  0  0  0  0
    5.1518    1.9286   13.2442 H   0  0  0  0  0  0  0  0  0  0  0  0
    6.8387    0.8784   15.3052 H   0  0  0  0  0  0  0  0  0  0  0  0
    6.2576   -0.7714   17.3403 H   0  0  0  0  0  0  0  0  0  0  0  0
    2.4207    1.2906   11.4823 H   0  0  0  0  0  0  0  0  0  0  0  0
    4.5849    2.3646   11.2449 H   0  0  0  0  0  0  0  0  0  0  0  0
    3.8635    3.8164    9.3818 H   0  0  0  0  0  0  0  0  0  0  0  0
    1.3624    5.1019    8.2385 H   0  0  0  0  0  0  0  0  0  0  0  0
    0.5610    2.2069   12.8061 H   0  0  0  0  0  0  0  0  0  0  0  0
    0.2099   -3.2208   16.4783 H   0  0  0  0  0  0  0  0  0  0  0  0
   -2.1883   -3.6472   16.2676 H   0  0  0  0  0  0  0  0  0  0  0  0
  1  2  1  0  0  0  0
  2  3  1  0  0  0  0
  2  4  1  0  0  0  0
  2  8  1  0  0  0  0
  4  5  1  0  0  0  0
  5  6  1  0  0  0  0
  6  7  1  0  0  0  0
  6  9  1  0  0  0  0
  7  8  1  0  0  0  0
  9 10  2  0  0  0  0
  9 33  1  0  0  0  0
 10 11  1  0  0  0  0
 11 12  2  0  0  0  0
 12 13  1  0  0  0  0
 12 32  1  0  0  0  0
 13 14  2  0  0  0  0
 14 15  1  0  0  0  0
 14 22  1  0  0  0  0
 15 16  1  0  0  0  0
 16 17  2  0  0  0  0
 16 23  1  0  0  0  0
 17 18  1  0  0  0  0
 18 19  1  0  0  0  0
 18 22  1  0  0  0  0
 19 20  2  0  0  0  0
 20 21  1  0  0  0  0
 21 22  2  0  0  0  0
 23 24  1  0  0  0  0
 23 31  1  0  0  0  0
 24 25  2  0  0  0  0
 25 26  1  0  0  0  0
 26 27  2  0  0  0  0
 26 30  1  0  0  0  0
 27 28  1  0  0  0  0
 28 29  2  0  0  0  0
 29 30  1  0  0  0  0
 30 31  2  0  0  0  0
 32 33  2  0  0  0  0
  1 34  1  0  0  0  0
  1 35  1  0  0  0  0
  1 36  1  0  0  0  0
  3 37  1  0  0  0  0
  4 38  1  0  0  0  0
  4 39  1  0  0  0  0
  5 40  1  0  0  0  0
  5 41  1  0  0  0  0
  7 42  1  0  0  0  0
  7 43  1  0  0  0  0
  8 44  1  0  0  0  0
  8 45  1  0  0  0  0
 10 46  1  0  0  0  0
 11 47  1  0  0  0  0
 15 48  1  0  0  0  0
 17 49  1  0  0  0  0
 19 50  1  0  0  0  0
 20 51  1  0  0  0  0
 23 52  1  0  0  0  0
 24 53  1  0  0  0  0
 25 54  1  0  0  0  0
 27 55  1  0  0  0  0
 31 56  1  0  0  0  0
 32 57  1  0  0  0  0
 33 58  1  0  0  0  0
M  END
> <IC50[nM]>
1.4

$$$$
CHEMBL3265031
  -OEChem-05192314333D
 Structure written by MMmdl.
 58 63  0     1  0  0  0  0  0999 V2000
   -6.8350   -5.5126   14.3646 C   0  0  0  0  0  0  0  0  0  0  0  0
   -6.2469   -4.1256   14.5196 C   0  0  0  0  0  0  0  0  0  0  0  0
   -7.2986   -3.1815   14.6326 O   0  0  0  0  0  0  0  0  0  0  0  0
   -5.3943   -4.0373   15.7957 C   0  0  0  0  0  0  0  0  0  0  0  0
   -4.6708   -2.7036   15.9246 C   0  0  0  0  0  0  0  0  0  0  0  0
   -3.8604   -2.3511   14.7445 N   0  0  0  0  0  0  0  0  0  0  0  0
   -4.6320   -2.3959   13.4920 C   0  0  0  0  0  0  0  0  0  0  0  0
   -5.3661   -3.7377   13.3163 C   0  0  0  0  0  0  0  0  0  0  0  0
   -2.5090   -2.1078   14.8185 C   0  0  0  0  0  0  0  0  0  0  0  0
   -1.9132   -1.0937   14.0521 C   0  0  0  0  0  0  0  0  0  0  0  0
   -0.5452   -0.8202   14.1949 C   0  0  0  0  0  0  0  0  0  0  0  0
    0.2267   -1.5891   15.0857 C   0  0  0  0  0  0  0  0  0  0  0  0
    1.6093   -1.3706   15.3172 N   0  0  0  0  0  0  0  0  0  0  0  0
    2.5356   -0.4465   14.7610 C   0  0  0  0  0  0  0  0  0  0  0  0
    2.1744    0.3801   13.7331 N   0  0  0  0  0  0  0  0  0  0  0  0
    3.1091    1.2393   13.2182 C   0  0  0  0  0  0  0  0  0  0  0  0
    4.4162    1.2819   13.6993 C   0  0  0  0  0  0  0  0  0  0  0  0
    4.7443    0.4889   14.7568 N   0  0  0  0  0  0  0  0  0  0  0  0
    5.8980    0.3793   15.4854 C   0  0  0  0  0  0  0  0  0  0  0  0
    5.5914   -0.5292   16.5255 C   0  0  0  0  0  0  0  0  0  0  0  0
    4.3788   -1.0451   16.3697 N   0  0  0  0  0  0  0  0  0  0  0  0
    3.8374   -0.3956   15.3255 C   0  0  0  0  0  0  0  0  0  0  0  0
    2.6339    2.1607   12.1207 C   0  0  0  0  0  0  0  0  0  0  0  0
    3.5443    2.6413   11.1620 C   0  0  0  0  0  0  0  0  0  0  0  0
    3.1470    3.4630   10.1086 C   0  0  0  0  0  0  0  0  0  0  0  0
    1.8016    3.8175   10.0163 C   0  0  0  0  0  0  0  0  0  0  0  0
    0.9929    4.5961    9.1183 C   0  0  0  0  0  0  0  0  0  0  0  0
   -0.2479    4.6060    9.5144 N   0  0  0  0  0  0  0  0  0  0  0  0
   -0.3355    3.8922   10.6289 N   0  0  0  0  0  0  0  0  0  0  0  0
    0.8848    3.3596   10.9956 C   0  0  3  0  0  0  0  0  0  0  0  0
    1.2708    2.5377   12.0624 C   0  0  0  0  0  0  0  0  0  0  0  0
   -0.3834   -2.6137   15.8106 C   0  0  0  0  0  0  0  0  0  0  0  0
   -1.7318   -2.8604   15.6854 C   0  0  0  0  0  0  0  0  0  0  0  0
   -6.0221   -6.2484   14.2766 H   0  0  0  0  0  0  0  0  0  0  0  0
   -7.4507   -5.7501   15.2447 H   0  0  0  0  0  0  0  0  0  0  0  0
   -7.4599   -5.5468   13.4600 H   0  0  0  0  0  0  0  0  0  0  0  0
   -6.9333   -2.3100   14.7300 H   0  0  0  0  0  0  0  0  0  0  0  0
   -6.0513   -4.1676   16.6682 H   0  0  0  0  0  0  0  0  0  0  0  0
   -4.6463   -4.8436   15.7763 H   0  0  0  0  0  0  0  0  0  0  0  0
   -5.4219   -1.9147   16.0780 H   0  0  0  0  0  0  0  0  0  0  0  0
   -4.0063   -2.7524   16.7999 H   0  0  0  0  0  0  0  0  0  0  0  0
   -5.3737   -1.5837   13.5023 H   0  0  0  0  0  0  0  0  0  0  0  0
   -3.9441   -2.2536   12.6455 H   0  0  0  0  0  0  0  0  0  0  0  0
   -4.6149   -4.5273   13.1672 H   0  0  0  0  0  0  0  0  0  0  0  0
   -6.0071   -3.6685   12.4250 H   0  0  0  0  0  0  0  0  0  0  0  0
   -2.5080   -0.5246   13.3530 H   0  0  0  0  0  0  0  0  0  0  0  0
   -0.0872   -0.0251   13.6253 H   0  0  0  0  0  0  0  0  0  0  0  0
    1.2452    0.3578   13.3641 H   0  0  0  0  0  0  0  0  0  0  0  0
    5.1518    1.9286   13.2442 H   0  0  0  0  0  0  0  0  0  0  0  0
    6.8387    0.8784   15.3052 H   0  0  0  0  0  0  0  0  0  0  0  0
    6.2576   -0.7714   17.3403 H   0  0  0  0  0  0  0  0  0  0  0  0
    4.5849    2.3646   11.2449 H   0  0  0  0  0  0  0  0  0  0  0  0
    3.8635    3.8164    9.3818 H   0  0  0  0  0  0  0  0  0  0  0  0
    1.3624    5.1019    8.2385 H   0  0  0  0  0  0  0  0  0  0  0  0
    1.0911    4.2508   11.6065 H   0  0  0  0  0  0  0  0  0  0  0  0
    0.5610    2.2069   12.8061 H   0  0  0  0  0  0  0  0  0  0  0  0
    0.2099   -3.2208   16.4783 H   0  0  0  0  0  0  0  0  0  0  0  0
   -2.1883   -3.6472   16.2676 H   0  0  0  0  0  0  0  0  0  0  0  0
  1  2  1  0  0  0  0
  2  3  1  0  0  0  0
  2  4  1  0  0  0  0
  2  8  1  0  0  0  0
  4  5  1  0  0  0  0
  5  6  1  0  0  0  0
  6  7  1  0  0  0  0
  6  9  1  0  0  0  0
  7  8  1  0  0  0  0
  9 10  2  0  0  0  0
  9 33  1  0  0  0  0
 10 11  1  0  0  0  0
 11 12  2  0  0  0  0
 12 13  1  0  0  0  0
 12 32  1  0  0  0  0
 13 14  2  0  0  0  0
 14 15  1  0  0  0  0
 14 22  1  0  0  0  0
 15 16  1  0  0  0  0
 16 17  2  0  0  0  0
 16 23  1  0  0  0  0
 17 18  1  0  0  0  0
 18 19  1  0  0  0  0
 18 22  1  0  0  0  0
 19 20  2  0  0  0  0
 20 21  1  0  0  0  0
 21 22  2  0  0  0  0
 23 24  1  0  0  0  0
 23 31  2  0  0  0  0
 24 25  2  0  0  0  0
 25 26  1  0  0  0  0
 26 27  2  0  0  0  0
 26 30  1  0  0  0  0
 27 28  1  0  0  0  0
 28 29  2  0  0  0  0
 29 30  1  0  0  0  0
 30 31  1  0  0  0  0
 32 33  2  0  0  0  0
  1 34  1  0  0  0  0
  1 35  1  0  0  0  0
  1 36  1  0  0  0  0
  3 37  1  0  0  0  0
  4 38  1  0  0  0  0
  4 39  1  0  0  0  0
  5 40  1  0  0  0  0
  5 41  1  0  0  0  0
  7 42  1  0  0  0  0
  7 43  1  0  0  0  0
  8 44  1  0  0  0  0
  8 45  1  0  0  0  0
 10 46  1  0  0  0  0
 11 47  1  0  0  0  0
 15 48  1  0  0  0  0
 17 49  1  0  0  0  0
 19 50  1  0  0  0  0
 20 51  1  0  0  0  0
 24 52  1  0  0  0  0
 25 53  1  0  0  0  0
 27 54  1  0  0  0  0
 30 55  1  0  0  0  0
 31 56  1  0  0  0  0
 32 57  1  0  0  0  0
 33 58  1  0  0  0  0
M  END
> <IC50[nM]>
1.4

$$$$
CHEMBL3265031
  -OEChem-05192314333D
 Structure written by MMmdl.
 58 63  0     0  0  0  0  0  0999 V2000
   -6.8350   -5.5126   14.3646 C   0  0  0  0  0  0  0  0  0  0  0  0
   -6.2469   -4.1256   14.5196 C   0  0  0  0  0  0  0  0  0  0  0  0
   -7.2986   -3.1815   14.6326 O   0  0  0  0  0  0  0  0  0  0  0  0
   -5.3943   -4.0373   15.7957 C   0  0  0  0  0  0  0  0  0  0  0  0
   -4.6708   -2.7036   15.9246 C   0  0  0  0  0  0  0  0  0  0  0  0
   -3.8604   -2.3511   14.7445 N   0  0  0  0  0  0  0  0  0  0  0  0
   -4.6320   -2.3959   13.4920 C   0  0  0  0  0  0  0  0  0  0  0  0
   -5.3661   -3.7377   13.3163 C   0  0  0  0  0  0  0  0  0  0  0  0
   -2.5090   -2.1078   14.8185 C   0  0  0  0  0  0  0  0  0  0  0  0
   -1.9132   -1.0937   14.0521 C   0  0  0  0  0  0  0  0  0  0  0  0
   -0.5452   -0.8202   14.1949 C   0  0  0  0  0  0  0  0  0  0  0  0
    0.2267   -1.5891   15.0857 C   0  0  0  0  0  0  0  0  0  0  0  0
    1.6093   -1.3706   15.3172 N   0  0  0  0  0  0  0  0  0  0  0  0
    2.5356   -0.4465   14.7610 C   0  0  0  0  0  0  0  0  0  0  0  0
    2.1744    0.3801   13.7331 N   0  0  0  0  0  0  0  0  0  0  0  0
    3.1091    1.2393   13.2182 C   0  0  0  0  0  0  0  0  0  0  0  0
    4.4162    1.2819   13.6993 C   0  0  0  0  0  0  0  0  0  0  0  0
    4.7443    0.4889   14.7568 N   0  0  0  0  0  0  0  0  0  0  0  0
    5.8980    0.3793   15.4854 C   0  0  0  0  0  0  0  0  0  0  0  0
    5.5914   -0.5292   16.5255 C   0  0  0  0  0  0  0  0  0  0  0  0
    4.3788   -1.0451   16.3697 N   0  0  0  0  0  0  0  0  0  0  0  0
    3.8374   -0.3956   15.3255 C   0  0  0  0  0  0  0  0  0  0  0  0
    2.6339    2.1607   12.1207 C   0  0  0  0  0  0  0  0  0  0  0  0
    3.5443    2.6413   11.1620 C   0  0  0  0  0  0  0  0  0  0  0  0
    3.1470    3.4630   10.1086 C   0  0  0  0  0  0  0  0  0  0  0  0
    1.8016    3.8175   10.0163 C   0  0  0  0  0  0  0  0  0  0  0  0
    0.9929    4.5961    9.1183 C   0  0  0  0  0  0  0  0  0  0  0  0
   -0.2479    4.6060    9.5144 N   0  0  0  0  0  0  0  0  0  0  0  0
   -0.3355    3.8922   10.6289 N   0  0  0  0  0  0  0  0  0  0  0  0
    0.8848    3.3596   10.9956 C   0  0  0  0  0  0  0  0  0  0  0  0
    1.2708    2.5377   12.0624 C   0  0  0  0  0  0  0  0  0  0  0  0
   -0.3834   -2.6137   15.8106 C   0  0  0  0  0  0  0  0  0  0  0  0
   -1.7318   -2.8604   15.6854 C   0  0  0  0  0  0  0  0  0  0  0  0
   -6.0221   -6.2484   14.2766 H   0  0  0  0  0  0  0  0  0  0  0  0
   -7.4507   -5.7501   15.2447 H   0  0  0  0  0  0  0  0  0  0  0  0
   -7.4599   -5.5468   13.4600 H   0  0  0  0  0  0  0  0  0  0  0  0
   -6.9333   -2.3100   14.7300 H   0  0  0  0  0  0  0  0  0  0  0  0
   -6.0513   -4.1676   16.6682 H   0  0  0  0  0  0  0  0  0  0  0  0
   -4.6463   -4.8436   15.7763 H   0  0  0  0  0  0  0  0  0  0  0  0
   -5.4219   -1.9147   16.0780 H   0  0  0  0  0  0  0  0  0  0  0  0
   -4.0063   -2.7524   16.7999 H   0  0  0  0  0  0  0  0  0  0  0  0
   -5.3737   -1.5837   13.5023 H   0  0  0  0  0  0  0  0  0  0  0  0
   -3.9441   -2.2536   12.6455 H   0  0  0  0  0  0  0  0  0  0  0  0
   -4.6149   -4.5273   13.1672 H   0  0  0  0  0  0  0  0  0  0  0  0
   -6.0071   -3.6685   12.4250 H   0  0  0  0  0  0  0  0  0  0  0  0
   -2.5080   -0.5246   13.3530 H   0  0  0  0  0  0  0  0  0  0  0  0
   -0.0872   -0.0251   13.6253 H   0  0  0  0  0  0  0  0  0  0  0  0
    1.2452    0.3578   13.3641 H   0  0  0  0  0  0  0  0  0  0  0  0
    5.1518    1.9286   13.2442 H   0  0  0  0  0  0  0  0  0  0  0  0
    6.8387    0.8784   15.3052 H   0  0  0  0  0  0  0  0  0  0  0  0
    6.2576   -0.7714   17.3403 H   0  0  0  0  0  0  0  0  0  0  0  0
    4.5849    2.3646   11.2449 H   0  0  0  0  0  0  0  0  0  0  0  0
    3.7246    4.3958   10.1878 H   0  0  0  0  0  0  0  0  0  0  0  0
    3.4120    2.9458    9.1746 H   0  0  0  0  0  0  0  0  0  0  0  0
    1.3624    5.1019    8.2385 H   0  0  0  0  0  0  0  0  0  0  0  0
    0.5610    2.2069   12.8061 H   0  0  0  0  0  0  0  0  0  0  0  0
    0.2099   -3.2208   16.4783 H   0  0  0  0  0  0  0  0  0  0  0  0
   -2.1883   -3.6472   16.2676 H   0  0  0  0  0  0  0  0  0  0  0  0
  1  2  1  0  0  0  0
  2  3  1  0  0  0  0
  2  4  1  0  0  0  0
  2  8  1  0  0  0  0
  4  5  1  0  0  0  0
  5  6  1  0  0  0  0
  6  7  1  0  0  0  0
  6  9  1  0  0  0  0
  7  8  1  0  0  0  0
  9 10  2  0  0  0  0
  9 33  1  0  0  0  0
 10 11  1  0  0  0  0
 11 12  2  0  0  0  0
 12 13  1  0  0  0  0
 12 32  1  0  0  0  0
 13 14  2  0  0  0  0
 14 15  1  0  0  0  0
 14 22  1  0  0  0  0
 15 16  1  0  0  0  0
 16 17  2  0  0  0  0
 16 23  1  0  0  0  0
 17 18  1  0  0  0  0
 18 19  1  0  0  0  0
 18 22  1  0  0  0  0
 19 20  2  0  0  0  0
 20 21  1  0  0  0  0
 21 22  2  0  0  0  0
 23 24  2  0  0  0  0
 23 31  1  0  0  0  0
 24 25  1  0  0  0  0
 25 26  1  0  0  0  0
 26 27  2  0  0  0  0
 26 30  1  0  0  0  0
 27 28  1  0  0  0  0
 28 29  2  0  0  0  0
 29 30  1  0  0  0  0
 30 31  2  0  0  0  0
 32 33  2  0  0  0  0
  1 34  1  0  0  0  0
  1 35  1  0  0  0  0
  1 36  1  0  0  0  0
  3 37  1  0  0  0  0
  4 38  1  0  0  0  0
  4 39  1  0  0  0  0
  5 40  1  0  0  0  0
  5 41  1  0  0  0  0
  7 42  1  0  0  0  0
  7 43  1  0  0  0  0
  8 44  1  0  0  0  0
  8 45  1  0  0  0  0
 10 46  1  0  0  0  0
 11 47  1  0  0  0  0
 15 48  1  0  0  0  0
 17 49  1  0  0  0  0
 19 50  1  0  0  0  0
 20 51  1  0  0  0  0
 24 52  1  0  0  0  0
 25 53  1  0  0  0  0
 25 54  1  0  0  0  0
 27 55  1  0  0  0  0
 31 56  1  0  0  0  0
 32 57  1  0  0  0  0
 33 58  1  0  0  0  0
M  END
> <IC50[nM]>
1.4

$$$$
CHEMBL3265031
  -OEChem-05192314333D
 Structure written by MMmdl.
 58 63  0     1  0  0  0  0  0999 V2000
   -6.8350   -5.5126   14.3646 C   0  0  0  0  0  0  0  0  0  0  0  0
   -6.2469   -4.1256   14.5196 C   0  0  0  0  0  0  0  0  0  0  0  0
   -7.2986   -3.1815   14.6326 O   0  0  0  0  0  0  0  0  0  0  0  0
   -5.3943   -4.0373   15.7957 C   0  0  0  0  0  0  0  0  0  0  0  0
   -4.6708   -2.7036   15.9246 C   0  0  0  0  0  0  0  0  0  0  0  0
   -3.8604   -2.3511   14.7445 N   0  0  0  0  0  0  0  0  0  0  0  0
   -4.6320   -2.3959   13.4920 C   0  0  0  0  0  0  0  0  0  0  0  0
   -5.3661   -3.7377   13.3163 C   0  0  0  0  0  0  0  0  0  0  0  0
   -2.5090   -2.1078   14.8185 C   0  0  0  0  0  0  0  0  0  0  0  0
   -1.9132   -1.0937   14.0521 C   0  0  0  0  0  0  0  0  0  0  0  0
   -0.5452   -0.8202   14.1949 C   0  0  0  0  0  0  0  0  0  0  0  0
    0.2267   -1.5891   15.0857 C   0  0  0  0  0  0  0  0  0  0  0  0
    1.6093   -1.3706   15.3172 N   0  0  0  0  0  0  0  0  0  0  0  0
    2.5356   -0.4465   14.7610 C   0  0  0  0  0  0  0  0  0  0  0  0
    2.1744    0.3801   13.7331 N   0  0  0  0  0  0  0  0  0  0  0  0
    3.1091    1.2393   13.2182 C   0  0  0  0  0  0  0  0  0  0  0  0
    4.4162    1.2819   13.6993 C   0  0  0  0  0  0  0  0  0  0  0  0
    4.7443    0.4889   14.7568 N   0  0  0  0  0  0  0  0  0  0  0  0
    5.8980    0.3793   15.4854 C   0  0  0  0  0  0  0  0  0  0  0  0
    5.5914   -0.5292   16.5255 C   0  0  0  0  0  0  0  0  0  0  0  0
    4.3788   -1.0451   16.3697 N   0  0  0  0  0  0  0  0  0  0  0  0
    3.8374   -0.3956   15.3255 C   0  0  0  0  0  0  0  0  0  0  0  0
    2.6339    2.1607   12.1207 C   0  0  0  0  0  0  0  0  0  0  0  0
    3.5443    2.6413   11.1620 C   0  0  0  0  0  0  0  0  0  0  0  0
    3.1470    3.4630   10.1086 C   0  0  0  0  0  0  0  0  0  0  0  0
    1.8016    3.8175   10.0163 C   0  0  3  0  0  0  0  0  0  0  0  0
    0.9929    4.5961    9.1183 C   0  0  0  0  0  0  0  0  0  0  0  0
   -0.2479    4.6060    9.5144 N   0  0  0  0  0  0  0  0  0  0  0  0
   -0.3355    3.8922   10.6289 N   0  0  0  0  0  0  0  0  0  0  0  0
    0.8848    3.3596   10.9956 C   0  0  0  0  0  0  0  0  0  0  0  0
    1.2708    2.5377   12.0624 C   0  0  0  0  0  0  0  0  0  0  0  0
   -0.3834   -2.6137   15.8106 C   0  0  0  0  0  0  0  0  0  0  0  0
   -1.7318   -2.8604   15.6854 C   0  0  0  0  0  0  0  0  0  0  0  0
   -6.0221   -6.2484   14.2766 H   0  0  0  0  0  0  0  0  0  0  0  0
   -7.4507   -5.7501   15.2447 H   0  0  0  0  0  0  0  0  0  0  0  0
   -7.4599   -5.5468   13.4600 H   0  0  0  0  0  0  0  0  0  0  0  0
   -6.9333   -2.3100   14.7300 H   0  0  0  0  0  0  0  0  0  0  0  0
   -6.0513   -4.1676   16.6682 H   0  0  0  0  0  0  0  0  0  0  0  0
   -4.6463   -4.8436   15.7763 H   0  0  0  0  0  0  0  0  0  0  0  0
   -5.4219   -1.9147   16.0780 H   0  0  0  0  0  0  0  0  0  0  0  0
   -4.0063   -2.7524   16.7999 H   0  0  0  0  0  0  0  0  0  0  0  0
   -5.3737   -1.5837   13.5023 H   0  0  0  0  0  0  0  0  0  0  0  0
   -3.9441   -2.2536   12.6455 H   0  0  0  0  0  0  0  0  0  0  0  0
   -4.6149   -4.5273   13.1672 H   0  0  0  0  0  0  0  0  0  0  0  0
   -6.0071   -3.6685   12.4250 H   0  0  0  0  0  0  0  0  0  0  0  0
   -2.5080   -0.5246   13.3530 H   0  0  0  0  0  0  0  0  0  0  0  0
   -0.0872   -0.0251   13.6253 H   0  0  0  0  0  0  0  0  0  0  0  0
    5.0784    1.0032   12.8663 H   0  0  0  0  0  0  0  0  0  0  0  0
    4.6192    2.3212   13.9971 H   0  0  0  0  0  0  0  0  0  0  0  0
    6.8387    0.8784   15.3052 H   0  0  0  0  0  0  0  0  0  0  0  0
    6.2576   -0.7714   17.3403 H   0  0  0  0  0  0  0  0  0  0  0  0
    4.5849    2.3646   11.2449 H   0  0  0  0  0  0  0  0  0  0  0  0
    3.8635    3.8164    9.3818 H   0  0  0  0  0  0  0  0  0  0  0  0
    1.6061    2.9187    9.4130 H   0  0  0  0  0  0  0  0  0  0  0  0
    1.3624    5.1019    8.2385 H   0  0  0  0  0  0  0  0  0  0  0  0
    0.5610    2.2069   12.8061 H   0  0  0  0  0  0  0  0  0  0  0  0
    0.2099   -3.2208   16.4783 H   0  0  0  0  0  0  0  0  0  0  0  0
   -2.1883   -3.6472   16.2676 H   0  0  0  0  0  0  0  0  0  0  0  0
  1  2  1  0  0  0  0
  2  3  1  0  0  0  0
  2  4  1  0  0  0  0
  2  8  1  0  0  0  0
  4  5  1  0  0  0  0
  5  6  1  0  0  0  0
  6  7  1  0  0  0  0
  6  9  1  0  0  0  0
  7  8  1  0  0  0  0
  9 10  2  0  0  0  0
  9 33  1  0  0  0  0
 10 11  1  0  0  0  0
 11 12  2  0  0  0  0
 12 13  1  0  0  0  0
 12 32  1  0  0  0  0
 13 14  2  0  0  0  0
 14 15  1  0  0  0  0
 14 22  1  0  0  0  0
 15 16  2  0  0  0  0
 16 17  1  0  0  0  0
 16 23  1  0  0  0  0
 17 18  1  0  0  0  0
 18 19  1  0  0  0  0
 18 22  1  0  0  0  0
 19 20  2  0  0  0  0
 20 21  1  0  0  0  0
 21 22  2  0  0  0  0
 23 24  1  0  0  0  0
 23 31  2  0  0  0  0
 24 25  2  0  0  0  0
 25 26  1  0  0  0  0
 26 27  1  0  0  0  0
 26 30  1  0  0  0  0
 27 28  2  0  0  0  0
 28 29  1  0  0  0  0
 29 30  2  0  0  0  0
 30 31  1  0  0  0  0
 32 33  2  0  0  0  0
  1 34  1  0  0  0  0
  1 35  1  0  0  0  0
  1 36  1  0  0  0  0
  3 37  1  0  0  0  0
  4 38  1  0  0  0  0
  4 39  1  0  0  0  0
  5 40  1  0  0  0  0
  5 41  1  0  0  0  0
  7 42  1  0  0  0  0
  7 43  1  0  0  0  0
  8 44  1  0  0  0  0
  8 45  1  0  0  0  0
 10 46  1  0  0  0  0
 11 47  1  0  0  0  0
 17 48  1  0  0  0  0
 17 49  1  0  0  0  0
 19 50  1  0  0  0  0
 20 51  1  0  0  0  0
 24 52  1  0  0  0  0
 25 53  1  0  0  0  0
 26 54  1  0  0  0  0
 27 55  1  0  0  0  0
 31 56  1  0  0  0  0
 32 57  1  0  0  0  0
 33 58  1  0  0  0  0
M  END
> <IC50[nM]>
1.4

$$$$
CHEMBL3265031
  -OEChem-05192314333D
 Structure written by MMmdl.
 58 63  0     0  0  0  0  0  0999 V2000
   -6.8350   -5.5126   14.3646 C   0  0  0  0  0  0  0  0  0  0  0  0
   -6.2469   -4.1256   14.5196 C   0  0  0  0  0  0  0  0  0  0  0  0
   -7.2986   -3.1815   14.6326 O   0  0  0  0  0  0  0  0  0  0  0  0
   -5.3943   -4.0373   15.7957 C   0  0  0  0  0  0  0  0  0  0  0  0
   -4.6708   -2.7036   15.9246 C   0  0  0  0  0  0  0  0  0  0  0  0
   -3.8604   -2.3511   14.7445 N   0  0  0  0  0  0  0  0  0  0  0  0
   -4.6320   -2.3959   13.4920 C   0  0  0  0  0  0  0  0  0  0  0  0
   -5.3661   -3.7377   13.3163 C   0  0  0  0  0  0  0  0  0  0  0  0
   -2.5090   -2.1078   14.8185 C   0  0  0  0  0  0  0  0  0  0  0  0
   -1.9132   -1.0937   14.0521 C   0  0  0  0  0  0  0  0  0  0  0  0
   -0.5452   -0.8202   14.1949 C   0  0  0  0  0  0  0  0  0  0  0  0
    0.2267   -1.5891   15.0857 C   0  0  0  0  0  0  0  0  0  0  0  0
    1.6093   -1.3706   15.3172 N   0  0  0  0  0  0  0  0  0  0  0  0
    2.5356   -0.4465   14.7610 C   0  0  0  0  0  0  0  0  0  0  0  0
    2.1744    0.3801   13.7331 N   0  0  0  0  0  0  0  0  0  0  0  0
    3.1091    1.2393   13.2182 C   0  0  0  0  0  0  0  0  0  0  0  0
    4.4162    1.2819   13.6993 C   0  0  0  0  0  0  0  0  0  0  0  0
    4.7443    0.4889   14.7568 N   0  0  0  0  0  0  0  0  0  0  0  0
    5.8980    0.3793   15.4854 C   0  0  0  0  0  0  0  0  0  0  0  0
    5.5914   -0.5292   16.5255 C   0  0  0  0  0  0  0  0  0  0  0  0
    4.3788   -1.0451   16.3697 N   0  0  0  0  0  0  0  0  0  0  0  0
    3.8374   -0.3956   15.3255 C   0  0  0  0  0  0  0  0  0  0  0  0
    2.6339    2.1607   12.1207 C   0  0  0  0  0  0  0  0  0  0  0  0
    3.5443    2.6413   11.1620 C   0  0  0  0  0  0  0  0  0  0  0  0
    3.1470    3.4630   10.1086 C   0  0  0  0  0  0  0  0  0  0  0  0
    1.8016    3.8175   10.0163 C   0  0  0  0  0  0  0  0  0  0  0  0
    0.9929    4.5961    9.1183 C   0  0  0  0  0  0  0  0  0  0  0  0
   -0.2479    4.6060    9.5144 N   0  0  0  0  0  0  0  0  0  0  0  0
   -0.3355    3.8922   10.6289 N   0  0  0  0  0  0  0  0  0  0  0  0
    0.8848    3.3596   10.9956 C   0  0  0  0  0  0  0  0  0  0  0  0
    1.2708    2.5377   12.0624 C   0  0  0  0  0  0  0  0  0  0  0  0
   -0.3834   -2.6137   15.8106 C   0  0  0  0  0  0  0  0  0  0  0  0
   -1.7318   -2.8604   15.6854 C   0  0  0  0  0  0  0  0  0  0  0  0
   -6.0221   -6.2484   14.2766 H   0  0  0  0  0  0  0  0  0  0  0  0
   -7.4507   -5.7501   15.2447 H   0  0  0  0  0  0  0  0  0  0  0  0
   -7.4599   -5.5468   13.4600 H   0  0  0  0  0  0  0  0  0  0  0  0
   -6.9333   -2.3100   14.7300 H   0  0  0  0  0  0  0  0  0  0  0  0
   -6.0513   -4.1676   16.6682 H   0  0  0  0  0  0  0  0  0  0  0  0
   -4.6463   -4.8436   15.7763 H   0  0  0  0  0  0  0  0  0  0  0  0
   -5.4219   -1.9147   16.0780 H   0  0  0  0  0  0  0  0  0  0  0  0
   -4.0063   -2.7524   16.7999 H   0  0  0  0  0  0  0  0  0  0  0  0
   -5.3737   -1.5837   13.5023 H   0  0  0  0  0  0  0  0  0  0  0  0
   -3.9441   -2.2536   12.6455 H   0  0  0  0  0  0  0  0  0  0  0  0
   -4.6149   -4.5273   13.1672 H   0  0  0  0  0  0  0  0  0  0  0  0
   -6.0071   -3.6685   12.4250 H   0  0  0  0  0  0  0  0  0  0  0  0
   -2.5080   -0.5246   13.3530 H   0  0  0  0  0  0  0  0  0  0  0  0
   -0.0872   -0.0251   13.6253 H   0  0  0  0  0  0  0  0  0  0  0  0
    5.0784    1.0032   12.8663 H   0  0  0  0  0  0  0  0  0  0  0  0
    4.6192    2.3212   13.9971 H   0  0  0  0  0  0  0  0  0  0  0  0
    6.8387    0.8784   15.3052 H   0  0  0  0  0  0  0  0  0  0  0  0
    6.2576   -0.7714   17.3403 H   0  0  0  0  0  0  0  0  0  0  0  0
    4.3085    3.2034   11.7187 H   0  0  0  0  0  0  0  0  0  0  0  0
    4.0040    1.7537   10.7028 H   0  0  0  0  0  0  0  0  0  0  0  0
    3.8635    3.8164    9.3818 H   0  0  0  0  0  0  0  0  0  0  0  0
    1.3624    5.1019    8.2385 H   0  0  0  0  0  0  0  0  0  0  0  0
    0.5610    2.2069   12.8061 H   0  0  0  0  0  0  0  0  0  0  0  0
    0.2099   -3.2208   16.4783 H   0  0  0  0  0  0  0  0  0  0  0  0
   -2.1883   -3.6472   16.2676 H   0  0  0  0  0  0  0  0  0  0  0  0
  1  2  1  0  0  0  0
  2  3  1  0  0  0  0
  2  4  1  0  0  0  0
  2  8  1  0  0  0  0
  4  5  1  0  0  0  0
  5  6  1  0  0  0  0
  6  7  1  0  0  0  0
  6  9  1  0  0  0  0
  7  8  1  0  0  0  0
  9 10  2  0  0  0  0
  9 33  1  0  0  0  0
 10 11  1  0  0  0  0
 11 12  2  0  0  0  0
 12 13  1  0  0  0  0
 12 32  1  0  0  0  0
 13 14  2  0  0  0  0
 14 15  1  0  0  0  0
 14 22  1  0  0  0  0
 15 16  2  0  0  0  0
 16 17  1  0  0  0  0
 16 23  1  0  0  0  0
 17 18  1  0  0  0  0
 18 19  1  0  0  0  0
 18 22  1  0  0  0  0
 19 20  2  0  0  0  0
 20 21  1  0  0  0  0
 21 22  2  0  0  0  0
 23 24  1  0  0  0  0
 23 31  2  0  0  0  0
 24 25  1  0  0  0  0
 25 26  2  0  0  0  0
 26 27  1  0  0  0  0
 26 30  1  0  0  0  0
 27 28  2  0  0  0  0
 28 29  1  0  0  0  0
 29 30  2  0  0  0  0
 30 31  1  0  0  0  0
 32 33  2  0  0  0  0
  1 34  1  0  0  0  0
  1 35  1  0  0  0  0
  1 36  1  0  0  0  0
  3 37  1  0  0  0  0
  4 38  1  0  0  0  0
  4 39  1  0  0  0  0
  5 40  1  0  0  0  0
  5 41  1  0  0  0  0
  7 42  1  0  0  0  0
  7 43  1  0  0  0  0
  8 44  1  0  0  0  0
  8 45  1  0  0  0  0
 10 46  1  0  0  0  0
 11 47  1  0  0  0  0
 17 48  1  0  0  0  0
 17 49  1  0  0  0  0
 19 50  1  0  0  0  0
 20 51  1  0  0  0  0
 24 52  1  0  0  0  0
 24 53  1  0  0  0  0
 25 54  1  0  0  0  0
 27 55  1  0  0  0  0
 31 56  1  0  0  0  0
 32 57  1  0  0  0  0
 33 58  1  0  0  0  0
M  END
> <IC50[nM]>
1.4

$$$$
CHEMBL3265031
  -OEChem-05192314333D
 Structure written by MMmdl.
 58 63  0     0  0  0  0  0  0999 V2000
   -6.8350   -5.5126   14.3646 C   0  0  0  0  0  0  0  0  0  0  0  0
   -6.2469   -4.1256   14.5196 C   0  0  0  0  0  0  0  0  0  0  0  0
   -7.2986   -3.1815   14.6326 O   0  0  0  0  0  0  0  0  0  0  0  0
   -5.3943   -4.0373   15.7957 C   0  0  0  0  0  0  0  0  0  0  0  0
   -4.6708   -2.7036   15.9246 C   0  0  0  0  0  0  0  0  0  0  0  0
   -3.8604   -2.3511   14.7445 N   0  0  0  0  0  0  0  0  0  0  0  0
   -4.6320   -2.3959   13.4920 C   0  0  0  0  0  0  0  0  0  0  0  0
   -5.3661   -3.7377   13.3163 C   0  0  0  0  0  0  0  0  0  0  0  0
   -2.5090   -2.1078   14.8185 C   0  0  0  0  0  0  0  0  0  0  0  0
   -1.9132   -1.0937   14.0521 C   0  0  0  0  0  0  0  0  0  0  0  0
   -0.5452   -0.8202   14.1949 C   0  0  0  0  0  0  0  0  0  0  0  0
    0.2267   -1.5891   15.0857 C   0  0  0  0  0  0  0  0  0  0  0  0
    1.6093   -1.3706   15.3172 N   0  0  0  0  0  0  0  0  0  0  0  0
    2.5356   -0.4465   14.7610 C   0  0  0  0  0  0  0  0  0  0  0  0
    2.1744    0.3801   13.7331 N   0  0  0  0  0  0  0  0  0  0  0  0
    3.1091    1.2393   13.2182 C   0  0  0  0  0  0  0  0  0  0  0  0
    4.4162    1.2819   13.6993 C   0  0  0  0  0  0  0  0  0  0  0  0
    4.7443    0.4889   14.7568 N   0  0  0  0  0  0  0  0  0  0  0  0
    5.8980    0.3793   15.4854 C   0  0  0  0  0  0  0  0  0  0  0  0
    5.5914   -0.5292   16.5255 C   0  0  0  0  0  0  0  0  0  0  0  0
    4.3788   -1.0451   16.3697 N   0  0  0  0  0  0  0  0  0  0  0  0
    3.8374   -0.3956   15.3255 C   0  0  0  0  0  0  0  0  0  0  0  0
    2.6339    2.1607   12.1207 C   0  0  0  0  0  0  0  0  0  0  0  0
    3.5443    2.6413   11.1620 C   0  0  0  0  0  0  0  0  0  0  0  0
    3.1470    3.4630   10.1086 C   0  0  0  0  0  0  0  0  0  0  0  0
    1.8016    3.8175   10.0163 C   0  0  0  0  0  0  0  0  0  0  0  0
    0.9929    4.5961    9.1183 C   0  0  0  0  0  0  0  0  0  0  0  0
   -0.2479    4.6060    9.5144 N   0  0  0  0  0  0  0  0  0  0  0  0
   -0.3355    3.8922   10.6289 N   0  0  0  0  0  0  0  0  0  0  0  0
    0.8848    3.3596   10.9956 C   0  0  0  0  0  0  0  0  0  0  0  0
    1.2708    2.5377   12.0624 C   0  0  0  0  0  0  0  0  0  0  0  0
   -0.3834   -2.6137   15.8106 C   0  0  0  0  0  0  0  0  0  0  0  0
   -1.7318   -2.8604   15.6854 C   0  0  0  0  0  0  0  0  0  0  0  0
   -6.0221   -6.2484   14.2766 H   0  0  0  0  0  0  0  0  0  0  0  0
   -7.4507   -5.7501   15.2447 H   0  0  0  0  0  0  0  0  0  0  0  0
   -7.4599   -5.5468   13.4600 H   0  0  0  0  0  0  0  0  0  0  0  0
   -6.9333   -2.3100   14.7300 H   0  0  0  0  0  0  0  0  0  0  0  0
   -6.0513   -4.1676   16.6682 H   0  0  0  0  0  0  0  0  0  0  0  0
   -4.6463   -4.8436   15.7763 H   0  0  0  0  0  0  0  0  0  0  0  0
   -5.4219   -1.9147   16.0780 H   0  0  0  0  0  0  0  0  0  0  0  0
   -4.0063   -2.7524   16.7999 H   0  0  0  0  0  0  0  0  0  0  0  0
   -5.3737   -1.5837   13.5023 H   0  0  0  0  0  0  0  0  0  0  0  0
   -3.9441   -2.2536   12.6455 H   0  0  0  0  0  0  0  0  0  0  0  0
   -4.6149   -4.5273   13.1672 H   0  0  0  0  0  0  0  0  0  0  0  0
   -6.0071   -3.6685   12.4250 H   0  0  0  0  0  0  0  0  0  0  0  0
   -2.5080   -0.5246   13.3530 H   0  0  0  0  0  0  0  0  0  0  0  0
   -0.0872   -0.0251   13.6253 H   0  0  0  0  0  0  0  0  0  0  0  0
    5.0784    1.0032   12.8663 H   0  0  0  0  0  0  0  0  0  0  0  0
    4.6192    2.3212   13.9971 H   0  0  0  0  0  0  0  0  0  0  0  0
    6.8387    0.8784   15.3052 H   0  0  0  0  0  0  0  0  0  0  0  0
    6.2576   -0.7714   17.3403 H   0  0  0  0  0  0  0  0  0  0  0  0
    4.5849    2.3646   11.2449 H   0  0  0  0  0  0  0  0  0  0  0  0
    3.8635    3.8164    9.3818 H   0  0  0  0  0  0  0  0  0  0  0  0
    1.3624    5.1019    8.2385 H   0  0  0  0  0  0  0  0  0  0  0  0
    0.6734    1.6159   12.0045 H   0  0  0  0  0  0  0  0  0  0  0  0
    1.0334    3.0705   12.9950 H   0  0  0  0  0  0  0  0  0  0  0  0
    0.2099   -3.2208   16.4783 H   0  0  0  0  0  0  0  0  0  0  0  0
   -2.1883   -3.6472   16.2676 H   0  0  0  0  0  0  0  0  0  0  0  0
  1  2  1  0  0  0  0
  2  3  1  0  0  0  0
  2  4  1  0  0  0  0
  2  8  1  0  0  0  0
  4  5  1  0  0  0  0
  5  6  1  0  0  0  0
  6  7  1  0  0  0  0
  6  9  1  0  0  0  0
  7  8  1  0  0  0  0
  9 10  2  0  0  0  0
  9 33  1  0  0  0  0
 10 11  1  0  0  0  0
 11 12  2  0  0  0  0
 12 13  1  0  0  0  0
 12 32  1  0  0  0  0
 13 14  2  0  0  0  0
 14 15  1  0  0  0  0
 14 22  1  0  0  0  0
 15 16  2  0  0  0  0
 16 17  1  0  0  0  0
 16 23  1  0  0  0  0
 17 18  1  0  0  0  0
 18 19  1  0  0  0  0
 18 22  1  0  0  0  0
 19 20  2  0  0  0  0
 20 21  1  0  0  0  0
 21 22  2  0  0  0  0
 23 24  2  0  0  0  0
 23 31  1  0  0  0  0
 24 25  1  0  0  0  0
 25 26  2  0  0  0  0
 26 27  1  0  0  0  0
 26 30  1  0  0  0  0
 27 28  2  0  0  0  0
 28 29  1  0  0  0  0
 29 30  2  0  0  0  0
 30 31  1  0  0  0  0
 32 33  2  0  0  0  0
  1 34  1  0  0  0  0
  1 35  1  0  0  0  0
  1 36  1  0  0  0  0
  3 37  1  0  0  0  0
  4 38  1  0  0  0  0
  4 39  1  0  0  0  0
  5 40  1  0  0  0  0
  5 41  1  0  0  0  0
  7 42  1  0  0  0  0
  7 43  1  0  0  0  0
  8 44  1  0  0  0  0
  8 45  1  0  0  0  0
 10 46  1  0  0  0  0
 11 47  1  0  0  0  0
 17 48  1  0  0  0  0
 17 49  1  0  0  0  0
 19 50  1  0  0  0  0
 20 51  1  0  0  0  0
 24 52  1  0  0  0  0
 25 53  1  0  0  0  0
 27 54  1  0  0  0  0
 31 55  1  0  0  0  0
 31 56  1  0  0  0  0
 32 57  1  0  0  0  0
 33 58  1  0  0  0  0
M  END
> <IC50[nM]>
1.4

$$$$
CHEMBL3265031
  -OEChem-05192314333D
 Structure written by MMmdl.
 58 63  0     1  0  0  0  0  0999 V2000
   -6.8350   -5.5126   14.3646 C   0  0  0  0  0  0  0  0  0  0  0  0
   -6.2469   -4.1256   14.5196 C   0  0  0  0  0  0  0  0  0  0  0  0
   -7.2986   -3.1815   14.6326 O   0  0  0  0  0  0  0  0  0  0  0  0
   -5.3943   -4.0373   15.7957 C   0  0  0  0  0  0  0  0  0  0  0  0
   -4.6708   -2.7036   15.9246 C   0  0  0  0  0  0  0  0  0  0  0  0
   -3.8604   -2.3511   14.7445 N   0  0  0  0  0  0  0  0  0  0  0  0
   -4.6320   -2.3959   13.4920 C   0  0  0  0  0  0  0  0  0  0  0  0
   -5.3661   -3.7377   13.3163 C   0  0  0  0  0  0  0  0  0  0  0  0
   -2.5090   -2.1078   14.8185 C   0  0  0  0  0  0  0  0  0  0  0  0
   -1.9132   -1.0937   14.0521 C   0  0  0  0  0  0  0  0  0  0  0  0
   -0.5452   -0.8202   14.1949 C   0  0  0  0  0  0  0  0  0  0  0  0
    0.2267   -1.5891   15.0857 C   0  0  0  0  0  0  0  0  0  0  0  0
    1.6093   -1.3706   15.3172 N   0  0  0  0  0  0  0  0  0  0  0  0
    2.5356   -0.4465   14.7610 C   0  0  0  0  0  0  0  0  0  0  0  0
    2.1744    0.3801   13.7331 N   0  0  0  0  0  0  0  0  0  0  0  0
    3.1091    1.2393   13.2182 C   0  0  0  0  0  0  0  0  0  0  0  0
    4.4162    1.2819   13.6993 C   0  0  0  0  0  0  0  0  0  0  0  0
    4.7443    0.4889   14.7568 N   0  0  0  0  0  0  0  0  0  0  0  0
    5.8980    0.3793   15.4854 C   0  0  0  0  0  0  0  0  0  0  0  0
    5.5914   -0.5292   16.5255 C   0  0  0  0  0  0  0  0  0  0  0  0
    4.3788   -1.0451   16.3697 N   0  0  0  0  0  0  0  0  0  0  0  0
    3.8374   -0.3956   15.3255 C   0  0  0  0  0  0  0  0  0  0  0  0
    2.6339    2.1607   12.1207 C   0  0  3  0  0  0  0  0  0  0  0  0
    3.5443    2.6413   11.1620 C   0  0  0  0  0  0  0  0  0  0  0  0
    3.1470    3.4630   10.1086 C   0  0  0  0  0  0  0  0  0  0  0  0
    1.8016    3.8175   10.0163 C   0  0  0  0  0  0  0  0  0  0  0  0
    0.9929    4.5961    9.1183 C   0  0  0  0  0  0  0  0  0  0  0  0
   -0.2479    4.6060    9.5144 N   0  0  0  0  0  0  0  0  0  0  0  0
   -0.3355    3.8922   10.6289 N   0  0  0  0  0  0  0  0  0  0  0  0
    0.8848    3.3596   10.9956 C   0  0  0  0  0  0  0  0  0  0  0  0
    1.2708    2.5377   12.0624 C   0  0  0  0  0  0  0  0  0  0  0  0
   -0.3834   -2.6137   15.8106 C   0  0  0  0  0  0  0  0  0  0  0  0
   -1.7318   -2.8604   15.6854 C   0  0  0  0  0  0  0  0  0  0  0  0
   -6.0221   -6.2484   14.2766 H   0  0  0  0  0  0  0  0  0  0  0  0
   -7.4507   -5.7501   15.2447 H   0  0  0  0  0  0  0  0  0  0  0  0
   -7.4599   -5.5468   13.4600 H   0  0  0  0  0  0  0  0  0  0  0  0
   -6.9333   -2.3100   14.7300 H   0  0  0  0  0  0  0  0  0  0  0  0
   -6.0513   -4.1676   16.6682 H   0  0  0  0  0  0  0  0  0  0  0  0
   -4.6463   -4.8436   15.7763 H   0  0  0  0  0  0  0  0  0  0  0  0
   -5.4219   -1.9147   16.0780 H   0  0  0  0  0  0  0  0  0  0  0  0
   -4.0063   -2.7524   16.7999 H   0  0  0  0  0  0  0  0  0  0  0  0
   -5.3737   -1.5837   13.5023 H   0  0  0  0  0  0  0  0  0  0  0  0
   -3.9441   -2.2536   12.6455 H   0  0  0  0  0  0  0  0  0  0  0  0
   -4.6149   -4.5273   13.1672 H   0  0  0  0  0  0  0  0  0  0  0  0
   -6.0071   -3.6685   12.4250 H   0  0  0  0  0  0  0  0  0  0  0  0
   -2.5080   -0.5246   13.3530 H   0  0  0  0  0  0  0  0  0  0  0  0
   -0.0872   -0.0251   13.6253 H   0  0  0  0  0  0  0  0  0  0  0  0
    5.0784    1.0032   12.8663 H   0  0  0  0  0  0  0  0  0  0  0  0
    4.6192    2.3212   13.9971 H   0  0  0  0  0  0  0  0  0  0  0  0
    6.8387    0.8784   15.3052 H   0  0  0  0  0  0  0  0  0  0  0  0
    6.2576   -0.7714   17.3403 H   0  0  0  0  0  0  0  0  0  0  0  0
    2.4207    1.2906   11.4823 H   0  0  0  0  0  0  0  0  0  0  0  0
    4.5849    2.3646   11.2449 H   0  0  0  0  0  0  0  0  0  0  0  0
    3.8635    3.8164    9.3818 H   0  0  0  0  0  0  0  0  0  0  0  0
    1.3624    5.1019    8.2385 H   0  0  0  0  0  0  0  0  0  0  0  0
    0.5610    2.2069   12.8061 H   0  0  0  0  0  0  0  0  0  0  0  0
    0.2099   -3.2208   16.4783 H   0  0  0  0  0  0  0  0  0  0  0  0
   -2.1883   -3.6472   16.2676 H   0  0  0  0  0  0  0  0  0  0  0  0
  1  2  1  0  0  0  0
  2  3  1  0  0  0  0
  2  4  1  0  0  0  0
  2  8  1  0  0  0  0
  4  5  1  0  0  0  0
  5  6  1  0  0  0  0
  6  7  1  0  0  0  0
  6  9  1  0  0  0  0
  7  8  1  0  0  0  0
  9 10  2  0  0  0  0
  9 33  1  0  0  0  0
 10 11  1  0  0  0  0
 11 12  2  0  0  0  0
 12 13  1  0  0  0  0
 12 32  1  0  0  0  0
 13 14  2  0  0  0  0
 14 15  1  0  0  0  0
 14 22  1  0  0  0  0
 15 16  2  0  0  0  0
 16 17  1  0  0  0  0
 16 23  1  0  0  0  0
 17 18  1  0  0  0  0
 18 19  1  0  0  0  0
 18 22  1  0  0  0  0
 19 20  2  0  0  0  0
 20 21  1  0  0  0  0
 21 22  2  0  0  0  0
 23 24  1  0  0  0  0
 23 31  1  0  0  0  0
 24 25  2  0  0  0  0
 25 26  1  0  0  0  0
 26 27  2  0  0  0  0
 26 30  1  0  0  0  0
 27 28  1  0  0  0  0
 28 29  2  0  0  0  0
 29 30  1  0  0  0  0
 30 31  2  0  0  0  0
 32 33  2  0  0  0  0
  1 34  1  0  0  0  0
  1 35  1  0  0  0  0
  1 36  1  0  0  0  0
  3 37  1  0  0  0  0
  4 38  1  0  0  0  0
  4 39  1  0  0  0  0
  5 40  1  0  0  0  0
  5 41  1  0  0  0  0
  7 42  1  0  0  0  0
  7 43  1  0  0  0  0
  8 44  1  0  0  0  0
  8 45  1  0  0  0  0
 10 46  1  0  0  0  0
 11 47  1  0  0  0  0
 17 48  1  0  0  0  0
 17 49  1  0  0  0  0
 19 50  1  0  0  0  0
 20 51  1  0  0  0  0
 23 52  1  0  0  0  0
 24 53  1  0  0  0  0
 25 54  1  0  0  0  0
 27 55  1  0  0  0  0
 31 56  1  0  0  0  0
 32 57  1  0  0  0  0
 33 58  1  0  0  0  0
M  END
> <IC50[nM]>
1.4

$$$$
CHEMBL3265031
  -OEChem-05192314333D
 Structure written by MMmdl.
 58 63  0     1  0  0  0  0  0999 V2000
   -6.8350   -5.5126   14.3646 C   0  0  0  0  0  0  0  0  0  0  0  0
   -6.2469   -4.1256   14.5196 C   0  0  0  0  0  0  0  0  0  0  0  0
   -7.2986   -3.1815   14.6326 O   0  0  0  0  0  0  0  0  0  0  0  0
   -5.3943   -4.0373   15.7957 C   0  0  0  0  0  0  0  0  0  0  0  0
   -4.6708   -2.7036   15.9246 C   0  0  0  0  0  0  0  0  0  0  0  0
   -3.8604   -2.3511   14.7445 N   0  0  0  0  0  0  0  0  0  0  0  0
   -4.6320   -2.3959   13.4920 C   0  0  0  0  0  0  0  0  0  0  0  0
   -5.3661   -3.7377   13.3163 C   0  0  0  0  0  0  0  0  0  0  0  0
   -2.5090   -2.1078   14.8185 C   0  0  0  0  0  0  0  0  0  0  0  0
   -1.9132   -1.0937   14.0521 C   0  0  0  0  0  0  0  0  0  0  0  0
   -0.5452   -0.8202   14.1949 C   0  0  0  0  0  0  0  0  0  0  0  0
    0.2267   -1.5891   15.0857 C   0  0  0  0  0  0  0  0  0  0  0  0
    1.6093   -1.3706   15.3172 N   0  0  0  0  0  0  0  0  0  0  0  0
    2.5356   -0.4465   14.7610 C   0  0  0  0  0  0  0  0  0  0  0  0
    2.1744    0.3801   13.7331 N   0  0  0  0  0  0  0  0  0  0  0  0
    3.1091    1.2393   13.2182 C   0  0  0  0  0  0  0  0  0  0  0  0
    4.4162    1.2819   13.6993 C   0  0  0  0  0  0  0  0  0  0  0  0
    4.7443    0.4889   14.7568 N   0  0  0  0  0  0  0  0  0  0  0  0
    5.8980    0.3793   15.4854 C   0  0  0  0  0  0  0  0  0  0  0  0
    5.5914   -0.5292   16.5255 C   0  0  0  0  0  0  0  0  0  0  0  0
    4.3788   -1.0451   16.3697 N   0  0  0  0  0  0  0  0  0  0  0  0
    3.8374   -0.3956   15.3255 C   0  0  0  0  0  0  0  0  0  0  0  0
    2.6339    2.1607   12.1207 C   0  0  0  0  0  0  0  0  0  0  0  0
    3.5443    2.6413   11.1620 C   0  0  0  0  0  0  0  0  0  0  0  0
    3.1470    3.4630   10.1086 C   0  0  0  0  0  0  0  0  0  0  0  0
    1.8016    3.8175   10.0163 C   0  0  0  0  0  0  0  0  0  0  0  0
    0.9929    4.5961    9.1183 C   0  0  0  0  0  0  0  0  0  0  0  0
   -0.2479    4.6060    9.5144 N   0  0  0  0  0  0  0  0  0  0  0  0
   -0.3355    3.8922   10.6289 N   0  0  0  0  0  0  0  0  0  0  0  0
    0.8848    3.3596   10.9956 C   0  0  3  0  0  0  0  0  0  0  0  0
    1.2708    2.5377   12.0624 C   0  0  0  0  0  0  0  0  0  0  0  0
   -0.3834   -2.6137   15.8106 C   0  0  0  0  0  0  0  0  0  0  0  0
   -1.7318   -2.8604   15.6854 C   0  0  0  0  0  0  0  0  0  0  0  0
   -6.0221   -6.2484   14.2766 H   0  0  0  0  0  0  0  0  0  0  0  0
   -7.4507   -5.7501   15.2447 H   0  0  0  0  0  0  0  0  0  0  0  0
   -7.4599   -5.5468   13.4600 H   0  0  0  0  0  0  0  0  0  0  0  0
   -6.9333   -2.3100   14.7300 H   0  0  0  0  0  0  0  0  0  0  0  0
   -6.0513   -4.1676   16.6682 H   0  0  0  0  0  0  0  0  0  0  0  0
   -4.6463   -4.8436   15.7763 H   0  0  0  0  0  0  0  0  0  0  0  0
   -5.4219   -1.9147   16.0780 H   0  0  0  0  0  0  0  0  0  0  0  0
   -4.0063   -2.7524   16.7999 H   0  0  0  0  0  0  0  0  0  0  0  0
   -5.3737   -1.5837   13.5023 H   0  0  0  0  0  0  0  0  0  0  0  0
   -3.9441   -2.2536   12.6455 H   0  0  0  0  0  0  0  0  0  0  0  0
   -4.6149   -4.5273   13.1672 H   0  0  0  0  0  0  0  0  0  0  0  0
   -6.0071   -3.6685   12.4250 H   0  0  0  0  0  0  0  0  0  0  0  0
   -2.5080   -0.5246   13.3530 H   0  0  0  0  0  0  0  0  0  0  0  0
   -0.0872   -0.0251   13.6253 H   0  0  0  0  0  0  0  0  0  0  0  0
    5.0784    1.0032   12.8663 H   0  0  0  0  0  0  0  0  0  0  0  0
    4.6192    2.3212   13.9971 H   0  0  0  0  0  0  0  0  0  0  0  0
    6.8387    0.8784   15.3052 H   0  0  0  0  0  0  0  0  0  0  0  0
    6.2576   -0.7714   17.3403 H   0  0  0  0  0  0  0  0  0  0  0  0
    4.5849    2.3646   11.2449 H   0  0  0  0  0  0  0  0  0  0  0  0
    3.8635    3.8164    9.3818 H   0  0  0  0  0  0  0  0  0  0  0  0
    1.3624    5.1019    8.2385 H   0  0  0  0  0  0  0  0  0  0  0  0
    1.0911    4.2508   11.6065 H   0  0  0  0  0  0  0  0  0  0  0  0
    0.5610    2.2069   12.8061 H   0  0  0  0  0  0  0  0  0  0  0  0
    0.2099   -3.2208   16.4783 H   0  0  0  0  0  0  0  0  0  0  0  0
   -2.1883   -3.6472   16.2676 H   0  0  0  0  0  0  0  0  0  0  0  0
  1  2  1  0  0  0  0
  2  3  1  0  0  0  0
  2  4  1  0  0  0  0
  2  8  1  0  0  0  0
  4  5  1  0  0  0  0
  5  6  1  0  0  0  0
  6  7  1  0  0  0  0
  6  9  1  0  0  0  0
  7  8  1  0  0  0  0
  9 10  2  0  0  0  0
  9 33  1  0  0  0  0
 10 11  1  0  0  0  0
 11 12  2  0  0  0  0
 12 13  1  0  0  0  0
 12 32  1  0  0  0  0
 13 14  2  0  0  0  0
 14 15  1  0  0  0  0
 14 22  1  0  0  0  0
 15 16  2  0  0  0  0
 16 17  1  0  0  0  0
 16 23  1  0  0  0  0
 17 18  1  0  0  0  0
 18 19  1  0  0  0  0
 18 22  1  0  0  0  0
 19 20  2  0  0  0  0
 20 21  1  0  0  0  0
 21 22  2  0  0  0  0
 23 24  1  0  0  0  0
 23 31  2  0  0  0  0
 24 25  2  0  0  0  0
 25 26  1  0  0  0  0
 26 27  2  0  0  0  0
 26 30  1  0  0  0  0
 27 28  1  0  0  0  0
 28 29  2  0  0  0  0
 29 30  1  0  0  0  0
 30 31  1  0  0  0  0
 32 33  2  0  0  0  0
  1 34  1  0  0  0  0
  1 35  1  0  0  0  0
  1 36  1  0  0  0  0
  3 37  1  0  0  0  0
  4 38  1  0  0  0  0
  4 39  1  0  0  0  0
  5 40  1  0  0  0  0
  5 41  1  0  0  0  0
  7 42  1  0  0  0  0
  7 43  1  0  0  0  0
  8 44  1  0  0  0  0
  8 45  1  0  0  0  0
 10 46  1  0  0  0  0
 11 47  1  0  0  0  0
 17 48  1  0  0  0  0
 17 49  1  0  0  0  0
 19 50  1  0  0  0  0
 20 51  1  0  0  0  0
 24 52  1  0  0  0  0
 25 53  1  0  0  0  0
 27 54  1  0  0  0  0
 30 55  1  0  0  0  0
 31 56  1  0  0  0  0
 32 57  1  0  0  0  0
 33 58  1  0  0  0  0
M  END
> <IC50[nM]>
1.4

$$$$
CHEMBL3265031
  -OEChem-05192314333D
 Structure written by MMmdl.
 58 63  0     0  0  0  0  0  0999 V2000
   -6.8350   -5.5126   14.3646 C   0  0  0  0  0  0  0  0  0  0  0  0
   -6.2469   -4.1256   14.5196 C   0  0  0  0  0  0  0  0  0  0  0  0
   -7.2986   -3.1815   14.6326 O   0  0  0  0  0  0  0  0  0  0  0  0
   -5.3943   -4.0373   15.7957 C   0  0  0  0  0  0  0  0  0  0  0  0
   -4.6708   -2.7036   15.9246 C   0  0  0  0  0  0  0  0  0  0  0  0
   -3.8604   -2.3511   14.7445 N   0  0  0  0  0  0  0  0  0  0  0  0
   -4.6320   -2.3959   13.4920 C   0  0  0  0  0  0  0  0  0  0  0  0
   -5.3661   -3.7377   13.3163 C   0  0  0  0  0  0  0  0  0  0  0  0
   -2.5090   -2.1078   14.8185 C   0  0  0  0  0  0  0  0  0  0  0  0
   -1.9132   -1.0937   14.0521 C   0  0  0  0  0  0  0  0  0  0  0  0
   -0.5452   -0.8202   14.1949 C   0  0  0  0  0  0  0  0  0  0  0  0
    0.2267   -1.5891   15.0857 C   0  0  0  0  0  0  0  0  0  0  0  0
    1.6093   -1.3706   15.3172 N   0  0  0  0  0  0  0  0  0  0  0  0
    2.5356   -0.4465   14.7610 C   0  0  0  0  0  0  0  0  0  0  0  0
    2.1744    0.3801   13.7331 N   0  0  0  0  0  0  0  0  0  0  0  0
    3.1091    1.2393   13.2182 C   0  0  0  0  0  0  0  0  0  0  0  0
    4.4162    1.2819   13.6993 C   0  0  0  0  0  0  0  0  0  0  0  0
    4.7443    0.4889   14.7568 N   0  0  0  0  0  0  0  0  0  0  0  0
    5.8980    0.3793   15.4854 C   0  0  0  0  0  0  0  0  0  0  0  0
    5.5914   -0.5292   16.5255 C   0  0  0  0  0  0  0  0  0  0  0  0
    4.3788   -1.0451   16.3697 N   0  0  0  0  0  0  0  0  0  0  0  0
    3.8374   -0.3956   15.3255 C   0  0  0  0  0  0  0  0  0  0  0  0
    2.6339    2.1607   12.1207 C   0  0  0  0  0  0  0  0  0  0  0  0
    3.5443    2.6413   11.1620 C   0  0  0  0  0  0  0  0  0  0  0  0
    3.1470    3.4630   10.1086 C   0  0  0  0  0  0  0  0  0  0  0  0
    1.8016    3.8175   10.0163 C   0  0  0  0  0  0  0  0  0  0  0  0
    0.9929    4.5961    9.1183 C   0  0  0  0  0  0  0  0  0  0  0  0
   -0.2479    4.6060    9.5144 N   0  0  0  0  0  0  0  0  0  0  0  0
   -0.3355    3.8922   10.6289 N   0  0  0  0  0  0  0  0  0  0  0  0
    0.8848    3.3596   10.9956 C   0  0  0  0  0  0  0  0  0  0  0  0
    1.2708    2.5377   12.0624 C   0  0  0  0  0  0  0  0  0  0  0  0
   -0.3834   -2.6137   15.8106 C   0  0  0  0  0  0  0  0  0  0  0  0
   -1.7318   -2.8604   15.6854 C   0  0  0  0  0  0  0  0  0  0  0  0
   -6.0221   -6.2484   14.2766 H   0  0  0  0  0  0  0  0  0  0  0  0
   -7.4507   -5.7501   15.2447 H   0  0  0  0  0  0  0  0  0  0  0  0
   -7.4599   -5.5468   13.4600 H   0  0  0  0  0  0  0  0  0  0  0  0
   -6.9333   -2.3100   14.7300 H   0  0  0  0  0  0  0  0  0  0  0  0
   -6.0513   -4.1676   16.6682 H   0  0  0  0  0  0  0  0  0  0  0  0
   -4.6463   -4.8436   15.7763 H   0  0  0  0  0  0  0  0  0  0  0  0
   -5.4219   -1.9147   16.0780 H   0  0  0  0  0  0  0  0  0  0  0  0
   -4.0063   -2.7524   16.7999 H   0  0  0  0  0  0  0  0  0  0  0  0
   -5.3737   -1.5837   13.5023 H   0  0  0  0  0  0  0  0  0  0  0  0
   -3.9441   -2.2536   12.6455 H   0  0  0  0  0  0  0  0  0  0  0  0
   -4.6149   -4.5273   13.1672 H   0  0  0  0  0  0  0  0  0  0  0  0
   -6.0071   -3.6685   12.4250 H   0  0  0  0  0  0  0  0  0  0  0  0
   -2.5080   -0.5246   13.3530 H   0  0  0  0  0  0  0  0  0  0  0  0
   -0.0872   -0.0251   13.6253 H   0  0  0  0  0  0  0  0  0  0  0  0
    5.0784    1.0032   12.8663 H   0  0  0  0  0  0  0  0  0  0  0  0
    4.6192    2.3212   13.9971 H   0  0  0  0  0  0  0  0  0  0  0  0
    6.8387    0.8784   15.3052 H   0  0  0  0  0  0  0  0  0  0  0  0
    6.2576   -0.7714   17.3403 H   0  0  0  0  0  0  0  0  0  0  0  0
    4.5849    2.3646   11.2449 H   0  0  0  0  0  0  0  0  0  0  0  0
    3.7246    4.3958   10.1878 H   0  0  0  0  0  0  0  0  0  0  0  0
    3.4120    2.9458    9.1746 H   0  0  0  0  0  0  0  0  0  0  0  0
    1.3624    5.1019    8.2385 H   0  0  0  0  0  0  0  0  0  0  0  0
    0.5610    2.2069   12.8061 H   0  0  0  0  0  0  0  0  0  0  0  0
    0.2099   -3.2208   16.4783 H   0  0  0  0  0  0  0  0  0  0  0  0
   -2.1883   -3.6472   16.2676 H   0  0  0  0  0  0  0  0  0  0  0  0
  1  2  1  0  0  0  0
  2  3  1  0  0  0  0
  2  4  1  0  0  0  0
  2  8  1  0  0  0  0
  4  5  1  0  0  0  0
  5  6  1  0  0  0  0
  6  7  1  0  0  0  0
  6  9  1  0  0  0  0
  7  8  1  0  0  0  0
  9 10  2  0  0  0  0
  9 33  1  0  0  0  0
 10 11  1  0  0  0  0
 11 12  2  0  0  0  0
 12 13  1  0  0  0  0
 12 32  1  0  0  0  0
 13 14  2  0  0  0  0
 14 15  1  0  0  0  0
 14 22  1  0  0  0  0
 15 16  2  0  0  0  0
 16 17  1  0  0  0  0
 16 23  1  0  0  0  0
 17 18  1  0  0  0  0
 18 19  1  0  0  0  0
 18 22  1  0  0  0  0
 19 20  2  0  0  0  0
 20 21  1  0  0  0  0
 21 22  2  0  0  0  0
 23 24  2  0  0  0  0
 23 31  1  0  0  0  0
 24 25  1  0  0  0  0
 25 26  1  0  0  0  0
 26 27  2  0  0  0  0
 26 30  1  0  0  0  0
 27 28  1  0  0  0  0
 28 29  2  0  0  0  0
 29 30  1  0  0  0  0
 30 31  2  0  0  0  0
 32 33  2  0  0  0  0
  1 34  1  0  0  0  0
  1 35  1  0  0  0  0
  1 36  1  0  0  0  0
  3 37  1  0  0  0  0
  4 38  1  0  0  0  0
  4 39  1  0  0  0  0
  5 40  1  0  0  0  0
  5 41  1  0  0  0  0
  7 42  1  0  0  0  0
  7 43  1  0  0  0  0
  8 44  1  0  0  0  0
  8 45  1  0  0  0  0
 10 46  1  0  0  0  0
 11 47  1  0  0  0  0
 17 48  1  0  0  0  0
 17 49  1  0  0  0  0
 19 50  1  0  0  0  0
 20 51  1  0  0  0  0
 24 52  1  0  0  0  0
 25 53  1  0  0  0  0
 25 54  1  0  0  0  0
 27 55  1  0  0  0  0
 31 56  1  0  0  0  0
 32 57  1  0  0  0  0
 33 58  1  0  0  0  0
M  END
> <IC50[nM]>
1.4

$$$$
CHEMBL3265031
  -OEChem-05192314333D
 Structure written by MMmdl.
 58 63  0     0  0  0  0  0  0999 V2000
   -6.8350   -5.5126   14.3646 C   0  0  0  0  0  0  0  0  0  0  0  0
   -6.2469   -4.1256   14.5196 C   0  0  0  0  0  0  0  0  0  0  0  0
   -7.2986   -3.1815   14.6326 O   0  0  0  0  0  0  0  0  0  0  0  0
   -5.3943   -4.0373   15.7957 C   0  0  0  0  0  0  0  0  0  0  0  0
   -4.6708   -2.7036   15.9246 C   0  0  0  0  0  0  0  0  0  0  0  0
   -3.8604   -2.3511   14.7445 N   0  0  0  0  0  0  0  0  0  0  0  0
   -4.6320   -2.3959   13.4920 C   0  0  0  0  0  0  0  0  0  0  0  0
   -5.3661   -3.7377   13.3163 C   0  0  0  0  0  0  0  0  0  0  0  0
   -2.5090   -2.1078   14.8185 C   0  0  0  0  0  0  0  0  0  0  0  0
   -1.9132   -1.0937   14.0521 C   0  0  0  0  0  0  0  0  0  0  0  0
   -0.5452   -0.8202   14.1949 C   0  0  0  0  0  0  0  0  0  0  0  0
    0.2267   -1.5891   15.0857 C   0  0  0  0  0  0  0  0  0  0  0  0
    1.6093   -1.3706   15.3172 N   0  0  0  0  0  0  0  0  0  0  0  0
    2.5356   -0.4465   14.7610 C   0  0  0  0  0  0  0  0  0  0  0  0
    2.1744    0.3801   13.7331 N   0  0  0  0  0  0  0  0  0  0  0  0
    3.1091    1.2393   13.2182 C   0  0  0  0  0  0  0  0  0  0  0  0
    4.4162    1.2819   13.6993 C   0  0  0  0  0  0  0  0  0  0  0  0
    4.7443    0.4889   14.7568 N   0  0  0  0  0  0  0  0  0  0  0  0
    5.8980    0.3793   15.4854 C   0  0  0  0  0  0  0  0  0  0  0  0
    5.5914   -0.5292   16.5255 C   0  0  0  0  0  0  0  0  0  0  0  0
    4.3788   -1.0451   16.3697 N   0  0  0  0  0  0  0  0  0  0  0  0
    3.8374   -0.3956   15.3255 C   0  0  0  0  0  0  0  0  0  0  0  0
    2.6339    2.1607   12.1207 C   0  0  0  0  0  0  0  0  0  0  0  0
    3.5443    2.6413   11.1620 C   0  0  0  0  0  0  0  0  0  0  0  0
    3.1470    3.4630   10.1086 C   0  0  0  0  0  0  0  0  0  0  0  0
    1.8016    3.8175   10.0163 C   0  0  0  0  0  0  0  0  0  0  0  0
    0.9929    4.5961    9.1183 C   0  0  0  0  0  0  0  0  0  0  0  0
   -0.2479    4.6060    9.5144 N   0  0  0  0  0  0  0  0  0  0  0  0
   -0.3355    3.8922   10.6289 N   0  0  0  0  0  0  0  0  0  0  0  0
    0.8848    3.3596   10.9956 C   0  0  0  0  0  0  0  0  0  0  0  0
    1.2708    2.5377   12.0624 C   0  0  0  0  0  0  0  0  0  0  0  0
   -0.3834   -2.6137   15.8106 C   0  0  0  0  0  0  0  0  0  0  0  0
   -1.7318   -2.8604   15.6854 C   0  0  0  0  0  0  0  0  0  0  0  0
   -6.0221   -6.2484   14.2766 H   0  0  0  0  0  0  0  0  0  0  0  0
   -7.4507   -5.7501   15.2447 H   0  0  0  0  0  0  0  0  0  0  0  0
   -7.4599   -5.5468   13.4600 H   0  0  0  0  0  0  0  0  0  0  0  0
   -6.9333   -2.3100   14.7300 H   0  0  0  0  0  0  0  0  0  0  0  0
   -6.0513   -4.1676   16.6682 H   0  0  0  0  0  0  0  0  0  0  0  0
   -4.6463   -4.8436   15.7763 H   0  0  0  0  0  0  0  0  0  0  0  0
   -5.4219   -1.9147   16.0780 H   0  0  0  0  0  0  0  0  0  0  0  0
   -4.0063   -2.7524   16.7999 H   0  0  0  0  0  0  0  0  0  0  0  0
   -5.3737   -1.5837   13.5023 H   0  0  0  0  0  0  0  0  0  0  0  0
   -3.9441   -2.2536   12.6455 H   0  0  0  0  0  0  0  0  0  0  0  0
   -4.6149   -4.5273   13.1672 H   0  0  0  0  0  0  0  0  0  0  0  0
   -6.0071   -3.6685   12.4250 H   0  0  0  0  0  0  0  0  0  0  0  0
   -2.3266   -2.8340   14.0127 H   0  0  0  0  0  0  0  0  0  0  0  0
   -2.5080   -0.5246   13.3530 H   0  0  0  0  0  0  0  0  0  0  0  0
   -0.0872   -0.0251   13.6253 H   0  0  0  0  0  0  0  0  0  0  0  0
    5.0784    1.0032   12.8663 H   0  0  0  0  0  0  0  0  0  0  0  0
    4.6192    2.3212   13.9971 H   0  0  0  0  0  0  0  0  0  0  0  0
    6.8387    0.8784   15.3052 H   0  0  0  0  0  0  0  0  0  0  0  0
    6.2576   -0.7714   17.3403 H   0  0  0  0  0  0  0  0  0  0  0  0
    4.5849    2.3646   11.2449 H   0  0  0  0  0  0  0  0  0  0  0  0
    3.8635    3.8164    9.3818 H   0  0  0  0  0  0  0  0  0  0  0  0
    1.3624    5.1019    8.2385 H   0  0  0  0  0  0  0  0  0  0  0  0
    0.5610    2.2069   12.8061 H   0  0  0  0  0  0  0  0  0  0  0  0
    0.2099   -3.2208   16.4783 H   0  0  0  0  0  0  0  0  0  0  0  0
   -2.1883   -3.6472   16.2676 H   0  0  0  0  0  0  0  0  0  0  0  0
  1  2  1  0  0  0  0
  2  3  1  0  0  0  0
  2  4  1  0  0  0  0
  2  8  1  0  0  0  0
  4  5  1  0  0  0  0
  5  6  1  0  0  0  0
  6  7  1  0  0  0  0
  6  9  1  0  0  0  0
  7  8  1  0  0  0  0
  9 10  1  0  0  0  0
  9 33  1  0  0  0  0
 10 11  2  0  0  0  0
 11 12  1  0  0  0  0
 12 13  2  0  0  0  0
 12 32  1  0  0  0  0
 13 14  1  0  0  0  0
 14 15  2  0  0  0  0
 14 22  1  0  0  0  0
 15 16  1  0  0  0  0
 16 17  1  0  0  0  0
 16 23  2  0  0  0  0
 17 18  1  0  0  0  0
 18 19  1  0  0  0  0
 18 22  1  0  0  0  0
 19 20  2  0  0  0  0
 20 21  1  0  0  0  0
 21 22  2  0  0  0  0
 23 24  1  0  0  0  0
 23 31  1  0  0  0  0
 24 25  2  0  0  0  0
 25 26  1  0  0  0  0
 26 27  2  0  0  0  0
 26 30  1  0  0  0  0
 27 28  1  0  0  0  0
 28 29  2  0  0  0  0
 29 30  1  0  0  0  0
 30 31  2  0  0  0  0
 32 33  2  0  0  0  0
  1 34  1  0  0  0  0
  1 35  1  0  0  0  0
  1 36  1  0  0  0  0
  3 37  1  0  0  0  0
  4 38  1  0  0  0  0
  4 39  1  0  0  0  0
  5 40  1  0  0  0  0
  5 41  1  0  0  0  0
  7 42  1  0  0  0  0
  7 43  1  0  0  0  0
  8 44  1  0  0  0  0
  8 45  1  0  0  0  0
  9 46  1  0  0  0  0
 10 47  1  0  0  0  0
 11 48  1  0  0  0  0
 17 49  1  0  0  0  0
 17 50  1  0  0  0  0
 19 51  1  0  0  0  0
 20 52  1  0  0  0  0
 24 53  1  0  0  0  0
 25 54  1  0  0  0  0
 27 55  1  0  0  0  0
 31 56  1  0  0  0  0
 32 57  1  0  0  0  0
 33 58  1  0  0  0  0
M  END
> <IC50[nM]>
1.4

$$$$
CHEMBL3265031
  -OEChem-05192314333D
 Structure written by MMmdl.
 58 63  0     0  0  0  0  0  0999 V2000
   -6.8350   -5.5126   14.3646 C   0  0  0  0  0  0  0  0  0  0  0  0
   -6.2469   -4.1256   14.5196 C   0  0  0  0  0  0  0  0  0  0  0  0
   -7.2986   -3.1815   14.6326 O   0  0  0  0  0  0  0  0  0  0  0  0
   -5.3943   -4.0373   15.7957 C   0  0  0  0  0  0  0  0  0  0  0  0
   -4.6708   -2.7036   15.9246 C   0  0  0  0  0  0  0  0  0  0  0  0
   -3.8604   -2.3511   14.7445 N   0  0  0  0  0  0  0  0  0  0  0  0
   -4.6320   -2.3959   13.4920 C   0  0  0  0  0  0  0  0  0  0  0  0
   -5.3661   -3.7377   13.3163 C   0  0  0  0  0  0  0  0  0  0  0  0
   -2.5090   -2.1078   14.8185 C   0  0  0  0  0  0  0  0  0  0  0  0
   -1.9132   -1.0937   14.0521 C   0  0  0  0  0  0  0  0  0  0  0  0
   -0.5452   -0.8202   14.1949 C   0  0  0  0  0  0  0  0  0  0  0  0
    0.2267   -1.5891   15.0857 C   0  0  0  0  0  0  0  0  0  0  0  0
    1.6093   -1.3706   15.3172 N   0  0  0  0  0  0  0  0  0  0  0  0
    2.5356   -0.4465   14.7610 C   0  0  0  0  0  0  0  0  0  0  0  0
    2.1744    0.3801   13.7331 N   0  0  0  0  0  0  0  0  0  0  0  0
    3.1091    1.2393   13.2182 C   0  0  0  0  0  0  0  0  0  0  0  0
    4.4162    1.2819   13.6993 C   0  0  0  0  0  0  0  0  0  0  0  0
    4.7443    0.4889   14.7568 N   0  0  0  0  0  0  0  0  0  0  0  0
    5.8980    0.3793   15.4854 C   0  0  0  0  0  0  0  0  0  0  0  0
    5.5914   -0.5292   16.5255 C   0  0  0  0  0  0  0  0  0  0  0  0
    4.3788   -1.0451   16.3697 N   0  0  0  0  0  0  0  0  0  0  0  0
    3.8374   -0.3956   15.3255 C   0  0  0  0  0  0  0  0  0  0  0  0
    2.6339    2.1607   12.1207 C   0  0  0  0  0  0  0  0  0  0  0  0
    3.5443    2.6413   11.1620 C   0  0  0  0  0  0  0  0  0  0  0  0
    3.1470    3.4630   10.1086 C   0  0  0  0  0  0  0  0  0  0  0  0
    1.8016    3.8175   10.0163 C   0  0  0  0  0  0  0  0  0  0  0  0
    0.9929    4.5961    9.1183 C   0  0  0  0  0  0  0  0  0  0  0  0
   -0.2479    4.6060    9.5144 N   0  0  0  0  0  0  0  0  0  0  0  0
   -0.3355    3.8922   10.6289 N   0  0  0  0  0  0  0  0  0  0  0  0
    0.8848    3.3596   10.9956 C   0  0  0  0  0  0  0  0  0  0  0  0
    1.2708    2.5377   12.0624 C   0  0  0  0  0  0  0  0  0  0  0  0
   -0.3834   -2.6137   15.8106 C   0  0  0  0  0  0  0  0  0  0  0  0
   -1.7318   -2.8604   15.6854 C   0  0  0  0  0  0  0  0  0  0  0  0
   -6.0221   -6.2484   14.2766 H   0  0  0  0  0  0  0  0  0  0  0  0
   -7.4507   -5.7501   15.2447 H   0  0  0  0  0  0  0  0  0  0  0  0
   -7.4599   -5.5468   13.4600 H   0  0  0  0  0  0  0  0  0  0  0  0
   -6.9333   -2.3100   14.7300 H   0  0  0  0  0  0  0  0  0  0  0  0
   -6.0513   -4.1676   16.6682 H   0  0  0  0  0  0  0  0  0  0  0  0
   -4.6463   -4.8436   15.7763 H   0  0  0  0  0  0  0  0  0  0  0  0
   -5.4219   -1.9147   16.0780 H   0  0  0  0  0  0  0  0  0  0  0  0
   -4.0063   -2.7524   16.7999 H   0  0  0  0  0  0  0  0  0  0  0  0
   -5.3737   -1.5837   13.5023 H   0  0  0  0  0  0  0  0  0  0  0  0
   -3.9441   -2.2536   12.6455 H   0  0  0  0  0  0  0  0  0  0  0  0
   -4.6149   -4.5273   13.1672 H   0  0  0  0  0  0  0  0  0  0  0  0
   -6.0071   -3.6685   12.4250 H   0  0  0  0  0  0  0  0  0  0  0  0
   -2.5080   -0.5246   13.3530 H   0  0  0  0  0  0  0  0  0  0  0  0
   -0.0872   -0.0251   13.6253 H   0  0  0  0  0  0  0  0  0  0  0  0
    5.0784    1.0032   12.8663 H   0  0  0  0  0  0  0  0  0  0  0  0
    4.6192    2.3212   13.9971 H   0  0  0  0  0  0  0  0  0  0  0  0
    6.8387    0.8784   15.3052 H   0  0  0  0  0  0  0  0  0  0  0  0
    6.2576   -0.7714   17.3403 H   0  0  0  0  0  0  0  0  0  0  0  0
    4.5849    2.3646   11.2449 H   0  0  0  0  0  0  0  0  0  0  0  0
    3.8635    3.8164    9.3818 H   0  0  0  0  0  0  0  0  0  0  0  0
    1.3624    5.1019    8.2385 H   0  0  0  0  0  0  0  0  0  0  0  0
    0.5610    2.2069   12.8061 H   0  0  0  0  0  0  0  0  0  0  0  0
    0.1327   -3.5445   15.5329 H   0  0  0  0  0  0  0  0  0  0  0  0
   -0.2017   -2.3968   16.8736 H   0  0  0  0  0  0  0  0  0  0  0  0
   -2.1883   -3.6472   16.2676 H   0  0  0  0  0  0  0  0  0  0  0  0
  1  2  1  0  0  0  0
  2  3  1  0  0  0  0
  2  4  1  0  0  0  0
  2  8  1  0  0  0  0
  4  5  1  0  0  0  0
  5  6  1  0  0  0  0
  6  7  1  0  0  0  0
  6  9  1  0  0  0  0
  7  8  1  0  0  0  0
  9 10  1  0  0  0  0
  9 33  2  0  0  0  0
 10 11  2  0  0  0  0
 11 12  1  0  0  0  0
 12 13  2  0  0  0  0
 12 32  1  0  0  0  0
 13 14  1  0  0  0  0
 14 15  2  0  0  0  0
 14 22  1  0  0  0  0
 15 16  1  0  0  0  0
 16 17  1  0  0  0  0
 16 23  2  0  0  0  0
 17 18  1  0  0  0  0
 18 19  1  0  0  0  0
 18 22  1  0  0  0  0
 19 20  2  0  0  0  0
 20 21  1  0  0  0  0
 21 22  2  0  0  0  0
 23 24  1  0  0  0  0
 23 31  1  0  0  0  0
 24 25  2  0  0  0  0
 25 26  1  0  0  0  0
 26 27  2  0  0  0  0
 26 30  1  0  0  0  0
 27 28  1  0  0  0  0
 28 29  2  0  0  0  0
 29 30  1  0  0  0  0
 30 31  2  0  0  0  0
 32 33  1  0  0  0  0
  1 34  1  0  0  0  0
  1 35  1  0  0  0  0
  1 36  1  0  0  0  0
  3 37  1  0  0  0  0
  4 38  1  0  0  0  0
  4 39  1  0  0  0  0
  5 40  1  0  0  0  0
  5 41  1  0  0  0  0
  7 42  1  0  0  0  0
  7 43  1  0  0  0  0
  8 44  1  0  0  0  0
  8 45  1  0  0  0  0
 10 46  1  0  0  0  0
 11 47  1  0  0  0  0
 17 48  1  0  0  0  0
 17 49  1  0  0  0  0
 19 50  1  0  0  0  0
 20 51  1  0  0  0  0
 24 52  1  0  0  0  0
 25 53  1  0  0  0  0
 27 54  1  0  0  0  0
 31 55  1  0  0  0  0
 32 56  1  0  0  0  0
 32 57  1  0  0  0  0
 33 58  1  0  0  0  0
M  END
> <IC50[nM]>
1.4

$$$$
CHEMBL3265031
  -OEChem-05192314333D
 Structure written by MMmdl.
 58 63  0     1  0  0  0  0  0999 V2000
   -6.8350   -5.5126   14.3646 C   0  0  0  0  0  0  0  0  0  0  0  0
   -6.2469   -4.1256   14.5196 C   0  0  0  0  0  0  0  0  0  0  0  0
   -7.2986   -3.1815   14.6326 O   0  0  0  0  0  0  0  0  0  0  0  0
   -5.3943   -4.0373   15.7957 C   0  0  0  0  0  0  0  0  0  0  0  0
   -4.6708   -2.7036   15.9246 C   0  0  0  0  0  0  0  0  0  0  0  0
   -3.8604   -2.3511   14.7445 N   0  0  0  0  0  0  0  0  0  0  0  0
   -4.6320   -2.3959   13.4920 C   0  0  0  0  0  0  0  0  0  0  0  0
   -5.3661   -3.7377   13.3163 C   0  0  0  0  0  0  0  0  0  0  0  0
   -2.5090   -2.1078   14.8185 C   0  0  0  0  0  0  0  0  0  0  0  0
   -1.9132   -1.0937   14.0521 C   0  0  0  0  0  0  0  0  0  0  0  0
   -0.5452   -0.8202   14.1949 C   0  0  0  0  0  0  0  0  0  0  0  0
    0.2267   -1.5891   15.0857 C   0  0  0  0  0  0  0  0  0  0  0  0
    1.6093   -1.3706   15.3172 N   0  0  0  0  0  0  0  0  0  0  0  0
    2.5356   -0.4465   14.7610 C   0  0  0  0  0  0  0  0  0  0  0  0
    2.1744    0.3801   13.7331 N   0  0  0  0  0  0  0  0  0  0  0  0
    3.1091    1.2393   13.2182 C   0  0  0  0  0  0  0  0  0  0  0  0
    4.4162    1.2819   13.6993 C   0  0  0  0  0  0  0  0  0  0  0  0
    4.7443    0.4889   14.7568 N   0  0  0  0  0  0  0  0  0  0  0  0
    5.8980    0.3793   15.4854 C   0  0  0  0  0  0  0  0  0  0  0  0
    5.5914   -0.5292   16.5255 C   0  0  0  0  0  0  0  0  0  0  0  0
    4.3788   -1.0451   16.3697 N   0  0  0  0  0  0  0  0  0  0  0  0
    3.8374   -0.3956   15.3255 C   0  0  0  0  0  0  0  0  0  0  0  0
    2.6339    2.1607   12.1207 C   0  0  0  0  0  0  0  0  0  0  0  0
    3.5443    2.6413   11.1620 C   0  0  0  0  0  0  0  0  0  0  0  0
    3.1470    3.4630   10.1086 C   0  0  0  0  0  0  0  0  0  0  0  0
    1.8016    3.8175   10.0163 C   0  0  3  0  0  0  0  0  0  0  0  0
    0.9929    4.5961    9.1183 C   0  0  0  0  0  0  0  0  0  0  0  0
   -0.2479    4.6060    9.5144 N   0  0  0  0  0  0  0  0  0  0  0  0
   -0.3355    3.8922   10.6289 N   0  0  0  0  0  0  0  0  0  0  0  0
    0.8848    3.3596   10.9956 C   0  0  0  0  0  0  0  0  0  0  0  0
    1.2708    2.5377   12.0624 C   0  0  0  0  0  0  0  0  0  0  0  0
   -0.3834   -2.6137   15.8106 C   0  0  0  0  0  0  0  0  0  0  0  0
   -1.7318   -2.8604   15.6854 C   0  0  0  0  0  0  0  0  0  0  0  0
   -6.0221   -6.2484   14.2766 H   0  0  0  0  0  0  0  0  0  0  0  0
   -7.4507   -5.7501   15.2447 H   0  0  0  0  0  0  0  0  0  0  0  0
   -7.4599   -5.5468   13.4600 H   0  0  0  0  0  0  0  0  0  0  0  0
   -6.9333   -2.3100   14.7300 H   0  0  0  0  0  0  0  0  0  0  0  0
   -6.0513   -4.1676   16.6682 H   0  0  0  0  0  0  0  0  0  0  0  0
   -4.6463   -4.8436   15.7763 H   0  0  0  0  0  0  0  0  0  0  0  0
   -5.4219   -1.9147   16.0780 H   0  0  0  0  0  0  0  0  0  0  0  0
   -4.0063   -2.7524   16.7999 H   0  0  0  0  0  0  0  0  0  0  0  0
   -5.3737   -1.5837   13.5023 H   0  0  0  0  0  0  0  0  0  0  0  0
   -3.9441   -2.2536   12.6455 H   0  0  0  0  0  0  0  0  0  0  0  0
   -4.6149   -4.5273   13.1672 H   0  0  0  0  0  0  0  0  0  0  0  0
   -6.0071   -3.6685   12.4250 H   0  0  0  0  0  0  0  0  0  0  0  0
   -2.3266   -2.8340   14.0127 H   0  0  0  0  0  0  0  0  0  0  0  0
   -2.5080   -0.5246   13.3530 H   0  0  0  0  0  0  0  0  0  0  0  0
   -0.0872   -0.0251   13.6253 H   0  0  0  0  0  0  0  0  0  0  0  0
    5.1518    1.9286   13.2442 H   0  0  0  0  0  0  0  0  0  0  0  0
    6.8387    0.8784   15.3052 H   0  0  0  0  0  0  0  0  0  0  0  0
    6.2576   -0.7714   17.3403 H   0  0  0  0  0  0  0  0  0  0  0  0
    4.5849    2.3646   11.2449 H   0  0  0  0  0  0  0  0  0  0  0  0
    3.8635    3.8164    9.3818 H   0  0  0  0  0  0  0  0  0  0  0  0
    1.6061    2.9187    9.4130 H   0  0  0  0  0  0  0  0  0  0  0  0
    1.3624    5.1019    8.2385 H   0  0  0  0  0  0  0  0  0  0  0  0
    0.5610    2.2069   12.8061 H   0  0  0  0  0  0  0  0  0  0  0  0
    0.2099   -3.2208   16.4783 H   0  0  0  0  0  0  0  0  0  0  0  0
   -2.1883   -3.6472   16.2676 H   0  0  0  0  0  0  0  0  0  0  0  0
  1  2  1  0  0  0  0
  2  3  1  0  0  0  0
  2  4  1  0  0  0  0
  2  8  1  0  0  0  0
  4  5  1  0  0  0  0
  5  6  1  0  0  0  0
  6  7  1  0  0  0  0
  6  9  1  0  0  0  0
  7  8  1  0  0  0  0
  9 10  1  0  0  0  0
  9 33  1  0  0  0  0
 10 11  2  0  0  0  0
 11 12  1  0  0  0  0
 12 13  2  0  0  0  0
 12 32  1  0  0  0  0
 13 14  1  0  0  0  0
 14 15  2  0  0  0  0
 14 22  1  0  0  0  0
 15 16  1  0  0  0  0
 16 17  2  0  0  0  0
 16 23  1  0  0  0  0
 17 18  1  0  0  0  0
 18 19  1  0  0  0  0
 18 22  1  0  0  0  0
 19 20  2  0  0  0  0
 20 21  1  0  0  0  0
 21 22  2  0  0  0  0
 23 24  1  0  0  0  0
 23 31  2  0  0  0  0
 24 25  2  0  0  0  0
 25 26  1  0  0  0  0
 26 27  1  0  0  0  0
 26 30  1  0  0  0  0
 27 28  2  0  0  0  0
 28 29  1  0  0  0  0
 29 30  2  0  0  0  0
 30 31  1  0  0  0  0
 32 33  2  0  0  0  0
  1 34  1  0  0  0  0
  1 35  1  0  0  0  0
  1 36  1  0  0  0  0
  3 37  1  0  0  0  0
  4 38  1  0  0  0  0
  4 39  1  0  0  0  0
  5 40  1  0  0  0  0
  5 41  1  0  0  0  0
  7 42  1  0  0  0  0
  7 43  1  0  0  0  0
  8 44  1  0  0  0  0
  8 45  1  0  0  0  0
  9 46  1  0  0  0  0
 10 47  1  0  0  0  0
 11 48  1  0  0  0  0
 17 49  1  0  0  0  0
 19 50  1  0  0  0  0
 20 51  1  0  0  0  0
 24 52  1  0  0  0  0
 25 53  1  0  0  0  0
 26 54  1  0  0  0  0
 27 55  1  0  0  0  0
 31 56  1  0  0  0  0
 32 57  1  0  0  0  0
 33 58  1  0  0  0  0
M  END
> <IC50[nM]>
1.4

$$$$
CHEMBL3265031
  -OEChem-05192314333D
 Structure written by MMmdl.
 58 63  0     1  0  0  0  0  0999 V2000
   -6.8350   -5.5126   14.3646 C   0  0  0  0  0  0  0  0  0  0  0  0
   -6.2469   -4.1256   14.5196 C   0  0  0  0  0  0  0  0  0  0  0  0
   -7.2986   -3.1815   14.6326 O   0  0  0  0  0  0  0  0  0  0  0  0
   -5.3943   -4.0373   15.7957 C   0  0  0  0  0  0  0  0  0  0  0  0
   -4.6708   -2.7036   15.9246 C   0  0  0  0  0  0  0  0  0  0  0  0
   -3.8604   -2.3511   14.7445 N   0  0  0  0  0  0  0  0  0  0  0  0
   -4.6320   -2.3959   13.4920 C   0  0  0  0  0  0  0  0  0  0  0  0
   -5.3661   -3.7377   13.3163 C   0  0  0  0  0  0  0  0  0  0  0  0
   -2.5090   -2.1078   14.8185 C   0  0  0  0  0  0  0  0  0  0  0  0
   -1.9132   -1.0937   14.0521 C   0  0  0  0  0  0  0  0  0  0  0  0
   -0.5452   -0.8202   14.1949 C   0  0  0  0  0  0  0  0  0  0  0  0
    0.2267   -1.5891   15.0857 C   0  0  0  0  0  0  0  0  0  0  0  0
    1.6093   -1.3706   15.3172 N   0  0  0  0  0  0  0  0  0  0  0  0
    2.5356   -0.4465   14.7610 C   0  0  0  0  0  0  0  0  0  0  0  0
    2.1744    0.3801   13.7331 N   0  0  0  0  0  0  0  0  0  0  0  0
    3.1091    1.2393   13.2182 C   0  0  0  0  0  0  0  0  0  0  0  0
    4.4162    1.2819   13.6993 C   0  0  0  0  0  0  0  0  0  0  0  0
    4.7443    0.4889   14.7568 N   0  0  0  0  0  0  0  0  0  0  0  0
    5.8980    0.3793   15.4854 C   0  0  0  0  0  0  0  0  0  0  0  0
    5.5914   -0.5292   16.5255 C   0  0  0  0  0  0  0  0  0  0  0  0
    4.3788   -1.0451   16.3697 N   0  0  0  0  0  0  0  0  0  0  0  0
    3.8374   -0.3956   15.3255 C   0  0  0  0  0  0  0  0  0  0  0  0
    2.6339    2.1607   12.1207 C   0  0  0  0  0  0  0  0  0  0  0  0
    3.5443    2.6413   11.1620 C   0  0  0  0  0  0  0  0  0  0  0  0
    3.1470    3.4630   10.1086 C   0  0  0  0  0  0  0  0  0  0  0  0
    1.8016    3.8175   10.0163 C   0  0  3  0  0  0  0  0  0  0  0  0
    0.9929    4.5961    9.1183 C   0  0  0  0  0  0  0  0  0  0  0  0
   -0.2479    4.6060    9.5144 N   0  0  0  0  0  0  0  0  0  0  0  0
   -0.3355    3.8922   10.6289 N   0  0  0  0  0  0  0  0  0  0  0  0
    0.8848    3.3596   10.9956 C   0  0  0  0  0  0  0  0  0  0  0  0
    1.2708    2.5377   12.0624 C   0  0  0  0  0  0  0  0  0  0  0  0
   -0.3834   -2.6137   15.8106 C   0  0  0  0  0  0  0  0  0  0  0  0
   -1.7318   -2.8604   15.6854 C   0  0  0  0  0  0  0  0  0  0  0  0
   -6.0221   -6.2484   14.2766 H   0  0  0  0  0  0  0  0  0  0  0  0
   -7.4507   -5.7501   15.2447 H   0  0  0  0  0  0  0  0  0  0  0  0
   -7.4599   -5.5468   13.4600 H   0  0  0  0  0  0  0  0  0  0  0  0
   -6.9333   -2.3100   14.7300 H   0  0  0  0  0  0  0  0  0  0  0  0
   -6.0513   -4.1676   16.6682 H   0  0  0  0  0  0  0  0  0  0  0  0
   -4.6463   -4.8436   15.7763 H   0  0  0  0  0  0  0  0  0  0  0  0
   -5.4219   -1.9147   16.0780 H   0  0  0  0  0  0  0  0  0  0  0  0
   -4.0063   -2.7524   16.7999 H   0  0  0  0  0  0  0  0  0  0  0  0
   -5.3737   -1.5837   13.5023 H   0  0  0  0  0  0  0  0  0  0  0  0
   -3.9441   -2.2536   12.6455 H   0  0  0  0  0  0  0  0  0  0  0  0
   -4.6149   -4.5273   13.1672 H   0  0  0  0  0  0  0  0  0  0  0  0
   -6.0071   -3.6685   12.4250 H   0  0  0  0  0  0  0  0  0  0  0  0
   -2.5080   -0.5246   13.3530 H   0  0  0  0  0  0  0  0  0  0  0  0
   -0.0872   -0.0251   13.6253 H   0  0  0  0  0  0  0  0  0  0  0  0
    5.1518    1.9286   13.2442 H   0  0  0  0  0  0  0  0  0  0  0  0
    6.8387    0.8784   15.3052 H   0  0  0  0  0  0  0  0  0  0  0  0
    6.2576   -0.7714   17.3403 H   0  0  0  0  0  0  0  0  0  0  0  0
    4.5849    2.3646   11.2449 H   0  0  0  0  0  0  0  0  0  0  0  0
    3.8635    3.8164    9.3818 H   0  0  0  0  0  0  0  0  0  0  0  0
    1.6061    2.9187    9.4130 H   0  0  0  0  0  0  0  0  0  0  0  0
    1.3624    5.1019    8.2385 H   0  0  0  0  0  0  0  0  0  0  0  0
    0.5610    2.2069   12.8061 H   0  0  0  0  0  0  0  0  0  0  0  0
    0.1327   -3.5445   15.5329 H   0  0  0  0  0  0  0  0  0  0  0  0
   -0.2017   -2.3968   16.8736 H   0  0  0  0  0  0  0  0  0  0  0  0
   -2.1883   -3.6472   16.2676 H   0  0  0  0  0  0  0  0  0  0  0  0
  1  2  1  0  0  0  0
  2  3  1  0  0  0  0
  2  4  1  0  0  0  0
  2  8  1  0  0  0  0
  4  5  1  0  0  0  0
  5  6  1  0  0  0  0
  6  7  1  0  0  0  0
  6  9  1  0  0  0  0
  7  8  1  0  0  0  0
  9 10  1  0  0  0  0
  9 33  2  0  0  0  0
 10 11  2  0  0  0  0
 11 12  1  0  0  0  0
 12 13  2  0  0  0  0
 12 32  1  0  0  0  0
 13 14  1  0  0  0  0
 14 15  2  0  0  0  0
 14 22  1  0  0  0  0
 15 16  1  0  0  0  0
 16 17  2  0  0  0  0
 16 23  1  0  0  0  0
 17 18  1  0  0  0  0
 18 19  1  0  0  0  0
 18 22  1  0  0  0  0
 19 20  2  0  0  0  0
 20 21  1  0  0  0  0
 21 22  2  0  0  0  0
 23 24  1  0  0  0  0
 23 31  2  0  0  0  0
 24 25  2  0  0  0  0
 25 26  1  0  0  0  0
 26 27  1  0  0  0  0
 26 30  1  0  0  0  0
 27 28  2  0  0  0  0
 28 29  1  0  0  0  0
 29 30  2  0  0  0  0
 30 31  1  0  0  0  0
 32 33  1  0  0  0  0
  1 34  1  0  0  0  0
  1 35  1  0  0  0  0
  1 36  1  0  0  0  0
  3 37  1  0  0  0  0
  4 38  1  0  0  0  0
  4 39  1  0  0  0  0
  5 40  1  0  0  0  0
  5 41  1  0  0  0  0
  7 42  1  0  0  0  0
  7 43  1  0  0  0  0
  8 44  1  0  0  0  0
  8 45  1  0  0  0  0
 10 46  1  0  0  0  0
 11 47  1  0  0  0  0
 17 48  1  0  0  0  0
 19 49  1  0  0  0  0
 20 50  1  0  0  0  0
 24 51  1  0  0  0  0
 25 52  1  0  0  0  0
 26 53  1  0  0  0  0
 27 54  1  0  0  0  0
 31 55  1  0  0  0  0
 32 56  1  0  0  0  0
 32 57  1  0  0  0  0
 33 58  1  0  0  0  0
M  END
> <IC50[nM]>
1.4

$$$$
CHEMBL3265031
  -OEChem-05192314333D
 Structure written by MMmdl.
 58 63  0     0  0  0  0  0  0999 V2000
   -6.8350   -5.5126   14.3646 C   0  0  0  0  0  0  0  0  0  0  0  0
   -6.2469   -4.1256   14.5196 C   0  0  0  0  0  0  0  0  0  0  0  0
   -7.2986   -3.1815   14.6326 O   0  0  0  0  0  0  0  0  0  0  0  0
   -5.3943   -4.0373   15.7957 C   0  0  0  0  0  0  0  0  0  0  0  0
   -4.6708   -2.7036   15.9246 C   0  0  0  0  0  0  0  0  0  0  0  0
   -3.8604   -2.3511   14.7445 N   0  0  0  0  0  0  0  0  0  0  0  0
   -4.6320   -2.3959   13.4920 C   0  0  0  0  0  0  0  0  0  0  0  0
   -5.3661   -3.7377   13.3163 C   0  0  0  0  0  0  0  0  0  0  0  0
   -2.5090   -2.1078   14.8185 C   0  0  0  0  0  0  0  0  0  0  0  0
   -1.9132   -1.0937   14.0521 C   0  0  0  0  0  0  0  0  0  0  0  0
   -0.5452   -0.8202   14.1949 C   0  0  0  0  0  0  0  0  0  0  0  0
    0.2267   -1.5891   15.0857 C   0  0  0  0  0  0  0  0  0  0  0  0
    1.6093   -1.3706   15.3172 N   0  0  0  0  0  0  0  0  0  0  0  0
    2.5356   -0.4465   14.7610 C   0  0  0  0  0  0  0  0  0  0  0  0
    2.1744    0.3801   13.7331 N   0  0  0  0  0  0  0  0  0  0  0  0
    3.1091    1.2393   13.2182 C   0  0  0  0  0  0  0  0  0  0  0  0
    4.4162    1.2819   13.6993 C   0  0  0  0  0  0  0  0  0  0  0  0
    4.7443    0.4889   14.7568 N   0  0  0  0  0  0  0  0  0  0  0  0
    5.8980    0.3793   15.4854 C   0  0  0  0  0  0  0  0  0  0  0  0
    5.5914   -0.5292   16.5255 C   0  0  0  0  0  0  0  0  0  0  0  0
    4.3788   -1.0451   16.3697 N   0  0  0  0  0  0  0  0  0  0  0  0
    3.8374   -0.3956   15.3255 C   0  0  0  0  0  0  0  0  0  0  0  0
    2.6339    2.1607   12.1207 C   0  0  0  0  0  0  0  0  0  0  0  0
    3.5443    2.6413   11.1620 C   0  0  0  0  0  0  0  0  0  0  0  0
    3.1470    3.4630   10.1086 C   0  0  0  0  0  0  0  0  0  0  0  0
    1.8016    3.8175   10.0163 C   0  0  0  0  0  0  0  0  0  0  0  0
    0.9929    4.5961    9.1183 C   0  0  0  0  0  0  0  0  0  0  0  0
   -0.2479    4.6060    9.5144 N   0  0  0  0  0  0  0  0  0  0  0  0
   -0.3355    3.8922   10.6289 N   0  0  0  0  0  0  0  0  0  0  0  0
    0.8848    3.3596   10.9956 C   0  0  0  0  0  0  0  0  0  0  0  0
    1.2708    2.5377   12.0624 C   0  0  0  0  0  0  0  0  0  0  0  0
   -0.3834   -2.6137   15.8106 C   0  0  0  0  0  0  0  0  0  0  0  0
   -1.7318   -2.8604   15.6854 C   0  0  0  0  0  0  0  0  0  0  0  0
   -6.0221   -6.2484   14.2766 H   0  0  0  0  0  0  0  0  0  0  0  0
   -7.4507   -5.7501   15.2447 H   0  0  0  0  0  0  0  0  0  0  0  0
   -7.4599   -5.5468   13.4600 H   0  0  0  0  0  0  0  0  0  0  0  0
   -6.9333   -2.3100   14.7300 H   0  0  0  0  0  0  0  0  0  0  0  0
   -6.0513   -4.1676   16.6682 H   0  0  0  0  0  0  0  0  0  0  0  0
   -4.6463   -4.8436   15.7763 H   0  0  0  0  0  0  0  0  0  0  0  0
   -5.4219   -1.9147   16.0780 H   0  0  0  0  0  0  0  0  0  0  0  0
   -4.0063   -2.7524   16.7999 H   0  0  0  0  0  0  0  0  0  0  0  0
   -5.3737   -1.5837   13.5023 H   0  0  0  0  0  0  0  0  0  0  0  0
   -3.9441   -2.2536   12.6455 H   0  0  0  0  0  0  0  0  0  0  0  0
   -4.6149   -4.5273   13.1672 H   0  0  0  0  0  0  0  0  0  0  0  0
   -6.0071   -3.6685   12.4250 H   0  0  0  0  0  0  0  0  0  0  0  0
   -2.3266   -2.8340   14.0127 H   0  0  0  0  0  0  0  0  0  0  0  0
   -2.5080   -0.5246   13.3530 H   0  0  0  0  0  0  0  0  0  0  0  0
   -0.0872   -0.0251   13.6253 H   0  0  0  0  0  0  0  0  0  0  0  0
    5.1518    1.9286   13.2442 H   0  0  0  0  0  0  0  0  0  0  0  0
    6.8387    0.8784   15.3052 H   0  0  0  0  0  0  0  0  0  0  0  0
    6.2576   -0.7714   17.3403 H   0  0  0  0  0  0  0  0  0  0  0  0
    4.3085    3.2034   11.7187 H   0  0  0  0  0  0  0  0  0  0  0  0
    4.0040    1.7537   10.7028 H   0  0  0  0  0  0  0  0  0  0  0  0
    3.8635    3.8164    9.3818 H   0  0  0  0  0  0  0  0  0  0  0  0
    1.3624    5.1019    8.2385 H   0  0  0  0  0  0  0  0  0  0  0  0
    0.5610    2.2069   12.8061 H   0  0  0  0  0  0  0  0  0  0  0  0
    0.2099   -3.2208   16.4783 H   0  0  0  0  0  0  0  0  0  0  0  0
   -2.1883   -3.6472   16.2676 H   0  0  0  0  0  0  0  0  0  0  0  0
  1  2  1  0  0  0  0
  2  3  1  0  0  0  0
  2  4  1  0  0  0  0
  2  8  1  0  0  0  0
  4  5  1  0  0  0  0
  5  6  1  0  0  0  0
  6  7  1  0  0  0  0
  6  9  1  0  0  0  0
  7  8  1  0  0  0  0
  9 10  1  0  0  0  0
  9 33  1  0  0  0  0
 10 11  2  0  0  0  0
 11 12  1  0  0  0  0
 12 13  2  0  0  0  0
 12 32  1  0  0  0  0
 13 14  1  0  0  0  0
 14 15  2  0  0  0  0
 14 22  1  0  0  0  0
 15 16  1  0  0  0  0
 16 17  2  0  0  0  0
 16 23  1  0  0  0  0
 17 18  1  0  0  0  0
 18 19  1  0  0  0  0
 18 22  1  0  0  0  0
 19 20  2  0  0  0  0
 20 21  1  0  0  0  0
 21 22  2  0  0  0  0
 23 24  1  0  0  0  0
 23 31  2  0  0  0  0
 24 25  1  0  0  0  0
 25 26  2  0  0  0  0
 26 27  1  0  0  0  0
 26 30  1  0  0  0  0
 27 28  2  0  0  0  0
 28 29  1  0  0  0  0
 29 30  2  0  0  0  0
 30 31  1  0  0  0  0
 32 33  2  0  0  0  0
  1 34  1  0  0  0  0
  1 35  1  0  0  0  0
  1 36  1  0  0  0  0
  3 37  1  0  0  0  0
  4 38  1  0  0  0  0
  4 39  1  0  0  0  0
  5 40  1  0  0  0  0
  5 41  1  0  0  0  0
  7 42  1  0  0  0  0
  7 43  1  0  0  0  0
  8 44  1  0  0  0  0
  8 45  1  0  0  0  0
  9 46  1  0  0  0  0
 10 47  1  0  0  0  0
 11 48  1  0  0  0  0
 17 49  1  0  0  0  0
 19 50  1  0  0  0  0
 20 51  1  0  0  0  0
 24 52  1  0  0  0  0
 24 53  1  0  0  0  0
 25 54  1  0  0  0  0
 27 55  1  0  0  0  0
 31 56  1  0  0  0  0
 32 57  1  0  0  0  0
 33 58  1  0  0  0  0
M  END
> <IC50[nM]>
1.4

$$$$
CHEMBL3265031
  -OEChem-05192314333D
 Structure written by MMmdl.
 58 63  0     0  0  0  0  0  0999 V2000
   -6.8350   -5.5126   14.3646 C   0  0  0  0  0  0  0  0  0  0  0  0
   -6.2469   -4.1256   14.5196 C   0  0  0  0  0  0  0  0  0  0  0  0
   -7.2986   -3.1815   14.6326 O   0  0  0  0  0  0  0  0  0  0  0  0
   -5.3943   -4.0373   15.7957 C   0  0  0  0  0  0  0  0  0  0  0  0
   -4.6708   -2.7036   15.9246 C   0  0  0  0  0  0  0  0  0  0  0  0
   -3.8604   -2.3511   14.7445 N   0  0  0  0  0  0  0  0  0  0  0  0
   -4.6320   -2.3959   13.4920 C   0  0  0  0  0  0  0  0  0  0  0  0
   -5.3661   -3.7377   13.3163 C   0  0  0  0  0  0  0  0  0  0  0  0
   -2.5090   -2.1078   14.8185 C   0  0  0  0  0  0  0  0  0  0  0  0
   -1.9132   -1.0937   14.0521 C   0  0  0  0  0  0  0  0  0  0  0  0
   -0.5452   -0.8202   14.1949 C   0  0  0  0  0  0  0  0  0  0  0  0
    0.2267   -1.5891   15.0857 C   0  0  0  0  0  0  0  0  0  0  0  0
    1.6093   -1.3706   15.3172 N   0  0  0  0  0  0  0  0  0  0  0  0
    2.5356   -0.4465   14.7610 C   0  0  0  0  0  0  0  0  0  0  0  0
    2.1744    0.3801   13.7331 N   0  0  0  0  0  0  0  0  0  0  0  0
    3.1091    1.2393   13.2182 C   0  0  0  0  0  0  0  0  0  0  0  0
    4.4162    1.2819   13.6993 C   0  0  0  0  0  0  0  0  0  0  0  0
    4.7443    0.4889   14.7568 N   0  0  0  0  0  0  0  0  0  0  0  0
    5.8980    0.3793   15.4854 C   0  0  0  0  0  0  0  0  0  0  0  0
    5.5914   -0.5292   16.5255 C   0  0  0  0  0  0  0  0  0  0  0  0
    4.3788   -1.0451   16.3697 N   0  0  0  0  0  0  0  0  0  0  0  0
    3.8374   -0.3956   15.3255 C   0  0  0  0  0  0  0  0  0  0  0  0
    2.6339    2.1607   12.1207 C   0  0  0  0  0  0  0  0  0  0  0  0
    3.5443    2.6413   11.1620 C   0  0  0  0  0  0  0  0  0  0  0  0
    3.1470    3.4630   10.1086 C   0  0  0  0  0  0  0  0  0  0  0  0
    1.8016    3.8175   10.0163 C   0  0  0  0  0  0  0  0  0  0  0  0
    0.9929    4.5961    9.1183 C   0  0  0  0  0  0  0  0  0  0  0  0
   -0.2479    4.6060    9.5144 N   0  0  0  0  0  0  0  0  0  0  0  0
   -0.3355    3.8922   10.6289 N   0  0  0  0  0  0  0  0  0  0  0  0
    0.8848    3.3596   10.9956 C   0  0  0  0  0  0  0  0  0  0  0  0
    1.2708    2.5377   12.0624 C   0  0  0  0  0  0  0  0  0  0  0  0
   -0.3834   -2.6137   15.8106 C   0  0  0  0  0  0  0  0  0  0  0  0
   -1.7318   -2.8604   15.6854 C   0  0  0  0  0  0  0  0  0  0  0  0
   -6.0221   -6.2484   14.2766 H   0  0  0  0  0  0  0  0  0  0  0  0
   -7.4507   -5.7501   15.2447 H   0  0  0  0  0  0  0  0  0  0  0  0
   -7.4599   -5.5468   13.4600 H   0  0  0  0  0  0  0  0  0  0  0  0
   -6.9333   -2.3100   14.7300 H   0  0  0  0  0  0  0  0  0  0  0  0
   -6.0513   -4.1676   16.6682 H   0  0  0  0  0  0  0  0  0  0  0  0
   -4.6463   -4.8436   15.7763 H   0  0  0  0  0  0  0  0  0  0  0  0
   -5.4219   -1.9147   16.0780 H   0  0  0  0  0  0  0  0  0  0  0  0
   -4.0063   -2.7524   16.7999 H   0  0  0  0  0  0  0  0  0  0  0  0
   -5.3737   -1.5837   13.5023 H   0  0  0  0  0  0  0  0  0  0  0  0
   -3.9441   -2.2536   12.6455 H   0  0  0  0  0  0  0  0  0  0  0  0
   -4.6149   -4.5273   13.1672 H   0  0  0  0  0  0  0  0  0  0  0  0
   -6.0071   -3.6685   12.4250 H   0  0  0  0  0  0  0  0  0  0  0  0
   -2.5080   -0.5246   13.3530 H   0  0  0  0  0  0  0  0  0  0  0  0
   -0.0872   -0.0251   13.6253 H   0  0  0  0  0  0  0  0  0  0  0  0
    5.1518    1.9286   13.2442 H   0  0  0  0  0  0  0  0  0  0  0  0
    6.8387    0.8784   15.3052 H   0  0  0  0  0  0  0  0  0  0  0  0
    6.2576   -0.7714   17.3403 H   0  0  0  0  0  0  0  0  0  0  0  0
    4.3085    3.2034   11.7187 H   0  0  0  0  0  0  0  0  0  0  0  0
    4.0040    1.7537   10.7028 H   0  0  0  0  0  0  0  0  0  0  0  0
    3.8635    3.8164    9.3818 H   0  0  0  0  0  0  0  0  0  0  0  0
    1.3624    5.1019    8.2385 H   0  0  0  0  0  0  0  0  0  0  0  0
    0.5610    2.2069   12.8061 H   0  0  0  0  0  0  0  0  0  0  0  0
    0.1327   -3.5445   15.5329 H   0  0  0  0  0  0  0  0  0  0  0  0
   -0.2017   -2.3968   16.8736 H   0  0  0  0  0  0  0  0  0  0  0  0
   -2.1883   -3.6472   16.2676 H   0  0  0  0  0  0  0  0  0  0  0  0
  1  2  1  0  0  0  0
  2  3  1  0  0  0  0
  2  4  1  0  0  0  0
  2  8  1  0  0  0  0
  4  5  1  0  0  0  0
  5  6  1  0  0  0  0
  6  7  1  0  0  0  0
  6  9  1  0  0  0  0
  7  8  1  0  0  0  0
  9 10  1  0  0  0  0
  9 33  2  0  0  0  0
 10 11  2  0  0  0  0
 11 12  1  0  0  0  0
 12 13  2  0  0  0  0
 12 32  1  0  0  0  0
 13 14  1  0  0  0  0
 14 15  2  0  0  0  0
 14 22  1  0  0  0  0
 15 16  1  0  0  0  0
 16 17  2  0  0  0  0
 16 23  1  0  0  0  0
 17 18  1  0  0  0  0
 18 19  1  0  0  0  0
 18 22  1  0  0  0  0
 19 20  2  0  0  0  0
 20 21  1  0  0  0  0
 21 22  2  0  0  0  0
 23 24  1  0  0  0  0
 23 31  2  0  0  0  0
 24 25  1  0  0  0  0
 25 26  2  0  0  0  0
 26 27  1  0  0  0  0
 26 30  1  0  0  0  0
 27 28  2  0  0  0  0
 28 29  1  0  0  0  0
 29 30  2  0  0  0  0
 30 31  1  0  0  0  0
 32 33  1  0  0  0  0
  1 34  1  0  0  0  0
  1 35  1  0  0  0  0
  1 36  1  0  0  0  0
  3 37  1  0  0  0  0
  4 38  1  0  0  0  0
  4 39  1  0  0  0  0
  5 40  1  0  0  0  0
  5 41  1  0  0  0  0
  7 42  1  0  0  0  0
  7 43  1  0  0  0  0
  8 44  1  0  0  0  0
  8 45  1  0  0  0  0
 10 46  1  0  0  0  0
 11 47  1  0  0  0  0
 17 48  1  0  0  0  0
 19 49  1  0  0  0  0
 20 50  1  0  0  0  0
 24 51  1  0  0  0  0
 24 52  1  0  0  0  0
 25 53  1  0  0  0  0
 27 54  1  0  0  0  0
 31 55  1  0  0  0  0
 32 56  1  0  0  0  0
 32 57  1  0  0  0  0
 33 58  1  0  0  0  0
M  END
> <IC50[nM]>
1.4

$$$$
CHEMBL3265031
  -OEChem-05192314333D
 Structure written by MMmdl.
 58 63  0     0  0  0  0  0  0999 V2000
   -6.8350   -5.5126   14.3646 C   0  0  0  0  0  0  0  0  0  0  0  0
   -6.2469   -4.1256   14.5196 C   0  0  0  0  0  0  0  0  0  0  0  0
   -7.2986   -3.1815   14.6326 O   0  0  0  0  0  0  0  0  0  0  0  0
   -5.3943   -4.0373   15.7957 C   0  0  0  0  0  0  0  0  0  0  0  0
   -4.6708   -2.7036   15.9246 C   0  0  0  0  0  0  0  0  0  0  0  0
   -3.8604   -2.3511   14.7445 N   0  0  0  0  0  0  0  0  0  0  0  0
   -4.6320   -2.3959   13.4920 C   0  0  0  0  0  0  0  0  0  0  0  0
   -5.3661   -3.7377   13.3163 C   0  0  0  0  0  0  0  0  0  0  0  0
   -2.5090   -2.1078   14.8185 C   0  0  0  0  0  0  0  0  0  0  0  0
   -1.9132   -1.0937   14.0521 C   0  0  0  0  0  0  0  0  0  0  0  0
   -0.5452   -0.8202   14.1949 C   0  0  0  0  0  0  0  0  0  0  0  0
    0.2267   -1.5891   15.0857 C   0  0  0  0  0  0  0  0  0  0  0  0
    1.6093   -1.3706   15.3172 N   0  0  0  0  0  0  0  0  0  0  0  0
    2.5356   -0.4465   14.7610 C   0  0  0  0  0  0  0  0  0  0  0  0
    2.1744    0.3801   13.7331 N   0  0  0  0  0  0  0  0  0  0  0  0
    3.1091    1.2393   13.2182 C   0  0  0  0  0  0  0  0  0  0  0  0
    4.4162    1.2819   13.6993 C   0  0  0  0  0  0  0  0  0  0  0  0
    4.7443    0.4889   14.7568 N   0  0  0  0  0  0  0  0  0  0  0  0
    5.8980    0.3793   15.4854 C   0  0  0  0  0  0  0  0  0  0  0  0
    5.5914   -0.5292   16.5255 C   0  0  0  0  0  0  0  0  0  0  0  0
    4.3788   -1.0451   16.3697 N   0  0  0  0  0  0  0  0  0  0  0  0
    3.8374   -0.3956   15.3255 C   0  0  0  0  0  0  0  0  0  0  0  0
    2.6339    2.1607   12.1207 C   0  0  0  0  0  0  0  0  0  0  0  0
    3.5443    2.6413   11.1620 C   0  0  0  0  0  0  0  0  0  0  0  0
    3.1470    3.4630   10.1086 C   0  0  0  0  0  0  0  0  0  0  0  0
    1.8016    3.8175   10.0163 C   0  0  0  0  0  0  0  0  0  0  0  0
    0.9929    4.5961    9.1183 C   0  0  0  0  0  0  0  0  0  0  0  0
   -0.2479    4.6060    9.5144 N   0  0  0  0  0  0  0  0  0  0  0  0
   -0.3355    3.8922   10.6289 N   0  0  0  0  0  0  0  0  0  0  0  0
    0.8848    3.3596   10.9956 C   0  0  0  0  0  0  0  0  0  0  0  0
    1.2708    2.5377   12.0624 C   0  0  0  0  0  0  0  0  0  0  0  0
   -0.3834   -2.6137   15.8106 C   0  0  0  0  0  0  0  0  0  0  0  0
   -1.7318   -2.8604   15.6854 C   0  0  0  0  0  0  0  0  0  0  0  0
   -6.0221   -6.2484   14.2766 H   0  0  0  0  0  0  0  0  0  0  0  0
   -7.4507   -5.7501   15.2447 H   0  0  0  0  0  0  0  0  0  0  0  0
   -7.4599   -5.5468   13.4600 H   0  0  0  0  0  0  0  0  0  0  0  0
   -6.9333   -2.3100   14.7300 H   0  0  0  0  0  0  0  0  0  0  0  0
   -6.0513   -4.1676   16.6682 H   0  0  0  0  0  0  0  0  0  0  0  0
   -4.6463   -4.8436   15.7763 H   0  0  0  0  0  0  0  0  0  0  0  0
   -5.4219   -1.9147   16.0780 H   0  0  0  0  0  0  0  0  0  0  0  0
   -4.0063   -2.7524   16.7999 H   0  0  0  0  0  0  0  0  0  0  0  0
   -5.3737   -1.5837   13.5023 H   0  0  0  0  0  0  0  0  0  0  0  0
   -3.9441   -2.2536   12.6455 H   0  0  0  0  0  0  0  0  0  0  0  0
   -4.6149   -4.5273   13.1672 H   0  0  0  0  0  0  0  0  0  0  0  0
   -6.0071   -3.6685   12.4250 H   0  0  0  0  0  0  0  0  0  0  0  0
   -2.3266   -2.8340   14.0127 H   0  0  0  0  0  0  0  0  0  0  0  0
   -2.5080   -0.5246   13.3530 H   0  0  0  0  0  0  0  0  0  0  0  0
   -0.0872   -0.0251   13.6253 H   0  0  0  0  0  0  0  0  0  0  0  0
    5.1518    1.9286   13.2442 H   0  0  0  0  0  0  0  0  0  0  0  0
    6.8387    0.8784   15.3052 H   0  0  0  0  0  0  0  0  0  0  0  0
    6.2576   -0.7714   17.3403 H   0  0  0  0  0  0  0  0  0  0  0  0
    4.5849    2.3646   11.2449 H   0  0  0  0  0  0  0  0  0  0  0  0
    3.8635    3.8164    9.3818 H   0  0  0  0  0  0  0  0  0  0  0  0
    1.3624    5.1019    8.2385 H   0  0  0  0  0  0  0  0  0  0  0  0
    0.6734    1.6159   12.0045 H   0  0  0  0  0  0  0  0  0  0  0  0
    1.0334    3.0705   12.9950 H   0  0  0  0  0  0  0  0  0  0  0  0
    0.2099   -3.2208   16.4783 H   0  0  0  0  0  0  0  0  0  0  0  0
   -2.1883   -3.6472   16.2676 H   0  0  0  0  0  0  0  0  0  0  0  0
  1  2  1  0  0  0  0
  2  3  1  0  0  0  0
  2  4  1  0  0  0  0
  2  8  1  0  0  0  0
  4  5  1  0  0  0  0
  5  6  1  0  0  0  0
  6  7  1  0  0  0  0
  6  9  1  0  0  0  0
  7  8  1  0  0  0  0
  9 10  1  0  0  0  0
  9 33  1  0  0  0  0
 10 11  2  0  0  0  0
 11 12  1  0  0  0  0
 12 13  2  0  0  0  0
 12 32  1  0  0  0  0
 13 14  1  0  0  0  0
 14 15  2  0  0  0  0
 14 22  1  0  0  0  0
 15 16  1  0  0  0  0
 16 17  2  0  0  0  0
 16 23  1  0  0  0  0
 17 18  1  0  0  0  0
 18 19  1  0  0  0  0
 18 22  1  0  0  0  0
 19 20  2  0  0  0  0
 20 21  1  0  0  0  0
 21 22  2  0  0  0  0
 23 24  2  0  0  0  0
 23 31  1  0  0  0  0
 24 25  1  0  0  0  0
 25 26  2  0  0  0  0
 26 27  1  0  0  0  0
 26 30  1  0  0  0  0
 27 28  2  0  0  0  0
 28 29  1  0  0  0  0
 29 30  2  0  0  0  0
 30 31  1  0  0  0  0
 32 33  2  0  0  0  0
  1 34  1  0  0  0  0
  1 35  1  0  0  0  0
  1 36  1  0  0  0  0
  3 37  1  0  0  0  0
  4 38  1  0  0  0  0
  4 39  1  0  0  0  0
  5 40  1  0  0  0  0
  5 41  1  0  0  0  0
  7 42  1  0  0  0  0
  7 43  1  0  0  0  0
  8 44  1  0  0  0  0
  8 45  1  0  0  0  0
  9 46  1  0  0  0  0
 10 47  1  0  0  0  0
 11 48  1  0  0  0  0
 17 49  1  0  0  0  0
 19 50  1  0  0  0  0
 20 51  1  0  0  0  0
 24 52  1  0  0  0  0
 25 53  1  0  0  0  0
 27 54  1  0  0  0  0
 31 55  1  0  0  0  0
 31 56  1  0  0  0  0
 32 57  1  0  0  0  0
 33 58  1  0  0  0  0
M  END
> <IC50[nM]>
1.4

$$$$
CHEMBL3265031
  -OEChem-05192314333D
 Structure written by MMmdl.
 58 63  0     0  0  0  0  0  0999 V2000
   -6.8350   -5.5126   14.3646 C   0  0  0  0  0  0  0  0  0  0  0  0
   -6.2469   -4.1256   14.5196 C   0  0  0  0  0  0  0  0  0  0  0  0
   -7.2986   -3.1815   14.6326 O   0  0  0  0  0  0  0  0  0  0  0  0
   -5.3943   -4.0373   15.7957 C   0  0  0  0  0  0  0  0  0  0  0  0
   -4.6708   -2.7036   15.9246 C   0  0  0  0  0  0  0  0  0  0  0  0
   -3.8604   -2.3511   14.7445 N   0  0  0  0  0  0  0  0  0  0  0  0
   -4.6320   -2.3959   13.4920 C   0  0  0  0  0  0  0  0  0  0  0  0
   -5.3661   -3.7377   13.3163 C   0  0  0  0  0  0  0  0  0  0  0  0
   -2.5090   -2.1078   14.8185 C   0  0  0  0  0  0  0  0  0  0  0  0
   -1.9132   -1.0937   14.0521 C   0  0  0  0  0  0  0  0  0  0  0  0
   -0.5452   -0.8202   14.1949 C   0  0  0  0  0  0  0  0  0  0  0  0
    0.2267   -1.5891   15.0857 C   0  0  0  0  0  0  0  0  0  0  0  0
    1.6093   -1.3706   15.3172 N   0  0  0  0  0  0  0  0  0  0  0  0
    2.5356   -0.4465   14.7610 C   0  0  0  0  0  0  0  0  0  0  0  0
    2.1744    0.3801   13.7331 N   0  0  0  0  0  0  0  0  0  0  0  0
    3.1091    1.2393   13.2182 C   0  0  0  0  0  0  0  0  0  0  0  0
    4.4162    1.2819   13.6993 C   0  0  0  0  0  0  0  0  0  0  0  0
    4.7443    0.4889   14.7568 N   0  0  0  0  0  0  0  0  0  0  0  0
    5.8980    0.3793   15.4854 C   0  0  0  0  0  0  0  0  0  0  0  0
    5.5914   -0.5292   16.5255 C   0  0  0  0  0  0  0  0  0  0  0  0
    4.3788   -1.0451   16.3697 N   0  0  0  0  0  0  0  0  0  0  0  0
    3.8374   -0.3956   15.3255 C   0  0  0  0  0  0  0  0  0  0  0  0
    2.6339    2.1607   12.1207 C   0  0  0  0  0  0  0  0  0  0  0  0
    3.5443    2.6413   11.1620 C   0  0  0  0  0  0  0  0  0  0  0  0
    3.1470    3.4630   10.1086 C   0  0  0  0  0  0  0  0  0  0  0  0
    1.8016    3.8175   10.0163 C   0  0  0  0  0  0  0  0  0  0  0  0
    0.9929    4.5961    9.1183 C   0  0  0  0  0  0  0  0  0  0  0  0
   -0.2479    4.6060    9.5144 N   0  0  0  0  0  0  0  0  0  0  0  0
   -0.3355    3.8922   10.6289 N   0  0  0  0  0  0  0  0  0  0  0  0
    0.8848    3.3596   10.9956 C   0  0  0  0  0  0  0  0  0  0  0  0
    1.2708    2.5377   12.0624 C   0  0  0  0  0  0  0  0  0  0  0  0
   -0.3834   -2.6137   15.8106 C   0  0  0  0  0  0  0  0  0  0  0  0
   -1.7318   -2.8604   15.6854 C   0  0  0  0  0  0  0  0  0  0  0  0
   -6.0221   -6.2484   14.2766 H   0  0  0  0  0  0  0  0  0  0  0  0
   -7.4507   -5.7501   15.2447 H   0  0  0  0  0  0  0  0  0  0  0  0
   -7.4599   -5.5468   13.4600 H   0  0  0  0  0  0  0  0  0  0  0  0
   -6.9333   -2.3100   14.7300 H   0  0  0  0  0  0  0  0  0  0  0  0
   -6.0513   -4.1676   16.6682 H   0  0  0  0  0  0  0  0  0  0  0  0
   -4.6463   -4.8436   15.7763 H   0  0  0  0  0  0  0  0  0  0  0  0
   -5.4219   -1.9147   16.0780 H   0  0  0  0  0  0  0  0  0  0  0  0
   -4.0063   -2.7524   16.7999 H   0  0  0  0  0  0  0  0  0  0  0  0
   -5.3737   -1.5837   13.5023 H   0  0  0  0  0  0  0  0  0  0  0  0
   -3.9441   -2.2536   12.6455 H   0  0  0  0  0  0  0  0  0  0  0  0
   -4.6149   -4.5273   13.1672 H   0  0  0  0  0  0  0  0  0  0  0  0
   -6.0071   -3.6685   12.4250 H   0  0  0  0  0  0  0  0  0  0  0  0
   -2.5080   -0.5246   13.3530 H   0  0  0  0  0  0  0  0  0  0  0  0
   -0.0872   -0.0251   13.6253 H   0  0  0  0  0  0  0  0  0  0  0  0
    5.1518    1.9286   13.2442 H   0  0  0  0  0  0  0  0  0  0  0  0
    6.8387    0.8784   15.3052 H   0  0  0  0  0  0  0  0  0  0  0  0
    6.2576   -0.7714   17.3403 H   0  0  0  0  0  0  0  0  0  0  0  0
    4.5849    2.3646   11.2449 H   0  0  0  0  0  0  0  0  0  0  0  0
    3.8635    3.8164    9.3818 H   0  0  0  0  0  0  0  0  0  0  0  0
    1.3624    5.1019    8.2385 H   0  0  0  0  0  0  0  0  0  0  0  0
    0.6734    1.6159   12.0045 H   0  0  0  0  0  0  0  0  0  0  0  0
    1.0334    3.0705   12.9950 H   0  0  0  0  0  0  0  0  0  0  0  0
    0.1327   -3.5445   15.5329 H   0  0  0  0  0  0  0  0  0  0  0  0
   -0.2017   -2.3968   16.8736 H   0  0  0  0  0  0  0  0  0  0  0  0
   -2.1883   -3.6472   16.2676 H   0  0  0  0  0  0  0  0  0  0  0  0
  1  2  1  0  0  0  0
  2  3  1  0  0  0  0
  2  4  1  0  0  0  0
  2  8  1  0  0  0  0
  4  5  1  0  0  0  0
  5  6  1  0  0  0  0
  6  7  1  0  0  0  0
  6  9  1  0  0  0  0
  7  8  1  0  0  0  0
  9 10  1  0  0  0  0
  9 33  2  0  0  0  0
 10 11  2  0  0  0  0
 11 12  1  0  0  0  0
 12 13  2  0  0  0  0
 12 32  1  0  0  0  0
 13 14  1  0  0  0  0
 14 15  2  0  0  0  0
 14 22  1  0  0  0  0
 15 16  1  0  0  0  0
 16 17  2  0  0  0  0
 16 23  1  0  0  0  0
 17 18  1  0  0  0  0
 18 19  1  0  0  0  0
 18 22  1  0  0  0  0
 19 20  2  0  0  0  0
 20 21  1  0  0  0  0
 21 22  2  0  0  0  0
 23 24  2  0  0  0  0
 23 31  1  0  0  0  0
 24 25  1  0  0  0  0
 25 26  2  0  0  0  0
 26 27  1  0  0  0  0
 26 30  1  0  0  0  0
 27 28  2  0  0  0  0
 28 29  1  0  0  0  0
 29 30  2  0  0  0  0
 30 31  1  0  0  0  0
 32 33  1  0  0  0  0
  1 34  1  0  0  0  0
  1 35  1  0  0  0  0
  1 36  1  0  0  0  0
  3 37  1  0  0  0  0
  4 38  1  0  0  0  0
  4 39  1  0  0  0  0
  5 40  1  0  0  0  0
  5 41  1  0  0  0  0
  7 42  1  0  0  0  0
  7 43  1  0  0  0  0
  8 44  1  0  0  0  0
  8 45  1  0  0  0  0
 10 46  1  0  0  0  0
 11 47  1  0  0  0  0
 17 48  1  0  0  0  0
 19 49  1  0  0  0  0
 20 50  1  0  0  0  0
 24 51  1  0  0  0  0
 25 52  1  0  0  0  0
 27 53  1  0  0  0  0
 31 54  1  0  0  0  0
 31 55  1  0  0  0  0
 32 56  1  0  0  0  0
 32 57  1  0  0  0  0
 33 58  1  0  0  0  0
M  END
> <IC50[nM]>
1.4

$$$$
CHEMBL3265031
  -OEChem-05192314333D
 Structure written by MMmdl.
 58 63  0     1  0  0  0  0  0999 V2000
   -6.8350   -5.5126   14.3646 C   0  0  0  0  0  0  0  0  0  0  0  0
   -6.2469   -4.1256   14.5196 C   0  0  0  0  0  0  0  0  0  0  0  0
   -7.2986   -3.1815   14.6326 O   0  0  0  0  0  0  0  0  0  0  0  0
   -5.3943   -4.0373   15.7957 C   0  0  0  0  0  0  0  0  0  0  0  0
   -4.6708   -2.7036   15.9246 C   0  0  0  0  0  0  0  0  0  0  0  0
   -3.8604   -2.3511   14.7445 N   0  0  0  0  0  0  0  0  0  0  0  0
   -4.6320   -2.3959   13.4920 C   0  0  0  0  0  0  0  0  0  0  0  0
   -5.3661   -3.7377   13.3163 C   0  0  0  0  0  0  0  0  0  0  0  0
   -2.5090   -2.1078   14.8185 C   0  0  0  0  0  0  0  0  0  0  0  0
   -1.9132   -1.0937   14.0521 C   0  0  0  0  0  0  0  0  0  0  0  0
   -0.5452   -0.8202   14.1949 C   0  0  0  0  0  0  0  0  0  0  0  0
    0.2267   -1.5891   15.0857 C   0  0  0  0  0  0  0  0  0  0  0  0
    1.6093   -1.3706   15.3172 N   0  0  0  0  0  0  0  0  0  0  0  0
    2.5356   -0.4465   14.7610 C   0  0  0  0  0  0  0  0  0  0  0  0
    2.1744    0.3801   13.7331 N   0  0  0  0  0  0  0  0  0  0  0  0
    3.1091    1.2393   13.2182 C   0  0  0  0  0  0  0  0  0  0  0  0
    4.4162    1.2819   13.6993 C   0  0  0  0  0  0  0  0  0  0  0  0
    4.7443    0.4889   14.7568 N   0  0  0  0  0  0  0  0  0  0  0  0
    5.8980    0.3793   15.4854 C   0  0  0  0  0  0  0  0  0  0  0  0
    5.5914   -0.5292   16.5255 C   0  0  0  0  0  0  0  0  0  0  0  0
    4.3788   -1.0451   16.3697 N   0  0  0  0  0  0  0  0  0  0  0  0
    3.8374   -0.3956   15.3255 C   0  0  0  0  0  0  0  0  0  0  0  0
    2.6339    2.1607   12.1207 C   0  0  3  0  0  0  0  0  0  0  0  0
    3.5443    2.6413   11.1620 C   0  0  0  0  0  0  0  0  0  0  0  0
    3.1470    3.4630   10.1086 C   0  0  0  0  0  0  0  0  0  0  0  0
    1.8016    3.8175   10.0163 C   0  0  0  0  0  0  0  0  0  0  0  0
    0.9929    4.5961    9.1183 C   0  0  0  0  0  0  0  0  0  0  0  0
   -0.2479    4.6060    9.5144 N   0  0  0  0  0  0  0  0  0  0  0  0
   -0.3355    3.8922   10.6289 N   0  0  0  0  0  0  0  0  0  0  0  0
    0.8848    3.3596   10.9956 C   0  0  0  0  0  0  0  0  0  0  0  0
    1.2708    2.5377   12.0624 C   0  0  0  0  0  0  0  0  0  0  0  0
   -0.3834   -2.6137   15.8106 C   0  0  0  0  0  0  0  0  0  0  0  0
   -1.7318   -2.8604   15.6854 C   0  0  0  0  0  0  0  0  0  0  0  0
   -6.0221   -6.2484   14.2766 H   0  0  0  0  0  0  0  0  0  0  0  0
   -7.4507   -5.7501   15.2447 H   0  0  0  0  0  0  0  0  0  0  0  0
   -7.4599   -5.5468   13.4600 H   0  0  0  0  0  0  0  0  0  0  0  0
   -6.9333   -2.3100   14.7300 H   0  0  0  0  0  0  0  0  0  0  0  0
   -6.0513   -4.1676   16.6682 H   0  0  0  0  0  0  0  0  0  0  0  0
   -4.6463   -4.8436   15.7763 H   0  0  0  0  0  0  0  0  0  0  0  0
   -5.4219   -1.9147   16.0780 H   0  0  0  0  0  0  0  0  0  0  0  0
   -4.0063   -2.7524   16.7999 H   0  0  0  0  0  0  0  0  0  0  0  0
   -5.3737   -1.5837   13.5023 H   0  0  0  0  0  0  0  0  0  0  0  0
   -3.9441   -2.2536   12.6455 H   0  0  0  0  0  0  0  0  0  0  0  0
   -4.6149   -4.5273   13.1672 H   0  0  0  0  0  0  0  0  0  0  0  0
   -6.0071   -3.6685   12.4250 H   0  0  0  0  0  0  0  0  0  0  0  0
   -2.3266   -2.8340   14.0127 H   0  0  0  0  0  0  0  0  0  0  0  0
   -2.5080   -0.5246   13.3530 H   0  0  0  0  0  0  0  0  0  0  0  0
   -0.0872   -0.0251   13.6253 H   0  0  0  0  0  0  0  0  0  0  0  0
    5.1518    1.9286   13.2442 H   0  0  0  0  0  0  0  0  0  0  0  0
    6.8387    0.8784   15.3052 H   0  0  0  0  0  0  0  0  0  0  0  0
    6.2576   -0.7714   17.3403 H   0  0  0  0  0  0  0  0  0  0  0  0
    2.4207    1.2906   11.4823 H   0  0  0  0  0  0  0  0  0  0  0  0
    4.5849    2.3646   11.2449 H   0  0  0  0  0  0  0  0  0  0  0  0
    3.8635    3.8164    9.3818 H   0  0  0  0  0  0  0  0  0  0  0  0
    1.3624    5.1019    8.2385 H   0  0  0  0  0  0  0  0  0  0  0  0
    0.5610    2.2069   12.8061 H   0  0  0  0  0  0  0  0  0  0  0  0
    0.2099   -3.2208   16.4783 H   0  0  0  0  0  0  0  0  0  0  0  0
   -2.1883   -3.6472   16.2676 H   0  0  0  0  0  0  0  0  0  0  0  0
  1  2  1  0  0  0  0
  2  3  1  0  0  0  0
  2  4  1  0  0  0  0
  2  8  1  0  0  0  0
  4  5  1  0  0  0  0
  5  6  1  0  0  0  0
  6  7  1  0  0  0  0
  6  9  1  0  0  0  0
  7  8  1  0  0  0  0
  9 10  1  0  0  0  0
  9 33  1  0  0  0  0
 10 11  2  0  0  0  0
 11 12  1  0  0  0  0
 12 13  2  0  0  0  0
 12 32  1  0  0  0  0
 13 14  1  0  0  0  0
 14 15  2  0  0  0  0
 14 22  1  0  0  0  0
 15 16  1  0  0  0  0
 16 17  2  0  0  0  0
 16 23  1  0  0  0  0
 17 18  1  0  0  0  0
 18 19  1  0  0  0  0
 18 22  1  0  0  0  0
 19 20  2  0  0  0  0
 20 21  1  0  0  0  0
 21 22  2  0  0  0  0
 23 24  1  0  0  0  0
 23 31  1  0  0  0  0
 24 25  2  0  0  0  0
 25 26  1  0  0  0  0
 26 27  2  0  0  0  0
 26 30  1  0  0  0  0
 27 28  1  0  0  0  0
 28 29  2  0  0  0  0
 29 30  1  0  0  0  0
 30 31  2  0  0  0  0
 32 33  2  0  0  0  0
  1 34  1  0  0  0  0
  1 35  1  0  0  0  0
  1 36  1  0  0  0  0
  3 37  1  0  0  0  0
  4 38  1  0  0  0  0
  4 39  1  0  0  0  0
  5 40  1  0  0  0  0
  5 41  1  0  0  0  0
  7 42  1  0  0  0  0
  7 43  1  0  0  0  0
  8 44  1  0  0  0  0
  8 45  1  0  0  0  0
  9 46  1  0  0  0  0
 10 47  1  0  0  0  0
 11 48  1  0  0  0  0
 17 49  1  0  0  0  0
 19 50  1  0  0  0  0
 20 51  1  0  0  0  0
 23 52  1  0  0  0  0
 24 53  1  0  0  0  0
 25 54  1  0  0  0  0
 27 55  1  0  0  0  0
 31 56  1  0  0  0  0
 32 57  1  0  0  0  0
 33 58  1  0  0  0  0
M  END
> <IC50[nM]>
1.4

$$$$
CHEMBL3265031
  -OEChem-05192314333D
 Structure written by MMmdl.
 58 63  0     1  0  0  0  0  0999 V2000
   -6.8350   -5.5126   14.3646 C   0  0  0  0  0  0  0  0  0  0  0  0
   -6.2469   -4.1256   14.5196 C   0  0  0  0  0  0  0  0  0  0  0  0
   -7.2986   -3.1815   14.6326 O   0  0  0  0  0  0  0  0  0  0  0  0
   -5.3943   -4.0373   15.7957 C   0  0  0  0  0  0  0  0  0  0  0  0
   -4.6708   -2.7036   15.9246 C   0  0  0  0  0  0  0  0  0  0  0  0
   -3.8604   -2.3511   14.7445 N   0  0  0  0  0  0  0  0  0  0  0  0
   -4.6320   -2.3959   13.4920 C   0  0  0  0  0  0  0  0  0  0  0  0
   -5.3661   -3.7377   13.3163 C   0  0  0  0  0  0  0  0  0  0  0  0
   -2.5090   -2.1078   14.8185 C   0  0  0  0  0  0  0  0  0  0  0  0
   -1.9132   -1.0937   14.0521 C   0  0  0  0  0  0  0  0  0  0  0  0
   -0.5452   -0.8202   14.1949 C   0  0  0  0  0  0  0  0  0  0  0  0
    0.2267   -1.5891   15.0857 C   0  0  0  0  0  0  0  0  0  0  0  0
    1.6093   -1.3706   15.3172 N   0  0  0  0  0  0  0  0  0  0  0  0
    2.5356   -0.4465   14.7610 C   0  0  0  0  0  0  0  0  0  0  0  0
    2.1744    0.3801   13.7331 N   0  0  0  0  0  0  0  0  0  0  0  0
    3.1091    1.2393   13.2182 C   0  0  0  0  0  0  0  0  0  0  0  0
    4.4162    1.2819   13.6993 C   0  0  0  0  0  0  0  0  0  0  0  0
    4.7443    0.4889   14.7568 N   0  0  0  0  0  0  0  0  0  0  0  0
    5.8980    0.3793   15.4854 C   0  0  0  0  0  0  0  0  0  0  0  0
    5.5914   -0.5292   16.5255 C   0  0  0  0  0  0  0  0  0  0  0  0
    4.3788   -1.0451   16.3697 N   0  0  0  0  0  0  0  0  0  0  0  0
    3.8374   -0.3956   15.3255 C   0  0  0  0  0  0  0  0  0  0  0  0
    2.6339    2.1607   12.1207 C   0  0  0  0  0  0  0  0  0  0  0  0
    3.5443    2.6413   11.1620 C   0  0  0  0  0  0  0  0  0  0  0  0
    3.1470    3.4630   10.1086 C   0  0  0  0  0  0  0  0  0  0  0  0
    1.8016    3.8175   10.0163 C   0  0  0  0  0  0  0  0  0  0  0  0
    0.9929    4.5961    9.1183 C   0  0  0  0  0  0  0  0  0  0  0  0
   -0.2479    4.6060    9.5144 N   0  0  0  0  0  0  0  0  0  0  0  0
   -0.3355    3.8922   10.6289 N   0  0  0  0  0  0  0  0  0  0  0  0
    0.8848    3.3596   10.9956 C   0  0  3  0  0  0  0  0  0  0  0  0
    1.2708    2.5377   12.0624 C   0  0  0  0  0  0  0  0  0  0  0  0
   -0.3834   -2.6137   15.8106 C   0  0  0  0  0  0  0  0  0  0  0  0
   -1.7318   -2.8604   15.6854 C   0  0  0  0  0  0  0  0  0  0  0  0
   -6.0221   -6.2484   14.2766 H   0  0  0  0  0  0  0  0  0  0  0  0
   -7.4507   -5.7501   15.2447 H   0  0  0  0  0  0  0  0  0  0  0  0
   -7.4599   -5.5468   13.4600 H   0  0  0  0  0  0  0  0  0  0  0  0
   -6.9333   -2.3100   14.7300 H   0  0  0  0  0  0  0  0  0  0  0  0
   -6.0513   -4.1676   16.6682 H   0  0  0  0  0  0  0  0  0  0  0  0
   -4.6463   -4.8436   15.7763 H   0  0  0  0  0  0  0  0  0  0  0  0
   -5.4219   -1.9147   16.0780 H   0  0  0  0  0  0  0  0  0  0  0  0
   -4.0063   -2.7524   16.7999 H   0  0  0  0  0  0  0  0  0  0  0  0
   -5.3737   -1.5837   13.5023 H   0  0  0  0  0  0  0  0  0  0  0  0
   -3.9441   -2.2536   12.6455 H   0  0  0  0  0  0  0  0  0  0  0  0
   -4.6149   -4.5273   13.1672 H   0  0  0  0  0  0  0  0  0  0  0  0
   -6.0071   -3.6685   12.4250 H   0  0  0  0  0  0  0  0  0  0  0  0
   -2.3266   -2.8340   14.0127 H   0  0  0  0  0  0  0  0  0  0  0  0
   -2.5080   -0.5246   13.3530 H   0  0  0  0  0  0  0  0  0  0  0  0
   -0.0872   -0.0251   13.6253 H   0  0  0  0  0  0  0  0  0  0  0  0
    5.1518    1.9286   13.2442 H   0  0  0  0  0  0  0  0  0  0  0  0
    6.8387    0.8784   15.3052 H   0  0  0  0  0  0  0  0  0  0  0  0
    6.2576   -0.7714   17.3403 H   0  0  0  0  0  0  0  0  0  0  0  0
    4.5849    2.3646   11.2449 H   0  0  0  0  0  0  0  0  0  0  0  0
    3.8635    3.8164    9.3818 H   0  0  0  0  0  0  0  0  0  0  0  0
    1.3624    5.1019    8.2385 H   0  0  0  0  0  0  0  0  0  0  0  0
    1.0911    4.2508   11.6065 H   0  0  0  0  0  0  0  0  0  0  0  0
    0.5610    2.2069   12.8061 H   0  0  0  0  0  0  0  0  0  0  0  0
    0.2099   -3.2208   16.4783 H   0  0  0  0  0  0  0  0  0  0  0  0
   -2.1883   -3.6472   16.2676 H   0  0  0  0  0  0  0  0  0  0  0  0
  1  2  1  0  0  0  0
  2  3  1  0  0  0  0
  2  4  1  0  0  0  0
  2  8  1  0  0  0  0
  4  5  1  0  0  0  0
  5  6  1  0  0  0  0
  6  7  1  0  0  0  0
  6  9  1  0  0  0  0
  7  8  1  0  0  0  0
  9 10  1  0  0  0  0
  9 33  1  0  0  0  0
 10 11  2  0  0  0  0
 11 12  1  0  0  0  0
 12 13  2  0  0  0  0
 12 32  1  0  0  0  0
 13 14  1  0  0  0  0
 14 15  2  0  0  0  0
 14 22  1  0  0  0  0
 15 16  1  0  0  0  0
 16 17  2  0  0  0  0
 16 23  1  0  0  0  0
 17 18  1  0  0  0  0
 18 19  1  0  0  0  0
 18 22  1  0  0  0  0
 19 20  2  0  0  0  0
 20 21  1  0  0  0  0
 21 22  2  0  0  0  0
 23 24  1  0  0  0  0
 23 31  2  0  0  0  0
 24 25  2  0  0  0  0
 25 26  1  0  0  0  0
 26 27  2  0  0  0  0
 26 30  1  0  0  0  0
 27 28  1  0  0  0  0
 28 29  2  0  0  0  0
 29 30  1  0  0  0  0
 30 31  1  0  0  0  0
 32 33  2  0  0  0  0
  1 34  1  0  0  0  0
  1 35  1  0  0  0  0
  1 36  1  0  0  0  0
  3 37  1  0  0  0  0
  4 38  1  0  0  0  0
  4 39  1  0  0  0  0
  5 40  1  0  0  0  0
  5 41  1  0  0  0  0
  7 42  1  0  0  0  0
  7 43  1  0  0  0  0
  8 44  1  0  0  0  0
  8 45  1  0  0  0  0
  9 46  1  0  0  0  0
 10 47  1  0  0  0  0
 11 48  1  0  0  0  0
 17 49  1  0  0  0  0
 19 50  1  0  0  0  0
 20 51  1  0  0  0  0
 24 52  1  0  0  0  0
 25 53  1  0  0  0  0
 27 54  1  0  0  0  0
 30 55  1  0  0  0  0
 31 56  1  0  0  0  0
 32 57  1  0  0  0  0
 33 58  1  0  0  0  0
M  END
> <IC50[nM]>
1.4

$$$$
CHEMBL3265031
  -OEChem-05192314333D
 Structure written by MMmdl.
 58 63  0     1  0  0  0  0  0999 V2000
   -6.8350   -5.5126   14.3646 C   0  0  0  0  0  0  0  0  0  0  0  0
   -6.2469   -4.1256   14.5196 C   0  0  0  0  0  0  0  0  0  0  0  0
   -7.2986   -3.1815   14.6326 O   0  0  0  0  0  0  0  0  0  0  0  0
   -5.3943   -4.0373   15.7957 C   0  0  0  0  0  0  0  0  0  0  0  0
   -4.6708   -2.7036   15.9246 C   0  0  0  0  0  0  0  0  0  0  0  0
   -3.8604   -2.3511   14.7445 N   0  0  0  0  0  0  0  0  0  0  0  0
   -4.6320   -2.3959   13.4920 C   0  0  0  0  0  0  0  0  0  0  0  0
   -5.3661   -3.7377   13.3163 C   0  0  0  0  0  0  0  0  0  0  0  0
   -2.5090   -2.1078   14.8185 C   0  0  0  0  0  0  0  0  0  0  0  0
   -1.9132   -1.0937   14.0521 C   0  0  0  0  0  0  0  0  0  0  0  0
   -0.5452   -0.8202   14.1949 C   0  0  0  0  0  0  0  0  0  0  0  0
    0.2267   -1.5891   15.0857 C   0  0  0  0  0  0  0  0  0  0  0  0
    1.6093   -1.3706   15.3172 N   0  0  0  0  0  0  0  0  0  0  0  0
    2.5356   -0.4465   14.7610 C   0  0  0  0  0  0  0  0  0  0  0  0
    2.1744    0.3801   13.7331 N   0  0  0  0  0  0  0  0  0  0  0  0
    3.1091    1.2393   13.2182 C   0  0  0  0  0  0  0  0  0  0  0  0
    4.4162    1.2819   13.6993 C   0  0  0  0  0  0  0  0  0  0  0  0
    4.7443    0.4889   14.7568 N   0  0  0  0  0  0  0  0  0  0  0  0
    5.8980    0.3793   15.4854 C   0  0  0  0  0  0  0  0  0  0  0  0
    5.5914   -0.5292   16.5255 C   0  0  0  0  0  0  0  0  0  0  0  0
    4.3788   -1.0451   16.3697 N   0  0  0  0  0  0  0  0  0  0  0  0
    3.8374   -0.3956   15.3255 C   0  0  0  0  0  0  0  0  0  0  0  0
    2.6339    2.1607   12.1207 C   0  0  3  0  0  0  0  0  0  0  0  0
    3.5443    2.6413   11.1620 C   0  0  0  0  0  0  0  0  0  0  0  0
    3.1470    3.4630   10.1086 C   0  0  0  0  0  0  0  0  0  0  0  0
    1.8016    3.8175   10.0163 C   0  0  0  0  0  0  0  0  0  0  0  0
    0.9929    4.5961    9.1183 C   0  0  0  0  0  0  0  0  0  0  0  0
   -0.2479    4.6060    9.5144 N   0  0  0  0  0  0  0  0  0  0  0  0
   -0.3355    3.8922   10.6289 N   0  0  0  0  0  0  0  0  0  0  0  0
    0.8848    3.3596   10.9956 C   0  0  0  0  0  0  0  0  0  0  0  0
    1.2708    2.5377   12.0624 C   0  0  0  0  0  0  0  0  0  0  0  0
   -0.3834   -2.6137   15.8106 C   0  0  0  0  0  0  0  0  0  0  0  0
   -1.7318   -2.8604   15.6854 C   0  0  0  0  0  0  0  0  0  0  0  0
   -6.0221   -6.2484   14.2766 H   0  0  0  0  0  0  0  0  0  0  0  0
   -7.4507   -5.7501   15.2447 H   0  0  0  0  0  0  0  0  0  0  0  0
   -7.4599   -5.5468   13.4600 H   0  0  0  0  0  0  0  0  0  0  0  0
   -6.9333   -2.3100   14.7300 H   0  0  0  0  0  0  0  0  0  0  0  0
   -6.0513   -4.1676   16.6682 H   0  0  0  0  0  0  0  0  0  0  0  0
   -4.6463   -4.8436   15.7763 H   0  0  0  0  0  0  0  0  0  0  0  0
   -5.4219   -1.9147   16.0780 H   0  0  0  0  0  0  0  0  0  0  0  0
   -4.0063   -2.7524   16.7999 H   0  0  0  0  0  0  0  0  0  0  0  0
   -5.3737   -1.5837   13.5023 H   0  0  0  0  0  0  0  0  0  0  0  0
   -3.9441   -2.2536   12.6455 H   0  0  0  0  0  0  0  0  0  0  0  0
   -4.6149   -4.5273   13.1672 H   0  0  0  0  0  0  0  0  0  0  0  0
   -6.0071   -3.6685   12.4250 H   0  0  0  0  0  0  0  0  0  0  0  0
   -2.5080   -0.5246   13.3530 H   0  0  0  0  0  0  0  0  0  0  0  0
   -0.0872   -0.0251   13.6253 H   0  0  0  0  0  0  0  0  0  0  0  0
    5.1518    1.9286   13.2442 H   0  0  0  0  0  0  0  0  0  0  0  0
    6.8387    0.8784   15.3052 H   0  0  0  0  0  0  0  0  0  0  0  0
    6.2576   -0.7714   17.3403 H   0  0  0  0  0  0  0  0  0  0  0  0
    2.4207    1.2906   11.4823 H   0  0  0  0  0  0  0  0  0  0  0  0
    4.5849    2.3646   11.2449 H   0  0  0  0  0  0  0  0  0  0  0  0
    3.8635    3.8164    9.3818 H   0  0  0  0  0  0  0  0  0  0  0  0
    1.3624    5.1019    8.2385 H   0  0  0  0  0  0  0  0  0  0  0  0
    0.5610    2.2069   12.8061 H   0  0  0  0  0  0  0  0  0  0  0  0
    0.1327   -3.5445   15.5329 H   0  0  0  0  0  0  0  0  0  0  0  0
   -0.2017   -2.3968   16.8736 H   0  0  0  0  0  0  0  0  0  0  0  0
   -2.1883   -3.6472   16.2676 H   0  0  0  0  0  0  0  0  0  0  0  0
  1  2  1  0  0  0  0
  2  3  1  0  0  0  0
  2  4  1  0  0  0  0
  2  8  1  0  0  0  0
  4  5  1  0  0  0  0
  5  6  1  0  0  0  0
  6  7  1  0  0  0  0
  6  9  1  0  0  0  0
  7  8  1  0  0  0  0
  9 10  1  0  0  0  0
  9 33  2  0  0  0  0
 10 11  2  0  0  0  0
 11 12  1  0  0  0  0
 12 13  2  0  0  0  0
 12 32  1  0  0  0  0
 13 14  1  0  0  0  0
 14 15  2  0  0  0  0
 14 22  1  0  0  0  0
 15 16  1  0  0  0  0
 16 17  2  0  0  0  0
 16 23  1  0  0  0  0
 17 18  1  0  0  0  0
 18 19  1  0  0  0  0
 18 22  1  0  0  0  0
 19 20  2  0  0  0  0
 20 21  1  0  0  0  0
 21 22  2  0  0  0  0
 23 24  1  0  0  0  0
 23 31  1  0  0  0  0
 24 25  2  0  0  0  0
 25 26  1  0  0  0  0
 26 27  2  0  0  0  0
 26 30  1  0  0  0  0
 27 28  1  0  0  0  0
 28 29  2  0  0  0  0
 29 30  1  0  0  0  0
 30 31  2  0  0  0  0
 32 33  1  0  0  0  0
  1 34  1  0  0  0  0
  1 35  1  0  0  0  0
  1 36  1  0  0  0  0
  3 37  1  0  0  0  0
  4 38  1  0  0  0  0
  4 39  1  0  0  0  0
  5 40  1  0  0  0  0
  5 41  1  0  0  0  0
  7 42  1  0  0  0  0
  7 43  1  0  0  0  0
  8 44  1  0  0  0  0
  8 45  1  0  0  0  0
 10 46  1  0  0  0  0
 11 47  1  0  0  0  0
 17 48  1  0  0  0  0
 19 49  1  0  0  0  0
 20 50  1  0  0  0  0
 23 51  1  0  0  0  0
 24 52  1  0  0  0  0
 25 53  1  0  0  0  0
 27 54  1  0  0  0  0
 31 55  1  0  0  0  0
 32 56  1  0  0  0  0
 32 57  1  0  0  0  0
 33 58  1  0  0  0  0
M  END
> <IC50[nM]>
1.4

$$$$
CHEMBL3265031
  -OEChem-05192314333D
 Structure written by MMmdl.
 58 63  0     1  0  0  0  0  0999 V2000
   -6.8350   -5.5126   14.3646 C   0  0  0  0  0  0  0  0  0  0  0  0
   -6.2469   -4.1256   14.5196 C   0  0  0  0  0  0  0  0  0  0  0  0
   -7.2986   -3.1815   14.6326 O   0  0  0  0  0  0  0  0  0  0  0  0
   -5.3943   -4.0373   15.7957 C   0  0  0  0  0  0  0  0  0  0  0  0
   -4.6708   -2.7036   15.9246 C   0  0  0  0  0  0  0  0  0  0  0  0
   -3.8604   -2.3511   14.7445 N   0  0  0  0  0  0  0  0  0  0  0  0
   -4.6320   -2.3959   13.4920 C   0  0  0  0  0  0  0  0  0  0  0  0
   -5.3661   -3.7377   13.3163 C   0  0  0  0  0  0  0  0  0  0  0  0
   -2.5090   -2.1078   14.8185 C   0  0  0  0  0  0  0  0  0  0  0  0
   -1.9132   -1.0937   14.0521 C   0  0  0  0  0  0  0  0  0  0  0  0
   -0.5452   -0.8202   14.1949 C   0  0  0  0  0  0  0  0  0  0  0  0
    0.2267   -1.5891   15.0857 C   0  0  0  0  0  0  0  0  0  0  0  0
    1.6093   -1.3706   15.3172 N   0  0  0  0  0  0  0  0  0  0  0  0
    2.5356   -0.4465   14.7610 C   0  0  0  0  0  0  0  0  0  0  0  0
    2.1744    0.3801   13.7331 N   0  0  0  0  0  0  0  0  0  0  0  0
    3.1091    1.2393   13.2182 C   0  0  0  0  0  0  0  0  0  0  0  0
    4.4162    1.2819   13.6993 C   0  0  0  0  0  0  0  0  0  0  0  0
    4.7443    0.4889   14.7568 N   0  0  0  0  0  0  0  0  0  0  0  0
    5.8980    0.3793   15.4854 C   0  0  0  0  0  0  0  0  0  0  0  0
    5.5914   -0.5292   16.5255 C   0  0  0  0  0  0  0  0  0  0  0  0
    4.3788   -1.0451   16.3697 N   0  0  0  0  0  0  0  0  0  0  0  0
    3.8374   -0.3956   15.3255 C   0  0  0  0  0  0  0  0  0  0  0  0
    2.6339    2.1607   12.1207 C   0  0  0  0  0  0  0  0  0  0  0  0
    3.5443    2.6413   11.1620 C   0  0  0  0  0  0  0  0  0  0  0  0
    3.1470    3.4630   10.1086 C   0  0  0  0  0  0  0  0  0  0  0  0
    1.8016    3.8175   10.0163 C   0  0  0  0  0  0  0  0  0  0  0  0
    0.9929    4.5961    9.1183 C   0  0  0  0  0  0  0  0  0  0  0  0
   -0.2479    4.6060    9.5144 N   0  0  0  0  0  0  0  0  0  0  0  0
   -0.3355    3.8922   10.6289 N   0  0  0  0  0  0  0  0  0  0  0  0
    0.8848    3.3596   10.9956 C   0  0  3  0  0  0  0  0  0  0  0  0
    1.2708    2.5377   12.0624 C   0  0  0  0  0  0  0  0  0  0  0  0
   -0.3834   -2.6137   15.8106 C   0  0  0  0  0  0  0  0  0  0  0  0
   -1.7318   -2.8604   15.6854 C   0  0  0  0  0  0  0  0  0  0  0  0
   -6.0221   -6.2484   14.2766 H   0  0  0  0  0  0  0  0  0  0  0  0
   -7.4507   -5.7501   15.2447 H   0  0  0  0  0  0  0  0  0  0  0  0
   -7.4599   -5.5468   13.4600 H   0  0  0  0  0  0  0  0  0  0  0  0
   -6.9333   -2.3100   14.7300 H   0  0  0  0  0  0  0  0  0  0  0  0
   -6.0513   -4.1676   16.6682 H   0  0  0  0  0  0  0  0  0  0  0  0
   -4.6463   -4.8436   15.7763 H   0  0  0  0  0  0  0  0  0  0  0  0
   -5.4219   -1.9147   16.0780 H   0  0  0  0  0  0  0  0  0  0  0  0
   -4.0063   -2.7524   16.7999 H   0  0  0  0  0  0  0  0  0  0  0  0
   -5.3737   -1.5837   13.5023 H   0  0  0  0  0  0  0  0  0  0  0  0
   -3.9441   -2.2536   12.6455 H   0  0  0  0  0  0  0  0  0  0  0  0
   -4.6149   -4.5273   13.1672 H   0  0  0  0  0  0  0  0  0  0  0  0
   -6.0071   -3.6685   12.4250 H   0  0  0  0  0  0  0  0  0  0  0  0
   -2.5080   -0.5246   13.3530 H   0  0  0  0  0  0  0  0  0  0  0  0
   -0.0872   -0.0251   13.6253 H   0  0  0  0  0  0  0  0  0  0  0  0
    5.1518    1.9286   13.2442 H   0  0  0  0  0  0  0  0  0  0  0  0
    6.8387    0.8784   15.3052 H   0  0  0  0  0  0  0  0  0  0  0  0
    6.2576   -0.7714   17.3403 H   0  0  0  0  0  0  0  0  0  0  0  0
    4.5849    2.3646   11.2449 H   0  0  0  0  0  0  0  0  0  0  0  0
    3.8635    3.8164    9.3818 H   0  0  0  0  0  0  0  0  0  0  0  0
    1.3624    5.1019    8.2385 H   0  0  0  0  0  0  0  0  0  0  0  0
    1.0911    4.2508   11.6065 H   0  0  0  0  0  0  0  0  0  0  0  0
    0.5610    2.2069   12.8061 H   0  0  0  0  0  0  0  0  0  0  0  0
    0.1327   -3.5445   15.5329 H   0  0  0  0  0  0  0  0  0  0  0  0
   -0.2017   -2.3968   16.8736 H   0  0  0  0  0  0  0  0  0  0  0  0
   -2.1883   -3.6472   16.2676 H   0  0  0  0  0  0  0  0  0  0  0  0
  1  2  1  0  0  0  0
  2  3  1  0  0  0  0
  2  4  1  0  0  0  0
  2  8  1  0  0  0  0
  4  5  1  0  0  0  0
  5  6  1  0  0  0  0
  6  7  1  0  0  0  0
  6  9  1  0  0  0  0
  7  8  1  0  0  0  0
  9 10  1  0  0  0  0
  9 33  2  0  0  0  0
 10 11  2  0  0  0  0
 11 12  1  0  0  0  0
 12 13  2  0  0  0  0
 12 32  1  0  0  0  0
 13 14  1  0  0  0  0
 14 15  2  0  0  0  0
 14 22  1  0  0  0  0
 15 16  1  0  0  0  0
 16 17  2  0  0  0  0
 16 23  1  0  0  0  0
 17 18  1  0  0  0  0
 18 19  1  0  0  0  0
 18 22  1  0  0  0  0
 19 20  2  0  0  0  0
 20 21  1  0  0  0  0
 21 22  2  0  0  0  0
 23 24  1  0  0  0  0
 23 31  2  0  0  0  0
 24 25  2  0  0  0  0
 25 26  1  0  0  0  0
 26 27  2  0  0  0  0
 26 30  1  0  0  0  0
 27 28  1  0  0  0  0
 28 29  2  0  0  0  0
 29 30  1  0  0  0  0
 30 31  1  0  0  0  0
 32 33  1  0  0  0  0
  1 34  1  0  0  0  0
  1 35  1  0  0  0  0
  1 36  1  0  0  0  0
  3 37  1  0  0  0  0
  4 38  1  0  0  0  0
  4 39  1  0  0  0  0
  5 40  1  0  0  0  0
  5 41  1  0  0  0  0
  7 42  1  0  0  0  0
  7 43  1  0  0  0  0
  8 44  1  0  0  0  0
  8 45  1  0  0  0  0
 10 46  1  0  0  0  0
 11 47  1  0  0  0  0
 17 48  1  0  0  0  0
 19 49  1  0  0  0  0
 20 50  1  0  0  0  0
 24 51  1  0  0  0  0
 25 52  1  0  0  0  0
 27 53  1  0  0  0  0
 30 54  1  0  0  0  0
 31 55  1  0  0  0  0
 32 56  1  0  0  0  0
 32 57  1  0  0  0  0
 33 58  1  0  0  0  0
M  END
> <IC50[nM]>
1.4

$$$$
CHEMBL3265031
  -OEChem-05192314333D
 Structure written by MMmdl.
 58 63  0     0  0  0  0  0  0999 V2000
   -6.8350   -5.5126   14.3646 C   0  0  0  0  0  0  0  0  0  0  0  0
   -6.2469   -4.1256   14.5196 C   0  0  0  0  0  0  0  0  0  0  0  0
   -7.2986   -3.1815   14.6326 O   0  0  0  0  0  0  0  0  0  0  0  0
   -5.3943   -4.0373   15.7957 C   0  0  0  0  0  0  0  0  0  0  0  0
   -4.6708   -2.7036   15.9246 C   0  0  0  0  0  0  0  0  0  0  0  0
   -3.8604   -2.3511   14.7445 N   0  0  0  0  0  0  0  0  0  0  0  0
   -4.6320   -2.3959   13.4920 C   0  0  0  0  0  0  0  0  0  0  0  0
   -5.3661   -3.7377   13.3163 C   0  0  0  0  0  0  0  0  0  0  0  0
   -2.5090   -2.1078   14.8185 C   0  0  0  0  0  0  0  0  0  0  0  0
   -1.9132   -1.0937   14.0521 C   0  0  0  0  0  0  0  0  0  0  0  0
   -0.5452   -0.8202   14.1949 C   0  0  0  0  0  0  0  0  0  0  0  0
    0.2267   -1.5891   15.0857 C   0  0  0  0  0  0  0  0  0  0  0  0
    1.6093   -1.3706   15.3172 N   0  0  0  0  0  0  0  0  0  0  0  0
    2.5356   -0.4465   14.7610 C   0  0  0  0  0  0  0  0  0  0  0  0
    2.1744    0.3801   13.7331 N   0  0  0  0  0  0  0  0  0  0  0  0
    3.1091    1.2393   13.2182 C   0  0  0  0  0  0  0  0  0  0  0  0
    4.4162    1.2819   13.6993 C   0  0  0  0  0  0  0  0  0  0  0  0
    4.7443    0.4889   14.7568 N   0  0  0  0  0  0  0  0  0  0  0  0
    5.8980    0.3793   15.4854 C   0  0  0  0  0  0  0  0  0  0  0  0
    5.5914   -0.5292   16.5255 C   0  0  0  0  0  0  0  0  0  0  0  0
    4.3788   -1.0451   16.3697 N   0  0  0  0  0  0  0  0  0  0  0  0
    3.8374   -0.3956   15.3255 C   0  0  0  0  0  0  0  0  0  0  0  0
    2.6339    2.1607   12.1207 C   0  0  0  0  0  0  0  0  0  0  0  0
    3.5443    2.6413   11.1620 C   0  0  0  0  0  0  0  0  0  0  0  0
    3.1470    3.4630   10.1086 C   0  0  0  0  0  0  0  0  0  0  0  0
    1.8016    3.8175   10.0163 C   0  0  0  0  0  0  0  0  0  0  0  0
    0.9929    4.5961    9.1183 C   0  0  0  0  0  0  0  0  0  0  0  0
   -0.2479    4.6060    9.5144 N   0  0  0  0  0  0  0  0  0  0  0  0
   -0.3355    3.8922   10.6289 N   0  0  0  0  0  0  0  0  0  0  0  0
    0.8848    3.3596   10.9956 C   0  0  0  0  0  0  0  0  0  0  0  0
    1.2708    2.5377   12.0624 C   0  0  0  0  0  0  0  0  0  0  0  0
   -0.3834   -2.6137   15.8106 C   0  0  0  0  0  0  0  0  0  0  0  0
   -1.7318   -2.8604   15.6854 C   0  0  0  0  0  0  0  0  0  0  0  0
   -6.0221   -6.2484   14.2766 H   0  0  0  0  0  0  0  0  0  0  0  0
   -7.4507   -5.7501   15.2447 H   0  0  0  0  0  0  0  0  0  0  0  0
   -7.4599   -5.5468   13.4600 H   0  0  0  0  0  0  0  0  0  0  0  0
   -6.9333   -2.3100   14.7300 H   0  0  0  0  0  0  0  0  0  0  0  0
   -6.0513   -4.1676   16.6682 H   0  0  0  0  0  0  0  0  0  0  0  0
   -4.6463   -4.8436   15.7763 H   0  0  0  0  0  0  0  0  0  0  0  0
   -5.4219   -1.9147   16.0780 H   0  0  0  0  0  0  0  0  0  0  0  0
   -4.0063   -2.7524   16.7999 H   0  0  0  0  0  0  0  0  0  0  0  0
   -5.3737   -1.5837   13.5023 H   0  0  0  0  0  0  0  0  0  0  0  0
   -3.9441   -2.2536   12.6455 H   0  0  0  0  0  0  0  0  0  0  0  0
   -4.6149   -4.5273   13.1672 H   0  0  0  0  0  0  0  0  0  0  0  0
   -6.0071   -3.6685   12.4250 H   0  0  0  0  0  0  0  0  0  0  0  0
   -2.3266   -2.8340   14.0127 H   0  0  0  0  0  0  0  0  0  0  0  0
   -2.5080   -0.5246   13.3530 H   0  0  0  0  0  0  0  0  0  0  0  0
   -0.0872   -0.0251   13.6253 H   0  0  0  0  0  0  0  0  0  0  0  0
    5.1518    1.9286   13.2442 H   0  0  0  0  0  0  0  0  0  0  0  0
    6.8387    0.8784   15.3052 H   0  0  0  0  0  0  0  0  0  0  0  0
    6.2576   -0.7714   17.3403 H   0  0  0  0  0  0  0  0  0  0  0  0
    4.5849    2.3646   11.2449 H   0  0  0  0  0  0  0  0  0  0  0  0
    3.7246    4.3958   10.1878 H   0  0  0  0  0  0  0  0  0  0  0  0
    3.4120    2.9458    9.1746 H   0  0  0  0  0  0  0  0  0  0  0  0
    1.3624    5.1019    8.2385 H   0  0  0  0  0  0  0  0  0  0  0  0
    0.5610    2.2069   12.8061 H   0  0  0  0  0  0  0  0  0  0  0  0
    0.2099   -3.2208   16.4783 H   0  0  0  0  0  0  0  0  0  0  0  0
   -2.1883   -3.6472   16.2676 H   0  0  0  0  0  0  0  0  0  0  0  0
  1  2  1  0  0  0  0
  2  3  1  0  0  0  0
  2  4  1  0  0  0  0
  2  8  1  0  0  0  0
  4  5  1  0  0  0  0
  5  6  1  0  0  0  0
  6  7  1  0  0  0  0
  6  9  1  0  0  0  0
  7  8  1  0  0  0  0
  9 10  1  0  0  0  0
  9 33  1  0  0  0  0
 10 11  2  0  0  0  0
 11 12  1  0  0  0  0
 12 13  2  0  0  0  0
 12 32  1  0  0  0  0
 13 14  1  0  0  0  0
 14 15  2  0  0  0  0
 14 22  1  0  0  0  0
 15 16  1  0  0  0  0
 16 17  2  0  0  0  0
 16 23  1  0  0  0  0
 17 18  1  0  0  0  0
 18 19  1  0  0  0  0
 18 22  1  0  0  0  0
 19 20  2  0  0  0  0
 20 21  1  0  0  0  0
 21 22  2  0  0  0  0
 23 24  2  0  0  0  0
 23 31  1  0  0  0  0
 24 25  1  0  0  0  0
 25 26  1  0  0  0  0
 26 27  2  0  0  0  0
 26 30  1  0  0  0  0
 27 28  1  0  0  0  0
 28 29  2  0  0  0  0
 29 30  1  0  0  0  0
 30 31  2  0  0  0  0
 32 33  2  0  0  0  0
  1 34  1  0  0  0  0
  1 35  1  0  0  0  0
  1 36  1  0  0  0  0
  3 37  1  0  0  0  0
  4 38  1  0  0  0  0
  4 39  1  0  0  0  0
  5 40  1  0  0  0  0
  5 41  1  0  0  0  0
  7 42  1  0  0  0  0
  7 43  1  0  0  0  0
  8 44  1  0  0  0  0
  8 45  1  0  0  0  0
  9 46  1  0  0  0  0
 10 47  1  0  0  0  0
 11 48  1  0  0  0  0
 17 49  1  0  0  0  0
 19 50  1  0  0  0  0
 20 51  1  0  0  0  0
 24 52  1  0  0  0  0
 25 53  1  0  0  0  0
 25 54  1  0  0  0  0
 27 55  1  0  0  0  0
 31 56  1  0  0  0  0
 32 57  1  0  0  0  0
 33 58  1  0  0  0  0
M  END
> <IC50[nM]>
1.4

$$$$
CHEMBL3265031
  -OEChem-05192314333D
 Structure written by MMmdl.
 58 63  0     0  0  0  0  0  0999 V2000
   -6.8350   -5.5126   14.3646 C   0  0  0  0  0  0  0  0  0  0  0  0
   -6.2469   -4.1256   14.5196 C   0  0  0  0  0  0  0  0  0  0  0  0
   -7.2986   -3.1815   14.6326 O   0  0  0  0  0  0  0  0  0  0  0  0
   -5.3943   -4.0373   15.7957 C   0  0  0  0  0  0  0  0  0  0  0  0
   -4.6708   -2.7036   15.9246 C   0  0  0  0  0  0  0  0  0  0  0  0
   -3.8604   -2.3511   14.7445 N   0  0  0  0  0  0  0  0  0  0  0  0
   -4.6320   -2.3959   13.4920 C   0  0  0  0  0  0  0  0  0  0  0  0
   -5.3661   -3.7377   13.3163 C   0  0  0  0  0  0  0  0  0  0  0  0
   -2.5090   -2.1078   14.8185 C   0  0  0  0  0  0  0  0  0  0  0  0
   -1.9132   -1.0937   14.0521 C   0  0  0  0  0  0  0  0  0  0  0  0
   -0.5452   -0.8202   14.1949 C   0  0  0  0  0  0  0  0  0  0  0  0
    0.2267   -1.5891   15.0857 C   0  0  0  0  0  0  0  0  0  0  0  0
    1.6093   -1.3706   15.3172 N   0  0  0  0  0  0  0  0  0  0  0  0
    2.5356   -0.4465   14.7610 C   0  0  0  0  0  0  0  0  0  0  0  0
    2.1744    0.3801   13.7331 N   0  0  0  0  0  0  0  0  0  0  0  0
    3.1091    1.2393   13.2182 C   0  0  0  0  0  0  0  0  0  0  0  0
    4.4162    1.2819   13.6993 C   0  0  0  0  0  0  0  0  0  0  0  0
    4.7443    0.4889   14.7568 N   0  0  0  0  0  0  0  0  0  0  0  0
    5.8980    0.3793   15.4854 C   0  0  0  0  0  0  0  0  0  0  0  0
    5.5914   -0.5292   16.5255 C   0  0  0  0  0  0  0  0  0  0  0  0
    4.3788   -1.0451   16.3697 N   0  0  0  0  0  0  0  0  0  0  0  0
    3.8374   -0.3956   15.3255 C   0  0  0  0  0  0  0  0  0  0  0  0
    2.6339    2.1607   12.1207 C   0  0  0  0  0  0  0  0  0  0  0  0
    3.5443    2.6413   11.1620 C   0  0  0  0  0  0  0  0  0  0  0  0
    3.1470    3.4630   10.1086 C   0  0  0  0  0  0  0  0  0  0  0  0
    1.8016    3.8175   10.0163 C   0  0  0  0  0  0  0  0  0  0  0  0
    0.9929    4.5961    9.1183 C   0  0  0  0  0  0  0  0  0  0  0  0
   -0.2479    4.6060    9.5144 N   0  0  0  0  0  0  0  0  0  0  0  0
   -0.3355    3.8922   10.6289 N   0  0  0  0  0  0  0  0  0  0  0  0
    0.8848    3.3596   10.9956 C   0  0  0  0  0  0  0  0  0  0  0  0
    1.2708    2.5377   12.0624 C   0  0  0  0  0  0  0  0  0  0  0  0
   -0.3834   -2.6137   15.8106 C   0  0  0  0  0  0  0  0  0  0  0  0
   -1.7318   -2.8604   15.6854 C   0  0  0  0  0  0  0  0  0  0  0  0
   -6.0221   -6.2484   14.2766 H   0  0  0  0  0  0  0  0  0  0  0  0
   -7.4507   -5.7501   15.2447 H   0  0  0  0  0  0  0  0  0  0  0  0
   -7.4599   -5.5468   13.4600 H   0  0  0  0  0  0  0  0  0  0  0  0
   -6.9333   -2.3100   14.7300 H   0  0  0  0  0  0  0  0  0  0  0  0
   -6.0513   -4.1676   16.6682 H   0  0  0  0  0  0  0  0  0  0  0  0
   -4.6463   -4.8436   15.7763 H   0  0  0  0  0  0  0  0  0  0  0  0
   -5.4219   -1.9147   16.0780 H   0  0  0  0  0  0  0  0  0  0  0  0
   -4.0063   -2.7524   16.7999 H   0  0  0  0  0  0  0  0  0  0  0  0
   -5.3737   -1.5837   13.5023 H   0  0  0  0  0  0  0  0  0  0  0  0
   -3.9441   -2.2536   12.6455 H   0  0  0  0  0  0  0  0  0  0  0  0
   -4.6149   -4.5273   13.1672 H   0  0  0  0  0  0  0  0  0  0  0  0
   -6.0071   -3.6685   12.4250 H   0  0  0  0  0  0  0  0  0  0  0  0
   -2.5080   -0.5246   13.3530 H   0  0  0  0  0  0  0  0  0  0  0  0
   -0.0872   -0.0251   13.6253 H   0  0  0  0  0  0  0  0  0  0  0  0
    5.1518    1.9286   13.2442 H   0  0  0  0  0  0  0  0  0  0  0  0
    6.8387    0.8784   15.3052 H   0  0  0  0  0  0  0  0  0  0  0  0
    6.2576   -0.7714   17.3403 H   0  0  0  0  0  0  0  0  0  0  0  0
    4.5849    2.3646   11.2449 H   0  0  0  0  0  0  0  0  0  0  0  0
    3.7246    4.3958   10.1878 H   0  0  0  0  0  0  0  0  0  0  0  0
    3.4120    2.9458    9.1746 H   0  0  0  0  0  0  0  0  0  0  0  0
    1.3624    5.1019    8.2385 H   0  0  0  0  0  0  0  0  0  0  0  0
    0.5610    2.2069   12.8061 H   0  0  0  0  0  0  0  0  0  0  0  0
    0.1327   -3.5445   15.5329 H   0  0  0  0  0  0  0  0  0  0  0  0
   -0.2017   -2.3968   16.8736 H   0  0  0  0  0  0  0  0  0  0  0  0
   -2.1883   -3.6472   16.2676 H   0  0  0  0  0  0  0  0  0  0  0  0
  1  2  1  0  0  0  0
  2  3  1  0  0  0  0
  2  4  1  0  0  0  0
  2  8  1  0  0  0  0
  4  5  1  0  0  0  0
  5  6  1  0  0  0  0
  6  7  1  0  0  0  0
  6  9  1  0  0  0  0
  7  8  1  0  0  0  0
  9 10  1  0  0  0  0
  9 33  2  0  0  0  0
 10 11  2  0  0  0  0
 11 12  1  0  0  0  0
 12 13  2  0  0  0  0
 12 32  1  0  0  0  0
 13 14  1  0  0  0  0
 14 15  2  0  0  0  0
 14 22  1  0  0  0  0
 15 16  1  0  0  0  0
 16 17  2  0  0  0  0
 16 23  1  0  0  0  0
 17 18  1  0  0  0  0
 18 19  1  0  0  0  0
 18 22  1  0  0  0  0
 19 20  2  0  0  0  0
 20 21  1  0  0  0  0
 21 22  2  0  0  0  0
 23 24  2  0  0  0  0
 23 31  1  0  0  0  0
 24 25  1  0  0  0  0
 25 26  1  0  0  0  0
 26 27  2  0  0  0  0
 26 30  1  0  0  0  0
 27 28  1  0  0  0  0
 28 29  2  0  0  0  0
 29 30  1  0  0  0  0
 30 31  2  0  0  0  0
 32 33  1  0  0  0  0
  1 34  1  0  0  0  0
  1 35  1  0  0  0  0
  1 36  1  0  0  0  0
  3 37  1  0  0  0  0
  4 38  1  0  0  0  0
  4 39  1  0  0  0  0
  5 40  1  0  0  0  0
  5 41  1  0  0  0  0
  7 42  1  0  0  0  0
  7 43  1  0  0  0  0
  8 44  1  0  0  0  0
  8 45  1  0  0  0  0
 10 46  1  0  0  0  0
 11 47  1  0  0  0  0
 17 48  1  0  0  0  0
 19 49  1  0  0  0  0
 20 50  1  0  0  0  0
 24 51  1  0  0  0  0
 25 52  1  0  0  0  0
 25 53  1  0  0  0  0
 27 54  1  0  0  0  0
 31 55  1  0  0  0  0
 32 56  1  0  0  0  0
 32 57  1  0  0  0  0
 33 58  1  0  0  0  0
M  END
> <IC50[nM]>
1.4

$$$$
