CHEMBL3265016
  -OEChem-05192314333D
 Structure written by MMmdl.
 48 52  0     0  0  0  0  0  0999 V2000
   -4.2568   -3.1050   13.5687 C   0  0  0  0  0  0  0  0  0  0  0  0
   -3.8730   -2.3616   14.7152 O   0  0  0  0  0  0  0  0  0  0  0  0
   -2.5250   -2.1116   14.8158 C   0  0  0  0  0  0  0  0  0  0  0  0
   -1.7470   -2.8700   15.6807 C   0  0  0  0  0  0  0  0  0  0  0  0
   -0.3902   -2.6106   15.8144 C   0  0  0  0  0  0  0  0  0  0  0  0
    0.2207   -1.5844   15.0868 C   0  0  0  0  0  0  0  0  0  0  0  0
    1.6046   -1.3596   15.3257 N   0  0  0  0  0  0  0  0  0  0  0  0
    2.5329   -0.4401   14.7638 C   0  0  0  0  0  0  0  0  0  0  0  0
    2.1751    0.3788   13.7311 N   0  0  0  0  0  0  0  0  0  0  0  0
    3.1086    1.2387   13.2176 C   0  0  0  0  0  0  0  0  0  0  0  0
    4.4159    1.2831   13.6998 C   0  0  0  0  0  0  0  0  0  0  0  0
    4.7435    0.4926   14.7566 N   0  0  0  0  0  0  0  0  0  0  0  0
    5.8975    0.3810   15.4862 C   0  0  0  0  0  0  0  0  0  0  0  0
    5.5917   -0.5286   16.5249 C   0  0  0  0  0  0  0  0  0  0  0  0
    4.3780   -1.0408   16.3703 N   0  0  0  0  0  0  0  0  0  0  0  0
    3.8370   -0.3906   15.3278 C   0  0  0  0  0  0  0  0  0  0  0  0
    2.6350    2.1602   12.1213 C   0  0  0  0  0  0  0  0  0  0  0  0
    3.5425    2.6402   11.1650 C   0  0  0  0  0  0  0  0  0  0  0  0
    3.1493    3.4616   10.1117 C   0  0  0  0  0  0  0  0  0  0  0  0
    1.8041    3.8212   10.0117 C   0  0  0  0  0  0  0  0  0  0  0  0
    1.0219    4.6165    9.0806 C   0  0  0  0  0  0  0  0  0  0  0  0
   -0.2682    4.5927    9.5377 C   0  0  0  0  0  0  0  0  0  0  0  0
   -0.3496    3.8668   10.6667 N   0  0  0  0  0  0  0  0  0  0  0  0
    0.8806    3.3533   11.0064 C   0  0  0  0  0  0  0  0  0  0  0  0
    1.2701    2.5323   12.0703 C   0  0  0  0  0  0  0  0  0  0  0  0
   -0.5547   -0.8186   14.1912 C   0  0  0  0  0  0  0  0  0  0  0  0
   -1.9427   -1.0874   14.0603 C   0  0  0  0  0  0  0  0  0  0  0  0
   -2.7500   -0.3519   13.2066 O   0  0  0  0  0  0  0  0  0  0  0  0
   -2.2281    0.6471   12.3512 C   0  0  0  0  0  0  0  0  0  0  0  0
   -5.3466   -3.2541   13.5756 H   0  0  0  0  0  0  0  0  0  0  0  0
   -3.9679   -2.5545   12.6613 H   0  0  0  0  0  0  0  0  0  0  0  0
   -3.7530   -4.0828   13.5803 H   0  0  0  0  0  0  0  0  0  0  0  0
   -2.2004   -3.6662   16.2525 H   0  0  0  0  0  0  0  0  0  0  0  0
    0.2023   -3.2098   16.4900 H   0  0  0  0  0  0  0  0  0  0  0  0
    1.9995   -1.9616   16.0197 H   0  0  0  0  0  0  0  0  0  0  0  0
    5.1512    1.9301   13.2447 H   0  0  0  0  0  0  0  0  0  0  0  0
    6.8383    0.8802   15.3068 H   0  0  0  0  0  0  0  0  0  0  0  0
    6.2591   -0.7741   17.3377 H   0  0  0  0  0  0  0  0  0  0  0  0
    4.5829    2.3628   11.2488 H   0  0  0  0  0  0  0  0  0  0  0  0
    3.8695    3.8130    9.3877 H   0  0  0  0  0  0  0  0  0  0  0  0
    1.3866    5.1261    8.2010 H   0  0  0  0  0  0  0  0  0  0  0  0
   -1.1015    5.0864    9.0599 H   0  0  0  0  0  0  0  0  0  0  0  0
   -1.1900    3.7202   11.1884 H   0  0  0  0  0  0  0  0  0  0  0  0
    0.5639    2.1987   12.8162 H   0  0  0  0  0  0  0  0  0  0  0  0
   -0.0957   -0.0332   13.6091 H   0  0  0  0  0  0  0  0  0  0  0  0
   -3.0463    1.0961   11.7689 H   0  0  0  0  0  0  0  0  0  0  0  0
   -1.7369    1.4255   12.9536 H   0  0  0  0  0  0  0  0  0  0  0  0
   -1.4949    0.1965   11.6660 H   0  0  0  0  0  0  0  0  0  0  0  0
  1  2  1  0  0  0  0
  2  3  1  0  0  0  0
  3  4  2  0  0  0  0
  3 27  1  0  0  0  0
  4  5  1  0  0  0  0
  5  6  2  0  0  0  0
  6  7  1  0  0  0  0
  6 26  1  0  0  0  0
  7  8  1  0  0  0  0
  8  9  2  0  0  0  0
  8 16  1  0  0  0  0
  9 10  1  0  0  0  0
 10 11  2  0  0  0  0
 10 17  1  0  0  0  0
 11 12  1  0  0  0  0
 12 13  1  0  0  0  0
 12 16  1  0  0  0  0
 13 14  2  0  0  0  0
 14 15  1  0  0  0  0
 15 16  2  0  0  0  0
 17 18  2  0  0  0  0
 17 25  1  0  0  0  0
 18 19  1  0  0  0  0
 19 20  2  0  0  0  0
 20 21  1  0  0  0  0
 20 24  1  0  0  0  0
 21 22  2  0  0  0  0
 22 23  1  0  0  0  0
 23 24  1  0  0  0  0
 24 25  2  0  0  0  0
 26 27  2  0  0  0  0
 27 28  1  0  0  0  0
 28 29  1  0  0  0  0
  1 30  1  0  0  0  0
  1 31  1  0  0  0  0
  1 32  1  0  0  0  0
  4 33  1  0  0  0  0
  5 34  1  0  0  0  0
  7 35  1  0  0  0  0
 11 36  1  0  0  0  0
 13 37  1  0  0  0  0
 14 38  1  0  0  0  0
 18 39  1  0  0  0  0
 19 40  1  0  0  0  0
 21 41  1  0  0  0  0
 22 42  1  0  0  0  0
 23 43  1  0  0  0  0
 25 44  1  0  0  0  0
 26 45  1  0  0  0  0
 29 46  1  0  0  0  0
 29 47  1  0  0  0  0
 29 48  1  0  0  0  0
M  END
> <IC50[nM]>
2.7

$$$$
CHEMBL3265016
  -OEChem-05192314333D
 Structure written by MMmdl.
 48 52  0     0  0  0  0  0  0999 V2000
   -4.2568   -3.1050   13.5687 C   0  0  0  0  0  0  0  0  0  0  0  0
   -3.8730   -2.3616   14.7152 O   0  0  0  0  0  0  0  0  0  0  0  0
   -2.5250   -2.1116   14.8158 C   0  0  0  0  0  0  0  0  0  0  0  0
   -1.7470   -2.8700   15.6807 C   0  0  0  0  0  0  0  0  0  0  0  0
   -0.3902   -2.6106   15.8144 C   0  0  0  0  0  0  0  0  0  0  0  0
    0.2207   -1.5844   15.0868 C   0  0  0  0  0  0  0  0  0  0  0  0
    1.6046   -1.3596   15.3257 N   0  0  0  0  0  0  0  0  0  0  0  0
    2.5329   -0.4401   14.7638 C   0  0  0  0  0  0  0  0  0  0  0  0
    2.1751    0.3788   13.7311 N   0  0  0  0  0  0  0  0  0  0  0  0
    3.1086    1.2387   13.2176 C   0  0  0  0  0  0  0  0  0  0  0  0
    4.4159    1.2831   13.6998 C   0  0  0  0  0  0  0  0  0  0  0  0
    4.7435    0.4926   14.7566 N   0  0  0  0  0  0  0  0  0  0  0  0
    5.8975    0.3810   15.4862 C   0  0  0  0  0  0  0  0  0  0  0  0
    5.5917   -0.5286   16.5249 C   0  0  0  0  0  0  0  0  0  0  0  0
    4.3780   -1.0408   16.3703 N   0  0  0  0  0  0  0  0  0  0  0  0
    3.8370   -0.3906   15.3278 C   0  0  0  0  0  0  0  0  0  0  0  0
    2.6350    2.1602   12.1213 C   0  0  0  0  0  0  0  0  0  0  0  0
    3.5425    2.6402   11.1650 C   0  0  0  0  0  0  0  0  0  0  0  0
    3.1493    3.4616   10.1117 C   0  0  0  0  0  0  0  0  0  0  0  0
    1.8041    3.8212   10.0117 C   0  0  0  0  0  0  0  0  0  0  0  0
    1.0219    4.6165    9.0806 C   0  0  0  0  0  0  0  0  0  0  0  0
   -0.2682    4.5927    9.5377 C   0  0  0  0  0  0  0  0  0  0  0  0
   -0.3496    3.8668   10.6667 N   0  0  0  0  0  0  0  0  0  0  0  0
    0.8806    3.3533   11.0064 C   0  0  0  0  0  0  0  0  0  0  0  0
    1.2701    2.5323   12.0703 C   0  0  0  0  0  0  0  0  0  0  0  0
   -0.5547   -0.8186   14.1912 C   0  0  0  0  0  0  0  0  0  0  0  0
   -1.9427   -1.0874   14.0603 C   0  0  0  0  0  0  0  0  0  0  0  0
   -2.7500   -0.3519   13.2066 O   0  0  0  0  0  0  0  0  0  0  0  0
   -2.2281    0.6471   12.3512 C   0  0  0  0  0  0  0  0  0  0  0  0
   -5.3466   -3.2541   13.5756 H   0  0  0  0  0  0  0  0  0  0  0  0
   -3.9679   -2.5545   12.6613 H   0  0  0  0  0  0  0  0  0  0  0  0
   -3.7530   -4.0828   13.5803 H   0  0  0  0  0  0  0  0  0  0  0  0
   -2.2004   -3.6662   16.2525 H   0  0  0  0  0  0  0  0  0  0  0  0
    0.2023   -3.2098   16.4900 H   0  0  0  0  0  0  0  0  0  0  0  0
    1.2482    0.3509   13.3568 H   0  0  0  0  0  0  0  0  0  0  0  0
    5.1512    1.9301   13.2447 H   0  0  0  0  0  0  0  0  0  0  0  0
    6.8383    0.8802   15.3068 H   0  0  0  0  0  0  0  0  0  0  0  0
    6.2591   -0.7741   17.3377 H   0  0  0  0  0  0  0  0  0  0  0  0
    4.5829    2.3628   11.2488 H   0  0  0  0  0  0  0  0  0  0  0  0
    3.8695    3.8130    9.3877 H   0  0  0  0  0  0  0  0  0  0  0  0
    1.3866    5.1261    8.2010 H   0  0  0  0  0  0  0  0  0  0  0  0
   -1.1015    5.0864    9.0599 H   0  0  0  0  0  0  0  0  0  0  0  0
   -1.1900    3.7202   11.1884 H   0  0  0  0  0  0  0  0  0  0  0  0
    0.5639    2.1987   12.8162 H   0  0  0  0  0  0  0  0  0  0  0  0
   -0.0957   -0.0332   13.6091 H   0  0  0  0  0  0  0  0  0  0  0  0
   -3.0463    1.0961   11.7689 H   0  0  0  0  0  0  0  0  0  0  0  0
   -1.7369    1.4255   12.9536 H   0  0  0  0  0  0  0  0  0  0  0  0
   -1.4949    0.1965   11.6660 H   0  0  0  0  0  0  0  0  0  0  0  0
  1  2  1  0  0  0  0
  2  3  1  0  0  0  0
  3  4  2  0  0  0  0
  3 27  1  0  0  0  0
  4  5  1  0  0  0  0
  5  6  2  0  0  0  0
  6  7  1  0  0  0  0
  6 26  1  0  0  0  0
  7  8  2  0  0  0  0
  8  9  1  0  0  0  0
  8 16  1  0  0  0  0
  9 10  1  0  0  0  0
 10 11  2  0  0  0  0
 10 17  1  0  0  0  0
 11 12  1  0  0  0  0
 12 13  1  0  0  0  0
 12 16  1  0  0  0  0
 13 14  2  0  0  0  0
 14 15  1  0  0  0  0
 15 16  2  0  0  0  0
 17 18  2  0  0  0  0
 17 25  1  0  0  0  0
 18 19  1  0  0  0  0
 19 20  2  0  0  0  0
 20 21  1  0  0  0  0
 20 24  1  0  0  0  0
 21 22  2  0  0  0  0
 22 23  1  0  0  0  0
 23 24  1  0  0  0  0
 24 25  2  0  0  0  0
 26 27  2  0  0  0  0
 27 28  1  0  0  0  0
 28 29  1  0  0  0  0
  1 30  1  0  0  0  0
  1 31  1  0  0  0  0
  1 32  1  0  0  0  0
  4 33  1  0  0  0  0
  5 34  1  0  0  0  0
  9 35  1  0  0  0  0
 11 36  1  0  0  0  0
 13 37  1  0  0  0  0
 14 38  1  0  0  0  0
 18 39  1  0  0  0  0
 19 40  1  0  0  0  0
 21 41  1  0  0  0  0
 22 42  1  0  0  0  0
 23 43  1  0  0  0  0
 25 44  1  0  0  0  0
 26 45  1  0  0  0  0
 29 46  1  0  0  0  0
 29 47  1  0  0  0  0
 29 48  1  0  0  0  0
M  END
> <IC50[nM]>
2.7

$$$$
CHEMBL3265016
  -OEChem-05192314333D
 Structure written by MMmdl.
 48 52  0     0  0  0  0  0  0999 V2000
   -4.2568   -3.1050   13.5687 C   0  0  0  0  0  0  0  0  0  0  0  0
   -3.8730   -2.3616   14.7152 O   0  0  0  0  0  0  0  0  0  0  0  0
   -2.5250   -2.1116   14.8158 C   0  0  0  0  0  0  0  0  0  0  0  0
   -1.7470   -2.8700   15.6807 C   0  0  0  0  0  0  0  0  0  0  0  0
   -0.3902   -2.6106   15.8144 C   0  0  0  0  0  0  0  0  0  0  0  0
    0.2207   -1.5844   15.0868 C   0  0  0  0  0  0  0  0  0  0  0  0
    1.6046   -1.3596   15.3257 N   0  0  0  0  0  0  0  0  0  0  0  0
    2.5329   -0.4401   14.7638 C   0  0  0  0  0  0  0  0  0  0  0  0
    2.1751    0.3788   13.7311 N   0  0  0  0  0  0  0  0  0  0  0  0
    3.1086    1.2387   13.2176 C   0  0  0  0  0  0  0  0  0  0  0  0
    4.4159    1.2831   13.6998 C   0  0  0  0  0  0  0  0  0  0  0  0
    4.7435    0.4926   14.7566 N   0  0  0  0  0  0  0  0  0  0  0  0
    5.8975    0.3810   15.4862 C   0  0  0  0  0  0  0  0  0  0  0  0
    5.5917   -0.5286   16.5249 C   0  0  0  0  0  0  0  0  0  0  0  0
    4.3780   -1.0408   16.3703 N   0  0  0  0  0  0  0  0  0  0  0  0
    3.8370   -0.3906   15.3278 C   0  0  0  0  0  0  0  0  0  0  0  0
    2.6350    2.1602   12.1213 C   0  0  0  0  0  0  0  0  0  0  0  0
    3.5425    2.6402   11.1650 C   0  0  0  0  0  0  0  0  0  0  0  0
    3.1493    3.4616   10.1117 C   0  0  0  0  0  0  0  0  0  0  0  0
    1.8041    3.8212   10.0117 C   0  0  0  0  0  0  0  0  0  0  0  0
    1.0219    4.6165    9.0806 C   0  0  0  0  0  0  0  0  0  0  0  0
   -0.2682    4.5927    9.5377 C   0  0  0  0  0  0  0  0  0  0  0  0
   -0.3496    3.8668   10.6667 N   0  0  0  0  0  0  0  0  0  0  0  0
    0.8806    3.3533   11.0064 C   0  0  0  0  0  0  0  0  0  0  0  0
    1.2701    2.5323   12.0703 C   0  0  0  0  0  0  0  0  0  0  0  0
   -0.5547   -0.8186   14.1912 C   0  0  0  0  0  0  0  0  0  0  0  0
   -1.9427   -1.0874   14.0603 C   0  0  0  0  0  0  0  0  0  0  0  0
   -2.7500   -0.3519   13.2066 O   0  0  0  0  0  0  0  0  0  0  0  0
   -2.2281    0.6471   12.3512 C   0  0  0  0  0  0  0  0  0  0  0  0
   -5.3466   -3.2541   13.5756 H   0  0  0  0  0  0  0  0  0  0  0  0
   -3.9679   -2.5545   12.6613 H   0  0  0  0  0  0  0  0  0  0  0  0
   -3.7530   -4.0828   13.5803 H   0  0  0  0  0  0  0  0  0  0  0  0
   -2.2004   -3.6662   16.2525 H   0  0  0  0  0  0  0  0  0  0  0  0
    0.2023   -3.2098   16.4900 H   0  0  0  0  0  0  0  0  0  0  0  0
    1.9995   -1.9616   16.0197 H   0  0  0  0  0  0  0  0  0  0  0  0
    5.1512    1.9301   13.2447 H   0  0  0  0  0  0  0  0  0  0  0  0
    6.8383    0.8802   15.3068 H   0  0  0  0  0  0  0  0  0  0  0  0
    6.2591   -0.7741   17.3377 H   0  0  0  0  0  0  0  0  0  0  0  0
    4.5829    2.3628   11.2488 H   0  0  0  0  0  0  0  0  0  0  0  0
    3.8695    3.8130    9.3877 H   0  0  0  0  0  0  0  0  0  0  0  0
    1.3971    5.6502    9.0553 H   0  0  0  0  0  0  0  0  0  0  0  0
    1.0756    4.1821    8.0714 H   0  0  0  0  0  0  0  0  0  0  0  0
   -1.1015    5.0864    9.0599 H   0  0  0  0  0  0  0  0  0  0  0  0
    0.5639    2.1987   12.8162 H   0  0  0  0  0  0  0  0  0  0  0  0
   -0.0957   -0.0332   13.6091 H   0  0  0  0  0  0  0  0  0  0  0  0
   -3.0463    1.0961   11.7689 H   0  0  0  0  0  0  0  0  0  0  0  0
   -1.7369    1.4255   12.9536 H   0  0  0  0  0  0  0  0  0  0  0  0
   -1.4949    0.1965   11.6660 H   0  0  0  0  0  0  0  0  0  0  0  0
  1  2  1  0  0  0  0
  2  3  1  0  0  0  0
  3  4  2  0  0  0  0
  3 27  1  0  0  0  0
  4  5  1  0  0  0  0
  5  6  2  0  0  0  0
  6  7  1  0  0  0  0
  6 26  1  0  0  0  0
  7  8  1  0  0  0  0
  8  9  2  0  0  0  0
  8 16  1  0  0  0  0
  9 10  1  0  0  0  0
 10 11  2  0  0  0  0
 10 17  1  0  0  0  0
 11 12  1  0  0  0  0
 12 13  1  0  0  0  0
 12 16  1  0  0  0  0
 13 14  2  0  0  0  0
 14 15  1  0  0  0  0
 15 16  2  0  0  0  0
 17 18  2  0  0  0  0
 17 25  1  0  0  0  0
 18 19  1  0  0  0  0
 19 20  2  0  0  0  0
 20 21  1  0  0  0  0
 20 24  1  0  0  0  0
 21 22  1  0  0  0  0
 22 23  2  0  0  0  0
 23 24  1  0  0  0  0
 24 25  2  0  0  0  0
 26 27  2  0  0  0  0
 27 28  1  0  0  0  0
 28 29  1  0  0  0  0
  1 30  1  0  0  0  0
  1 31  1  0  0  0  0
  1 32  1  0  0  0  0
  4 33  1  0  0  0  0
  5 34  1  0  0  0  0
  7 35  1  0  0  0  0
 11 36  1  0  0  0  0
 13 37  1  0  0  0  0
 14 38  1  0  0  0  0
 18 39  1  0  0  0  0
 19 40  1  0  0  0  0
 21 41  1  0  0  0  0
 21 42  1  0  0  0  0
 22 43  1  0  0  0  0
 25 44  1  0  0  0  0
 26 45  1  0  0  0  0
 29 46  1  0  0  0  0
 29 47  1  0  0  0  0
 29 48  1  0  0  0  0
M  END
> <IC50[nM]>
2.7

$$$$
CHEMBL3265016
  -OEChem-05192314333D
 Structure written by MMmdl.
 48 52  0     0  0  0  0  0  0999 V2000
   -4.2568   -3.1050   13.5687 C   0  0  0  0  0  0  0  0  0  0  0  0
   -3.8730   -2.3616   14.7152 O   0  0  0  0  0  0  0  0  0  0  0  0
   -2.5250   -2.1116   14.8158 C   0  0  0  0  0  0  0  0  0  0  0  0
   -1.7470   -2.8700   15.6807 C   0  0  0  0  0  0  0  0  0  0  0  0
   -0.3902   -2.6106   15.8144 C   0  0  0  0  0  0  0  0  0  0  0  0
    0.2207   -1.5844   15.0868 C   0  0  0  0  0  0  0  0  0  0  0  0
    1.6046   -1.3596   15.3257 N   0  0  0  0  0  0  0  0  0  0  0  0
    2.5329   -0.4401   14.7638 C   0  0  0  0  0  0  0  0  0  0  0  0
    2.1751    0.3788   13.7311 N   0  0  0  0  0  0  0  0  0  0  0  0
    3.1086    1.2387   13.2176 C   0  0  0  0  0  0  0  0  0  0  0  0
    4.4159    1.2831   13.6998 C   0  0  0  0  0  0  0  0  0  0  0  0
    4.7435    0.4926   14.7566 N   0  0  0  0  0  0  0  0  0  0  0  0
    5.8975    0.3810   15.4862 C   0  0  0  0  0  0  0  0  0  0  0  0
    5.5917   -0.5286   16.5249 C   0  0  0  0  0  0  0  0  0  0  0  0
    4.3780   -1.0408   16.3703 N   0  0  0  0  0  0  0  0  0  0  0  0
    3.8370   -0.3906   15.3278 C   0  0  0  0  0  0  0  0  0  0  0  0
    2.6350    2.1602   12.1213 C   0  0  0  0  0  0  0  0  0  0  0  0
    3.5425    2.6402   11.1650 C   0  0  0  0  0  0  0  0  0  0  0  0
    3.1493    3.4616   10.1117 C   0  0  0  0  0  0  0  0  0  0  0  0
    1.8041    3.8212   10.0117 C   0  0  0  0  0  0  0  0  0  0  0  0
    1.0219    4.6165    9.0806 C   0  0  0  0  0  0  0  0  0  0  0  0
   -0.2682    4.5927    9.5377 C   0  0  0  0  0  0  0  0  0  0  0  0
   -0.3496    3.8668   10.6667 N   0  0  0  0  0  0  0  0  0  0  0  0
    0.8806    3.3533   11.0064 C   0  0  0  0  0  0  0  0  0  0  0  0
    1.2701    2.5323   12.0703 C   0  0  0  0  0  0  0  0  0  0  0  0
   -0.5547   -0.8186   14.1912 C   0  0  0  0  0  0  0  0  0  0  0  0
   -1.9427   -1.0874   14.0603 C   0  0  0  0  0  0  0  0  0  0  0  0
   -2.7500   -0.3519   13.2066 O   0  0  0  0  0  0  0  0  0  0  0  0
   -2.2281    0.6471   12.3512 C   0  0  0  0  0  0  0  0  0  0  0  0
   -5.3466   -3.2541   13.5756 H   0  0  0  0  0  0  0  0  0  0  0  0
   -3.9679   -2.5545   12.6613 H   0  0  0  0  0  0  0  0  0  0  0  0
   -3.7530   -4.0828   13.5803 H   0  0  0  0  0  0  0  0  0  0  0  0
   -2.2004   -3.6662   16.2525 H   0  0  0  0  0  0  0  0  0  0  0  0
    0.2023   -3.2098   16.4900 H   0  0  0  0  0  0  0  0  0  0  0  0
    1.2482    0.3509   13.3568 H   0  0  0  0  0  0  0  0  0  0  0  0
    5.1512    1.9301   13.2447 H   0  0  0  0  0  0  0  0  0  0  0  0
    6.8383    0.8802   15.3068 H   0  0  0  0  0  0  0  0  0  0  0  0
    6.2591   -0.7741   17.3377 H   0  0  0  0  0  0  0  0  0  0  0  0
    4.5829    2.3628   11.2488 H   0  0  0  0  0  0  0  0  0  0  0  0
    3.8695    3.8130    9.3877 H   0  0  0  0  0  0  0  0  0  0  0  0
    1.3971    5.6502    9.0553 H   0  0  0  0  0  0  0  0  0  0  0  0
    1.0756    4.1821    8.0714 H   0  0  0  0  0  0  0  0  0  0  0  0
   -1.1015    5.0864    9.0599 H   0  0  0  0  0  0  0  0  0  0  0  0
    0.5639    2.1987   12.8162 H   0  0  0  0  0  0  0  0  0  0  0  0
   -0.0957   -0.0332   13.6091 H   0  0  0  0  0  0  0  0  0  0  0  0
   -3.0463    1.0961   11.7689 H   0  0  0  0  0  0  0  0  0  0  0  0
   -1.7369    1.4255   12.9536 H   0  0  0  0  0  0  0  0  0  0  0  0
   -1.4949    0.1965   11.6660 H   0  0  0  0  0  0  0  0  0  0  0  0
  1  2  1  0  0  0  0
  2  3  1  0  0  0  0
  3  4  2  0  0  0  0
  3 27  1  0  0  0  0
  4  5  1  0  0  0  0
  5  6  2  0  0  0  0
  6  7  1  0  0  0  0
  6 26  1  0  0  0  0
  7  8  2  0  0  0  0
  8  9  1  0  0  0  0
  8 16  1  0  0  0  0
  9 10  1  0  0  0  0
 10 11  2  0  0  0  0
 10 17  1  0  0  0  0
 11 12  1  0  0  0  0
 12 13  1  0  0  0  0
 12 16  1  0  0  0  0
 13 14  2  0  0  0  0
 14 15  1  0  0  0  0
 15 16  2  0  0  0  0
 17 18  2  0  0  0  0
 17 25  1  0  0  0  0
 18 19  1  0  0  0  0
 19 20  2  0  0  0  0
 20 21  1  0  0  0  0
 20 24  1  0  0  0  0
 21 22  1  0  0  0  0
 22 23  2  0  0  0  0
 23 24  1  0  0  0  0
 24 25  2  0  0  0  0
 26 27  2  0  0  0  0
 27 28  1  0  0  0  0
 28 29  1  0  0  0  0
  1 30  1  0  0  0  0
  1 31  1  0  0  0  0
  1 32  1  0  0  0  0
  4 33  1  0  0  0  0
  5 34  1  0  0  0  0
  9 35  1  0  0  0  0
 11 36  1  0  0  0  0
 13 37  1  0  0  0  0
 14 38  1  0  0  0  0
 18 39  1  0  0  0  0
 19 40  1  0  0  0  0
 21 41  1  0  0  0  0
 21 42  1  0  0  0  0
 22 43  1  0  0  0  0
 25 44  1  0  0  0  0
 26 45  1  0  0  0  0
 29 46  1  0  0  0  0
 29 47  1  0  0  0  0
 29 48  1  0  0  0  0
M  END
> <IC50[nM]>
2.7

$$$$
CHEMBL3265016
  -OEChem-05192314333D
 Structure written by MMmdl.
 48 52  0     0  0  0  0  0  0999 V2000
   -4.2568   -3.1050   13.5687 C   0  0  0  0  0  0  0  0  0  0  0  0
   -3.8730   -2.3616   14.7152 O   0  0  0  0  0  0  0  0  0  0  0  0
   -2.5250   -2.1116   14.8158 C   0  0  0  0  0  0  0  0  0  0  0  0
   -1.7470   -2.8700   15.6807 C   0  0  0  0  0  0  0  0  0  0  0  0
   -0.3902   -2.6106   15.8144 C   0  0  0  0  0  0  0  0  0  0  0  0
    0.2207   -1.5844   15.0868 C   0  0  0  0  0  0  0  0  0  0  0  0
    1.6046   -1.3596   15.3257 N   0  0  0  0  0  0  0  0  0  0  0  0
    2.5329   -0.4401   14.7638 C   0  0  0  0  0  0  0  0  0  0  0  0
    2.1751    0.3788   13.7311 N   0  0  0  0  0  0  0  0  0  0  0  0
    3.1086    1.2387   13.2176 C   0  0  0  0  0  0  0  0  0  0  0  0
    4.4159    1.2831   13.6998 C   0  0  0  0  0  0  0  0  0  0  0  0
    4.7435    0.4926   14.7566 N   0  0  0  0  0  0  0  0  0  0  0  0
    5.8975    0.3810   15.4862 C   0  0  0  0  0  0  0  0  0  0  0  0
    5.5917   -0.5286   16.5249 C   0  0  0  0  0  0  0  0  0  0  0  0
    4.3780   -1.0408   16.3703 N   0  0  0  0  0  0  0  0  0  0  0  0
    3.8370   -0.3906   15.3278 C   0  0  0  0  0  0  0  0  0  0  0  0
    2.6350    2.1602   12.1213 C   0  0  0  0  0  0  0  0  0  0  0  0
    3.5425    2.6402   11.1650 C   0  0  0  0  0  0  0  0  0  0  0  0
    3.1493    3.4616   10.1117 C   0  0  0  0  0  0  0  0  0  0  0  0
    1.8041    3.8212   10.0117 C   0  0  0  0  0  0  0  0  0  0  0  0
    1.0219    4.6165    9.0806 C   0  0  0  0  0  0  0  0  0  0  0  0
   -0.2682    4.5927    9.5377 C   0  0  0  0  0  0  0  0  0  0  0  0
   -0.3496    3.8668   10.6667 N   0  0  0  0  0  0  0  0  0  0  0  0
    0.8806    3.3533   11.0064 C   0  0  0  0  0  0  0  0  0  0  0  0
    1.2701    2.5323   12.0703 C   0  0  0  0  0  0  0  0  0  0  0  0
   -0.5547   -0.8186   14.1912 C   0  0  0  0  0  0  0  0  0  0  0  0
   -1.9427   -1.0874   14.0603 C   0  0  0  0  0  0  0  0  0  0  0  0
   -2.7500   -0.3519   13.2066 O   0  0  0  0  0  0  0  0  0  0  0  0
   -2.2281    0.6471   12.3512 C   0  0  0  0  0  0  0  0  0  0  0  0
   -5.3466   -3.2541   13.5756 H   0  0  0  0  0  0  0  0  0  0  0  0
   -3.9679   -2.5545   12.6613 H   0  0  0  0  0  0  0  0  0  0  0  0
   -3.7530   -4.0828   13.5803 H   0  0  0  0  0  0  0  0  0  0  0  0
   -2.2004   -3.6662   16.2525 H   0  0  0  0  0  0  0  0  0  0  0  0
    0.2023   -3.2098   16.4900 H   0  0  0  0  0  0  0  0  0  0  0  0
    1.9995   -1.9616   16.0197 H   0  0  0  0  0  0  0  0  0  0  0  0
    5.1512    1.9301   13.2447 H   0  0  0  0  0  0  0  0  0  0  0  0
    6.8383    0.8802   15.3068 H   0  0  0  0  0  0  0  0  0  0  0  0
    6.2591   -0.7741   17.3377 H   0  0  0  0  0  0  0  0  0  0  0  0
    4.5829    2.3628   11.2488 H   0  0  0  0  0  0  0  0  0  0  0  0
    3.8695    3.8130    9.3877 H   0  0  0  0  0  0  0  0  0  0  0  0
    1.3866    5.1261    8.2010 H   0  0  0  0  0  0  0  0  0  0  0  0
   -0.5996    5.6213    9.7429 H   0  0  0  0  0  0  0  0  0  0  0  0
   -0.9169    4.1446    8.7706 H   0  0  0  0  0  0  0  0  0  0  0  0
    0.5639    2.1987   12.8162 H   0  0  0  0  0  0  0  0  0  0  0  0
   -0.0957   -0.0332   13.6091 H   0  0  0  0  0  0  0  0  0  0  0  0
   -3.0463    1.0961   11.7689 H   0  0  0  0  0  0  0  0  0  0  0  0
   -1.7369    1.4255   12.9536 H   0  0  0  0  0  0  0  0  0  0  0  0
   -1.4949    0.1965   11.6660 H   0  0  0  0  0  0  0  0  0  0  0  0
  1  2  1  0  0  0  0
  2  3  1  0  0  0  0
  3  4  2  0  0  0  0
  3 27  1  0  0  0  0
  4  5  1  0  0  0  0
  5  6  2  0  0  0  0
  6  7  1  0  0  0  0
  6 26  1  0  0  0  0
  7  8  1  0  0  0  0
  8  9  2  0  0  0  0
  8 16  1  0  0  0  0
  9 10  1  0  0  0  0
 10 11  2  0  0  0  0
 10 17  1  0  0  0  0
 11 12  1  0  0  0  0
 12 13  1  0  0  0  0
 12 16  1  0  0  0  0
 13 14  2  0  0  0  0
 14 15  1  0  0  0  0
 15 16  2  0  0  0  0
 17 18  1  0  0  0  0
 17 25  2  0  0  0  0
 18 19  2  0  0  0  0
 19 20  1  0  0  0  0
 20 21  2  0  0  0  0
 20 24  1  0  0  0  0
 21 22  1  0  0  0  0
 22 23  1  0  0  0  0
 23 24  2  0  0  0  0
 24 25  1  0  0  0  0
 26 27  2  0  0  0  0
 27 28  1  0  0  0  0
 28 29  1  0  0  0  0
  1 30  1  0  0  0  0
  1 31  1  0  0  0  0
  1 32  1  0  0  0  0
  4 33  1  0  0  0  0
  5 34  1  0  0  0  0
  7 35  1  0  0  0  0
 11 36  1  0  0  0  0
 13 37  1  0  0  0  0
 14 38  1  0  0  0  0
 18 39  1  0  0  0  0
 19 40  1  0  0  0  0
 21 41  1  0  0  0  0
 22 42  1  0  0  0  0
 22 43  1  0  0  0  0
 25 44  1  0  0  0  0
 26 45  1  0  0  0  0
 29 46  1  0  0  0  0
 29 47  1  0  0  0  0
 29 48  1  0  0  0  0
M  END
> <IC50[nM]>
2.7

$$$$
CHEMBL3265016
  -OEChem-05192314333D
 Structure written by MMmdl.
 48 52  0     0  0  0  0  0  0999 V2000
   -4.2568   -3.1050   13.5687 C   0  0  0  0  0  0  0  0  0  0  0  0
   -3.8730   -2.3616   14.7152 O   0  0  0  0  0  0  0  0  0  0  0  0
   -2.5250   -2.1116   14.8158 C   0  0  0  0  0  0  0  0  0  0  0  0
   -1.7470   -2.8700   15.6807 C   0  0  0  0  0  0  0  0  0  0  0  0
   -0.3902   -2.6106   15.8144 C   0  0  0  0  0  0  0  0  0  0  0  0
    0.2207   -1.5844   15.0868 C   0  0  0  0  0  0  0  0  0  0  0  0
    1.6046   -1.3596   15.3257 N   0  0  0  0  0  0  0  0  0  0  0  0
    2.5329   -0.4401   14.7638 C   0  0  0  0  0  0  0  0  0  0  0  0
    2.1751    0.3788   13.7311 N   0  0  0  0  0  0  0  0  0  0  0  0
    3.1086    1.2387   13.2176 C   0  0  0  0  0  0  0  0  0  0  0  0
    4.4159    1.2831   13.6998 C   0  0  0  0  0  0  0  0  0  0  0  0
    4.7435    0.4926   14.7566 N   0  0  0  0  0  0  0  0  0  0  0  0
    5.8975    0.3810   15.4862 C   0  0  0  0  0  0  0  0  0  0  0  0
    5.5917   -0.5286   16.5249 C   0  0  0  0  0  0  0  0  0  0  0  0
    4.3780   -1.0408   16.3703 N   0  0  0  0  0  0  0  0  0  0  0  0
    3.8370   -0.3906   15.3278 C   0  0  0  0  0  0  0  0  0  0  0  0
    2.6350    2.1602   12.1213 C   0  0  0  0  0  0  0  0  0  0  0  0
    3.5425    2.6402   11.1650 C   0  0  0  0  0  0  0  0  0  0  0  0
    3.1493    3.4616   10.1117 C   0  0  0  0  0  0  0  0  0  0  0  0
    1.8041    3.8212   10.0117 C   0  0  0  0  0  0  0  0  0  0  0  0
    1.0219    4.6165    9.0806 C   0  0  0  0  0  0  0  0  0  0  0  0
   -0.2682    4.5927    9.5377 C   0  0  0  0  0  0  0  0  0  0  0  0
   -0.3496    3.8668   10.6667 N   0  0  0  0  0  0  0  0  0  0  0  0
    0.8806    3.3533   11.0064 C   0  0  0  0  0  0  0  0  0  0  0  0
    1.2701    2.5323   12.0703 C   0  0  0  0  0  0  0  0  0  0  0  0
   -0.5547   -0.8186   14.1912 C   0  0  0  0  0  0  0  0  0  0  0  0
   -1.9427   -1.0874   14.0603 C   0  0  0  0  0  0  0  0  0  0  0  0
   -2.7500   -0.3519   13.2066 O   0  0  0  0  0  0  0  0  0  0  0  0
   -2.2281    0.6471   12.3512 C   0  0  0  0  0  0  0  0  0  0  0  0
   -5.3466   -3.2541   13.5756 H   0  0  0  0  0  0  0  0  0  0  0  0
   -3.9679   -2.5545   12.6613 H   0  0  0  0  0  0  0  0  0  0  0  0
   -3.7530   -4.0828   13.5803 H   0  0  0  0  0  0  0  0  0  0  0  0
   -2.2004   -3.6662   16.2525 H   0  0  0  0  0  0  0  0  0  0  0  0
    0.2023   -3.2098   16.4900 H   0  0  0  0  0  0  0  0  0  0  0  0
    1.2482    0.3509   13.3568 H   0  0  0  0  0  0  0  0  0  0  0  0
    5.1512    1.9301   13.2447 H   0  0  0  0  0  0  0  0  0  0  0  0
    6.8383    0.8802   15.3068 H   0  0  0  0  0  0  0  0  0  0  0  0
    6.2591   -0.7741   17.3377 H   0  0  0  0  0  0  0  0  0  0  0  0
    4.5829    2.3628   11.2488 H   0  0  0  0  0  0  0  0  0  0  0  0
    3.8695    3.8130    9.3877 H   0  0  0  0  0  0  0  0  0  0  0  0
    1.3866    5.1261    8.2010 H   0  0  0  0  0  0  0  0  0  0  0  0
   -0.5996    5.6213    9.7429 H   0  0  0  0  0  0  0  0  0  0  0  0
   -0.9169    4.1446    8.7706 H   0  0  0  0  0  0  0  0  0  0  0  0
    0.5639    2.1987   12.8162 H   0  0  0  0  0  0  0  0  0  0  0  0
   -0.0957   -0.0332   13.6091 H   0  0  0  0  0  0  0  0  0  0  0  0
   -3.0463    1.0961   11.7689 H   0  0  0  0  0  0  0  0  0  0  0  0
   -1.7369    1.4255   12.9536 H   0  0  0  0  0  0  0  0  0  0  0  0
   -1.4949    0.1965   11.6660 H   0  0  0  0  0  0  0  0  0  0  0  0
  1  2  1  0  0  0  0
  2  3  1  0  0  0  0
  3  4  2  0  0  0  0
  3 27  1  0  0  0  0
  4  5  1  0  0  0  0
  5  6  2  0  0  0  0
  6  7  1  0  0  0  0
  6 26  1  0  0  0  0
  7  8  2  0  0  0  0
  8  9  1  0  0  0  0
  8 16  1  0  0  0  0
  9 10  1  0  0  0  0
 10 11  2  0  0  0  0
 10 17  1  0  0  0  0
 11 12  1  0  0  0  0
 12 13  1  0  0  0  0
 12 16  1  0  0  0  0
 13 14  2  0  0  0  0
 14 15  1  0  0  0  0
 15 16  2  0  0  0  0
 17 18  1  0  0  0  0
 17 25  2  0  0  0  0
 18 19  2  0  0  0  0
 19 20  1  0  0  0  0
 20 21  2  0  0  0  0
 20 24  1  0  0  0  0
 21 22  1  0  0  0  0
 22 23  1  0  0  0  0
 23 24  2  0  0  0  0
 24 25  1  0  0  0  0
 26 27  2  0  0  0  0
 27 28  1  0  0  0  0
 28 29  1  0  0  0  0
  1 30  1  0  0  0  0
  1 31  1  0  0  0  0
  1 32  1  0  0  0  0
  4 33  1  0  0  0  0
  5 34  1  0  0  0  0
  9 35  1  0  0  0  0
 11 36  1  0  0  0  0
 13 37  1  0  0  0  0
 14 38  1  0  0  0  0
 18 39  1  0  0  0  0
 19 40  1  0  0  0  0
 21 41  1  0  0  0  0
 22 42  1  0  0  0  0
 22 43  1  0  0  0  0
 25 44  1  0  0  0  0
 26 45  1  0  0  0  0
 29 46  1  0  0  0  0
 29 47  1  0  0  0  0
 29 48  1  0  0  0  0
M  END
> <IC50[nM]>
2.7

$$$$
CHEMBL3265016
  -OEChem-05192314333D
 Structure written by MMmdl.
 48 52  0     0  0  0  0  0  0999 V2000
   -4.2568   -3.1050   13.5687 C   0  0  0  0  0  0  0  0  0  0  0  0
   -3.8730   -2.3616   14.7152 O   0  0  0  0  0  0  0  0  0  0  0  0
   -2.5250   -2.1116   14.8158 C   0  0  0  0  0  0  0  0  0  0  0  0
   -1.7470   -2.8700   15.6807 C   0  0  0  0  0  0  0  0  0  0  0  0
   -0.3902   -2.6106   15.8144 C   0  0  0  0  0  0  0  0  0  0  0  0
    0.2207   -1.5844   15.0868 C   0  0  0  0  0  0  0  0  0  0  0  0
    1.6046   -1.3596   15.3257 N   0  0  0  0  0  0  0  0  0  0  0  0
    2.5329   -0.4401   14.7638 C   0  0  0  0  0  0  0  0  0  0  0  0
    2.1751    0.3788   13.7311 N   0  0  0  0  0  0  0  0  0  0  0  0
    3.1086    1.2387   13.2176 C   0  0  0  0  0  0  0  0  0  0  0  0
    4.4159    1.2831   13.6998 C   0  0  0  0  0  0  0  0  0  0  0  0
    4.7435    0.4926   14.7566 N   0  0  0  0  0  0  0  0  0  0  0  0
    5.8975    0.3810   15.4862 C   0  0  0  0  0  0  0  0  0  0  0  0
    5.5917   -0.5286   16.5249 C   0  0  0  0  0  0  0  0  0  0  0  0
    4.3780   -1.0408   16.3703 N   0  0  0  0  0  0  0  0  0  0  0  0
    3.8370   -0.3906   15.3278 C   0  0  0  0  0  0  0  0  0  0  0  0
    2.6350    2.1602   12.1213 C   0  0  0  0  0  0  0  0  0  0  0  0
    3.5425    2.6402   11.1650 C   0  0  0  0  0  0  0  0  0  0  0  0
    3.1493    3.4616   10.1117 C   0  0  0  0  0  0  0  0  0  0  0  0
    1.8041    3.8212   10.0117 C   0  0  0  0  0  0  0  0  0  0  0  0
    1.0219    4.6165    9.0806 C   0  0  0  0  0  0  0  0  0  0  0  0
   -0.2682    4.5927    9.5377 C   0  0  0  0  0  0  0  0  0  0  0  0
   -0.3496    3.8668   10.6667 N   0  0  0  0  0  0  0  0  0  0  0  0
    0.8806    3.3533   11.0064 C   0  0  0  0  0  0  0  0  0  0  0  0
    1.2701    2.5323   12.0703 C   0  0  0  0  0  0  0  0  0  0  0  0
   -0.5547   -0.8186   14.1912 C   0  0  0  0  0  0  0  0  0  0  0  0
   -1.9427   -1.0874   14.0603 C   0  0  0  0  0  0  0  0  0  0  0  0
   -2.7500   -0.3519   13.2066 O   0  0  0  0  0  0  0  0  0  0  0  0
   -2.2281    0.6471   12.3512 C   0  0  0  0  0  0  0  0  0  0  0  0
   -5.3466   -3.2541   13.5756 H   0  0  0  0  0  0  0  0  0  0  0  0
   -3.9679   -2.5545   12.6613 H   0  0  0  0  0  0  0  0  0  0  0  0
   -3.7530   -4.0828   13.5803 H   0  0  0  0  0  0  0  0  0  0  0  0
   -2.2004   -3.6662   16.2525 H   0  0  0  0  0  0  0  0  0  0  0  0
    0.2023   -3.2098   16.4900 H   0  0  0  0  0  0  0  0  0  0  0  0
    5.0789    1.0043   12.8675 H   0  0  0  0  0  0  0  0  0  0  0  0
    4.6176    2.3229   13.9968 H   0  0  0  0  0  0  0  0  0  0  0  0
    6.8383    0.8802   15.3068 H   0  0  0  0  0  0  0  0  0  0  0  0
    6.2591   -0.7741   17.3377 H   0  0  0  0  0  0  0  0  0  0  0  0
    4.5829    2.3628   11.2488 H   0  0  0  0  0  0  0  0  0  0  0  0
    3.8695    3.8130    9.3877 H   0  0  0  0  0  0  0  0  0  0  0  0
    1.3866    5.1261    8.2010 H   0  0  0  0  0  0  0  0  0  0  0  0
   -1.1015    5.0864    9.0599 H   0  0  0  0  0  0  0  0  0  0  0  0
   -1.1900    3.7202   11.1884 H   0  0  0  0  0  0  0  0  0  0  0  0
    0.5639    2.1987   12.8162 H   0  0  0  0  0  0  0  0  0  0  0  0
   -0.0957   -0.0332   13.6091 H   0  0  0  0  0  0  0  0  0  0  0  0
   -3.0463    1.0961   11.7689 H   0  0  0  0  0  0  0  0  0  0  0  0
   -1.7369    1.4255   12.9536 H   0  0  0  0  0  0  0  0  0  0  0  0
   -1.4949    0.1965   11.6660 H   0  0  0  0  0  0  0  0  0  0  0  0
  1  2  1  0  0  0  0
  2  3  1  0  0  0  0
  3  4  2  0  0  0  0
  3 27  1  0  0  0  0
  4  5  1  0  0  0  0
  5  6  2  0  0  0  0
  6  7  1  0  0  0  0
  6 26  1  0  0  0  0
  7  8  2  0  0  0  0
  8  9  1  0  0  0  0
  8 16  1  0  0  0  0
  9 10  2  0  0  0  0
 10 11  1  0  0  0  0
 10 17  1  0  0  0  0
 11 12  1  0  0  0  0
 12 13  1  0  0  0  0
 12 16  1  0  0  0  0
 13 14  2  0  0  0  0
 14 15  1  0  0  0  0
 15 16  2  0  0  0  0
 17 18  2  0  0  0  0
 17 25  1  0  0  0  0
 18 19  1  0  0  0  0
 19 20  2  0  0  0  0
 20 21  1  0  0  0  0
 20 24  1  0  0  0  0
 21 22  2  0  0  0  0
 22 23  1  0  0  0  0
 23 24  1  0  0  0  0
 24 25  2  0  0  0  0
 26 27  2  0  0  0  0
 27 28  1  0  0  0  0
 28 29  1  0  0  0  0
  1 30  1  0  0  0  0
  1 31  1  0  0  0  0
  1 32  1  0  0  0  0
  4 33  1  0  0  0  0
  5 34  1  0  0  0  0
 11 35  1  0  0  0  0
 11 36  1  0  0  0  0
 13 37  1  0  0  0  0
 14 38  1  0  0  0  0
 18 39  1  0  0  0  0
 19 40  1  0  0  0  0
 21 41  1  0  0  0  0
 22 42  1  0  0  0  0
 23 43  1  0  0  0  0
 25 44  1  0  0  0  0
 26 45  1  0  0  0  0
 29 46  1  0  0  0  0
 29 47  1  0  0  0  0
 29 48  1  0  0  0  0
M  END
> <IC50[nM]>
2.7

$$$$
CHEMBL3265016
  -OEChem-05192314333D
 Structure written by MMmdl.
 48 52  0     1  0  0  0  0  0999 V2000
   -4.2568   -3.1050   13.5687 C   0  0  0  0  0  0  0  0  0  0  0  0
   -3.8730   -2.3616   14.7152 O   0  0  0  0  0  0  0  0  0  0  0  0
   -2.5250   -2.1116   14.8158 C   0  0  3  0  0  0  0  0  0  0  0  0
   -1.7470   -2.8700   15.6807 C   0  0  0  0  0  0  0  0  0  0  0  0
   -0.3902   -2.6106   15.8144 C   0  0  0  0  0  0  0  0  0  0  0  0
    0.2207   -1.5844   15.0868 C   0  0  0  0  0  0  0  0  0  0  0  0
    1.6046   -1.3596   15.3257 N   0  0  0  0  0  0  0  0  0  0  0  0
    2.5329   -0.4401   14.7638 C   0  0  0  0  0  0  0  0  0  0  0  0
    2.1751    0.3788   13.7311 N   0  0  0  0  0  0  0  0  0  0  0  0
    3.1086    1.2387   13.2176 C   0  0  0  0  0  0  0  0  0  0  0  0
    4.4159    1.2831   13.6998 C   0  0  0  0  0  0  0  0  0  0  0  0
    4.7435    0.4926   14.7566 N   0  0  0  0  0  0  0  0  0  0  0  0
    5.8975    0.3810   15.4862 C   0  0  0  0  0  0  0  0  0  0  0  0
    5.5917   -0.5286   16.5249 C   0  0  0  0  0  0  0  0  0  0  0  0
    4.3780   -1.0408   16.3703 N   0  0  0  0  0  0  0  0  0  0  0  0
    3.8370   -0.3906   15.3278 C   0  0  0  0  0  0  0  0  0  0  0  0
    2.6350    2.1602   12.1213 C   0  0  0  0  0  0  0  0  0  0  0  0
    3.5425    2.6402   11.1650 C   0  0  0  0  0  0  0  0  0  0  0  0
    3.1493    3.4616   10.1117 C   0  0  0  0  0  0  0  0  0  0  0  0
    1.8041    3.8212   10.0117 C   0  0  0  0  0  0  0  0  0  0  0  0
    1.0219    4.6165    9.0806 C   0  0  0  0  0  0  0  0  0  0  0  0
   -0.2682    4.5927    9.5377 C   0  0  0  0  0  0  0  0  0  0  0  0
   -0.3496    3.8668   10.6667 N   0  0  0  0  0  0  0  0  0  0  0  0
    0.8806    3.3533   11.0064 C   0  0  0  0  0  0  0  0  0  0  0  0
    1.2701    2.5323   12.0703 C   0  0  0  0  0  0  0  0  0  0  0  0
   -0.5547   -0.8186   14.1912 C   0  0  0  0  0  0  0  0  0  0  0  0
   -1.9427   -1.0874   14.0603 C   0  0  0  0  0  0  0  0  0  0  0  0
   -2.7500   -0.3519   13.2066 O   0  0  0  0  0  0  0  0  0  0  0  0
   -2.2281    0.6471   12.3512 C   0  0  0  0  0  0  0  0  0  0  0  0
   -5.3466   -3.2541   13.5756 H   0  0  0  0  0  0  0  0  0  0  0  0
   -3.9679   -2.5545   12.6613 H   0  0  0  0  0  0  0  0  0  0  0  0
   -3.7530   -4.0828   13.5803 H   0  0  0  0  0  0  0  0  0  0  0  0
   -2.3277   -2.8276   14.0043 H   0  0  0  0  0  0  0  0  0  0  0  0
   -2.2004   -3.6662   16.2525 H   0  0  0  0  0  0  0  0  0  0  0  0
    0.2023   -3.2098   16.4900 H   0  0  0  0  0  0  0  0  0  0  0  0
    5.1512    1.9301   13.2447 H   0  0  0  0  0  0  0  0  0  0  0  0
    6.8383    0.8802   15.3068 H   0  0  0  0  0  0  0  0  0  0  0  0
    6.2591   -0.7741   17.3377 H   0  0  0  0  0  0  0  0  0  0  0  0
    4.5829    2.3628   11.2488 H   0  0  0  0  0  0  0  0  0  0  0  0
    3.8695    3.8130    9.3877 H   0  0  0  0  0  0  0  0  0  0  0  0
    1.3866    5.1261    8.2010 H   0  0  0  0  0  0  0  0  0  0  0  0
   -1.1015    5.0864    9.0599 H   0  0  0  0  0  0  0  0  0  0  0  0
   -1.1900    3.7202   11.1884 H   0  0  0  0  0  0  0  0  0  0  0  0
    0.5639    2.1987   12.8162 H   0  0  0  0  0  0  0  0  0  0  0  0
   -0.0957   -0.0332   13.6091 H   0  0  0  0  0  0  0  0  0  0  0  0
   -3.0463    1.0961   11.7689 H   0  0  0  0  0  0  0  0  0  0  0  0
   -1.7369    1.4255   12.9536 H   0  0  0  0  0  0  0  0  0  0  0  0
   -1.4949    0.1965   11.6660 H   0  0  0  0  0  0  0  0  0  0  0  0
  1  2  1  0  0  0  0
  2  3  1  0  0  0  0
  3  4  1  0  0  0  0
  3 27  1  0  0  0  0
  4  5  2  0  0  0  0
  5  6  1  0  0  0  0
  6  7  2  0  0  0  0
  6 26  1  0  0  0  0
  7  8  1  0  0  0  0
  8  9  2  0  0  0  0
  8 16  1  0  0  0  0
  9 10  1  0  0  0  0
 10 11  2  0  0  0  0
 10 17  1  0  0  0  0
 11 12  1  0  0  0  0
 12 13  1  0  0  0  0
 12 16  1  0  0  0  0
 13 14  2  0  0  0  0
 14 15  1  0  0  0  0
 15 16  2  0  0  0  0
 17 18  2  0  0  0  0
 17 25  1  0  0  0  0
 18 19  1  0  0  0  0
 19 20  2  0  0  0  0
 20 21  1  0  0  0  0
 20 24  1  0  0  0  0
 21 22  2  0  0  0  0
 22 23  1  0  0  0  0
 23 24  1  0  0  0  0
 24 25  2  0  0  0  0
 26 27  2  0  0  0  0
 27 28  1  0  0  0  0
 28 29  1  0  0  0  0
  1 30  1  0  0  0  0
  1 31  1  0  0  0  0
  1 32  1  0  0  0  0
  3 33  1  0  0  0  0
  4 34  1  0  0  0  0
  5 35  1  0  0  0  0
 11 36  1  0  0  0  0
 13 37  1  0  0  0  0
 14 38  1  0  0  0  0
 18 39  1  0  0  0  0
 19 40  1  0  0  0  0
 21 41  1  0  0  0  0
 22 42  1  0  0  0  0
 23 43  1  0  0  0  0
 25 44  1  0  0  0  0
 26 45  1  0  0  0  0
 29 46  1  0  0  0  0
 29 47  1  0  0  0  0
 29 48  1  0  0  0  0
M  END
> <IC50[nM]>
2.7

$$$$
CHEMBL3265016
  -OEChem-05192314333D
 Structure written by MMmdl.
 48 52  0     0  0  0  0  0  0999 V2000
   -4.2568   -3.1050   13.5687 C   0  0  0  0  0  0  0  0  0  0  0  0
   -3.8730   -2.3616   14.7152 O   0  0  0  0  0  0  0  0  0  0  0  0
   -2.5250   -2.1116   14.8158 C   0  0  0  0  0  0  0  0  0  0  0  0
   -1.7470   -2.8700   15.6807 C   0  0  0  0  0  0  0  0  0  0  0  0
   -0.3902   -2.6106   15.8144 C   0  0  0  0  0  0  0  0  0  0  0  0
    0.2207   -1.5844   15.0868 C   0  0  0  0  0  0  0  0  0  0  0  0
    1.6046   -1.3596   15.3257 N   0  0  0  0  0  0  0  0  0  0  0  0
    2.5329   -0.4401   14.7638 C   0  0  0  0  0  0  0  0  0  0  0  0
    2.1751    0.3788   13.7311 N   0  0  0  0  0  0  0  0  0  0  0  0
    3.1086    1.2387   13.2176 C   0  0  0  0  0  0  0  0  0  0  0  0
    4.4159    1.2831   13.6998 C   0  0  0  0  0  0  0  0  0  0  0  0
    4.7435    0.4926   14.7566 N   0  0  0  0  0  0  0  0  0  0  0  0
    5.8975    0.3810   15.4862 C   0  0  0  0  0  0  0  0  0  0  0  0
    5.5917   -0.5286   16.5249 C   0  0  0  0  0  0  0  0  0  0  0  0
    4.3780   -1.0408   16.3703 N   0  0  0  0  0  0  0  0  0  0  0  0
    3.8370   -0.3906   15.3278 C   0  0  0  0  0  0  0  0  0  0  0  0
    2.6350    2.1602   12.1213 C   0  0  0  0  0  0  0  0  0  0  0  0
    3.5425    2.6402   11.1650 C   0  0  0  0  0  0  0  0  0  0  0  0
    3.1493    3.4616   10.1117 C   0  0  0  0  0  0  0  0  0  0  0  0
    1.8041    3.8212   10.0117 C   0  0  0  0  0  0  0  0  0  0  0  0
    1.0219    4.6165    9.0806 C   0  0  0  0  0  0  0  0  0  0  0  0
   -0.2682    4.5927    9.5377 C   0  0  0  0  0  0  0  0  0  0  0  0
   -0.3496    3.8668   10.6667 N   0  0  0  0  0  0  0  0  0  0  0  0
    0.8806    3.3533   11.0064 C   0  0  0  0  0  0  0  0  0  0  0  0
    1.2701    2.5323   12.0703 C   0  0  0  0  0  0  0  0  0  0  0  0
   -0.5547   -0.8186   14.1912 C   0  0  0  0  0  0  0  0  0  0  0  0
   -1.9427   -1.0874   14.0603 C   0  0  0  0  0  0  0  0  0  0  0  0
   -2.7500   -0.3519   13.2066 O   0  0  0  0  0  0  0  0  0  0  0  0
   -2.2281    0.6471   12.3512 C   0  0  0  0  0  0  0  0  0  0  0  0
   -5.3466   -3.2541   13.5756 H   0  0  0  0  0  0  0  0  0  0  0  0
   -3.9679   -2.5545   12.6613 H   0  0  0  0  0  0  0  0  0  0  0  0
   -3.7530   -4.0828   13.5803 H   0  0  0  0  0  0  0  0  0  0  0  0
   -2.2004   -3.6662   16.2525 H   0  0  0  0  0  0  0  0  0  0  0  0
   -0.2176   -2.3862   16.8774 H   0  0  0  0  0  0  0  0  0  0  0  0
    0.1341   -3.5396   15.5459 H   0  0  0  0  0  0  0  0  0  0  0  0
    5.1512    1.9301   13.2447 H   0  0  0  0  0  0  0  0  0  0  0  0
    6.8383    0.8802   15.3068 H   0  0  0  0  0  0  0  0  0  0  0  0
    6.2591   -0.7741   17.3377 H   0  0  0  0  0  0  0  0  0  0  0  0
    4.5829    2.3628   11.2488 H   0  0  0  0  0  0  0  0  0  0  0  0
    3.8695    3.8130    9.3877 H   0  0  0  0  0  0  0  0  0  0  0  0
    1.3866    5.1261    8.2010 H   0  0  0  0  0  0  0  0  0  0  0  0
   -1.1015    5.0864    9.0599 H   0  0  0  0  0  0  0  0  0  0  0  0
   -1.1900    3.7202   11.1884 H   0  0  0  0  0  0  0  0  0  0  0  0
    0.5639    2.1987   12.8162 H   0  0  0  0  0  0  0  0  0  0  0  0
   -0.0957   -0.0332   13.6091 H   0  0  0  0  0  0  0  0  0  0  0  0
   -3.0463    1.0961   11.7689 H   0  0  0  0  0  0  0  0  0  0  0  0
   -1.7369    1.4255   12.9536 H   0  0  0  0  0  0  0  0  0  0  0  0
   -1.4949    0.1965   11.6660 H   0  0  0  0  0  0  0  0  0  0  0  0
  1  2  1  0  0  0  0
  2  3  1  0  0  0  0
  3  4  2  0  0  0  0
  3 27  1  0  0  0  0
  4  5  1  0  0  0  0
  5  6  1  0  0  0  0
  6  7  2  0  0  0  0
  6 26  1  0  0  0  0
  7  8  1  0  0  0  0
  8  9  2  0  0  0  0
  8 16  1  0  0  0  0
  9 10  1  0  0  0  0
 10 11  2  0  0  0  0
 10 17  1  0  0  0  0
 11 12  1  0  0  0  0
 12 13  1  0  0  0  0
 12 16  1  0  0  0  0
 13 14  2  0  0  0  0
 14 15  1  0  0  0  0
 15 16  2  0  0  0  0
 17 18  2  0  0  0  0
 17 25  1  0  0  0  0
 18 19  1  0  0  0  0
 19 20  2  0  0  0  0
 20 21  1  0  0  0  0
 20 24  1  0  0  0  0
 21 22  2  0  0  0  0
 22 23  1  0  0  0  0
 23 24  1  0  0  0  0
 24 25  2  0  0  0  0
 26 27  2  0  0  0  0
 27 28  1  0  0  0  0
 28 29  1  0  0  0  0
  1 30  1  0  0  0  0
  1 31  1  0  0  0  0
  1 32  1  0  0  0  0
  4 33  1  0  0  0  0
  5 34  1  0  0  0  0
  5 35  1  0  0  0  0
 11 36  1  0  0  0  0
 13 37  1  0  0  0  0
 14 38  1  0  0  0  0
 18 39  1  0  0  0  0
 19 40  1  0  0  0  0
 21 41  1  0  0  0  0
 22 42  1  0  0  0  0
 23 43  1  0  0  0  0
 25 44  1  0  0  0  0
 26 45  1  0  0  0  0
 29 46  1  0  0  0  0
 29 47  1  0  0  0  0
 29 48  1  0  0  0  0
M  END
> <IC50[nM]>
2.7

$$$$
CHEMBL3265016
  -OEChem-05192314333D
 Structure written by MMmdl.
 48 52  0     0  0  0  0  0  0999 V2000
   -4.2568   -3.1050   13.5687 C   0  0  0  0  0  0  0  0  0  0  0  0
   -3.8730   -2.3616   14.7152 O   0  0  0  0  0  0  0  0  0  0  0  0
   -2.5250   -2.1116   14.8158 C   0  0  0  0  0  0  0  0  0  0  0  0
   -1.7470   -2.8700   15.6807 C   0  0  0  0  0  0  0  0  0  0  0  0
   -0.3902   -2.6106   15.8144 C   0  0  0  0  0  0  0  0  0  0  0  0
    0.2207   -1.5844   15.0868 C   0  0  0  0  0  0  0  0  0  0  0  0
    1.6046   -1.3596   15.3257 N   0  0  0  0  0  0  0  0  0  0  0  0
    2.5329   -0.4401   14.7638 C   0  0  0  0  0  0  0  0  0  0  0  0
    2.1751    0.3788   13.7311 N   0  0  0  0  0  0  0  0  0  0  0  0
    3.1086    1.2387   13.2176 C   0  0  0  0  0  0  0  0  0  0  0  0
    4.4159    1.2831   13.6998 C   0  0  0  0  0  0  0  0  0  0  0  0
    4.7435    0.4926   14.7566 N   0  0  0  0  0  0  0  0  0  0  0  0
    5.8975    0.3810   15.4862 C   0  0  0  0  0  0  0  0  0  0  0  0
    5.5917   -0.5286   16.5249 C   0  0  0  0  0  0  0  0  0  0  0  0
    4.3780   -1.0408   16.3703 N   0  0  0  0  0  0  0  0  0  0  0  0
    3.8370   -0.3906   15.3278 C   0  0  0  0  0  0  0  0  0  0  0  0
    2.6350    2.1602   12.1213 C   0  0  0  0  0  0  0  0  0  0  0  0
    3.5425    2.6402   11.1650 C   0  0  0  0  0  0  0  0  0  0  0  0
    3.1493    3.4616   10.1117 C   0  0  0  0  0  0  0  0  0  0  0  0
    1.8041    3.8212   10.0117 C   0  0  0  0  0  0  0  0  0  0  0  0
    1.0219    4.6165    9.0806 C   0  0  0  0  0  0  0  0  0  0  0  0
   -0.2682    4.5927    9.5377 C   0  0  0  0  0  0  0  0  0  0  0  0
   -0.3496    3.8668   10.6667 N   0  0  0  0  0  0  0  0  0  0  0  0
    0.8806    3.3533   11.0064 C   0  0  0  0  0  0  0  0  0  0  0  0
    1.2701    2.5323   12.0703 C   0  0  0  0  0  0  0  0  0  0  0  0
   -0.5547   -0.8186   14.1912 C   0  0  0  0  0  0  0  0  0  0  0  0
   -1.9427   -1.0874   14.0603 C   0  0  0  0  0  0  0  0  0  0  0  0
   -2.7500   -0.3519   13.2066 O   0  0  0  0  0  0  0  0  0  0  0  0
   -2.2281    0.6471   12.3512 C   0  0  0  0  0  0  0  0  0  0  0  0
   -5.3466   -3.2541   13.5756 H   0  0  0  0  0  0  0  0  0  0  0  0
   -3.9679   -2.5545   12.6613 H   0  0  0  0  0  0  0  0  0  0  0  0
   -3.7530   -4.0828   13.5803 H   0  0  0  0  0  0  0  0  0  0  0  0
   -2.2004   -3.6662   16.2525 H   0  0  0  0  0  0  0  0  0  0  0  0
    0.2023   -3.2098   16.4900 H   0  0  0  0  0  0  0  0  0  0  0  0
    5.1512    1.9301   13.2447 H   0  0  0  0  0  0  0  0  0  0  0  0
    6.8383    0.8802   15.3068 H   0  0  0  0  0  0  0  0  0  0  0  0
    6.2591   -0.7741   17.3377 H   0  0  0  0  0  0  0  0  0  0  0  0
    4.5829    2.3628   11.2488 H   0  0  0  0  0  0  0  0  0  0  0  0
    3.8695    3.8130    9.3877 H   0  0  0  0  0  0  0  0  0  0  0  0
    1.3866    5.1261    8.2010 H   0  0  0  0  0  0  0  0  0  0  0  0
   -1.1015    5.0864    9.0599 H   0  0  0  0  0  0  0  0  0  0  0  0
   -1.1900    3.7202   11.1884 H   0  0  0  0  0  0  0  0  0  0  0  0
    0.5639    2.1987   12.8162 H   0  0  0  0  0  0  0  0  0  0  0  0
   -0.4606    0.2317   14.5042 H   0  0  0  0  0  0  0  0  0  0  0  0
   -0.1090   -0.9452   13.1935 H   0  0  0  0  0  0  0  0  0  0  0  0
   -3.0463    1.0961   11.7689 H   0  0  0  0  0  0  0  0  0  0  0  0
   -1.7369    1.4255   12.9536 H   0  0  0  0  0  0  0  0  0  0  0  0
   -1.4949    0.1965   11.6660 H   0  0  0  0  0  0  0  0  0  0  0  0
  1  2  1  0  0  0  0
  2  3  1  0  0  0  0
  3  4  1  0  0  0  0
  3 27  2  0  0  0  0
  4  5  2  0  0  0  0
  5  6  1  0  0  0  0
  6  7  2  0  0  0  0
  6 26  1  0  0  0  0
  7  8  1  0  0  0  0
  8  9  2  0  0  0  0
  8 16  1  0  0  0  0
  9 10  1  0  0  0  0
 10 11  2  0  0  0  0
 10 17  1  0  0  0  0
 11 12  1  0  0  0  0
 12 13  1  0  0  0  0
 12 16  1  0  0  0  0
 13 14  2  0  0  0  0
 14 15  1  0  0  0  0
 15 16  2  0  0  0  0
 17 18  2  0  0  0  0
 17 25  1  0  0  0  0
 18 19  1  0  0  0  0
 19 20  2  0  0  0  0
 20 21  1  0  0  0  0
 20 24  1  0  0  0  0
 21 22  2  0  0  0  0
 22 23  1  0  0  0  0
 23 24  1  0  0  0  0
 24 25  2  0  0  0  0
 26 27  1  0  0  0  0
 27 28  1  0  0  0  0
 28 29  1  0  0  0  0
  1 30  1  0  0  0  0
  1 31  1  0  0  0  0
  1 32  1  0  0  0  0
  4 33  1  0  0  0  0
  5 34  1  0  0  0  0
 11 35  1  0  0  0  0
 13 36  1  0  0  0  0
 14 37  1  0  0  0  0
 18 38  1  0  0  0  0
 19 39  1  0  0  0  0
 21 40  1  0  0  0  0
 22 41  1  0  0  0  0
 23 42  1  0  0  0  0
 25 43  1  0  0  0  0
 26 44  1  0  0  0  0
 26 45  1  0  0  0  0
 29 46  1  0  0  0  0
 29 47  1  0  0  0  0
 29 48  1  0  0  0  0
M  END
> <IC50[nM]>
2.7

$$$$
CHEMBL3265016
  -OEChem-05192314333D
 Structure written by MMmdl.
 48 52  0     0  0  0  0  0  0999 V2000
   -4.2568   -3.1050   13.5687 C   0  0  0  0  0  0  0  0  0  0  0  0
   -3.8730   -2.3616   14.7152 O   0  0  0  0  0  0  0  0  0  0  0  0
   -2.5250   -2.1116   14.8158 C   0  0  0  0  0  0  0  0  0  0  0  0
   -1.7470   -2.8700   15.6807 C   0  0  0  0  0  0  0  0  0  0  0  0
   -0.3902   -2.6106   15.8144 C   0  0  0  0  0  0  0  0  0  0  0  0
    0.2207   -1.5844   15.0868 C   0  0  0  0  0  0  0  0  0  0  0  0
    1.6046   -1.3596   15.3257 N   0  0  0  0  0  0  0  0  0  0  0  0
    2.5329   -0.4401   14.7638 C   0  0  0  0  0  0  0  0  0  0  0  0
    2.1751    0.3788   13.7311 N   0  0  0  0  0  0  0  0  0  0  0  0
    3.1086    1.2387   13.2176 C   0  0  0  0  0  0  0  0  0  0  0  0
    4.4159    1.2831   13.6998 C   0  0  0  0  0  0  0  0  0  0  0  0
    4.7435    0.4926   14.7566 N   0  0  0  0  0  0  0  0  0  0  0  0
    5.8975    0.3810   15.4862 C   0  0  0  0  0  0  0  0  0  0  0  0
    5.5917   -0.5286   16.5249 C   0  0  0  0  0  0  0  0  0  0  0  0
    4.3780   -1.0408   16.3703 N   0  0  0  0  0  0  0  0  0  0  0  0
    3.8370   -0.3906   15.3278 C   0  0  0  0  0  0  0  0  0  0  0  0
    2.6350    2.1602   12.1213 C   0  0  0  0  0  0  0  0  0  0  0  0
    3.5425    2.6402   11.1650 C   0  0  0  0  0  0  0  0  0  0  0  0
    3.1493    3.4616   10.1117 C   0  0  0  0  0  0  0  0  0  0  0  0
    1.8041    3.8212   10.0117 C   0  0  0  0  0  0  0  0  0  0  0  0
    1.0219    4.6165    9.0806 C   0  0  0  0  0  0  0  0  0  0  0  0
   -0.2682    4.5927    9.5377 C   0  0  0  0  0  0  0  0  0  0  0  0
   -0.3496    3.8668   10.6667 N   0  0  0  0  0  0  0  0  0  0  0  0
    0.8806    3.3533   11.0064 C   0  0  0  0  0  0  0  0  0  0  0  0
    1.2701    2.5323   12.0703 C   0  0  0  0  0  0  0  0  0  0  0  0
   -0.5547   -0.8186   14.1912 C   0  0  0  0  0  0  0  0  0  0  0  0
   -1.9427   -1.0874   14.0603 C   0  0  0  0  0  0  0  0  0  0  0  0
   -2.7500   -0.3519   13.2066 O   0  0  0  0  0  0  0  0  0  0  0  0
   -2.2281    0.6471   12.3512 C   0  0  0  0  0  0  0  0  0  0  0  0
   -5.3466   -3.2541   13.5756 H   0  0  0  0  0  0  0  0  0  0  0  0
   -3.9679   -2.5545   12.6613 H   0  0  0  0  0  0  0  0  0  0  0  0
   -3.7530   -4.0828   13.5803 H   0  0  0  0  0  0  0  0  0  0  0  0
   -2.2004   -3.6662   16.2525 H   0  0  0  0  0  0  0  0  0  0  0  0
    0.2023   -3.2098   16.4900 H   0  0  0  0  0  0  0  0  0  0  0  0
    5.0789    1.0043   12.8675 H   0  0  0  0  0  0  0  0  0  0  0  0
    4.6176    2.3229   13.9968 H   0  0  0  0  0  0  0  0  0  0  0  0
    6.8383    0.8802   15.3068 H   0  0  0  0  0  0  0  0  0  0  0  0
    6.2591   -0.7741   17.3377 H   0  0  0  0  0  0  0  0  0  0  0  0
    4.5829    2.3628   11.2488 H   0  0  0  0  0  0  0  0  0  0  0  0
    3.8695    3.8130    9.3877 H   0  0  0  0  0  0  0  0  0  0  0  0
    1.3971    5.6502    9.0553 H   0  0  0  0  0  0  0  0  0  0  0  0
    1.0756    4.1821    8.0714 H   0  0  0  0  0  0  0  0  0  0  0  0
   -1.1015    5.0864    9.0599 H   0  0  0  0  0  0  0  0  0  0  0  0
    0.5639    2.1987   12.8162 H   0  0  0  0  0  0  0  0  0  0  0  0
   -0.0957   -0.0332   13.6091 H   0  0  0  0  0  0  0  0  0  0  0  0
   -3.0463    1.0961   11.7689 H   0  0  0  0  0  0  0  0  0  0  0  0
   -1.7369    1.4255   12.9536 H   0  0  0  0  0  0  0  0  0  0  0  0
   -1.4949    0.1965   11.6660 H   0  0  0  0  0  0  0  0  0  0  0  0
  1  2  1  0  0  0  0
  2  3  1  0  0  0  0
  3  4  2  0  0  0  0
  3 27  1  0  0  0  0
  4  5  1  0  0  0  0
  5  6  2  0  0  0  0
  6  7  1  0  0  0  0
  6 26  1  0  0  0  0
  7  8  2  0  0  0  0
  8  9  1  0  0  0  0
  8 16  1  0  0  0  0
  9 10  2  0  0  0  0
 10 11  1  0  0  0  0
 10 17  1  0  0  0  0
 11 12  1  0  0  0  0
 12 13  1  0  0  0  0
 12 16  1  0  0  0  0
 13 14  2  0  0  0  0
 14 15  1  0  0  0  0
 15 16  2  0  0  0  0
 17 18  2  0  0  0  0
 17 25  1  0  0  0  0
 18 19  1  0  0  0  0
 19 20  2  0  0  0  0
 20 21  1  0  0  0  0
 20 24  1  0  0  0  0
 21 22  1  0  0  0  0
 22 23  2  0  0  0  0
 23 24  1  0  0  0  0
 24 25  2  0  0  0  0
 26 27  2  0  0  0  0
 27 28  1  0  0  0  0
 28 29  1  0  0  0  0
  1 30  1  0  0  0  0
  1 31  1  0  0  0  0
  1 32  1  0  0  0  0
  4 33  1  0  0  0  0
  5 34  1  0  0  0  0
 11 35  1  0  0  0  0
 11 36  1  0  0  0  0
 13 37  1  0  0  0  0
 14 38  1  0  0  0  0
 18 39  1  0  0  0  0
 19 40  1  0  0  0  0
 21 41  1  0  0  0  0
 21 42  1  0  0  0  0
 22 43  1  0  0  0  0
 25 44  1  0  0  0  0
 26 45  1  0  0  0  0
 29 46  1  0  0  0  0
 29 47  1  0  0  0  0
 29 48  1  0  0  0  0
M  END
> <IC50[nM]>
2.7

$$$$
CHEMBL3265016
  -OEChem-05192314333D
 Structure written by MMmdl.
 48 52  0     0  0  0  0  0  0999 V2000
   -4.2568   -3.1050   13.5687 C   0  0  0  0  0  0  0  0  0  0  0  0
   -3.8730   -2.3616   14.7152 O   0  0  0  0  0  0  0  0  0  0  0  0
   -2.5250   -2.1116   14.8158 C   0  0  0  0  0  0  0  0  0  0  0  0
   -1.7470   -2.8700   15.6807 C   0  0  0  0  0  0  0  0  0  0  0  0
   -0.3902   -2.6106   15.8144 C   0  0  0  0  0  0  0  0  0  0  0  0
    0.2207   -1.5844   15.0868 C   0  0  0  0  0  0  0  0  0  0  0  0
    1.6046   -1.3596   15.3257 N   0  0  0  0  0  0  0  0  0  0  0  0
    2.5329   -0.4401   14.7638 C   0  0  0  0  0  0  0  0  0  0  0  0
    2.1751    0.3788   13.7311 N   0  0  0  0  0  0  0  0  0  0  0  0
    3.1086    1.2387   13.2176 C   0  0  0  0  0  0  0  0  0  0  0  0
    4.4159    1.2831   13.6998 C   0  0  0  0  0  0  0  0  0  0  0  0
    4.7435    0.4926   14.7566 N   0  0  0  0  0  0  0  0  0  0  0  0
    5.8975    0.3810   15.4862 C   0  0  0  0  0  0  0  0  0  0  0  0
    5.5917   -0.5286   16.5249 C   0  0  0  0  0  0  0  0  0  0  0  0
    4.3780   -1.0408   16.3703 N   0  0  0  0  0  0  0  0  0  0  0  0
    3.8370   -0.3906   15.3278 C   0  0  0  0  0  0  0  0  0  0  0  0
    2.6350    2.1602   12.1213 C   0  0  0  0  0  0  0  0  0  0  0  0
    3.5425    2.6402   11.1650 C   0  0  0  0  0  0  0  0  0  0  0  0
    3.1493    3.4616   10.1117 C   0  0  0  0  0  0  0  0  0  0  0  0
    1.8041    3.8212   10.0117 C   0  0  0  0  0  0  0  0  0  0  0  0
    1.0219    4.6165    9.0806 C   0  0  0  0  0  0  0  0  0  0  0  0
   -0.2682    4.5927    9.5377 C   0  0  0  0  0  0  0  0  0  0  0  0
   -0.3496    3.8668   10.6667 N   0  0  0  0  0  0  0  0  0  0  0  0
    0.8806    3.3533   11.0064 C   0  0  0  0  0  0  0  0  0  0  0  0
    1.2701    2.5323   12.0703 C   0  0  0  0  0  0  0  0  0  0  0  0
   -0.5547   -0.8186   14.1912 C   0  0  0  0  0  0  0  0  0  0  0  0
   -1.9427   -1.0874   14.0603 C   0  0  0  0  0  0  0  0  0  0  0  0
   -2.7500   -0.3519   13.2066 O   0  0  0  0  0  0  0  0  0  0  0  0
   -2.2281    0.6471   12.3512 C   0  0  0  0  0  0  0  0  0  0  0  0
   -5.3466   -3.2541   13.5756 H   0  0  0  0  0  0  0  0  0  0  0  0
   -3.9679   -2.5545   12.6613 H   0  0  0  0  0  0  0  0  0  0  0  0
   -3.7530   -4.0828   13.5803 H   0  0  0  0  0  0  0  0  0  0  0  0
   -2.2004   -3.6662   16.2525 H   0  0  0  0  0  0  0  0  0  0  0  0
    0.2023   -3.2098   16.4900 H   0  0  0  0  0  0  0  0  0  0  0  0
    5.0789    1.0043   12.8675 H   0  0  0  0  0  0  0  0  0  0  0  0
    4.6176    2.3229   13.9968 H   0  0  0  0  0  0  0  0  0  0  0  0
    6.8383    0.8802   15.3068 H   0  0  0  0  0  0  0  0  0  0  0  0
    6.2591   -0.7741   17.3377 H   0  0  0  0  0  0  0  0  0  0  0  0
    4.5829    2.3628   11.2488 H   0  0  0  0  0  0  0  0  0  0  0  0
    3.8695    3.8130    9.3877 H   0  0  0  0  0  0  0  0  0  0  0  0
    1.3866    5.1261    8.2010 H   0  0  0  0  0  0  0  0  0  0  0  0
   -0.5996    5.6213    9.7429 H   0  0  0  0  0  0  0  0  0  0  0  0
   -0.9169    4.1446    8.7706 H   0  0  0  0  0  0  0  0  0  0  0  0
    0.5639    2.1987   12.8162 H   0  0  0  0  0  0  0  0  0  0  0  0
   -0.0957   -0.0332   13.6091 H   0  0  0  0  0  0  0  0  0  0  0  0
   -3.0463    1.0961   11.7689 H   0  0  0  0  0  0  0  0  0  0  0  0
   -1.7369    1.4255   12.9536 H   0  0  0  0  0  0  0  0  0  0  0  0
   -1.4949    0.1965   11.6660 H   0  0  0  0  0  0  0  0  0  0  0  0
  1  2  1  0  0  0  0
  2  3  1  0  0  0  0
  3  4  2  0  0  0  0
  3 27  1  0  0  0  0
  4  5  1  0  0  0  0
  5  6  2  0  0  0  0
  6  7  1  0  0  0  0
  6 26  1  0  0  0  0
  7  8  2  0  0  0  0
  8  9  1  0  0  0  0
  8 16  1  0  0  0  0
  9 10  2  0  0  0  0
 10 11  1  0  0  0  0
 10 17  1  0  0  0  0
 11 12  1  0  0  0  0
 12 13  1  0  0  0  0
 12 16  1  0  0  0  0
 13 14  2  0  0  0  0
 14 15  1  0  0  0  0
 15 16  2  0  0  0  0
 17 18  1  0  0  0  0
 17 25  2  0  0  0  0
 18 19  2  0  0  0  0
 19 20  1  0  0  0  0
 20 21  2  0  0  0  0
 20 24  1  0  0  0  0
 21 22  1  0  0  0  0
 22 23  1  0  0  0  0
 23 24  2  0  0  0  0
 24 25  1  0  0  0  0
 26 27  2  0  0  0  0
 27 28  1  0  0  0  0
 28 29  1  0  0  0  0
  1 30  1  0  0  0  0
  1 31  1  0  0  0  0
  1 32  1  0  0  0  0
  4 33  1  0  0  0  0
  5 34  1  0  0  0  0
 11 35  1  0  0  0  0
 11 36  1  0  0  0  0
 13 37  1  0  0  0  0
 14 38  1  0  0  0  0
 18 39  1  0  0  0  0
 19 40  1  0  0  0  0
 21 41  1  0  0  0  0
 22 42  1  0  0  0  0
 22 43  1  0  0  0  0
 25 44  1  0  0  0  0
 26 45  1  0  0  0  0
 29 46  1  0  0  0  0
 29 47  1  0  0  0  0
 29 48  1  0  0  0  0
M  END
> <IC50[nM]>
2.7

$$$$
CHEMBL3265016
  -OEChem-05192314333D
 Structure written by MMmdl.
 48 52  0     0  0  0  0  0  0999 V2000
   -4.2568   -3.1050   13.5687 C   0  0  0  0  0  0  0  0  0  0  0  0
   -3.8730   -2.3616   14.7152 O   0  0  0  0  0  0  0  0  0  0  0  0
   -2.5250   -2.1116   14.8158 C   0  0  0  0  0  0  0  0  0  0  0  0
   -1.7470   -2.8700   15.6807 C   0  0  0  0  0  0  0  0  0  0  0  0
   -0.3902   -2.6106   15.8144 C   0  0  0  0  0  0  0  0  0  0  0  0
    0.2207   -1.5844   15.0868 C   0  0  0  0  0  0  0  0  0  0  0  0
    1.6046   -1.3596   15.3257 N   0  0  0  0  0  0  0  0  0  0  0  0
    2.5329   -0.4401   14.7638 C   0  0  0  0  0  0  0  0  0  0  0  0
    2.1751    0.3788   13.7311 N   0  0  0  0  0  0  0  0  0  0  0  0
    3.1086    1.2387   13.2176 C   0  0  0  0  0  0  0  0  0  0  0  0
    4.4159    1.2831   13.6998 C   0  0  0  0  0  0  0  0  0  0  0  0
    4.7435    0.4926   14.7566 N   0  0  0  0  0  0  0  0  0  0  0  0
    5.8975    0.3810   15.4862 C   0  0  0  0  0  0  0  0  0  0  0  0
    5.5917   -0.5286   16.5249 C   0  0  0  0  0  0  0  0  0  0  0  0
    4.3780   -1.0408   16.3703 N   0  0  0  0  0  0  0  0  0  0  0  0
    3.8370   -0.3906   15.3278 C   0  0  0  0  0  0  0  0  0  0  0  0
    2.6350    2.1602   12.1213 C   0  0  0  0  0  0  0  0  0  0  0  0
    3.5425    2.6402   11.1650 C   0  0  0  0  0  0  0  0  0  0  0  0
    3.1493    3.4616   10.1117 C   0  0  0  0  0  0  0  0  0  0  0  0
    1.8041    3.8212   10.0117 C   0  0  0  0  0  0  0  0  0  0  0  0
    1.0219    4.6165    9.0806 C   0  0  0  0  0  0  0  0  0  0  0  0
   -0.2682    4.5927    9.5377 C   0  0  0  0  0  0  0  0  0  0  0  0
   -0.3496    3.8668   10.6667 N   0  0  0  0  0  0  0  0  0  0  0  0
    0.8806    3.3533   11.0064 C   0  0  0  0  0  0  0  0  0  0  0  0
    1.2701    2.5323   12.0703 C   0  0  0  0  0  0  0  0  0  0  0  0
   -0.5547   -0.8186   14.1912 C   0  0  0  0  0  0  0  0  0  0  0  0
   -1.9427   -1.0874   14.0603 C   0  0  0  0  0  0  0  0  0  0  0  0
   -2.7500   -0.3519   13.2066 O   0  0  0  0  0  0  0  0  0  0  0  0
   -2.2281    0.6471   12.3512 C   0  0  0  0  0  0  0  0  0  0  0  0
   -5.3466   -3.2541   13.5756 H   0  0  0  0  0  0  0  0  0  0  0  0
   -3.9679   -2.5545   12.6613 H   0  0  0  0  0  0  0  0  0  0  0  0
   -3.7530   -4.0828   13.5803 H   0  0  0  0  0  0  0  0  0  0  0  0
   -2.2004   -3.6662   16.2525 H   0  0  0  0  0  0  0  0  0  0  0  0
    0.2023   -3.2098   16.4900 H   0  0  0  0  0  0  0  0  0  0  0  0
    1.9995   -1.9616   16.0197 H   0  0  0  0  0  0  0  0  0  0  0  0
    5.0789    1.0043   12.8675 H   0  0  0  0  0  0  0  0  0  0  0  0
    4.6176    2.3229   13.9968 H   0  0  0  0  0  0  0  0  0  0  0  0
    6.8383    0.8802   15.3068 H   0  0  0  0  0  0  0  0  0  0  0  0
    6.2591   -0.7741   17.3377 H   0  0  0  0  0  0  0  0  0  0  0  0
    4.5829    2.3628   11.2488 H   0  0  0  0  0  0  0  0  0  0  0  0
    3.8695    3.8130    9.3877 H   0  0  0  0  0  0  0  0  0  0  0  0
    1.3866    5.1261    8.2010 H   0  0  0  0  0  0  0  0  0  0  0  0
   -1.1015    5.0864    9.0599 H   0  0  0  0  0  0  0  0  0  0  0  0
    0.5639    2.1987   12.8162 H   0  0  0  0  0  0  0  0  0  0  0  0
   -0.0957   -0.0332   13.6091 H   0  0  0  0  0  0  0  0  0  0  0  0
   -3.0463    1.0961   11.7689 H   0  0  0  0  0  0  0  0  0  0  0  0
   -1.7369    1.4255   12.9536 H   0  0  0  0  0  0  0  0  0  0  0  0
   -1.4949    0.1965   11.6660 H   0  0  0  0  0  0  0  0  0  0  0  0
  1  2  1  0  0  0  0
  2  3  1  0  0  0  0
  3  4  2  0  0  0  0
  3 27  1  0  0  0  0
  4  5  1  0  0  0  0
  5  6  2  0  0  0  0
  6  7  1  0  0  0  0
  6 26  1  0  0  0  0
  7  8  1  0  0  0  0
  8  9  2  0  0  0  0
  8 16  1  0  0  0  0
  9 10  1  0  0  0  0
 10 11  1  0  0  0  0
 10 17  2  0  0  0  0
 11 12  1  0  0  0  0
 12 13  1  0  0  0  0
 12 16  1  0  0  0  0
 13 14  2  0  0  0  0
 14 15  1  0  0  0  0
 15 16  2  0  0  0  0
 17 18  1  0  0  0  0
 17 25  1  0  0  0  0
 18 19  2  0  0  0  0
 19 20  1  0  0  0  0
 20 21  2  0  0  0  0
 20 24  1  0  0  0  0
 21 22  1  0  0  0  0
 22 23  2  0  0  0  0
 23 24  1  0  0  0  0
 24 25  2  0  0  0  0
 26 27  2  0  0  0  0
 27 28  1  0  0  0  0
 28 29  1  0  0  0  0
  1 30  1  0  0  0  0
  1 31  1  0  0  0  0
  1 32  1  0  0  0  0
  4 33  1  0  0  0  0
  5 34  1  0  0  0  0
  7 35  1  0  0  0  0
 11 36  1  0  0  0  0
 11 37  1  0  0  0  0
 13 38  1  0  0  0  0
 14 39  1  0  0  0  0
 18 40  1  0  0  0  0
 19 41  1  0  0  0  0
 21 42  1  0  0  0  0
 22 43  1  0  0  0  0
 25 44  1  0  0  0  0
 26 45  1  0  0  0  0
 29 46  1  0  0  0  0
 29 47  1  0  0  0  0
 29 48  1  0  0  0  0
M  END
> <IC50[nM]>
2.7

$$$$
CHEMBL3265016
  -OEChem-05192314333D
 Structure written by MMmdl.
 48 52  0     0  0  0  0  0  0999 V2000
   -4.2568   -3.1050   13.5687 C   0  0  0  0  0  0  0  0  0  0  0  0
   -3.8730   -2.3616   14.7152 O   0  0  0  0  0  0  0  0  0  0  0  0
   -2.5250   -2.1116   14.8158 C   0  0  0  0  0  0  0  0  0  0  0  0
   -1.7470   -2.8700   15.6807 C   0  0  0  0  0  0  0  0  0  0  0  0
   -0.3902   -2.6106   15.8144 C   0  0  0  0  0  0  0  0  0  0  0  0
    0.2207   -1.5844   15.0868 C   0  0  0  0  0  0  0  0  0  0  0  0
    1.6046   -1.3596   15.3257 N   0  0  0  0  0  0  0  0  0  0  0  0
    2.5329   -0.4401   14.7638 C   0  0  0  0  0  0  0  0  0  0  0  0
    2.1751    0.3788   13.7311 N   0  0  0  0  0  0  0  0  0  0  0  0
    3.1086    1.2387   13.2176 C   0  0  0  0  0  0  0  0  0  0  0  0
    4.4159    1.2831   13.6998 C   0  0  0  0  0  0  0  0  0  0  0  0
    4.7435    0.4926   14.7566 N   0  0  0  0  0  0  0  0  0  0  0  0
    5.8975    0.3810   15.4862 C   0  0  0  0  0  0  0  0  0  0  0  0
    5.5917   -0.5286   16.5249 C   0  0  0  0  0  0  0  0  0  0  0  0
    4.3780   -1.0408   16.3703 N   0  0  0  0  0  0  0  0  0  0  0  0
    3.8370   -0.3906   15.3278 C   0  0  0  0  0  0  0  0  0  0  0  0
    2.6350    2.1602   12.1213 C   0  0  0  0  0  0  0  0  0  0  0  0
    3.5425    2.6402   11.1650 C   0  0  0  0  0  0  0  0  0  0  0  0
    3.1493    3.4616   10.1117 C   0  0  0  0  0  0  0  0  0  0  0  0
    1.8041    3.8212   10.0117 C   0  0  0  0  0  0  0  0  0  0  0  0
    1.0219    4.6165    9.0806 C   0  0  0  0  0  0  0  0  0  0  0  0
   -0.2682    4.5927    9.5377 C   0  0  0  0  0  0  0  0  0  0  0  0
   -0.3496    3.8668   10.6667 N   0  0  0  0  0  0  0  0  0  0  0  0
    0.8806    3.3533   11.0064 C   0  0  0  0  0  0  0  0  0  0  0  0
    1.2701    2.5323   12.0703 C   0  0  0  0  0  0  0  0  0  0  0  0
   -0.5547   -0.8186   14.1912 C   0  0  0  0  0  0  0  0  0  0  0  0
   -1.9427   -1.0874   14.0603 C   0  0  0  0  0  0  0  0  0  0  0  0
   -2.7500   -0.3519   13.2066 O   0  0  0  0  0  0  0  0  0  0  0  0
   -2.2281    0.6471   12.3512 C   0  0  0  0  0  0  0  0  0  0  0  0
   -5.3466   -3.2541   13.5756 H   0  0  0  0  0  0  0  0  0  0  0  0
   -3.9679   -2.5545   12.6613 H   0  0  0  0  0  0  0  0  0  0  0  0
   -3.7530   -4.0828   13.5803 H   0  0  0  0  0  0  0  0  0  0  0  0
   -2.2004   -3.6662   16.2525 H   0  0  0  0  0  0  0  0  0  0  0  0
    0.2023   -3.2098   16.4900 H   0  0  0  0  0  0  0  0  0  0  0  0
    1.2482    0.3509   13.3568 H   0  0  0  0  0  0  0  0  0  0  0  0
    5.0789    1.0043   12.8675 H   0  0  0  0  0  0  0  0  0  0  0  0
    4.6176    2.3229   13.9968 H   0  0  0  0  0  0  0  0  0  0  0  0
    6.8383    0.8802   15.3068 H   0  0  0  0  0  0  0  0  0  0  0  0
    6.2591   -0.7741   17.3377 H   0  0  0  0  0  0  0  0  0  0  0  0
    4.5829    2.3628   11.2488 H   0  0  0  0  0  0  0  0  0  0  0  0
    3.8695    3.8130    9.3877 H   0  0  0  0  0  0  0  0  0  0  0  0
    1.3866    5.1261    8.2010 H   0  0  0  0  0  0  0  0  0  0  0  0
   -1.1015    5.0864    9.0599 H   0  0  0  0  0  0  0  0  0  0  0  0
    0.5639    2.1987   12.8162 H   0  0  0  0  0  0  0  0  0  0  0  0
   -0.0957   -0.0332   13.6091 H   0  0  0  0  0  0  0  0  0  0  0  0
   -3.0463    1.0961   11.7689 H   0  0  0  0  0  0  0  0  0  0  0  0
   -1.7369    1.4255   12.9536 H   0  0  0  0  0  0  0  0  0  0  0  0
   -1.4949    0.1965   11.6660 H   0  0  0  0  0  0  0  0  0  0  0  0
  1  2  1  0  0  0  0
  2  3  1  0  0  0  0
  3  4  2  0  0  0  0
  3 27  1  0  0  0  0
  4  5  1  0  0  0  0
  5  6  2  0  0  0  0
  6  7  1  0  0  0  0
  6 26  1  0  0  0  0
  7  8  2  0  0  0  0
  8  9  1  0  0  0  0
  8 16  1  0  0  0  0
  9 10  1  0  0  0  0
 10 11  1  0  0  0  0
 10 17  2  0  0  0  0
 11 12  1  0  0  0  0
 12 13  1  0  0  0  0
 12 16  1  0  0  0  0
 13 14  2  0  0  0  0
 14 15  1  0  0  0  0
 15 16  2  0  0  0  0
 17 18  1  0  0  0  0
 17 25  1  0  0  0  0
 18 19  2  0  0  0  0
 19 20  1  0  0  0  0
 20 21  2  0  0  0  0
 20 24  1  0  0  0  0
 21 22  1  0  0  0  0
 22 23  2  0  0  0  0
 23 24  1  0  0  0  0
 24 25  2  0  0  0  0
 26 27  2  0  0  0  0
 27 28  1  0  0  0  0
 28 29  1  0  0  0  0
  1 30  1  0  0  0  0
  1 31  1  0  0  0  0
  1 32  1  0  0  0  0
  4 33  1  0  0  0  0
  5 34  1  0  0  0  0
  9 35  1  0  0  0  0
 11 36  1  0  0  0  0
 11 37  1  0  0  0  0
 13 38  1  0  0  0  0
 14 39  1  0  0  0  0
 18 40  1  0  0  0  0
 19 41  1  0  0  0  0
 21 42  1  0  0  0  0
 22 43  1  0  0  0  0
 25 44  1  0  0  0  0
 26 45  1  0  0  0  0
 29 46  1  0  0  0  0
 29 47  1  0  0  0  0
 29 48  1  0  0  0  0
M  END
> <IC50[nM]>
2.7

$$$$
CHEMBL3265016
  -OEChem-05192314333D
 Structure written by MMmdl.
 48 52  0     1  0  0  0  0  0999 V2000
   -4.2568   -3.1050   13.5687 C   0  0  0  0  0  0  0  0  0  0  0  0
   -3.8730   -2.3616   14.7152 O   0  0  0  0  0  0  0  0  0  0  0  0
   -2.5250   -2.1116   14.8158 C   0  0  3  0  0  0  0  0  0  0  0  0
   -1.7470   -2.8700   15.6807 C   0  0  0  0  0  0  0  0  0  0  0  0
   -0.3902   -2.6106   15.8144 C   0  0  0  0  0  0  0  0  0  0  0  0
    0.2207   -1.5844   15.0868 C   0  0  0  0  0  0  0  0  0  0  0  0
    1.6046   -1.3596   15.3257 N   0  0  0  0  0  0  0  0  0  0  0  0
    2.5329   -0.4401   14.7638 C   0  0  0  0  0  0  0  0  0  0  0  0
    2.1751    0.3788   13.7311 N   0  0  0  0  0  0  0  0  0  0  0  0
    3.1086    1.2387   13.2176 C   0  0  0  0  0  0  0  0  0  0  0  0
    4.4159    1.2831   13.6998 C   0  0  0  0  0  0  0  0  0  0  0  0
    4.7435    0.4926   14.7566 N   0  0  0  0  0  0  0  0  0  0  0  0
    5.8975    0.3810   15.4862 C   0  0  0  0  0  0  0  0  0  0  0  0
    5.5917   -0.5286   16.5249 C   0  0  0  0  0  0  0  0  0  0  0  0
    4.3780   -1.0408   16.3703 N   0  0  0  0  0  0  0  0  0  0  0  0
    3.8370   -0.3906   15.3278 C   0  0  0  0  0  0  0  0  0  0  0  0
    2.6350    2.1602   12.1213 C   0  0  0  0  0  0  0  0  0  0  0  0
    3.5425    2.6402   11.1650 C   0  0  0  0  0  0  0  0  0  0  0  0
    3.1493    3.4616   10.1117 C   0  0  0  0  0  0  0  0  0  0  0  0
    1.8041    3.8212   10.0117 C   0  0  0  0  0  0  0  0  0  0  0  0
    1.0219    4.6165    9.0806 C   0  0  0  0  0  0  0  0  0  0  0  0
   -0.2682    4.5927    9.5377 C   0  0  0  0  0  0  0  0  0  0  0  0
   -0.3496    3.8668   10.6667 N   0  0  0  0  0  0  0  0  0  0  0  0
    0.8806    3.3533   11.0064 C   0  0  0  0  0  0  0  0  0  0  0  0
    1.2701    2.5323   12.0703 C   0  0  0  0  0  0  0  0  0  0  0  0
   -0.5547   -0.8186   14.1912 C   0  0  0  0  0  0  0  0  0  0  0  0
   -1.9427   -1.0874   14.0603 C   0  0  0  0  0  0  0  0  0  0  0  0
   -2.7500   -0.3519   13.2066 O   0  0  0  0  0  0  0  0  0  0  0  0
   -2.2281    0.6471   12.3512 C   0  0  0  0  0  0  0  0  0  0  0  0
   -5.3466   -3.2541   13.5756 H   0  0  0  0  0  0  0  0  0  0  0  0
   -3.9679   -2.5545   12.6613 H   0  0  0  0  0  0  0  0  0  0  0  0
   -3.7530   -4.0828   13.5803 H   0  0  0  0  0  0  0  0  0  0  0  0
   -2.3277   -2.8276   14.0043 H   0  0  0  0  0  0  0  0  0  0  0  0
   -2.2004   -3.6662   16.2525 H   0  0  0  0  0  0  0  0  0  0  0  0
    0.2023   -3.2098   16.4900 H   0  0  0  0  0  0  0  0  0  0  0  0
    5.1512    1.9301   13.2447 H   0  0  0  0  0  0  0  0  0  0  0  0
    6.8383    0.8802   15.3068 H   0  0  0  0  0  0  0  0  0  0  0  0
    6.2591   -0.7741   17.3377 H   0  0  0  0  0  0  0  0  0  0  0  0
    4.5829    2.3628   11.2488 H   0  0  0  0  0  0  0  0  0  0  0  0
    3.8695    3.8130    9.3877 H   0  0  0  0  0  0  0  0  0  0  0  0
    1.3971    5.6502    9.0553 H   0  0  0  0  0  0  0  0  0  0  0  0
    1.0756    4.1821    8.0714 H   0  0  0  0  0  0  0  0  0  0  0  0
   -1.1015    5.0864    9.0599 H   0  0  0  0  0  0  0  0  0  0  0  0
    0.5639    2.1987   12.8162 H   0  0  0  0  0  0  0  0  0  0  0  0
   -0.0957   -0.0332   13.6091 H   0  0  0  0  0  0  0  0  0  0  0  0
   -3.0463    1.0961   11.7689 H   0  0  0  0  0  0  0  0  0  0  0  0
   -1.7369    1.4255   12.9536 H   0  0  0  0  0  0  0  0  0  0  0  0
   -1.4949    0.1965   11.6660 H   0  0  0  0  0  0  0  0  0  0  0  0
  1  2  1  0  0  0  0
  2  3  1  0  0  0  0
  3  4  1  0  0  0  0
  3 27  1  0  0  0  0
  4  5  2  0  0  0  0
  5  6  1  0  0  0  0
  6  7  2  0  0  0  0
  6 26  1  0  0  0  0
  7  8  1  0  0  0  0
  8  9  2  0  0  0  0
  8 16  1  0  0  0  0
  9 10  1  0  0  0  0
 10 11  2  0  0  0  0
 10 17  1  0  0  0  0
 11 12  1  0  0  0  0
 12 13  1  0  0  0  0
 12 16  1  0  0  0  0
 13 14  2  0  0  0  0
 14 15  1  0  0  0  0
 15 16  2  0  0  0  0
 17 18  2  0  0  0  0
 17 25  1  0  0  0  0
 18 19  1  0  0  0  0
 19 20  2  0  0  0  0
 20 21  1  0  0  0  0
 20 24  1  0  0  0  0
 21 22  1  0  0  0  0
 22 23  2  0  0  0  0
 23 24  1  0  0  0  0
 24 25  2  0  0  0  0
 26 27  2  0  0  0  0
 27 28  1  0  0  0  0
 28 29  1  0  0  0  0
  1 30  1  0  0  0  0
  1 31  1  0  0  0  0
  1 32  1  0  0  0  0
  3 33  1  0  0  0  0
  4 34  1  0  0  0  0
  5 35  1  0  0  0  0
 11 36  1  0  0  0  0
 13 37  1  0  0  0  0
 14 38  1  0  0  0  0
 18 39  1  0  0  0  0
 19 40  1  0  0  0  0
 21 41  1  0  0  0  0
 21 42  1  0  0  0  0
 22 43  1  0  0  0  0
 25 44  1  0  0  0  0
 26 45  1  0  0  0  0
 29 46  1  0  0  0  0
 29 47  1  0  0  0  0
 29 48  1  0  0  0  0
M  END
> <IC50[nM]>
2.7

$$$$
CHEMBL3265016
  -OEChem-05192314333D
 Structure written by MMmdl.
 48 52  0     0  0  0  0  0  0999 V2000
   -4.2568   -3.1050   13.5687 C   0  0  0  0  0  0  0  0  0  0  0  0
   -3.8730   -2.3616   14.7152 O   0  0  0  0  0  0  0  0  0  0  0  0
   -2.5250   -2.1116   14.8158 C   0  0  0  0  0  0  0  0  0  0  0  0
   -1.7470   -2.8700   15.6807 C   0  0  0  0  0  0  0  0  0  0  0  0
   -0.3902   -2.6106   15.8144 C   0  0  0  0  0  0  0  0  0  0  0  0
    0.2207   -1.5844   15.0868 C   0  0  0  0  0  0  0  0  0  0  0  0
    1.6046   -1.3596   15.3257 N   0  0  0  0  0  0  0  0  0  0  0  0
    2.5329   -0.4401   14.7638 C   0  0  0  0  0  0  0  0  0  0  0  0
    2.1751    0.3788   13.7311 N   0  0  0  0  0  0  0  0  0  0  0  0
    3.1086    1.2387   13.2176 C   0  0  0  0  0  0  0  0  0  0  0  0
    4.4159    1.2831   13.6998 C   0  0  0  0  0  0  0  0  0  0  0  0
    4.7435    0.4926   14.7566 N   0  0  0  0  0  0  0  0  0  0  0  0
    5.8975    0.3810   15.4862 C   0  0  0  0  0  0  0  0  0  0  0  0
    5.5917   -0.5286   16.5249 C   0  0  0  0  0  0  0  0  0  0  0  0
    4.3780   -1.0408   16.3703 N   0  0  0  0  0  0  0  0  0  0  0  0
    3.8370   -0.3906   15.3278 C   0  0  0  0  0  0  0  0  0  0  0  0
    2.6350    2.1602   12.1213 C   0  0  0  0  0  0  0  0  0  0  0  0
    3.5425    2.6402   11.1650 C   0  0  0  0  0  0  0  0  0  0  0  0
    3.1493    3.4616   10.1117 C   0  0  0  0  0  0  0  0  0  0  0  0
    1.8041    3.8212   10.0117 C   0  0  0  0  0  0  0  0  0  0  0  0
    1.0219    4.6165    9.0806 C   0  0  0  0  0  0  0  0  0  0  0  0
   -0.2682    4.5927    9.5377 C   0  0  0  0  0  0  0  0  0  0  0  0
   -0.3496    3.8668   10.6667 N   0  0  0  0  0  0  0  0  0  0  0  0
    0.8806    3.3533   11.0064 C   0  0  0  0  0  0  0  0  0  0  0  0
    1.2701    2.5323   12.0703 C   0  0  0  0  0  0  0  0  0  0  0  0
   -0.5547   -0.8186   14.1912 C   0  0  0  0  0  0  0  0  0  0  0  0
   -1.9427   -1.0874   14.0603 C   0  0  0  0  0  0  0  0  0  0  0  0
   -2.7500   -0.3519   13.2066 O   0  0  0  0  0  0  0  0  0  0  0  0
   -2.2281    0.6471   12.3512 C   0  0  0  0  0  0  0  0  0  0  0  0
   -5.3466   -3.2541   13.5756 H   0  0  0  0  0  0  0  0  0  0  0  0
   -3.9679   -2.5545   12.6613 H   0  0  0  0  0  0  0  0  0  0  0  0
   -3.7530   -4.0828   13.5803 H   0  0  0  0  0  0  0  0  0  0  0  0
   -2.2004   -3.6662   16.2525 H   0  0  0  0  0  0  0  0  0  0  0  0
   -0.2176   -2.3862   16.8774 H   0  0  0  0  0  0  0  0  0  0  0  0
    0.1341   -3.5396   15.5459 H   0  0  0  0  0  0  0  0  0  0  0  0
    5.1512    1.9301   13.2447 H   0  0  0  0  0  0  0  0  0  0  0  0
    6.8383    0.8802   15.3068 H   0  0  0  0  0  0  0  0  0  0  0  0
    6.2591   -0.7741   17.3377 H   0  0  0  0  0  0  0  0  0  0  0  0
    4.5829    2.3628   11.2488 H   0  0  0  0  0  0  0  0  0  0  0  0
    3.8695    3.8130    9.3877 H   0  0  0  0  0  0  0  0  0  0  0  0
    1.3971    5.6502    9.0553 H   0  0  0  0  0  0  0  0  0  0  0  0
    1.0756    4.1821    8.0714 H   0  0  0  0  0  0  0  0  0  0  0  0
   -1.1015    5.0864    9.0599 H   0  0  0  0  0  0  0  0  0  0  0  0
    0.5639    2.1987   12.8162 H   0  0  0  0  0  0  0  0  0  0  0  0
   -0.0957   -0.0332   13.6091 H   0  0  0  0  0  0  0  0  0  0  0  0
   -3.0463    1.0961   11.7689 H   0  0  0  0  0  0  0  0  0  0  0  0
   -1.7369    1.4255   12.9536 H   0  0  0  0  0  0  0  0  0  0  0  0
   -1.4949    0.1965   11.6660 H   0  0  0  0  0  0  0  0  0  0  0  0
  1  2  1  0  0  0  0
  2  3  1  0  0  0  0
  3  4  2  0  0  0  0
  3 27  1  0  0  0  0
  4  5  1  0  0  0  0
  5  6  1  0  0  0  0
  6  7  2  0  0  0  0
  6 26  1  0  0  0  0
  7  8  1  0  0  0  0
  8  9  2  0  0  0  0
  8 16  1  0  0  0  0
  9 10  1  0  0  0  0
 10 11  2  0  0  0  0
 10 17  1  0  0  0  0
 11 12  1  0  0  0  0
 12 13  1  0  0  0  0
 12 16  1  0  0  0  0
 13 14  2  0  0  0  0
 14 15  1  0  0  0  0
 15 16  2  0  0  0  0
 17 18  2  0  0  0  0
 17 25  1  0  0  0  0
 18 19  1  0  0  0  0
 19 20  2  0  0  0  0
 20 21  1  0  0  0  0
 20 24  1  0  0  0  0
 21 22  1  0  0  0  0
 22 23  2  0  0  0  0
 23 24  1  0  0  0  0
 24 25  2  0  0  0  0
 26 27  2  0  0  0  0
 27 28  1  0  0  0  0
 28 29  1  0  0  0  0
  1 30  1  0  0  0  0
  1 31  1  0  0  0  0
  1 32  1  0  0  0  0
  4 33  1  0  0  0  0
  5 34  1  0  0  0  0
  5 35  1  0  0  0  0
 11 36  1  0  0  0  0
 13 37  1  0  0  0  0
 14 38  1  0  0  0  0
 18 39  1  0  0  0  0
 19 40  1  0  0  0  0
 21 41  1  0  0  0  0
 21 42  1  0  0  0  0
 22 43  1  0  0  0  0
 25 44  1  0  0  0  0
 26 45  1  0  0  0  0
 29 46  1  0  0  0  0
 29 47  1  0  0  0  0
 29 48  1  0  0  0  0
M  END
> <IC50[nM]>
2.7

$$$$
CHEMBL3265016
  -OEChem-05192314333D
 Structure written by MMmdl.
 48 52  0     0  0  0  0  0  0999 V2000
   -4.2568   -3.1050   13.5687 C   0  0  0  0  0  0  0  0  0  0  0  0
   -3.8730   -2.3616   14.7152 O   0  0  0  0  0  0  0  0  0  0  0  0
   -2.5250   -2.1116   14.8158 C   0  0  0  0  0  0  0  0  0  0  0  0
   -1.7470   -2.8700   15.6807 C   0  0  0  0  0  0  0  0  0  0  0  0
   -0.3902   -2.6106   15.8144 C   0  0  0  0  0  0  0  0  0  0  0  0
    0.2207   -1.5844   15.0868 C   0  0  0  0  0  0  0  0  0  0  0  0
    1.6046   -1.3596   15.3257 N   0  0  0  0  0  0  0  0  0  0  0  0
    2.5329   -0.4401   14.7638 C   0  0  0  0  0  0  0  0  0  0  0  0
    2.1751    0.3788   13.7311 N   0  0  0  0  0  0  0  0  0  0  0  0
    3.1086    1.2387   13.2176 C   0  0  0  0  0  0  0  0  0  0  0  0
    4.4159    1.2831   13.6998 C   0  0  0  0  0  0  0  0  0  0  0  0
    4.7435    0.4926   14.7566 N   0  0  0  0  0  0  0  0  0  0  0  0
    5.8975    0.3810   15.4862 C   0  0  0  0  0  0  0  0  0  0  0  0
    5.5917   -0.5286   16.5249 C   0  0  0  0  0  0  0  0  0  0  0  0
    4.3780   -1.0408   16.3703 N   0  0  0  0  0  0  0  0  0  0  0  0
    3.8370   -0.3906   15.3278 C   0  0  0  0  0  0  0  0  0  0  0  0
    2.6350    2.1602   12.1213 C   0  0  0  0  0  0  0  0  0  0  0  0
    3.5425    2.6402   11.1650 C   0  0  0  0  0  0  0  0  0  0  0  0
    3.1493    3.4616   10.1117 C   0  0  0  0  0  0  0  0  0  0  0  0
    1.8041    3.8212   10.0117 C   0  0  0  0  0  0  0  0  0  0  0  0
    1.0219    4.6165    9.0806 C   0  0  0  0  0  0  0  0  0  0  0  0
   -0.2682    4.5927    9.5377 C   0  0  0  0  0  0  0  0  0  0  0  0
   -0.3496    3.8668   10.6667 N   0  0  0  0  0  0  0  0  0  0  0  0
    0.8806    3.3533   11.0064 C   0  0  0  0  0  0  0  0  0  0  0  0
    1.2701    2.5323   12.0703 C   0  0  0  0  0  0  0  0  0  0  0  0
   -0.5547   -0.8186   14.1912 C   0  0  0  0  0  0  0  0  0  0  0  0
   -1.9427   -1.0874   14.0603 C   0  0  0  0  0  0  0  0  0  0  0  0
   -2.7500   -0.3519   13.2066 O   0  0  0  0  0  0  0  0  0  0  0  0
   -2.2281    0.6471   12.3512 C   0  0  0  0  0  0  0  0  0  0  0  0
   -5.3466   -3.2541   13.5756 H   0  0  0  0  0  0  0  0  0  0  0  0
   -3.9679   -2.5545   12.6613 H   0  0  0  0  0  0  0  0  0  0  0  0
   -3.7530   -4.0828   13.5803 H   0  0  0  0  0  0  0  0  0  0  0  0
   -2.2004   -3.6662   16.2525 H   0  0  0  0  0  0  0  0  0  0  0  0
    0.2023   -3.2098   16.4900 H   0  0  0  0  0  0  0  0  0  0  0  0
    5.1512    1.9301   13.2447 H   0  0  0  0  0  0  0  0  0  0  0  0
    6.8383    0.8802   15.3068 H   0  0  0  0  0  0  0  0  0  0  0  0
    6.2591   -0.7741   17.3377 H   0  0  0  0  0  0  0  0  0  0  0  0
    4.5829    2.3628   11.2488 H   0  0  0  0  0  0  0  0  0  0  0  0
    3.8695    3.8130    9.3877 H   0  0  0  0  0  0  0  0  0  0  0  0
    1.3971    5.6502    9.0553 H   0  0  0  0  0  0  0  0  0  0  0  0
    1.0756    4.1821    8.0714 H   0  0  0  0  0  0  0  0  0  0  0  0
   -1.1015    5.0864    9.0599 H   0  0  0  0  0  0  0  0  0  0  0  0
    0.5639    2.1987   12.8162 H   0  0  0  0  0  0  0  0  0  0  0  0
   -0.4606    0.2317   14.5042 H   0  0  0  0  0  0  0  0  0  0  0  0
   -0.1090   -0.9452   13.1935 H   0  0  0  0  0  0  0  0  0  0  0  0
   -3.0463    1.0961   11.7689 H   0  0  0  0  0  0  0  0  0  0  0  0
   -1.7369    1.4255   12.9536 H   0  0  0  0  0  0  0  0  0  0  0  0
   -1.4949    0.1965   11.6660 H   0  0  0  0  0  0  0  0  0  0  0  0
  1  2  1  0  0  0  0
  2  3  1  0  0  0  0
  3  4  1  0  0  0  0
  3 27  2  0  0  0  0
  4  5  2  0  0  0  0
  5  6  1  0  0  0  0
  6  7  2  0  0  0  0
  6 26  1  0  0  0  0
  7  8  1  0  0  0  0
  8  9  2  0  0  0  0
  8 16  1  0  0  0  0
  9 10  1  0  0  0  0
 10 11  2  0  0  0  0
 10 17  1  0  0  0  0
 11 12  1  0  0  0  0
 12 13  1  0  0  0  0
 12 16  1  0  0  0  0
 13 14  2  0  0  0  0
 14 15  1  0  0  0  0
 15 16  2  0  0  0  0
 17 18  2  0  0  0  0
 17 25  1  0  0  0  0
 18 19  1  0  0  0  0
 19 20  2  0  0  0  0
 20 21  1  0  0  0  0
 20 24  1  0  0  0  0
 21 22  1  0  0  0  0
 22 23  2  0  0  0  0
 23 24  1  0  0  0  0
 24 25  2  0  0  0  0
 26 27  1  0  0  0  0
 27 28  1  0  0  0  0
 28 29  1  0  0  0  0
  1 30  1  0  0  0  0
  1 31  1  0  0  0  0
  1 32  1  0  0  0  0
  4 33  1  0  0  0  0
  5 34  1  0  0  0  0
 11 35  1  0  0  0  0
 13 36  1  0  0  0  0
 14 37  1  0  0  0  0
 18 38  1  0  0  0  0
 19 39  1  0  0  0  0
 21 40  1  0  0  0  0
 21 41  1  0  0  0  0
 22 42  1  0  0  0  0
 25 43  1  0  0  0  0
 26 44  1  0  0  0  0
 26 45  1  0  0  0  0
 29 46  1  0  0  0  0
 29 47  1  0  0  0  0
 29 48  1  0  0  0  0
M  END
> <IC50[nM]>
2.7

$$$$
CHEMBL3265016
  -OEChem-05192314333D
 Structure written by MMmdl.
 48 52  0     1  0  0  0  0  0999 V2000
   -4.2568   -3.1050   13.5687 C   0  0  0  0  0  0  0  0  0  0  0  0
   -3.8730   -2.3616   14.7152 O   0  0  0  0  0  0  0  0  0  0  0  0
   -2.5250   -2.1116   14.8158 C   0  0  0  0  0  0  0  0  0  0  0  0
   -1.7470   -2.8700   15.6807 C   0  0  0  0  0  0  0  0  0  0  0  0
   -0.3902   -2.6106   15.8144 C   0  0  0  0  0  0  0  0  0  0  0  0
    0.2207   -1.5844   15.0868 C   0  0  0  0  0  0  0  0  0  0  0  0
    1.6046   -1.3596   15.3257 N   0  0  0  0  0  0  0  0  0  0  0  0
    2.5329   -0.4401   14.7638 C   0  0  0  0  0  0  0  0  0  0  0  0
    2.1751    0.3788   13.7311 N   0  0  0  0  0  0  0  0  0  0  0  0
    3.1086    1.2387   13.2176 C   0  0  0  0  0  0  0  0  0  0  0  0
    4.4159    1.2831   13.6998 C   0  0  0  0  0  0  0  0  0  0  0  0
    4.7435    0.4926   14.7566 N   0  0  0  0  0  0  0  0  0  0  0  0
    5.8975    0.3810   15.4862 C   0  0  0  0  0  0  0  0  0  0  0  0
    5.5917   -0.5286   16.5249 C   0  0  0  0  0  0  0  0  0  0  0  0
    4.3780   -1.0408   16.3703 N   0  0  0  0  0  0  0  0  0  0  0  0
    3.8370   -0.3906   15.3278 C   0  0  0  0  0  0  0  0  0  0  0  0
    2.6350    2.1602   12.1213 C   0  0  3  0  0  0  0  0  0  0  0  0
    3.5425    2.6402   11.1650 C   0  0  0  0  0  0  0  0  0  0  0  0
    3.1493    3.4616   10.1117 C   0  0  0  0  0  0  0  0  0  0  0  0
    1.8041    3.8212   10.0117 C   0  0  0  0  0  0  0  0  0  0  0  0
    1.0219    4.6165    9.0806 C   0  0  0  0  0  0  0  0  0  0  0  0
   -0.2682    4.5927    9.5377 C   0  0  0  0  0  0  0  0  0  0  0  0
   -0.3496    3.8668   10.6667 N   0  0  0  0  0  0  0  0  0  0  0  0
    0.8806    3.3533   11.0064 C   0  0  0  0  0  0  0  0  0  0  0  0
    1.2701    2.5323   12.0703 C   0  0  0  0  0  0  0  0  0  0  0  0
   -0.5547   -0.8186   14.1912 C   0  0  0  0  0  0  0  0  0  0  0  0
   -1.9427   -1.0874   14.0603 C   0  0  0  0  0  0  0  0  0  0  0  0
   -2.7500   -0.3519   13.2066 O   0  0  0  0  0  0  0  0  0  0  0  0
   -2.2281    0.6471   12.3512 C   0  0  0  0  0  0  0  0  0  0  0  0
   -5.3466   -3.2541   13.5756 H   0  0  0  0  0  0  0  0  0  0  0  0
   -3.9679   -2.5545   12.6613 H   0  0  0  0  0  0  0  0  0  0  0  0
   -3.7530   -4.0828   13.5803 H   0  0  0  0  0  0  0  0  0  0  0  0
   -2.2004   -3.6662   16.2525 H   0  0  0  0  0  0  0  0  0  0  0  0
    0.2023   -3.2098   16.4900 H   0  0  0  0  0  0  0  0  0  0  0  0
    1.9995   -1.9616   16.0197 H   0  0  0  0  0  0  0  0  0  0  0  0
    5.1512    1.9301   13.2447 H   0  0  0  0  0  0  0  0  0  0  0  0
    6.8383    0.8802   15.3068 H   0  0  0  0  0  0  0  0  0  0  0  0
    6.2591   -0.7741   17.3377 H   0  0  0  0  0  0  0  0  0  0  0  0
    2.8482    3.0299   12.7602 H   0  0  0  0  0  0  0  0  0  0  0  0
    4.5829    2.3628   11.2488 H   0  0  0  0  0  0  0  0  0  0  0  0
    3.8695    3.8130    9.3877 H   0  0  0  0  0  0  0  0  0  0  0  0
    1.3866    5.1261    8.2010 H   0  0  0  0  0  0  0  0  0  0  0  0
   -1.1015    5.0864    9.0599 H   0  0  0  0  0  0  0  0  0  0  0  0
    0.5639    2.1987   12.8162 H   0  0  0  0  0  0  0  0  0  0  0  0
   -0.0957   -0.0332   13.6091 H   0  0  0  0  0  0  0  0  0  0  0  0
   -3.0463    1.0961   11.7689 H   0  0  0  0  0  0  0  0  0  0  0  0
   -1.7369    1.4255   12.9536 H   0  0  0  0  0  0  0  0  0  0  0  0
   -1.4949    0.1965   11.6660 H   0  0  0  0  0  0  0  0  0  0  0  0
  1  2  1  0  0  0  0
  2  3  1  0  0  0  0
  3  4  2  0  0  0  0
  3 27  1  0  0  0  0
  4  5  1  0  0  0  0
  5  6  2  0  0  0  0
  6  7  1  0  0  0  0
  6 26  1  0  0  0  0
  7  8  1  0  0  0  0
  8  9  2  0  0  0  0
  8 16  1  0  0  0  0
  9 10  1  0  0  0  0
 10 11  2  0  0  0  0
 10 17  1  0  0  0  0
 11 12  1  0  0  0  0
 12 13  1  0  0  0  0
 12 16  1  0  0  0  0
 13 14  2  0  0  0  0
 14 15  1  0  0  0  0
 15 16  2  0  0  0  0
 17 18  1  0  0  0  0
 17 25  1  0  0  0  0
 18 19  2  0  0  0  0
 19 20  1  0  0  0  0
 20 21  2  0  0  0  0
 20 24  1  0  0  0  0
 21 22  1  0  0  0  0
 22 23  2  0  0  0  0
 23 24  1  0  0  0  0
 24 25  2  0  0  0  0
 26 27  2  0  0  0  0
 27 28  1  0  0  0  0
 28 29  1  0  0  0  0
  1 30  1  0  0  0  0
  1 31  1  0  0  0  0
  1 32  1  0  0  0  0
  4 33  1  0  0  0  0
  5 34  1  0  0  0  0
  7 35  1  0  0  0  0
 11 36  1  0  0  0  0
 13 37  1  0  0  0  0
 14 38  1  0  0  0  0
 17 39  1  0  0  0  0
 18 40  1  0  0  0  0
 19 41  1  0  0  0  0
 21 42  1  0  0  0  0
 22 43  1  0  0  0  0
 25 44  1  0  0  0  0
 26 45  1  0  0  0  0
 29 46  1  0  0  0  0
 29 47  1  0  0  0  0
 29 48  1  0  0  0  0
M  END
> <IC50[nM]>
2.7

$$$$
CHEMBL3265016
  -OEChem-05192314333D
 Structure written by MMmdl.
 48 52  0     1  0  0  0  0  0999 V2000
   -4.2568   -3.1050   13.5687 C   0  0  0  0  0  0  0  0  0  0  0  0
   -3.8730   -2.3616   14.7152 O   0  0  0  0  0  0  0  0  0  0  0  0
   -2.5250   -2.1116   14.8158 C   0  0  0  0  0  0  0  0  0  0  0  0
   -1.7470   -2.8700   15.6807 C   0  0  0  0  0  0  0  0  0  0  0  0
   -0.3902   -2.6106   15.8144 C   0  0  0  0  0  0  0  0  0  0  0  0
    0.2207   -1.5844   15.0868 C   0  0  0  0  0  0  0  0  0  0  0  0
    1.6046   -1.3596   15.3257 N   0  0  0  0  0  0  0  0  0  0  0  0
    2.5329   -0.4401   14.7638 C   0  0  0  0  0  0  0  0  0  0  0  0
    2.1751    0.3788   13.7311 N   0  0  0  0  0  0  0  0  0  0  0  0
    3.1086    1.2387   13.2176 C   0  0  0  0  0  0  0  0  0  0  0  0
    4.4159    1.2831   13.6998 C   0  0  0  0  0  0  0  0  0  0  0  0
    4.7435    0.4926   14.7566 N   0  0  0  0  0  0  0  0  0  0  0  0
    5.8975    0.3810   15.4862 C   0  0  0  0  0  0  0  0  0  0  0  0
    5.5917   -0.5286   16.5249 C   0  0  0  0  0  0  0  0  0  0  0  0
    4.3780   -1.0408   16.3703 N   0  0  0  0  0  0  0  0  0  0  0  0
    3.8370   -0.3906   15.3278 C   0  0  0  0  0  0  0  0  0  0  0  0
    2.6350    2.1602   12.1213 C   0  0  0  0  0  0  0  0  0  0  0  0
    3.5425    2.6402   11.1650 C   0  0  0  0  0  0  0  0  0  0  0  0
    3.1493    3.4616   10.1117 C   0  0  0  0  0  0  0  0  0  0  0  0
    1.8041    3.8212   10.0117 C   0  0  3  0  0  0  0  0  0  0  0  0
    1.0219    4.6165    9.0806 C   0  0  0  0  0  0  0  0  0  0  0  0
   -0.2682    4.5927    9.5377 C   0  0  0  0  0  0  0  0  0  0  0  0
   -0.3496    3.8668   10.6667 N   0  0  0  0  0  0  0  0  0  0  0  0
    0.8806    3.3533   11.0064 C   0  0  0  0  0  0  0  0  0  0  0  0
    1.2701    2.5323   12.0703 C   0  0  0  0  0  0  0  0  0  0  0  0
   -0.5547   -0.8186   14.1912 C   0  0  0  0  0  0  0  0  0  0  0  0
   -1.9427   -1.0874   14.0603 C   0  0  0  0  0  0  0  0  0  0  0  0
   -2.7500   -0.3519   13.2066 O   0  0  0  0  0  0  0  0  0  0  0  0
   -2.2281    0.6471   12.3512 C   0  0  0  0  0  0  0  0  0  0  0  0
   -5.3466   -3.2541   13.5756 H   0  0  0  0  0  0  0  0  0  0  0  0
   -3.9679   -2.5545   12.6613 H   0  0  0  0  0  0  0  0  0  0  0  0
   -3.7530   -4.0828   13.5803 H   0  0  0  0  0  0  0  0  0  0  0  0
   -2.2004   -3.6662   16.2525 H   0  0  0  0  0  0  0  0  0  0  0  0
    0.2023   -3.2098   16.4900 H   0  0  0  0  0  0  0  0  0  0  0  0
    1.9995   -1.9616   16.0197 H   0  0  0  0  0  0  0  0  0  0  0  0
    5.1512    1.9301   13.2447 H   0  0  0  0  0  0  0  0  0  0  0  0
    6.8383    0.8802   15.3068 H   0  0  0  0  0  0  0  0  0  0  0  0
    6.2591   -0.7741   17.3377 H   0  0  0  0  0  0  0  0  0  0  0  0
    4.5829    2.3628   11.2488 H   0  0  0  0  0  0  0  0  0  0  0  0
    3.8695    3.8130    9.3877 H   0  0  0  0  0  0  0  0  0  0  0  0
    1.9993    4.7198   10.6154 H   0  0  0  0  0  0  0  0  0  0  0  0
    1.3866    5.1261    8.2010 H   0  0  0  0  0  0  0  0  0  0  0  0
   -1.1015    5.0864    9.0599 H   0  0  0  0  0  0  0  0  0  0  0  0
    0.5639    2.1987   12.8162 H   0  0  0  0  0  0  0  0  0  0  0  0
   -0.0957   -0.0332   13.6091 H   0  0  0  0  0  0  0  0  0  0  0  0
   -3.0463    1.0961   11.7689 H   0  0  0  0  0  0  0  0  0  0  0  0
   -1.7369    1.4255   12.9536 H   0  0  0  0  0  0  0  0  0  0  0  0
   -1.4949    0.1965   11.6660 H   0  0  0  0  0  0  0  0  0  0  0  0
  1  2  1  0  0  0  0
  2  3  1  0  0  0  0
  3  4  2  0  0  0  0
  3 27  1  0  0  0  0
  4  5  1  0  0  0  0
  5  6  2  0  0  0  0
  6  7  1  0  0  0  0
  6 26  1  0  0  0  0
  7  8  1  0  0  0  0
  8  9  2  0  0  0  0
  8 16  1  0  0  0  0
  9 10  1  0  0  0  0
 10 11  2  0  0  0  0
 10 17  1  0  0  0  0
 11 12  1  0  0  0  0
 12 13  1  0  0  0  0
 12 16  1  0  0  0  0
 13 14  2  0  0  0  0
 14 15  1  0  0  0  0
 15 16  2  0  0  0  0
 17 18  1  0  0  0  0
 17 25  2  0  0  0  0
 18 19  2  0  0  0  0
 19 20  1  0  0  0  0
 20 21  1  0  0  0  0
 20 24  1  0  0  0  0
 21 22  2  0  0  0  0
 22 23  1  0  0  0  0
 23 24  2  0  0  0  0
 24 25  1  0  0  0  0
 26 27  2  0  0  0  0
 27 28  1  0  0  0  0
 28 29  1  0  0  0  0
  1 30  1  0  0  0  0
  1 31  1  0  0  0  0
  1 32  1  0  0  0  0
  4 33  1  0  0  0  0
  5 34  1  0  0  0  0
  7 35  1  0  0  0  0
 11 36  1  0  0  0  0
 13 37  1  0  0  0  0
 14 38  1  0  0  0  0
 18 39  1  0  0  0  0
 19 40  1  0  0  0  0
 20 41  1  0  0  0  0
 21 42  1  0  0  0  0
 22 43  1  0  0  0  0
 25 44  1  0  0  0  0
 26 45  1  0  0  0  0
 29 46  1  0  0  0  0
 29 47  1  0  0  0  0
 29 48  1  0  0  0  0
M  END
> <IC50[nM]>
2.7

$$$$
CHEMBL3265016
  -OEChem-05192314333D
 Structure written by MMmdl.
 48 52  0     1  0  0  0  0  0999 V2000
   -4.2568   -3.1050   13.5687 C   0  0  0  0  0  0  0  0  0  0  0  0
   -3.8730   -2.3616   14.7152 O   0  0  0  0  0  0  0  0  0  0  0  0
   -2.5250   -2.1116   14.8158 C   0  0  0  0  0  0  0  0  0  0  0  0
   -1.7470   -2.8700   15.6807 C   0  0  0  0  0  0  0  0  0  0  0  0
   -0.3902   -2.6106   15.8144 C   0  0  0  0  0  0  0  0  0  0  0  0
    0.2207   -1.5844   15.0868 C   0  0  0  0  0  0  0  0  0  0  0  0
    1.6046   -1.3596   15.3257 N   0  0  0  0  0  0  0  0  0  0  0  0
    2.5329   -0.4401   14.7638 C   0  0  0  0  0  0  0  0  0  0  0  0
    2.1751    0.3788   13.7311 N   0  0  0  0  0  0  0  0  0  0  0  0
    3.1086    1.2387   13.2176 C   0  0  0  0  0  0  0  0  0  0  0  0
    4.4159    1.2831   13.6998 C   0  0  0  0  0  0  0  0  0  0  0  0
    4.7435    0.4926   14.7566 N   0  0  0  0  0  0  0  0  0  0  0  0
    5.8975    0.3810   15.4862 C   0  0  0  0  0  0  0  0  0  0  0  0
    5.5917   -0.5286   16.5249 C   0  0  0  0  0  0  0  0  0  0  0  0
    4.3780   -1.0408   16.3703 N   0  0  0  0  0  0  0  0  0  0  0  0
    3.8370   -0.3906   15.3278 C   0  0  0  0  0  0  0  0  0  0  0  0
    2.6350    2.1602   12.1213 C   0  0  0  0  0  0  0  0  0  0  0  0
    3.5425    2.6402   11.1650 C   0  0  0  0  0  0  0  0  0  0  0  0
    3.1493    3.4616   10.1117 C   0  0  0  0  0  0  0  0  0  0  0  0
    1.8041    3.8212   10.0117 C   0  0  0  0  0  0  0  0  0  0  0  0
    1.0219    4.6165    9.0806 C   0  0  0  0  0  0  0  0  0  0  0  0
   -0.2682    4.5927    9.5377 C   0  0  0  0  0  0  0  0  0  0  0  0
   -0.3496    3.8668   10.6667 N   0  0  0  0  0  0  0  0  0  0  0  0
    0.8806    3.3533   11.0064 C   0  0  3  0  0  0  0  0  0  0  0  0
    1.2701    2.5323   12.0703 C   0  0  0  0  0  0  0  0  0  0  0  0
   -0.5547   -0.8186   14.1912 C   0  0  0  0  0  0  0  0  0  0  0  0
   -1.9427   -1.0874   14.0603 C   0  0  0  0  0  0  0  0  0  0  0  0
   -2.7500   -0.3519   13.2066 O   0  0  0  0  0  0  0  0  0  0  0  0
   -2.2281    0.6471   12.3512 C   0  0  0  0  0  0  0  0  0  0  0  0
   -5.3466   -3.2541   13.5756 H   0  0  0  0  0  0  0  0  0  0  0  0
   -3.9679   -2.5545   12.6613 H   0  0  0  0  0  0  0  0  0  0  0  0
   -3.7530   -4.0828   13.5803 H   0  0  0  0  0  0  0  0  0  0  0  0
   -2.2004   -3.6662   16.2525 H   0  0  0  0  0  0  0  0  0  0  0  0
    0.2023   -3.2098   16.4900 H   0  0  0  0  0  0  0  0  0  0  0  0
    1.9995   -1.9616   16.0197 H   0  0  0  0  0  0  0  0  0  0  0  0
    5.1512    1.9301   13.2447 H   0  0  0  0  0  0  0  0  0  0  0  0
    6.8383    0.8802   15.3068 H   0  0  0  0  0  0  0  0  0  0  0  0
    6.2591   -0.7741   17.3377 H   0  0  0  0  0  0  0  0  0  0  0  0
    4.5829    2.3628   11.2488 H   0  0  0  0  0  0  0  0  0  0  0  0
    3.8695    3.8130    9.3877 H   0  0  0  0  0  0  0  0  0  0  0  0
    1.3866    5.1261    8.2010 H   0  0  0  0  0  0  0  0  0  0  0  0
   -1.1015    5.0864    9.0599 H   0  0  0  0  0  0  0  0  0  0  0  0
    1.0854    4.2447   11.6176 H   0  0  0  0  0  0  0  0  0  0  0  0
    0.5639    2.1987   12.8162 H   0  0  0  0  0  0  0  0  0  0  0  0
   -0.0957   -0.0332   13.6091 H   0  0  0  0  0  0  0  0  0  0  0  0
   -3.0463    1.0961   11.7689 H   0  0  0  0  0  0  0  0  0  0  0  0
   -1.7369    1.4255   12.9536 H   0  0  0  0  0  0  0  0  0  0  0  0
   -1.4949    0.1965   11.6660 H   0  0  0  0  0  0  0  0  0  0  0  0
  1  2  1  0  0  0  0
  2  3  1  0  0  0  0
  3  4  2  0  0  0  0
  3 27  1  0  0  0  0
  4  5  1  0  0  0  0
  5  6  2  0  0  0  0
  6  7  1  0  0  0  0
  6 26  1  0  0  0  0
  7  8  1  0  0  0  0
  8  9  2  0  0  0  0
  8 16  1  0  0  0  0
  9 10  1  0  0  0  0
 10 11  2  0  0  0  0
 10 17  1  0  0  0  0
 11 12  1  0  0  0  0
 12 13  1  0  0  0  0
 12 16  1  0  0  0  0
 13 14  2  0  0  0  0
 14 15  1  0  0  0  0
 15 16  2  0  0  0  0
 17 18  1  0  0  0  0
 17 25  2  0  0  0  0
 18 19  2  0  0  0  0
 19 20  1  0  0  0  0
 20 21  2  0  0  0  0
 20 24  1  0  0  0  0
 21 22  1  0  0  0  0
 22 23  2  0  0  0  0
 23 24  1  0  0  0  0
 24 25  1  0  0  0  0
 26 27  2  0  0  0  0
 27 28  1  0  0  0  0
 28 29  1  0  0  0  0
  1 30  1  0  0  0  0
  1 31  1  0  0  0  0
  1 32  1  0  0  0  0
  4 33  1  0  0  0  0
  5 34  1  0  0  0  0
  7 35  1  0  0  0  0
 11 36  1  0  0  0  0
 13 37  1  0  0  0  0
 14 38  1  0  0  0  0
 18 39  1  0  0  0  0
 19 40  1  0  0  0  0
 21 41  1  0  0  0  0
 22 42  1  0  0  0  0
 24 43  1  0  0  0  0
 25 44  1  0  0  0  0
 26 45  1  0  0  0  0
 29 46  1  0  0  0  0
 29 47  1  0  0  0  0
 29 48  1  0  0  0  0
M  END
> <IC50[nM]>
2.7

$$$$
CHEMBL3265016
  -OEChem-05192314333D
 Structure written by MMmdl.
 48 52  0     0  0  0  0  0  0999 V2000
   -4.2568   -3.1050   13.5687 C   0  0  0  0  0  0  0  0  0  0  0  0
   -3.8730   -2.3616   14.7152 O   0  0  0  0  0  0  0  0  0  0  0  0
   -2.5250   -2.1116   14.8158 C   0  0  0  0  0  0  0  0  0  0  0  0
   -1.7470   -2.8700   15.6807 C   0  0  0  0  0  0  0  0  0  0  0  0
   -0.3902   -2.6106   15.8144 C   0  0  0  0  0  0  0  0  0  0  0  0
    0.2207   -1.5844   15.0868 C   0  0  0  0  0  0  0  0  0  0  0  0
    1.6046   -1.3596   15.3257 N   0  0  0  0  0  0  0  0  0  0  0  0
    2.5329   -0.4401   14.7638 C   0  0  0  0  0  0  0  0  0  0  0  0
    2.1751    0.3788   13.7311 N   0  0  0  0  0  0  0  0  0  0  0  0
    3.1086    1.2387   13.2176 C   0  0  0  0  0  0  0  0  0  0  0  0
    4.4159    1.2831   13.6998 C   0  0  0  0  0  0  0  0  0  0  0  0
    4.7435    0.4926   14.7566 N   0  0  0  0  0  0  0  0  0  0  0  0
    5.8975    0.3810   15.4862 C   0  0  0  0  0  0  0  0  0  0  0  0
    5.5917   -0.5286   16.5249 C   0  0  0  0  0  0  0  0  0  0  0  0
    4.3780   -1.0408   16.3703 N   0  0  0  0  0  0  0  0  0  0  0  0
    3.8370   -0.3906   15.3278 C   0  0  0  0  0  0  0  0  0  0  0  0
    2.6350    2.1602   12.1213 C   0  0  0  0  0  0  0  0  0  0  0  0
    3.5425    2.6402   11.1650 C   0  0  0  0  0  0  0  0  0  0  0  0
    3.1493    3.4616   10.1117 C   0  0  0  0  0  0  0  0  0  0  0  0
    1.8041    3.8212   10.0117 C   0  0  0  0  0  0  0  0  0  0  0  0
    1.0219    4.6165    9.0806 C   0  0  0  0  0  0  0  0  0  0  0  0
   -0.2682    4.5927    9.5377 C   0  0  0  0  0  0  0  0  0  0  0  0
   -0.3496    3.8668   10.6667 N   0  0  0  0  0  0  0  0  0  0  0  0
    0.8806    3.3533   11.0064 C   0  0  0  0  0  0  0  0  0  0  0  0
    1.2701    2.5323   12.0703 C   0  0  0  0  0  0  0  0  0  0  0  0
   -0.5547   -0.8186   14.1912 C   0  0  0  0  0  0  0  0  0  0  0  0
   -1.9427   -1.0874   14.0603 C   0  0  0  0  0  0  0  0  0  0  0  0
   -2.7500   -0.3519   13.2066 O   0  0  0  0  0  0  0  0  0  0  0  0
   -2.2281    0.6471   12.3512 C   0  0  0  0  0  0  0  0  0  0  0  0
   -5.3466   -3.2541   13.5756 H   0  0  0  0  0  0  0  0  0  0  0  0
   -3.9679   -2.5545   12.6613 H   0  0  0  0  0  0  0  0  0  0  0  0
   -3.7530   -4.0828   13.5803 H   0  0  0  0  0  0  0  0  0  0  0  0
   -2.2004   -3.6662   16.2525 H   0  0  0  0  0  0  0  0  0  0  0  0
    0.2023   -3.2098   16.4900 H   0  0  0  0  0  0  0  0  0  0  0  0
    1.9995   -1.9616   16.0197 H   0  0  0  0  0  0  0  0  0  0  0  0
    5.1512    1.9301   13.2447 H   0  0  0  0  0  0  0  0  0  0  0  0
    6.8383    0.8802   15.3068 H   0  0  0  0  0  0  0  0  0  0  0  0
    6.2591   -0.7741   17.3377 H   0  0  0  0  0  0  0  0  0  0  0  0
    4.5829    2.3628   11.2488 H   0  0  0  0  0  0  0  0  0  0  0  0
    3.7289    4.3930   10.1929 H   0  0  0  0  0  0  0  0  0  0  0  0
    3.4167    2.9434    9.1790 H   0  0  0  0  0  0  0  0  0  0  0  0
    1.3866    5.1261    8.2010 H   0  0  0  0  0  0  0  0  0  0  0  0
   -1.1015    5.0864    9.0599 H   0  0  0  0  0  0  0  0  0  0  0  0
    0.5639    2.1987   12.8162 H   0  0  0  0  0  0  0  0  0  0  0  0
   -0.0957   -0.0332   13.6091 H   0  0  0  0  0  0  0  0  0  0  0  0
   -3.0463    1.0961   11.7689 H   0  0  0  0  0  0  0  0  0  0  0  0
   -1.7369    1.4255   12.9536 H   0  0  0  0  0  0  0  0  0  0  0  0
   -1.4949    0.1965   11.6660 H   0  0  0  0  0  0  0  0  0  0  0  0
  1  2  1  0  0  0  0
  2  3  1  0  0  0  0
  3  4  2  0  0  0  0
  3 27  1  0  0  0  0
  4  5  1  0  0  0  0
  5  6  2  0  0  0  0
  6  7  1  0  0  0  0
  6 26  1  0  0  0  0
  7  8  1  0  0  0  0
  8  9  2  0  0  0  0
  8 16  1  0  0  0  0
  9 10  1  0  0  0  0
 10 11  2  0  0  0  0
 10 17  1  0  0  0  0
 11 12  1  0  0  0  0
 12 13  1  0  0  0  0
 12 16  1  0  0  0  0
 13 14  2  0  0  0  0
 14 15  1  0  0  0  0
 15 16  2  0  0  0  0
 17 18  2  0  0  0  0
 17 25  1  0  0  0  0
 18 19  1  0  0  0  0
 19 20  1  0  0  0  0
 20 21  2  0  0  0  0
 20 24  1  0  0  0  0
 21 22  1  0  0  0  0
 22 23  2  0  0  0  0
 23 24  1  0  0  0  0
 24 25  2  0  0  0  0
 26 27  2  0  0  0  0
 27 28  1  0  0  0  0
 28 29  1  0  0  0  0
  1 30  1  0  0  0  0
  1 31  1  0  0  0  0
  1 32  1  0  0  0  0
  4 33  1  0  0  0  0
  5 34  1  0  0  0  0
  7 35  1  0  0  0  0
 11 36  1  0  0  0  0
 13 37  1  0  0  0  0
 14 38  1  0  0  0  0
 18 39  1  0  0  0  0
 19 40  1  0  0  0  0
 19 41  1  0  0  0  0
 21 42  1  0  0  0  0
 22 43  1  0  0  0  0
 25 44  1  0  0  0  0
 26 45  1  0  0  0  0
 29 46  1  0  0  0  0
 29 47  1  0  0  0  0
 29 48  1  0  0  0  0
M  END
> <IC50[nM]>
2.7

$$$$
CHEMBL3265016
  -OEChem-05192314333D
 Structure written by MMmdl.
 48 52  0     0  0  0  0  0  0999 V2000
   -4.2568   -3.1050   13.5687 C   0  0  0  0  0  0  0  0  0  0  0  0
   -3.8730   -2.3616   14.7152 O   0  0  0  0  0  0  0  0  0  0  0  0
   -2.5250   -2.1116   14.8158 C   0  0  0  0  0  0  0  0  0  0  0  0
   -1.7470   -2.8700   15.6807 C   0  0  0  0  0  0  0  0  0  0  0  0
   -0.3902   -2.6106   15.8144 C   0  0  0  0  0  0  0  0  0  0  0  0
    0.2207   -1.5844   15.0868 C   0  0  0  0  0  0  0  0  0  0  0  0
    1.6046   -1.3596   15.3257 N   0  0  0  0  0  0  0  0  0  0  0  0
    2.5329   -0.4401   14.7638 C   0  0  0  0  0  0  0  0  0  0  0  0
    2.1751    0.3788   13.7311 N   0  0  0  0  0  0  0  0  0  0  0  0
    3.1086    1.2387   13.2176 C   0  0  0  0  0  0  0  0  0  0  0  0
    4.4159    1.2831   13.6998 C   0  0  0  0  0  0  0  0  0  0  0  0
    4.7435    0.4926   14.7566 N   0  0  0  0  0  0  0  0  0  0  0  0
    5.8975    0.3810   15.4862 C   0  0  0  0  0  0  0  0  0  0  0  0
    5.5917   -0.5286   16.5249 C   0  0  0  0  0  0  0  0  0  0  0  0
    4.3780   -1.0408   16.3703 N   0  0  0  0  0  0  0  0  0  0  0  0
    3.8370   -0.3906   15.3278 C   0  0  0  0  0  0  0  0  0  0  0  0
    2.6350    2.1602   12.1213 C   0  0  0  0  0  0  0  0  0  0  0  0
    3.5425    2.6402   11.1650 C   0  0  0  0  0  0  0  0  0  0  0  0
    3.1493    3.4616   10.1117 C   0  0  0  0  0  0  0  0  0  0  0  0
    1.8041    3.8212   10.0117 C   0  0  0  0  0  0  0  0  0  0  0  0
    1.0219    4.6165    9.0806 C   0  0  0  0  0  0  0  0  0  0  0  0
   -0.2682    4.5927    9.5377 C   0  0  0  0  0  0  0  0  0  0  0  0
   -0.3496    3.8668   10.6667 N   0  0  0  0  0  0  0  0  0  0  0  0
    0.8806    3.3533   11.0064 C   0  0  0  0  0  0  0  0  0  0  0  0
    1.2701    2.5323   12.0703 C   0  0  0  0  0  0  0  0  0  0  0  0
   -0.5547   -0.8186   14.1912 C   0  0  0  0  0  0  0  0  0  0  0  0
   -1.9427   -1.0874   14.0603 C   0  0  0  0  0  0  0  0  0  0  0  0
   -2.7500   -0.3519   13.2066 O   0  0  0  0  0  0  0  0  0  0  0  0
   -2.2281    0.6471   12.3512 C   0  0  0  0  0  0  0  0  0  0  0  0
   -5.3466   -3.2541   13.5756 H   0  0  0  0  0  0  0  0  0  0  0  0
   -3.9679   -2.5545   12.6613 H   0  0  0  0  0  0  0  0  0  0  0  0
   -3.7530   -4.0828   13.5803 H   0  0  0  0  0  0  0  0  0  0  0  0
   -2.2004   -3.6662   16.2525 H   0  0  0  0  0  0  0  0  0  0  0  0
    0.2023   -3.2098   16.4900 H   0  0  0  0  0  0  0  0  0  0  0  0
    1.9995   -1.9616   16.0197 H   0  0  0  0  0  0  0  0  0  0  0  0
    5.1512    1.9301   13.2447 H   0  0  0  0  0  0  0  0  0  0  0  0
    6.8383    0.8802   15.3068 H   0  0  0  0  0  0  0  0  0  0  0  0
    6.2591   -0.7741   17.3377 H   0  0  0  0  0  0  0  0  0  0  0  0
    4.3066    3.2017   11.7226 H   0  0  0  0  0  0  0  0  0  0  0  0
    4.0020    1.7524   10.7060 H   0  0  0  0  0  0  0  0  0  0  0  0
    3.8695    3.8130    9.3877 H   0  0  0  0  0  0  0  0  0  0  0  0
    1.3866    5.1261    8.2010 H   0  0  0  0  0  0  0  0  0  0  0  0
   -1.1015    5.0864    9.0599 H   0  0  0  0  0  0  0  0  0  0  0  0
    0.5639    2.1987   12.8162 H   0  0  0  0  0  0  0  0  0  0  0  0
   -0.0957   -0.0332   13.6091 H   0  0  0  0  0  0  0  0  0  0  0  0
   -3.0463    1.0961   11.7689 H   0  0  0  0  0  0  0  0  0  0  0  0
   -1.7369    1.4255   12.9536 H   0  0  0  0  0  0  0  0  0  0  0  0
   -1.4949    0.1965   11.6660 H   0  0  0  0  0  0  0  0  0  0  0  0
  1  2  1  0  0  0  0
  2  3  1  0  0  0  0
  3  4  2  0  0  0  0
  3 27  1  0  0  0  0
  4  5  1  0  0  0  0
  5  6  2  0  0  0  0
  6  7  1  0  0  0  0
  6 26  1  0  0  0  0
  7  8  1  0  0  0  0
  8  9  2  0  0  0  0
  8 16  1  0  0  0  0
  9 10  1  0  0  0  0
 10 11  2  0  0  0  0
 10 17  1  0  0  0  0
 11 12  1  0  0  0  0
 12 13  1  0  0  0  0
 12 16  1  0  0  0  0
 13 14  2  0  0  0  0
 14 15  1  0  0  0  0
 15 16  2  0  0  0  0
 17 18  1  0  0  0  0
 17 25  2  0  0  0  0
 18 19  1  0  0  0  0
 19 20  2  0  0  0  0
 20 21  1  0  0  0  0
 20 24  1  0  0  0  0
 21 22  2  0  0  0  0
 22 23  1  0  0  0  0
 23 24  2  0  0  0  0
 24 25  1  0  0  0  0
 26 27  2  0  0  0  0
 27 28  1  0  0  0  0
 28 29  1  0  0  0  0
  1 30  1  0  0  0  0
  1 31  1  0  0  0  0
  1 32  1  0  0  0  0
  4 33  1  0  0  0  0
  5 34  1  0  0  0  0
  7 35  1  0  0  0  0
 11 36  1  0  0  0  0
 13 37  1  0  0  0  0
 14 38  1  0  0  0  0
 18 39  1  0  0  0  0
 18 40  1  0  0  0  0
 19 41  1  0  0  0  0
 21 42  1  0  0  0  0
 22 43  1  0  0  0  0
 25 44  1  0  0  0  0
 26 45  1  0  0  0  0
 29 46  1  0  0  0  0
 29 47  1  0  0  0  0
 29 48  1  0  0  0  0
M  END
> <IC50[nM]>
2.7

$$$$
CHEMBL3265016
  -OEChem-05192314333D
 Structure written by MMmdl.
 48 52  0     0  0  0  0  0  0999 V2000
   -4.2568   -3.1050   13.5687 C   0  0  0  0  0  0  0  0  0  0  0  0
   -3.8730   -2.3616   14.7152 O   0  0  0  0  0  0  0  0  0  0  0  0
   -2.5250   -2.1116   14.8158 C   0  0  0  0  0  0  0  0  0  0  0  0
   -1.7470   -2.8700   15.6807 C   0  0  0  0  0  0  0  0  0  0  0  0
   -0.3902   -2.6106   15.8144 C   0  0  0  0  0  0  0  0  0  0  0  0
    0.2207   -1.5844   15.0868 C   0  0  0  0  0  0  0  0  0  0  0  0
    1.6046   -1.3596   15.3257 N   0  0  0  0  0  0  0  0  0  0  0  0
    2.5329   -0.4401   14.7638 C   0  0  0  0  0  0  0  0  0  0  0  0
    2.1751    0.3788   13.7311 N   0  0  0  0  0  0  0  0  0  0  0  0
    3.1086    1.2387   13.2176 C   0  0  0  0  0  0  0  0  0  0  0  0
    4.4159    1.2831   13.6998 C   0  0  0  0  0  0  0  0  0  0  0  0
    4.7435    0.4926   14.7566 N   0  0  0  0  0  0  0  0  0  0  0  0
    5.8975    0.3810   15.4862 C   0  0  0  0  0  0  0  0  0  0  0  0
    5.5917   -0.5286   16.5249 C   0  0  0  0  0  0  0  0  0  0  0  0
    4.3780   -1.0408   16.3703 N   0  0  0  0  0  0  0  0  0  0  0  0
    3.8370   -0.3906   15.3278 C   0  0  0  0  0  0  0  0  0  0  0  0
    2.6350    2.1602   12.1213 C   0  0  0  0  0  0  0  0  0  0  0  0
    3.5425    2.6402   11.1650 C   0  0  0  0  0  0  0  0  0  0  0  0
    3.1493    3.4616   10.1117 C   0  0  0  0  0  0  0  0  0  0  0  0
    1.8041    3.8212   10.0117 C   0  0  0  0  0  0  0  0  0  0  0  0
    1.0219    4.6165    9.0806 C   0  0  0  0  0  0  0  0  0  0  0  0
   -0.2682    4.5927    9.5377 C   0  0  0  0  0  0  0  0  0  0  0  0
   -0.3496    3.8668   10.6667 N   0  0  0  0  0  0  0  0  0  0  0  0
    0.8806    3.3533   11.0064 C   0  0  0  0  0  0  0  0  0  0  0  0
    1.2701    2.5323   12.0703 C   0  0  0  0  0  0  0  0  0  0  0  0
   -0.5547   -0.8186   14.1912 C   0  0  0  0  0  0  0  0  0  0  0  0
   -1.9427   -1.0874   14.0603 C   0  0  0  0  0  0  0  0  0  0  0  0
   -2.7500   -0.3519   13.2066 O   0  0  0  0  0  0  0  0  0  0  0  0
   -2.2281    0.6471   12.3512 C   0  0  0  0  0  0  0  0  0  0  0  0
   -5.3466   -3.2541   13.5756 H   0  0  0  0  0  0  0  0  0  0  0  0
   -3.9679   -2.5545   12.6613 H   0  0  0  0  0  0  0  0  0  0  0  0
   -3.7530   -4.0828   13.5803 H   0  0  0  0  0  0  0  0  0  0  0  0
   -2.2004   -3.6662   16.2525 H   0  0  0  0  0  0  0  0  0  0  0  0
    0.2023   -3.2098   16.4900 H   0  0  0  0  0  0  0  0  0  0  0  0
    1.9995   -1.9616   16.0197 H   0  0  0  0  0  0  0  0  0  0  0  0
    5.1512    1.9301   13.2447 H   0  0  0  0  0  0  0  0  0  0  0  0
    6.8383    0.8802   15.3068 H   0  0  0  0  0  0  0  0  0  0  0  0
    6.2591   -0.7741   17.3377 H   0  0  0  0  0  0  0  0  0  0  0  0
    4.5829    2.3628   11.2488 H   0  0  0  0  0  0  0  0  0  0  0  0
    3.8695    3.8130    9.3877 H   0  0  0  0  0  0  0  0  0  0  0  0
    1.3866    5.1261    8.2010 H   0  0  0  0  0  0  0  0  0  0  0  0
   -1.1015    5.0864    9.0599 H   0  0  0  0  0  0  0  0  0  0  0  0
    0.6751    1.6089   12.0135 H   0  0  0  0  0  0  0  0  0  0  0  0
    1.0346    3.0634   13.0044 H   0  0  0  0  0  0  0  0  0  0  0  0
   -0.0957   -0.0332   13.6091 H   0  0  0  0  0  0  0  0  0  0  0  0
   -3.0463    1.0961   11.7689 H   0  0  0  0  0  0  0  0  0  0  0  0
   -1.7369    1.4255   12.9536 H   0  0  0  0  0  0  0  0  0  0  0  0
   -1.4949    0.1965   11.6660 H   0  0  0  0  0  0  0  0  0  0  0  0
  1  2  1  0  0  0  0
  2  3  1  0  0  0  0
  3  4  2  0  0  0  0
  3 27  1  0  0  0  0
  4  5  1  0  0  0  0
  5  6  2  0  0  0  0
  6  7  1  0  0  0  0
  6 26  1  0  0  0  0
  7  8  1  0  0  0  0
  8  9  2  0  0  0  0
  8 16  1  0  0  0  0
  9 10  1  0  0  0  0
 10 11  2  0  0  0  0
 10 17  1  0  0  0  0
 11 12  1  0  0  0  0
 12 13  1  0  0  0  0
 12 16  1  0  0  0  0
 13 14  2  0  0  0  0
 14 15  1  0  0  0  0
 15 16  2  0  0  0  0
 17 18  2  0  0  0  0
 17 25  1  0  0  0  0
 18 19  1  0  0  0  0
 19 20  2  0  0  0  0
 20 21  1  0  0  0  0
 20 24  1  0  0  0  0
 21 22  2  0  0  0  0
 22 23  1  0  0  0  0
 23 24  2  0  0  0  0
 24 25  1  0  0  0  0
 26 27  2  0  0  0  0
 27 28  1  0  0  0  0
 28 29  1  0  0  0  0
  1 30  1  0  0  0  0
  1 31  1  0  0  0  0
  1 32  1  0  0  0  0
  4 33  1  0  0  0  0
  5 34  1  0  0  0  0
  7 35  1  0  0  0  0
 11 36  1  0  0  0  0
 13 37  1  0  0  0  0
 14 38  1  0  0  0  0
 18 39  1  0  0  0  0
 19 40  1  0  0  0  0
 21 41  1  0  0  0  0
 22 42  1  0  0  0  0
 25 43  1  0  0  0  0
 25 44  1  0  0  0  0
 26 45  1  0  0  0  0
 29 46  1  0  0  0  0
 29 47  1  0  0  0  0
 29 48  1  0  0  0  0
M  END
> <IC50[nM]>
2.7

$$$$
CHEMBL3265016
  -OEChem-05192314333D
 Structure written by MMmdl.
 48 52  0     1  0  0  0  0  0999 V2000
   -4.2568   -3.1050   13.5687 C   0  0  0  0  0  0  0  0  0  0  0  0
   -3.8730   -2.3616   14.7152 O   0  0  0  0  0  0  0  0  0  0  0  0
   -2.5250   -2.1116   14.8158 C   0  0  3  0  0  0  0  0  0  0  0  0
   -1.7470   -2.8700   15.6807 C   0  0  0  0  0  0  0  0  0  0  0  0
   -0.3902   -2.6106   15.8144 C   0  0  0  0  0  0  0  0  0  0  0  0
    0.2207   -1.5844   15.0868 C   0  0  0  0  0  0  0  0  0  0  0  0
    1.6046   -1.3596   15.3257 N   0  0  0  0  0  0  0  0  0  0  0  0
    2.5329   -0.4401   14.7638 C   0  0  0  0  0  0  0  0  0  0  0  0
    2.1751    0.3788   13.7311 N   0  0  0  0  0  0  0  0  0  0  0  0
    3.1086    1.2387   13.2176 C   0  0  0  0  0  0  0  0  0  0  0  0
    4.4159    1.2831   13.6998 C   0  0  0  0  0  0  0  0  0  0  0  0
    4.7435    0.4926   14.7566 N   0  0  0  0  0  0  0  0  0  0  0  0
    5.8975    0.3810   15.4862 C   0  0  0  0  0  0  0  0  0  0  0  0
    5.5917   -0.5286   16.5249 C   0  0  0  0  0  0  0  0  0  0  0  0
    4.3780   -1.0408   16.3703 N   0  0  0  0  0  0  0  0  0  0  0  0
    3.8370   -0.3906   15.3278 C   0  0  0  0  0  0  0  0  0  0  0  0
    2.6350    2.1602   12.1213 C   0  0  0  0  0  0  0  0  0  0  0  0
    3.5425    2.6402   11.1650 C   0  0  0  0  0  0  0  0  0  0  0  0
    3.1493    3.4616   10.1117 C   0  0  0  0  0  0  0  0  0  0  0  0
    1.8041    3.8212   10.0117 C   0  0  0  0  0  0  0  0  0  0  0  0
    1.0219    4.6165    9.0806 C   0  0  0  0  0  0  0  0  0  0  0  0
   -0.2682    4.5927    9.5377 C   0  0  0  0  0  0  0  0  0  0  0  0
   -0.3496    3.8668   10.6667 N   0  0  0  0  0  0  0  0  0  0  0  0
    0.8806    3.3533   11.0064 C   0  0  0  0  0  0  0  0  0  0  0  0
    1.2701    2.5323   12.0703 C   0  0  0  0  0  0  0  0  0  0  0  0
   -0.5547   -0.8186   14.1912 C   0  0  0  0  0  0  0  0  0  0  0  0
   -1.9427   -1.0874   14.0603 C   0  0  0  0  0  0  0  0  0  0  0  0
   -2.7500   -0.3519   13.2066 O   0  0  0  0  0  0  0  0  0  0  0  0
   -2.2281    0.6471   12.3512 C   0  0  0  0  0  0  0  0  0  0  0  0
   -5.3466   -3.2541   13.5756 H   0  0  0  0  0  0  0  0  0  0  0  0
   -3.9679   -2.5545   12.6613 H   0  0  0  0  0  0  0  0  0  0  0  0
   -3.7530   -4.0828   13.5803 H   0  0  0  0  0  0  0  0  0  0  0  0
   -2.3277   -2.8276   14.0043 H   0  0  0  0  0  0  0  0  0  0  0  0
   -2.2004   -3.6662   16.2525 H   0  0  0  0  0  0  0  0  0  0  0  0
    0.2023   -3.2098   16.4900 H   0  0  0  0  0  0  0  0  0  0  0  0
    5.1512    1.9301   13.2447 H   0  0  0  0  0  0  0  0  0  0  0  0
    6.8383    0.8802   15.3068 H   0  0  0  0  0  0  0  0  0  0  0  0
    6.2591   -0.7741   17.3377 H   0  0  0  0  0  0  0  0  0  0  0  0
    4.5829    2.3628   11.2488 H   0  0  0  0  0  0  0  0  0  0  0  0
    3.8695    3.8130    9.3877 H   0  0  0  0  0  0  0  0  0  0  0  0
    1.3866    5.1261    8.2010 H   0  0  0  0  0  0  0  0  0  0  0  0
   -0.5996    5.6213    9.7429 H   0  0  0  0  0  0  0  0  0  0  0  0
   -0.9169    4.1446    8.7706 H   0  0  0  0  0  0  0  0  0  0  0  0
    0.5639    2.1987   12.8162 H   0  0  0  0  0  0  0  0  0  0  0  0
   -0.0957   -0.0332   13.6091 H   0  0  0  0  0  0  0  0  0  0  0  0
   -3.0463    1.0961   11.7689 H   0  0  0  0  0  0  0  0  0  0  0  0
   -1.7369    1.4255   12.9536 H   0  0  0  0  0  0  0  0  0  0  0  0
   -1.4949    0.1965   11.6660 H   0  0  0  0  0  0  0  0  0  0  0  0
  1  2  1  0  0  0  0
  2  3  1  0  0  0  0
  3  4  1  0  0  0  0
  3 27  1  0  0  0  0
  4  5  2  0  0  0  0
  5  6  1  0  0  0  0
  6  7  2  0  0  0  0
  6 26  1  0  0  0  0
  7  8  1  0  0  0  0
  8  9  2  0  0  0  0
  8 16  1  0  0  0  0
  9 10  1  0  0  0  0
 10 11  2  0  0  0  0
 10 17  1  0  0  0  0
 11 12  1  0  0  0  0
 12 13  1  0  0  0  0
 12 16  1  0  0  0  0
 13 14  2  0  0  0  0
 14 15  1  0  0  0  0
 15 16  2  0  0  0  0
 17 18  1  0  0  0  0
 17 25  2  0  0  0  0
 18 19  2  0  0  0  0
 19 20  1  0  0  0  0
 20 21  2  0  0  0  0
 20 24  1  0  0  0  0
 21 22  1  0  0  0  0
 22 23  1  0  0  0  0
 23 24  2  0  0  0  0
 24 25  1  0  0  0  0
 26 27  2  0  0  0  0
 27 28  1  0  0  0  0
 28 29  1  0  0  0  0
  1 30  1  0  0  0  0
  1 31  1  0  0  0  0
  1 32  1  0  0  0  0
  3 33  1  0  0  0  0
  4 34  1  0  0  0  0
  5 35  1  0  0  0  0
 11 36  1  0  0  0  0
 13 37  1  0  0  0  0
 14 38  1  0  0  0  0
 18 39  1  0  0  0  0
 19 40  1  0  0  0  0
 21 41  1  0  0  0  0
 22 42  1  0  0  0  0
 22 43  1  0  0  0  0
 25 44  1  0  0  0  0
 26 45  1  0  0  0  0
 29 46  1  0  0  0  0
 29 47  1  0  0  0  0
 29 48  1  0  0  0  0
M  END
> <IC50[nM]>
2.7

$$$$
CHEMBL3265016
  -OEChem-05192314333D
 Structure written by MMmdl.
 48 52  0     0  0  0  0  0  0999 V2000
   -4.2568   -3.1050   13.5687 C   0  0  0  0  0  0  0  0  0  0  0  0
   -3.8730   -2.3616   14.7152 O   0  0  0  0  0  0  0  0  0  0  0  0
   -2.5250   -2.1116   14.8158 C   0  0  0  0  0  0  0  0  0  0  0  0
   -1.7470   -2.8700   15.6807 C   0  0  0  0  0  0  0  0  0  0  0  0
   -0.3902   -2.6106   15.8144 C   0  0  0  0  0  0  0  0  0  0  0  0
    0.2207   -1.5844   15.0868 C   0  0  0  0  0  0  0  0  0  0  0  0
    1.6046   -1.3596   15.3257 N   0  0  0  0  0  0  0  0  0  0  0  0
    2.5329   -0.4401   14.7638 C   0  0  0  0  0  0  0  0  0  0  0  0
    2.1751    0.3788   13.7311 N   0  0  0  0  0  0  0  0  0  0  0  0
    3.1086    1.2387   13.2176 C   0  0  0  0  0  0  0  0  0  0  0  0
    4.4159    1.2831   13.6998 C   0  0  0  0  0  0  0  0  0  0  0  0
    4.7435    0.4926   14.7566 N   0  0  0  0  0  0  0  0  0  0  0  0
    5.8975    0.3810   15.4862 C   0  0  0  0  0  0  0  0  0  0  0  0
    5.5917   -0.5286   16.5249 C   0  0  0  0  0  0  0  0  0  0  0  0
    4.3780   -1.0408   16.3703 N   0  0  0  0  0  0  0  0  0  0  0  0
    3.8370   -0.3906   15.3278 C   0  0  0  0  0  0  0  0  0  0  0  0
    2.6350    2.1602   12.1213 C   0  0  0  0  0  0  0  0  0  0  0  0
    3.5425    2.6402   11.1650 C   0  0  0  0  0  0  0  0  0  0  0  0
    3.1493    3.4616   10.1117 C   0  0  0  0  0  0  0  0  0  0  0  0
    1.8041    3.8212   10.0117 C   0  0  0  0  0  0  0  0  0  0  0  0
    1.0219    4.6165    9.0806 C   0  0  0  0  0  0  0  0  0  0  0  0
   -0.2682    4.5927    9.5377 C   0  0  0  0  0  0  0  0  0  0  0  0
   -0.3496    3.8668   10.6667 N   0  0  0  0  0  0  0  0  0  0  0  0
    0.8806    3.3533   11.0064 C   0  0  0  0  0  0  0  0  0  0  0  0
    1.2701    2.5323   12.0703 C   0  0  0  0  0  0  0  0  0  0  0  0
   -0.5547   -0.8186   14.1912 C   0  0  0  0  0  0  0  0  0  0  0  0
   -1.9427   -1.0874   14.0603 C   0  0  0  0  0  0  0  0  0  0  0  0
   -2.7500   -0.3519   13.2066 O   0  0  0  0  0  0  0  0  0  0  0  0
   -2.2281    0.6471   12.3512 C   0  0  0  0  0  0  0  0  0  0  0  0
   -5.3466   -3.2541   13.5756 H   0  0  0  0  0  0  0  0  0  0  0  0
   -3.9679   -2.5545   12.6613 H   0  0  0  0  0  0  0  0  0  0  0  0
   -3.7530   -4.0828   13.5803 H   0  0  0  0  0  0  0  0  0  0  0  0
   -2.2004   -3.6662   16.2525 H   0  0  0  0  0  0  0  0  0  0  0  0
   -0.2176   -2.3862   16.8774 H   0  0  0  0  0  0  0  0  0  0  0  0
    0.1341   -3.5396   15.5459 H   0  0  0  0  0  0  0  0  0  0  0  0
    5.1512    1.9301   13.2447 H   0  0  0  0  0  0  0  0  0  0  0  0
    6.8383    0.8802   15.3068 H   0  0  0  0  0  0  0  0  0  0  0  0
    6.2591   -0.7741   17.3377 H   0  0  0  0  0  0  0  0  0  0  0  0
    4.5829    2.3628   11.2488 H   0  0  0  0  0  0  0  0  0  0  0  0
    3.8695    3.8130    9.3877 H   0  0  0  0  0  0  0  0  0  0  0  0
    1.3866    5.1261    8.2010 H   0  0  0  0  0  0  0  0  0  0  0  0
   -0.5996    5.6213    9.7429 H   0  0  0  0  0  0  0  0  0  0  0  0
   -0.9169    4.1446    8.7706 H   0  0  0  0  0  0  0  0  0  0  0  0
    0.5639    2.1987   12.8162 H   0  0  0  0  0  0  0  0  0  0  0  0
   -0.0957   -0.0332   13.6091 H   0  0  0  0  0  0  0  0  0  0  0  0
   -3.0463    1.0961   11.7689 H   0  0  0  0  0  0  0  0  0  0  0  0
   -1.7369    1.4255   12.9536 H   0  0  0  0  0  0  0  0  0  0  0  0
   -1.4949    0.1965   11.6660 H   0  0  0  0  0  0  0  0  0  0  0  0
  1  2  1  0  0  0  0
  2  3  1  0  0  0  0
  3  4  2  0  0  0  0
  3 27  1  0  0  0  0
  4  5  1  0  0  0  0
  5  6  1  0  0  0  0
  6  7  2  0  0  0  0
  6 26  1  0  0  0  0
  7  8  1  0  0  0  0
  8  9  2  0  0  0  0
  8 16  1  0  0  0  0
  9 10  1  0  0  0  0
 10 11  2  0  0  0  0
 10 17  1  0  0  0  0
 11 12  1  0  0  0  0
 12 13  1  0  0  0  0
 12 16  1  0  0  0  0
 13 14  2  0  0  0  0
 14 15  1  0  0  0  0
 15 16  2  0  0  0  0
 17 18  1  0  0  0  0
 17 25  2  0  0  0  0
 18 19  2  0  0  0  0
 19 20  1  0  0  0  0
 20 21  2  0  0  0  0
 20 24  1  0  0  0  0
 21 22  1  0  0  0  0
 22 23  1  0  0  0  0
 23 24  2  0  0  0  0
 24 25  1  0  0  0  0
 26 27  2  0  0  0  0
 27 28  1  0  0  0  0
 28 29  1  0  0  0  0
  1 30  1  0  0  0  0
  1 31  1  0  0  0  0
  1 32  1  0  0  0  0
  4 33  1  0  0  0  0
  5 34  1  0  0  0  0
  5 35  1  0  0  0  0
 11 36  1  0  0  0  0
 13 37  1  0  0  0  0
 14 38  1  0  0  0  0
 18 39  1  0  0  0  0
 19 40  1  0  0  0  0
 21 41  1  0  0  0  0
 22 42  1  0  0  0  0
 22 43  1  0  0  0  0
 25 44  1  0  0  0  0
 26 45  1  0  0  0  0
 29 46  1  0  0  0  0
 29 47  1  0  0  0  0
 29 48  1  0  0  0  0
M  END
> <IC50[nM]>
2.7

$$$$
CHEMBL3265016
  -OEChem-05192314333D
 Structure written by MMmdl.
 48 52  0     0  0  0  0  0  0999 V2000
   -4.2568   -3.1050   13.5687 C   0  0  0  0  0  0  0  0  0  0  0  0
   -3.8730   -2.3616   14.7152 O   0  0  0  0  0  0  0  0  0  0  0  0
   -2.5250   -2.1116   14.8158 C   0  0  0  0  0  0  0  0  0  0  0  0
   -1.7470   -2.8700   15.6807 C   0  0  0  0  0  0  0  0  0  0  0  0
   -0.3902   -2.6106   15.8144 C   0  0  0  0  0  0  0  0  0  0  0  0
    0.2207   -1.5844   15.0868 C   0  0  0  0  0  0  0  0  0  0  0  0
    1.6046   -1.3596   15.3257 N   0  0  0  0  0  0  0  0  0  0  0  0
    2.5329   -0.4401   14.7638 C   0  0  0  0  0  0  0  0  0  0  0  0
    2.1751    0.3788   13.7311 N   0  0  0  0  0  0  0  0  0  0  0  0
    3.1086    1.2387   13.2176 C   0  0  0  0  0  0  0  0  0  0  0  0
    4.4159    1.2831   13.6998 C   0  0  0  0  0  0  0  0  0  0  0  0
    4.7435    0.4926   14.7566 N   0  0  0  0  0  0  0  0  0  0  0  0
    5.8975    0.3810   15.4862 C   0  0  0  0  0  0  0  0  0  0  0  0
    5.5917   -0.5286   16.5249 C   0  0  0  0  0  0  0  0  0  0  0  0
    4.3780   -1.0408   16.3703 N   0  0  0  0  0  0  0  0  0  0  0  0
    3.8370   -0.3906   15.3278 C   0  0  0  0  0  0  0  0  0  0  0  0
    2.6350    2.1602   12.1213 C   0  0  0  0  0  0  0  0  0  0  0  0
    3.5425    2.6402   11.1650 C   0  0  0  0  0  0  0  0  0  0  0  0
    3.1493    3.4616   10.1117 C   0  0  0  0  0  0  0  0  0  0  0  0
    1.8041    3.8212   10.0117 C   0  0  0  0  0  0  0  0  0  0  0  0
    1.0219    4.6165    9.0806 C   0  0  0  0  0  0  0  0  0  0  0  0
   -0.2682    4.5927    9.5377 C   0  0  0  0  0  0  0  0  0  0  0  0
   -0.3496    3.8668   10.6667 N   0  0  0  0  0  0  0  0  0  0  0  0
    0.8806    3.3533   11.0064 C   0  0  0  0  0  0  0  0  0  0  0  0
    1.2701    2.5323   12.0703 C   0  0  0  0  0  0  0  0  0  0  0  0
   -0.5547   -0.8186   14.1912 C   0  0  0  0  0  0  0  0  0  0  0  0
   -1.9427   -1.0874   14.0603 C   0  0  0  0  0  0  0  0  0  0  0  0
   -2.7500   -0.3519   13.2066 O   0  0  0  0  0  0  0  0  0  0  0  0
   -2.2281    0.6471   12.3512 C   0  0  0  0  0  0  0  0  0  0  0  0
   -5.3466   -3.2541   13.5756 H   0  0  0  0  0  0  0  0  0  0  0  0
   -3.9679   -2.5545   12.6613 H   0  0  0  0  0  0  0  0  0  0  0  0
   -3.7530   -4.0828   13.5803 H   0  0  0  0  0  0  0  0  0  0  0  0
   -2.2004   -3.6662   16.2525 H   0  0  0  0  0  0  0  0  0  0  0  0
    0.2023   -3.2098   16.4900 H   0  0  0  0  0  0  0  0  0  0  0  0
    5.1512    1.9301   13.2447 H   0  0  0  0  0  0  0  0  0  0  0  0
    6.8383    0.8802   15.3068 H   0  0  0  0  0  0  0  0  0  0  0  0
    6.2591   -0.7741   17.3377 H   0  0  0  0  0  0  0  0  0  0  0  0
    4.5829    2.3628   11.2488 H   0  0  0  0  0  0  0  0  0  0  0  0
    3.8695    3.8130    9.3877 H   0  0  0  0  0  0  0  0  0  0  0  0
    1.3866    5.1261    8.2010 H   0  0  0  0  0  0  0  0  0  0  0  0
   -0.5996    5.6213    9.7429 H   0  0  0  0  0  0  0  0  0  0  0  0
   -0.9169    4.1446    8.7706 H   0  0  0  0  0  0  0  0  0  0  0  0
    0.5639    2.1987   12.8162 H   0  0  0  0  0  0  0  0  0  0  0  0
   -0.4606    0.2317   14.5042 H   0  0  0  0  0  0  0  0  0  0  0  0
   -0.1090   -0.9452   13.1935 H   0  0  0  0  0  0  0  0  0  0  0  0
   -3.0463    1.0961   11.7689 H   0  0  0  0  0  0  0  0  0  0  0  0
   -1.7369    1.4255   12.9536 H   0  0  0  0  0  0  0  0  0  0  0  0
   -1.4949    0.1965   11.6660 H   0  0  0  0  0  0  0  0  0  0  0  0
  1  2  1  0  0  0  0
  2  3  1  0  0  0  0
  3  4  1  0  0  0  0
  3 27  2  0  0  0  0
  4  5  2  0  0  0  0
  5  6  1  0  0  0  0
  6  7  2  0  0  0  0
  6 26  1  0  0  0  0
  7  8  1  0  0  0  0
  8  9  2  0  0  0  0
  8 16  1  0  0  0  0
  9 10  1  0  0  0  0
 10 11  2  0  0  0  0
 10 17  1  0  0  0  0
 11 12  1  0  0  0  0
 12 13  1  0  0  0  0
 12 16  1  0  0  0  0
 13 14  2  0  0  0  0
 14 15  1  0  0  0  0
 15 16  2  0  0  0  0
 17 18  1  0  0  0  0
 17 25  2  0  0  0  0
 18 19  2  0  0  0  0
 19 20  1  0  0  0  0
 20 21  2  0  0  0  0
 20 24  1  0  0  0  0
 21 22  1  0  0  0  0
 22 23  1  0  0  0  0
 23 24  2  0  0  0  0
 24 25  1  0  0  0  0
 26 27  1  0  0  0  0
 27 28  1  0  0  0  0
 28 29  1  0  0  0  0
  1 30  1  0  0  0  0
  1 31  1  0  0  0  0
  1 32  1  0  0  0  0
  4 33  1  0  0  0  0
  5 34  1  0  0  0  0
 11 35  1  0  0  0  0
 13 36  1  0  0  0  0
 14 37  1  0  0  0  0
 18 38  1  0  0  0  0
 19 39  1  0  0  0  0
 21 40  1  0  0  0  0
 22 41  1  0  0  0  0
 22 42  1  0  0  0  0
 25 43  1  0  0  0  0
 26 44  1  0  0  0  0
 26 45  1  0  0  0  0
 29 46  1  0  0  0  0
 29 47  1  0  0  0  0
 29 48  1  0  0  0  0
M  END
> <IC50[nM]>
2.7

$$$$
CHEMBL3265016
  -OEChem-05192314333D
 Structure written by MMmdl.
 48 52  0     1  0  0  0  0  0999 V2000
   -4.2568   -3.1050   13.5687 C   0  0  0  0  0  0  0  0  0  0  0  0
   -3.8730   -2.3616   14.7152 O   0  0  0  0  0  0  0  0  0  0  0  0
   -2.5250   -2.1116   14.8158 C   0  0  0  0  0  0  0  0  0  0  0  0
   -1.7470   -2.8700   15.6807 C   0  0  0  0  0  0  0  0  0  0  0  0
   -0.3902   -2.6106   15.8144 C   0  0  0  0  0  0  0  0  0  0  0  0
    0.2207   -1.5844   15.0868 C   0  0  0  0  0  0  0  0  0  0  0  0
    1.6046   -1.3596   15.3257 N   0  0  0  0  0  0  0  0  0  0  0  0
    2.5329   -0.4401   14.7638 C   0  0  0  0  0  0  0  0  0  0  0  0
    2.1751    0.3788   13.7311 N   0  0  0  0  0  0  0  0  0  0  0  0
    3.1086    1.2387   13.2176 C   0  0  0  0  0  0  0  0  0  0  0  0
    4.4159    1.2831   13.6998 C   0  0  0  0  0  0  0  0  0  0  0  0
    4.7435    0.4926   14.7566 N   0  0  0  0  0  0  0  0  0  0  0  0
    5.8975    0.3810   15.4862 C   0  0  0  0  0  0  0  0  0  0  0  0
    5.5917   -0.5286   16.5249 C   0  0  0  0  0  0  0  0  0  0  0  0
    4.3780   -1.0408   16.3703 N   0  0  0  0  0  0  0  0  0  0  0  0
    3.8370   -0.3906   15.3278 C   0  0  0  0  0  0  0  0  0  0  0  0
    2.6350    2.1602   12.1213 C   0  0  3  0  0  0  0  0  0  0  0  0
    3.5425    2.6402   11.1650 C   0  0  0  0  0  0  0  0  0  0  0  0
    3.1493    3.4616   10.1117 C   0  0  0  0  0  0  0  0  0  0  0  0
    1.8041    3.8212   10.0117 C   0  0  0  0  0  0  0  0  0  0  0  0
    1.0219    4.6165    9.0806 C   0  0  0  0  0  0  0  0  0  0  0  0
   -0.2682    4.5927    9.5377 C   0  0  0  0  0  0  0  0  0  0  0  0
   -0.3496    3.8668   10.6667 N   0  0  0  0  0  0  0  0  0  0  0  0
    0.8806    3.3533   11.0064 C   0  0  0  0  0  0  0  0  0  0  0  0
    1.2701    2.5323   12.0703 C   0  0  0  0  0  0  0  0  0  0  0  0
   -0.5547   -0.8186   14.1912 C   0  0  0  0  0  0  0  0  0  0  0  0
   -1.9427   -1.0874   14.0603 C   0  0  0  0  0  0  0  0  0  0  0  0
   -2.7500   -0.3519   13.2066 O   0  0  0  0  0  0  0  0  0  0  0  0
   -2.2281    0.6471   12.3512 C   0  0  0  0  0  0  0  0  0  0  0  0
   -5.3466   -3.2541   13.5756 H   0  0  0  0  0  0  0  0  0  0  0  0
   -3.9679   -2.5545   12.6613 H   0  0  0  0  0  0  0  0  0  0  0  0
   -3.7530   -4.0828   13.5803 H   0  0  0  0  0  0  0  0  0  0  0  0
   -2.2004   -3.6662   16.2525 H   0  0  0  0  0  0  0  0  0  0  0  0
    0.2023   -3.2098   16.4900 H   0  0  0  0  0  0  0  0  0  0  0  0
    1.2482    0.3509   13.3568 H   0  0  0  0  0  0  0  0  0  0  0  0
    5.1512    1.9301   13.2447 H   0  0  0  0  0  0  0  0  0  0  0  0
    6.8383    0.8802   15.3068 H   0  0  0  0  0  0  0  0  0  0  0  0
    6.2591   -0.7741   17.3377 H   0  0  0  0  0  0  0  0  0  0  0  0
    2.8482    3.0299   12.7602 H   0  0  0  0  0  0  0  0  0  0  0  0
    4.5829    2.3628   11.2488 H   0  0  0  0  0  0  0  0  0  0  0  0
    3.8695    3.8130    9.3877 H   0  0  0  0  0  0  0  0  0  0  0  0
    1.3866    5.1261    8.2010 H   0  0  0  0  0  0  0  0  0  0  0  0
   -1.1015    5.0864    9.0599 H   0  0  0  0  0  0  0  0  0  0  0  0
    0.5639    2.1987   12.8162 H   0  0  0  0  0  0  0  0  0  0  0  0
   -0.0957   -0.0332   13.6091 H   0  0  0  0  0  0  0  0  0  0  0  0
   -3.0463    1.0961   11.7689 H   0  0  0  0  0  0  0  0  0  0  0  0
   -1.7369    1.4255   12.9536 H   0  0  0  0  0  0  0  0  0  0  0  0
   -1.4949    0.1965   11.6660 H   0  0  0  0  0  0  0  0  0  0  0  0
  1  2  1  0  0  0  0
  2  3  1  0  0  0  0
  3  4  2  0  0  0  0
  3 27  1  0  0  0  0
  4  5  1  0  0  0  0
  5  6  2  0  0  0  0
  6  7  1  0  0  0  0
  6 26  1  0  0  0  0
  7  8  2  0  0  0  0
  8  9  1  0  0  0  0
  8 16  1  0  0  0  0
  9 10  1  0  0  0  0
 10 11  2  0  0  0  0
 10 17  1  0  0  0  0
 11 12  1  0  0  0  0
 12 13  1  0  0  0  0
 12 16  1  0  0  0  0
 13 14  2  0  0  0  0
 14 15  1  0  0  0  0
 15 16  2  0  0  0  0
 17 18  1  0  0  0  0
 17 25  1  0  0  0  0
 18 19  2  0  0  0  0
 19 20  1  0  0  0  0
 20 21  2  0  0  0  0
 20 24  1  0  0  0  0
 21 22  1  0  0  0  0
 22 23  2  0  0  0  0
 23 24  1  0  0  0  0
 24 25  2  0  0  0  0
 26 27  2  0  0  0  0
 27 28  1  0  0  0  0
 28 29  1  0  0  0  0
  1 30  1  0  0  0  0
  1 31  1  0  0  0  0
  1 32  1  0  0  0  0
  4 33  1  0  0  0  0
  5 34  1  0  0  0  0
  9 35  1  0  0  0  0
 11 36  1  0  0  0  0
 13 37  1  0  0  0  0
 14 38  1  0  0  0  0
 17 39  1  0  0  0  0
 18 40  1  0  0  0  0
 19 41  1  0  0  0  0
 21 42  1  0  0  0  0
 22 43  1  0  0  0  0
 25 44  1  0  0  0  0
 26 45  1  0  0  0  0
 29 46  1  0  0  0  0
 29 47  1  0  0  0  0
 29 48  1  0  0  0  0
M  END
> <IC50[nM]>
2.7

$$$$
CHEMBL3265016
  -OEChem-05192314333D
 Structure written by MMmdl.
 48 52  0     1  0  0  0  0  0999 V2000
   -4.2568   -3.1050   13.5687 C   0  0  0  0  0  0  0  0  0  0  0  0
   -3.8730   -2.3616   14.7152 O   0  0  0  0  0  0  0  0  0  0  0  0
   -2.5250   -2.1116   14.8158 C   0  0  0  0  0  0  0  0  0  0  0  0
   -1.7470   -2.8700   15.6807 C   0  0  0  0  0  0  0  0  0  0  0  0
   -0.3902   -2.6106   15.8144 C   0  0  0  0  0  0  0  0  0  0  0  0
    0.2207   -1.5844   15.0868 C   0  0  0  0  0  0  0  0  0  0  0  0
    1.6046   -1.3596   15.3257 N   0  0  0  0  0  0  0  0  0  0  0  0
    2.5329   -0.4401   14.7638 C   0  0  0  0  0  0  0  0  0  0  0  0
    2.1751    0.3788   13.7311 N   0  0  0  0  0  0  0  0  0  0  0  0
    3.1086    1.2387   13.2176 C   0  0  0  0  0  0  0  0  0  0  0  0
    4.4159    1.2831   13.6998 C   0  0  0  0  0  0  0  0  0  0  0  0
    4.7435    0.4926   14.7566 N   0  0  0  0  0  0  0  0  0  0  0  0
    5.8975    0.3810   15.4862 C   0  0  0  0  0  0  0  0  0  0  0  0
    5.5917   -0.5286   16.5249 C   0  0  0  0  0  0  0  0  0  0  0  0
    4.3780   -1.0408   16.3703 N   0  0  0  0  0  0  0  0  0  0  0  0
    3.8370   -0.3906   15.3278 C   0  0  0  0  0  0  0  0  0  0  0  0
    2.6350    2.1602   12.1213 C   0  0  0  0  0  0  0  0  0  0  0  0
    3.5425    2.6402   11.1650 C   0  0  0  0  0  0  0  0  0  0  0  0
    3.1493    3.4616   10.1117 C   0  0  0  0  0  0  0  0  0  0  0  0
    1.8041    3.8212   10.0117 C   0  0  3  0  0  0  0  0  0  0  0  0
    1.0219    4.6165    9.0806 C   0  0  0  0  0  0  0  0  0  0  0  0
   -0.2682    4.5927    9.5377 C   0  0  0  0  0  0  0  0  0  0  0  0
   -0.3496    3.8668   10.6667 N   0  0  0  0  0  0  0  0  0  0  0  0
    0.8806    3.3533   11.0064 C   0  0  0  0  0  0  0  0  0  0  0  0
    1.2701    2.5323   12.0703 C   0  0  0  0  0  0  0  0  0  0  0  0
   -0.5547   -0.8186   14.1912 C   0  0  0  0  0  0  0  0  0  0  0  0
   -1.9427   -1.0874   14.0603 C   0  0  0  0  0  0  0  0  0  0  0  0
   -2.7500   -0.3519   13.2066 O   0  0  0  0  0  0  0  0  0  0  0  0
   -2.2281    0.6471   12.3512 C   0  0  0  0  0  0  0  0  0  0  0  0
   -5.3466   -3.2541   13.5756 H   0  0  0  0  0  0  0  0  0  0  0  0
   -3.9679   -2.5545   12.6613 H   0  0  0  0  0  0  0  0  0  0  0  0
   -3.7530   -4.0828   13.5803 H   0  0  0  0  0  0  0  0  0  0  0  0
   -2.2004   -3.6662   16.2525 H   0  0  0  0  0  0  0  0  0  0  0  0
    0.2023   -3.2098   16.4900 H   0  0  0  0  0  0  0  0  0  0  0  0
    1.2482    0.3509   13.3568 H   0  0  0  0  0  0  0  0  0  0  0  0
    5.1512    1.9301   13.2447 H   0  0  0  0  0  0  0  0  0  0  0  0
    6.8383    0.8802   15.3068 H   0  0  0  0  0  0  0  0  0  0  0  0
    6.2591   -0.7741   17.3377 H   0  0  0  0  0  0  0  0  0  0  0  0
    4.5829    2.3628   11.2488 H   0  0  0  0  0  0  0  0  0  0  0  0
    3.8695    3.8130    9.3877 H   0  0  0  0  0  0  0  0  0  0  0  0
    1.9993    4.7198   10.6154 H   0  0  0  0  0  0  0  0  0  0  0  0
    1.3866    5.1261    8.2010 H   0  0  0  0  0  0  0  0  0  0  0  0
   -1.1015    5.0864    9.0599 H   0  0  0  0  0  0  0  0  0  0  0  0
    0.5639    2.1987   12.8162 H   0  0  0  0  0  0  0  0  0  0  0  0
   -0.0957   -0.0332   13.6091 H   0  0  0  0  0  0  0  0  0  0  0  0
   -3.0463    1.0961   11.7689 H   0  0  0  0  0  0  0  0  0  0  0  0
   -1.7369    1.4255   12.9536 H   0  0  0  0  0  0  0  0  0  0  0  0
   -1.4949    0.1965   11.6660 H   0  0  0  0  0  0  0  0  0  0  0  0
  1  2  1  0  0  0  0
  2  3  1  0  0  0  0
  3  4  2  0  0  0  0
  3 27  1  0  0  0  0
  4  5  1  0  0  0  0
  5  6  2  0  0  0  0
  6  7  1  0  0  0  0
  6 26  1  0  0  0  0
  7  8  2  0  0  0  0
  8  9  1  0  0  0  0
  8 16  1  0  0  0  0
  9 10  1  0  0  0  0
 10 11  2  0  0  0  0
 10 17  1  0  0  0  0
 11 12  1  0  0  0  0
 12 13  1  0  0  0  0
 12 16  1  0  0  0  0
 13 14  2  0  0  0  0
 14 15  1  0  0  0  0
 15 16  2  0  0  0  0
 17 18  1  0  0  0  0
 17 25  2  0  0  0  0
 18 19  2  0  0  0  0
 19 20  1  0  0  0  0
 20 21  1  0  0  0  0
 20 24  1  0  0  0  0
 21 22  2  0  0  0  0
 22 23  1  0  0  0  0
 23 24  2  0  0  0  0
 24 25  1  0  0  0  0
 26 27  2  0  0  0  0
 27 28  1  0  0  0  0
 28 29  1  0  0  0  0
  1 30  1  0  0  0  0
  1 31  1  0  0  0  0
  1 32  1  0  0  0  0
  4 33  1  0  0  0  0
  5 34  1  0  0  0  0
  9 35  1  0  0  0  0
 11 36  1  0  0  0  0
 13 37  1  0  0  0  0
 14 38  1  0  0  0  0
 18 39  1  0  0  0  0
 19 40  1  0  0  0  0
 20 41  1  0  0  0  0
 21 42  1  0  0  0  0
 22 43  1  0  0  0  0
 25 44  1  0  0  0  0
 26 45  1  0  0  0  0
 29 46  1  0  0  0  0
 29 47  1  0  0  0  0
 29 48  1  0  0  0  0
M  END
> <IC50[nM]>
2.7

$$$$
CHEMBL3265016
  -OEChem-05192314333D
 Structure written by MMmdl.
 48 52  0     1  0  0  0  0  0999 V2000
   -4.2568   -3.1050   13.5687 C   0  0  0  0  0  0  0  0  0  0  0  0
   -3.8730   -2.3616   14.7152 O   0  0  0  0  0  0  0  0  0  0  0  0
   -2.5250   -2.1116   14.8158 C   0  0  0  0  0  0  0  0  0  0  0  0
   -1.7470   -2.8700   15.6807 C   0  0  0  0  0  0  0  0  0  0  0  0
   -0.3902   -2.6106   15.8144 C   0  0  0  0  0  0  0  0  0  0  0  0
    0.2207   -1.5844   15.0868 C   0  0  0  0  0  0  0  0  0  0  0  0
    1.6046   -1.3596   15.3257 N   0  0  0  0  0  0  0  0  0  0  0  0
    2.5329   -0.4401   14.7638 C   0  0  0  0  0  0  0  0  0  0  0  0
    2.1751    0.3788   13.7311 N   0  0  0  0  0  0  0  0  0  0  0  0
    3.1086    1.2387   13.2176 C   0  0  0  0  0  0  0  0  0  0  0  0
    4.4159    1.2831   13.6998 C   0  0  0  0  0  0  0  0  0  0  0  0
    4.7435    0.4926   14.7566 N   0  0  0  0  0  0  0  0  0  0  0  0
    5.8975    0.3810   15.4862 C   0  0  0  0  0  0  0  0  0  0  0  0
    5.5917   -0.5286   16.5249 C   0  0  0  0  0  0  0  0  0  0  0  0
    4.3780   -1.0408   16.3703 N   0  0  0  0  0  0  0  0  0  0  0  0
    3.8370   -0.3906   15.3278 C   0  0  0  0  0  0  0  0  0  0  0  0
    2.6350    2.1602   12.1213 C   0  0  0  0  0  0  0  0  0  0  0  0
    3.5425    2.6402   11.1650 C   0  0  0  0  0  0  0  0  0  0  0  0
    3.1493    3.4616   10.1117 C   0  0  0  0  0  0  0  0  0  0  0  0
    1.8041    3.8212   10.0117 C   0  0  0  0  0  0  0  0  0  0  0  0
    1.0219    4.6165    9.0806 C   0  0  0  0  0  0  0  0  0  0  0  0
   -0.2682    4.5927    9.5377 C   0  0  0  0  0  0  0  0  0  0  0  0
   -0.3496    3.8668   10.6667 N   0  0  0  0  0  0  0  0  0  0  0  0
    0.8806    3.3533   11.0064 C   0  0  3  0  0  0  0  0  0  0  0  0
    1.2701    2.5323   12.0703 C   0  0  0  0  0  0  0  0  0  0  0  0
   -0.5547   -0.8186   14.1912 C   0  0  0  0  0  0  0  0  0  0  0  0
   -1.9427   -1.0874   14.0603 C   0  0  0  0  0  0  0  0  0  0  0  0
   -2.7500   -0.3519   13.2066 O   0  0  0  0  0  0  0  0  0  0  0  0
   -2.2281    0.6471   12.3512 C   0  0  0  0  0  0  0  0  0  0  0  0
   -5.3466   -3.2541   13.5756 H   0  0  0  0  0  0  0  0  0  0  0  0
   -3.9679   -2.5545   12.6613 H   0  0  0  0  0  0  0  0  0  0  0  0
   -3.7530   -4.0828   13.5803 H   0  0  0  0  0  0  0  0  0  0  0  0
   -2.2004   -3.6662   16.2525 H   0  0  0  0  0  0  0  0  0  0  0  0
    0.2023   -3.2098   16.4900 H   0  0  0  0  0  0  0  0  0  0  0  0
    1.2482    0.3509   13.3568 H   0  0  0  0  0  0  0  0  0  0  0  0
    5.1512    1.9301   13.2447 H   0  0  0  0  0  0  0  0  0  0  0  0
    6.8383    0.8802   15.3068 H   0  0  0  0  0  0  0  0  0  0  0  0
    6.2591   -0.7741   17.3377 H   0  0  0  0  0  0  0  0  0  0  0  0
    4.5829    2.3628   11.2488 H   0  0  0  0  0  0  0  0  0  0  0  0
    3.8695    3.8130    9.3877 H   0  0  0  0  0  0  0  0  0  0  0  0
    1.3866    5.1261    8.2010 H   0  0  0  0  0  0  0  0  0  0  0  0
   -1.1015    5.0864    9.0599 H   0  0  0  0  0  0  0  0  0  0  0  0
    1.0854    4.2447   11.6176 H   0  0  0  0  0  0  0  0  0  0  0  0
    0.5639    2.1987   12.8162 H   0  0  0  0  0  0  0  0  0  0  0  0
   -0.0957   -0.0332   13.6091 H   0  0  0  0  0  0  0  0  0  0  0  0
   -3.0463    1.0961   11.7689 H   0  0  0  0  0  0  0  0  0  0  0  0
   -1.7369    1.4255   12.9536 H   0  0  0  0  0  0  0  0  0  0  0  0
   -1.4949    0.1965   11.6660 H   0  0  0  0  0  0  0  0  0  0  0  0
  1  2  1  0  0  0  0
  2  3  1  0  0  0  0
  3  4  2  0  0  0  0
  3 27  1  0  0  0  0
  4  5  1  0  0  0  0
  5  6  2  0  0  0  0
  6  7  1  0  0  0  0
  6 26  1  0  0  0  0
  7  8  2  0  0  0  0
  8  9  1  0  0  0  0
  8 16  1  0  0  0  0
  9 10  1  0  0  0  0
 10 11  2  0  0  0  0
 10 17  1  0  0  0  0
 11 12  1  0  0  0  0
 12 13  1  0  0  0  0
 12 16  1  0  0  0  0
 13 14  2  0  0  0  0
 14 15  1  0  0  0  0
 15 16  2  0  0  0  0
 17 18  1  0  0  0  0
 17 25  2  0  0  0  0
 18 19  2  0  0  0  0
 19 20  1  0  0  0  0
 20 21  2  0  0  0  0
 20 24  1  0  0  0  0
 21 22  1  0  0  0  0
 22 23  2  0  0  0  0
 23 24  1  0  0  0  0
 24 25  1  0  0  0  0
 26 27  2  0  0  0  0
 27 28  1  0  0  0  0
 28 29  1  0  0  0  0
  1 30  1  0  0  0  0
  1 31  1  0  0  0  0
  1 32  1  0  0  0  0
  4 33  1  0  0  0  0
  5 34  1  0  0  0  0
  9 35  1  0  0  0  0
 11 36  1  0  0  0  0
 13 37  1  0  0  0  0
 14 38  1  0  0  0  0
 18 39  1  0  0  0  0
 19 40  1  0  0  0  0
 21 41  1  0  0  0  0
 22 42  1  0  0  0  0
 24 43  1  0  0  0  0
 25 44  1  0  0  0  0
 26 45  1  0  0  0  0
 29 46  1  0  0  0  0
 29 47  1  0  0  0  0
 29 48  1  0  0  0  0
M  END
> <IC50[nM]>
2.7

$$$$
CHEMBL3265016
  -OEChem-05192314333D
 Structure written by MMmdl.
 48 52  0     0  0  0  0  0  0999 V2000
   -4.2568   -3.1050   13.5687 C   0  0  0  0  0  0  0  0  0  0  0  0
   -3.8730   -2.3616   14.7152 O   0  0  0  0  0  0  0  0  0  0  0  0
   -2.5250   -2.1116   14.8158 C   0  0  0  0  0  0  0  0  0  0  0  0
   -1.7470   -2.8700   15.6807 C   0  0  0  0  0  0  0  0  0  0  0  0
   -0.3902   -2.6106   15.8144 C   0  0  0  0  0  0  0  0  0  0  0  0
    0.2207   -1.5844   15.0868 C   0  0  0  0  0  0  0  0  0  0  0  0
    1.6046   -1.3596   15.3257 N   0  0  0  0  0  0  0  0  0  0  0  0
    2.5329   -0.4401   14.7638 C   0  0  0  0  0  0  0  0  0  0  0  0
    2.1751    0.3788   13.7311 N   0  0  0  0  0  0  0  0  0  0  0  0
    3.1086    1.2387   13.2176 C   0  0  0  0  0  0  0  0  0  0  0  0
    4.4159    1.2831   13.6998 C   0  0  0  0  0  0  0  0  0  0  0  0
    4.7435    0.4926   14.7566 N   0  0  0  0  0  0  0  0  0  0  0  0
    5.8975    0.3810   15.4862 C   0  0  0  0  0  0  0  0  0  0  0  0
    5.5917   -0.5286   16.5249 C   0  0  0  0  0  0  0  0  0  0  0  0
    4.3780   -1.0408   16.3703 N   0  0  0  0  0  0  0  0  0  0  0  0
    3.8370   -0.3906   15.3278 C   0  0  0  0  0  0  0  0  0  0  0  0
    2.6350    2.1602   12.1213 C   0  0  0  0  0  0  0  0  0  0  0  0
    3.5425    2.6402   11.1650 C   0  0  0  0  0  0  0  0  0  0  0  0
    3.1493    3.4616   10.1117 C   0  0  0  0  0  0  0  0  0  0  0  0
    1.8041    3.8212   10.0117 C   0  0  0  0  0  0  0  0  0  0  0  0
    1.0219    4.6165    9.0806 C   0  0  0  0  0  0  0  0  0  0  0  0
   -0.2682    4.5927    9.5377 C   0  0  0  0  0  0  0  0  0  0  0  0
   -0.3496    3.8668   10.6667 N   0  0  0  0  0  0  0  0  0  0  0  0
    0.8806    3.3533   11.0064 C   0  0  0  0  0  0  0  0  0  0  0  0
    1.2701    2.5323   12.0703 C   0  0  0  0  0  0  0  0  0  0  0  0
   -0.5547   -0.8186   14.1912 C   0  0  0  0  0  0  0  0  0  0  0  0
   -1.9427   -1.0874   14.0603 C   0  0  0  0  0  0  0  0  0  0  0  0
   -2.7500   -0.3519   13.2066 O   0  0  0  0  0  0  0  0  0  0  0  0
   -2.2281    0.6471   12.3512 C   0  0  0  0  0  0  0  0  0  0  0  0
   -5.3466   -3.2541   13.5756 H   0  0  0  0  0  0  0  0  0  0  0  0
   -3.9679   -2.5545   12.6613 H   0  0  0  0  0  0  0  0  0  0  0  0
   -3.7530   -4.0828   13.5803 H   0  0  0  0  0  0  0  0  0  0  0  0
   -2.2004   -3.6662   16.2525 H   0  0  0  0  0  0  0  0  0  0  0  0
    0.2023   -3.2098   16.4900 H   0  0  0  0  0  0  0  0  0  0  0  0
    1.2482    0.3509   13.3568 H   0  0  0  0  0  0  0  0  0  0  0  0
    5.1512    1.9301   13.2447 H   0  0  0  0  0  0  0  0  0  0  0  0
    6.8383    0.8802   15.3068 H   0  0  0  0  0  0  0  0  0  0  0  0
    6.2591   -0.7741   17.3377 H   0  0  0  0  0  0  0  0  0  0  0  0
    4.5829    2.3628   11.2488 H   0  0  0  0  0  0  0  0  0  0  0  0
    3.7289    4.3930   10.1929 H   0  0  0  0  0  0  0  0  0  0  0  0
    3.4167    2.9434    9.1790 H   0  0  0  0  0  0  0  0  0  0  0  0
    1.3866    5.1261    8.2010 H   0  0  0  0  0  0  0  0  0  0  0  0
   -1.1015    5.0864    9.0599 H   0  0  0  0  0  0  0  0  0  0  0  0
    0.5639    2.1987   12.8162 H   0  0  0  0  0  0  0  0  0  0  0  0
   -0.0957   -0.0332   13.6091 H   0  0  0  0  0  0  0  0  0  0  0  0
   -3.0463    1.0961   11.7689 H   0  0  0  0  0  0  0  0  0  0  0  0
   -1.7369    1.4255   12.9536 H   0  0  0  0  0  0  0  0  0  0  0  0
   -1.4949    0.1965   11.6660 H   0  0  0  0  0  0  0  0  0  0  0  0
  1  2  1  0  0  0  0
  2  3  1  0  0  0  0
  3  4  2  0  0  0  0
  3 27  1  0  0  0  0
  4  5  1  0  0  0  0
  5  6  2  0  0  0  0
  6  7  1  0  0  0  0
  6 26  1  0  0  0  0
  7  8  2  0  0  0  0
  8  9  1  0  0  0  0
  8 16  1  0  0  0  0
  9 10  1  0  0  0  0
 10 11  2  0  0  0  0
 10 17  1  0  0  0  0
 11 12  1  0  0  0  0
 12 13  1  0  0  0  0
 12 16  1  0  0  0  0
 13 14  2  0  0  0  0
 14 15  1  0  0  0  0
 15 16  2  0  0  0  0
 17 18  2  0  0  0  0
 17 25  1  0  0  0  0
 18 19  1  0  0  0  0
 19 20  1  0  0  0  0
 20 21  2  0  0  0  0
 20 24  1  0  0  0  0
 21 22  1  0  0  0  0
 22 23  2  0  0  0  0
 23 24  1  0  0  0  0
 24 25  2  0  0  0  0
 26 27  2  0  0  0  0
 27 28  1  0  0  0  0
 28 29  1  0  0  0  0
  1 30  1  0  0  0  0
  1 31  1  0  0  0  0
  1 32  1  0  0  0  0
  4 33  1  0  0  0  0
  5 34  1  0  0  0  0
  9 35  1  0  0  0  0
 11 36  1  0  0  0  0
 13 37  1  0  0  0  0
 14 38  1  0  0  0  0
 18 39  1  0  0  0  0
 19 40  1  0  0  0  0
 19 41  1  0  0  0  0
 21 42  1  0  0  0  0
 22 43  1  0  0  0  0
 25 44  1  0  0  0  0
 26 45  1  0  0  0  0
 29 46  1  0  0  0  0
 29 47  1  0  0  0  0
 29 48  1  0  0  0  0
M  END
> <IC50[nM]>
2.7

$$$$
CHEMBL3265016
  -OEChem-05192314333D
 Structure written by MMmdl.
 48 52  0     0  0  0  0  0  0999 V2000
   -4.2568   -3.1050   13.5687 C   0  0  0  0  0  0  0  0  0  0  0  0
   -3.8730   -2.3616   14.7152 O   0  0  0  0  0  0  0  0  0  0  0  0
   -2.5250   -2.1116   14.8158 C   0  0  0  0  0  0  0  0  0  0  0  0
   -1.7470   -2.8700   15.6807 C   0  0  0  0  0  0  0  0  0  0  0  0
   -0.3902   -2.6106   15.8144 C   0  0  0  0  0  0  0  0  0  0  0  0
    0.2207   -1.5844   15.0868 C   0  0  0  0  0  0  0  0  0  0  0  0
    1.6046   -1.3596   15.3257 N   0  0  0  0  0  0  0  0  0  0  0  0
    2.5329   -0.4401   14.7638 C   0  0  0  0  0  0  0  0  0  0  0  0
    2.1751    0.3788   13.7311 N   0  0  0  0  0  0  0  0  0  0  0  0
    3.1086    1.2387   13.2176 C   0  0  0  0  0  0  0  0  0  0  0  0
    4.4159    1.2831   13.6998 C   0  0  0  0  0  0  0  0  0  0  0  0
    4.7435    0.4926   14.7566 N   0  0  0  0  0  0  0  0  0  0  0  0
    5.8975    0.3810   15.4862 C   0  0  0  0  0  0  0  0  0  0  0  0
    5.5917   -0.5286   16.5249 C   0  0  0  0  0  0  0  0  0  0  0  0
    4.3780   -1.0408   16.3703 N   0  0  0  0  0  0  0  0  0  0  0  0
    3.8370   -0.3906   15.3278 C   0  0  0  0  0  0  0  0  0  0  0  0
    2.6350    2.1602   12.1213 C   0  0  0  0  0  0  0  0  0  0  0  0
    3.5425    2.6402   11.1650 C   0  0  0  0  0  0  0  0  0  0  0  0
    3.1493    3.4616   10.1117 C   0  0  0  0  0  0  0  0  0  0  0  0
    1.8041    3.8212   10.0117 C   0  0  0  0  0  0  0  0  0  0  0  0
    1.0219    4.6165    9.0806 C   0  0  0  0  0  0  0  0  0  0  0  0
   -0.2682    4.5927    9.5377 C   0  0  0  0  0  0  0  0  0  0  0  0
   -0.3496    3.8668   10.6667 N   0  0  0  0  0  0  0  0  0  0  0  0
    0.8806    3.3533   11.0064 C   0  0  0  0  0  0  0  0  0  0  0  0
    1.2701    2.5323   12.0703 C   0  0  0  0  0  0  0  0  0  0  0  0
   -0.5547   -0.8186   14.1912 C   0  0  0  0  0  0  0  0  0  0  0  0
   -1.9427   -1.0874   14.0603 C   0  0  0  0  0  0  0  0  0  0  0  0
   -2.7500   -0.3519   13.2066 O   0  0  0  0  0  0  0  0  0  0  0  0
   -2.2281    0.6471   12.3512 C   0  0  0  0  0  0  0  0  0  0  0  0
   -5.3466   -3.2541   13.5756 H   0  0  0  0  0  0  0  0  0  0  0  0
   -3.9679   -2.5545   12.6613 H   0  0  0  0  0  0  0  0  0  0  0  0
   -3.7530   -4.0828   13.5803 H   0  0  0  0  0  0  0  0  0  0  0  0
   -2.2004   -3.6662   16.2525 H   0  0  0  0  0  0  0  0  0  0  0  0
    0.2023   -3.2098   16.4900 H   0  0  0  0  0  0  0  0  0  0  0  0
    1.2482    0.3509   13.3568 H   0  0  0  0  0  0  0  0  0  0  0  0
    5.1512    1.9301   13.2447 H   0  0  0  0  0  0  0  0  0  0  0  0
    6.8383    0.8802   15.3068 H   0  0  0  0  0  0  0  0  0  0  0  0
    6.2591   -0.7741   17.3377 H   0  0  0  0  0  0  0  0  0  0  0  0
    4.3066    3.2017   11.7226 H   0  0  0  0  0  0  0  0  0  0  0  0
    4.0020    1.7524   10.7060 H   0  0  0  0  0  0  0  0  0  0  0  0
    3.8695    3.8130    9.3877 H   0  0  0  0  0  0  0  0  0  0  0  0
    1.3866    5.1261    8.2010 H   0  0  0  0  0  0  0  0  0  0  0  0
   -1.1015    5.0864    9.0599 H   0  0  0  0  0  0  0  0  0  0  0  0
    0.5639    2.1987   12.8162 H   0  0  0  0  0  0  0  0  0  0  0  0
   -0.0957   -0.0332   13.6091 H   0  0  0  0  0  0  0  0  0  0  0  0
   -3.0463    1.0961   11.7689 H   0  0  0  0  0  0  0  0  0  0  0  0
   -1.7369    1.4255   12.9536 H   0  0  0  0  0  0  0  0  0  0  0  0
   -1.4949    0.1965   11.6660 H   0  0  0  0  0  0  0  0  0  0  0  0
  1  2  1  0  0  0  0
  2  3  1  0  0  0  0
  3  4  2  0  0  0  0
  3 27  1  0  0  0  0
  4  5  1  0  0  0  0
  5  6  2  0  0  0  0
  6  7  1  0  0  0  0
  6 26  1  0  0  0  0
  7  8  2  0  0  0  0
  8  9  1  0  0  0  0
  8 16  1  0  0  0  0
  9 10  1  0  0  0  0
 10 11  2  0  0  0  0
 10 17  1  0  0  0  0
 11 12  1  0  0  0  0
 12 13  1  0  0  0  0
 12 16  1  0  0  0  0
 13 14  2  0  0  0  0
 14 15  1  0  0  0  0
 15 16  2  0  0  0  0
 17 18  1  0  0  0  0
 17 25  2  0  0  0  0
 18 19  1  0  0  0  0
 19 20  2  0  0  0  0
 20 21  1  0  0  0  0
 20 24  1  0  0  0  0
 21 22  2  0  0  0  0
 22 23  1  0  0  0  0
 23 24  2  0  0  0  0
 24 25  1  0  0  0  0
 26 27  2  0  0  0  0
 27 28  1  0  0  0  0
 28 29  1  0  0  0  0
  1 30  1  0  0  0  0
  1 31  1  0  0  0  0
  1 32  1  0  0  0  0
  4 33  1  0  0  0  0
  5 34  1  0  0  0  0
  9 35  1  0  0  0  0
 11 36  1  0  0  0  0
 13 37  1  0  0  0  0
 14 38  1  0  0  0  0
 18 39  1  0  0  0  0
 18 40  1  0  0  0  0
 19 41  1  0  0  0  0
 21 42  1  0  0  0  0
 22 43  1  0  0  0  0
 25 44  1  0  0  0  0
 26 45  1  0  0  0  0
 29 46  1  0  0  0  0
 29 47  1  0  0  0  0
 29 48  1  0  0  0  0
M  END
> <IC50[nM]>
2.7

$$$$
CHEMBL3265016
  -OEChem-05192314333D
 Structure written by MMmdl.
 48 52  0     0  0  0  0  0  0999 V2000
   -4.2568   -3.1050   13.5687 C   0  0  0  0  0  0  0  0  0  0  0  0
   -3.8730   -2.3616   14.7152 O   0  0  0  0  0  0  0  0  0  0  0  0
   -2.5250   -2.1116   14.8158 C   0  0  0  0  0  0  0  0  0  0  0  0
   -1.7470   -2.8700   15.6807 C   0  0  0  0  0  0  0  0  0  0  0  0
   -0.3902   -2.6106   15.8144 C   0  0  0  0  0  0  0  0  0  0  0  0
    0.2207   -1.5844   15.0868 C   0  0  0  0  0  0  0  0  0  0  0  0
    1.6046   -1.3596   15.3257 N   0  0  0  0  0  0  0  0  0  0  0  0
    2.5329   -0.4401   14.7638 C   0  0  0  0  0  0  0  0  0  0  0  0
    2.1751    0.3788   13.7311 N   0  0  0  0  0  0  0  0  0  0  0  0
    3.1086    1.2387   13.2176 C   0  0  0  0  0  0  0  0  0  0  0  0
    4.4159    1.2831   13.6998 C   0  0  0  0  0  0  0  0  0  0  0  0
    4.7435    0.4926   14.7566 N   0  0  0  0  0  0  0  0  0  0  0  0
    5.8975    0.3810   15.4862 C   0  0  0  0  0  0  0  0  0  0  0  0
    5.5917   -0.5286   16.5249 C   0  0  0  0  0  0  0  0  0  0  0  0
    4.3780   -1.0408   16.3703 N   0  0  0  0  0  0  0  0  0  0  0  0
    3.8370   -0.3906   15.3278 C   0  0  0  0  0  0  0  0  0  0  0  0
    2.6350    2.1602   12.1213 C   0  0  0  0  0  0  0  0  0  0  0  0
    3.5425    2.6402   11.1650 C   0  0  0  0  0  0  0  0  0  0  0  0
    3.1493    3.4616   10.1117 C   0  0  0  0  0  0  0  0  0  0  0  0
    1.8041    3.8212   10.0117 C   0  0  0  0  0  0  0  0  0  0  0  0
    1.0219    4.6165    9.0806 C   0  0  0  0  0  0  0  0  0  0  0  0
   -0.2682    4.5927    9.5377 C   0  0  0  0  0  0  0  0  0  0  0  0
   -0.3496    3.8668   10.6667 N   0  0  0  0  0  0  0  0  0  0  0  0
    0.8806    3.3533   11.0064 C   0  0  0  0  0  0  0  0  0  0  0  0
    1.2701    2.5323   12.0703 C   0  0  0  0  0  0  0  0  0  0  0  0
   -0.5547   -0.8186   14.1912 C   0  0  0  0  0  0  0  0  0  0  0  0
   -1.9427   -1.0874   14.0603 C   0  0  0  0  0  0  0  0  0  0  0  0
   -2.7500   -0.3519   13.2066 O   0  0  0  0  0  0  0  0  0  0  0  0
   -2.2281    0.6471   12.3512 C   0  0  0  0  0  0  0  0  0  0  0  0
   -5.3466   -3.2541   13.5756 H   0  0  0  0  0  0  0  0  0  0  0  0
   -3.9679   -2.5545   12.6613 H   0  0  0  0  0  0  0  0  0  0  0  0
   -3.7530   -4.0828   13.5803 H   0  0  0  0  0  0  0  0  0  0  0  0
   -2.2004   -3.6662   16.2525 H   0  0  0  0  0  0  0  0  0  0  0  0
    0.2023   -3.2098   16.4900 H   0  0  0  0  0  0  0  0  0  0  0  0
    1.2482    0.3509   13.3568 H   0  0  0  0  0  0  0  0  0  0  0  0
    5.1512    1.9301   13.2447 H   0  0  0  0  0  0  0  0  0  0  0  0
    6.8383    0.8802   15.3068 H   0  0  0  0  0  0  0  0  0  0  0  0
    6.2591   -0.7741   17.3377 H   0  0  0  0  0  0  0  0  0  0  0  0
    4.5829    2.3628   11.2488 H   0  0  0  0  0  0  0  0  0  0  0  0
    3.8695    3.8130    9.3877 H   0  0  0  0  0  0  0  0  0  0  0  0
    1.3866    5.1261    8.2010 H   0  0  0  0  0  0  0  0  0  0  0  0
   -1.1015    5.0864    9.0599 H   0  0  0  0  0  0  0  0  0  0  0  0
    0.6751    1.6089   12.0135 H   0  0  0  0  0  0  0  0  0  0  0  0
    1.0346    3.0634   13.0044 H   0  0  0  0  0  0  0  0  0  0  0  0
   -0.0957   -0.0332   13.6091 H   0  0  0  0  0  0  0  0  0  0  0  0
   -3.0463    1.0961   11.7689 H   0  0  0  0  0  0  0  0  0  0  0  0
   -1.7369    1.4255   12.9536 H   0  0  0  0  0  0  0  0  0  0  0  0
   -1.4949    0.1965   11.6660 H   0  0  0  0  0  0  0  0  0  0  0  0
  1  2  1  0  0  0  0
  2  3  1  0  0  0  0
  3  4  2  0  0  0  0
  3 27  1  0  0  0  0
  4  5  1  0  0  0  0
  5  6  2  0  0  0  0
  6  7  1  0  0  0  0
  6 26  1  0  0  0  0
  7  8  2  0  0  0  0
  8  9  1  0  0  0  0
  8 16  1  0  0  0  0
  9 10  1  0  0  0  0
 10 11  2  0  0  0  0
 10 17  1  0  0  0  0
 11 12  1  0  0  0  0
 12 13  1  0  0  0  0
 12 16  1  0  0  0  0
 13 14  2  0  0  0  0
 14 15  1  0  0  0  0
 15 16  2  0  0  0  0
 17 18  2  0  0  0  0
 17 25  1  0  0  0  0
 18 19  1  0  0  0  0
 19 20  2  0  0  0  0
 20 21  1  0  0  0  0
 20 24  1  0  0  0  0
 21 22  2  0  0  0  0
 22 23  1  0  0  0  0
 23 24  2  0  0  0  0
 24 25  1  0  0  0  0
 26 27  2  0  0  0  0
 27 28  1  0  0  0  0
 28 29  1  0  0  0  0
  1 30  1  0  0  0  0
  1 31  1  0  0  0  0
  1 32  1  0  0  0  0
  4 33  1  0  0  0  0
  5 34  1  0  0  0  0
  9 35  1  0  0  0  0
 11 36  1  0  0  0  0
 13 37  1  0  0  0  0
 14 38  1  0  0  0  0
 18 39  1  0  0  0  0
 19 40  1  0  0  0  0
 21 41  1  0  0  0  0
 22 42  1  0  0  0  0
 25 43  1  0  0  0  0
 25 44  1  0  0  0  0
 26 45  1  0  0  0  0
 29 46  1  0  0  0  0
 29 47  1  0  0  0  0
 29 48  1  0  0  0  0
M  END
> <IC50[nM]>
2.7

$$$$
CHEMBL3265016
  -OEChem-05192314333D
 Structure written by MMmdl.
 48 52  0     1  0  0  0  0  0999 V2000
   -4.2568   -3.1050   13.5687 C   0  0  0  0  0  0  0  0  0  0  0  0
   -3.8730   -2.3616   14.7152 O   0  0  0  0  0  0  0  0  0  0  0  0
   -2.5250   -2.1116   14.8158 C   0  0  0  0  0  0  0  0  0  0  0  0
   -1.7470   -2.8700   15.6807 C   0  0  0  0  0  0  0  0  0  0  0  0
   -0.3902   -2.6106   15.8144 C   0  0  0  0  0  0  0  0  0  0  0  0
    0.2207   -1.5844   15.0868 C   0  0  0  0  0  0  0  0  0  0  0  0
    1.6046   -1.3596   15.3257 N   0  0  0  0  0  0  0  0  0  0  0  0
    2.5329   -0.4401   14.7638 C   0  0  0  0  0  0  0  0  0  0  0  0
    2.1751    0.3788   13.7311 N   0  0  0  0  0  0  0  0  0  0  0  0
    3.1086    1.2387   13.2176 C   0  0  0  0  0  0  0  0  0  0  0  0
    4.4159    1.2831   13.6998 C   0  0  0  0  0  0  0  0  0  0  0  0
    4.7435    0.4926   14.7566 N   0  0  0  0  0  0  0  0  0  0  0  0
    5.8975    0.3810   15.4862 C   0  0  0  0  0  0  0  0  0  0  0  0
    5.5917   -0.5286   16.5249 C   0  0  0  0  0  0  0  0  0  0  0  0
    4.3780   -1.0408   16.3703 N   0  0  0  0  0  0  0  0  0  0  0  0
    3.8370   -0.3906   15.3278 C   0  0  0  0  0  0  0  0  0  0  0  0
    2.6350    2.1602   12.1213 C   0  0  3  0  0  0  0  0  0  0  0  0
    3.5425    2.6402   11.1650 C   0  0  0  0  0  0  0  0  0  0  0  0
    3.1493    3.4616   10.1117 C   0  0  0  0  0  0  0  0  0  0  0  0
    1.8041    3.8212   10.0117 C   0  0  0  0  0  0  0  0  0  0  0  0
    1.0219    4.6165    9.0806 C   0  0  0  0  0  0  0  0  0  0  0  0
   -0.2682    4.5927    9.5377 C   0  0  0  0  0  0  0  0  0  0  0  0
   -0.3496    3.8668   10.6667 N   0  0  0  0  0  0  0  0  0  0  0  0
    0.8806    3.3533   11.0064 C   0  0  0  0  0  0  0  0  0  0  0  0
    1.2701    2.5323   12.0703 C   0  0  0  0  0  0  0  0  0  0  0  0
   -0.5547   -0.8186   14.1912 C   0  0  0  0  0  0  0  0  0  0  0  0
   -1.9427   -1.0874   14.0603 C   0  0  0  0  0  0  0  0  0  0  0  0
   -2.7500   -0.3519   13.2066 O   0  0  0  0  0  0  0  0  0  0  0  0
   -2.2281    0.6471   12.3512 C   0  0  0  0  0  0  0  0  0  0  0  0
   -5.3466   -3.2541   13.5756 H   0  0  0  0  0  0  0  0  0  0  0  0
   -3.9679   -2.5545   12.6613 H   0  0  0  0  0  0  0  0  0  0  0  0
   -3.7530   -4.0828   13.5803 H   0  0  0  0  0  0  0  0  0  0  0  0
   -2.2004   -3.6662   16.2525 H   0  0  0  0  0  0  0  0  0  0  0  0
    0.2023   -3.2098   16.4900 H   0  0  0  0  0  0  0  0  0  0  0  0
    5.0789    1.0043   12.8675 H   0  0  0  0  0  0  0  0  0  0  0  0
    4.6176    2.3229   13.9968 H   0  0  0  0  0  0  0  0  0  0  0  0
    6.8383    0.8802   15.3068 H   0  0  0  0  0  0  0  0  0  0  0  0
    6.2591   -0.7741   17.3377 H   0  0  0  0  0  0  0  0  0  0  0  0
    2.8482    3.0299   12.7602 H   0  0  0  0  0  0  0  0  0  0  0  0
    4.5829    2.3628   11.2488 H   0  0  0  0  0  0  0  0  0  0  0  0
    3.8695    3.8130    9.3877 H   0  0  0  0  0  0  0  0  0  0  0  0
    1.3866    5.1261    8.2010 H   0  0  0  0  0  0  0  0  0  0  0  0
   -1.1015    5.0864    9.0599 H   0  0  0  0  0  0  0  0  0  0  0  0
    0.5639    2.1987   12.8162 H   0  0  0  0  0  0  0  0  0  0  0  0
   -0.0957   -0.0332   13.6091 H   0  0  0  0  0  0  0  0  0  0  0  0
   -3.0463    1.0961   11.7689 H   0  0  0  0  0  0  0  0  0  0  0  0
   -1.7369    1.4255   12.9536 H   0  0  0  0  0  0  0  0  0  0  0  0
   -1.4949    0.1965   11.6660 H   0  0  0  0  0  0  0  0  0  0  0  0
  1  2  1  0  0  0  0
  2  3  1  0  0  0  0
  3  4  2  0  0  0  0
  3 27  1  0  0  0  0
  4  5  1  0  0  0  0
  5  6  2  0  0  0  0
  6  7  1  0  0  0  0
  6 26  1  0  0  0  0
  7  8  2  0  0  0  0
  8  9  1  0  0  0  0
  8 16  1  0  0  0  0
  9 10  2  0  0  0  0
 10 11  1  0  0  0  0
 10 17  1  0  0  0  0
 11 12  1  0  0  0  0
 12 13  1  0  0  0  0
 12 16  1  0  0  0  0
 13 14  2  0  0  0  0
 14 15  1  0  0  0  0
 15 16  2  0  0  0  0
 17 18  1  0  0  0  0
 17 25  1  0  0  0  0
 18 19  2  0  0  0  0
 19 20  1  0  0  0  0
 20 21  2  0  0  0  0
 20 24  1  0  0  0  0
 21 22  1  0  0  0  0
 22 23  2  0  0  0  0
 23 24  1  0  0  0  0
 24 25  2  0  0  0  0
 26 27  2  0  0  0  0
 27 28  1  0  0  0  0
 28 29  1  0  0  0  0
  1 30  1  0  0  0  0
  1 31  1  0  0  0  0
  1 32  1  0  0  0  0
  4 33  1  0  0  0  0
  5 34  1  0  0  0  0
 11 35  1  0  0  0  0
 11 36  1  0  0  0  0
 13 37  1  0  0  0  0
 14 38  1  0  0  0  0
 17 39  1  0  0  0  0
 18 40  1  0  0  0  0
 19 41  1  0  0  0  0
 21 42  1  0  0  0  0
 22 43  1  0  0  0  0
 25 44  1  0  0  0  0
 26 45  1  0  0  0  0
 29 46  1  0  0  0  0
 29 47  1  0  0  0  0
 29 48  1  0  0  0  0
M  END
> <IC50[nM]>
2.7

$$$$
CHEMBL3265016
  -OEChem-05192314333D
 Structure written by MMmdl.
 48 52  0     1  0  0  0  0  0999 V2000
   -4.2568   -3.1050   13.5687 C   0  0  0  0  0  0  0  0  0  0  0  0
   -3.8730   -2.3616   14.7152 O   0  0  0  0  0  0  0  0  0  0  0  0
   -2.5250   -2.1116   14.8158 C   0  0  0  0  0  0  0  0  0  0  0  0
   -1.7470   -2.8700   15.6807 C   0  0  0  0  0  0  0  0  0  0  0  0
   -0.3902   -2.6106   15.8144 C   0  0  0  0  0  0  0  0  0  0  0  0
    0.2207   -1.5844   15.0868 C   0  0  0  0  0  0  0  0  0  0  0  0
    1.6046   -1.3596   15.3257 N   0  0  0  0  0  0  0  0  0  0  0  0
    2.5329   -0.4401   14.7638 C   0  0  0  0  0  0  0  0  0  0  0  0
    2.1751    0.3788   13.7311 N   0  0  0  0  0  0  0  0  0  0  0  0
    3.1086    1.2387   13.2176 C   0  0  0  0  0  0  0  0  0  0  0  0
    4.4159    1.2831   13.6998 C   0  0  0  0  0  0  0  0  0  0  0  0
    4.7435    0.4926   14.7566 N   0  0  0  0  0  0  0  0  0  0  0  0
    5.8975    0.3810   15.4862 C   0  0  0  0  0  0  0  0  0  0  0  0
    5.5917   -0.5286   16.5249 C   0  0  0  0  0  0  0  0  0  0  0  0
    4.3780   -1.0408   16.3703 N   0  0  0  0  0  0  0  0  0  0  0  0
    3.8370   -0.3906   15.3278 C   0  0  0  0  0  0  0  0  0  0  0  0
    2.6350    2.1602   12.1213 C   0  0  0  0  0  0  0  0  0  0  0  0
    3.5425    2.6402   11.1650 C   0  0  0  0  0  0  0  0  0  0  0  0
    3.1493    3.4616   10.1117 C   0  0  0  0  0  0  0  0  0  0  0  0
    1.8041    3.8212   10.0117 C   0  0  3  0  0  0  0  0  0  0  0  0
    1.0219    4.6165    9.0806 C   0  0  0  0  0  0  0  0  0  0  0  0
   -0.2682    4.5927    9.5377 C   0  0  0  0  0  0  0  0  0  0  0  0
   -0.3496    3.8668   10.6667 N   0  0  0  0  0  0  0  0  0  0  0  0
    0.8806    3.3533   11.0064 C   0  0  0  0  0  0  0  0  0  0  0  0
    1.2701    2.5323   12.0703 C   0  0  0  0  0  0  0  0  0  0  0  0
   -0.5547   -0.8186   14.1912 C   0  0  0  0  0  0  0  0  0  0  0  0
   -1.9427   -1.0874   14.0603 C   0  0  0  0  0  0  0  0  0  0  0  0
   -2.7500   -0.3519   13.2066 O   0  0  0  0  0  0  0  0  0  0  0  0
   -2.2281    0.6471   12.3512 C   0  0  0  0  0  0  0  0  0  0  0  0
   -5.3466   -3.2541   13.5756 H   0  0  0  0  0  0  0  0  0  0  0  0
   -3.9679   -2.5545   12.6613 H   0  0  0  0  0  0  0  0  0  0  0  0
   -3.7530   -4.0828   13.5803 H   0  0  0  0  0  0  0  0  0  0  0  0
   -2.2004   -3.6662   16.2525 H   0  0  0  0  0  0  0  0  0  0  0  0
    0.2023   -3.2098   16.4900 H   0  0  0  0  0  0  0  0  0  0  0  0
    5.0789    1.0043   12.8675 H   0  0  0  0  0  0  0  0  0  0  0  0
    4.6176    2.3229   13.9968 H   0  0  0  0  0  0  0  0  0  0  0  0
    6.8383    0.8802   15.3068 H   0  0  0  0  0  0  0  0  0  0  0  0
    6.2591   -0.7741   17.3377 H   0  0  0  0  0  0  0  0  0  0  0  0
    4.5829    2.3628   11.2488 H   0  0  0  0  0  0  0  0  0  0  0  0
    3.8695    3.8130    9.3877 H   0  0  0  0  0  0  0  0  0  0  0  0
    1.9993    4.7198   10.6154 H   0  0  0  0  0  0  0  0  0  0  0  0
    1.3866    5.1261    8.2010 H   0  0  0  0  0  0  0  0  0  0  0  0
   -1.1015    5.0864    9.0599 H   0  0  0  0  0  0  0  0  0  0  0  0
    0.5639    2.1987   12.8162 H   0  0  0  0  0  0  0  0  0  0  0  0
   -0.0957   -0.0332   13.6091 H   0  0  0  0  0  0  0  0  0  0  0  0
   -3.0463    1.0961   11.7689 H   0  0  0  0  0  0  0  0  0  0  0  0
   -1.7369    1.4255   12.9536 H   0  0  0  0  0  0  0  0  0  0  0  0
   -1.4949    0.1965   11.6660 H   0  0  0  0  0  0  0  0  0  0  0  0
  1  2  1  0  0  0  0
  2  3  1  0  0  0  0
  3  4  2  0  0  0  0
  3 27  1  0  0  0  0
  4  5  1  0  0  0  0
  5  6  2  0  0  0  0
  6  7  1  0  0  0  0
  6 26  1  0  0  0  0
  7  8  2  0  0  0  0
  8  9  1  0  0  0  0
  8 16  1  0  0  0  0
  9 10  2  0  0  0  0
 10 11  1  0  0  0  0
 10 17  1  0  0  0  0
 11 12  1  0  0  0  0
 12 13  1  0  0  0  0
 12 16  1  0  0  0  0
 13 14  2  0  0  0  0
 14 15  1  0  0  0  0
 15 16  2  0  0  0  0
 17 18  1  0  0  0  0
 17 25  2  0  0  0  0
 18 19  2  0  0  0  0
 19 20  1  0  0  0  0
 20 21  1  0  0  0  0
 20 24  1  0  0  0  0
 21 22  2  0  0  0  0
 22 23  1  0  0  0  0
 23 24  2  0  0  0  0
 24 25  1  0  0  0  0
 26 27  2  0  0  0  0
 27 28  1  0  0  0  0
 28 29  1  0  0  0  0
  1 30  1  0  0  0  0
  1 31  1  0  0  0  0
  1 32  1  0  0  0  0
  4 33  1  0  0  0  0
  5 34  1  0  0  0  0
 11 35  1  0  0  0  0
 11 36  1  0  0  0  0
 13 37  1  0  0  0  0
 14 38  1  0  0  0  0
 18 39  1  0  0  0  0
 19 40  1  0  0  0  0
 20 41  1  0  0  0  0
 21 42  1  0  0  0  0
 22 43  1  0  0  0  0
 25 44  1  0  0  0  0
 26 45  1  0  0  0  0
 29 46  1  0  0  0  0
 29 47  1  0  0  0  0
 29 48  1  0  0  0  0
M  END
> <IC50[nM]>
2.7

$$$$
CHEMBL3265016
  -OEChem-05192314333D
 Structure written by MMmdl.
 48 52  0     1  0  0  0  0  0999 V2000
   -4.2568   -3.1050   13.5687 C   0  0  0  0  0  0  0  0  0  0  0  0
   -3.8730   -2.3616   14.7152 O   0  0  0  0  0  0  0  0  0  0  0  0
   -2.5250   -2.1116   14.8158 C   0  0  0  0  0  0  0  0  0  0  0  0
   -1.7470   -2.8700   15.6807 C   0  0  0  0  0  0  0  0  0  0  0  0
   -0.3902   -2.6106   15.8144 C   0  0  0  0  0  0  0  0  0  0  0  0
    0.2207   -1.5844   15.0868 C   0  0  0  0  0  0  0  0  0  0  0  0
    1.6046   -1.3596   15.3257 N   0  0  0  0  0  0  0  0  0  0  0  0
    2.5329   -0.4401   14.7638 C   0  0  0  0  0  0  0  0  0  0  0  0
    2.1751    0.3788   13.7311 N   0  0  0  0  0  0  0  0  0  0  0  0
    3.1086    1.2387   13.2176 C   0  0  0  0  0  0  0  0  0  0  0  0
    4.4159    1.2831   13.6998 C   0  0  0  0  0  0  0  0  0  0  0  0
    4.7435    0.4926   14.7566 N   0  0  0  0  0  0  0  0  0  0  0  0
    5.8975    0.3810   15.4862 C   0  0  0  0  0  0  0  0  0  0  0  0
    5.5917   -0.5286   16.5249 C   0  0  0  0  0  0  0  0  0  0  0  0
    4.3780   -1.0408   16.3703 N   0  0  0  0  0  0  0  0  0  0  0  0
    3.8370   -0.3906   15.3278 C   0  0  0  0  0  0  0  0  0  0  0  0
    2.6350    2.1602   12.1213 C   0  0  0  0  0  0  0  0  0  0  0  0
    3.5425    2.6402   11.1650 C   0  0  0  0  0  0  0  0  0  0  0  0
    3.1493    3.4616   10.1117 C   0  0  0  0  0  0  0  0  0  0  0  0
    1.8041    3.8212   10.0117 C   0  0  0  0  0  0  0  0  0  0  0  0
    1.0219    4.6165    9.0806 C   0  0  0  0  0  0  0  0  0  0  0  0
   -0.2682    4.5927    9.5377 C   0  0  0  0  0  0  0  0  0  0  0  0
   -0.3496    3.8668   10.6667 N   0  0  0  0  0  0  0  0  0  0  0  0
    0.8806    3.3533   11.0064 C   0  0  3  0  0  0  0  0  0  0  0  0
    1.2701    2.5323   12.0703 C   0  0  0  0  0  0  0  0  0  0  0  0
   -0.5547   -0.8186   14.1912 C   0  0  0  0  0  0  0  0  0  0  0  0
   -1.9427   -1.0874   14.0603 C   0  0  0  0  0  0  0  0  0  0  0  0
   -2.7500   -0.3519   13.2066 O   0  0  0  0  0  0  0  0  0  0  0  0
   -2.2281    0.6471   12.3512 C   0  0  0  0  0  0  0  0  0  0  0  0
   -5.3466   -3.2541   13.5756 H   0  0  0  0  0  0  0  0  0  0  0  0
   -3.9679   -2.5545   12.6613 H   0  0  0  0  0  0  0  0  0  0  0  0
   -3.7530   -4.0828   13.5803 H   0  0  0  0  0  0  0  0  0  0  0  0
   -2.2004   -3.6662   16.2525 H   0  0  0  0  0  0  0  0  0  0  0  0
    0.2023   -3.2098   16.4900 H   0  0  0  0  0  0  0  0  0  0  0  0
    5.0789    1.0043   12.8675 H   0  0  0  0  0  0  0  0  0  0  0  0
    4.6176    2.3229   13.9968 H   0  0  0  0  0  0  0  0  0  0  0  0
    6.8383    0.8802   15.3068 H   0  0  0  0  0  0  0  0  0  0  0  0
    6.2591   -0.7741   17.3377 H   0  0  0  0  0  0  0  0  0  0  0  0
    4.5829    2.3628   11.2488 H   0  0  0  0  0  0  0  0  0  0  0  0
    3.8695    3.8130    9.3877 H   0  0  0  0  0  0  0  0  0  0  0  0
    1.3866    5.1261    8.2010 H   0  0  0  0  0  0  0  0  0  0  0  0
   -1.1015    5.0864    9.0599 H   0  0  0  0  0  0  0  0  0  0  0  0
    1.0854    4.2447   11.6176 H   0  0  0  0  0  0  0  0  0  0  0  0
    0.5639    2.1987   12.8162 H   0  0  0  0  0  0  0  0  0  0  0  0
   -0.0957   -0.0332   13.6091 H   0  0  0  0  0  0  0  0  0  0  0  0
   -3.0463    1.0961   11.7689 H   0  0  0  0  0  0  0  0  0  0  0  0
   -1.7369    1.4255   12.9536 H   0  0  0  0  0  0  0  0  0  0  0  0
   -1.4949    0.1965   11.6660 H   0  0  0  0  0  0  0  0  0  0  0  0
  1  2  1  0  0  0  0
  2  3  1  0  0  0  0
  3  4  2  0  0  0  0
  3 27  1  0  0  0  0
  4  5  1  0  0  0  0
  5  6  2  0  0  0  0
  6  7  1  0  0  0  0
  6 26  1  0  0  0  0
  7  8  2  0  0  0  0
  8  9  1  0  0  0  0
  8 16  1  0  0  0  0
  9 10  2  0  0  0  0
 10 11  1  0  0  0  0
 10 17  1  0  0  0  0
 11 12  1  0  0  0  0
 12 13  1  0  0  0  0
 12 16  1  0  0  0  0
 13 14  2  0  0  0  0
 14 15  1  0  0  0  0
 15 16  2  0  0  0  0
 17 18  1  0  0  0  0
 17 25  2  0  0  0  0
 18 19  2  0  0  0  0
 19 20  1  0  0  0  0
 20 21  2  0  0  0  0
 20 24  1  0  0  0  0
 21 22  1  0  0  0  0
 22 23  2  0  0  0  0
 23 24  1  0  0  0  0
 24 25  1  0  0  0  0
 26 27  2  0  0  0  0
 27 28  1  0  0  0  0
 28 29  1  0  0  0  0
  1 30  1  0  0  0  0
  1 31  1  0  0  0  0
  1 32  1  0  0  0  0
  4 33  1  0  0  0  0
  5 34  1  0  0  0  0
 11 35  1  0  0  0  0
 11 36  1  0  0  0  0
 13 37  1  0  0  0  0
 14 38  1  0  0  0  0
 18 39  1  0  0  0  0
 19 40  1  0  0  0  0
 21 41  1  0  0  0  0
 22 42  1  0  0  0  0
 24 43  1  0  0  0  0
 25 44  1  0  0  0  0
 26 45  1  0  0  0  0
 29 46  1  0  0  0  0
 29 47  1  0  0  0  0
 29 48  1  0  0  0  0
M  END
> <IC50[nM]>
2.7

$$$$
CHEMBL3265016
  -OEChem-05192314333D
 Structure written by MMmdl.
 48 52  0     0  0  0  0  0  0999 V2000
   -4.2568   -3.1050   13.5687 C   0  0  0  0  0  0  0  0  0  0  0  0
   -3.8730   -2.3616   14.7152 O   0  0  0  0  0  0  0  0  0  0  0  0
   -2.5250   -2.1116   14.8158 C   0  0  0  0  0  0  0  0  0  0  0  0
   -1.7470   -2.8700   15.6807 C   0  0  0  0  0  0  0  0  0  0  0  0
   -0.3902   -2.6106   15.8144 C   0  0  0  0  0  0  0  0  0  0  0  0
    0.2207   -1.5844   15.0868 C   0  0  0  0  0  0  0  0  0  0  0  0
    1.6046   -1.3596   15.3257 N   0  0  0  0  0  0  0  0  0  0  0  0
    2.5329   -0.4401   14.7638 C   0  0  0  0  0  0  0  0  0  0  0  0
    2.1751    0.3788   13.7311 N   0  0  0  0  0  0  0  0  0  0  0  0
    3.1086    1.2387   13.2176 C   0  0  0  0  0  0  0  0  0  0  0  0
    4.4159    1.2831   13.6998 C   0  0  0  0  0  0  0  0  0  0  0  0
    4.7435    0.4926   14.7566 N   0  0  0  0  0  0  0  0  0  0  0  0
    5.8975    0.3810   15.4862 C   0  0  0  0  0  0  0  0  0  0  0  0
    5.5917   -0.5286   16.5249 C   0  0  0  0  0  0  0  0  0  0  0  0
    4.3780   -1.0408   16.3703 N   0  0  0  0  0  0  0  0  0  0  0  0
    3.8370   -0.3906   15.3278 C   0  0  0  0  0  0  0  0  0  0  0  0
    2.6350    2.1602   12.1213 C   0  0  0  0  0  0  0  0  0  0  0  0
    3.5425    2.6402   11.1650 C   0  0  0  0  0  0  0  0  0  0  0  0
    3.1493    3.4616   10.1117 C   0  0  0  0  0  0  0  0  0  0  0  0
    1.8041    3.8212   10.0117 C   0  0  0  0  0  0  0  0  0  0  0  0
    1.0219    4.6165    9.0806 C   0  0  0  0  0  0  0  0  0  0  0  0
   -0.2682    4.5927    9.5377 C   0  0  0  0  0  0  0  0  0  0  0  0
   -0.3496    3.8668   10.6667 N   0  0  0  0  0  0  0  0  0  0  0  0
    0.8806    3.3533   11.0064 C   0  0  0  0  0  0  0  0  0  0  0  0
    1.2701    2.5323   12.0703 C   0  0  0  0  0  0  0  0  0  0  0  0
   -0.5547   -0.8186   14.1912 C   0  0  0  0  0  0  0  0  0  0  0  0
   -1.9427   -1.0874   14.0603 C   0  0  0  0  0  0  0  0  0  0  0  0
   -2.7500   -0.3519   13.2066 O   0  0  0  0  0  0  0  0  0  0  0  0
   -2.2281    0.6471   12.3512 C   0  0  0  0  0  0  0  0  0  0  0  0
   -5.3466   -3.2541   13.5756 H   0  0  0  0  0  0  0  0  0  0  0  0
   -3.9679   -2.5545   12.6613 H   0  0  0  0  0  0  0  0  0  0  0  0
   -3.7530   -4.0828   13.5803 H   0  0  0  0  0  0  0  0  0  0  0  0
   -2.2004   -3.6662   16.2525 H   0  0  0  0  0  0  0  0  0  0  0  0
    0.2023   -3.2098   16.4900 H   0  0  0  0  0  0  0  0  0  0  0  0
    5.0789    1.0043   12.8675 H   0  0  0  0  0  0  0  0  0  0  0  0
    4.6176    2.3229   13.9968 H   0  0  0  0  0  0  0  0  0  0  0  0
    6.8383    0.8802   15.3068 H   0  0  0  0  0  0  0  0  0  0  0  0
    6.2591   -0.7741   17.3377 H   0  0  0  0  0  0  0  0  0  0  0  0
    4.5829    2.3628   11.2488 H   0  0  0  0  0  0  0  0  0  0  0  0
    3.7289    4.3930   10.1929 H   0  0  0  0  0  0  0  0  0  0  0  0
    3.4167    2.9434    9.1790 H   0  0  0  0  0  0  0  0  0  0  0  0
    1.3866    5.1261    8.2010 H   0  0  0  0  0  0  0  0  0  0  0  0
   -1.1015    5.0864    9.0599 H   0  0  0  0  0  0  0  0  0  0  0  0
    0.5639    2.1987   12.8162 H   0  0  0  0  0  0  0  0  0  0  0  0
   -0.0957   -0.0332   13.6091 H   0  0  0  0  0  0  0  0  0  0  0  0
   -3.0463    1.0961   11.7689 H   0  0  0  0  0  0  0  0  0  0  0  0
   -1.7369    1.4255   12.9536 H   0  0  0  0  0  0  0  0  0  0  0  0
   -1.4949    0.1965   11.6660 H   0  0  0  0  0  0  0  0  0  0  0  0
  1  2  1  0  0  0  0
  2  3  1  0  0  0  0
  3  4  2  0  0  0  0
  3 27  1  0  0  0  0
  4  5  1  0  0  0  0
  5  6  2  0  0  0  0
  6  7  1  0  0  0  0
  6 26  1  0  0  0  0
  7  8  2  0  0  0  0
  8  9  1  0  0  0  0
  8 16  1  0  0  0  0
  9 10  2  0  0  0  0
 10 11  1  0  0  0  0
 10 17  1  0  0  0  0
 11 12  1  0  0  0  0
 12 13  1  0  0  0  0
 12 16  1  0  0  0  0
 13 14  2  0  0  0  0
 14 15  1  0  0  0  0
 15 16  2  0  0  0  0
 17 18  2  0  0  0  0
 17 25  1  0  0  0  0
 18 19  1  0  0  0  0
 19 20  1  0  0  0  0
 20 21  2  0  0  0  0
 20 24  1  0  0  0  0
 21 22  1  0  0  0  0
 22 23  2  0  0  0  0
 23 24  1  0  0  0  0
 24 25  2  0  0  0  0
 26 27  2  0  0  0  0
 27 28  1  0  0  0  0
 28 29  1  0  0  0  0
  1 30  1  0  0  0  0
  1 31  1  0  0  0  0
  1 32  1  0  0  0  0
  4 33  1  0  0  0  0
  5 34  1  0  0  0  0
 11 35  1  0  0  0  0
 11 36  1  0  0  0  0
 13 37  1  0  0  0  0
 14 38  1  0  0  0  0
 18 39  1  0  0  0  0
 19 40  1  0  0  0  0
 19 41  1  0  0  0  0
 21 42  1  0  0  0  0
 22 43  1  0  0  0  0
 25 44  1  0  0  0  0
 26 45  1  0  0  0  0
 29 46  1  0  0  0  0
 29 47  1  0  0  0  0
 29 48  1  0  0  0  0
M  END
> <IC50[nM]>
2.7

$$$$
CHEMBL3265016
  -OEChem-05192314333D
 Structure written by MMmdl.
 48 52  0     0  0  0  0  0  0999 V2000
   -4.2568   -3.1050   13.5687 C   0  0  0  0  0  0  0  0  0  0  0  0
   -3.8730   -2.3616   14.7152 O   0  0  0  0  0  0  0  0  0  0  0  0
   -2.5250   -2.1116   14.8158 C   0  0  0  0  0  0  0  0  0  0  0  0
   -1.7470   -2.8700   15.6807 C   0  0  0  0  0  0  0  0  0  0  0  0
   -0.3902   -2.6106   15.8144 C   0  0  0  0  0  0  0  0  0  0  0  0
    0.2207   -1.5844   15.0868 C   0  0  0  0  0  0  0  0  0  0  0  0
    1.6046   -1.3596   15.3257 N   0  0  0  0  0  0  0  0  0  0  0  0
    2.5329   -0.4401   14.7638 C   0  0  0  0  0  0  0  0  0  0  0  0
    2.1751    0.3788   13.7311 N   0  0  0  0  0  0  0  0  0  0  0  0
    3.1086    1.2387   13.2176 C   0  0  0  0  0  0  0  0  0  0  0  0
    4.4159    1.2831   13.6998 C   0  0  0  0  0  0  0  0  0  0  0  0
    4.7435    0.4926   14.7566 N   0  0  0  0  0  0  0  0  0  0  0  0
    5.8975    0.3810   15.4862 C   0  0  0  0  0  0  0  0  0  0  0  0
    5.5917   -0.5286   16.5249 C   0  0  0  0  0  0  0  0  0  0  0  0
    4.3780   -1.0408   16.3703 N   0  0  0  0  0  0  0  0  0  0  0  0
    3.8370   -0.3906   15.3278 C   0  0  0  0  0  0  0  0  0  0  0  0
    2.6350    2.1602   12.1213 C   0  0  0  0  0  0  0  0  0  0  0  0
    3.5425    2.6402   11.1650 C   0  0  0  0  0  0  0  0  0  0  0  0
    3.1493    3.4616   10.1117 C   0  0  0  0  0  0  0  0  0  0  0  0
    1.8041    3.8212   10.0117 C   0  0  0  0  0  0  0  0  0  0  0  0
    1.0219    4.6165    9.0806 C   0  0  0  0  0  0  0  0  0  0  0  0
   -0.2682    4.5927    9.5377 C   0  0  0  0  0  0  0  0  0  0  0  0
   -0.3496    3.8668   10.6667 N   0  0  0  0  0  0  0  0  0  0  0  0
    0.8806    3.3533   11.0064 C   0  0  0  0  0  0  0  0  0  0  0  0
    1.2701    2.5323   12.0703 C   0  0  0  0  0  0  0  0  0  0  0  0
   -0.5547   -0.8186   14.1912 C   0  0  0  0  0  0  0  0  0  0  0  0
   -1.9427   -1.0874   14.0603 C   0  0  0  0  0  0  0  0  0  0  0  0
   -2.7500   -0.3519   13.2066 O   0  0  0  0  0  0  0  0  0  0  0  0
   -2.2281    0.6471   12.3512 C   0  0  0  0  0  0  0  0  0  0  0  0
   -5.3466   -3.2541   13.5756 H   0  0  0  0  0  0  0  0  0  0  0  0
   -3.9679   -2.5545   12.6613 H   0  0  0  0  0  0  0  0  0  0  0  0
   -3.7530   -4.0828   13.5803 H   0  0  0  0  0  0  0  0  0  0  0  0
   -2.2004   -3.6662   16.2525 H   0  0  0  0  0  0  0  0  0  0  0  0
    0.2023   -3.2098   16.4900 H   0  0  0  0  0  0  0  0  0  0  0  0
    5.0789    1.0043   12.8675 H   0  0  0  0  0  0  0  0  0  0  0  0
    4.6176    2.3229   13.9968 H   0  0  0  0  0  0  0  0  0  0  0  0
    6.8383    0.8802   15.3068 H   0  0  0  0  0  0  0  0  0  0  0  0
    6.2591   -0.7741   17.3377 H   0  0  0  0  0  0  0  0  0  0  0  0
    4.3066    3.2017   11.7226 H   0  0  0  0  0  0  0  0  0  0  0  0
    4.0020    1.7524   10.7060 H   0  0  0  0  0  0  0  0  0  0  0  0
    3.8695    3.8130    9.3877 H   0  0  0  0  0  0  0  0  0  0  0  0
    1.3866    5.1261    8.2010 H   0  0  0  0  0  0  0  0  0  0  0  0
   -1.1015    5.0864    9.0599 H   0  0  0  0  0  0  0  0  0  0  0  0
    0.5639    2.1987   12.8162 H   0  0  0  0  0  0  0  0  0  0  0  0
   -0.0957   -0.0332   13.6091 H   0  0  0  0  0  0  0  0  0  0  0  0
   -3.0463    1.0961   11.7689 H   0  0  0  0  0  0  0  0  0  0  0  0
   -1.7369    1.4255   12.9536 H   0  0  0  0  0  0  0  0  0  0  0  0
   -1.4949    0.1965   11.6660 H   0  0  0  0  0  0  0  0  0  0  0  0
  1  2  1  0  0  0  0
  2  3  1  0  0  0  0
  3  4  2  0  0  0  0
  3 27  1  0  0  0  0
  4  5  1  0  0  0  0
  5  6  2  0  0  0  0
  6  7  1  0  0  0  0
  6 26  1  0  0  0  0
  7  8  2  0  0  0  0
  8  9  1  0  0  0  0
  8 16  1  0  0  0  0
  9 10  2  0  0  0  0
 10 11  1  0  0  0  0
 10 17  1  0  0  0  0
 11 12  1  0  0  0  0
 12 13  1  0  0  0  0
 12 16  1  0  0  0  0
 13 14  2  0  0  0  0
 14 15  1  0  0  0  0
 15 16  2  0  0  0  0
 17 18  1  0  0  0  0
 17 25  2  0  0  0  0
 18 19  1  0  0  0  0
 19 20  2  0  0  0  0
 20 21  1  0  0  0  0
 20 24  1  0  0  0  0
 21 22  2  0  0  0  0
 22 23  1  0  0  0  0
 23 24  2  0  0  0  0
 24 25  1  0  0  0  0
 26 27  2  0  0  0  0
 27 28  1  0  0  0  0
 28 29  1  0  0  0  0
  1 30  1  0  0  0  0
  1 31  1  0  0  0  0
  1 32  1  0  0  0  0
  4 33  1  0  0  0  0
  5 34  1  0  0  0  0
 11 35  1  0  0  0  0
 11 36  1  0  0  0  0
 13 37  1  0  0  0  0
 14 38  1  0  0  0  0
 18 39  1  0  0  0  0
 18 40  1  0  0  0  0
 19 41  1  0  0  0  0
 21 42  1  0  0  0  0
 22 43  1  0  0  0  0
 25 44  1  0  0  0  0
 26 45  1  0  0  0  0
 29 46  1  0  0  0  0
 29 47  1  0  0  0  0
 29 48  1  0  0  0  0
M  END
> <IC50[nM]>
2.7

$$$$
CHEMBL3265016
  -OEChem-05192314333D
 Structure written by MMmdl.
 48 52  0     0  0  0  0  0  0999 V2000
   -4.2568   -3.1050   13.5687 C   0  0  0  0  0  0  0  0  0  0  0  0
   -3.8730   -2.3616   14.7152 O   0  0  0  0  0  0  0  0  0  0  0  0
   -2.5250   -2.1116   14.8158 C   0  0  0  0  0  0  0  0  0  0  0  0
   -1.7470   -2.8700   15.6807 C   0  0  0  0  0  0  0  0  0  0  0  0
   -0.3902   -2.6106   15.8144 C   0  0  0  0  0  0  0  0  0  0  0  0
    0.2207   -1.5844   15.0868 C   0  0  0  0  0  0  0  0  0  0  0  0
    1.6046   -1.3596   15.3257 N   0  0  0  0  0  0  0  0  0  0  0  0
    2.5329   -0.4401   14.7638 C   0  0  0  0  0  0  0  0  0  0  0  0
    2.1751    0.3788   13.7311 N   0  0  0  0  0  0  0  0  0  0  0  0
    3.1086    1.2387   13.2176 C   0  0  0  0  0  0  0  0  0  0  0  0
    4.4159    1.2831   13.6998 C   0  0  0  0  0  0  0  0  0  0  0  0
    4.7435    0.4926   14.7566 N   0  0  0  0  0  0  0  0  0  0  0  0
    5.8975    0.3810   15.4862 C   0  0  0  0  0  0  0  0  0  0  0  0
    5.5917   -0.5286   16.5249 C   0  0  0  0  0  0  0  0  0  0  0  0
    4.3780   -1.0408   16.3703 N   0  0  0  0  0  0  0  0  0  0  0  0
    3.8370   -0.3906   15.3278 C   0  0  0  0  0  0  0  0  0  0  0  0
    2.6350    2.1602   12.1213 C   0  0  0  0  0  0  0  0  0  0  0  0
    3.5425    2.6402   11.1650 C   0  0  0  0  0  0  0  0  0  0  0  0
    3.1493    3.4616   10.1117 C   0  0  0  0  0  0  0  0  0  0  0  0
    1.8041    3.8212   10.0117 C   0  0  0  0  0  0  0  0  0  0  0  0
    1.0219    4.6165    9.0806 C   0  0  0  0  0  0  0  0  0  0  0  0
   -0.2682    4.5927    9.5377 C   0  0  0  0  0  0  0  0  0  0  0  0
   -0.3496    3.8668   10.6667 N   0  0  0  0  0  0  0  0  0  0  0  0
    0.8806    3.3533   11.0064 C   0  0  0  0  0  0  0  0  0  0  0  0
    1.2701    2.5323   12.0703 C   0  0  0  0  0  0  0  0  0  0  0  0
   -0.5547   -0.8186   14.1912 C   0  0  0  0  0  0  0  0  0  0  0  0
   -1.9427   -1.0874   14.0603 C   0  0  0  0  0  0  0  0  0  0  0  0
   -2.7500   -0.3519   13.2066 O   0  0  0  0  0  0  0  0  0  0  0  0
   -2.2281    0.6471   12.3512 C   0  0  0  0  0  0  0  0  0  0  0  0
   -5.3466   -3.2541   13.5756 H   0  0  0  0  0  0  0  0  0  0  0  0
   -3.9679   -2.5545   12.6613 H   0  0  0  0  0  0  0  0  0  0  0  0
   -3.7530   -4.0828   13.5803 H   0  0  0  0  0  0  0  0  0  0  0  0
   -2.2004   -3.6662   16.2525 H   0  0  0  0  0  0  0  0  0  0  0  0
    0.2023   -3.2098   16.4900 H   0  0  0  0  0  0  0  0  0  0  0  0
    5.0789    1.0043   12.8675 H   0  0  0  0  0  0  0  0  0  0  0  0
    4.6176    2.3229   13.9968 H   0  0  0  0  0  0  0  0  0  0  0  0
    6.8383    0.8802   15.3068 H   0  0  0  0  0  0  0  0  0  0  0  0
    6.2591   -0.7741   17.3377 H   0  0  0  0  0  0  0  0  0  0  0  0
    4.5829    2.3628   11.2488 H   0  0  0  0  0  0  0  0  0  0  0  0
    3.8695    3.8130    9.3877 H   0  0  0  0  0  0  0  0  0  0  0  0
    1.3866    5.1261    8.2010 H   0  0  0  0  0  0  0  0  0  0  0  0
   -1.1015    5.0864    9.0599 H   0  0  0  0  0  0  0  0  0  0  0  0
    0.6751    1.6089   12.0135 H   0  0  0  0  0  0  0  0  0  0  0  0
    1.0346    3.0634   13.0044 H   0  0  0  0  0  0  0  0  0  0  0  0
   -0.0957   -0.0332   13.6091 H   0  0  0  0  0  0  0  0  0  0  0  0
   -3.0463    1.0961   11.7689 H   0  0  0  0  0  0  0  0  0  0  0  0
   -1.7369    1.4255   12.9536 H   0  0  0  0  0  0  0  0  0  0  0  0
   -1.4949    0.1965   11.6660 H   0  0  0  0  0  0  0  0  0  0  0  0
  1  2  1  0  0  0  0
  2  3  1  0  0  0  0
  3  4  2  0  0  0  0
  3 27  1  0  0  0  0
  4  5  1  0  0  0  0
  5  6  2  0  0  0  0
  6  7  1  0  0  0  0
  6 26  1  0  0  0  0
  7  8  2  0  0  0  0
  8  9  1  0  0  0  0
  8 16  1  0  0  0  0
  9 10  2  0  0  0  0
 10 11  1  0  0  0  0
 10 17  1  0  0  0  0
 11 12  1  0  0  0  0
 12 13  1  0  0  0  0
 12 16  1  0  0  0  0
 13 14  2  0  0  0  0
 14 15  1  0  0  0  0
 15 16  2  0  0  0  0
 17 18  2  0  0  0  0
 17 25  1  0  0  0  0
 18 19  1  0  0  0  0
 19 20  2  0  0  0  0
 20 21  1  0  0  0  0
 20 24  1  0  0  0  0
 21 22  2  0  0  0  0
 22 23  1  0  0  0  0
 23 24  2  0  0  0  0
 24 25  1  0  0  0  0
 26 27  2  0  0  0  0
 27 28  1  0  0  0  0
 28 29  1  0  0  0  0
  1 30  1  0  0  0  0
  1 31  1  0  0  0  0
  1 32  1  0  0  0  0
  4 33  1  0  0  0  0
  5 34  1  0  0  0  0
 11 35  1  0  0  0  0
 11 36  1  0  0  0  0
 13 37  1  0  0  0  0
 14 38  1  0  0  0  0
 18 39  1  0  0  0  0
 19 40  1  0  0  0  0
 21 41  1  0  0  0  0
 22 42  1  0  0  0  0
 25 43  1  0  0  0  0
 25 44  1  0  0  0  0
 26 45  1  0  0  0  0
 29 46  1  0  0  0  0
 29 47  1  0  0  0  0
 29 48  1  0  0  0  0
M  END
> <IC50[nM]>
2.7

$$$$
CHEMBL3265016
  -OEChem-05192314333D
 Structure written by MMmdl.
 48 52  0     1  0  0  0  0  0999 V2000
   -4.2568   -3.1050   13.5687 C   0  0  0  0  0  0  0  0  0  0  0  0
   -3.8730   -2.3616   14.7152 O   0  0  0  0  0  0  0  0  0  0  0  0
   -2.5250   -2.1116   14.8158 C   0  0  3  0  0  0  0  0  0  0  0  0
   -1.7470   -2.8700   15.6807 C   0  0  0  0  0  0  0  0  0  0  0  0
   -0.3902   -2.6106   15.8144 C   0  0  0  0  0  0  0  0  0  0  0  0
    0.2207   -1.5844   15.0868 C   0  0  0  0  0  0  0  0  0  0  0  0
    1.6046   -1.3596   15.3257 N   0  0  0  0  0  0  0  0  0  0  0  0
    2.5329   -0.4401   14.7638 C   0  0  0  0  0  0  0  0  0  0  0  0
    2.1751    0.3788   13.7311 N   0  0  0  0  0  0  0  0  0  0  0  0
    3.1086    1.2387   13.2176 C   0  0  0  0  0  0  0  0  0  0  0  0
    4.4159    1.2831   13.6998 C   0  0  0  0  0  0  0  0  0  0  0  0
    4.7435    0.4926   14.7566 N   0  0  0  0  0  0  0  0  0  0  0  0
    5.8975    0.3810   15.4862 C   0  0  0  0  0  0  0  0  0  0  0  0
    5.5917   -0.5286   16.5249 C   0  0  0  0  0  0  0  0  0  0  0  0
    4.3780   -1.0408   16.3703 N   0  0  0  0  0  0  0  0  0  0  0  0
    3.8370   -0.3906   15.3278 C   0  0  0  0  0  0  0  0  0  0  0  0
    2.6350    2.1602   12.1213 C   0  0  0  0  0  0  0  0  0  0  0  0
    3.5425    2.6402   11.1650 C   0  0  0  0  0  0  0  0  0  0  0  0
    3.1493    3.4616   10.1117 C   0  0  0  0  0  0  0  0  0  0  0  0
    1.8041    3.8212   10.0117 C   0  0  0  0  0  0  0  0  0  0  0  0
    1.0219    4.6165    9.0806 C   0  0  0  0  0  0  0  0  0  0  0  0
   -0.2682    4.5927    9.5377 C   0  0  0  0  0  0  0  0  0  0  0  0
   -0.3496    3.8668   10.6667 N   0  0  0  0  0  0  0  0  0  0  0  0
    0.8806    3.3533   11.0064 C   0  0  0  0  0  0  0  0  0  0  0  0
    1.2701    2.5323   12.0703 C   0  0  0  0  0  0  0  0  0  0  0  0
   -0.5547   -0.8186   14.1912 C   0  0  0  0  0  0  0  0  0  0  0  0
   -1.9427   -1.0874   14.0603 C   0  0  0  0  0  0  0  0  0  0  0  0
   -2.7500   -0.3519   13.2066 O   0  0  0  0  0  0  0  0  0  0  0  0
   -2.2281    0.6471   12.3512 C   0  0  0  0  0  0  0  0  0  0  0  0
   -5.3466   -3.2541   13.5756 H   0  0  0  0  0  0  0  0  0  0  0  0
   -3.9679   -2.5545   12.6613 H   0  0  0  0  0  0  0  0  0  0  0  0
   -3.7530   -4.0828   13.5803 H   0  0  0  0  0  0  0  0  0  0  0  0
   -2.3277   -2.8276   14.0043 H   0  0  0  0  0  0  0  0  0  0  0  0
   -2.2004   -3.6662   16.2525 H   0  0  0  0  0  0  0  0  0  0  0  0
    0.2023   -3.2098   16.4900 H   0  0  0  0  0  0  0  0  0  0  0  0
    5.0789    1.0043   12.8675 H   0  0  0  0  0  0  0  0  0  0  0  0
    4.6176    2.3229   13.9968 H   0  0  0  0  0  0  0  0  0  0  0  0
    6.8383    0.8802   15.3068 H   0  0  0  0  0  0  0  0  0  0  0  0
    6.2591   -0.7741   17.3377 H   0  0  0  0  0  0  0  0  0  0  0  0
    4.5829    2.3628   11.2488 H   0  0  0  0  0  0  0  0  0  0  0  0
    3.8695    3.8130    9.3877 H   0  0  0  0  0  0  0  0  0  0  0  0
    1.3866    5.1261    8.2010 H   0  0  0  0  0  0  0  0  0  0  0  0
   -1.1015    5.0864    9.0599 H   0  0  0  0  0  0  0  0  0  0  0  0
    0.5639    2.1987   12.8162 H   0  0  0  0  0  0  0  0  0  0  0  0
   -0.0957   -0.0332   13.6091 H   0  0  0  0  0  0  0  0  0  0  0  0
   -3.0463    1.0961   11.7689 H   0  0  0  0  0  0  0  0  0  0  0  0
   -1.7369    1.4255   12.9536 H   0  0  0  0  0  0  0  0  0  0  0  0
   -1.4949    0.1965   11.6660 H   0  0  0  0  0  0  0  0  0  0  0  0
  1  2  1  0  0  0  0
  2  3  1  0  0  0  0
  3  4  1  0  0  0  0
  3 27  1  0  0  0  0
  4  5  2  0  0  0  0
  5  6  1  0  0  0  0
  6  7  2  0  0  0  0
  6 26  1  0  0  0  0
  7  8  1  0  0  0  0
  8  9  2  0  0  0  0
  8 16  1  0  0  0  0
  9 10  1  0  0  0  0
 10 11  1  0  0  0  0
 10 17  2  0  0  0  0
 11 12  1  0  0  0  0
 12 13  1  0  0  0  0
 12 16  1  0  0  0  0
 13 14  2  0  0  0  0
 14 15  1  0  0  0  0
 15 16  2  0  0  0  0
 17 18  1  0  0  0  0
 17 25  1  0  0  0  0
 18 19  2  0  0  0  0
 19 20  1  0  0  0  0
 20 21  2  0  0  0  0
 20 24  1  0  0  0  0
 21 22  1  0  0  0  0
 22 23  2  0  0  0  0
 23 24  1  0  0  0  0
 24 25  2  0  0  0  0
 26 27  2  0  0  0  0
 27 28  1  0  0  0  0
 28 29  1  0  0  0  0
  1 30  1  0  0  0  0
  1 31  1  0  0  0  0
  1 32  1  0  0  0  0
  3 33  1  0  0  0  0
  4 34  1  0  0  0  0
  5 35  1  0  0  0  0
 11 36  1  0  0  0  0
 11 37  1  0  0  0  0
 13 38  1  0  0  0  0
 14 39  1  0  0  0  0
 18 40  1  0  0  0  0
 19 41  1  0  0  0  0
 21 42  1  0  0  0  0
 22 43  1  0  0  0  0
 25 44  1  0  0  0  0
 26 45  1  0  0  0  0
 29 46  1  0  0  0  0
 29 47  1  0  0  0  0
 29 48  1  0  0  0  0
M  END
> <IC50[nM]>
2.7

$$$$
CHEMBL3265016
  -OEChem-05192314333D
 Structure written by MMmdl.
 48 52  0     0  0  0  0  0  0999 V2000
   -4.2568   -3.1050   13.5687 C   0  0  0  0  0  0  0  0  0  0  0  0
   -3.8730   -2.3616   14.7152 O   0  0  0  0  0  0  0  0  0  0  0  0
   -2.5250   -2.1116   14.8158 C   0  0  0  0  0  0  0  0  0  0  0  0
   -1.7470   -2.8700   15.6807 C   0  0  0  0  0  0  0  0  0  0  0  0
   -0.3902   -2.6106   15.8144 C   0  0  0  0  0  0  0  0  0  0  0  0
    0.2207   -1.5844   15.0868 C   0  0  0  0  0  0  0  0  0  0  0  0
    1.6046   -1.3596   15.3257 N   0  0  0  0  0  0  0  0  0  0  0  0
    2.5329   -0.4401   14.7638 C   0  0  0  0  0  0  0  0  0  0  0  0
    2.1751    0.3788   13.7311 N   0  0  0  0  0  0  0  0  0  0  0  0
    3.1086    1.2387   13.2176 C   0  0  0  0  0  0  0  0  0  0  0  0
    4.4159    1.2831   13.6998 C   0  0  0  0  0  0  0  0  0  0  0  0
    4.7435    0.4926   14.7566 N   0  0  0  0  0  0  0  0  0  0  0  0
    5.8975    0.3810   15.4862 C   0  0  0  0  0  0  0  0  0  0  0  0
    5.5917   -0.5286   16.5249 C   0  0  0  0  0  0  0  0  0  0  0  0
    4.3780   -1.0408   16.3703 N   0  0  0  0  0  0  0  0  0  0  0  0
    3.8370   -0.3906   15.3278 C   0  0  0  0  0  0  0  0  0  0  0  0
    2.6350    2.1602   12.1213 C   0  0  0  0  0  0  0  0  0  0  0  0
    3.5425    2.6402   11.1650 C   0  0  0  0  0  0  0  0  0  0  0  0
    3.1493    3.4616   10.1117 C   0  0  0  0  0  0  0  0  0  0  0  0
    1.8041    3.8212   10.0117 C   0  0  0  0  0  0  0  0  0  0  0  0
    1.0219    4.6165    9.0806 C   0  0  0  0  0  0  0  0  0  0  0  0
   -0.2682    4.5927    9.5377 C   0  0  0  0  0  0  0  0  0  0  0  0
   -0.3496    3.8668   10.6667 N   0  0  0  0  0  0  0  0  0  0  0  0
    0.8806    3.3533   11.0064 C   0  0  0  0  0  0  0  0  0  0  0  0
    1.2701    2.5323   12.0703 C   0  0  0  0  0  0  0  0  0  0  0  0
   -0.5547   -0.8186   14.1912 C   0  0  0  0  0  0  0  0  0  0  0  0
   -1.9427   -1.0874   14.0603 C   0  0  0  0  0  0  0  0  0  0  0  0
   -2.7500   -0.3519   13.2066 O   0  0  0  0  0  0  0  0  0  0  0  0
   -2.2281    0.6471   12.3512 C   0  0  0  0  0  0  0  0  0  0  0  0
   -5.3466   -3.2541   13.5756 H   0  0  0  0  0  0  0  0  0  0  0  0
   -3.9679   -2.5545   12.6613 H   0  0  0  0  0  0  0  0  0  0  0  0
   -3.7530   -4.0828   13.5803 H   0  0  0  0  0  0  0  0  0  0  0  0
   -2.2004   -3.6662   16.2525 H   0  0  0  0  0  0  0  0  0  0  0  0
   -0.2176   -2.3862   16.8774 H   0  0  0  0  0  0  0  0  0  0  0  0
    0.1341   -3.5396   15.5459 H   0  0  0  0  0  0  0  0  0  0  0  0
    5.0789    1.0043   12.8675 H   0  0  0  0  0  0  0  0  0  0  0  0
    4.6176    2.3229   13.9968 H   0  0  0  0  0  0  0  0  0  0  0  0
    6.8383    0.8802   15.3068 H   0  0  0  0  0  0  0  0  0  0  0  0
    6.2591   -0.7741   17.3377 H   0  0  0  0  0  0  0  0  0  0  0  0
    4.5829    2.3628   11.2488 H   0  0  0  0  0  0  0  0  0  0  0  0
    3.8695    3.8130    9.3877 H   0  0  0  0  0  0  0  0  0  0  0  0
    1.3866    5.1261    8.2010 H   0  0  0  0  0  0  0  0  0  0  0  0
   -1.1015    5.0864    9.0599 H   0  0  0  0  0  0  0  0  0  0  0  0
    0.5639    2.1987   12.8162 H   0  0  0  0  0  0  0  0  0  0  0  0
   -0.0957   -0.0332   13.6091 H   0  0  0  0  0  0  0  0  0  0  0  0
   -3.0463    1.0961   11.7689 H   0  0  0  0  0  0  0  0  0  0  0  0
   -1.7369    1.4255   12.9536 H   0  0  0  0  0  0  0  0  0  0  0  0
   -1.4949    0.1965   11.6660 H   0  0  0  0  0  0  0  0  0  0  0  0
  1  2  1  0  0  0  0
  2  3  1  0  0  0  0
  3  4  2  0  0  0  0
  3 27  1  0  0  0  0
  4  5  1  0  0  0  0
  5  6  1  0  0  0  0
  6  7  2  0  0  0  0
  6 26  1  0  0  0  0
  7  8  1  0  0  0  0
  8  9  2  0  0  0  0
  8 16  1  0  0  0  0
  9 10  1  0  0  0  0
 10 11  1  0  0  0  0
 10 17  2  0  0  0  0
 11 12  1  0  0  0  0
 12 13  1  0  0  0  0
 12 16  1  0  0  0  0
 13 14  2  0  0  0  0
 14 15  1  0  0  0  0
 15 16  2  0  0  0  0
 17 18  1  0  0  0  0
 17 25  1  0  0  0  0
 18 19  2  0  0  0  0
 19 20  1  0  0  0  0
 20 21  2  0  0  0  0
 20 24  1  0  0  0  0
 21 22  1  0  0  0  0
 22 23  2  0  0  0  0
 23 24  1  0  0  0  0
 24 25  2  0  0  0  0
 26 27  2  0  0  0  0
 27 28  1  0  0  0  0
 28 29  1  0  0  0  0
  1 30  1  0  0  0  0
  1 31  1  0  0  0  0
  1 32  1  0  0  0  0
  4 33  1  0  0  0  0
  5 34  1  0  0  0  0
  5 35  1  0  0  0  0
 11 36  1  0  0  0  0
 11 37  1  0  0  0  0
 13 38  1  0  0  0  0
 14 39  1  0  0  0  0
 18 40  1  0  0  0  0
 19 41  1  0  0  0  0
 21 42  1  0  0  0  0
 22 43  1  0  0  0  0
 25 44  1  0  0  0  0
 26 45  1  0  0  0  0
 29 46  1  0  0  0  0
 29 47  1  0  0  0  0
 29 48  1  0  0  0  0
M  END
> <IC50[nM]>
2.7

$$$$
CHEMBL3265016
  -OEChem-05192314333D
 Structure written by MMmdl.
 48 52  0     0  0  0  0  0  0999 V2000
   -4.2568   -3.1050   13.5687 C   0  0  0  0  0  0  0  0  0  0  0  0
   -3.8730   -2.3616   14.7152 O   0  0  0  0  0  0  0  0  0  0  0  0
   -2.5250   -2.1116   14.8158 C   0  0  0  0  0  0  0  0  0  0  0  0
   -1.7470   -2.8700   15.6807 C   0  0  0  0  0  0  0  0  0  0  0  0
   -0.3902   -2.6106   15.8144 C   0  0  0  0  0  0  0  0  0  0  0  0
    0.2207   -1.5844   15.0868 C   0  0  0  0  0  0  0  0  0  0  0  0
    1.6046   -1.3596   15.3257 N   0  0  0  0  0  0  0  0  0  0  0  0
    2.5329   -0.4401   14.7638 C   0  0  0  0  0  0  0  0  0  0  0  0
    2.1751    0.3788   13.7311 N   0  0  0  0  0  0  0  0  0  0  0  0
    3.1086    1.2387   13.2176 C   0  0  0  0  0  0  0  0  0  0  0  0
    4.4159    1.2831   13.6998 C   0  0  0  0  0  0  0  0  0  0  0  0
    4.7435    0.4926   14.7566 N   0  0  0  0  0  0  0  0  0  0  0  0
    5.8975    0.3810   15.4862 C   0  0  0  0  0  0  0  0  0  0  0  0
    5.5917   -0.5286   16.5249 C   0  0  0  0  0  0  0  0  0  0  0  0
    4.3780   -1.0408   16.3703 N   0  0  0  0  0  0  0  0  0  0  0  0
    3.8370   -0.3906   15.3278 C   0  0  0  0  0  0  0  0  0  0  0  0
    2.6350    2.1602   12.1213 C   0  0  0  0  0  0  0  0  0  0  0  0
    3.5425    2.6402   11.1650 C   0  0  0  0  0  0  0  0  0  0  0  0
    3.1493    3.4616   10.1117 C   0  0  0  0  0  0  0  0  0  0  0  0
    1.8041    3.8212   10.0117 C   0  0  0  0  0  0  0  0  0  0  0  0
    1.0219    4.6165    9.0806 C   0  0  0  0  0  0  0  0  0  0  0  0
   -0.2682    4.5927    9.5377 C   0  0  0  0  0  0  0  0  0  0  0  0
   -0.3496    3.8668   10.6667 N   0  0  0  0  0  0  0  0  0  0  0  0
    0.8806    3.3533   11.0064 C   0  0  0  0  0  0  0  0  0  0  0  0
    1.2701    2.5323   12.0703 C   0  0  0  0  0  0  0  0  0  0  0  0
   -0.5547   -0.8186   14.1912 C   0  0  0  0  0  0  0  0  0  0  0  0
   -1.9427   -1.0874   14.0603 C   0  0  0  0  0  0  0  0  0  0  0  0
   -2.7500   -0.3519   13.2066 O   0  0  0  0  0  0  0  0  0  0  0  0
   -2.2281    0.6471   12.3512 C   0  0  0  0  0  0  0  0  0  0  0  0
   -5.3466   -3.2541   13.5756 H   0  0  0  0  0  0  0  0  0  0  0  0
   -3.9679   -2.5545   12.6613 H   0  0  0  0  0  0  0  0  0  0  0  0
   -3.7530   -4.0828   13.5803 H   0  0  0  0  0  0  0  0  0  0  0  0
   -2.2004   -3.6662   16.2525 H   0  0  0  0  0  0  0  0  0  0  0  0
    0.2023   -3.2098   16.4900 H   0  0  0  0  0  0  0  0  0  0  0  0
    5.0789    1.0043   12.8675 H   0  0  0  0  0  0  0  0  0  0  0  0
    4.6176    2.3229   13.9968 H   0  0  0  0  0  0  0  0  0  0  0  0
    6.8383    0.8802   15.3068 H   0  0  0  0  0  0  0  0  0  0  0  0
    6.2591   -0.7741   17.3377 H   0  0  0  0  0  0  0  0  0  0  0  0
    4.5829    2.3628   11.2488 H   0  0  0  0  0  0  0  0  0  0  0  0
    3.8695    3.8130    9.3877 H   0  0  0  0  0  0  0  0  0  0  0  0
    1.3866    5.1261    8.2010 H   0  0  0  0  0  0  0  0  0  0  0  0
   -1.1015    5.0864    9.0599 H   0  0  0  0  0  0  0  0  0  0  0  0
    0.5639    2.1987   12.8162 H   0  0  0  0  0  0  0  0  0  0  0  0
   -0.4606    0.2317   14.5042 H   0  0  0  0  0  0  0  0  0  0  0  0
   -0.1090   -0.9452   13.1935 H   0  0  0  0  0  0  0  0  0  0  0  0
   -3.0463    1.0961   11.7689 H   0  0  0  0  0  0  0  0  0  0  0  0
   -1.7369    1.4255   12.9536 H   0  0  0  0  0  0  0  0  0  0  0  0
   -1.4949    0.1965   11.6660 H   0  0  0  0  0  0  0  0  0  0  0  0
  1  2  1  0  0  0  0
  2  3  1  0  0  0  0
  3  4  1  0  0  0  0
  3 27  2  0  0  0  0
  4  5  2  0  0  0  0
  5  6  1  0  0  0  0
  6  7  2  0  0  0  0
  6 26  1  0  0  0  0
  7  8  1  0  0  0  0
  8  9  2  0  0  0  0
  8 16  1  0  0  0  0
  9 10  1  0  0  0  0
 10 11  1  0  0  0  0
 10 17  2  0  0  0  0
 11 12  1  0  0  0  0
 12 13  1  0  0  0  0
 12 16  1  0  0  0  0
 13 14  2  0  0  0  0
 14 15  1  0  0  0  0
 15 16  2  0  0  0  0
 17 18  1  0  0  0  0
 17 25  1  0  0  0  0
 18 19  2  0  0  0  0
 19 20  1  0  0  0  0
 20 21  2  0  0  0  0
 20 24  1  0  0  0  0
 21 22  1  0  0  0  0
 22 23  2  0  0  0  0
 23 24  1  0  0  0  0
 24 25  2  0  0  0  0
 26 27  1  0  0  0  0
 27 28  1  0  0  0  0
 28 29  1  0  0  0  0
  1 30  1  0  0  0  0
  1 31  1  0  0  0  0
  1 32  1  0  0  0  0
  4 33  1  0  0  0  0
  5 34  1  0  0  0  0
 11 35  1  0  0  0  0
 11 36  1  0  0  0  0
 13 37  1  0  0  0  0
 14 38  1  0  0  0  0
 18 39  1  0  0  0  0
 19 40  1  0  0  0  0
 21 41  1  0  0  0  0
 22 42  1  0  0  0  0
 25 43  1  0  0  0  0
 26 44  1  0  0  0  0
 26 45  1  0  0  0  0
 29 46  1  0  0  0  0
 29 47  1  0  0  0  0
 29 48  1  0  0  0  0
M  END
> <IC50[nM]>
2.7

$$$$
CHEMBL3265016
  -OEChem-05192314333D
 Structure written by MMmdl.
 48 52  0     1  0  0  0  0  0999 V2000
   -4.2568   -3.1050   13.5687 C   0  0  0  0  0  0  0  0  0  0  0  0
   -3.8730   -2.3616   14.7152 O   0  0  0  0  0  0  0  0  0  0  0  0
   -2.5250   -2.1116   14.8158 C   0  0  3  0  0  0  0  0  0  0  0  0
   -1.7470   -2.8700   15.6807 C   0  0  0  0  0  0  0  0  0  0  0  0
   -0.3902   -2.6106   15.8144 C   0  0  0  0  0  0  0  0  0  0  0  0
    0.2207   -1.5844   15.0868 C   0  0  0  0  0  0  0  0  0  0  0  0
    1.6046   -1.3596   15.3257 N   0  0  0  0  0  0  0  0  0  0  0  0
    2.5329   -0.4401   14.7638 C   0  0  0  0  0  0  0  0  0  0  0  0
    2.1751    0.3788   13.7311 N   0  0  0  0  0  0  0  0  0  0  0  0
    3.1086    1.2387   13.2176 C   0  0  0  0  0  0  0  0  0  0  0  0
    4.4159    1.2831   13.6998 C   0  0  0  0  0  0  0  0  0  0  0  0
    4.7435    0.4926   14.7566 N   0  0  0  0  0  0  0  0  0  0  0  0
    5.8975    0.3810   15.4862 C   0  0  0  0  0  0  0  0  0  0  0  0
    5.5917   -0.5286   16.5249 C   0  0  0  0  0  0  0  0  0  0  0  0
    4.3780   -1.0408   16.3703 N   0  0  0  0  0  0  0  0  0  0  0  0
    3.8370   -0.3906   15.3278 C   0  0  0  0  0  0  0  0  0  0  0  0
    2.6350    2.1602   12.1213 C   0  0  3  0  0  0  0  0  0  0  0  0
    3.5425    2.6402   11.1650 C   0  0  0  0  0  0  0  0  0  0  0  0
    3.1493    3.4616   10.1117 C   0  0  0  0  0  0  0  0  0  0  0  0
    1.8041    3.8212   10.0117 C   0  0  0  0  0  0  0  0  0  0  0  0
    1.0219    4.6165    9.0806 C   0  0  0  0  0  0  0  0  0  0  0  0
   -0.2682    4.5927    9.5377 C   0  0  0  0  0  0  0  0  0  0  0  0
   -0.3496    3.8668   10.6667 N   0  0  0  0  0  0  0  0  0  0  0  0
    0.8806    3.3533   11.0064 C   0  0  0  0  0  0  0  0  0  0  0  0
    1.2701    2.5323   12.0703 C   0  0  0  0  0  0  0  0  0  0  0  0
   -0.5547   -0.8186   14.1912 C   0  0  0  0  0  0  0  0  0  0  0  0
   -1.9427   -1.0874   14.0603 C   0  0  0  0  0  0  0  0  0  0  0  0
   -2.7500   -0.3519   13.2066 O   0  0  0  0  0  0  0  0  0  0  0  0
   -2.2281    0.6471   12.3512 C   0  0  0  0  0  0  0  0  0  0  0  0
   -5.3466   -3.2541   13.5756 H   0  0  0  0  0  0  0  0  0  0  0  0
   -3.9679   -2.5545   12.6613 H   0  0  0  0  0  0  0  0  0  0  0  0
   -3.7530   -4.0828   13.5803 H   0  0  0  0  0  0  0  0  0  0  0  0
   -2.3277   -2.8276   14.0043 H   0  0  0  0  0  0  0  0  0  0  0  0
   -2.2004   -3.6662   16.2525 H   0  0  0  0  0  0  0  0  0  0  0  0
    0.2023   -3.2098   16.4900 H   0  0  0  0  0  0  0  0  0  0  0  0
    5.1512    1.9301   13.2447 H   0  0  0  0  0  0  0  0  0  0  0  0
    6.8383    0.8802   15.3068 H   0  0  0  0  0  0  0  0  0  0  0  0
    6.2591   -0.7741   17.3377 H   0  0  0  0  0  0  0  0  0  0  0  0
    2.8482    3.0299   12.7602 H   0  0  0  0  0  0  0  0  0  0  0  0
    4.5829    2.3628   11.2488 H   0  0  0  0  0  0  0  0  0  0  0  0
    3.8695    3.8130    9.3877 H   0  0  0  0  0  0  0  0  0  0  0  0
    1.3866    5.1261    8.2010 H   0  0  0  0  0  0  0  0  0  0  0  0
   -1.1015    5.0864    9.0599 H   0  0  0  0  0  0  0  0  0  0  0  0
    0.5639    2.1987   12.8162 H   0  0  0  0  0  0  0  0  0  0  0  0
   -0.0957   -0.0332   13.6091 H   0  0  0  0  0  0  0  0  0  0  0  0
   -3.0463    1.0961   11.7689 H   0  0  0  0  0  0  0  0  0  0  0  0
   -1.7369    1.4255   12.9536 H   0  0  0  0  0  0  0  0  0  0  0  0
   -1.4949    0.1965   11.6660 H   0  0  0  0  0  0  0  0  0  0  0  0
  1  2  1  0  0  0  0
  2  3  1  0  0  0  0
  3  4  1  0  0  0  0
  3 27  1  0  0  0  0
  4  5  2  0  0  0  0
  5  6  1  0  0  0  0
  6  7  2  0  0  0  0
  6 26  1  0  0  0  0
  7  8  1  0  0  0  0
  8  9  2  0  0  0  0
  8 16  1  0  0  0  0
  9 10  1  0  0  0  0
 10 11  2  0  0  0  0
 10 17  1  0  0  0  0
 11 12  1  0  0  0  0
 12 13  1  0  0  0  0
 12 16  1  0  0  0  0
 13 14  2  0  0  0  0
 14 15  1  0  0  0  0
 15 16  2  0  0  0  0
 17 18  1  0  0  0  0
 17 25  1  0  0  0  0
 18 19  2  0  0  0  0
 19 20  1  0  0  0  0
 20 21  2  0  0  0  0
 20 24  1  0  0  0  0
 21 22  1  0  0  0  0
 22 23  2  0  0  0  0
 23 24  1  0  0  0  0
 24 25  2  0  0  0  0
 26 27  2  0  0  0  0
 27 28  1  0  0  0  0
 28 29  1  0  0  0  0
  1 30  1  0  0  0  0
  1 31  1  0  0  0  0
  1 32  1  0  0  0  0
  3 33  1  0  0  0  0
  4 34  1  0  0  0  0
  5 35  1  0  0  0  0
 11 36  1  0  0  0  0
 13 37  1  0  0  0  0
 14 38  1  0  0  0  0
 17 39  1  0  0  0  0
 18 40  1  0  0  0  0
 19 41  1  0  0  0  0
 21 42  1  0  0  0  0
 22 43  1  0  0  0  0
 25 44  1  0  0  0  0
 26 45  1  0  0  0  0
 29 46  1  0  0  0  0
 29 47  1  0  0  0  0
 29 48  1  0  0  0  0
M  END
> <IC50[nM]>
2.7

$$$$
CHEMBL3265016
  -OEChem-05192314333D
 Structure written by MMmdl.
 48 52  0     1  0  0  0  0  0999 V2000
   -4.2568   -3.1050   13.5687 C   0  0  0  0  0  0  0  0  0  0  0  0
   -3.8730   -2.3616   14.7152 O   0  0  0  0  0  0  0  0  0  0  0  0
   -2.5250   -2.1116   14.8158 C   0  0  3  0  0  0  0  0  0  0  0  0
   -1.7470   -2.8700   15.6807 C   0  0  0  0  0  0  0  0  0  0  0  0
   -0.3902   -2.6106   15.8144 C   0  0  0  0  0  0  0  0  0  0  0  0
    0.2207   -1.5844   15.0868 C   0  0  0  0  0  0  0  0  0  0  0  0
    1.6046   -1.3596   15.3257 N   0  0  0  0  0  0  0  0  0  0  0  0
    2.5329   -0.4401   14.7638 C   0  0  0  0  0  0  0  0  0  0  0  0
    2.1751    0.3788   13.7311 N   0  0  0  0  0  0  0  0  0  0  0  0
    3.1086    1.2387   13.2176 C   0  0  0  0  0  0  0  0  0  0  0  0
    4.4159    1.2831   13.6998 C   0  0  0  0  0  0  0  0  0  0  0  0
    4.7435    0.4926   14.7566 N   0  0  0  0  0  0  0  0  0  0  0  0
    5.8975    0.3810   15.4862 C   0  0  0  0  0  0  0  0  0  0  0  0
    5.5917   -0.5286   16.5249 C   0  0  0  0  0  0  0  0  0  0  0  0
    4.3780   -1.0408   16.3703 N   0  0  0  0  0  0  0  0  0  0  0  0
    3.8370   -0.3906   15.3278 C   0  0  0  0  0  0  0  0  0  0  0  0
    2.6350    2.1602   12.1213 C   0  0  0  0  0  0  0  0  0  0  0  0
    3.5425    2.6402   11.1650 C   0  0  0  0  0  0  0  0  0  0  0  0
    3.1493    3.4616   10.1117 C   0  0  0  0  0  0  0  0  0  0  0  0
    1.8041    3.8212   10.0117 C   0  0  3  0  0  0  0  0  0  0  0  0
    1.0219    4.6165    9.0806 C   0  0  0  0  0  0  0  0  0  0  0  0
   -0.2682    4.5927    9.5377 C   0  0  0  0  0  0  0  0  0  0  0  0
   -0.3496    3.8668   10.6667 N   0  0  0  0  0  0  0  0  0  0  0  0
    0.8806    3.3533   11.0064 C   0  0  0  0  0  0  0  0  0  0  0  0
    1.2701    2.5323   12.0703 C   0  0  0  0  0  0  0  0  0  0  0  0
   -0.5547   -0.8186   14.1912 C   0  0  0  0  0  0  0  0  0  0  0  0
   -1.9427   -1.0874   14.0603 C   0  0  0  0  0  0  0  0  0  0  0  0
   -2.7500   -0.3519   13.2066 O   0  0  0  0  0  0  0  0  0  0  0  0
   -2.2281    0.6471   12.3512 C   0  0  0  0  0  0  0  0  0  0  0  0
   -5.3466   -3.2541   13.5756 H   0  0  0  0  0  0  0  0  0  0  0  0
   -3.9679   -2.5545   12.6613 H   0  0  0  0  0  0  0  0  0  0  0  0
   -3.7530   -4.0828   13.5803 H   0  0  0  0  0  0  0  0  0  0  0  0
   -2.3277   -2.8276   14.0043 H   0  0  0  0  0  0  0  0  0  0  0  0
   -2.2004   -3.6662   16.2525 H   0  0  0  0  0  0  0  0  0  0  0  0
    0.2023   -3.2098   16.4900 H   0  0  0  0  0  0  0  0  0  0  0  0
    5.1512    1.9301   13.2447 H   0  0  0  0  0  0  0  0  0  0  0  0
    6.8383    0.8802   15.3068 H   0  0  0  0  0  0  0  0  0  0  0  0
    6.2591   -0.7741   17.3377 H   0  0  0  0  0  0  0  0  0  0  0  0
    4.5829    2.3628   11.2488 H   0  0  0  0  0  0  0  0  0  0  0  0
    3.8695    3.8130    9.3877 H   0  0  0  0  0  0  0  0  0  0  0  0
    1.9993    4.7198   10.6154 H   0  0  0  0  0  0  0  0  0  0  0  0
    1.3866    5.1261    8.2010 H   0  0  0  0  0  0  0  0  0  0  0  0
   -1.1015    5.0864    9.0599 H   0  0  0  0  0  0  0  0  0  0  0  0
    0.5639    2.1987   12.8162 H   0  0  0  0  0  0  0  0  0  0  0  0
   -0.0957   -0.0332   13.6091 H   0  0  0  0  0  0  0  0  0  0  0  0
   -3.0463    1.0961   11.7689 H   0  0  0  0  0  0  0  0  0  0  0  0
   -1.7369    1.4255   12.9536 H   0  0  0  0  0  0  0  0  0  0  0  0
   -1.4949    0.1965   11.6660 H   0  0  0  0  0  0  0  0  0  0  0  0
  1  2  1  0  0  0  0
  2  3  1  0  0  0  0
  3  4  1  0  0  0  0
  3 27  1  0  0  0  0
  4  5  2  0  0  0  0
  5  6  1  0  0  0  0
  6  7  2  0  0  0  0
  6 26  1  0  0  0  0
  7  8  1  0  0  0  0
  8  9  2  0  0  0  0
  8 16  1  0  0  0  0
  9 10  1  0  0  0  0
 10 11  2  0  0  0  0
 10 17  1  0  0  0  0
 11 12  1  0  0  0  0
 12 13  1  0  0  0  0
 12 16  1  0  0  0  0
 13 14  2  0  0  0  0
 14 15  1  0  0  0  0
 15 16  2  0  0  0  0
 17 18  1  0  0  0  0
 17 25  2  0  0  0  0
 18 19  2  0  0  0  0
 19 20  1  0  0  0  0
 20 21  1  0  0  0  0
 20 24  1  0  0  0  0
 21 22  2  0  0  0  0
 22 23  1  0  0  0  0
 23 24  2  0  0  0  0
 24 25  1  0  0  0  0
 26 27  2  0  0  0  0
 27 28  1  0  0  0  0
 28 29  1  0  0  0  0
  1 30  1  0  0  0  0
  1 31  1  0  0  0  0
  1 32  1  0  0  0  0
  3 33  1  0  0  0  0
  4 34  1  0  0  0  0
  5 35  1  0  0  0  0
 11 36  1  0  0  0  0
 13 37  1  0  0  0  0
 14 38  1  0  0  0  0
 18 39  1  0  0  0  0
 19 40  1  0  0  0  0
 20 41  1  0  0  0  0
 21 42  1  0  0  0  0
 22 43  1  0  0  0  0
 25 44  1  0  0  0  0
 26 45  1  0  0  0  0
 29 46  1  0  0  0  0
 29 47  1  0  0  0  0
 29 48  1  0  0  0  0
M  END
> <IC50[nM]>
2.7

$$$$
CHEMBL3265016
  -OEChem-05192314333D
 Structure written by MMmdl.
 48 52  0     1  0  0  0  0  0999 V2000
   -4.2568   -3.1050   13.5687 C   0  0  0  0  0  0  0  0  0  0  0  0
   -3.8730   -2.3616   14.7152 O   0  0  0  0  0  0  0  0  0  0  0  0
   -2.5250   -2.1116   14.8158 C   0  0  3  0  0  0  0  0  0  0  0  0
   -1.7470   -2.8700   15.6807 C   0  0  0  0  0  0  0  0  0  0  0  0
   -0.3902   -2.6106   15.8144 C   0  0  0  0  0  0  0  0  0  0  0  0
    0.2207   -1.5844   15.0868 C   0  0  0  0  0  0  0  0  0  0  0  0
    1.6046   -1.3596   15.3257 N   0  0  0  0  0  0  0  0  0  0  0  0
    2.5329   -0.4401   14.7638 C   0  0  0  0  0  0  0  0  0  0  0  0
    2.1751    0.3788   13.7311 N   0  0  0  0  0  0  0  0  0  0  0  0
    3.1086    1.2387   13.2176 C   0  0  0  0  0  0  0  0  0  0  0  0
    4.4159    1.2831   13.6998 C   0  0  0  0  0  0  0  0  0  0  0  0
    4.7435    0.4926   14.7566 N   0  0  0  0  0  0  0  0  0  0  0  0
    5.8975    0.3810   15.4862 C   0  0  0  0  0  0  0  0  0  0  0  0
    5.5917   -0.5286   16.5249 C   0  0  0  0  0  0  0  0  0  0  0  0
    4.3780   -1.0408   16.3703 N   0  0  0  0  0  0  0  0  0  0  0  0
    3.8370   -0.3906   15.3278 C   0  0  0  0  0  0  0  0  0  0  0  0
    2.6350    2.1602   12.1213 C   0  0  0  0  0  0  0  0  0  0  0  0
    3.5425    2.6402   11.1650 C   0  0  0  0  0  0  0  0  0  0  0  0
    3.1493    3.4616   10.1117 C   0  0  0  0  0  0  0  0  0  0  0  0
    1.8041    3.8212   10.0117 C   0  0  0  0  0  0  0  0  0  0  0  0
    1.0219    4.6165    9.0806 C   0  0  0  0  0  0  0  0  0  0  0  0
   -0.2682    4.5927    9.5377 C   0  0  0  0  0  0  0  0  0  0  0  0
   -0.3496    3.8668   10.6667 N   0  0  0  0  0  0  0  0  0  0  0  0
    0.8806    3.3533   11.0064 C   0  0  3  0  0  0  0  0  0  0  0  0
    1.2701    2.5323   12.0703 C   0  0  0  0  0  0  0  0  0  0  0  0
   -0.5547   -0.8186   14.1912 C   0  0  0  0  0  0  0  0  0  0  0  0
   -1.9427   -1.0874   14.0603 C   0  0  0  0  0  0  0  0  0  0  0  0
   -2.7500   -0.3519   13.2066 O   0  0  0  0  0  0  0  0  0  0  0  0
   -2.2281    0.6471   12.3512 C   0  0  0  0  0  0  0  0  0  0  0  0
   -5.3466   -3.2541   13.5756 H   0  0  0  0  0  0  0  0  0  0  0  0
   -3.9679   -2.5545   12.6613 H   0  0  0  0  0  0  0  0  0  0  0  0
   -3.7530   -4.0828   13.5803 H   0  0  0  0  0  0  0  0  0  0  0  0
   -2.3277   -2.8276   14.0043 H   0  0  0  0  0  0  0  0  0  0  0  0
   -2.2004   -3.6662   16.2525 H   0  0  0  0  0  0  0  0  0  0  0  0
    0.2023   -3.2098   16.4900 H   0  0  0  0  0  0  0  0  0  0  0  0
    5.1512    1.9301   13.2447 H   0  0  0  0  0  0  0  0  0  0  0  0
    6.8383    0.8802   15.3068 H   0  0  0  0  0  0  0  0  0  0  0  0
    6.2591   -0.7741   17.3377 H   0  0  0  0  0  0  0  0  0  0  0  0
    4.5829    2.3628   11.2488 H   0  0  0  0  0  0  0  0  0  0  0  0
    3.8695    3.8130    9.3877 H   0  0  0  0  0  0  0  0  0  0  0  0
    1.3866    5.1261    8.2010 H   0  0  0  0  0  0  0  0  0  0  0  0
   -1.1015    5.0864    9.0599 H   0  0  0  0  0  0  0  0  0  0  0  0
    1.0854    4.2447   11.6176 H   0  0  0  0  0  0  0  0  0  0  0  0
    0.5639    2.1987   12.8162 H   0  0  0  0  0  0  0  0  0  0  0  0
   -0.0957   -0.0332   13.6091 H   0  0  0  0  0  0  0  0  0  0  0  0
   -3.0463    1.0961   11.7689 H   0  0  0  0  0  0  0  0  0  0  0  0
   -1.7369    1.4255   12.9536 H   0  0  0  0  0  0  0  0  0  0  0  0
   -1.4949    0.1965   11.6660 H   0  0  0  0  0  0  0  0  0  0  0  0
  1  2  1  0  0  0  0
  2  3  1  0  0  0  0
  3  4  1  0  0  0  0
  3 27  1  0  0  0  0
  4  5  2  0  0  0  0
  5  6  1  0  0  0  0
  6  7  2  0  0  0  0
  6 26  1  0  0  0  0
  7  8  1  0  0  0  0
  8  9  2  0  0  0  0
  8 16  1  0  0  0  0
  9 10  1  0  0  0  0
 10 11  2  0  0  0  0
 10 17  1  0  0  0  0
 11 12  1  0  0  0  0
 12 13  1  0  0  0  0
 12 16  1  0  0  0  0
 13 14  2  0  0  0  0
 14 15  1  0  0  0  0
 15 16  2  0  0  0  0
 17 18  1  0  0  0  0
 17 25  2  0  0  0  0
 18 19  2  0  0  0  0
 19 20  1  0  0  0  0
 20 21  2  0  0  0  0
 20 24  1  0  0  0  0
 21 22  1  0  0  0  0
 22 23  2  0  0  0  0
 23 24  1  0  0  0  0
 24 25  1  0  0  0  0
 26 27  2  0  0  0  0
 27 28  1  0  0  0  0
 28 29  1  0  0  0  0
  1 30  1  0  0  0  0
  1 31  1  0  0  0  0
  1 32  1  0  0  0  0
  3 33  1  0  0  0  0
  4 34  1  0  0  0  0
  5 35  1  0  0  0  0
 11 36  1  0  0  0  0
 13 37  1  0  0  0  0
 14 38  1  0  0  0  0
 18 39  1  0  0  0  0
 19 40  1  0  0  0  0
 21 41  1  0  0  0  0
 22 42  1  0  0  0  0
 24 43  1  0  0  0  0
 25 44  1  0  0  0  0
 26 45  1  0  0  0  0
 29 46  1  0  0  0  0
 29 47  1  0  0  0  0
 29 48  1  0  0  0  0
M  END
> <IC50[nM]>
2.7

$$$$
CHEMBL3265016
  -OEChem-05192314333D
 Structure written by MMmdl.
 48 52  0     1  0  0  0  0  0999 V2000
   -4.2568   -3.1050   13.5687 C   0  0  0  0  0  0  0  0  0  0  0  0
   -3.8730   -2.3616   14.7152 O   0  0  0  0  0  0  0  0  0  0  0  0
   -2.5250   -2.1116   14.8158 C   0  0  0  0  0  0  0  0  0  0  0  0
   -1.7470   -2.8700   15.6807 C   0  0  0  0  0  0  0  0  0  0  0  0
   -0.3902   -2.6106   15.8144 C   0  0  0  0  0  0  0  0  0  0  0  0
    0.2207   -1.5844   15.0868 C   0  0  0  0  0  0  0  0  0  0  0  0
    1.6046   -1.3596   15.3257 N   0  0  0  0  0  0  0  0  0  0  0  0
    2.5329   -0.4401   14.7638 C   0  0  0  0  0  0  0  0  0  0  0  0
    2.1751    0.3788   13.7311 N   0  0  0  0  0  0  0  0  0  0  0  0
    3.1086    1.2387   13.2176 C   0  0  0  0  0  0  0  0  0  0  0  0
    4.4159    1.2831   13.6998 C   0  0  0  0  0  0  0  0  0  0  0  0
    4.7435    0.4926   14.7566 N   0  0  0  0  0  0  0  0  0  0  0  0
    5.8975    0.3810   15.4862 C   0  0  0  0  0  0  0  0  0  0  0  0
    5.5917   -0.5286   16.5249 C   0  0  0  0  0  0  0  0  0  0  0  0
    4.3780   -1.0408   16.3703 N   0  0  0  0  0  0  0  0  0  0  0  0
    3.8370   -0.3906   15.3278 C   0  0  0  0  0  0  0  0  0  0  0  0
    2.6350    2.1602   12.1213 C   0  0  3  0  0  0  0  0  0  0  0  0
    3.5425    2.6402   11.1650 C   0  0  0  0  0  0  0  0  0  0  0  0
    3.1493    3.4616   10.1117 C   0  0  0  0  0  0  0  0  0  0  0  0
    1.8041    3.8212   10.0117 C   0  0  0  0  0  0  0  0  0  0  0  0
    1.0219    4.6165    9.0806 C   0  0  0  0  0  0  0  0  0  0  0  0
   -0.2682    4.5927    9.5377 C   0  0  0  0  0  0  0  0  0  0  0  0
   -0.3496    3.8668   10.6667 N   0  0  0  0  0  0  0  0  0  0  0  0
    0.8806    3.3533   11.0064 C   0  0  0  0  0  0  0  0  0  0  0  0
    1.2701    2.5323   12.0703 C   0  0  0  0  0  0  0  0  0  0  0  0
   -0.5547   -0.8186   14.1912 C   0  0  0  0  0  0  0  0  0  0  0  0
   -1.9427   -1.0874   14.0603 C   0  0  0  0  0  0  0  0  0  0  0  0
   -2.7500   -0.3519   13.2066 O   0  0  0  0  0  0  0  0  0  0  0  0
   -2.2281    0.6471   12.3512 C   0  0  0  0  0  0  0  0  0  0  0  0
   -5.3466   -3.2541   13.5756 H   0  0  0  0  0  0  0  0  0  0  0  0
   -3.9679   -2.5545   12.6613 H   0  0  0  0  0  0  0  0  0  0  0  0
   -3.7530   -4.0828   13.5803 H   0  0  0  0  0  0  0  0  0  0  0  0
   -2.2004   -3.6662   16.2525 H   0  0  0  0  0  0  0  0  0  0  0  0
   -0.2176   -2.3862   16.8774 H   0  0  0  0  0  0  0  0  0  0  0  0
    0.1341   -3.5396   15.5459 H   0  0  0  0  0  0  0  0  0  0  0  0
    5.1512    1.9301   13.2447 H   0  0  0  0  0  0  0  0  0  0  0  0
    6.8383    0.8802   15.3068 H   0  0  0  0  0  0  0  0  0  0  0  0
    6.2591   -0.7741   17.3377 H   0  0  0  0  0  0  0  0  0  0  0  0
    2.8482    3.0299   12.7602 H   0  0  0  0  0  0  0  0  0  0  0  0
    4.5829    2.3628   11.2488 H   0  0  0  0  0  0  0  0  0  0  0  0
    3.8695    3.8130    9.3877 H   0  0  0  0  0  0  0  0  0  0  0  0
    1.3866    5.1261    8.2010 H   0  0  0  0  0  0  0  0  0  0  0  0
   -1.1015    5.0864    9.0599 H   0  0  0  0  0  0  0  0  0  0  0  0
    0.5639    2.1987   12.8162 H   0  0  0  0  0  0  0  0  0  0  0  0
   -0.0957   -0.0332   13.6091 H   0  0  0  0  0  0  0  0  0  0  0  0
   -3.0463    1.0961   11.7689 H   0  0  0  0  0  0  0  0  0  0  0  0
   -1.7369    1.4255   12.9536 H   0  0  0  0  0  0  0  0  0  0  0  0
   -1.4949    0.1965   11.6660 H   0  0  0  0  0  0  0  0  0  0  0  0
  1  2  1  0  0  0  0
  2  3  1  0  0  0  0
  3  4  2  0  0  0  0
  3 27  1  0  0  0  0
  4  5  1  0  0  0  0
  5  6  1  0  0  0  0
  6  7  2  0  0  0  0
  6 26  1  0  0  0  0
  7  8  1  0  0  0  0
  8  9  2  0  0  0  0
  8 16  1  0  0  0  0
  9 10  1  0  0  0  0
 10 11  2  0  0  0  0
 10 17  1  0  0  0  0
 11 12  1  0  0  0  0
 12 13  1  0  0  0  0
 12 16  1  0  0  0  0
 13 14  2  0  0  0  0
 14 15  1  0  0  0  0
 15 16  2  0  0  0  0
 17 18  1  0  0  0  0
 17 25  1  0  0  0  0
 18 19  2  0  0  0  0
 19 20  1  0  0  0  0
 20 21  2  0  0  0  0
 20 24  1  0  0  0  0
 21 22  1  0  0  0  0
 22 23  2  0  0  0  0
 23 24  1  0  0  0  0
 24 25  2  0  0  0  0
 26 27  2  0  0  0  0
 27 28  1  0  0  0  0
 28 29  1  0  0  0  0
  1 30  1  0  0  0  0
  1 31  1  0  0  0  0
  1 32  1  0  0  0  0
  4 33  1  0  0  0  0
  5 34  1  0  0  0  0
  5 35  1  0  0  0  0
 11 36  1  0  0  0  0
 13 37  1  0  0  0  0
 14 38  1  0  0  0  0
 17 39  1  0  0  0  0
 18 40  1  0  0  0  0
 19 41  1  0  0  0  0
 21 42  1  0  0  0  0
 22 43  1  0  0  0  0
 25 44  1  0  0  0  0
 26 45  1  0  0  0  0
 29 46  1  0  0  0  0
 29 47  1  0  0  0  0
 29 48  1  0  0  0  0
M  END
> <IC50[nM]>
2.7

$$$$
CHEMBL3265016
  -OEChem-05192314333D
 Structure written by MMmdl.
 48 52  0     1  0  0  0  0  0999 V2000
   -4.2568   -3.1050   13.5687 C   0  0  0  0  0  0  0  0  0  0  0  0
   -3.8730   -2.3616   14.7152 O   0  0  0  0  0  0  0  0  0  0  0  0
   -2.5250   -2.1116   14.8158 C   0  0  0  0  0  0  0  0  0  0  0  0
   -1.7470   -2.8700   15.6807 C   0  0  0  0  0  0  0  0  0  0  0  0
   -0.3902   -2.6106   15.8144 C   0  0  0  0  0  0  0  0  0  0  0  0
    0.2207   -1.5844   15.0868 C   0  0  0  0  0  0  0  0  0  0  0  0
    1.6046   -1.3596   15.3257 N   0  0  0  0  0  0  0  0  0  0  0  0
    2.5329   -0.4401   14.7638 C   0  0  0  0  0  0  0  0  0  0  0  0
    2.1751    0.3788   13.7311 N   0  0  0  0  0  0  0  0  0  0  0  0
    3.1086    1.2387   13.2176 C   0  0  0  0  0  0  0  0  0  0  0  0
    4.4159    1.2831   13.6998 C   0  0  0  0  0  0  0  0  0  0  0  0
    4.7435    0.4926   14.7566 N   0  0  0  0  0  0  0  0  0  0  0  0
    5.8975    0.3810   15.4862 C   0  0  0  0  0  0  0  0  0  0  0  0
    5.5917   -0.5286   16.5249 C   0  0  0  0  0  0  0  0  0  0  0  0
    4.3780   -1.0408   16.3703 N   0  0  0  0  0  0  0  0  0  0  0  0
    3.8370   -0.3906   15.3278 C   0  0  0  0  0  0  0  0  0  0  0  0
    2.6350    2.1602   12.1213 C   0  0  0  0  0  0  0  0  0  0  0  0
    3.5425    2.6402   11.1650 C   0  0  0  0  0  0  0  0  0  0  0  0
    3.1493    3.4616   10.1117 C   0  0  0  0  0  0  0  0  0  0  0  0
    1.8041    3.8212   10.0117 C   0  0  3  0  0  0  0  0  0  0  0  0
    1.0219    4.6165    9.0806 C   0  0  0  0  0  0  0  0  0  0  0  0
   -0.2682    4.5927    9.5377 C   0  0  0  0  0  0  0  0  0  0  0  0
   -0.3496    3.8668   10.6667 N   0  0  0  0  0  0  0  0  0  0  0  0
    0.8806    3.3533   11.0064 C   0  0  0  0  0  0  0  0  0  0  0  0
    1.2701    2.5323   12.0703 C   0  0  0  0  0  0  0  0  0  0  0  0
   -0.5547   -0.8186   14.1912 C   0  0  0  0  0  0  0  0  0  0  0  0
   -1.9427   -1.0874   14.0603 C   0  0  0  0  0  0  0  0  0  0  0  0
   -2.7500   -0.3519   13.2066 O   0  0  0  0  0  0  0  0  0  0  0  0
   -2.2281    0.6471   12.3512 C   0  0  0  0  0  0  0  0  0  0  0  0
   -5.3466   -3.2541   13.5756 H   0  0  0  0  0  0  0  0  0  0  0  0
   -3.9679   -2.5545   12.6613 H   0  0  0  0  0  0  0  0  0  0  0  0
   -3.7530   -4.0828   13.5803 H   0  0  0  0  0  0  0  0  0  0  0  0
   -2.2004   -3.6662   16.2525 H   0  0  0  0  0  0  0  0  0  0  0  0
   -0.2176   -2.3862   16.8774 H   0  0  0  0  0  0  0  0  0  0  0  0
    0.1341   -3.5396   15.5459 H   0  0  0  0  0  0  0  0  0  0  0  0
    5.1512    1.9301   13.2447 H   0  0  0  0  0  0  0  0  0  0  0  0
    6.8383    0.8802   15.3068 H   0  0  0  0  0  0  0  0  0  0  0  0
    6.2591   -0.7741   17.3377 H   0  0  0  0  0  0  0  0  0  0  0  0
    4.5829    2.3628   11.2488 H   0  0  0  0  0  0  0  0  0  0  0  0
    3.8695    3.8130    9.3877 H   0  0  0  0  0  0  0  0  0  0  0  0
    1.9993    4.7198   10.6154 H   0  0  0  0  0  0  0  0  0  0  0  0
    1.3866    5.1261    8.2010 H   0  0  0  0  0  0  0  0  0  0  0  0
   -1.1015    5.0864    9.0599 H   0  0  0  0  0  0  0  0  0  0  0  0
    0.5639    2.1987   12.8162 H   0  0  0  0  0  0  0  0  0  0  0  0
   -0.0957   -0.0332   13.6091 H   0  0  0  0  0  0  0  0  0  0  0  0
   -3.0463    1.0961   11.7689 H   0  0  0  0  0  0  0  0  0  0  0  0
   -1.7369    1.4255   12.9536 H   0  0  0  0  0  0  0  0  0  0  0  0
   -1.4949    0.1965   11.6660 H   0  0  0  0  0  0  0  0  0  0  0  0
  1  2  1  0  0  0  0
  2  3  1  0  0  0  0
  3  4  2  0  0  0  0
  3 27  1  0  0  0  0
  4  5  1  0  0  0  0
  5  6  1  0  0  0  0
  6  7  2  0  0  0  0
  6 26  1  0  0  0  0
  7  8  1  0  0  0  0
  8  9  2  0  0  0  0
  8 16  1  0  0  0  0
  9 10  1  0  0  0  0
 10 11  2  0  0  0  0
 10 17  1  0  0  0  0
 11 12  1  0  0  0  0
 12 13  1  0  0  0  0
 12 16  1  0  0  0  0
 13 14  2  0  0  0  0
 14 15  1  0  0  0  0
 15 16  2  0  0  0  0
 17 18  1  0  0  0  0
 17 25  2  0  0  0  0
 18 19  2  0  0  0  0
 19 20  1  0  0  0  0
 20 21  1  0  0  0  0
 20 24  1  0  0  0  0
 21 22  2  0  0  0  0
 22 23  1  0  0  0  0
 23 24  2  0  0  0  0
 24 25  1  0  0  0  0
 26 27  2  0  0  0  0
 27 28  1  0  0  0  0
 28 29  1  0  0  0  0
  1 30  1  0  0  0  0
  1 31  1  0  0  0  0
  1 32  1  0  0  0  0
  4 33  1  0  0  0  0
  5 34  1  0  0  0  0
  5 35  1  0  0  0  0
 11 36  1  0  0  0  0
 13 37  1  0  0  0  0
 14 38  1  0  0  0  0
 18 39  1  0  0  0  0
 19 40  1  0  0  0  0
 20 41  1  0  0  0  0
 21 42  1  0  0  0  0
 22 43  1  0  0  0  0
 25 44  1  0  0  0  0
 26 45  1  0  0  0  0
 29 46  1  0  0  0  0
 29 47  1  0  0  0  0
 29 48  1  0  0  0  0
M  END
> <IC50[nM]>
2.7

$$$$
CHEMBL3265016
  -OEChem-05192314333D
 Structure written by MMmdl.
 48 52  0     1  0  0  0  0  0999 V2000
   -4.2568   -3.1050   13.5687 C   0  0  0  0  0  0  0  0  0  0  0  0
   -3.8730   -2.3616   14.7152 O   0  0  0  0  0  0  0  0  0  0  0  0
   -2.5250   -2.1116   14.8158 C   0  0  0  0  0  0  0  0  0  0  0  0
   -1.7470   -2.8700   15.6807 C   0  0  0  0  0  0  0  0  0  0  0  0
   -0.3902   -2.6106   15.8144 C   0  0  0  0  0  0  0  0  0  0  0  0
    0.2207   -1.5844   15.0868 C   0  0  0  0  0  0  0  0  0  0  0  0
    1.6046   -1.3596   15.3257 N   0  0  0  0  0  0  0  0  0  0  0  0
    2.5329   -0.4401   14.7638 C   0  0  0  0  0  0  0  0  0  0  0  0
    2.1751    0.3788   13.7311 N   0  0  0  0  0  0  0  0  0  0  0  0
    3.1086    1.2387   13.2176 C   0  0  0  0  0  0  0  0  0  0  0  0
    4.4159    1.2831   13.6998 C   0  0  0  0  0  0  0  0  0  0  0  0
    4.7435    0.4926   14.7566 N   0  0  0  0  0  0  0  0  0  0  0  0
    5.8975    0.3810   15.4862 C   0  0  0  0  0  0  0  0  0  0  0  0
    5.5917   -0.5286   16.5249 C   0  0  0  0  0  0  0  0  0  0  0  0
    4.3780   -1.0408   16.3703 N   0  0  0  0  0  0  0  0  0  0  0  0
    3.8370   -0.3906   15.3278 C   0  0  0  0  0  0  0  0  0  0  0  0
    2.6350    2.1602   12.1213 C   0  0  0  0  0  0  0  0  0  0  0  0
    3.5425    2.6402   11.1650 C   0  0  0  0  0  0  0  0  0  0  0  0
    3.1493    3.4616   10.1117 C   0  0  0  0  0  0  0  0  0  0  0  0
    1.8041    3.8212   10.0117 C   0  0  0  0  0  0  0  0  0  0  0  0
    1.0219    4.6165    9.0806 C   0  0  0  0  0  0  0  0  0  0  0  0
   -0.2682    4.5927    9.5377 C   0  0  0  0  0  0  0  0  0  0  0  0
   -0.3496    3.8668   10.6667 N   0  0  0  0  0  0  0  0  0  0  0  0
    0.8806    3.3533   11.0064 C   0  0  3  0  0  0  0  0  0  0  0  0
    1.2701    2.5323   12.0703 C   0  0  0  0  0  0  0  0  0  0  0  0
   -0.5547   -0.8186   14.1912 C   0  0  0  0  0  0  0  0  0  0  0  0
   -1.9427   -1.0874   14.0603 C   0  0  0  0  0  0  0  0  0  0  0  0
   -2.7500   -0.3519   13.2066 O   0  0  0  0  0  0  0  0  0  0  0  0
   -2.2281    0.6471   12.3512 C   0  0  0  0  0  0  0  0  0  0  0  0
   -5.3466   -3.2541   13.5756 H   0  0  0  0  0  0  0  0  0  0  0  0
   -3.9679   -2.5545   12.6613 H   0  0  0  0  0  0  0  0  0  0  0  0
   -3.7530   -4.0828   13.5803 H   0  0  0  0  0  0  0  0  0  0  0  0
   -2.2004   -3.6662   16.2525 H   0  0  0  0  0  0  0  0  0  0  0  0
   -0.2176   -2.3862   16.8774 H   0  0  0  0  0  0  0  0  0  0  0  0
    0.1341   -3.5396   15.5459 H   0  0  0  0  0  0  0  0  0  0  0  0
    5.1512    1.9301   13.2447 H   0  0  0  0  0  0  0  0  0  0  0  0
    6.8383    0.8802   15.3068 H   0  0  0  0  0  0  0  0  0  0  0  0
    6.2591   -0.7741   17.3377 H   0  0  0  0  0  0  0  0  0  0  0  0
    4.5829    2.3628   11.2488 H   0  0  0  0  0  0  0  0  0  0  0  0
    3.8695    3.8130    9.3877 H   0  0  0  0  0  0  0  0  0  0  0  0
    1.3866    5.1261    8.2010 H   0  0  0  0  0  0  0  0  0  0  0  0
   -1.1015    5.0864    9.0599 H   0  0  0  0  0  0  0  0  0  0  0  0
    1.0854    4.2447   11.6176 H   0  0  0  0  0  0  0  0  0  0  0  0
    0.5639    2.1987   12.8162 H   0  0  0  0  0  0  0  0  0  0  0  0
   -0.0957   -0.0332   13.6091 H   0  0  0  0  0  0  0  0  0  0  0  0
   -3.0463    1.0961   11.7689 H   0  0  0  0  0  0  0  0  0  0  0  0
   -1.7369    1.4255   12.9536 H   0  0  0  0  0  0  0  0  0  0  0  0
   -1.4949    0.1965   11.6660 H   0  0  0  0  0  0  0  0  0  0  0  0
  1  2  1  0  0  0  0
  2  3  1  0  0  0  0
  3  4  2  0  0  0  0
  3 27  1  0  0  0  0
  4  5  1  0  0  0  0
  5  6  1  0  0  0  0
  6  7  2  0  0  0  0
  6 26  1  0  0  0  0
  7  8  1  0  0  0  0
  8  9  2  0  0  0  0
  8 16  1  0  0  0  0
  9 10  1  0  0  0  0
 10 11  2  0  0  0  0
 10 17  1  0  0  0  0
 11 12  1  0  0  0  0
 12 13  1  0  0  0  0
 12 16  1  0  0  0  0
 13 14  2  0  0  0  0
 14 15  1  0  0  0  0
 15 16  2  0  0  0  0
 17 18  1  0  0  0  0
 17 25  2  0  0  0  0
 18 19  2  0  0  0  0
 19 20  1  0  0  0  0
 20 21  2  0  0  0  0
 20 24  1  0  0  0  0
 21 22  1  0  0  0  0
 22 23  2  0  0  0  0
 23 24  1  0  0  0  0
 24 25  1  0  0  0  0
 26 27  2  0  0  0  0
 27 28  1  0  0  0  0
 28 29  1  0  0  0  0
  1 30  1  0  0  0  0
  1 31  1  0  0  0  0
  1 32  1  0  0  0  0
  4 33  1  0  0  0  0
  5 34  1  0  0  0  0
  5 35  1  0  0  0  0
 11 36  1  0  0  0  0
 13 37  1  0  0  0  0
 14 38  1  0  0  0  0
 18 39  1  0  0  0  0
 19 40  1  0  0  0  0
 21 41  1  0  0  0  0
 22 42  1  0  0  0  0
 24 43  1  0  0  0  0
 25 44  1  0  0  0  0
 26 45  1  0  0  0  0
 29 46  1  0  0  0  0
 29 47  1  0  0  0  0
 29 48  1  0  0  0  0
M  END
> <IC50[nM]>
2.7

$$$$
CHEMBL3265016
  -OEChem-05192314333D
 Structure written by MMmdl.
 48 52  0     1  0  0  0  0  0999 V2000
   -4.2568   -3.1050   13.5687 C   0  0  0  0  0  0  0  0  0  0  0  0
   -3.8730   -2.3616   14.7152 O   0  0  0  0  0  0  0  0  0  0  0  0
   -2.5250   -2.1116   14.8158 C   0  0  3  0  0  0  0  0  0  0  0  0
   -1.7470   -2.8700   15.6807 C   0  0  0  0  0  0  0  0  0  0  0  0
   -0.3902   -2.6106   15.8144 C   0  0  0  0  0  0  0  0  0  0  0  0
    0.2207   -1.5844   15.0868 C   0  0  0  0  0  0  0  0  0  0  0  0
    1.6046   -1.3596   15.3257 N   0  0  0  0  0  0  0  0  0  0  0  0
    2.5329   -0.4401   14.7638 C   0  0  0  0  0  0  0  0  0  0  0  0
    2.1751    0.3788   13.7311 N   0  0  0  0  0  0  0  0  0  0  0  0
    3.1086    1.2387   13.2176 C   0  0  0  0  0  0  0  0  0  0  0  0
    4.4159    1.2831   13.6998 C   0  0  0  0  0  0  0  0  0  0  0  0
    4.7435    0.4926   14.7566 N   0  0  0  0  0  0  0  0  0  0  0  0
    5.8975    0.3810   15.4862 C   0  0  0  0  0  0  0  0  0  0  0  0
    5.5917   -0.5286   16.5249 C   0  0  0  0  0  0  0  0  0  0  0  0
    4.3780   -1.0408   16.3703 N   0  0  0  0  0  0  0  0  0  0  0  0
    3.8370   -0.3906   15.3278 C   0  0  0  0  0  0  0  0  0  0  0  0
    2.6350    2.1602   12.1213 C   0  0  0  0  0  0  0  0  0  0  0  0
    3.5425    2.6402   11.1650 C   0  0  0  0  0  0  0  0  0  0  0  0
    3.1493    3.4616   10.1117 C   0  0  0  0  0  0  0  0  0  0  0  0
    1.8041    3.8212   10.0117 C   0  0  0  0  0  0  0  0  0  0  0  0
    1.0219    4.6165    9.0806 C   0  0  0  0  0  0  0  0  0  0  0  0
   -0.2682    4.5927    9.5377 C   0  0  0  0  0  0  0  0  0  0  0  0
   -0.3496    3.8668   10.6667 N   0  0  0  0  0  0  0  0  0  0  0  0
    0.8806    3.3533   11.0064 C   0  0  0  0  0  0  0  0  0  0  0  0
    1.2701    2.5323   12.0703 C   0  0  0  0  0  0  0  0  0  0  0  0
   -0.5547   -0.8186   14.1912 C   0  0  0  0  0  0  0  0  0  0  0  0
   -1.9427   -1.0874   14.0603 C   0  0  0  0  0  0  0  0  0  0  0  0
   -2.7500   -0.3519   13.2066 O   0  0  0  0  0  0  0  0  0  0  0  0
   -2.2281    0.6471   12.3512 C   0  0  0  0  0  0  0  0  0  0  0  0
   -5.3466   -3.2541   13.5756 H   0  0  0  0  0  0  0  0  0  0  0  0
   -3.9679   -2.5545   12.6613 H   0  0  0  0  0  0  0  0  0  0  0  0
   -3.7530   -4.0828   13.5803 H   0  0  0  0  0  0  0  0  0  0  0  0
   -2.3277   -2.8276   14.0043 H   0  0  0  0  0  0  0  0  0  0  0  0
   -2.2004   -3.6662   16.2525 H   0  0  0  0  0  0  0  0  0  0  0  0
    0.2023   -3.2098   16.4900 H   0  0  0  0  0  0  0  0  0  0  0  0
    5.1512    1.9301   13.2447 H   0  0  0  0  0  0  0  0  0  0  0  0
    6.8383    0.8802   15.3068 H   0  0  0  0  0  0  0  0  0  0  0  0
    6.2591   -0.7741   17.3377 H   0  0  0  0  0  0  0  0  0  0  0  0
    4.5829    2.3628   11.2488 H   0  0  0  0  0  0  0  0  0  0  0  0
    3.7289    4.3930   10.1929 H   0  0  0  0  0  0  0  0  0  0  0  0
    3.4167    2.9434    9.1790 H   0  0  0  0  0  0  0  0  0  0  0  0
    1.3866    5.1261    8.2010 H   0  0  0  0  0  0  0  0  0  0  0  0
   -1.1015    5.0864    9.0599 H   0  0  0  0  0  0  0  0  0  0  0  0
    0.5639    2.1987   12.8162 H   0  0  0  0  0  0  0  0  0  0  0  0
   -0.0957   -0.0332   13.6091 H   0  0  0  0  0  0  0  0  0  0  0  0
   -3.0463    1.0961   11.7689 H   0  0  0  0  0  0  0  0  0  0  0  0
   -1.7369    1.4255   12.9536 H   0  0  0  0  0  0  0  0  0  0  0  0
   -1.4949    0.1965   11.6660 H   0  0  0  0  0  0  0  0  0  0  0  0
  1  2  1  0  0  0  0
  2  3  1  0  0  0  0
  3  4  1  0  0  0  0
  3 27  1  0  0  0  0
  4  5  2  0  0  0  0
  5  6  1  0  0  0  0
  6  7  2  0  0  0  0
  6 26  1  0  0  0  0
  7  8  1  0  0  0  0
  8  9  2  0  0  0  0
  8 16  1  0  0  0  0
  9 10  1  0  0  0  0
 10 11  2  0  0  0  0
 10 17  1  0  0  0  0
 11 12  1  0  0  0  0
 12 13  1  0  0  0  0
 12 16  1  0  0  0  0
 13 14  2  0  0  0  0
 14 15  1  0  0  0  0
 15 16  2  0  0  0  0
 17 18  2  0  0  0  0
 17 25  1  0  0  0  0
 18 19  1  0  0  0  0
 19 20  1  0  0  0  0
 20 21  2  0  0  0  0
 20 24  1  0  0  0  0
 21 22  1  0  0  0  0
 22 23  2  0  0  0  0
 23 24  1  0  0  0  0
 24 25  2  0  0  0  0
 26 27  2  0  0  0  0
 27 28  1  0  0  0  0
 28 29  1  0  0  0  0
  1 30  1  0  0  0  0
  1 31  1  0  0  0  0
  1 32  1  0  0  0  0
  3 33  1  0  0  0  0
  4 34  1  0  0  0  0
  5 35  1  0  0  0  0
 11 36  1  0  0  0  0
 13 37  1  0  0  0  0
 14 38  1  0  0  0  0
 18 39  1  0  0  0  0
 19 40  1  0  0  0  0
 19 41  1  0  0  0  0
 21 42  1  0  0  0  0
 22 43  1  0  0  0  0
 25 44  1  0  0  0  0
 26 45  1  0  0  0  0
 29 46  1  0  0  0  0
 29 47  1  0  0  0  0
 29 48  1  0  0  0  0
M  END
> <IC50[nM]>
2.7

$$$$
CHEMBL3265016
  -OEChem-05192314333D
 Structure written by MMmdl.
 48 52  0     0  0  0  0  0  0999 V2000
   -4.2568   -3.1050   13.5687 C   0  0  0  0  0  0  0  0  0  0  0  0
   -3.8730   -2.3616   14.7152 O   0  0  0  0  0  0  0  0  0  0  0  0
   -2.5250   -2.1116   14.8158 C   0  0  0  0  0  0  0  0  0  0  0  0
   -1.7470   -2.8700   15.6807 C   0  0  0  0  0  0  0  0  0  0  0  0
   -0.3902   -2.6106   15.8144 C   0  0  0  0  0  0  0  0  0  0  0  0
    0.2207   -1.5844   15.0868 C   0  0  0  0  0  0  0  0  0  0  0  0
    1.6046   -1.3596   15.3257 N   0  0  0  0  0  0  0  0  0  0  0  0
    2.5329   -0.4401   14.7638 C   0  0  0  0  0  0  0  0  0  0  0  0
    2.1751    0.3788   13.7311 N   0  0  0  0  0  0  0  0  0  0  0  0
    3.1086    1.2387   13.2176 C   0  0  0  0  0  0  0  0  0  0  0  0
    4.4159    1.2831   13.6998 C   0  0  0  0  0  0  0  0  0  0  0  0
    4.7435    0.4926   14.7566 N   0  0  0  0  0  0  0  0  0  0  0  0
    5.8975    0.3810   15.4862 C   0  0  0  0  0  0  0  0  0  0  0  0
    5.5917   -0.5286   16.5249 C   0  0  0  0  0  0  0  0  0  0  0  0
    4.3780   -1.0408   16.3703 N   0  0  0  0  0  0  0  0  0  0  0  0
    3.8370   -0.3906   15.3278 C   0  0  0  0  0  0  0  0  0  0  0  0
    2.6350    2.1602   12.1213 C   0  0  0  0  0  0  0  0  0  0  0  0
    3.5425    2.6402   11.1650 C   0  0  0  0  0  0  0  0  0  0  0  0
    3.1493    3.4616   10.1117 C   0  0  0  0  0  0  0  0  0  0  0  0
    1.8041    3.8212   10.0117 C   0  0  0  0  0  0  0  0  0  0  0  0
    1.0219    4.6165    9.0806 C   0  0  0  0  0  0  0  0  0  0  0  0
   -0.2682    4.5927    9.5377 C   0  0  0  0  0  0  0  0  0  0  0  0
   -0.3496    3.8668   10.6667 N   0  0  0  0  0  0  0  0  0  0  0  0
    0.8806    3.3533   11.0064 C   0  0  0  0  0  0  0  0  0  0  0  0
    1.2701    2.5323   12.0703 C   0  0  0  0  0  0  0  0  0  0  0  0
   -0.5547   -0.8186   14.1912 C   0  0  0  0  0  0  0  0  0  0  0  0
   -1.9427   -1.0874   14.0603 C   0  0  0  0  0  0  0  0  0  0  0  0
   -2.7500   -0.3519   13.2066 O   0  0  0  0  0  0  0  0  0  0  0  0
   -2.2281    0.6471   12.3512 C   0  0  0  0  0  0  0  0  0  0  0  0
   -5.3466   -3.2541   13.5756 H   0  0  0  0  0  0  0  0  0  0  0  0
   -3.9679   -2.5545   12.6613 H   0  0  0  0  0  0  0  0  0  0  0  0
   -3.7530   -4.0828   13.5803 H   0  0  0  0  0  0  0  0  0  0  0  0
   -2.2004   -3.6662   16.2525 H   0  0  0  0  0  0  0  0  0  0  0  0
   -0.2176   -2.3862   16.8774 H   0  0  0  0  0  0  0  0  0  0  0  0
    0.1341   -3.5396   15.5459 H   0  0  0  0  0  0  0  0  0  0  0  0
    5.1512    1.9301   13.2447 H   0  0  0  0  0  0  0  0  0  0  0  0
    6.8383    0.8802   15.3068 H   0  0  0  0  0  0  0  0  0  0  0  0
    6.2591   -0.7741   17.3377 H   0  0  0  0  0  0  0  0  0  0  0  0
    4.5829    2.3628   11.2488 H   0  0  0  0  0  0  0  0  0  0  0  0
    3.7289    4.3930   10.1929 H   0  0  0  0  0  0  0  0  0  0  0  0
    3.4167    2.9434    9.1790 H   0  0  0  0  0  0  0  0  0  0  0  0
    1.3866    5.1261    8.2010 H   0  0  0  0  0  0  0  0  0  0  0  0
   -1.1015    5.0864    9.0599 H   0  0  0  0  0  0  0  0  0  0  0  0
    0.5639    2.1987   12.8162 H   0  0  0  0  0  0  0  0  0  0  0  0
   -0.0957   -0.0332   13.6091 H   0  0  0  0  0  0  0  0  0  0  0  0
   -3.0463    1.0961   11.7689 H   0  0  0  0  0  0  0  0  0  0  0  0
   -1.7369    1.4255   12.9536 H   0  0  0  0  0  0  0  0  0  0  0  0
   -1.4949    0.1965   11.6660 H   0  0  0  0  0  0  0  0  0  0  0  0
  1  2  1  0  0  0  0
  2  3  1  0  0  0  0
  3  4  2  0  0  0  0
  3 27  1  0  0  0  0
  4  5  1  0  0  0  0
  5  6  1  0  0  0  0
  6  7  2  0  0  0  0
  6 26  1  0  0  0  0
  7  8  1  0  0  0  0
  8  9  2  0  0  0  0
  8 16  1  0  0  0  0
  9 10  1  0  0  0  0
 10 11  2  0  0  0  0
 10 17  1  0  0  0  0
 11 12  1  0  0  0  0
 12 13  1  0  0  0  0
 12 16  1  0  0  0  0
 13 14  2  0  0  0  0
 14 15  1  0  0  0  0
 15 16  2  0  0  0  0
 17 18  2  0  0  0  0
 17 25  1  0  0  0  0
 18 19  1  0  0  0  0
 19 20  1  0  0  0  0
 20 21  2  0  0  0  0
 20 24  1  0  0  0  0
 21 22  1  0  0  0  0
 22 23  2  0  0  0  0
 23 24  1  0  0  0  0
 24 25  2  0  0  0  0
 26 27  2  0  0  0  0
 27 28  1  0  0  0  0
 28 29  1  0  0  0  0
  1 30  1  0  0  0  0
  1 31  1  0  0  0  0
  1 32  1  0  0  0  0
  4 33  1  0  0  0  0
  5 34  1  0  0  0  0
  5 35  1  0  0  0  0
 11 36  1  0  0  0  0
 13 37  1  0  0  0  0
 14 38  1  0  0  0  0
 18 39  1  0  0  0  0
 19 40  1  0  0  0  0
 19 41  1  0  0  0  0
 21 42  1  0  0  0  0
 22 43  1  0  0  0  0
 25 44  1  0  0  0  0
 26 45  1  0  0  0  0
 29 46  1  0  0  0  0
 29 47  1  0  0  0  0
 29 48  1  0  0  0  0
M  END
> <IC50[nM]>
2.7

$$$$
CHEMBL3265016
  -OEChem-05192314333D
 Structure written by MMmdl.
 48 52  0     1  0  0  0  0  0999 V2000
   -4.2568   -3.1050   13.5687 C   0  0  0  0  0  0  0  0  0  0  0  0
   -3.8730   -2.3616   14.7152 O   0  0  0  0  0  0  0  0  0  0  0  0
   -2.5250   -2.1116   14.8158 C   0  0  3  0  0  0  0  0  0  0  0  0
   -1.7470   -2.8700   15.6807 C   0  0  0  0  0  0  0  0  0  0  0  0
   -0.3902   -2.6106   15.8144 C   0  0  0  0  0  0  0  0  0  0  0  0
    0.2207   -1.5844   15.0868 C   0  0  0  0  0  0  0  0  0  0  0  0
    1.6046   -1.3596   15.3257 N   0  0  0  0  0  0  0  0  0  0  0  0
    2.5329   -0.4401   14.7638 C   0  0  0  0  0  0  0  0  0  0  0  0
    2.1751    0.3788   13.7311 N   0  0  0  0  0  0  0  0  0  0  0  0
    3.1086    1.2387   13.2176 C   0  0  0  0  0  0  0  0  0  0  0  0
    4.4159    1.2831   13.6998 C   0  0  0  0  0  0  0  0  0  0  0  0
    4.7435    0.4926   14.7566 N   0  0  0  0  0  0  0  0  0  0  0  0
    5.8975    0.3810   15.4862 C   0  0  0  0  0  0  0  0  0  0  0  0
    5.5917   -0.5286   16.5249 C   0  0  0  0  0  0  0  0  0  0  0  0
    4.3780   -1.0408   16.3703 N   0  0  0  0  0  0  0  0  0  0  0  0
    3.8370   -0.3906   15.3278 C   0  0  0  0  0  0  0  0  0  0  0  0
    2.6350    2.1602   12.1213 C   0  0  0  0  0  0  0  0  0  0  0  0
    3.5425    2.6402   11.1650 C   0  0  0  0  0  0  0  0  0  0  0  0
    3.1493    3.4616   10.1117 C   0  0  0  0  0  0  0  0  0  0  0  0
    1.8041    3.8212   10.0117 C   0  0  0  0  0  0  0  0  0  0  0  0
    1.0219    4.6165    9.0806 C   0  0  0  0  0  0  0  0  0  0  0  0
   -0.2682    4.5927    9.5377 C   0  0  0  0  0  0  0  0  0  0  0  0
   -0.3496    3.8668   10.6667 N   0  0  0  0  0  0  0  0  0  0  0  0
    0.8806    3.3533   11.0064 C   0  0  0  0  0  0  0  0  0  0  0  0
    1.2701    2.5323   12.0703 C   0  0  0  0  0  0  0  0  0  0  0  0
   -0.5547   -0.8186   14.1912 C   0  0  0  0  0  0  0  0  0  0  0  0
   -1.9427   -1.0874   14.0603 C   0  0  0  0  0  0  0  0  0  0  0  0
   -2.7500   -0.3519   13.2066 O   0  0  0  0  0  0  0  0  0  0  0  0
   -2.2281    0.6471   12.3512 C   0  0  0  0  0  0  0  0  0  0  0  0
   -5.3466   -3.2541   13.5756 H   0  0  0  0  0  0  0  0  0  0  0  0
   -3.9679   -2.5545   12.6613 H   0  0  0  0  0  0  0  0  0  0  0  0
   -3.7530   -4.0828   13.5803 H   0  0  0  0  0  0  0  0  0  0  0  0
   -2.3277   -2.8276   14.0043 H   0  0  0  0  0  0  0  0  0  0  0  0
   -2.2004   -3.6662   16.2525 H   0  0  0  0  0  0  0  0  0  0  0  0
    0.2023   -3.2098   16.4900 H   0  0  0  0  0  0  0  0  0  0  0  0
    5.1512    1.9301   13.2447 H   0  0  0  0  0  0  0  0  0  0  0  0
    6.8383    0.8802   15.3068 H   0  0  0  0  0  0  0  0  0  0  0  0
    6.2591   -0.7741   17.3377 H   0  0  0  0  0  0  0  0  0  0  0  0
    4.3066    3.2017   11.7226 H   0  0  0  0  0  0  0  0  0  0  0  0
    4.0020    1.7524   10.7060 H   0  0  0  0  0  0  0  0  0  0  0  0
    3.8695    3.8130    9.3877 H   0  0  0  0  0  0  0  0  0  0  0  0
    1.3866    5.1261    8.2010 H   0  0  0  0  0  0  0  0  0  0  0  0
   -1.1015    5.0864    9.0599 H   0  0  0  0  0  0  0  0  0  0  0  0
    0.5639    2.1987   12.8162 H   0  0  0  0  0  0  0  0  0  0  0  0
   -0.0957   -0.0332   13.6091 H   0  0  0  0  0  0  0  0  0  0  0  0
   -3.0463    1.0961   11.7689 H   0  0  0  0  0  0  0  0  0  0  0  0
   -1.7369    1.4255   12.9536 H   0  0  0  0  0  0  0  0  0  0  0  0
   -1.4949    0.1965   11.6660 H   0  0  0  0  0  0  0  0  0  0  0  0
  1  2  1  0  0  0  0
  2  3  1  0  0  0  0
  3  4  1  0  0  0  0
  3 27  1  0  0  0  0
  4  5  2  0  0  0  0
  5  6  1  0  0  0  0
  6  7  2  0  0  0  0
  6 26  1  0  0  0  0
  7  8  1  0  0  0  0
  8  9  2  0  0  0  0
  8 16  1  0  0  0  0
  9 10  1  0  0  0  0
 10 11  2  0  0  0  0
 10 17  1  0  0  0  0
 11 12  1  0  0  0  0
 12 13  1  0  0  0  0
 12 16  1  0  0  0  0
 13 14  2  0  0  0  0
 14 15  1  0  0  0  0
 15 16  2  0  0  0  0
 17 18  1  0  0  0  0
 17 25  2  0  0  0  0
 18 19  1  0  0  0  0
 19 20  2  0  0  0  0
 20 21  1  0  0  0  0
 20 24  1  0  0  0  0
 21 22  2  0  0  0  0
 22 23  1  0  0  0  0
 23 24  2  0  0  0  0
 24 25  1  0  0  0  0
 26 27  2  0  0  0  0
 27 28  1  0  0  0  0
 28 29  1  0  0  0  0
  1 30  1  0  0  0  0
  1 31  1  0  0  0  0
  1 32  1  0  0  0  0
  3 33  1  0  0  0  0
  4 34  1  0  0  0  0
  5 35  1  0  0  0  0
 11 36  1  0  0  0  0
 13 37  1  0  0  0  0
 14 38  1  0  0  0  0
 18 39  1  0  0  0  0
 18 40  1  0  0  0  0
 19 41  1  0  0  0  0
 21 42  1  0  0  0  0
 22 43  1  0  0  0  0
 25 44  1  0  0  0  0
 26 45  1  0  0  0  0
 29 46  1  0  0  0  0
 29 47  1  0  0  0  0
 29 48  1  0  0  0  0
M  END
> <IC50[nM]>
2.7

$$$$
CHEMBL3265016
  -OEChem-05192314333D
 Structure written by MMmdl.
 48 52  0     0  0  0  0  0  0999 V2000
   -4.2568   -3.1050   13.5687 C   0  0  0  0  0  0  0  0  0  0  0  0
   -3.8730   -2.3616   14.7152 O   0  0  0  0  0  0  0  0  0  0  0  0
   -2.5250   -2.1116   14.8158 C   0  0  0  0  0  0  0  0  0  0  0  0
   -1.7470   -2.8700   15.6807 C   0  0  0  0  0  0  0  0  0  0  0  0
   -0.3902   -2.6106   15.8144 C   0  0  0  0  0  0  0  0  0  0  0  0
    0.2207   -1.5844   15.0868 C   0  0  0  0  0  0  0  0  0  0  0  0
    1.6046   -1.3596   15.3257 N   0  0  0  0  0  0  0  0  0  0  0  0
    2.5329   -0.4401   14.7638 C   0  0  0  0  0  0  0  0  0  0  0  0
    2.1751    0.3788   13.7311 N   0  0  0  0  0  0  0  0  0  0  0  0
    3.1086    1.2387   13.2176 C   0  0  0  0  0  0  0  0  0  0  0  0
    4.4159    1.2831   13.6998 C   0  0  0  0  0  0  0  0  0  0  0  0
    4.7435    0.4926   14.7566 N   0  0  0  0  0  0  0  0  0  0  0  0
    5.8975    0.3810   15.4862 C   0  0  0  0  0  0  0  0  0  0  0  0
    5.5917   -0.5286   16.5249 C   0  0  0  0  0  0  0  0  0  0  0  0
    4.3780   -1.0408   16.3703 N   0  0  0  0  0  0  0  0  0  0  0  0
    3.8370   -0.3906   15.3278 C   0  0  0  0  0  0  0  0  0  0  0  0
    2.6350    2.1602   12.1213 C   0  0  0  0  0  0  0  0  0  0  0  0
    3.5425    2.6402   11.1650 C   0  0  0  0  0  0  0  0  0  0  0  0
    3.1493    3.4616   10.1117 C   0  0  0  0  0  0  0  0  0  0  0  0
    1.8041    3.8212   10.0117 C   0  0  0  0  0  0  0  0  0  0  0  0
    1.0219    4.6165    9.0806 C   0  0  0  0  0  0  0  0  0  0  0  0
   -0.2682    4.5927    9.5377 C   0  0  0  0  0  0  0  0  0  0  0  0
   -0.3496    3.8668   10.6667 N   0  0  0  0  0  0  0  0  0  0  0  0
    0.8806    3.3533   11.0064 C   0  0  0  0  0  0  0  0  0  0  0  0
    1.2701    2.5323   12.0703 C   0  0  0  0  0  0  0  0  0  0  0  0
   -0.5547   -0.8186   14.1912 C   0  0  0  0  0  0  0  0  0  0  0  0
   -1.9427   -1.0874   14.0603 C   0  0  0  0  0  0  0  0  0  0  0  0
   -2.7500   -0.3519   13.2066 O   0  0  0  0  0  0  0  0  0  0  0  0
   -2.2281    0.6471   12.3512 C   0  0  0  0  0  0  0  0  0  0  0  0
   -5.3466   -3.2541   13.5756 H   0  0  0  0  0  0  0  0  0  0  0  0
   -3.9679   -2.5545   12.6613 H   0  0  0  0  0  0  0  0  0  0  0  0
   -3.7530   -4.0828   13.5803 H   0  0  0  0  0  0  0  0  0  0  0  0
   -2.2004   -3.6662   16.2525 H   0  0  0  0  0  0  0  0  0  0  0  0
   -0.2176   -2.3862   16.8774 H   0  0  0  0  0  0  0  0  0  0  0  0
    0.1341   -3.5396   15.5459 H   0  0  0  0  0  0  0  0  0  0  0  0
    5.1512    1.9301   13.2447 H   0  0  0  0  0  0  0  0  0  0  0  0
    6.8383    0.8802   15.3068 H   0  0  0  0  0  0  0  0  0  0  0  0
    6.2591   -0.7741   17.3377 H   0  0  0  0  0  0  0  0  0  0  0  0
    4.3066    3.2017   11.7226 H   0  0  0  0  0  0  0  0  0  0  0  0
    4.0020    1.7524   10.7060 H   0  0  0  0  0  0  0  0  0  0  0  0
    3.8695    3.8130    9.3877 H   0  0  0  0  0  0  0  0  0  0  0  0
    1.3866    5.1261    8.2010 H   0  0  0  0  0  0  0  0  0  0  0  0
   -1.1015    5.0864    9.0599 H   0  0  0  0  0  0  0  0  0  0  0  0
    0.5639    2.1987   12.8162 H   0  0  0  0  0  0  0  0  0  0  0  0
   -0.0957   -0.0332   13.6091 H   0  0  0  0  0  0  0  0  0  0  0  0
   -3.0463    1.0961   11.7689 H   0  0  0  0  0  0  0  0  0  0  0  0
   -1.7369    1.4255   12.9536 H   0  0  0  0  0  0  0  0  0  0  0  0
   -1.4949    0.1965   11.6660 H   0  0  0  0  0  0  0  0  0  0  0  0
  1  2  1  0  0  0  0
  2  3  1  0  0  0  0
  3  4  2  0  0  0  0
  3 27  1  0  0  0  0
  4  5  1  0  0  0  0
  5  6  1  0  0  0  0
  6  7  2  0  0  0  0
  6 26  1  0  0  0  0
  7  8  1  0  0  0  0
  8  9  2  0  0  0  0
  8 16  1  0  0  0  0
  9 10  1  0  0  0  0
 10 11  2  0  0  0  0
 10 17  1  0  0  0  0
 11 12  1  0  0  0  0
 12 13  1  0  0  0  0
 12 16  1  0  0  0  0
 13 14  2  0  0  0  0
 14 15  1  0  0  0  0
 15 16  2  0  0  0  0
 17 18  1  0  0  0  0
 17 25  2  0  0  0  0
 18 19  1  0  0  0  0
 19 20  2  0  0  0  0
 20 21  1  0  0  0  0
 20 24  1  0  0  0  0
 21 22  2  0  0  0  0
 22 23  1  0  0  0  0
 23 24  2  0  0  0  0
 24 25  1  0  0  0  0
 26 27  2  0  0  0  0
 27 28  1  0  0  0  0
 28 29  1  0  0  0  0
  1 30  1  0  0  0  0
  1 31  1  0  0  0  0
  1 32  1  0  0  0  0
  4 33  1  0  0  0  0
  5 34  1  0  0  0  0
  5 35  1  0  0  0  0
 11 36  1  0  0  0  0
 13 37  1  0  0  0  0
 14 38  1  0  0  0  0
 18 39  1  0  0  0  0
 18 40  1  0  0  0  0
 19 41  1  0  0  0  0
 21 42  1  0  0  0  0
 22 43  1  0  0  0  0
 25 44  1  0  0  0  0
 26 45  1  0  0  0  0
 29 46  1  0  0  0  0
 29 47  1  0  0  0  0
 29 48  1  0  0  0  0
M  END
> <IC50[nM]>
2.7

$$$$
CHEMBL3265016
  -OEChem-05192314333D
 Structure written by MMmdl.
 48 52  0     1  0  0  0  0  0999 V2000
   -4.2568   -3.1050   13.5687 C   0  0  0  0  0  0  0  0  0  0  0  0
   -3.8730   -2.3616   14.7152 O   0  0  0  0  0  0  0  0  0  0  0  0
   -2.5250   -2.1116   14.8158 C   0  0  0  0  0  0  0  0  0  0  0  0
   -1.7470   -2.8700   15.6807 C   0  0  0  0  0  0  0  0  0  0  0  0
   -0.3902   -2.6106   15.8144 C   0  0  0  0  0  0  0  0  0  0  0  0
    0.2207   -1.5844   15.0868 C   0  0  0  0  0  0  0  0  0  0  0  0
    1.6046   -1.3596   15.3257 N   0  0  0  0  0  0  0  0  0  0  0  0
    2.5329   -0.4401   14.7638 C   0  0  0  0  0  0  0  0  0  0  0  0
    2.1751    0.3788   13.7311 N   0  0  0  0  0  0  0  0  0  0  0  0
    3.1086    1.2387   13.2176 C   0  0  0  0  0  0  0  0  0  0  0  0
    4.4159    1.2831   13.6998 C   0  0  0  0  0  0  0  0  0  0  0  0
    4.7435    0.4926   14.7566 N   0  0  0  0  0  0  0  0  0  0  0  0
    5.8975    0.3810   15.4862 C   0  0  0  0  0  0  0  0  0  0  0  0
    5.5917   -0.5286   16.5249 C   0  0  0  0  0  0  0  0  0  0  0  0
    4.3780   -1.0408   16.3703 N   0  0  0  0  0  0  0  0  0  0  0  0
    3.8370   -0.3906   15.3278 C   0  0  0  0  0  0  0  0  0  0  0  0
    2.6350    2.1602   12.1213 C   0  0  3  0  0  0  0  0  0  0  0  0
    3.5425    2.6402   11.1650 C   0  0  0  0  0  0  0  0  0  0  0  0
    3.1493    3.4616   10.1117 C   0  0  0  0  0  0  0  0  0  0  0  0
    1.8041    3.8212   10.0117 C   0  0  0  0  0  0  0  0  0  0  0  0
    1.0219    4.6165    9.0806 C   0  0  0  0  0  0  0  0  0  0  0  0
   -0.2682    4.5927    9.5377 C   0  0  0  0  0  0  0  0  0  0  0  0
   -0.3496    3.8668   10.6667 N   0  0  0  0  0  0  0  0  0  0  0  0
    0.8806    3.3533   11.0064 C   0  0  0  0  0  0  0  0  0  0  0  0
    1.2701    2.5323   12.0703 C   0  0  0  0  0  0  0  0  0  0  0  0
   -0.5547   -0.8186   14.1912 C   0  0  0  0  0  0  0  0  0  0  0  0
   -1.9427   -1.0874   14.0603 C   0  0  0  0  0  0  0  0  0  0  0  0
   -2.7500   -0.3519   13.2066 O   0  0  0  0  0  0  0  0  0  0  0  0
   -2.2281    0.6471   12.3512 C   0  0  0  0  0  0  0  0  0  0  0  0
   -5.3466   -3.2541   13.5756 H   0  0  0  0  0  0  0  0  0  0  0  0
   -3.9679   -2.5545   12.6613 H   0  0  0  0  0  0  0  0  0  0  0  0
   -3.7530   -4.0828   13.5803 H   0  0  0  0  0  0  0  0  0  0  0  0
   -2.2004   -3.6662   16.2525 H   0  0  0  0  0  0  0  0  0  0  0  0
    0.2023   -3.2098   16.4900 H   0  0  0  0  0  0  0  0  0  0  0  0
    5.1512    1.9301   13.2447 H   0  0  0  0  0  0  0  0  0  0  0  0
    6.8383    0.8802   15.3068 H   0  0  0  0  0  0  0  0  0  0  0  0
    6.2591   -0.7741   17.3377 H   0  0  0  0  0  0  0  0  0  0  0  0
    2.8482    3.0299   12.7602 H   0  0  0  0  0  0  0  0  0  0  0  0
    4.5829    2.3628   11.2488 H   0  0  0  0  0  0  0  0  0  0  0  0
    3.8695    3.8130    9.3877 H   0  0  0  0  0  0  0  0  0  0  0  0
    1.3866    5.1261    8.2010 H   0  0  0  0  0  0  0  0  0  0  0  0
   -1.1015    5.0864    9.0599 H   0  0  0  0  0  0  0  0  0  0  0  0
    0.5639    2.1987   12.8162 H   0  0  0  0  0  0  0  0  0  0  0  0
   -0.4606    0.2317   14.5042 H   0  0  0  0  0  0  0  0  0  0  0  0
   -0.1090   -0.9452   13.1935 H   0  0  0  0  0  0  0  0  0  0  0  0
   -3.0463    1.0961   11.7689 H   0  0  0  0  0  0  0  0  0  0  0  0
   -1.7369    1.4255   12.9536 H   0  0  0  0  0  0  0  0  0  0  0  0
   -1.4949    0.1965   11.6660 H   0  0  0  0  0  0  0  0  0  0  0  0
  1  2  1  0  0  0  0
  2  3  1  0  0  0  0
  3  4  1  0  0  0  0
  3 27  2  0  0  0  0
  4  5  2  0  0  0  0
  5  6  1  0  0  0  0
  6  7  2  0  0  0  0
  6 26  1  0  0  0  0
  7  8  1  0  0  0  0
  8  9  2  0  0  0  0
  8 16  1  0  0  0  0
  9 10  1  0  0  0  0
 10 11  2  0  0  0  0
 10 17  1  0  0  0  0
 11 12  1  0  0  0  0
 12 13  1  0  0  0  0
 12 16  1  0  0  0  0
 13 14  2  0  0  0  0
 14 15  1  0  0  0  0
 15 16  2  0  0  0  0
 17 18  1  0  0  0  0
 17 25  1  0  0  0  0
 18 19  2  0  0  0  0
 19 20  1  0  0  0  0
 20 21  2  0  0  0  0
 20 24  1  0  0  0  0
 21 22  1  0  0  0  0
 22 23  2  0  0  0  0
 23 24  1  0  0  0  0
 24 25  2  0  0  0  0
 26 27  1  0  0  0  0
 27 28  1  0  0  0  0
 28 29  1  0  0  0  0
  1 30  1  0  0  0  0
  1 31  1  0  0  0  0
  1 32  1  0  0  0  0
  4 33  1  0  0  0  0
  5 34  1  0  0  0  0
 11 35  1  0  0  0  0
 13 36  1  0  0  0  0
 14 37  1  0  0  0  0
 17 38  1  0  0  0  0
 18 39  1  0  0  0  0
 19 40  1  0  0  0  0
 21 41  1  0  0  0  0
 22 42  1  0  0  0  0
 25 43  1  0  0  0  0
 26 44  1  0  0  0  0
 26 45  1  0  0  0  0
 29 46  1  0  0  0  0
 29 47  1  0  0  0  0
 29 48  1  0  0  0  0
M  END
> <IC50[nM]>
2.7

$$$$
CHEMBL3265016
  -OEChem-05192314333D
 Structure written by MMmdl.
 48 52  0     1  0  0  0  0  0999 V2000
   -4.2568   -3.1050   13.5687 C   0  0  0  0  0  0  0  0  0  0  0  0
   -3.8730   -2.3616   14.7152 O   0  0  0  0  0  0  0  0  0  0  0  0
   -2.5250   -2.1116   14.8158 C   0  0  0  0  0  0  0  0  0  0  0  0
   -1.7470   -2.8700   15.6807 C   0  0  0  0  0  0  0  0  0  0  0  0
   -0.3902   -2.6106   15.8144 C   0  0  0  0  0  0  0  0  0  0  0  0
    0.2207   -1.5844   15.0868 C   0  0  0  0  0  0  0  0  0  0  0  0
    1.6046   -1.3596   15.3257 N   0  0  0  0  0  0  0  0  0  0  0  0
    2.5329   -0.4401   14.7638 C   0  0  0  0  0  0  0  0  0  0  0  0
    2.1751    0.3788   13.7311 N   0  0  0  0  0  0  0  0  0  0  0  0
    3.1086    1.2387   13.2176 C   0  0  0  0  0  0  0  0  0  0  0  0
    4.4159    1.2831   13.6998 C   0  0  0  0  0  0  0  0  0  0  0  0
    4.7435    0.4926   14.7566 N   0  0  0  0  0  0  0  0  0  0  0  0
    5.8975    0.3810   15.4862 C   0  0  0  0  0  0  0  0  0  0  0  0
    5.5917   -0.5286   16.5249 C   0  0  0  0  0  0  0  0  0  0  0  0
    4.3780   -1.0408   16.3703 N   0  0  0  0  0  0  0  0  0  0  0  0
    3.8370   -0.3906   15.3278 C   0  0  0  0  0  0  0  0  0  0  0  0
    2.6350    2.1602   12.1213 C   0  0  0  0  0  0  0  0  0  0  0  0
    3.5425    2.6402   11.1650 C   0  0  0  0  0  0  0  0  0  0  0  0
    3.1493    3.4616   10.1117 C   0  0  0  0  0  0  0  0  0  0  0  0
    1.8041    3.8212   10.0117 C   0  0  3  0  0  0  0  0  0  0  0  0
    1.0219    4.6165    9.0806 C   0  0  0  0  0  0  0  0  0  0  0  0
   -0.2682    4.5927    9.5377 C   0  0  0  0  0  0  0  0  0  0  0  0
   -0.3496    3.8668   10.6667 N   0  0  0  0  0  0  0  0  0  0  0  0
    0.8806    3.3533   11.0064 C   0  0  0  0  0  0  0  0  0  0  0  0
    1.2701    2.5323   12.0703 C   0  0  0  0  0  0  0  0  0  0  0  0
   -0.5547   -0.8186   14.1912 C   0  0  0  0  0  0  0  0  0  0  0  0
   -1.9427   -1.0874   14.0603 C   0  0  0  0  0  0  0  0  0  0  0  0
   -2.7500   -0.3519   13.2066 O   0  0  0  0  0  0  0  0  0  0  0  0
   -2.2281    0.6471   12.3512 C   0  0  0  0  0  0  0  0  0  0  0  0
   -5.3466   -3.2541   13.5756 H   0  0  0  0  0  0  0  0  0  0  0  0
   -3.9679   -2.5545   12.6613 H   0  0  0  0  0  0  0  0  0  0  0  0
   -3.7530   -4.0828   13.5803 H   0  0  0  0  0  0  0  0  0  0  0  0
   -2.2004   -3.6662   16.2525 H   0  0  0  0  0  0  0  0  0  0  0  0
    0.2023   -3.2098   16.4900 H   0  0  0  0  0  0  0  0  0  0  0  0
    5.1512    1.9301   13.2447 H   0  0  0  0  0  0  0  0  0  0  0  0
    6.8383    0.8802   15.3068 H   0  0  0  0  0  0  0  0  0  0  0  0
    6.2591   -0.7741   17.3377 H   0  0  0  0  0  0  0  0  0  0  0  0
    4.5829    2.3628   11.2488 H   0  0  0  0  0  0  0  0  0  0  0  0
    3.8695    3.8130    9.3877 H   0  0  0  0  0  0  0  0  0  0  0  0
    1.9993    4.7198   10.6154 H   0  0  0  0  0  0  0  0  0  0  0  0
    1.3866    5.1261    8.2010 H   0  0  0  0  0  0  0  0  0  0  0  0
   -1.1015    5.0864    9.0599 H   0  0  0  0  0  0  0  0  0  0  0  0
    0.5639    2.1987   12.8162 H   0  0  0  0  0  0  0  0  0  0  0  0
   -0.4606    0.2317   14.5042 H   0  0  0  0  0  0  0  0  0  0  0  0
   -0.1090   -0.9452   13.1935 H   0  0  0  0  0  0  0  0  0  0  0  0
   -3.0463    1.0961   11.7689 H   0  0  0  0  0  0  0  0  0  0  0  0
   -1.7369    1.4255   12.9536 H   0  0  0  0  0  0  0  0  0  0  0  0
   -1.4949    0.1965   11.6660 H   0  0  0  0  0  0  0  0  0  0  0  0
  1  2  1  0  0  0  0
  2  3  1  0  0  0  0
  3  4  1  0  0  0  0
  3 27  2  0  0  0  0
  4  5  2  0  0  0  0
  5  6  1  0  0  0  0
  6  7  2  0  0  0  0
  6 26  1  0  0  0  0
  7  8  1  0  0  0  0
  8  9  2  0  0  0  0
  8 16  1  0  0  0  0
  9 10  1  0  0  0  0
 10 11  2  0  0  0  0
 10 17  1  0  0  0  0
 11 12  1  0  0  0  0
 12 13  1  0  0  0  0
 12 16  1  0  0  0  0
 13 14  2  0  0  0  0
 14 15  1  0  0  0  0
 15 16  2  0  0  0  0
 17 18  1  0  0  0  0
 17 25  2  0  0  0  0
 18 19  2  0  0  0  0
 19 20  1  0  0  0  0
 20 21  1  0  0  0  0
 20 24  1  0  0  0  0
 21 22  2  0  0  0  0
 22 23  1  0  0  0  0
 23 24  2  0  0  0  0
 24 25  1  0  0  0  0
 26 27  1  0  0  0  0
 27 28  1  0  0  0  0
 28 29  1  0  0  0  0
  1 30  1  0  0  0  0
  1 31  1  0  0  0  0
  1 32  1  0  0  0  0
  4 33  1  0  0  0  0
  5 34  1  0  0  0  0
 11 35  1  0  0  0  0
 13 36  1  0  0  0  0
 14 37  1  0  0  0  0
 18 38  1  0  0  0  0
 19 39  1  0  0  0  0
 20 40  1  0  0  0  0
 21 41  1  0  0  0  0
 22 42  1  0  0  0  0
 25 43  1  0  0  0  0
 26 44  1  0  0  0  0
 26 45  1  0  0  0  0
 29 46  1  0  0  0  0
 29 47  1  0  0  0  0
 29 48  1  0  0  0  0
M  END
> <IC50[nM]>
2.7

$$$$
CHEMBL3265016
  -OEChem-05192314333D
 Structure written by MMmdl.
 48 52  0     1  0  0  0  0  0999 V2000
   -4.2568   -3.1050   13.5687 C   0  0  0  0  0  0  0  0  0  0  0  0
   -3.8730   -2.3616   14.7152 O   0  0  0  0  0  0  0  0  0  0  0  0
   -2.5250   -2.1116   14.8158 C   0  0  0  0  0  0  0  0  0  0  0  0
   -1.7470   -2.8700   15.6807 C   0  0  0  0  0  0  0  0  0  0  0  0
   -0.3902   -2.6106   15.8144 C   0  0  0  0  0  0  0  0  0  0  0  0
    0.2207   -1.5844   15.0868 C   0  0  0  0  0  0  0  0  0  0  0  0
    1.6046   -1.3596   15.3257 N   0  0  0  0  0  0  0  0  0  0  0  0
    2.5329   -0.4401   14.7638 C   0  0  0  0  0  0  0  0  0  0  0  0
    2.1751    0.3788   13.7311 N   0  0  0  0  0  0  0  0  0  0  0  0
    3.1086    1.2387   13.2176 C   0  0  0  0  0  0  0  0  0  0  0  0
    4.4159    1.2831   13.6998 C   0  0  0  0  0  0  0  0  0  0  0  0
    4.7435    0.4926   14.7566 N   0  0  0  0  0  0  0  0  0  0  0  0
    5.8975    0.3810   15.4862 C   0  0  0  0  0  0  0  0  0  0  0  0
    5.5917   -0.5286   16.5249 C   0  0  0  0  0  0  0  0  0  0  0  0
    4.3780   -1.0408   16.3703 N   0  0  0  0  0  0  0  0  0  0  0  0
    3.8370   -0.3906   15.3278 C   0  0  0  0  0  0  0  0  0  0  0  0
    2.6350    2.1602   12.1213 C   0  0  0  0  0  0  0  0  0  0  0  0
    3.5425    2.6402   11.1650 C   0  0  0  0  0  0  0  0  0  0  0  0
    3.1493    3.4616   10.1117 C   0  0  0  0  0  0  0  0  0  0  0  0
    1.8041    3.8212   10.0117 C   0  0  0  0  0  0  0  0  0  0  0  0
    1.0219    4.6165    9.0806 C   0  0  0  0  0  0  0  0  0  0  0  0
   -0.2682    4.5927    9.5377 C   0  0  0  0  0  0  0  0  0  0  0  0
   -0.3496    3.8668   10.6667 N   0  0  0  0  0  0  0  0  0  0  0  0
    0.8806    3.3533   11.0064 C   0  0  3  0  0  0  0  0  0  0  0  0
    1.2701    2.5323   12.0703 C   0  0  0  0  0  0  0  0  0  0  0  0
   -0.5547   -0.8186   14.1912 C   0  0  0  0  0  0  0  0  0  0  0  0
   -1.9427   -1.0874   14.0603 C   0  0  0  0  0  0  0  0  0  0  0  0
   -2.7500   -0.3519   13.2066 O   0  0  0  0  0  0  0  0  0  0  0  0
   -2.2281    0.6471   12.3512 C   0  0  0  0  0  0  0  0  0  0  0  0
   -5.3466   -3.2541   13.5756 H   0  0  0  0  0  0  0  0  0  0  0  0
   -3.9679   -2.5545   12.6613 H   0  0  0  0  0  0  0  0  0  0  0  0
   -3.7530   -4.0828   13.5803 H   0  0  0  0  0  0  0  0  0  0  0  0
   -2.2004   -3.6662   16.2525 H   0  0  0  0  0  0  0  0  0  0  0  0
    0.2023   -3.2098   16.4900 H   0  0  0  0  0  0  0  0  0  0  0  0
    5.1512    1.9301   13.2447 H   0  0  0  0  0  0  0  0  0  0  0  0
    6.8383    0.8802   15.3068 H   0  0  0  0  0  0  0  0  0  0  0  0
    6.2591   -0.7741   17.3377 H   0  0  0  0  0  0  0  0  0  0  0  0
    4.5829    2.3628   11.2488 H   0  0  0  0  0  0  0  0  0  0  0  0
    3.8695    3.8130    9.3877 H   0  0  0  0  0  0  0  0  0  0  0  0
    1.3866    5.1261    8.2010 H   0  0  0  0  0  0  0  0  0  0  0  0
   -1.1015    5.0864    9.0599 H   0  0  0  0  0  0  0  0  0  0  0  0
    1.0854    4.2447   11.6176 H   0  0  0  0  0  0  0  0  0  0  0  0
    0.5639    2.1987   12.8162 H   0  0  0  0  0  0  0  0  0  0  0  0
   -0.4606    0.2317   14.5042 H   0  0  0  0  0  0  0  0  0  0  0  0
   -0.1090   -0.9452   13.1935 H   0  0  0  0  0  0  0  0  0  0  0  0
   -3.0463    1.0961   11.7689 H   0  0  0  0  0  0  0  0  0  0  0  0
   -1.7369    1.4255   12.9536 H   0  0  0  0  0  0  0  0  0  0  0  0
   -1.4949    0.1965   11.6660 H   0  0  0  0  0  0  0  0  0  0  0  0
  1  2  1  0  0  0  0
  2  3  1  0  0  0  0
  3  4  1  0  0  0  0
  3 27  2  0  0  0  0
  4  5  2  0  0  0  0
  5  6  1  0  0  0  0
  6  7  2  0  0  0  0
  6 26  1  0  0  0  0
  7  8  1  0  0  0  0
  8  9  2  0  0  0  0
  8 16  1  0  0  0  0
  9 10  1  0  0  0  0
 10 11  2  0  0  0  0
 10 17  1  0  0  0  0
 11 12  1  0  0  0  0
 12 13  1  0  0  0  0
 12 16  1  0  0  0  0
 13 14  2  0  0  0  0
 14 15  1  0  0  0  0
 15 16  2  0  0  0  0
 17 18  1  0  0  0  0
 17 25  2  0  0  0  0
 18 19  2  0  0  0  0
 19 20  1  0  0  0  0
 20 21  2  0  0  0  0
 20 24  1  0  0  0  0
 21 22  1  0  0  0  0
 22 23  2  0  0  0  0
 23 24  1  0  0  0  0
 24 25  1  0  0  0  0
 26 27  1  0  0  0  0
 27 28  1  0  0  0  0
 28 29  1  0  0  0  0
  1 30  1  0  0  0  0
  1 31  1  0  0  0  0
  1 32  1  0  0  0  0
  4 33  1  0  0  0  0
  5 34  1  0  0  0  0
 11 35  1  0  0  0  0
 13 36  1  0  0  0  0
 14 37  1  0  0  0  0
 18 38  1  0  0  0  0
 19 39  1  0  0  0  0
 21 40  1  0  0  0  0
 22 41  1  0  0  0  0
 24 42  1  0  0  0  0
 25 43  1  0  0  0  0
 26 44  1  0  0  0  0
 26 45  1  0  0  0  0
 29 46  1  0  0  0  0
 29 47  1  0  0  0  0
 29 48  1  0  0  0  0
M  END
> <IC50[nM]>
2.7

$$$$
CHEMBL3265016
  -OEChem-05192314333D
 Structure written by MMmdl.
 48 52  0     0  0  0  0  0  0999 V2000
   -4.2568   -3.1050   13.5687 C   0  0  0  0  0  0  0  0  0  0  0  0
   -3.8730   -2.3616   14.7152 O   0  0  0  0  0  0  0  0  0  0  0  0
   -2.5250   -2.1116   14.8158 C   0  0  0  0  0  0  0  0  0  0  0  0
   -1.7470   -2.8700   15.6807 C   0  0  0  0  0  0  0  0  0  0  0  0
   -0.3902   -2.6106   15.8144 C   0  0  0  0  0  0  0  0  0  0  0  0
    0.2207   -1.5844   15.0868 C   0  0  0  0  0  0  0  0  0  0  0  0
    1.6046   -1.3596   15.3257 N   0  0  0  0  0  0  0  0  0  0  0  0
    2.5329   -0.4401   14.7638 C   0  0  0  0  0  0  0  0  0  0  0  0
    2.1751    0.3788   13.7311 N   0  0  0  0  0  0  0  0  0  0  0  0
    3.1086    1.2387   13.2176 C   0  0  0  0  0  0  0  0  0  0  0  0
    4.4159    1.2831   13.6998 C   0  0  0  0  0  0  0  0  0  0  0  0
    4.7435    0.4926   14.7566 N   0  0  0  0  0  0  0  0  0  0  0  0
    5.8975    0.3810   15.4862 C   0  0  0  0  0  0  0  0  0  0  0  0
    5.5917   -0.5286   16.5249 C   0  0  0  0  0  0  0  0  0  0  0  0
    4.3780   -1.0408   16.3703 N   0  0  0  0  0  0  0  0  0  0  0  0
    3.8370   -0.3906   15.3278 C   0  0  0  0  0  0  0  0  0  0  0  0
    2.6350    2.1602   12.1213 C   0  0  0  0  0  0  0  0  0  0  0  0
    3.5425    2.6402   11.1650 C   0  0  0  0  0  0  0  0  0  0  0  0
    3.1493    3.4616   10.1117 C   0  0  0  0  0  0  0  0  0  0  0  0
    1.8041    3.8212   10.0117 C   0  0  0  0  0  0  0  0  0  0  0  0
    1.0219    4.6165    9.0806 C   0  0  0  0  0  0  0  0  0  0  0  0
   -0.2682    4.5927    9.5377 C   0  0  0  0  0  0  0  0  0  0  0  0
   -0.3496    3.8668   10.6667 N   0  0  0  0  0  0  0  0  0  0  0  0
    0.8806    3.3533   11.0064 C   0  0  0  0  0  0  0  0  0  0  0  0
    1.2701    2.5323   12.0703 C   0  0  0  0  0  0  0  0  0  0  0  0
   -0.5547   -0.8186   14.1912 C   0  0  0  0  0  0  0  0  0  0  0  0
   -1.9427   -1.0874   14.0603 C   0  0  0  0  0  0  0  0  0  0  0  0
   -2.7500   -0.3519   13.2066 O   0  0  0  0  0  0  0  0  0  0  0  0
   -2.2281    0.6471   12.3512 C   0  0  0  0  0  0  0  0  0  0  0  0
   -5.3466   -3.2541   13.5756 H   0  0  0  0  0  0  0  0  0  0  0  0
   -3.9679   -2.5545   12.6613 H   0  0  0  0  0  0  0  0  0  0  0  0
   -3.7530   -4.0828   13.5803 H   0  0  0  0  0  0  0  0  0  0  0  0
   -2.2004   -3.6662   16.2525 H   0  0  0  0  0  0  0  0  0  0  0  0
    0.2023   -3.2098   16.4900 H   0  0  0  0  0  0  0  0  0  0  0  0
    5.1512    1.9301   13.2447 H   0  0  0  0  0  0  0  0  0  0  0  0
    6.8383    0.8802   15.3068 H   0  0  0  0  0  0  0  0  0  0  0  0
    6.2591   -0.7741   17.3377 H   0  0  0  0  0  0  0  0  0  0  0  0
    4.5829    2.3628   11.2488 H   0  0  0  0  0  0  0  0  0  0  0  0
    3.7289    4.3930   10.1929 H   0  0  0  0  0  0  0  0  0  0  0  0
    3.4167    2.9434    9.1790 H   0  0  0  0  0  0  0  0  0  0  0  0
    1.3866    5.1261    8.2010 H   0  0  0  0  0  0  0  0  0  0  0  0
   -1.1015    5.0864    9.0599 H   0  0  0  0  0  0  0  0  0  0  0  0
    0.5639    2.1987   12.8162 H   0  0  0  0  0  0  0  0  0  0  0  0
   -0.4606    0.2317   14.5042 H   0  0  0  0  0  0  0  0  0  0  0  0
   -0.1090   -0.9452   13.1935 H   0  0  0  0  0  0  0  0  0  0  0  0
   -3.0463    1.0961   11.7689 H   0  0  0  0  0  0  0  0  0  0  0  0
   -1.7369    1.4255   12.9536 H   0  0  0  0  0  0  0  0  0  0  0  0
   -1.4949    0.1965   11.6660 H   0  0  0  0  0  0  0  0  0  0  0  0
  1  2  1  0  0  0  0
  2  3  1  0  0  0  0
  3  4  1  0  0  0  0
  3 27  2  0  0  0  0
  4  5  2  0  0  0  0
  5  6  1  0  0  0  0
  6  7  2  0  0  0  0
  6 26  1  0  0  0  0
  7  8  1  0  0  0  0
  8  9  2  0  0  0  0
  8 16  1  0  0  0  0
  9 10  1  0  0  0  0
 10 11  2  0  0  0  0
 10 17  1  0  0  0  0
 11 12  1  0  0  0  0
 12 13  1  0  0  0  0
 12 16  1  0  0  0  0
 13 14  2  0  0  0  0
 14 15  1  0  0  0  0
 15 16  2  0  0  0  0
 17 18  2  0  0  0  0
 17 25  1  0  0  0  0
 18 19  1  0  0  0  0
 19 20  1  0  0  0  0
 20 21  2  0  0  0  0
 20 24  1  0  0  0  0
 21 22  1  0  0  0  0
 22 23  2  0  0  0  0
 23 24  1  0  0  0  0
 24 25  2  0  0  0  0
 26 27  1  0  0  0  0
 27 28  1  0  0  0  0
 28 29  1  0  0  0  0
  1 30  1  0  0  0  0
  1 31  1  0  0  0  0
  1 32  1  0  0  0  0
  4 33  1  0  0  0  0
  5 34  1  0  0  0  0
 11 35  1  0  0  0  0
 13 36  1  0  0  0  0
 14 37  1  0  0  0  0
 18 38  1  0  0  0  0
 19 39  1  0  0  0  0
 19 40  1  0  0  0  0
 21 41  1  0  0  0  0
 22 42  1  0  0  0  0
 25 43  1  0  0  0  0
 26 44  1  0  0  0  0
 26 45  1  0  0  0  0
 29 46  1  0  0  0  0
 29 47  1  0  0  0  0
 29 48  1  0  0  0  0
M  END
> <IC50[nM]>
2.7

$$$$
CHEMBL3265016
  -OEChem-05192314333D
 Structure written by MMmdl.
 48 52  0     0  0  0  0  0  0999 V2000
   -4.2568   -3.1050   13.5687 C   0  0  0  0  0  0  0  0  0  0  0  0
   -3.8730   -2.3616   14.7152 O   0  0  0  0  0  0  0  0  0  0  0  0
   -2.5250   -2.1116   14.8158 C   0  0  0  0  0  0  0  0  0  0  0  0
   -1.7470   -2.8700   15.6807 C   0  0  0  0  0  0  0  0  0  0  0  0
   -0.3902   -2.6106   15.8144 C   0  0  0  0  0  0  0  0  0  0  0  0
    0.2207   -1.5844   15.0868 C   0  0  0  0  0  0  0  0  0  0  0  0
    1.6046   -1.3596   15.3257 N   0  0  0  0  0  0  0  0  0  0  0  0
    2.5329   -0.4401   14.7638 C   0  0  0  0  0  0  0  0  0  0  0  0
    2.1751    0.3788   13.7311 N   0  0  0  0  0  0  0  0  0  0  0  0
    3.1086    1.2387   13.2176 C   0  0  0  0  0  0  0  0  0  0  0  0
    4.4159    1.2831   13.6998 C   0  0  0  0  0  0  0  0  0  0  0  0
    4.7435    0.4926   14.7566 N   0  0  0  0  0  0  0  0  0  0  0  0
    5.8975    0.3810   15.4862 C   0  0  0  0  0  0  0  0  0  0  0  0
    5.5917   -0.5286   16.5249 C   0  0  0  0  0  0  0  0  0  0  0  0
    4.3780   -1.0408   16.3703 N   0  0  0  0  0  0  0  0  0  0  0  0
    3.8370   -0.3906   15.3278 C   0  0  0  0  0  0  0  0  0  0  0  0
    2.6350    2.1602   12.1213 C   0  0  0  0  0  0  0  0  0  0  0  0
    3.5425    2.6402   11.1650 C   0  0  0  0  0  0  0  0  0  0  0  0
    3.1493    3.4616   10.1117 C   0  0  0  0  0  0  0  0  0  0  0  0
    1.8041    3.8212   10.0117 C   0  0  0  0  0  0  0  0  0  0  0  0
    1.0219    4.6165    9.0806 C   0  0  0  0  0  0  0  0  0  0  0  0
   -0.2682    4.5927    9.5377 C   0  0  0  0  0  0  0  0  0  0  0  0
   -0.3496    3.8668   10.6667 N   0  0  0  0  0  0  0  0  0  0  0  0
    0.8806    3.3533   11.0064 C   0  0  0  0  0  0  0  0  0  0  0  0
    1.2701    2.5323   12.0703 C   0  0  0  0  0  0  0  0  0  0  0  0
   -0.5547   -0.8186   14.1912 C   0  0  0  0  0  0  0  0  0  0  0  0
   -1.9427   -1.0874   14.0603 C   0  0  0  0  0  0  0  0  0  0  0  0
   -2.7500   -0.3519   13.2066 O   0  0  0  0  0  0  0  0  0  0  0  0
   -2.2281    0.6471   12.3512 C   0  0  0  0  0  0  0  0  0  0  0  0
   -5.3466   -3.2541   13.5756 H   0  0  0  0  0  0  0  0  0  0  0  0
   -3.9679   -2.5545   12.6613 H   0  0  0  0  0  0  0  0  0  0  0  0
   -3.7530   -4.0828   13.5803 H   0  0  0  0  0  0  0  0  0  0  0  0
   -2.2004   -3.6662   16.2525 H   0  0  0  0  0  0  0  0  0  0  0  0
    0.2023   -3.2098   16.4900 H   0  0  0  0  0  0  0  0  0  0  0  0
    5.1512    1.9301   13.2447 H   0  0  0  0  0  0  0  0  0  0  0  0
    6.8383    0.8802   15.3068 H   0  0  0  0  0  0  0  0  0  0  0  0
    6.2591   -0.7741   17.3377 H   0  0  0  0  0  0  0  0  0  0  0  0
    4.3066    3.2017   11.7226 H   0  0  0  0  0  0  0  0  0  0  0  0
    4.0020    1.7524   10.7060 H   0  0  0  0  0  0  0  0  0  0  0  0
    3.8695    3.8130    9.3877 H   0  0  0  0  0  0  0  0  0  0  0  0
    1.3866    5.1261    8.2010 H   0  0  0  0  0  0  0  0  0  0  0  0
   -1.1015    5.0864    9.0599 H   0  0  0  0  0  0  0  0  0  0  0  0
    0.5639    2.1987   12.8162 H   0  0  0  0  0  0  0  0  0  0  0  0
   -0.4606    0.2317   14.5042 H   0  0  0  0  0  0  0  0  0  0  0  0
   -0.1090   -0.9452   13.1935 H   0  0  0  0  0  0  0  0  0  0  0  0
   -3.0463    1.0961   11.7689 H   0  0  0  0  0  0  0  0  0  0  0  0
   -1.7369    1.4255   12.9536 H   0  0  0  0  0  0  0  0  0  0  0  0
   -1.4949    0.1965   11.6660 H   0  0  0  0  0  0  0  0  0  0  0  0
  1  2  1  0  0  0  0
  2  3  1  0  0  0  0
  3  4  1  0  0  0  0
  3 27  2  0  0  0  0
  4  5  2  0  0  0  0
  5  6  1  0  0  0  0
  6  7  2  0  0  0  0
  6 26  1  0  0  0  0
  7  8  1  0  0  0  0
  8  9  2  0  0  0  0
  8 16  1  0  0  0  0
  9 10  1  0  0  0  0
 10 11  2  0  0  0  0
 10 17  1  0  0  0  0
 11 12  1  0  0  0  0
 12 13  1  0  0  0  0
 12 16  1  0  0  0  0
 13 14  2  0  0  0  0
 14 15  1  0  0  0  0
 15 16  2  0  0  0  0
 17 18  1  0  0  0  0
 17 25  2  0  0  0  0
 18 19  1  0  0  0  0
 19 20  2  0  0  0  0
 20 21  1  0  0  0  0
 20 24  1  0  0  0  0
 21 22  2  0  0  0  0
 22 23  1  0  0  0  0
 23 24  2  0  0  0  0
 24 25  1  0  0  0  0
 26 27  1  0  0  0  0
 27 28  1  0  0  0  0
 28 29  1  0  0  0  0
  1 30  1  0  0  0  0
  1 31  1  0  0  0  0
  1 32  1  0  0  0  0
  4 33  1  0  0  0  0
  5 34  1  0  0  0  0
 11 35  1  0  0  0  0
 13 36  1  0  0  0  0
 14 37  1  0  0  0  0
 18 38  1  0  0  0  0
 18 39  1  0  0  0  0
 19 40  1  0  0  0  0
 21 41  1  0  0  0  0
 22 42  1  0  0  0  0
 25 43  1  0  0  0  0
 26 44  1  0  0  0  0
 26 45  1  0  0  0  0
 29 46  1  0  0  0  0
 29 47  1  0  0  0  0
 29 48  1  0  0  0  0
M  END
> <IC50[nM]>
2.7

$$$$
CHEMBL3265016
  -OEChem-05192314333D
 Structure written by MMmdl.
 48 52  0     1  0  0  0  0  0999 V2000
   -4.2568   -3.1050   13.5687 C   0  0  0  0  0  0  0  0  0  0  0  0
   -3.8730   -2.3616   14.7152 O   0  0  0  0  0  0  0  0  0  0  0  0
   -2.5250   -2.1116   14.8158 C   0  0  3  0  0  0  0  0  0  0  0  0
   -1.7470   -2.8700   15.6807 C   0  0  0  0  0  0  0  0  0  0  0  0
   -0.3902   -2.6106   15.8144 C   0  0  0  0  0  0  0  0  0  0  0  0
    0.2207   -1.5844   15.0868 C   0  0  0  0  0  0  0  0  0  0  0  0
    1.6046   -1.3596   15.3257 N   0  0  0  0  0  0  0  0  0  0  0  0
    2.5329   -0.4401   14.7638 C   0  0  0  0  0  0  0  0  0  0  0  0
    2.1751    0.3788   13.7311 N   0  0  0  0  0  0  0  0  0  0  0  0
    3.1086    1.2387   13.2176 C   0  0  0  0  0  0  0  0  0  0  0  0
    4.4159    1.2831   13.6998 C   0  0  0  0  0  0  0  0  0  0  0  0
    4.7435    0.4926   14.7566 N   0  0  0  0  0  0  0  0  0  0  0  0
    5.8975    0.3810   15.4862 C   0  0  0  0  0  0  0  0  0  0  0  0
    5.5917   -0.5286   16.5249 C   0  0  0  0  0  0  0  0  0  0  0  0
    4.3780   -1.0408   16.3703 N   0  0  0  0  0  0  0  0  0  0  0  0
    3.8370   -0.3906   15.3278 C   0  0  0  0  0  0  0  0  0  0  0  0
    2.6350    2.1602   12.1213 C   0  0  0  0  0  0  0  0  0  0  0  0
    3.5425    2.6402   11.1650 C   0  0  0  0  0  0  0  0  0  0  0  0
    3.1493    3.4616   10.1117 C   0  0  0  0  0  0  0  0  0  0  0  0
    1.8041    3.8212   10.0117 C   0  0  0  0  0  0  0  0  0  0  0  0
    1.0219    4.6165    9.0806 C   0  0  0  0  0  0  0  0  0  0  0  0
   -0.2682    4.5927    9.5377 C   0  0  0  0  0  0  0  0  0  0  0  0
   -0.3496    3.8668   10.6667 N   0  0  0  0  0  0  0  0  0  0  0  0
    0.8806    3.3533   11.0064 C   0  0  0  0  0  0  0  0  0  0  0  0
    1.2701    2.5323   12.0703 C   0  0  0  0  0  0  0  0  0  0  0  0
   -0.5547   -0.8186   14.1912 C   0  0  0  0  0  0  0  0  0  0  0  0
   -1.9427   -1.0874   14.0603 C   0  0  0  0  0  0  0  0  0  0  0  0
   -2.7500   -0.3519   13.2066 O   0  0  0  0  0  0  0  0  0  0  0  0
   -2.2281    0.6471   12.3512 C   0  0  0  0  0  0  0  0  0  0  0  0
   -5.3466   -3.2541   13.5756 H   0  0  0  0  0  0  0  0  0  0  0  0
   -3.9679   -2.5545   12.6613 H   0  0  0  0  0  0  0  0  0  0  0  0
   -3.7530   -4.0828   13.5803 H   0  0  0  0  0  0  0  0  0  0  0  0
   -2.3277   -2.8276   14.0043 H   0  0  0  0  0  0  0  0  0  0  0  0
   -2.2004   -3.6662   16.2525 H   0  0  0  0  0  0  0  0  0  0  0  0
    0.2023   -3.2098   16.4900 H   0  0  0  0  0  0  0  0  0  0  0  0
    5.1512    1.9301   13.2447 H   0  0  0  0  0  0  0  0  0  0  0  0
    6.8383    0.8802   15.3068 H   0  0  0  0  0  0  0  0  0  0  0  0
    6.2591   -0.7741   17.3377 H   0  0  0  0  0  0  0  0  0  0  0  0
    4.5829    2.3628   11.2488 H   0  0  0  0  0  0  0  0  0  0  0  0
    3.8695    3.8130    9.3877 H   0  0  0  0  0  0  0  0  0  0  0  0
    1.3866    5.1261    8.2010 H   0  0  0  0  0  0  0  0  0  0  0  0
   -1.1015    5.0864    9.0599 H   0  0  0  0  0  0  0  0  0  0  0  0
    0.6751    1.6089   12.0135 H   0  0  0  0  0  0  0  0  0  0  0  0
    1.0346    3.0634   13.0044 H   0  0  0  0  0  0  0  0  0  0  0  0
   -0.0957   -0.0332   13.6091 H   0  0  0  0  0  0  0  0  0  0  0  0
   -3.0463    1.0961   11.7689 H   0  0  0  0  0  0  0  0  0  0  0  0
   -1.7369    1.4255   12.9536 H   0  0  0  0  0  0  0  0  0  0  0  0
   -1.4949    0.1965   11.6660 H   0  0  0  0  0  0  0  0  0  0  0  0
  1  2  1  0  0  0  0
  2  3  1  0  0  0  0
  3  4  1  0  0  0  0
  3 27  1  0  0  0  0
  4  5  2  0  0  0  0
  5  6  1  0  0  0  0
  6  7  2  0  0  0  0
  6 26  1  0  0  0  0
  7  8  1  0  0  0  0
  8  9  2  0  0  0  0
  8 16  1  0  0  0  0
  9 10  1  0  0  0  0
 10 11  2  0  0  0  0
 10 17  1  0  0  0  0
 11 12  1  0  0  0  0
 12 13  1  0  0  0  0
 12 16  1  0  0  0  0
 13 14  2  0  0  0  0
 14 15  1  0  0  0  0
 15 16  2  0  0  0  0
 17 18  2  0  0  0  0
 17 25  1  0  0  0  0
 18 19  1  0  0  0  0
 19 20  2  0  0  0  0
 20 21  1  0  0  0  0
 20 24  1  0  0  0  0
 21 22  2  0  0  0  0
 22 23  1  0  0  0  0
 23 24  2  0  0  0  0
 24 25  1  0  0  0  0
 26 27  2  0  0  0  0
 27 28  1  0  0  0  0
 28 29  1  0  0  0  0
  1 30  1  0  0  0  0
  1 31  1  0  0  0  0
  1 32  1  0  0  0  0
  3 33  1  0  0  0  0
  4 34  1  0  0  0  0
  5 35  1  0  0  0  0
 11 36  1  0  0  0  0
 13 37  1  0  0  0  0
 14 38  1  0  0  0  0
 18 39  1  0  0  0  0
 19 40  1  0  0  0  0
 21 41  1  0  0  0  0
 22 42  1  0  0  0  0
 25 43  1  0  0  0  0
 25 44  1  0  0  0  0
 26 45  1  0  0  0  0
 29 46  1  0  0  0  0
 29 47  1  0  0  0  0
 29 48  1  0  0  0  0
M  END
> <IC50[nM]>
2.7

$$$$
CHEMBL3265016
  -OEChem-05192314333D
 Structure written by MMmdl.
 48 52  0     0  0  0  0  0  0999 V2000
   -4.2568   -3.1050   13.5687 C   0  0  0  0  0  0  0  0  0  0  0  0
   -3.8730   -2.3616   14.7152 O   0  0  0  0  0  0  0  0  0  0  0  0
   -2.5250   -2.1116   14.8158 C   0  0  0  0  0  0  0  0  0  0  0  0
   -1.7470   -2.8700   15.6807 C   0  0  0  0  0  0  0  0  0  0  0  0
   -0.3902   -2.6106   15.8144 C   0  0  0  0  0  0  0  0  0  0  0  0
    0.2207   -1.5844   15.0868 C   0  0  0  0  0  0  0  0  0  0  0  0
    1.6046   -1.3596   15.3257 N   0  0  0  0  0  0  0  0  0  0  0  0
    2.5329   -0.4401   14.7638 C   0  0  0  0  0  0  0  0  0  0  0  0
    2.1751    0.3788   13.7311 N   0  0  0  0  0  0  0  0  0  0  0  0
    3.1086    1.2387   13.2176 C   0  0  0  0  0  0  0  0  0  0  0  0
    4.4159    1.2831   13.6998 C   0  0  0  0  0  0  0  0  0  0  0  0
    4.7435    0.4926   14.7566 N   0  0  0  0  0  0  0  0  0  0  0  0
    5.8975    0.3810   15.4862 C   0  0  0  0  0  0  0  0  0  0  0  0
    5.5917   -0.5286   16.5249 C   0  0  0  0  0  0  0  0  0  0  0  0
    4.3780   -1.0408   16.3703 N   0  0  0  0  0  0  0  0  0  0  0  0
    3.8370   -0.3906   15.3278 C   0  0  0  0  0  0  0  0  0  0  0  0
    2.6350    2.1602   12.1213 C   0  0  0  0  0  0  0  0  0  0  0  0
    3.5425    2.6402   11.1650 C   0  0  0  0  0  0  0  0  0  0  0  0
    3.1493    3.4616   10.1117 C   0  0  0  0  0  0  0  0  0  0  0  0
    1.8041    3.8212   10.0117 C   0  0  0  0  0  0  0  0  0  0  0  0
    1.0219    4.6165    9.0806 C   0  0  0  0  0  0  0  0  0  0  0  0
   -0.2682    4.5927    9.5377 C   0  0  0  0  0  0  0  0  0  0  0  0
   -0.3496    3.8668   10.6667 N   0  0  0  0  0  0  0  0  0  0  0  0
    0.8806    3.3533   11.0064 C   0  0  0  0  0  0  0  0  0  0  0  0
    1.2701    2.5323   12.0703 C   0  0  0  0  0  0  0  0  0  0  0  0
   -0.5547   -0.8186   14.1912 C   0  0  0  0  0  0  0  0  0  0  0  0
   -1.9427   -1.0874   14.0603 C   0  0  0  0  0  0  0  0  0  0  0  0
   -2.7500   -0.3519   13.2066 O   0  0  0  0  0  0  0  0  0  0  0  0
   -2.2281    0.6471   12.3512 C   0  0  0  0  0  0  0  0  0  0  0  0
   -5.3466   -3.2541   13.5756 H   0  0  0  0  0  0  0  0  0  0  0  0
   -3.9679   -2.5545   12.6613 H   0  0  0  0  0  0  0  0  0  0  0  0
   -3.7530   -4.0828   13.5803 H   0  0  0  0  0  0  0  0  0  0  0  0
   -2.2004   -3.6662   16.2525 H   0  0  0  0  0  0  0  0  0  0  0  0
   -0.2176   -2.3862   16.8774 H   0  0  0  0  0  0  0  0  0  0  0  0
    0.1341   -3.5396   15.5459 H   0  0  0  0  0  0  0  0  0  0  0  0
    5.1512    1.9301   13.2447 H   0  0  0  0  0  0  0  0  0  0  0  0
    6.8383    0.8802   15.3068 H   0  0  0  0  0  0  0  0  0  0  0  0
    6.2591   -0.7741   17.3377 H   0  0  0  0  0  0  0  0  0  0  0  0
    4.5829    2.3628   11.2488 H   0  0  0  0  0  0  0  0  0  0  0  0
    3.8695    3.8130    9.3877 H   0  0  0  0  0  0  0  0  0  0  0  0
    1.3866    5.1261    8.2010 H   0  0  0  0  0  0  0  0  0  0  0  0
   -1.1015    5.0864    9.0599 H   0  0  0  0  0  0  0  0  0  0  0  0
    0.6751    1.6089   12.0135 H   0  0  0  0  0  0  0  0  0  0  0  0
    1.0346    3.0634   13.0044 H   0  0  0  0  0  0  0  0  0  0  0  0
   -0.0957   -0.0332   13.6091 H   0  0  0  0  0  0  0  0  0  0  0  0
   -3.0463    1.0961   11.7689 H   0  0  0  0  0  0  0  0  0  0  0  0
   -1.7369    1.4255   12.9536 H   0  0  0  0  0  0  0  0  0  0  0  0
   -1.4949    0.1965   11.6660 H   0  0  0  0  0  0  0  0  0  0  0  0
  1  2  1  0  0  0  0
  2  3  1  0  0  0  0
  3  4  2  0  0  0  0
  3 27  1  0  0  0  0
  4  5  1  0  0  0  0
  5  6  1  0  0  0  0
  6  7  2  0  0  0  0
  6 26  1  0  0  0  0
  7  8  1  0  0  0  0
  8  9  2  0  0  0  0
  8 16  1  0  0  0  0
  9 10  1  0  0  0  0
 10 11  2  0  0  0  0
 10 17  1  0  0  0  0
 11 12  1  0  0  0  0
 12 13  1  0  0  0  0
 12 16  1  0  0  0  0
 13 14  2  0  0  0  0
 14 15  1  0  0  0  0
 15 16  2  0  0  0  0
 17 18  2  0  0  0  0
 17 25  1  0  0  0  0
 18 19  1  0  0  0  0
 19 20  2  0  0  0  0
 20 21  1  0  0  0  0
 20 24  1  0  0  0  0
 21 22  2  0  0  0  0
 22 23  1  0  0  0  0
 23 24  2  0  0  0  0
 24 25  1  0  0  0  0
 26 27  2  0  0  0  0
 27 28  1  0  0  0  0
 28 29  1  0  0  0  0
  1 30  1  0  0  0  0
  1 31  1  0  0  0  0
  1 32  1  0  0  0  0
  4 33  1  0  0  0  0
  5 34  1  0  0  0  0
  5 35  1  0  0  0  0
 11 36  1  0  0  0  0
 13 37  1  0  0  0  0
 14 38  1  0  0  0  0
 18 39  1  0  0  0  0
 19 40  1  0  0  0  0
 21 41  1  0  0  0  0
 22 42  1  0  0  0  0
 25 43  1  0  0  0  0
 25 44  1  0  0  0  0
 26 45  1  0  0  0  0
 29 46  1  0  0  0  0
 29 47  1  0  0  0  0
 29 48  1  0  0  0  0
M  END
> <IC50[nM]>
2.7

$$$$
CHEMBL3265016
  -OEChem-05192314333D
 Structure written by MMmdl.
 48 52  0     0  0  0  0  0  0999 V2000
   -4.2568   -3.1050   13.5687 C   0  0  0  0  0  0  0  0  0  0  0  0
   -3.8730   -2.3616   14.7152 O   0  0  0  0  0  0  0  0  0  0  0  0
   -2.5250   -2.1116   14.8158 C   0  0  0  0  0  0  0  0  0  0  0  0
   -1.7470   -2.8700   15.6807 C   0  0  0  0  0  0  0  0  0  0  0  0
   -0.3902   -2.6106   15.8144 C   0  0  0  0  0  0  0  0  0  0  0  0
    0.2207   -1.5844   15.0868 C   0  0  0  0  0  0  0  0  0  0  0  0
    1.6046   -1.3596   15.3257 N   0  0  0  0  0  0  0  0  0  0  0  0
    2.5329   -0.4401   14.7638 C   0  0  0  0  0  0  0  0  0  0  0  0
    2.1751    0.3788   13.7311 N   0  0  0  0  0  0  0  0  0  0  0  0
    3.1086    1.2387   13.2176 C   0  0  0  0  0  0  0  0  0  0  0  0
    4.4159    1.2831   13.6998 C   0  0  0  0  0  0  0  0  0  0  0  0
    4.7435    0.4926   14.7566 N   0  0  0  0  0  0  0  0  0  0  0  0
    5.8975    0.3810   15.4862 C   0  0  0  0  0  0  0  0  0  0  0  0
    5.5917   -0.5286   16.5249 C   0  0  0  0  0  0  0  0  0  0  0  0
    4.3780   -1.0408   16.3703 N   0  0  0  0  0  0  0  0  0  0  0  0
    3.8370   -0.3906   15.3278 C   0  0  0  0  0  0  0  0  0  0  0  0
    2.6350    2.1602   12.1213 C   0  0  0  0  0  0  0  0  0  0  0  0
    3.5425    2.6402   11.1650 C   0  0  0  0  0  0  0  0  0  0  0  0
    3.1493    3.4616   10.1117 C   0  0  0  0  0  0  0  0  0  0  0  0
    1.8041    3.8212   10.0117 C   0  0  0  0  0  0  0  0  0  0  0  0
    1.0219    4.6165    9.0806 C   0  0  0  0  0  0  0  0  0  0  0  0
   -0.2682    4.5927    9.5377 C   0  0  0  0  0  0  0  0  0  0  0  0
   -0.3496    3.8668   10.6667 N   0  0  0  0  0  0  0  0  0  0  0  0
    0.8806    3.3533   11.0064 C   0  0  0  0  0  0  0  0  0  0  0  0
    1.2701    2.5323   12.0703 C   0  0  0  0  0  0  0  0  0  0  0  0
   -0.5547   -0.8186   14.1912 C   0  0  0  0  0  0  0  0  0  0  0  0
   -1.9427   -1.0874   14.0603 C   0  0  0  0  0  0  0  0  0  0  0  0
   -2.7500   -0.3519   13.2066 O   0  0  0  0  0  0  0  0  0  0  0  0
   -2.2281    0.6471   12.3512 C   0  0  0  0  0  0  0  0  0  0  0  0
   -5.3466   -3.2541   13.5756 H   0  0  0  0  0  0  0  0  0  0  0  0
   -3.9679   -2.5545   12.6613 H   0  0  0  0  0  0  0  0  0  0  0  0
   -3.7530   -4.0828   13.5803 H   0  0  0  0  0  0  0  0  0  0  0  0
   -2.2004   -3.6662   16.2525 H   0  0  0  0  0  0  0  0  0  0  0  0
    0.2023   -3.2098   16.4900 H   0  0  0  0  0  0  0  0  0  0  0  0
    5.1512    1.9301   13.2447 H   0  0  0  0  0  0  0  0  0  0  0  0
    6.8383    0.8802   15.3068 H   0  0  0  0  0  0  0  0  0  0  0  0
    6.2591   -0.7741   17.3377 H   0  0  0  0  0  0  0  0  0  0  0  0
    4.5829    2.3628   11.2488 H   0  0  0  0  0  0  0  0  0  0  0  0
    3.8695    3.8130    9.3877 H   0  0  0  0  0  0  0  0  0  0  0  0
    1.3866    5.1261    8.2010 H   0  0  0  0  0  0  0  0  0  0  0  0
   -1.1015    5.0864    9.0599 H   0  0  0  0  0  0  0  0  0  0  0  0
    0.6751    1.6089   12.0135 H   0  0  0  0  0  0  0  0  0  0  0  0
    1.0346    3.0634   13.0044 H   0  0  0  0  0  0  0  0  0  0  0  0
   -0.4606    0.2317   14.5042 H   0  0  0  0  0  0  0  0  0  0  0  0
   -0.1090   -0.9452   13.1935 H   0  0  0  0  0  0  0  0  0  0  0  0
   -3.0463    1.0961   11.7689 H   0  0  0  0  0  0  0  0  0  0  0  0
   -1.7369    1.4255   12.9536 H   0  0  0  0  0  0  0  0  0  0  0  0
   -1.4949    0.1965   11.6660 H   0  0  0  0  0  0  0  0  0  0  0  0
  1  2  1  0  0  0  0
  2  3  1  0  0  0  0
  3  4  1  0  0  0  0
  3 27  2  0  0  0  0
  4  5  2  0  0  0  0
  5  6  1  0  0  0  0
  6  7  2  0  0  0  0
  6 26  1  0  0  0  0
  7  8  1  0  0  0  0
  8  9  2  0  0  0  0
  8 16  1  0  0  0  0
  9 10  1  0  0  0  0
 10 11  2  0  0  0  0
 10 17  1  0  0  0  0
 11 12  1  0  0  0  0
 12 13  1  0  0  0  0
 12 16  1  0  0  0  0
 13 14  2  0  0  0  0
 14 15  1  0  0  0  0
 15 16  2  0  0  0  0
 17 18  2  0  0  0  0
 17 25  1  0  0  0  0
 18 19  1  0  0  0  0
 19 20  2  0  0  0  0
 20 21  1  0  0  0  0
 20 24  1  0  0  0  0
 21 22  2  0  0  0  0
 22 23  1  0  0  0  0
 23 24  2  0  0  0  0
 24 25  1  0  0  0  0
 26 27  1  0  0  0  0
 27 28  1  0  0  0  0
 28 29  1  0  0  0  0
  1 30  1  0  0  0  0
  1 31  1  0  0  0  0
  1 32  1  0  0  0  0
  4 33  1  0  0  0  0
  5 34  1  0  0  0  0
 11 35  1  0  0  0  0
 13 36  1  0  0  0  0
 14 37  1  0  0  0  0
 18 38  1  0  0  0  0
 19 39  1  0  0  0  0
 21 40  1  0  0  0  0
 22 41  1  0  0  0  0
 25 42  1  0  0  0  0
 25 43  1  0  0  0  0
 26 44  1  0  0  0  0
 26 45  1  0  0  0  0
 29 46  1  0  0  0  0
 29 47  1  0  0  0  0
 29 48  1  0  0  0  0
M  END
> <IC50[nM]>
2.7

$$$$
