CHEMBL3265018
  -OEChem-05192314333D
 Structure written by MMmdl.
 47 51  0     0  0  0  0  0  0999 V2000
   -4.2567   -3.1043   13.5693 C   0  0  0  0  0  0  0  0  0  0  0  0
   -3.8736   -2.3603   14.7157 O   0  0  0  0  0  0  0  0  0  0  0  0
   -2.5257   -2.1109   14.8170 C   0  0  0  0  0  0  0  0  0  0  0  0
   -1.7457   -2.8699   15.6819 C   0  0  0  0  0  0  0  0  0  0  0  0
   -0.3904   -2.6103   15.8138 C   0  0  0  0  0  0  0  0  0  0  0  0
    0.2205   -1.5845   15.0866 C   0  0  0  0  0  0  0  0  0  0  0  0
    1.6039   -1.3601   15.3216 N   0  0  0  0  0  0  0  0  0  0  0  0
    2.5369   -0.4474   14.7595 C   0  0  0  0  0  0  0  0  0  0  0  0
    2.1817    0.3719   13.7240 N   0  0  0  0  0  0  0  0  0  0  0  0
    3.1138    1.2387   13.2179 C   0  0  0  0  0  0  0  0  0  0  0  0
    4.4187    1.2840   13.7027 C   0  0  0  0  0  0  0  0  0  0  0  0
    4.7466    0.4880   14.7600 N   0  0  0  0  0  0  0  0  0  0  0  0
    5.8977    0.3770   15.4865 C   0  0  0  0  0  0  0  0  0  0  0  0
    5.5876   -0.5233   16.5295 C   0  0  0  0  0  0  0  0  0  0  0  0
    4.3760   -1.0434   16.3734 N   0  0  0  0  0  0  0  0  0  0  0  0
    3.8370   -0.3940   15.3257 C   0  0  0  0  0  0  0  0  0  0  0  0
    2.6359    2.1614   12.1223 C   0  0  0  0  0  0  0  0  0  0  0  0
    1.3054    2.6314   12.1303 C   0  0  0  0  0  0  0  0  0  0  0  0
    0.8262    3.5165   11.1628 C   0  0  0  0  0  0  0  0  0  0  0  0
    1.7006    3.9330   10.1707 C   0  0  0  0  0  0  0  0  0  0  0  0
    1.4948    4.8131    9.1162 N   0  0  0  0  0  0  0  0  0  0  0  0
    2.6280    4.8521    8.4793 C   0  0  0  0  0  0  0  0  0  0  0  0
    3.5731    4.0579    9.0246 N   0  0  0  0  0  0  0  0  0  0  0  0
    3.0312    3.4473   10.1317 C   0  0  0  0  0  0  0  0  0  0  0  0
    3.5261    2.5537   11.0860 C   0  0  0  0  0  0  0  0  0  0  0  0
   -0.5552   -0.8189   14.1920 C   0  0  0  0  0  0  0  0  0  0  0  0
   -1.9445   -1.0884   14.0613 C   0  0  0  0  0  0  0  0  0  0  0  0
   -2.7533   -0.3562   13.2050 O   0  0  0  0  0  0  0  0  0  0  0  0
   -2.2327    0.6448   12.3521 C   0  0  0  0  0  0  0  0  0  0  0  0
   -5.3466   -3.2530   13.5754 H   0  0  0  0  0  0  0  0  0  0  0  0
   -3.9668   -2.5544   12.6618 H   0  0  0  0  0  0  0  0  0  0  0  0
   -3.7533   -4.0823   13.5820 H   0  0  0  0  0  0  0  0  0  0  0  0
   -2.1981   -3.6662   16.2542 H   0  0  0  0  0  0  0  0  0  0  0  0
    0.2026   -3.2097   16.4887 H   0  0  0  0  0  0  0  0  0  0  0  0
    1.9971   -1.9610   16.0175 H   0  0  0  0  0  0  0  0  0  0  0  0
    5.1536    1.9344   13.2517 H   0  0  0  0  0  0  0  0  0  0  0  0
    6.8406    0.8706   15.3032 H   0  0  0  0  0  0  0  0  0  0  0  0
    6.2508   -0.7585   17.3488 H   0  0  0  0  0  0  0  0  0  0  0  0
    0.6368    2.2959   12.9093 H   0  0  0  0  0  0  0  0  0  0  0  0
   -0.1953    3.8664   11.1865 H   0  0  0  0  0  0  0  0  0  0  0  0
    2.7959    5.4592    7.6020 H   0  0  0  0  0  0  0  0  0  0  0  0
    4.5050    3.9348    8.6833 H   0  0  0  0  0  0  0  0  0  0  0  0
    4.5378    2.1788   11.0381 H   0  0  0  0  0  0  0  0  0  0  0  0
   -0.0967   -0.0331   13.6101 H   0  0  0  0  0  0  0  0  0  0  0  0
   -3.0507    1.0906   11.7671 H   0  0  0  0  0  0  0  0  0  0  0  0
   -1.7468    1.4250   12.9565 H   0  0  0  0  0  0  0  0  0  0  0  0
   -1.4953    0.1975   11.6693 H   0  0  0  0  0  0  0  0  0  0  0  0
  1  2  1  0  0  0  0
  2  3  1  0  0  0  0
  3  4  2  0  0  0  0
  3 27  1  0  0  0  0
  4  5  1  0  0  0  0
  5  6  2  0  0  0  0
  6  7  1  0  0  0  0
  6 26  1  0  0  0  0
  7  8  1  0  0  0  0
  8  9  2  0  0  0  0
  8 16  1  0  0  0  0
  9 10  1  0  0  0  0
 10 11  2  0  0  0  0
 10 17  1  0  0  0  0
 11 12  1  0  0  0  0
 12 13  1  0  0  0  0
 12 16  1  0  0  0  0
 13 14  2  0  0  0  0
 14 15  1  0  0  0  0
 15 16  2  0  0  0  0
 17 18  2  0  0  0  0
 17 25  1  0  0  0  0
 18 19  1  0  0  0  0
 19 20  2  0  0  0  0
 20 21  1  0  0  0  0
 20 24  1  0  0  0  0
 21 22  2  0  0  0  0
 22 23  1  0  0  0  0
 23 24  1  0  0  0  0
 24 25  2  0  0  0  0
 26 27  2  0  0  0  0
 27 28  1  0  0  0  0
 28 29  1  0  0  0  0
  1 30  1  0  0  0  0
  1 31  1  0  0  0  0
  1 32  1  0  0  0  0
  4 33  1  0  0  0  0
  5 34  1  0  0  0  0
  7 35  1  0  0  0  0
 11 36  1  0  0  0  0
 13 37  1  0  0  0  0
 14 38  1  0  0  0  0
 18 39  1  0  0  0  0
 19 40  1  0  0  0  0
 22 41  1  0  0  0  0
 23 42  1  0  0  0  0
 25 43  1  0  0  0  0
 26 44  1  0  0  0  0
 29 45  1  0  0  0  0
 29 46  1  0  0  0  0
 29 47  1  0  0  0  0
M  END
> <IC50[nM]>
6.3

$$$$
CHEMBL3265018
  -OEChem-05192314333D
 Structure written by MMmdl.
 47 51  0     0  0  0  0  0  0999 V2000
   -4.2567   -3.1043   13.5693 C   0  0  0  0  0  0  0  0  0  0  0  0
   -3.8736   -2.3603   14.7157 O   0  0  0  0  0  0  0  0  0  0  0  0
   -2.5257   -2.1109   14.8170 C   0  0  0  0  0  0  0  0  0  0  0  0
   -1.7457   -2.8699   15.6819 C   0  0  0  0  0  0  0  0  0  0  0  0
   -0.3904   -2.6103   15.8138 C   0  0  0  0  0  0  0  0  0  0  0  0
    0.2205   -1.5845   15.0866 C   0  0  0  0  0  0  0  0  0  0  0  0
    1.6039   -1.3601   15.3216 N   0  0  0  0  0  0  0  0  0  0  0  0
    2.5369   -0.4474   14.7595 C   0  0  0  0  0  0  0  0  0  0  0  0
    2.1817    0.3719   13.7240 N   0  0  0  0  0  0  0  0  0  0  0  0
    3.1138    1.2387   13.2179 C   0  0  0  0  0  0  0  0  0  0  0  0
    4.4187    1.2840   13.7027 C   0  0  0  0  0  0  0  0  0  0  0  0
    4.7466    0.4880   14.7600 N   0  0  0  0  0  0  0  0  0  0  0  0
    5.8977    0.3770   15.4865 C   0  0  0  0  0  0  0  0  0  0  0  0
    5.5876   -0.5233   16.5295 C   0  0  0  0  0  0  0  0  0  0  0  0
    4.3760   -1.0434   16.3734 N   0  0  0  0  0  0  0  0  0  0  0  0
    3.8370   -0.3940   15.3257 C   0  0  0  0  0  0  0  0  0  0  0  0
    2.6359    2.1614   12.1223 C   0  0  0  0  0  0  0  0  0  0  0  0
    1.3054    2.6314   12.1303 C   0  0  0  0  0  0  0  0  0  0  0  0
    0.8262    3.5165   11.1628 C   0  0  0  0  0  0  0  0  0  0  0  0
    1.7006    3.9330   10.1707 C   0  0  0  0  0  0  0  0  0  0  0  0
    1.4948    4.8131    9.1162 N   0  0  0  0  0  0  0  0  0  0  0  0
    2.6280    4.8521    8.4793 C   0  0  0  0  0  0  0  0  0  0  0  0
    3.5731    4.0579    9.0246 N   0  0  0  0  0  0  0  0  0  0  0  0
    3.0312    3.4473   10.1317 C   0  0  0  0  0  0  0  0  0  0  0  0
    3.5261    2.5537   11.0860 C   0  0  0  0  0  0  0  0  0  0  0  0
   -0.5552   -0.8189   14.1920 C   0  0  0  0  0  0  0  0  0  0  0  0
   -1.9445   -1.0884   14.0613 C   0  0  0  0  0  0  0  0  0  0  0  0
   -2.7533   -0.3562   13.2050 O   0  0  0  0  0  0  0  0  0  0  0  0
   -2.2327    0.6448   12.3521 C   0  0  0  0  0  0  0  0  0  0  0  0
   -5.3466   -3.2530   13.5754 H   0  0  0  0  0  0  0  0  0  0  0  0
   -3.9668   -2.5544   12.6618 H   0  0  0  0  0  0  0  0  0  0  0  0
   -3.7533   -4.0823   13.5820 H   0  0  0  0  0  0  0  0  0  0  0  0
   -2.1981   -3.6662   16.2542 H   0  0  0  0  0  0  0  0  0  0  0  0
    0.2026   -3.2097   16.4887 H   0  0  0  0  0  0  0  0  0  0  0  0
    1.9971   -1.9610   16.0175 H   0  0  0  0  0  0  0  0  0  0  0  0
    5.1536    1.9344   13.2517 H   0  0  0  0  0  0  0  0  0  0  0  0
    6.8406    0.8706   15.3032 H   0  0  0  0  0  0  0  0  0  0  0  0
    6.2508   -0.7585   17.3488 H   0  0  0  0  0  0  0  0  0  0  0  0
    0.6368    2.2959   12.9093 H   0  0  0  0  0  0  0  0  0  0  0  0
   -0.1953    3.8664   11.1865 H   0  0  0  0  0  0  0  0  0  0  0  0
    0.6558    5.3099    8.8944 H   0  0  0  0  0  0  0  0  0  0  0  0
    2.7959    5.4592    7.6020 H   0  0  0  0  0  0  0  0  0  0  0  0
    4.5378    2.1788   11.0381 H   0  0  0  0  0  0  0  0  0  0  0  0
   -0.0967   -0.0331   13.6101 H   0  0  0  0  0  0  0  0  0  0  0  0
   -3.0507    1.0906   11.7671 H   0  0  0  0  0  0  0  0  0  0  0  0
   -1.7468    1.4250   12.9565 H   0  0  0  0  0  0  0  0  0  0  0  0
   -1.4953    0.1975   11.6693 H   0  0  0  0  0  0  0  0  0  0  0  0
  1  2  1  0  0  0  0
  2  3  1  0  0  0  0
  3  4  2  0  0  0  0
  3 27  1  0  0  0  0
  4  5  1  0  0  0  0
  5  6  2  0  0  0  0
  6  7  1  0  0  0  0
  6 26  1  0  0  0  0
  7  8  1  0  0  0  0
  8  9  2  0  0  0  0
  8 16  1  0  0  0  0
  9 10  1  0  0  0  0
 10 11  2  0  0  0  0
 10 17  1  0  0  0  0
 11 12  1  0  0  0  0
 12 13  1  0  0  0  0
 12 16  1  0  0  0  0
 13 14  2  0  0  0  0
 14 15  1  0  0  0  0
 15 16  2  0  0  0  0
 17 18  2  0  0  0  0
 17 25  1  0  0  0  0
 18 19  1  0  0  0  0
 19 20  2  0  0  0  0
 20 21  1  0  0  0  0
 20 24  1  0  0  0  0
 21 22  1  0  0  0  0
 22 23  2  0  0  0  0
 23 24  1  0  0  0  0
 24 25  2  0  0  0  0
 26 27  2  0  0  0  0
 27 28  1  0  0  0  0
 28 29  1  0  0  0  0
  1 30  1  0  0  0  0
  1 31  1  0  0  0  0
  1 32  1  0  0  0  0
  4 33  1  0  0  0  0
  5 34  1  0  0  0  0
  7 35  1  0  0  0  0
 11 36  1  0  0  0  0
 13 37  1  0  0  0  0
 14 38  1  0  0  0  0
 18 39  1  0  0  0  0
 19 40  1  0  0  0  0
 21 41  1  0  0  0  0
 22 42  1  0  0  0  0
 25 43  1  0  0  0  0
 26 44  1  0  0  0  0
 29 45  1  0  0  0  0
 29 46  1  0  0  0  0
 29 47  1  0  0  0  0
M  END
> <IC50[nM]>
6.3

$$$$
CHEMBL3265018
  -OEChem-05192314333D
 Structure written by MMmdl.
 47 51  0     0  0  0  0  0  0999 V2000
   -4.2567   -3.1043   13.5693 C   0  0  0  0  0  0  0  0  0  0  0  0
   -3.8736   -2.3603   14.7157 O   0  0  0  0  0  0  0  0  0  0  0  0
   -2.5257   -2.1109   14.8170 C   0  0  0  0  0  0  0  0  0  0  0  0
   -1.7457   -2.8699   15.6819 C   0  0  0  0  0  0  0  0  0  0  0  0
   -0.3904   -2.6103   15.8138 C   0  0  0  0  0  0  0  0  0  0  0  0
    0.2205   -1.5845   15.0866 C   0  0  0  0  0  0  0  0  0  0  0  0
    1.6039   -1.3601   15.3216 N   0  0  0  0  0  0  0  0  0  0  0  0
    2.5369   -0.4474   14.7595 C   0  0  0  0  0  0  0  0  0  0  0  0
    2.1817    0.3719   13.7240 N   0  0  0  0  0  0  0  0  0  0  0  0
    3.1138    1.2387   13.2179 C   0  0  0  0  0  0  0  0  0  0  0  0
    4.4187    1.2840   13.7027 C   0  0  0  0  0  0  0  0  0  0  0  0
    4.7466    0.4880   14.7600 N   0  0  0  0  0  0  0  0  0  0  0  0
    5.8977    0.3770   15.4865 C   0  0  0  0  0  0  0  0  0  0  0  0
    5.5876   -0.5233   16.5295 C   0  0  0  0  0  0  0  0  0  0  0  0
    4.3760   -1.0434   16.3734 N   0  0  0  0  0  0  0  0  0  0  0  0
    3.8370   -0.3940   15.3257 C   0  0  0  0  0  0  0  0  0  0  0  0
    2.6359    2.1614   12.1223 C   0  0  0  0  0  0  0  0  0  0  0  0
    1.3054    2.6314   12.1303 C   0  0  0  0  0  0  0  0  0  0  0  0
    0.8262    3.5165   11.1628 C   0  0  0  0  0  0  0  0  0  0  0  0
    1.7006    3.9330   10.1707 C   0  0  0  0  0  0  0  0  0  0  0  0
    1.4948    4.8131    9.1162 N   0  0  0  0  0  0  0  0  0  0  0  0
    2.6280    4.8521    8.4793 C   0  0  0  0  0  0  0  0  0  0  0  0
    3.5731    4.0579    9.0246 N   0  0  0  0  0  0  0  0  0  0  0  0
    3.0312    3.4473   10.1317 C   0  0  0  0  0  0  0  0  0  0  0  0
    3.5261    2.5537   11.0860 C   0  0  0  0  0  0  0  0  0  0  0  0
   -0.5552   -0.8189   14.1920 C   0  0  0  0  0  0  0  0  0  0  0  0
   -1.9445   -1.0884   14.0613 C   0  0  0  0  0  0  0  0  0  0  0  0
   -2.7533   -0.3562   13.2050 O   0  0  0  0  0  0  0  0  0  0  0  0
   -2.2327    0.6448   12.3521 C   0  0  0  0  0  0  0  0  0  0  0  0
   -5.3466   -3.2530   13.5754 H   0  0  0  0  0  0  0  0  0  0  0  0
   -3.9668   -2.5544   12.6618 H   0  0  0  0  0  0  0  0  0  0  0  0
   -3.7533   -4.0823   13.5820 H   0  0  0  0  0  0  0  0  0  0  0  0
   -2.1981   -3.6662   16.2542 H   0  0  0  0  0  0  0  0  0  0  0  0
    0.2026   -3.2097   16.4887 H   0  0  0  0  0  0  0  0  0  0  0  0
    1.2578    0.3389   13.3429 H   0  0  0  0  0  0  0  0  0  0  0  0
    5.1536    1.9344   13.2517 H   0  0  0  0  0  0  0  0  0  0  0  0
    6.8406    0.8706   15.3032 H   0  0  0  0  0  0  0  0  0  0  0  0
    6.2508   -0.7585   17.3488 H   0  0  0  0  0  0  0  0  0  0  0  0
    0.6368    2.2959   12.9093 H   0  0  0  0  0  0  0  0  0  0  0  0
   -0.1953    3.8664   11.1865 H   0  0  0  0  0  0  0  0  0  0  0  0
    2.7959    5.4592    7.6020 H   0  0  0  0  0  0  0  0  0  0  0  0
    4.5050    3.9348    8.6833 H   0  0  0  0  0  0  0  0  0  0  0  0
    4.5378    2.1788   11.0381 H   0  0  0  0  0  0  0  0  0  0  0  0
   -0.0967   -0.0331   13.6101 H   0  0  0  0  0  0  0  0  0  0  0  0
   -3.0507    1.0906   11.7671 H   0  0  0  0  0  0  0  0  0  0  0  0
   -1.7468    1.4250   12.9565 H   0  0  0  0  0  0  0  0  0  0  0  0
   -1.4953    0.1975   11.6693 H   0  0  0  0  0  0  0  0  0  0  0  0
  1  2  1  0  0  0  0
  2  3  1  0  0  0  0
  3  4  2  0  0  0  0
  3 27  1  0  0  0  0
  4  5  1  0  0  0  0
  5  6  2  0  0  0  0
  6  7  1  0  0  0  0
  6 26  1  0  0  0  0
  7  8  2  0  0  0  0
  8  9  1  0  0  0  0
  8 16  1  0  0  0  0
  9 10  1  0  0  0  0
 10 11  2  0  0  0  0
 10 17  1  0  0  0  0
 11 12  1  0  0  0  0
 12 13  1  0  0  0  0
 12 16  1  0  0  0  0
 13 14  2  0  0  0  0
 14 15  1  0  0  0  0
 15 16  2  0  0  0  0
 17 18  2  0  0  0  0
 17 25  1  0  0  0  0
 18 19  1  0  0  0  0
 19 20  2  0  0  0  0
 20 21  1  0  0  0  0
 20 24  1  0  0  0  0
 21 22  2  0  0  0  0
 22 23  1  0  0  0  0
 23 24  1  0  0  0  0
 24 25  2  0  0  0  0
 26 27  2  0  0  0  0
 27 28  1  0  0  0  0
 28 29  1  0  0  0  0
  1 30  1  0  0  0  0
  1 31  1  0  0  0  0
  1 32  1  0  0  0  0
  4 33  1  0  0  0  0
  5 34  1  0  0  0  0
  9 35  1  0  0  0  0
 11 36  1  0  0  0  0
 13 37  1  0  0  0  0
 14 38  1  0  0  0  0
 18 39  1  0  0  0  0
 19 40  1  0  0  0  0
 22 41  1  0  0  0  0
 23 42  1  0  0  0  0
 25 43  1  0  0  0  0
 26 44  1  0  0  0  0
 29 45  1  0  0  0  0
 29 46  1  0  0  0  0
 29 47  1  0  0  0  0
M  END
> <IC50[nM]>
6.3

$$$$
CHEMBL3265018
  -OEChem-05192314333D
 Structure written by MMmdl.
 47 51  0     0  0  0  0  0  0999 V2000
   -4.2567   -3.1043   13.5693 C   0  0  0  0  0  0  0  0  0  0  0  0
   -3.8736   -2.3603   14.7157 O   0  0  0  0  0  0  0  0  0  0  0  0
   -2.5257   -2.1109   14.8170 C   0  0  0  0  0  0  0  0  0  0  0  0
   -1.7457   -2.8699   15.6819 C   0  0  0  0  0  0  0  0  0  0  0  0
   -0.3904   -2.6103   15.8138 C   0  0  0  0  0  0  0  0  0  0  0  0
    0.2205   -1.5845   15.0866 C   0  0  0  0  0  0  0  0  0  0  0  0
    1.6039   -1.3601   15.3216 N   0  0  0  0  0  0  0  0  0  0  0  0
    2.5369   -0.4474   14.7595 C   0  0  0  0  0  0  0  0  0  0  0  0
    2.1817    0.3719   13.7240 N   0  0  0  0  0  0  0  0  0  0  0  0
    3.1138    1.2387   13.2179 C   0  0  0  0  0  0  0  0  0  0  0  0
    4.4187    1.2840   13.7027 C   0  0  0  0  0  0  0  0  0  0  0  0
    4.7466    0.4880   14.7600 N   0  0  0  0  0  0  0  0  0  0  0  0
    5.8977    0.3770   15.4865 C   0  0  0  0  0  0  0  0  0  0  0  0
    5.5876   -0.5233   16.5295 C   0  0  0  0  0  0  0  0  0  0  0  0
    4.3760   -1.0434   16.3734 N   0  0  0  0  0  0  0  0  0  0  0  0
    3.8370   -0.3940   15.3257 C   0  0  0  0  0  0  0  0  0  0  0  0
    2.6359    2.1614   12.1223 C   0  0  0  0  0  0  0  0  0  0  0  0
    1.3054    2.6314   12.1303 C   0  0  0  0  0  0  0  0  0  0  0  0
    0.8262    3.5165   11.1628 C   0  0  0  0  0  0  0  0  0  0  0  0
    1.7006    3.9330   10.1707 C   0  0  0  0  0  0  0  0  0  0  0  0
    1.4948    4.8131    9.1162 N   0  0  0  0  0  0  0  0  0  0  0  0
    2.6280    4.8521    8.4793 C   0  0  0  0  0  0  0  0  0  0  0  0
    3.5731    4.0579    9.0246 N   0  0  0  0  0  0  0  0  0  0  0  0
    3.0312    3.4473   10.1317 C   0  0  0  0  0  0  0  0  0  0  0  0
    3.5261    2.5537   11.0860 C   0  0  0  0  0  0  0  0  0  0  0  0
   -0.5552   -0.8189   14.1920 C   0  0  0  0  0  0  0  0  0  0  0  0
   -1.9445   -1.0884   14.0613 C   0  0  0  0  0  0  0  0  0  0  0  0
   -2.7533   -0.3562   13.2050 O   0  0  0  0  0  0  0  0  0  0  0  0
   -2.2327    0.6448   12.3521 C   0  0  0  0  0  0  0  0  0  0  0  0
   -5.3466   -3.2530   13.5754 H   0  0  0  0  0  0  0  0  0  0  0  0
   -3.9668   -2.5544   12.6618 H   0  0  0  0  0  0  0  0  0  0  0  0
   -3.7533   -4.0823   13.5820 H   0  0  0  0  0  0  0  0  0  0  0  0
   -2.1981   -3.6662   16.2542 H   0  0  0  0  0  0  0  0  0  0  0  0
    0.2026   -3.2097   16.4887 H   0  0  0  0  0  0  0  0  0  0  0  0
    1.2578    0.3389   13.3429 H   0  0  0  0  0  0  0  0  0  0  0  0
    5.1536    1.9344   13.2517 H   0  0  0  0  0  0  0  0  0  0  0  0
    6.8406    0.8706   15.3032 H   0  0  0  0  0  0  0  0  0  0  0  0
    6.2508   -0.7585   17.3488 H   0  0  0  0  0  0  0  0  0  0  0  0
    0.6368    2.2959   12.9093 H   0  0  0  0  0  0  0  0  0  0  0  0
   -0.1953    3.8664   11.1865 H   0  0  0  0  0  0  0  0  0  0  0  0
    0.6558    5.3099    8.8944 H   0  0  0  0  0  0  0  0  0  0  0  0
    2.7959    5.4592    7.6020 H   0  0  0  0  0  0  0  0  0  0  0  0
    4.5378    2.1788   11.0381 H   0  0  0  0  0  0  0  0  0  0  0  0
   -0.0967   -0.0331   13.6101 H   0  0  0  0  0  0  0  0  0  0  0  0
   -3.0507    1.0906   11.7671 H   0  0  0  0  0  0  0  0  0  0  0  0
   -1.7468    1.4250   12.9565 H   0  0  0  0  0  0  0  0  0  0  0  0
   -1.4953    0.1975   11.6693 H   0  0  0  0  0  0  0  0  0  0  0  0
  1  2  1  0  0  0  0
  2  3  1  0  0  0  0
  3  4  2  0  0  0  0
  3 27  1  0  0  0  0
  4  5  1  0  0  0  0
  5  6  2  0  0  0  0
  6  7  1  0  0  0  0
  6 26  1  0  0  0  0
  7  8  2  0  0  0  0
  8  9  1  0  0  0  0
  8 16  1  0  0  0  0
  9 10  1  0  0  0  0
 10 11  2  0  0  0  0
 10 17  1  0  0  0  0
 11 12  1  0  0  0  0
 12 13  1  0  0  0  0
 12 16  1  0  0  0  0
 13 14  2  0  0  0  0
 14 15  1  0  0  0  0
 15 16  2  0  0  0  0
 17 18  2  0  0  0  0
 17 25  1  0  0  0  0
 18 19  1  0  0  0  0
 19 20  2  0  0  0  0
 20 21  1  0  0  0  0
 20 24  1  0  0  0  0
 21 22  1  0  0  0  0
 22 23  2  0  0  0  0
 23 24  1  0  0  0  0
 24 25  2  0  0  0  0
 26 27  2  0  0  0  0
 27 28  1  0  0  0  0
 28 29  1  0  0  0  0
  1 30  1  0  0  0  0
  1 31  1  0  0  0  0
  1 32  1  0  0  0  0
  4 33  1  0  0  0  0
  5 34  1  0  0  0  0
  9 35  1  0  0  0  0
 11 36  1  0  0  0  0
 13 37  1  0  0  0  0
 14 38  1  0  0  0  0
 18 39  1  0  0  0  0
 19 40  1  0  0  0  0
 21 41  1  0  0  0  0
 22 42  1  0  0  0  0
 25 43  1  0  0  0  0
 26 44  1  0  0  0  0
 29 45  1  0  0  0  0
 29 46  1  0  0  0  0
 29 47  1  0  0  0  0
M  END
> <IC50[nM]>
6.3

$$$$
CHEMBL3265018
  -OEChem-05192314333D
 Structure written by MMmdl.
 47 51  0     0  0  0  0  0  0999 V2000
   -4.2567   -3.1043   13.5693 C   0  0  0  0  0  0  0  0  0  0  0  0
   -3.8736   -2.3603   14.7157 O   0  0  0  0  0  0  0  0  0  0  0  0
   -2.5257   -2.1109   14.8170 C   0  0  0  0  0  0  0  0  0  0  0  0
   -1.7457   -2.8699   15.6819 C   0  0  0  0  0  0  0  0  0  0  0  0
   -0.3904   -2.6103   15.8138 C   0  0  0  0  0  0  0  0  0  0  0  0
    0.2205   -1.5845   15.0866 C   0  0  0  0  0  0  0  0  0  0  0  0
    1.6039   -1.3601   15.3216 N   0  0  0  0  0  0  0  0  0  0  0  0
    2.5369   -0.4474   14.7595 C   0  0  0  0  0  0  0  0  0  0  0  0
    2.1817    0.3719   13.7240 N   0  0  0  0  0  0  0  0  0  0  0  0
    3.1138    1.2387   13.2179 C   0  0  0  0  0  0  0  0  0  0  0  0
    4.4187    1.2840   13.7027 C   0  0  0  0  0  0  0  0  0  0  0  0
    4.7466    0.4880   14.7600 N   0  0  0  0  0  0  0  0  0  0  0  0
    5.8977    0.3770   15.4865 C   0  0  0  0  0  0  0  0  0  0  0  0
    5.5876   -0.5233   16.5295 C   0  0  0  0  0  0  0  0  0  0  0  0
    4.3760   -1.0434   16.3734 N   0  0  0  0  0  0  0  0  0  0  0  0
    3.8370   -0.3940   15.3257 C   0  0  0  0  0  0  0  0  0  0  0  0
    2.6359    2.1614   12.1223 C   0  0  0  0  0  0  0  0  0  0  0  0
    1.3054    2.6314   12.1303 C   0  0  0  0  0  0  0  0  0  0  0  0
    0.8262    3.5165   11.1628 C   0  0  0  0  0  0  0  0  0  0  0  0
    1.7006    3.9330   10.1707 C   0  0  0  0  0  0  0  0  0  0  0  0
    1.4948    4.8131    9.1162 N   0  0  0  0  0  0  0  0  0  0  0  0
    2.6280    4.8521    8.4793 C   0  0  0  0  0  0  0  0  0  0  0  0
    3.5731    4.0579    9.0246 N   0  0  0  0  0  0  0  0  0  0  0  0
    3.0312    3.4473   10.1317 C   0  0  0  0  0  0  0  0  0  0  0  0
    3.5261    2.5537   11.0860 C   0  0  0  0  0  0  0  0  0  0  0  0
   -0.5552   -0.8189   14.1920 C   0  0  0  0  0  0  0  0  0  0  0  0
   -1.9445   -1.0884   14.0613 C   0  0  0  0  0  0  0  0  0  0  0  0
   -2.7533   -0.3562   13.2050 O   0  0  0  0  0  0  0  0  0  0  0  0
   -2.2327    0.6448   12.3521 C   0  0  0  0  0  0  0  0  0  0  0  0
   -5.3466   -3.2530   13.5754 H   0  0  0  0  0  0  0  0  0  0  0  0
   -3.9668   -2.5544   12.6618 H   0  0  0  0  0  0  0  0  0  0  0  0
   -3.7533   -4.0823   13.5820 H   0  0  0  0  0  0  0  0  0  0  0  0
   -2.1981   -3.6662   16.2542 H   0  0  0  0  0  0  0  0  0  0  0  0
    0.2026   -3.2097   16.4887 H   0  0  0  0  0  0  0  0  0  0  0  0
    1.9971   -1.9610   16.0175 H   0  0  0  0  0  0  0  0  0  0  0  0
    5.1536    1.9344   13.2517 H   0  0  0  0  0  0  0  0  0  0  0  0
    6.8406    0.8706   15.3032 H   0  0  0  0  0  0  0  0  0  0  0  0
    6.2508   -0.7585   17.3488 H   0  0  0  0  0  0  0  0  0  0  0  0
    0.6368    2.2959   12.9093 H   0  0  0  0  0  0  0  0  0  0  0  0
   -0.1953    3.8664   11.1865 H   0  0  0  0  0  0  0  0  0  0  0  0
    2.4569    4.5297    7.4416 H   0  0  0  0  0  0  0  0  0  0  0  0
    2.9966    5.8885    8.4852 H   0  0  0  0  0  0  0  0  0  0  0  0
    4.5378    2.1788   11.0381 H   0  0  0  0  0  0  0  0  0  0  0  0
   -0.0967   -0.0331   13.6101 H   0  0  0  0  0  0  0  0  0  0  0  0
   -3.0507    1.0906   11.7671 H   0  0  0  0  0  0  0  0  0  0  0  0
   -1.7468    1.4250   12.9565 H   0  0  0  0  0  0  0  0  0  0  0  0
   -1.4953    0.1975   11.6693 H   0  0  0  0  0  0  0  0  0  0  0  0
  1  2  1  0  0  0  0
  2  3  1  0  0  0  0
  3  4  2  0  0  0  0
  3 27  1  0  0  0  0
  4  5  1  0  0  0  0
  5  6  2  0  0  0  0
  6  7  1  0  0  0  0
  6 26  1  0  0  0  0
  7  8  1  0  0  0  0
  8  9  2  0  0  0  0
  8 16  1  0  0  0  0
  9 10  1  0  0  0  0
 10 11  2  0  0  0  0
 10 17  1  0  0  0  0
 11 12  1  0  0  0  0
 12 13  1  0  0  0  0
 12 16  1  0  0  0  0
 13 14  2  0  0  0  0
 14 15  1  0  0  0  0
 15 16  2  0  0  0  0
 17 18  1  0  0  0  0
 17 25  2  0  0  0  0
 18 19  2  0  0  0  0
 19 20  1  0  0  0  0
 20 21  2  0  0  0  0
 20 24  1  0  0  0  0
 21 22  1  0  0  0  0
 22 23  1  0  0  0  0
 23 24  2  0  0  0  0
 24 25  1  0  0  0  0
 26 27  2  0  0  0  0
 27 28  1  0  0  0  0
 28 29  1  0  0  0  0
  1 30  1  0  0  0  0
  1 31  1  0  0  0  0
  1 32  1  0  0  0  0
  4 33  1  0  0  0  0
  5 34  1  0  0  0  0
  7 35  1  0  0  0  0
 11 36  1  0  0  0  0
 13 37  1  0  0  0  0
 14 38  1  0  0  0  0
 18 39  1  0  0  0  0
 19 40  1  0  0  0  0
 22 41  1  0  0  0  0
 22 42  1  0  0  0  0
 25 43  1  0  0  0  0
 26 44  1  0  0  0  0
 29 45  1  0  0  0  0
 29 46  1  0  0  0  0
 29 47  1  0  0  0  0
M  END
> <IC50[nM]>
6.3

$$$$
CHEMBL3265018
  -OEChem-05192314333D
 Structure written by MMmdl.
 47 51  0     0  0  0  0  0  0999 V2000
   -4.2567   -3.1043   13.5693 C   0  0  0  0  0  0  0  0  0  0  0  0
   -3.8736   -2.3603   14.7157 O   0  0  0  0  0  0  0  0  0  0  0  0
   -2.5257   -2.1109   14.8170 C   0  0  0  0  0  0  0  0  0  0  0  0
   -1.7457   -2.8699   15.6819 C   0  0  0  0  0  0  0  0  0  0  0  0
   -0.3904   -2.6103   15.8138 C   0  0  0  0  0  0  0  0  0  0  0  0
    0.2205   -1.5845   15.0866 C   0  0  0  0  0  0  0  0  0  0  0  0
    1.6039   -1.3601   15.3216 N   0  0  0  0  0  0  0  0  0  0  0  0
    2.5369   -0.4474   14.7595 C   0  0  0  0  0  0  0  0  0  0  0  0
    2.1817    0.3719   13.7240 N   0  0  0  0  0  0  0  0  0  0  0  0
    3.1138    1.2387   13.2179 C   0  0  0  0  0  0  0  0  0  0  0  0
    4.4187    1.2840   13.7027 C   0  0  0  0  0  0  0  0  0  0  0  0
    4.7466    0.4880   14.7600 N   0  0  0  0  0  0  0  0  0  0  0  0
    5.8977    0.3770   15.4865 C   0  0  0  0  0  0  0  0  0  0  0  0
    5.5876   -0.5233   16.5295 C   0  0  0  0  0  0  0  0  0  0  0  0
    4.3760   -1.0434   16.3734 N   0  0  0  0  0  0  0  0  0  0  0  0
    3.8370   -0.3940   15.3257 C   0  0  0  0  0  0  0  0  0  0  0  0
    2.6359    2.1614   12.1223 C   0  0  0  0  0  0  0  0  0  0  0  0
    1.3054    2.6314   12.1303 C   0  0  0  0  0  0  0  0  0  0  0  0
    0.8262    3.5165   11.1628 C   0  0  0  0  0  0  0  0  0  0  0  0
    1.7006    3.9330   10.1707 C   0  0  0  0  0  0  0  0  0  0  0  0
    1.4948    4.8131    9.1162 N   0  0  0  0  0  0  0  0  0  0  0  0
    2.6280    4.8521    8.4793 C   0  0  0  0  0  0  0  0  0  0  0  0
    3.5731    4.0579    9.0246 N   0  0  0  0  0  0  0  0  0  0  0  0
    3.0312    3.4473   10.1317 C   0  0  0  0  0  0  0  0  0  0  0  0
    3.5261    2.5537   11.0860 C   0  0  0  0  0  0  0  0  0  0  0  0
   -0.5552   -0.8189   14.1920 C   0  0  0  0  0  0  0  0  0  0  0  0
   -1.9445   -1.0884   14.0613 C   0  0  0  0  0  0  0  0  0  0  0  0
   -2.7533   -0.3562   13.2050 O   0  0  0  0  0  0  0  0  0  0  0  0
   -2.2327    0.6448   12.3521 C   0  0  0  0  0  0  0  0  0  0  0  0
   -5.3466   -3.2530   13.5754 H   0  0  0  0  0  0  0  0  0  0  0  0
   -3.9668   -2.5544   12.6618 H   0  0  0  0  0  0  0  0  0  0  0  0
   -3.7533   -4.0823   13.5820 H   0  0  0  0  0  0  0  0  0  0  0  0
   -2.1981   -3.6662   16.2542 H   0  0  0  0  0  0  0  0  0  0  0  0
    0.2026   -3.2097   16.4887 H   0  0  0  0  0  0  0  0  0  0  0  0
    1.2578    0.3389   13.3429 H   0  0  0  0  0  0  0  0  0  0  0  0
    5.1536    1.9344   13.2517 H   0  0  0  0  0  0  0  0  0  0  0  0
    6.8406    0.8706   15.3032 H   0  0  0  0  0  0  0  0  0  0  0  0
    6.2508   -0.7585   17.3488 H   0  0  0  0  0  0  0  0  0  0  0  0
    0.6368    2.2959   12.9093 H   0  0  0  0  0  0  0  0  0  0  0  0
   -0.1953    3.8664   11.1865 H   0  0  0  0  0  0  0  0  0  0  0  0
    2.4569    4.5297    7.4416 H   0  0  0  0  0  0  0  0  0  0  0  0
    2.9966    5.8885    8.4852 H   0  0  0  0  0  0  0  0  0  0  0  0
    4.5378    2.1788   11.0381 H   0  0  0  0  0  0  0  0  0  0  0  0
   -0.0967   -0.0331   13.6101 H   0  0  0  0  0  0  0  0  0  0  0  0
   -3.0507    1.0906   11.7671 H   0  0  0  0  0  0  0  0  0  0  0  0
   -1.7468    1.4250   12.9565 H   0  0  0  0  0  0  0  0  0  0  0  0
   -1.4953    0.1975   11.6693 H   0  0  0  0  0  0  0  0  0  0  0  0
  1  2  1  0  0  0  0
  2  3  1  0  0  0  0
  3  4  2  0  0  0  0
  3 27  1  0  0  0  0
  4  5  1  0  0  0  0
  5  6  2  0  0  0  0
  6  7  1  0  0  0  0
  6 26  1  0  0  0  0
  7  8  2  0  0  0  0
  8  9  1  0  0  0  0
  8 16  1  0  0  0  0
  9 10  1  0  0  0  0
 10 11  2  0  0  0  0
 10 17  1  0  0  0  0
 11 12  1  0  0  0  0
 12 13  1  0  0  0  0
 12 16  1  0  0  0  0
 13 14  2  0  0  0  0
 14 15  1  0  0  0  0
 15 16  2  0  0  0  0
 17 18  1  0  0  0  0
 17 25  2  0  0  0  0
 18 19  2  0  0  0  0
 19 20  1  0  0  0  0
 20 21  2  0  0  0  0
 20 24  1  0  0  0  0
 21 22  1  0  0  0  0
 22 23  1  0  0  0  0
 23 24  2  0  0  0  0
 24 25  1  0  0  0  0
 26 27  2  0  0  0  0
 27 28  1  0  0  0  0
 28 29  1  0  0  0  0
  1 30  1  0  0  0  0
  1 31  1  0  0  0  0
  1 32  1  0  0  0  0
  4 33  1  0  0  0  0
  5 34  1  0  0  0  0
  9 35  1  0  0  0  0
 11 36  1  0  0  0  0
 13 37  1  0  0  0  0
 14 38  1  0  0  0  0
 18 39  1  0  0  0  0
 19 40  1  0  0  0  0
 22 41  1  0  0  0  0
 22 42  1  0  0  0  0
 25 43  1  0  0  0  0
 26 44  1  0  0  0  0
 29 45  1  0  0  0  0
 29 46  1  0  0  0  0
 29 47  1  0  0  0  0
M  END
> <IC50[nM]>
6.3

$$$$
CHEMBL3265018
  -OEChem-05192314333D
 Structure written by MMmdl.
 47 51  0     0  0  0  0  0  0999 V2000
   -4.2567   -3.1043   13.5693 C   0  0  0  0  0  0  0  0  0  0  0  0
   -3.8736   -2.3603   14.7157 O   0  0  0  0  0  0  0  0  0  0  0  0
   -2.5257   -2.1109   14.8170 C   0  0  0  0  0  0  0  0  0  0  0  0
   -1.7457   -2.8699   15.6819 C   0  0  0  0  0  0  0  0  0  0  0  0
   -0.3904   -2.6103   15.8138 C   0  0  0  0  0  0  0  0  0  0  0  0
    0.2205   -1.5845   15.0866 C   0  0  0  0  0  0  0  0  0  0  0  0
    1.6039   -1.3601   15.3216 N   0  0  0  0  0  0  0  0  0  0  0  0
    2.5369   -0.4474   14.7595 C   0  0  0  0  0  0  0  0  0  0  0  0
    2.1817    0.3719   13.7240 N   0  0  0  0  0  0  0  0  0  0  0  0
    3.1138    1.2387   13.2179 C   0  0  0  0  0  0  0  0  0  0  0  0
    4.4187    1.2840   13.7027 C   0  0  0  0  0  0  0  0  0  0  0  0
    4.7466    0.4880   14.7600 N   0  0  0  0  0  0  0  0  0  0  0  0
    5.8977    0.3770   15.4865 C   0  0  0  0  0  0  0  0  0  0  0  0
    5.5876   -0.5233   16.5295 C   0  0  0  0  0  0  0  0  0  0  0  0
    4.3760   -1.0434   16.3734 N   0  0  0  0  0  0  0  0  0  0  0  0
    3.8370   -0.3940   15.3257 C   0  0  0  0  0  0  0  0  0  0  0  0
    2.6359    2.1614   12.1223 C   0  0  0  0  0  0  0  0  0  0  0  0
    1.3054    2.6314   12.1303 C   0  0  0  0  0  0  0  0  0  0  0  0
    0.8262    3.5165   11.1628 C   0  0  0  0  0  0  0  0  0  0  0  0
    1.7006    3.9330   10.1707 C   0  0  0  0  0  0  0  0  0  0  0  0
    1.4948    4.8131    9.1162 N   0  0  0  0  0  0  0  0  0  0  0  0
    2.6280    4.8521    8.4793 C   0  0  0  0  0  0  0  0  0  0  0  0
    3.5731    4.0579    9.0246 N   0  0  0  0  0  0  0  0  0  0  0  0
    3.0312    3.4473   10.1317 C   0  0  0  0  0  0  0  0  0  0  0  0
    3.5261    2.5537   11.0860 C   0  0  0  0  0  0  0  0  0  0  0  0
   -0.5552   -0.8189   14.1920 C   0  0  0  0  0  0  0  0  0  0  0  0
   -1.9445   -1.0884   14.0613 C   0  0  0  0  0  0  0  0  0  0  0  0
   -2.7533   -0.3562   13.2050 O   0  0  0  0  0  0  0  0  0  0  0  0
   -2.2327    0.6448   12.3521 C   0  0  0  0  0  0  0  0  0  0  0  0
   -5.3466   -3.2530   13.5754 H   0  0  0  0  0  0  0  0  0  0  0  0
   -3.9668   -2.5544   12.6618 H   0  0  0  0  0  0  0  0  0  0  0  0
   -3.7533   -4.0823   13.5820 H   0  0  0  0  0  0  0  0  0  0  0  0
   -2.1981   -3.6662   16.2542 H   0  0  0  0  0  0  0  0  0  0  0  0
    0.2026   -3.2097   16.4887 H   0  0  0  0  0  0  0  0  0  0  0  0
    5.0842    1.0099   12.8708 H   0  0  0  0  0  0  0  0  0  0  0  0
    4.6175    2.3230   14.0042 H   0  0  0  0  0  0  0  0  0  0  0  0
    6.8406    0.8706   15.3032 H   0  0  0  0  0  0  0  0  0  0  0  0
    6.2508   -0.7585   17.3488 H   0  0  0  0  0  0  0  0  0  0  0  0
    0.6368    2.2959   12.9093 H   0  0  0  0  0  0  0  0  0  0  0  0
   -0.1953    3.8664   11.1865 H   0  0  0  0  0  0  0  0  0  0  0  0
    2.7959    5.4592    7.6020 H   0  0  0  0  0  0  0  0  0  0  0  0
    4.5050    3.9348    8.6833 H   0  0  0  0  0  0  0  0  0  0  0  0
    4.5378    2.1788   11.0381 H   0  0  0  0  0  0  0  0  0  0  0  0
   -0.0967   -0.0331   13.6101 H   0  0  0  0  0  0  0  0  0  0  0  0
   -3.0507    1.0906   11.7671 H   0  0  0  0  0  0  0  0  0  0  0  0
   -1.7468    1.4250   12.9565 H   0  0  0  0  0  0  0  0  0  0  0  0
   -1.4953    0.1975   11.6693 H   0  0  0  0  0  0  0  0  0  0  0  0
  1  2  1  0  0  0  0
  2  3  1  0  0  0  0
  3  4  2  0  0  0  0
  3 27  1  0  0  0  0
  4  5  1  0  0  0  0
  5  6  2  0  0  0  0
  6  7  1  0  0  0  0
  6 26  1  0  0  0  0
  7  8  2  0  0  0  0
  8  9  1  0  0  0  0
  8 16  1  0  0  0  0
  9 10  2  0  0  0  0
 10 11  1  0  0  0  0
 10 17  1  0  0  0  0
 11 12  1  0  0  0  0
 12 13  1  0  0  0  0
 12 16  1  0  0  0  0
 13 14  2  0  0  0  0
 14 15  1  0  0  0  0
 15 16  2  0  0  0  0
 17 18  2  0  0  0  0
 17 25  1  0  0  0  0
 18 19  1  0  0  0  0
 19 20  2  0  0  0  0
 20 21  1  0  0  0  0
 20 24  1  0  0  0  0
 21 22  2  0  0  0  0
 22 23  1  0  0  0  0
 23 24  1  0  0  0  0
 24 25  2  0  0  0  0
 26 27  2  0  0  0  0
 27 28  1  0  0  0  0
 28 29  1  0  0  0  0
  1 30  1  0  0  0  0
  1 31  1  0  0  0  0
  1 32  1  0  0  0  0
  4 33  1  0  0  0  0
  5 34  1  0  0  0  0
 11 35  1  0  0  0  0
 11 36  1  0  0  0  0
 13 37  1  0  0  0  0
 14 38  1  0  0  0  0
 18 39  1  0  0  0  0
 19 40  1  0  0  0  0
 22 41  1  0  0  0  0
 23 42  1  0  0  0  0
 25 43  1  0  0  0  0
 26 44  1  0  0  0  0
 29 45  1  0  0  0  0
 29 46  1  0  0  0  0
 29 47  1  0  0  0  0
M  END
> <IC50[nM]>
6.3

$$$$
CHEMBL3265018
  -OEChem-05192314333D
 Structure written by MMmdl.
 47 51  0     0  0  0  0  0  0999 V2000
   -4.2567   -3.1043   13.5693 C   0  0  0  0  0  0  0  0  0  0  0  0
   -3.8736   -2.3603   14.7157 O   0  0  0  0  0  0  0  0  0  0  0  0
   -2.5257   -2.1109   14.8170 C   0  0  0  0  0  0  0  0  0  0  0  0
   -1.7457   -2.8699   15.6819 C   0  0  0  0  0  0  0  0  0  0  0  0
   -0.3904   -2.6103   15.8138 C   0  0  0  0  0  0  0  0  0  0  0  0
    0.2205   -1.5845   15.0866 C   0  0  0  0  0  0  0  0  0  0  0  0
    1.6039   -1.3601   15.3216 N   0  0  0  0  0  0  0  0  0  0  0  0
    2.5369   -0.4474   14.7595 C   0  0  0  0  0  0  0  0  0  0  0  0
    2.1817    0.3719   13.7240 N   0  0  0  0  0  0  0  0  0  0  0  0
    3.1138    1.2387   13.2179 C   0  0  0  0  0  0  0  0  0  0  0  0
    4.4187    1.2840   13.7027 C   0  0  0  0  0  0  0  0  0  0  0  0
    4.7466    0.4880   14.7600 N   0  0  0  0  0  0  0  0  0  0  0  0
    5.8977    0.3770   15.4865 C   0  0  0  0  0  0  0  0  0  0  0  0
    5.5876   -0.5233   16.5295 C   0  0  0  0  0  0  0  0  0  0  0  0
    4.3760   -1.0434   16.3734 N   0  0  0  0  0  0  0  0  0  0  0  0
    3.8370   -0.3940   15.3257 C   0  0  0  0  0  0  0  0  0  0  0  0
    2.6359    2.1614   12.1223 C   0  0  0  0  0  0  0  0  0  0  0  0
    1.3054    2.6314   12.1303 C   0  0  0  0  0  0  0  0  0  0  0  0
    0.8262    3.5165   11.1628 C   0  0  0  0  0  0  0  0  0  0  0  0
    1.7006    3.9330   10.1707 C   0  0  0  0  0  0  0  0  0  0  0  0
    1.4948    4.8131    9.1162 N   0  0  0  0  0  0  0  0  0  0  0  0
    2.6280    4.8521    8.4793 C   0  0  0  0  0  0  0  0  0  0  0  0
    3.5731    4.0579    9.0246 N   0  0  0  0  0  0  0  0  0  0  0  0
    3.0312    3.4473   10.1317 C   0  0  0  0  0  0  0  0  0  0  0  0
    3.5261    2.5537   11.0860 C   0  0  0  0  0  0  0  0  0  0  0  0
   -0.5552   -0.8189   14.1920 C   0  0  0  0  0  0  0  0  0  0  0  0
   -1.9445   -1.0884   14.0613 C   0  0  0  0  0  0  0  0  0  0  0  0
   -2.7533   -0.3562   13.2050 O   0  0  0  0  0  0  0  0  0  0  0  0
   -2.2327    0.6448   12.3521 C   0  0  0  0  0  0  0  0  0  0  0  0
   -5.3466   -3.2530   13.5754 H   0  0  0  0  0  0  0  0  0  0  0  0
   -3.9668   -2.5544   12.6618 H   0  0  0  0  0  0  0  0  0  0  0  0
   -3.7533   -4.0823   13.5820 H   0  0  0  0  0  0  0  0  0  0  0  0
   -2.1981   -3.6662   16.2542 H   0  0  0  0  0  0  0  0  0  0  0  0
    0.2026   -3.2097   16.4887 H   0  0  0  0  0  0  0  0  0  0  0  0
    5.0842    1.0099   12.8708 H   0  0  0  0  0  0  0  0  0  0  0  0
    4.6175    2.3230   14.0042 H   0  0  0  0  0  0  0  0  0  0  0  0
    6.8406    0.8706   15.3032 H   0  0  0  0  0  0  0  0  0  0  0  0
    6.2508   -0.7585   17.3488 H   0  0  0  0  0  0  0  0  0  0  0  0
    0.6368    2.2959   12.9093 H   0  0  0  0  0  0  0  0  0  0  0  0
   -0.1953    3.8664   11.1865 H   0  0  0  0  0  0  0  0  0  0  0  0
    0.6558    5.3099    8.8944 H   0  0  0  0  0  0  0  0  0  0  0  0
    2.7959    5.4592    7.6020 H   0  0  0  0  0  0  0  0  0  0  0  0
    4.5378    2.1788   11.0381 H   0  0  0  0  0  0  0  0  0  0  0  0
   -0.0967   -0.0331   13.6101 H   0  0  0  0  0  0  0  0  0  0  0  0
   -3.0507    1.0906   11.7671 H   0  0  0  0  0  0  0  0  0  0  0  0
   -1.7468    1.4250   12.9565 H   0  0  0  0  0  0  0  0  0  0  0  0
   -1.4953    0.1975   11.6693 H   0  0  0  0  0  0  0  0  0  0  0  0
  1  2  1  0  0  0  0
  2  3  1  0  0  0  0
  3  4  2  0  0  0  0
  3 27  1  0  0  0  0
  4  5  1  0  0  0  0
  5  6  2  0  0  0  0
  6  7  1  0  0  0  0
  6 26  1  0  0  0  0
  7  8  2  0  0  0  0
  8  9  1  0  0  0  0
  8 16  1  0  0  0  0
  9 10  2  0  0  0  0
 10 11  1  0  0  0  0
 10 17  1  0  0  0  0
 11 12  1  0  0  0  0
 12 13  1  0  0  0  0
 12 16  1  0  0  0  0
 13 14  2  0  0  0  0
 14 15  1  0  0  0  0
 15 16  2  0  0  0  0
 17 18  2  0  0  0  0
 17 25  1  0  0  0  0
 18 19  1  0  0  0  0
 19 20  2  0  0  0  0
 20 21  1  0  0  0  0
 20 24  1  0  0  0  0
 21 22  1  0  0  0  0
 22 23  2  0  0  0  0
 23 24  1  0  0  0  0
 24 25  2  0  0  0  0
 26 27  2  0  0  0  0
 27 28  1  0  0  0  0
 28 29  1  0  0  0  0
  1 30  1  0  0  0  0
  1 31  1  0  0  0  0
  1 32  1  0  0  0  0
  4 33  1  0  0  0  0
  5 34  1  0  0  0  0
 11 35  1  0  0  0  0
 11 36  1  0  0  0  0
 13 37  1  0  0  0  0
 14 38  1  0  0  0  0
 18 39  1  0  0  0  0
 19 40  1  0  0  0  0
 21 41  1  0  0  0  0
 22 42  1  0  0  0  0
 25 43  1  0  0  0  0
 26 44  1  0  0  0  0
 29 45  1  0  0  0  0
 29 46  1  0  0  0  0
 29 47  1  0  0  0  0
M  END
> <IC50[nM]>
6.3

$$$$
CHEMBL3265018
  -OEChem-05192314333D
 Structure written by MMmdl.
 47 51  0     1  0  0  0  0  0999 V2000
   -4.2567   -3.1043   13.5693 C   0  0  0  0  0  0  0  0  0  0  0  0
   -3.8736   -2.3603   14.7157 O   0  0  0  0  0  0  0  0  0  0  0  0
   -2.5257   -2.1109   14.8170 C   0  0  3  0  0  0  0  0  0  0  0  0
   -1.7457   -2.8699   15.6819 C   0  0  0  0  0  0  0  0  0  0  0  0
   -0.3904   -2.6103   15.8138 C   0  0  0  0  0  0  0  0  0  0  0  0
    0.2205   -1.5845   15.0866 C   0  0  0  0  0  0  0  0  0  0  0  0
    1.6039   -1.3601   15.3216 N   0  0  0  0  0  0  0  0  0  0  0  0
    2.5369   -0.4474   14.7595 C   0  0  0  0  0  0  0  0  0  0  0  0
    2.1817    0.3719   13.7240 N   0  0  0  0  0  0  0  0  0  0  0  0
    3.1138    1.2387   13.2179 C   0  0  0  0  0  0  0  0  0  0  0  0
    4.4187    1.2840   13.7027 C   0  0  0  0  0  0  0  0  0  0  0  0
    4.7466    0.4880   14.7600 N   0  0  0  0  0  0  0  0  0  0  0  0
    5.8977    0.3770   15.4865 C   0  0  0  0  0  0  0  0  0  0  0  0
    5.5876   -0.5233   16.5295 C   0  0  0  0  0  0  0  0  0  0  0  0
    4.3760   -1.0434   16.3734 N   0  0  0  0  0  0  0  0  0  0  0  0
    3.8370   -0.3940   15.3257 C   0  0  0  0  0  0  0  0  0  0  0  0
    2.6359    2.1614   12.1223 C   0  0  0  0  0  0  0  0  0  0  0  0
    1.3054    2.6314   12.1303 C   0  0  0  0  0  0  0  0  0  0  0  0
    0.8262    3.5165   11.1628 C   0  0  0  0  0  0  0  0  0  0  0  0
    1.7006    3.9330   10.1707 C   0  0  0  0  0  0  0  0  0  0  0  0
    1.4948    4.8131    9.1162 N   0  0  0  0  0  0  0  0  0  0  0  0
    2.6280    4.8521    8.4793 C   0  0  0  0  0  0  0  0  0  0  0  0
    3.5731    4.0579    9.0246 N   0  0  0  0  0  0  0  0  0  0  0  0
    3.0312    3.4473   10.1317 C   0  0  0  0  0  0  0  0  0  0  0  0
    3.5261    2.5537   11.0860 C   0  0  0  0  0  0  0  0  0  0  0  0
   -0.5552   -0.8189   14.1920 C   0  0  0  0  0  0  0  0  0  0  0  0
   -1.9445   -1.0884   14.0613 C   0  0  0  0  0  0  0  0  0  0  0  0
   -2.7533   -0.3562   13.2050 O   0  0  0  0  0  0  0  0  0  0  0  0
   -2.2327    0.6448   12.3521 C   0  0  0  0  0  0  0  0  0  0  0  0
   -5.3466   -3.2530   13.5754 H   0  0  0  0  0  0  0  0  0  0  0  0
   -3.9668   -2.5544   12.6618 H   0  0  0  0  0  0  0  0  0  0  0  0
   -3.7533   -4.0823   13.5820 H   0  0  0  0  0  0  0  0  0  0  0  0
   -2.3288   -2.8270   14.0056 H   0  0  0  0  0  0  0  0  0  0  0  0
   -2.1981   -3.6662   16.2542 H   0  0  0  0  0  0  0  0  0  0  0  0
    0.2026   -3.2097   16.4887 H   0  0  0  0  0  0  0  0  0  0  0  0
    5.1536    1.9344   13.2517 H   0  0  0  0  0  0  0  0  0  0  0  0
    6.8406    0.8706   15.3032 H   0  0  0  0  0  0  0  0  0  0  0  0
    6.2508   -0.7585   17.3488 H   0  0  0  0  0  0  0  0  0  0  0  0
    0.6368    2.2959   12.9093 H   0  0  0  0  0  0  0  0  0  0  0  0
   -0.1953    3.8664   11.1865 H   0  0  0  0  0  0  0  0  0  0  0  0
    2.7959    5.4592    7.6020 H   0  0  0  0  0  0  0  0  0  0  0  0
    4.5050    3.9348    8.6833 H   0  0  0  0  0  0  0  0  0  0  0  0
    4.5378    2.1788   11.0381 H   0  0  0  0  0  0  0  0  0  0  0  0
   -0.0967   -0.0331   13.6101 H   0  0  0  0  0  0  0  0  0  0  0  0
   -3.0507    1.0906   11.7671 H   0  0  0  0  0  0  0  0  0  0  0  0
   -1.7468    1.4250   12.9565 H   0  0  0  0  0  0  0  0  0  0  0  0
   -1.4953    0.1975   11.6693 H   0  0  0  0  0  0  0  0  0  0  0  0
  1  2  1  0  0  0  0
  2  3  1  0  0  0  0
  3  4  1  0  0  0  0
  3 27  1  0  0  0  0
  4  5  2  0  0  0  0
  5  6  1  0  0  0  0
  6  7  2  0  0  0  0
  6 26  1  0  0  0  0
  7  8  1  0  0  0  0
  8  9  2  0  0  0  0
  8 16  1  0  0  0  0
  9 10  1  0  0  0  0
 10 11  2  0  0  0  0
 10 17  1  0  0  0  0
 11 12  1  0  0  0  0
 12 13  1  0  0  0  0
 12 16  1  0  0  0  0
 13 14  2  0  0  0  0
 14 15  1  0  0  0  0
 15 16  2  0  0  0  0
 17 18  2  0  0  0  0
 17 25  1  0  0  0  0
 18 19  1  0  0  0  0
 19 20  2  0  0  0  0
 20 21  1  0  0  0  0
 20 24  1  0  0  0  0
 21 22  2  0  0  0  0
 22 23  1  0  0  0  0
 23 24  1  0  0  0  0
 24 25  2  0  0  0  0
 26 27  2  0  0  0  0
 27 28  1  0  0  0  0
 28 29  1  0  0  0  0
  1 30  1  0  0  0  0
  1 31  1  0  0  0  0
  1 32  1  0  0  0  0
  3 33  1  0  0  0  0
  4 34  1  0  0  0  0
  5 35  1  0  0  0  0
 11 36  1  0  0  0  0
 13 37  1  0  0  0  0
 14 38  1  0  0  0  0
 18 39  1  0  0  0  0
 19 40  1  0  0  0  0
 22 41  1  0  0  0  0
 23 42  1  0  0  0  0
 25 43  1  0  0  0  0
 26 44  1  0  0  0  0
 29 45  1  0  0  0  0
 29 46  1  0  0  0  0
 29 47  1  0  0  0  0
M  END
> <IC50[nM]>
6.3

$$$$
CHEMBL3265018
  -OEChem-05192314333D
 Structure written by MMmdl.
 47 51  0     1  0  0  0  0  0999 V2000
   -4.2567   -3.1043   13.5693 C   0  0  0  0  0  0  0  0  0  0  0  0
   -3.8736   -2.3603   14.7157 O   0  0  0  0  0  0  0  0  0  0  0  0
   -2.5257   -2.1109   14.8170 C   0  0  3  0  0  0  0  0  0  0  0  0
   -1.7457   -2.8699   15.6819 C   0  0  0  0  0  0  0  0  0  0  0  0
   -0.3904   -2.6103   15.8138 C   0  0  0  0  0  0  0  0  0  0  0  0
    0.2205   -1.5845   15.0866 C   0  0  0  0  0  0  0  0  0  0  0  0
    1.6039   -1.3601   15.3216 N   0  0  0  0  0  0  0  0  0  0  0  0
    2.5369   -0.4474   14.7595 C   0  0  0  0  0  0  0  0  0  0  0  0
    2.1817    0.3719   13.7240 N   0  0  0  0  0  0  0  0  0  0  0  0
    3.1138    1.2387   13.2179 C   0  0  0  0  0  0  0  0  0  0  0  0
    4.4187    1.2840   13.7027 C   0  0  0  0  0  0  0  0  0  0  0  0
    4.7466    0.4880   14.7600 N   0  0  0  0  0  0  0  0  0  0  0  0
    5.8977    0.3770   15.4865 C   0  0  0  0  0  0  0  0  0  0  0  0
    5.5876   -0.5233   16.5295 C   0  0  0  0  0  0  0  0  0  0  0  0
    4.3760   -1.0434   16.3734 N   0  0  0  0  0  0  0  0  0  0  0  0
    3.8370   -0.3940   15.3257 C   0  0  0  0  0  0  0  0  0  0  0  0
    2.6359    2.1614   12.1223 C   0  0  0  0  0  0  0  0  0  0  0  0
    1.3054    2.6314   12.1303 C   0  0  0  0  0  0  0  0  0  0  0  0
    0.8262    3.5165   11.1628 C   0  0  0  0  0  0  0  0  0  0  0  0
    1.7006    3.9330   10.1707 C   0  0  0  0  0  0  0  0  0  0  0  0
    1.4948    4.8131    9.1162 N   0  0  0  0  0  0  0  0  0  0  0  0
    2.6280    4.8521    8.4793 C   0  0  0  0  0  0  0  0  0  0  0  0
    3.5731    4.0579    9.0246 N   0  0  0  0  0  0  0  0  0  0  0  0
    3.0312    3.4473   10.1317 C   0  0  0  0  0  0  0  0  0  0  0  0
    3.5261    2.5537   11.0860 C   0  0  0  0  0  0  0  0  0  0  0  0
   -0.5552   -0.8189   14.1920 C   0  0  0  0  0  0  0  0  0  0  0  0
   -1.9445   -1.0884   14.0613 C   0  0  0  0  0  0  0  0  0  0  0  0
   -2.7533   -0.3562   13.2050 O   0  0  0  0  0  0  0  0  0  0  0  0
   -2.2327    0.6448   12.3521 C   0  0  0  0  0  0  0  0  0  0  0  0
   -5.3466   -3.2530   13.5754 H   0  0  0  0  0  0  0  0  0  0  0  0
   -3.9668   -2.5544   12.6618 H   0  0  0  0  0  0  0  0  0  0  0  0
   -3.7533   -4.0823   13.5820 H   0  0  0  0  0  0  0  0  0  0  0  0
   -2.3288   -2.8270   14.0056 H   0  0  0  0  0  0  0  0  0  0  0  0
   -2.1981   -3.6662   16.2542 H   0  0  0  0  0  0  0  0  0  0  0  0
    0.2026   -3.2097   16.4887 H   0  0  0  0  0  0  0  0  0  0  0  0
    5.1536    1.9344   13.2517 H   0  0  0  0  0  0  0  0  0  0  0  0
    6.8406    0.8706   15.3032 H   0  0  0  0  0  0  0  0  0  0  0  0
    6.2508   -0.7585   17.3488 H   0  0  0  0  0  0  0  0  0  0  0  0
    0.6368    2.2959   12.9093 H   0  0  0  0  0  0  0  0  0  0  0  0
   -0.1953    3.8664   11.1865 H   0  0  0  0  0  0  0  0  0  0  0  0
    0.6558    5.3099    8.8944 H   0  0  0  0  0  0  0  0  0  0  0  0
    2.7959    5.4592    7.6020 H   0  0  0  0  0  0  0  0  0  0  0  0
    4.5378    2.1788   11.0381 H   0  0  0  0  0  0  0  0  0  0  0  0
   -0.0967   -0.0331   13.6101 H   0  0  0  0  0  0  0  0  0  0  0  0
   -3.0507    1.0906   11.7671 H   0  0  0  0  0  0  0  0  0  0  0  0
   -1.7468    1.4250   12.9565 H   0  0  0  0  0  0  0  0  0  0  0  0
   -1.4953    0.1975   11.6693 H   0  0  0  0  0  0  0  0  0  0  0  0
  1  2  1  0  0  0  0
  2  3  1  0  0  0  0
  3  4  1  0  0  0  0
  3 27  1  0  0  0  0
  4  5  2  0  0  0  0
  5  6  1  0  0  0  0
  6  7  2  0  0  0  0
  6 26  1  0  0  0  0
  7  8  1  0  0  0  0
  8  9  2  0  0  0  0
  8 16  1  0  0  0  0
  9 10  1  0  0  0  0
 10 11  2  0  0  0  0
 10 17  1  0  0  0  0
 11 12  1  0  0  0  0
 12 13  1  0  0  0  0
 12 16  1  0  0  0  0
 13 14  2  0  0  0  0
 14 15  1  0  0  0  0
 15 16  2  0  0  0  0
 17 18  2  0  0  0  0
 17 25  1  0  0  0  0
 18 19  1  0  0  0  0
 19 20  2  0  0  0  0
 20 21  1  0  0  0  0
 20 24  1  0  0  0  0
 21 22  1  0  0  0  0
 22 23  2  0  0  0  0
 23 24  1  0  0  0  0
 24 25  2  0  0  0  0
 26 27  2  0  0  0  0
 27 28  1  0  0  0  0
 28 29  1  0  0  0  0
  1 30  1  0  0  0  0
  1 31  1  0  0  0  0
  1 32  1  0  0  0  0
  3 33  1  0  0  0  0
  4 34  1  0  0  0  0
  5 35  1  0  0  0  0
 11 36  1  0  0  0  0
 13 37  1  0  0  0  0
 14 38  1  0  0  0  0
 18 39  1  0  0  0  0
 19 40  1  0  0  0  0
 21 41  1  0  0  0  0
 22 42  1  0  0  0  0
 25 43  1  0  0  0  0
 26 44  1  0  0  0  0
 29 45  1  0  0  0  0
 29 46  1  0  0  0  0
 29 47  1  0  0  0  0
M  END
> <IC50[nM]>
6.3

$$$$
CHEMBL3265018
  -OEChem-05192314333D
 Structure written by MMmdl.
 47 51  0     0  0  0  0  0  0999 V2000
   -4.2567   -3.1043   13.5693 C   0  0  0  0  0  0  0  0  0  0  0  0
   -3.8736   -2.3603   14.7157 O   0  0  0  0  0  0  0  0  0  0  0  0
   -2.5257   -2.1109   14.8170 C   0  0  0  0  0  0  0  0  0  0  0  0
   -1.7457   -2.8699   15.6819 C   0  0  0  0  0  0  0  0  0  0  0  0
   -0.3904   -2.6103   15.8138 C   0  0  0  0  0  0  0  0  0  0  0  0
    0.2205   -1.5845   15.0866 C   0  0  0  0  0  0  0  0  0  0  0  0
    1.6039   -1.3601   15.3216 N   0  0  0  0  0  0  0  0  0  0  0  0
    2.5369   -0.4474   14.7595 C   0  0  0  0  0  0  0  0  0  0  0  0
    2.1817    0.3719   13.7240 N   0  0  0  0  0  0  0  0  0  0  0  0
    3.1138    1.2387   13.2179 C   0  0  0  0  0  0  0  0  0  0  0  0
    4.4187    1.2840   13.7027 C   0  0  0  0  0  0  0  0  0  0  0  0
    4.7466    0.4880   14.7600 N   0  0  0  0  0  0  0  0  0  0  0  0
    5.8977    0.3770   15.4865 C   0  0  0  0  0  0  0  0  0  0  0  0
    5.5876   -0.5233   16.5295 C   0  0  0  0  0  0  0  0  0  0  0  0
    4.3760   -1.0434   16.3734 N   0  0  0  0  0  0  0  0  0  0  0  0
    3.8370   -0.3940   15.3257 C   0  0  0  0  0  0  0  0  0  0  0  0
    2.6359    2.1614   12.1223 C   0  0  0  0  0  0  0  0  0  0  0  0
    1.3054    2.6314   12.1303 C   0  0  0  0  0  0  0  0  0  0  0  0
    0.8262    3.5165   11.1628 C   0  0  0  0  0  0  0  0  0  0  0  0
    1.7006    3.9330   10.1707 C   0  0  0  0  0  0  0  0  0  0  0  0
    1.4948    4.8131    9.1162 N   0  0  0  0  0  0  0  0  0  0  0  0
    2.6280    4.8521    8.4793 C   0  0  0  0  0  0  0  0  0  0  0  0
    3.5731    4.0579    9.0246 N   0  0  0  0  0  0  0  0  0  0  0  0
    3.0312    3.4473   10.1317 C   0  0  0  0  0  0  0  0  0  0  0  0
    3.5261    2.5537   11.0860 C   0  0  0  0  0  0  0  0  0  0  0  0
   -0.5552   -0.8189   14.1920 C   0  0  0  0  0  0  0  0  0  0  0  0
   -1.9445   -1.0884   14.0613 C   0  0  0  0  0  0  0  0  0  0  0  0
   -2.7533   -0.3562   13.2050 O   0  0  0  0  0  0  0  0  0  0  0  0
   -2.2327    0.6448   12.3521 C   0  0  0  0  0  0  0  0  0  0  0  0
   -5.3466   -3.2530   13.5754 H   0  0  0  0  0  0  0  0  0  0  0  0
   -3.9668   -2.5544   12.6618 H   0  0  0  0  0  0  0  0  0  0  0  0
   -3.7533   -4.0823   13.5820 H   0  0  0  0  0  0  0  0  0  0  0  0
   -2.1981   -3.6662   16.2542 H   0  0  0  0  0  0  0  0  0  0  0  0
   -0.2169   -2.3863   16.8767 H   0  0  0  0  0  0  0  0  0  0  0  0
    0.1336   -3.5393   15.5446 H   0  0  0  0  0  0  0  0  0  0  0  0
    5.1536    1.9344   13.2517 H   0  0  0  0  0  0  0  0  0  0  0  0
    6.8406    0.8706   15.3032 H   0  0  0  0  0  0  0  0  0  0  0  0
    6.2508   -0.7585   17.3488 H   0  0  0  0  0  0  0  0  0  0  0  0
    0.6368    2.2959   12.9093 H   0  0  0  0  0  0  0  0  0  0  0  0
   -0.1953    3.8664   11.1865 H   0  0  0  0  0  0  0  0  0  0  0  0
    2.7959    5.4592    7.6020 H   0  0  0  0  0  0  0  0  0  0  0  0
    4.5050    3.9348    8.6833 H   0  0  0  0  0  0  0  0  0  0  0  0
    4.5378    2.1788   11.0381 H   0  0  0  0  0  0  0  0  0  0  0  0
   -0.0967   -0.0331   13.6101 H   0  0  0  0  0  0  0  0  0  0  0  0
   -3.0507    1.0906   11.7671 H   0  0  0  0  0  0  0  0  0  0  0  0
   -1.7468    1.4250   12.9565 H   0  0  0  0  0  0  0  0  0  0  0  0
   -1.4953    0.1975   11.6693 H   0  0  0  0  0  0  0  0  0  0  0  0
  1  2  1  0  0  0  0
  2  3  1  0  0  0  0
  3  4  2  0  0  0  0
  3 27  1  0  0  0  0
  4  5  1  0  0  0  0
  5  6  1  0  0  0  0
  6  7  2  0  0  0  0
  6 26  1  0  0  0  0
  7  8  1  0  0  0  0
  8  9  2  0  0  0  0
  8 16  1  0  0  0  0
  9 10  1  0  0  0  0
 10 11  2  0  0  0  0
 10 17  1  0  0  0  0
 11 12  1  0  0  0  0
 12 13  1  0  0  0  0
 12 16  1  0  0  0  0
 13 14  2  0  0  0  0
 14 15  1  0  0  0  0
 15 16  2  0  0  0  0
 17 18  2  0  0  0  0
 17 25  1  0  0  0  0
 18 19  1  0  0  0  0
 19 20  2  0  0  0  0
 20 21  1  0  0  0  0
 20 24  1  0  0  0  0
 21 22  2  0  0  0  0
 22 23  1  0  0  0  0
 23 24  1  0  0  0  0
 24 25  2  0  0  0  0
 26 27  2  0  0  0  0
 27 28  1  0  0  0  0
 28 29  1  0  0  0  0
  1 30  1  0  0  0  0
  1 31  1  0  0  0  0
  1 32  1  0  0  0  0
  4 33  1  0  0  0  0
  5 34  1  0  0  0  0
  5 35  1  0  0  0  0
 11 36  1  0  0  0  0
 13 37  1  0  0  0  0
 14 38  1  0  0  0  0
 18 39  1  0  0  0  0
 19 40  1  0  0  0  0
 22 41  1  0  0  0  0
 23 42  1  0  0  0  0
 25 43  1  0  0  0  0
 26 44  1  0  0  0  0
 29 45  1  0  0  0  0
 29 46  1  0  0  0  0
 29 47  1  0  0  0  0
M  END
> <IC50[nM]>
6.3

$$$$
CHEMBL3265018
  -OEChem-05192314333D
 Structure written by MMmdl.
 47 51  0     0  0  0  0  0  0999 V2000
   -4.2567   -3.1043   13.5693 C   0  0  0  0  0  0  0  0  0  0  0  0
   -3.8736   -2.3603   14.7157 O   0  0  0  0  0  0  0  0  0  0  0  0
   -2.5257   -2.1109   14.8170 C   0  0  0  0  0  0  0  0  0  0  0  0
   -1.7457   -2.8699   15.6819 C   0  0  0  0  0  0  0  0  0  0  0  0
   -0.3904   -2.6103   15.8138 C   0  0  0  0  0  0  0  0  0  0  0  0
    0.2205   -1.5845   15.0866 C   0  0  0  0  0  0  0  0  0  0  0  0
    1.6039   -1.3601   15.3216 N   0  0  0  0  0  0  0  0  0  0  0  0
    2.5369   -0.4474   14.7595 C   0  0  0  0  0  0  0  0  0  0  0  0
    2.1817    0.3719   13.7240 N   0  0  0  0  0  0  0  0  0  0  0  0
    3.1138    1.2387   13.2179 C   0  0  0  0  0  0  0  0  0  0  0  0
    4.4187    1.2840   13.7027 C   0  0  0  0  0  0  0  0  0  0  0  0
    4.7466    0.4880   14.7600 N   0  0  0  0  0  0  0  0  0  0  0  0
    5.8977    0.3770   15.4865 C   0  0  0  0  0  0  0  0  0  0  0  0
    5.5876   -0.5233   16.5295 C   0  0  0  0  0  0  0  0  0  0  0  0
    4.3760   -1.0434   16.3734 N   0  0  0  0  0  0  0  0  0  0  0  0
    3.8370   -0.3940   15.3257 C   0  0  0  0  0  0  0  0  0  0  0  0
    2.6359    2.1614   12.1223 C   0  0  0  0  0  0  0  0  0  0  0  0
    1.3054    2.6314   12.1303 C   0  0  0  0  0  0  0  0  0  0  0  0
    0.8262    3.5165   11.1628 C   0  0  0  0  0  0  0  0  0  0  0  0
    1.7006    3.9330   10.1707 C   0  0  0  0  0  0  0  0  0  0  0  0
    1.4948    4.8131    9.1162 N   0  0  0  0  0  0  0  0  0  0  0  0
    2.6280    4.8521    8.4793 C   0  0  0  0  0  0  0  0  0  0  0  0
    3.5731    4.0579    9.0246 N   0  0  0  0  0  0  0  0  0  0  0  0
    3.0312    3.4473   10.1317 C   0  0  0  0  0  0  0  0  0  0  0  0
    3.5261    2.5537   11.0860 C   0  0  0  0  0  0  0  0  0  0  0  0
   -0.5552   -0.8189   14.1920 C   0  0  0  0  0  0  0  0  0  0  0  0
   -1.9445   -1.0884   14.0613 C   0  0  0  0  0  0  0  0  0  0  0  0
   -2.7533   -0.3562   13.2050 O   0  0  0  0  0  0  0  0  0  0  0  0
   -2.2327    0.6448   12.3521 C   0  0  0  0  0  0  0  0  0  0  0  0
   -5.3466   -3.2530   13.5754 H   0  0  0  0  0  0  0  0  0  0  0  0
   -3.9668   -2.5544   12.6618 H   0  0  0  0  0  0  0  0  0  0  0  0
   -3.7533   -4.0823   13.5820 H   0  0  0  0  0  0  0  0  0  0  0  0
   -2.1981   -3.6662   16.2542 H   0  0  0  0  0  0  0  0  0  0  0  0
   -0.2169   -2.3863   16.8767 H   0  0  0  0  0  0  0  0  0  0  0  0
    0.1336   -3.5393   15.5446 H   0  0  0  0  0  0  0  0  0  0  0  0
    5.1536    1.9344   13.2517 H   0  0  0  0  0  0  0  0  0  0  0  0
    6.8406    0.8706   15.3032 H   0  0  0  0  0  0  0  0  0  0  0  0
    6.2508   -0.7585   17.3488 H   0  0  0  0  0  0  0  0  0  0  0  0
    0.6368    2.2959   12.9093 H   0  0  0  0  0  0  0  0  0  0  0  0
   -0.1953    3.8664   11.1865 H   0  0  0  0  0  0  0  0  0  0  0  0
    0.6558    5.3099    8.8944 H   0  0  0  0  0  0  0  0  0  0  0  0
    2.7959    5.4592    7.6020 H   0  0  0  0  0  0  0  0  0  0  0  0
    4.5378    2.1788   11.0381 H   0  0  0  0  0  0  0  0  0  0  0  0
   -0.0967   -0.0331   13.6101 H   0  0  0  0  0  0  0  0  0  0  0  0
   -3.0507    1.0906   11.7671 H   0  0  0  0  0  0  0  0  0  0  0  0
   -1.7468    1.4250   12.9565 H   0  0  0  0  0  0  0  0  0  0  0  0
   -1.4953    0.1975   11.6693 H   0  0  0  0  0  0  0  0  0  0  0  0
  1  2  1  0  0  0  0
  2  3  1  0  0  0  0
  3  4  2  0  0  0  0
  3 27  1  0  0  0  0
  4  5  1  0  0  0  0
  5  6  1  0  0  0  0
  6  7  2  0  0  0  0
  6 26  1  0  0  0  0
  7  8  1  0  0  0  0
  8  9  2  0  0  0  0
  8 16  1  0  0  0  0
  9 10  1  0  0  0  0
 10 11  2  0  0  0  0
 10 17  1  0  0  0  0
 11 12  1  0  0  0  0
 12 13  1  0  0  0  0
 12 16  1  0  0  0  0
 13 14  2  0  0  0  0
 14 15  1  0  0  0  0
 15 16  2  0  0  0  0
 17 18  2  0  0  0  0
 17 25  1  0  0  0  0
 18 19  1  0  0  0  0
 19 20  2  0  0  0  0
 20 21  1  0  0  0  0
 20 24  1  0  0  0  0
 21 22  1  0  0  0  0
 22 23  2  0  0  0  0
 23 24  1  0  0  0  0
 24 25  2  0  0  0  0
 26 27  2  0  0  0  0
 27 28  1  0  0  0  0
 28 29  1  0  0  0  0
  1 30  1  0  0  0  0
  1 31  1  0  0  0  0
  1 32  1  0  0  0  0
  4 33  1  0  0  0  0
  5 34  1  0  0  0  0
  5 35  1  0  0  0  0
 11 36  1  0  0  0  0
 13 37  1  0  0  0  0
 14 38  1  0  0  0  0
 18 39  1  0  0  0  0
 19 40  1  0  0  0  0
 21 41  1  0  0  0  0
 22 42  1  0  0  0  0
 25 43  1  0  0  0  0
 26 44  1  0  0  0  0
 29 45  1  0  0  0  0
 29 46  1  0  0  0  0
 29 47  1  0  0  0  0
M  END
> <IC50[nM]>
6.3

$$$$
CHEMBL3265018
  -OEChem-05192314333D
 Structure written by MMmdl.
 47 51  0     0  0  0  0  0  0999 V2000
   -4.2567   -3.1043   13.5693 C   0  0  0  0  0  0  0  0  0  0  0  0
   -3.8736   -2.3603   14.7157 O   0  0  0  0  0  0  0  0  0  0  0  0
   -2.5257   -2.1109   14.8170 C   0  0  0  0  0  0  0  0  0  0  0  0
   -1.7457   -2.8699   15.6819 C   0  0  0  0  0  0  0  0  0  0  0  0
   -0.3904   -2.6103   15.8138 C   0  0  0  0  0  0  0  0  0  0  0  0
    0.2205   -1.5845   15.0866 C   0  0  0  0  0  0  0  0  0  0  0  0
    1.6039   -1.3601   15.3216 N   0  0  0  0  0  0  0  0  0  0  0  0
    2.5369   -0.4474   14.7595 C   0  0  0  0  0  0  0  0  0  0  0  0
    2.1817    0.3719   13.7240 N   0  0  0  0  0  0  0  0  0  0  0  0
    3.1138    1.2387   13.2179 C   0  0  0  0  0  0  0  0  0  0  0  0
    4.4187    1.2840   13.7027 C   0  0  0  0  0  0  0  0  0  0  0  0
    4.7466    0.4880   14.7600 N   0  0  0  0  0  0  0  0  0  0  0  0
    5.8977    0.3770   15.4865 C   0  0  0  0  0  0  0  0  0  0  0  0
    5.5876   -0.5233   16.5295 C   0  0  0  0  0  0  0  0  0  0  0  0
    4.3760   -1.0434   16.3734 N   0  0  0  0  0  0  0  0  0  0  0  0
    3.8370   -0.3940   15.3257 C   0  0  0  0  0  0  0  0  0  0  0  0
    2.6359    2.1614   12.1223 C   0  0  0  0  0  0  0  0  0  0  0  0
    1.3054    2.6314   12.1303 C   0  0  0  0  0  0  0  0  0  0  0  0
    0.8262    3.5165   11.1628 C   0  0  0  0  0  0  0  0  0  0  0  0
    1.7006    3.9330   10.1707 C   0  0  0  0  0  0  0  0  0  0  0  0
    1.4948    4.8131    9.1162 N   0  0  0  0  0  0  0  0  0  0  0  0
    2.6280    4.8521    8.4793 C   0  0  0  0  0  0  0  0  0  0  0  0
    3.5731    4.0579    9.0246 N   0  0  0  0  0  0  0  0  0  0  0  0
    3.0312    3.4473   10.1317 C   0  0  0  0  0  0  0  0  0  0  0  0
    3.5261    2.5537   11.0860 C   0  0  0  0  0  0  0  0  0  0  0  0
   -0.5552   -0.8189   14.1920 C   0  0  0  0  0  0  0  0  0  0  0  0
   -1.9445   -1.0884   14.0613 C   0  0  0  0  0  0  0  0  0  0  0  0
   -2.7533   -0.3562   13.2050 O   0  0  0  0  0  0  0  0  0  0  0  0
   -2.2327    0.6448   12.3521 C   0  0  0  0  0  0  0  0  0  0  0  0
   -5.3466   -3.2530   13.5754 H   0  0  0  0  0  0  0  0  0  0  0  0
   -3.9668   -2.5544   12.6618 H   0  0  0  0  0  0  0  0  0  0  0  0
   -3.7533   -4.0823   13.5820 H   0  0  0  0  0  0  0  0  0  0  0  0
   -2.1981   -3.6662   16.2542 H   0  0  0  0  0  0  0  0  0  0  0  0
    0.2026   -3.2097   16.4887 H   0  0  0  0  0  0  0  0  0  0  0  0
    5.1536    1.9344   13.2517 H   0  0  0  0  0  0  0  0  0  0  0  0
    6.8406    0.8706   15.3032 H   0  0  0  0  0  0  0  0  0  0  0  0
    6.2508   -0.7585   17.3488 H   0  0  0  0  0  0  0  0  0  0  0  0
    0.6368    2.2959   12.9093 H   0  0  0  0  0  0  0  0  0  0  0  0
   -0.1953    3.8664   11.1865 H   0  0  0  0  0  0  0  0  0  0  0  0
    2.7959    5.4592    7.6020 H   0  0  0  0  0  0  0  0  0  0  0  0
    4.5050    3.9348    8.6833 H   0  0  0  0  0  0  0  0  0  0  0  0
    4.5378    2.1788   11.0381 H   0  0  0  0  0  0  0  0  0  0  0  0
   -0.4614    0.2313   14.5055 H   0  0  0  0  0  0  0  0  0  0  0  0
   -0.1098   -0.9449   13.1941 H   0  0  0  0  0  0  0  0  0  0  0  0
   -3.0507    1.0906   11.7671 H   0  0  0  0  0  0  0  0  0  0  0  0
   -1.7468    1.4250   12.9565 H   0  0  0  0  0  0  0  0  0  0  0  0
   -1.4953    0.1975   11.6693 H   0  0  0  0  0  0  0  0  0  0  0  0
  1  2  1  0  0  0  0
  2  3  1  0  0  0  0
  3  4  1  0  0  0  0
  3 27  2  0  0  0  0
  4  5  2  0  0  0  0
  5  6  1  0  0  0  0
  6  7  2  0  0  0  0
  6 26  1  0  0  0  0
  7  8  1  0  0  0  0
  8  9  2  0  0  0  0
  8 16  1  0  0  0  0
  9 10  1  0  0  0  0
 10 11  2  0  0  0  0
 10 17  1  0  0  0  0
 11 12  1  0  0  0  0
 12 13  1  0  0  0  0
 12 16  1  0  0  0  0
 13 14  2  0  0  0  0
 14 15  1  0  0  0  0
 15 16  2  0  0  0  0
 17 18  2  0  0  0  0
 17 25  1  0  0  0  0
 18 19  1  0  0  0  0
 19 20  2  0  0  0  0
 20 21  1  0  0  0  0
 20 24  1  0  0  0  0
 21 22  2  0  0  0  0
 22 23  1  0  0  0  0
 23 24  1  0  0  0  0
 24 25  2  0  0  0  0
 26 27  1  0  0  0  0
 27 28  1  0  0  0  0
 28 29  1  0  0  0  0
  1 30  1  0  0  0  0
  1 31  1  0  0  0  0
  1 32  1  0  0  0  0
  4 33  1  0  0  0  0
  5 34  1  0  0  0  0
 11 35  1  0  0  0  0
 13 36  1  0  0  0  0
 14 37  1  0  0  0  0
 18 38  1  0  0  0  0
 19 39  1  0  0  0  0
 22 40  1  0  0  0  0
 23 41  1  0  0  0  0
 25 42  1  0  0  0  0
 26 43  1  0  0  0  0
 26 44  1  0  0  0  0
 29 45  1  0  0  0  0
 29 46  1  0  0  0  0
 29 47  1  0  0  0  0
M  END
> <IC50[nM]>
6.3

$$$$
CHEMBL3265018
  -OEChem-05192314333D
 Structure written by MMmdl.
 47 51  0     0  0  0  0  0  0999 V2000
   -4.2567   -3.1043   13.5693 C   0  0  0  0  0  0  0  0  0  0  0  0
   -3.8736   -2.3603   14.7157 O   0  0  0  0  0  0  0  0  0  0  0  0
   -2.5257   -2.1109   14.8170 C   0  0  0  0  0  0  0  0  0  0  0  0
   -1.7457   -2.8699   15.6819 C   0  0  0  0  0  0  0  0  0  0  0  0
   -0.3904   -2.6103   15.8138 C   0  0  0  0  0  0  0  0  0  0  0  0
    0.2205   -1.5845   15.0866 C   0  0  0  0  0  0  0  0  0  0  0  0
    1.6039   -1.3601   15.3216 N   0  0  0  0  0  0  0  0  0  0  0  0
    2.5369   -0.4474   14.7595 C   0  0  0  0  0  0  0  0  0  0  0  0
    2.1817    0.3719   13.7240 N   0  0  0  0  0  0  0  0  0  0  0  0
    3.1138    1.2387   13.2179 C   0  0  0  0  0  0  0  0  0  0  0  0
    4.4187    1.2840   13.7027 C   0  0  0  0  0  0  0  0  0  0  0  0
    4.7466    0.4880   14.7600 N   0  0  0  0  0  0  0  0  0  0  0  0
    5.8977    0.3770   15.4865 C   0  0  0  0  0  0  0  0  0  0  0  0
    5.5876   -0.5233   16.5295 C   0  0  0  0  0  0  0  0  0  0  0  0
    4.3760   -1.0434   16.3734 N   0  0  0  0  0  0  0  0  0  0  0  0
    3.8370   -0.3940   15.3257 C   0  0  0  0  0  0  0  0  0  0  0  0
    2.6359    2.1614   12.1223 C   0  0  0  0  0  0  0  0  0  0  0  0
    1.3054    2.6314   12.1303 C   0  0  0  0  0  0  0  0  0  0  0  0
    0.8262    3.5165   11.1628 C   0  0  0  0  0  0  0  0  0  0  0  0
    1.7006    3.9330   10.1707 C   0  0  0  0  0  0  0  0  0  0  0  0
    1.4948    4.8131    9.1162 N   0  0  0  0  0  0  0  0  0  0  0  0
    2.6280    4.8521    8.4793 C   0  0  0  0  0  0  0  0  0  0  0  0
    3.5731    4.0579    9.0246 N   0  0  0  0  0  0  0  0  0  0  0  0
    3.0312    3.4473   10.1317 C   0  0  0  0  0  0  0  0  0  0  0  0
    3.5261    2.5537   11.0860 C   0  0  0  0  0  0  0  0  0  0  0  0
   -0.5552   -0.8189   14.1920 C   0  0  0  0  0  0  0  0  0  0  0  0
   -1.9445   -1.0884   14.0613 C   0  0  0  0  0  0  0  0  0  0  0  0
   -2.7533   -0.3562   13.2050 O   0  0  0  0  0  0  0  0  0  0  0  0
   -2.2327    0.6448   12.3521 C   0  0  0  0  0  0  0  0  0  0  0  0
   -5.3466   -3.2530   13.5754 H   0  0  0  0  0  0  0  0  0  0  0  0
   -3.9668   -2.5544   12.6618 H   0  0  0  0  0  0  0  0  0  0  0  0
   -3.7533   -4.0823   13.5820 H   0  0  0  0  0  0  0  0  0  0  0  0
   -2.1981   -3.6662   16.2542 H   0  0  0  0  0  0  0  0  0  0  0  0
    0.2026   -3.2097   16.4887 H   0  0  0  0  0  0  0  0  0  0  0  0
    5.1536    1.9344   13.2517 H   0  0  0  0  0  0  0  0  0  0  0  0
    6.8406    0.8706   15.3032 H   0  0  0  0  0  0  0  0  0  0  0  0
    6.2508   -0.7585   17.3488 H   0  0  0  0  0  0  0  0  0  0  0  0
    0.6368    2.2959   12.9093 H   0  0  0  0  0  0  0  0  0  0  0  0
   -0.1953    3.8664   11.1865 H   0  0  0  0  0  0  0  0  0  0  0  0
    0.6558    5.3099    8.8944 H   0  0  0  0  0  0  0  0  0  0  0  0
    2.7959    5.4592    7.6020 H   0  0  0  0  0  0  0  0  0  0  0  0
    4.5378    2.1788   11.0381 H   0  0  0  0  0  0  0  0  0  0  0  0
   -0.4614    0.2313   14.5055 H   0  0  0  0  0  0  0  0  0  0  0  0
   -0.1098   -0.9449   13.1941 H   0  0  0  0  0  0  0  0  0  0  0  0
   -3.0507    1.0906   11.7671 H   0  0  0  0  0  0  0  0  0  0  0  0
   -1.7468    1.4250   12.9565 H   0  0  0  0  0  0  0  0  0  0  0  0
   -1.4953    0.1975   11.6693 H   0  0  0  0  0  0  0  0  0  0  0  0
  1  2  1  0  0  0  0
  2  3  1  0  0  0  0
  3  4  1  0  0  0  0
  3 27  2  0  0  0  0
  4  5  2  0  0  0  0
  5  6  1  0  0  0  0
  6  7  2  0  0  0  0
  6 26  1  0  0  0  0
  7  8  1  0  0  0  0
  8  9  2  0  0  0  0
  8 16  1  0  0  0  0
  9 10  1  0  0  0  0
 10 11  2  0  0  0  0
 10 17  1  0  0  0  0
 11 12  1  0  0  0  0
 12 13  1  0  0  0  0
 12 16  1  0  0  0  0
 13 14  2  0  0  0  0
 14 15  1  0  0  0  0
 15 16  2  0  0  0  0
 17 18  2  0  0  0  0
 17 25  1  0  0  0  0
 18 19  1  0  0  0  0
 19 20  2  0  0  0  0
 20 21  1  0  0  0  0
 20 24  1  0  0  0  0
 21 22  1  0  0  0  0
 22 23  2  0  0  0  0
 23 24  1  0  0  0  0
 24 25  2  0  0  0  0
 26 27  1  0  0  0  0
 27 28  1  0  0  0  0
 28 29  1  0  0  0  0
  1 30  1  0  0  0  0
  1 31  1  0  0  0  0
  1 32  1  0  0  0  0
  4 33  1  0  0  0  0
  5 34  1  0  0  0  0
 11 35  1  0  0  0  0
 13 36  1  0  0  0  0
 14 37  1  0  0  0  0
 18 38  1  0  0  0  0
 19 39  1  0  0  0  0
 21 40  1  0  0  0  0
 22 41  1  0  0  0  0
 25 42  1  0  0  0  0
 26 43  1  0  0  0  0
 26 44  1  0  0  0  0
 29 45  1  0  0  0  0
 29 46  1  0  0  0  0
 29 47  1  0  0  0  0
M  END
> <IC50[nM]>
6.3

$$$$
CHEMBL3265018
  -OEChem-05192314333D
 Structure written by MMmdl.
 47 51  0     0  0  0  0  0  0999 V2000
   -4.2567   -3.1043   13.5693 C   0  0  0  0  0  0  0  0  0  0  0  0
   -3.8736   -2.3603   14.7157 O   0  0  0  0  0  0  0  0  0  0  0  0
   -2.5257   -2.1109   14.8170 C   0  0  0  0  0  0  0  0  0  0  0  0
   -1.7457   -2.8699   15.6819 C   0  0  0  0  0  0  0  0  0  0  0  0
   -0.3904   -2.6103   15.8138 C   0  0  0  0  0  0  0  0  0  0  0  0
    0.2205   -1.5845   15.0866 C   0  0  0  0  0  0  0  0  0  0  0  0
    1.6039   -1.3601   15.3216 N   0  0  0  0  0  0  0  0  0  0  0  0
    2.5369   -0.4474   14.7595 C   0  0  0  0  0  0  0  0  0  0  0  0
    2.1817    0.3719   13.7240 N   0  0  0  0  0  0  0  0  0  0  0  0
    3.1138    1.2387   13.2179 C   0  0  0  0  0  0  0  0  0  0  0  0
    4.4187    1.2840   13.7027 C   0  0  0  0  0  0  0  0  0  0  0  0
    4.7466    0.4880   14.7600 N   0  0  0  0  0  0  0  0  0  0  0  0
    5.8977    0.3770   15.4865 C   0  0  0  0  0  0  0  0  0  0  0  0
    5.5876   -0.5233   16.5295 C   0  0  0  0  0  0  0  0  0  0  0  0
    4.3760   -1.0434   16.3734 N   0  0  0  0  0  0  0  0  0  0  0  0
    3.8370   -0.3940   15.3257 C   0  0  0  0  0  0  0  0  0  0  0  0
    2.6359    2.1614   12.1223 C   0  0  0  0  0  0  0  0  0  0  0  0
    1.3054    2.6314   12.1303 C   0  0  0  0  0  0  0  0  0  0  0  0
    0.8262    3.5165   11.1628 C   0  0  0  0  0  0  0  0  0  0  0  0
    1.7006    3.9330   10.1707 C   0  0  0  0  0  0  0  0  0  0  0  0
    1.4948    4.8131    9.1162 N   0  0  0  0  0  0  0  0  0  0  0  0
    2.6280    4.8521    8.4793 C   0  0  0  0  0  0  0  0  0  0  0  0
    3.5731    4.0579    9.0246 N   0  0  0  0  0  0  0  0  0  0  0  0
    3.0312    3.4473   10.1317 C   0  0  0  0  0  0  0  0  0  0  0  0
    3.5261    2.5537   11.0860 C   0  0  0  0  0  0  0  0  0  0  0  0
   -0.5552   -0.8189   14.1920 C   0  0  0  0  0  0  0  0  0  0  0  0
   -1.9445   -1.0884   14.0613 C   0  0  0  0  0  0  0  0  0  0  0  0
   -2.7533   -0.3562   13.2050 O   0  0  0  0  0  0  0  0  0  0  0  0
   -2.2327    0.6448   12.3521 C   0  0  0  0  0  0  0  0  0  0  0  0
   -5.3466   -3.2530   13.5754 H   0  0  0  0  0  0  0  0  0  0  0  0
   -3.9668   -2.5544   12.6618 H   0  0  0  0  0  0  0  0  0  0  0  0
   -3.7533   -4.0823   13.5820 H   0  0  0  0  0  0  0  0  0  0  0  0
   -2.1981   -3.6662   16.2542 H   0  0  0  0  0  0  0  0  0  0  0  0
    0.2026   -3.2097   16.4887 H   0  0  0  0  0  0  0  0  0  0  0  0
    5.0842    1.0099   12.8708 H   0  0  0  0  0  0  0  0  0  0  0  0
    4.6175    2.3230   14.0042 H   0  0  0  0  0  0  0  0  0  0  0  0
    6.8406    0.8706   15.3032 H   0  0  0  0  0  0  0  0  0  0  0  0
    6.2508   -0.7585   17.3488 H   0  0  0  0  0  0  0  0  0  0  0  0
    0.6368    2.2959   12.9093 H   0  0  0  0  0  0  0  0  0  0  0  0
   -0.1953    3.8664   11.1865 H   0  0  0  0  0  0  0  0  0  0  0  0
    2.4569    4.5297    7.4416 H   0  0  0  0  0  0  0  0  0  0  0  0
    2.9966    5.8885    8.4852 H   0  0  0  0  0  0  0  0  0  0  0  0
    4.5378    2.1788   11.0381 H   0  0  0  0  0  0  0  0  0  0  0  0
   -0.0967   -0.0331   13.6101 H   0  0  0  0  0  0  0  0  0  0  0  0
   -3.0507    1.0906   11.7671 H   0  0  0  0  0  0  0  0  0  0  0  0
   -1.7468    1.4250   12.9565 H   0  0  0  0  0  0  0  0  0  0  0  0
   -1.4953    0.1975   11.6693 H   0  0  0  0  0  0  0  0  0  0  0  0
  1  2  1  0  0  0  0
  2  3  1  0  0  0  0
  3  4  2  0  0  0  0
  3 27  1  0  0  0  0
  4  5  1  0  0  0  0
  5  6  2  0  0  0  0
  6  7  1  0  0  0  0
  6 26  1  0  0  0  0
  7  8  2  0  0  0  0
  8  9  1  0  0  0  0
  8 16  1  0  0  0  0
  9 10  2  0  0  0  0
 10 11  1  0  0  0  0
 10 17  1  0  0  0  0
 11 12  1  0  0  0  0
 12 13  1  0  0  0  0
 12 16  1  0  0  0  0
 13 14  2  0  0  0  0
 14 15  1  0  0  0  0
 15 16  2  0  0  0  0
 17 18  1  0  0  0  0
 17 25  2  0  0  0  0
 18 19  2  0  0  0  0
 19 20  1  0  0  0  0
 20 21  2  0  0  0  0
 20 24  1  0  0  0  0
 21 22  1  0  0  0  0
 22 23  1  0  0  0  0
 23 24  2  0  0  0  0
 24 25  1  0  0  0  0
 26 27  2  0  0  0  0
 27 28  1  0  0  0  0
 28 29  1  0  0  0  0
  1 30  1  0  0  0  0
  1 31  1  0  0  0  0
  1 32  1  0  0  0  0
  4 33  1  0  0  0  0
  5 34  1  0  0  0  0
 11 35  1  0  0  0  0
 11 36  1  0  0  0  0
 13 37  1  0  0  0  0
 14 38  1  0  0  0  0
 18 39  1  0  0  0  0
 19 40  1  0  0  0  0
 22 41  1  0  0  0  0
 22 42  1  0  0  0  0
 25 43  1  0  0  0  0
 26 44  1  0  0  0  0
 29 45  1  0  0  0  0
 29 46  1  0  0  0  0
 29 47  1  0  0  0  0
M  END
> <IC50[nM]>
6.3

$$$$
CHEMBL3265018
  -OEChem-05192314333D
 Structure written by MMmdl.
 47 51  0     0  0  0  0  0  0999 V2000
   -4.2567   -3.1043   13.5693 C   0  0  0  0  0  0  0  0  0  0  0  0
   -3.8736   -2.3603   14.7157 O   0  0  0  0  0  0  0  0  0  0  0  0
   -2.5257   -2.1109   14.8170 C   0  0  0  0  0  0  0  0  0  0  0  0
   -1.7457   -2.8699   15.6819 C   0  0  0  0  0  0  0  0  0  0  0  0
   -0.3904   -2.6103   15.8138 C   0  0  0  0  0  0  0  0  0  0  0  0
    0.2205   -1.5845   15.0866 C   0  0  0  0  0  0  0  0  0  0  0  0
    1.6039   -1.3601   15.3216 N   0  0  0  0  0  0  0  0  0  0  0  0
    2.5369   -0.4474   14.7595 C   0  0  0  0  0  0  0  0  0  0  0  0
    2.1817    0.3719   13.7240 N   0  0  0  0  0  0  0  0  0  0  0  0
    3.1138    1.2387   13.2179 C   0  0  0  0  0  0  0  0  0  0  0  0
    4.4187    1.2840   13.7027 C   0  0  0  0  0  0  0  0  0  0  0  0
    4.7466    0.4880   14.7600 N   0  0  0  0  0  0  0  0  0  0  0  0
    5.8977    0.3770   15.4865 C   0  0  0  0  0  0  0  0  0  0  0  0
    5.5876   -0.5233   16.5295 C   0  0  0  0  0  0  0  0  0  0  0  0
    4.3760   -1.0434   16.3734 N   0  0  0  0  0  0  0  0  0  0  0  0
    3.8370   -0.3940   15.3257 C   0  0  0  0  0  0  0  0  0  0  0  0
    2.6359    2.1614   12.1223 C   0  0  0  0  0  0  0  0  0  0  0  0
    1.3054    2.6314   12.1303 C   0  0  0  0  0  0  0  0  0  0  0  0
    0.8262    3.5165   11.1628 C   0  0  0  0  0  0  0  0  0  0  0  0
    1.7006    3.9330   10.1707 C   0  0  0  0  0  0  0  0  0  0  0  0
    1.4948    4.8131    9.1162 N   0  0  0  0  0  0  0  0  0  0  0  0
    2.6280    4.8521    8.4793 C   0  0  0  0  0  0  0  0  0  0  0  0
    3.5731    4.0579    9.0246 N   0  0  0  0  0  0  0  0  0  0  0  0
    3.0312    3.4473   10.1317 C   0  0  0  0  0  0  0  0  0  0  0  0
    3.5261    2.5537   11.0860 C   0  0  0  0  0  0  0  0  0  0  0  0
   -0.5552   -0.8189   14.1920 C   0  0  0  0  0  0  0  0  0  0  0  0
   -1.9445   -1.0884   14.0613 C   0  0  0  0  0  0  0  0  0  0  0  0
   -2.7533   -0.3562   13.2050 O   0  0  0  0  0  0  0  0  0  0  0  0
   -2.2327    0.6448   12.3521 C   0  0  0  0  0  0  0  0  0  0  0  0
   -5.3466   -3.2530   13.5754 H   0  0  0  0  0  0  0  0  0  0  0  0
   -3.9668   -2.5544   12.6618 H   0  0  0  0  0  0  0  0  0  0  0  0
   -3.7533   -4.0823   13.5820 H   0  0  0  0  0  0  0  0  0  0  0  0
   -2.1981   -3.6662   16.2542 H   0  0  0  0  0  0  0  0  0  0  0  0
    0.2026   -3.2097   16.4887 H   0  0  0  0  0  0  0  0  0  0  0  0
    1.9971   -1.9610   16.0175 H   0  0  0  0  0  0  0  0  0  0  0  0
    5.0842    1.0099   12.8708 H   0  0  0  0  0  0  0  0  0  0  0  0
    4.6175    2.3230   14.0042 H   0  0  0  0  0  0  0  0  0  0  0  0
    6.8406    0.8706   15.3032 H   0  0  0  0  0  0  0  0  0  0  0  0
    6.2508   -0.7585   17.3488 H   0  0  0  0  0  0  0  0  0  0  0  0
    0.6368    2.2959   12.9093 H   0  0  0  0  0  0  0  0  0  0  0  0
   -0.1953    3.8664   11.1865 H   0  0  0  0  0  0  0  0  0  0  0  0
    2.7959    5.4592    7.6020 H   0  0  0  0  0  0  0  0  0  0  0  0
    4.5378    2.1788   11.0381 H   0  0  0  0  0  0  0  0  0  0  0  0
   -0.0967   -0.0331   13.6101 H   0  0  0  0  0  0  0  0  0  0  0  0
   -3.0507    1.0906   11.7671 H   0  0  0  0  0  0  0  0  0  0  0  0
   -1.7468    1.4250   12.9565 H   0  0  0  0  0  0  0  0  0  0  0  0
   -1.4953    0.1975   11.6693 H   0  0  0  0  0  0  0  0  0  0  0  0
  1  2  1  0  0  0  0
  2  3  1  0  0  0  0
  3  4  2  0  0  0  0
  3 27  1  0  0  0  0
  4  5  1  0  0  0  0
  5  6  2  0  0  0  0
  6  7  1  0  0  0  0
  6 26  1  0  0  0  0
  7  8  1  0  0  0  0
  8  9  2  0  0  0  0
  8 16  1  0  0  0  0
  9 10  1  0  0  0  0
 10 11  1  0  0  0  0
 10 17  2  3  0  0  0
 11 12  1  0  0  0  0
 12 13  1  0  0  0  0
 12 16  1  0  0  0  0
 13 14  2  0  0  0  0
 14 15  1  0  0  0  0
 15 16  2  0  0  0  0
 17 18  1  0  0  0  0
 17 25  1  0  0  0  0
 18 19  2  0  0  0  0
 19 20  1  0  0  0  0
 20 21  2  0  0  0  0
 20 24  1  0  0  0  0
 21 22  1  0  0  0  0
 22 23  2  0  0  0  0
 23 24  1  0  0  0  0
 24 25  2  0  0  0  0
 26 27  2  0  0  0  0
 27 28  1  0  0  0  0
 28 29  1  0  0  0  0
  1 30  1  0  0  0  0
  1 31  1  0  0  0  0
  1 32  1  0  0  0  0
  4 33  1  0  0  0  0
  5 34  1  0  0  0  0
  7 35  1  0  0  0  0
 11 36  1  0  0  0  0
 11 37  1  0  0  0  0
 13 38  1  0  0  0  0
 14 39  1  0  0  0  0
 18 40  1  0  0  0  0
 19 41  1  0  0  0  0
 22 42  1  0  0  0  0
 25 43  1  0  0  0  0
 26 44  1  0  0  0  0
 29 45  1  0  0  0  0
 29 46  1  0  0  0  0
 29 47  1  0  0  0  0
M  END
> <IC50[nM]>
6.3

$$$$
CHEMBL3265018
  -OEChem-05192314333D
 Structure written by MMmdl.
 47 51  0     0  0  0  0  0  0999 V2000
   -4.2567   -3.1043   13.5693 C   0  0  0  0  0  0  0  0  0  0  0  0
   -3.8736   -2.3603   14.7157 O   0  0  0  0  0  0  0  0  0  0  0  0
   -2.5257   -2.1109   14.8170 C   0  0  0  0  0  0  0  0  0  0  0  0
   -1.7457   -2.8699   15.6819 C   0  0  0  0  0  0  0  0  0  0  0  0
   -0.3904   -2.6103   15.8138 C   0  0  0  0  0  0  0  0  0  0  0  0
    0.2205   -1.5845   15.0866 C   0  0  0  0  0  0  0  0  0  0  0  0
    1.6039   -1.3601   15.3216 N   0  0  0  0  0  0  0  0  0  0  0  0
    2.5369   -0.4474   14.7595 C   0  0  0  0  0  0  0  0  0  0  0  0
    2.1817    0.3719   13.7240 N   0  0  0  0  0  0  0  0  0  0  0  0
    3.1138    1.2387   13.2179 C   0  0  0  0  0  0  0  0  0  0  0  0
    4.4187    1.2840   13.7027 C   0  0  0  0  0  0  0  0  0  0  0  0
    4.7466    0.4880   14.7600 N   0  0  0  0  0  0  0  0  0  0  0  0
    5.8977    0.3770   15.4865 C   0  0  0  0  0  0  0  0  0  0  0  0
    5.5876   -0.5233   16.5295 C   0  0  0  0  0  0  0  0  0  0  0  0
    4.3760   -1.0434   16.3734 N   0  0  0  0  0  0  0  0  0  0  0  0
    3.8370   -0.3940   15.3257 C   0  0  0  0  0  0  0  0  0  0  0  0
    2.6359    2.1614   12.1223 C   0  0  0  0  0  0  0  0  0  0  0  0
    1.3054    2.6314   12.1303 C   0  0  0  0  0  0  0  0  0  0  0  0
    0.8262    3.5165   11.1628 C   0  0  0  0  0  0  0  0  0  0  0  0
    1.7006    3.9330   10.1707 C   0  0  0  0  0  0  0  0  0  0  0  0
    1.4948    4.8131    9.1162 N   0  0  0  0  0  0  0  0  0  0  0  0
    2.6280    4.8521    8.4793 C   0  0  0  0  0  0  0  0  0  0  0  0
    3.5731    4.0579    9.0246 N   0  0  0  0  0  0  0  0  0  0  0  0
    3.0312    3.4473   10.1317 C   0  0  0  0  0  0  0  0  0  0  0  0
    3.5261    2.5537   11.0860 C   0  0  0  0  0  0  0  0  0  0  0  0
   -0.5552   -0.8189   14.1920 C   0  0  0  0  0  0  0  0  0  0  0  0
   -1.9445   -1.0884   14.0613 C   0  0  0  0  0  0  0  0  0  0  0  0
   -2.7533   -0.3562   13.2050 O   0  0  0  0  0  0  0  0  0  0  0  0
   -2.2327    0.6448   12.3521 C   0  0  0  0  0  0  0  0  0  0  0  0
   -5.3466   -3.2530   13.5754 H   0  0  0  0  0  0  0  0  0  0  0  0
   -3.9668   -2.5544   12.6618 H   0  0  0  0  0  0  0  0  0  0  0  0
   -3.7533   -4.0823   13.5820 H   0  0  0  0  0  0  0  0  0  0  0  0
   -2.1981   -3.6662   16.2542 H   0  0  0  0  0  0  0  0  0  0  0  0
    0.2026   -3.2097   16.4887 H   0  0  0  0  0  0  0  0  0  0  0  0
    1.2578    0.3389   13.3429 H   0  0  0  0  0  0  0  0  0  0  0  0
    5.0842    1.0099   12.8708 H   0  0  0  0  0  0  0  0  0  0  0  0
    4.6175    2.3230   14.0042 H   0  0  0  0  0  0  0  0  0  0  0  0
    6.8406    0.8706   15.3032 H   0  0  0  0  0  0  0  0  0  0  0  0
    6.2508   -0.7585   17.3488 H   0  0  0  0  0  0  0  0  0  0  0  0
    0.6368    2.2959   12.9093 H   0  0  0  0  0  0  0  0  0  0  0  0
   -0.1953    3.8664   11.1865 H   0  0  0  0  0  0  0  0  0  0  0  0
    2.7959    5.4592    7.6020 H   0  0  0  0  0  0  0  0  0  0  0  0
    4.5378    2.1788   11.0381 H   0  0  0  0  0  0  0  0  0  0  0  0
   -0.0967   -0.0331   13.6101 H   0  0  0  0  0  0  0  0  0  0  0  0
   -3.0507    1.0906   11.7671 H   0  0  0  0  0  0  0  0  0  0  0  0
   -1.7468    1.4250   12.9565 H   0  0  0  0  0  0  0  0  0  0  0  0
   -1.4953    0.1975   11.6693 H   0  0  0  0  0  0  0  0  0  0  0  0
  1  2  1  0  0  0  0
  2  3  1  0  0  0  0
  3  4  2  0  0  0  0
  3 27  1  0  0  0  0
  4  5  1  0  0  0  0
  5  6  2  0  0  0  0
  6  7  1  0  0  0  0
  6 26  1  0  0  0  0
  7  8  2  0  0  0  0
  8  9  1  0  0  0  0
  8 16  1  0  0  0  0
  9 10  1  0  0  0  0
 10 11  1  0  0  0  0
 10 17  2  3  0  0  0
 11 12  1  0  0  0  0
 12 13  1  0  0  0  0
 12 16  1  0  0  0  0
 13 14  2  0  0  0  0
 14 15  1  0  0  0  0
 15 16  2  0  0  0  0
 17 18  1  0  0  0  0
 17 25  1  0  0  0  0
 18 19  2  0  0  0  0
 19 20  1  0  0  0  0
 20 21  2  0  0  0  0
 20 24  1  0  0  0  0
 21 22  1  0  0  0  0
 22 23  2  0  0  0  0
 23 24  1  0  0  0  0
 24 25  2  0  0  0  0
 26 27  2  0  0  0  0
 27 28  1  0  0  0  0
 28 29  1  0  0  0  0
  1 30  1  0  0  0  0
  1 31  1  0  0  0  0
  1 32  1  0  0  0  0
  4 33  1  0  0  0  0
  5 34  1  0  0  0  0
  9 35  1  0  0  0  0
 11 36  1  0  0  0  0
 11 37  1  0  0  0  0
 13 38  1  0  0  0  0
 14 39  1  0  0  0  0
 18 40  1  0  0  0  0
 19 41  1  0  0  0  0
 22 42  1  0  0  0  0
 25 43  1  0  0  0  0
 26 44  1  0  0  0  0
 29 45  1  0  0  0  0
 29 46  1  0  0  0  0
 29 47  1  0  0  0  0
M  END
> <IC50[nM]>
6.3

$$$$
CHEMBL3265018
  -OEChem-05192314333D
 Structure written by MMmdl.
 47 51  0     1  0  0  0  0  0999 V2000
   -4.2567   -3.1043   13.5693 C   0  0  0  0  0  0  0  0  0  0  0  0
   -3.8736   -2.3603   14.7157 O   0  0  0  0  0  0  0  0  0  0  0  0
   -2.5257   -2.1109   14.8170 C   0  0  0  0  0  0  0  0  0  0  0  0
   -1.7457   -2.8699   15.6819 C   0  0  0  0  0  0  0  0  0  0  0  0
   -0.3904   -2.6103   15.8138 C   0  0  0  0  0  0  0  0  0  0  0  0
    0.2205   -1.5845   15.0866 C   0  0  0  0  0  0  0  0  0  0  0  0
    1.6039   -1.3601   15.3216 N   0  0  0  0  0  0  0  0  0  0  0  0
    2.5369   -0.4474   14.7595 C   0  0  0  0  0  0  0  0  0  0  0  0
    2.1817    0.3719   13.7240 N   0  0  0  0  0  0  0  0  0  0  0  0
    3.1138    1.2387   13.2179 C   0  0  0  0  0  0  0  0  0  0  0  0
    4.4187    1.2840   13.7027 C   0  0  0  0  0  0  0  0  0  0  0  0
    4.7466    0.4880   14.7600 N   0  0  0  0  0  0  0  0  0  0  0  0
    5.8977    0.3770   15.4865 C   0  0  0  0  0  0  0  0  0  0  0  0
    5.5876   -0.5233   16.5295 C   0  0  0  0  0  0  0  0  0  0  0  0
    4.3760   -1.0434   16.3734 N   0  0  0  0  0  0  0  0  0  0  0  0
    3.8370   -0.3940   15.3257 C   0  0  0  0  0  0  0  0  0  0  0  0
    2.6359    2.1614   12.1223 C   0  0  3  0  0  0  0  0  0  0  0  0
    1.3054    2.6314   12.1303 C   0  0  0  0  0  0  0  0  0  0  0  0
    0.8262    3.5165   11.1628 C   0  0  0  0  0  0  0  0  0  0  0  0
    1.7006    3.9330   10.1707 C   0  0  0  0  0  0  0  0  0  0  0  0
    1.4948    4.8131    9.1162 N   0  0  0  0  0  0  0  0  0  0  0  0
    2.6280    4.8521    8.4793 C   0  0  0  0  0  0  0  0  0  0  0  0
    3.5731    4.0579    9.0246 N   0  0  0  0  0  0  0  0  0  0  0  0
    3.0312    3.4473   10.1317 C   0  0  0  0  0  0  0  0  0  0  0  0
    3.5261    2.5537   11.0860 C   0  0  0  0  0  0  0  0  0  0  0  0
   -0.5552   -0.8189   14.1920 C   0  0  0  0  0  0  0  0  0  0  0  0
   -1.9445   -1.0884   14.0613 C   0  0  0  0  0  0  0  0  0  0  0  0
   -2.7533   -0.3562   13.2050 O   0  0  0  0  0  0  0  0  0  0  0  0
   -2.2327    0.6448   12.3521 C   0  0  0  0  0  0  0  0  0  0  0  0
   -5.3466   -3.2530   13.5754 H   0  0  0  0  0  0  0  0  0  0  0  0
   -3.9668   -2.5544   12.6618 H   0  0  0  0  0  0  0  0  0  0  0  0
   -3.7533   -4.0823   13.5820 H   0  0  0  0  0  0  0  0  0  0  0  0
   -2.1981   -3.6662   16.2542 H   0  0  0  0  0  0  0  0  0  0  0  0
    0.2026   -3.2097   16.4887 H   0  0  0  0  0  0  0  0  0  0  0  0
    1.9971   -1.9610   16.0175 H   0  0  0  0  0  0  0  0  0  0  0  0
    5.1536    1.9344   13.2517 H   0  0  0  0  0  0  0  0  0  0  0  0
    6.8406    0.8706   15.3032 H   0  0  0  0  0  0  0  0  0  0  0  0
    6.2508   -0.7585   17.3488 H   0  0  0  0  0  0  0  0  0  0  0  0
    2.9470    3.0315   12.7191 H   0  0  0  0  0  0  0  0  0  0  0  0
    0.6368    2.2959   12.9093 H   0  0  0  0  0  0  0  0  0  0  0  0
   -0.1953    3.8664   11.1865 H   0  0  0  0  0  0  0  0  0  0  0  0
    2.7959    5.4592    7.6020 H   0  0  0  0  0  0  0  0  0  0  0  0
    4.5378    2.1788   11.0381 H   0  0  0  0  0  0  0  0  0  0  0  0
   -0.0967   -0.0331   13.6101 H   0  0  0  0  0  0  0  0  0  0  0  0
   -3.0507    1.0906   11.7671 H   0  0  0  0  0  0  0  0  0  0  0  0
   -1.7468    1.4250   12.9565 H   0  0  0  0  0  0  0  0  0  0  0  0
   -1.4953    0.1975   11.6693 H   0  0  0  0  0  0  0  0  0  0  0  0
  1  2  1  0  0  0  0
  2  3  1  0  0  0  0
  3  4  2  0  0  0  0
  3 27  1  0  0  0  0
  4  5  1  0  0  0  0
  5  6  2  0  0  0  0
  6  7  1  0  0  0  0
  6 26  1  0  0  0  0
  7  8  1  0  0  0  0
  8  9  2  0  0  0  0
  8 16  1  0  0  0  0
  9 10  1  0  0  0  0
 10 11  2  0  0  0  0
 10 17  1  0  0  0  0
 11 12  1  0  0  0  0
 12 13  1  0  0  0  0
 12 16  1  0  0  0  0
 13 14  2  0  0  0  0
 14 15  1  0  0  0  0
 15 16  2  0  0  0  0
 17 18  1  0  0  0  0
 17 25  1  0  0  0  0
 18 19  2  0  0  0  0
 19 20  1  0  0  0  0
 20 21  2  0  0  0  0
 20 24  1  0  0  0  0
 21 22  1  0  0  0  0
 22 23  2  0  0  0  0
 23 24  1  0  0  0  0
 24 25  2  0  0  0  0
 26 27  2  0  0  0  0
 27 28  1  0  0  0  0
 28 29  1  0  0  0  0
  1 30  1  0  0  0  0
  1 31  1  0  0  0  0
  1 32  1  0  0  0  0
  4 33  1  0  0  0  0
  5 34  1  0  0  0  0
  7 35  1  0  0  0  0
 11 36  1  0  0  0  0
 13 37  1  0  0  0  0
 14 38  1  0  0  0  0
 17 39  1  0  0  0  0
 18 40  1  0  0  0  0
 19 41  1  0  0  0  0
 22 42  1  0  0  0  0
 25 43  1  0  0  0  0
 26 44  1  0  0  0  0
 29 45  1  0  0  0  0
 29 46  1  0  0  0  0
 29 47  1  0  0  0  0
M  END
> <IC50[nM]>
6.3

$$$$
CHEMBL3265018
  -OEChem-05192314333D
 Structure written by MMmdl.
 47 51  0     1  0  0  0  0  0999 V2000
   -4.2567   -3.1043   13.5693 C   0  0  0  0  0  0  0  0  0  0  0  0
   -3.8736   -2.3603   14.7157 O   0  0  0  0  0  0  0  0  0  0  0  0
   -2.5257   -2.1109   14.8170 C   0  0  0  0  0  0  0  0  0  0  0  0
   -1.7457   -2.8699   15.6819 C   0  0  0  0  0  0  0  0  0  0  0  0
   -0.3904   -2.6103   15.8138 C   0  0  0  0  0  0  0  0  0  0  0  0
    0.2205   -1.5845   15.0866 C   0  0  0  0  0  0  0  0  0  0  0  0
    1.6039   -1.3601   15.3216 N   0  0  0  0  0  0  0  0  0  0  0  0
    2.5369   -0.4474   14.7595 C   0  0  0  0  0  0  0  0  0  0  0  0
    2.1817    0.3719   13.7240 N   0  0  0  0  0  0  0  0  0  0  0  0
    3.1138    1.2387   13.2179 C   0  0  0  0  0  0  0  0  0  0  0  0
    4.4187    1.2840   13.7027 C   0  0  0  0  0  0  0  0  0  0  0  0
    4.7466    0.4880   14.7600 N   0  0  0  0  0  0  0  0  0  0  0  0
    5.8977    0.3770   15.4865 C   0  0  0  0  0  0  0  0  0  0  0  0
    5.5876   -0.5233   16.5295 C   0  0  0  0  0  0  0  0  0  0  0  0
    4.3760   -1.0434   16.3734 N   0  0  0  0  0  0  0  0  0  0  0  0
    3.8370   -0.3940   15.3257 C   0  0  0  0  0  0  0  0  0  0  0  0
    2.6359    2.1614   12.1223 C   0  0  0  0  0  0  0  0  0  0  0  0
    1.3054    2.6314   12.1303 C   0  0  0  0  0  0  0  0  0  0  0  0
    0.8262    3.5165   11.1628 C   0  0  0  0  0  0  0  0  0  0  0  0
    1.7006    3.9330   10.1707 C   0  0  0  0  0  0  0  0  0  0  0  0
    1.4948    4.8131    9.1162 N   0  0  0  0  0  0  0  0  0  0  0  0
    2.6280    4.8521    8.4793 C   0  0  0  0  0  0  0  0  0  0  0  0
    3.5731    4.0579    9.0246 N   0  0  0  0  0  0  0  0  0  0  0  0
    3.0312    3.4473   10.1317 C   0  0  3  0  0  0  0  0  0  0  0  0
    3.5261    2.5537   11.0860 C   0  0  0  0  0  0  0  0  0  0  0  0
   -0.5552   -0.8189   14.1920 C   0  0  0  0  0  0  0  0  0  0  0  0
   -1.9445   -1.0884   14.0613 C   0  0  0  0  0  0  0  0  0  0  0  0
   -2.7533   -0.3562   13.2050 O   0  0  0  0  0  0  0  0  0  0  0  0
   -2.2327    0.6448   12.3521 C   0  0  0  0  0  0  0  0  0  0  0  0
   -5.3466   -3.2530   13.5754 H   0  0  0  0  0  0  0  0  0  0  0  0
   -3.9668   -2.5544   12.6618 H   0  0  0  0  0  0  0  0  0  0  0  0
   -3.7533   -4.0823   13.5820 H   0  0  0  0  0  0  0  0  0  0  0  0
   -2.1981   -3.6662   16.2542 H   0  0  0  0  0  0  0  0  0  0  0  0
    0.2026   -3.2097   16.4887 H   0  0  0  0  0  0  0  0  0  0  0  0
    1.9971   -1.9610   16.0175 H   0  0  0  0  0  0  0  0  0  0  0  0
    5.1536    1.9344   13.2517 H   0  0  0  0  0  0  0  0  0  0  0  0
    6.8406    0.8706   15.3032 H   0  0  0  0  0  0  0  0  0  0  0  0
    6.2508   -0.7585   17.3488 H   0  0  0  0  0  0  0  0  0  0  0  0
    0.6368    2.2959   12.9093 H   0  0  0  0  0  0  0  0  0  0  0  0
   -0.1953    3.8664   11.1865 H   0  0  0  0  0  0  0  0  0  0  0  0
    2.7959    5.4592    7.6020 H   0  0  0  0  0  0  0  0  0  0  0  0
    2.7055    2.6021    9.5075 H   0  0  0  0  0  0  0  0  0  0  0  0
    4.5378    2.1788   11.0381 H   0  0  0  0  0  0  0  0  0  0  0  0
   -0.0967   -0.0331   13.6101 H   0  0  0  0  0  0  0  0  0  0  0  0
   -3.0507    1.0906   11.7671 H   0  0  0  0  0  0  0  0  0  0  0  0
   -1.7468    1.4250   12.9565 H   0  0  0  0  0  0  0  0  0  0  0  0
   -1.4953    0.1975   11.6693 H   0  0  0  0  0  0  0  0  0  0  0  0
  1  2  1  0  0  0  0
  2  3  1  0  0  0  0
  3  4  2  0  0  0  0
  3 27  1  0  0  0  0
  4  5  1  0  0  0  0
  5  6  2  0  0  0  0
  6  7  1  0  0  0  0
  6 26  1  0  0  0  0
  7  8  1  0  0  0  0
  8  9  2  0  0  0  0
  8 16  1  0  0  0  0
  9 10  1  0  0  0  0
 10 11  2  0  0  0  0
 10 17  1  0  0  0  0
 11 12  1  0  0  0  0
 12 13  1  0  0  0  0
 12 16  1  0  0  0  0
 13 14  2  0  0  0  0
 14 15  1  0  0  0  0
 15 16  2  0  0  0  0
 17 18  1  0  0  0  0
 17 25  2  0  0  0  0
 18 19  2  0  0  0  0
 19 20  1  0  0  0  0
 20 21  2  0  0  0  0
 20 24  1  0  0  0  0
 21 22  1  0  0  0  0
 22 23  2  0  0  0  0
 23 24  1  0  0  0  0
 24 25  1  0  0  0  0
 26 27  2  0  0  0  0
 27 28  1  0  0  0  0
 28 29  1  0  0  0  0
  1 30  1  0  0  0  0
  1 31  1  0  0  0  0
  1 32  1  0  0  0  0
  4 33  1  0  0  0  0
  5 34  1  0  0  0  0
  7 35  1  0  0  0  0
 11 36  1  0  0  0  0
 13 37  1  0  0  0  0
 14 38  1  0  0  0  0
 18 39  1  0  0  0  0
 19 40  1  0  0  0  0
 22 41  1  0  0  0  0
 24 42  1  0  0  0  0
 25 43  1  0  0  0  0
 26 44  1  0  0  0  0
 29 45  1  0  0  0  0
 29 46  1  0  0  0  0
 29 47  1  0  0  0  0
M  END
> <IC50[nM]>
6.3

$$$$
CHEMBL3265018
  -OEChem-05192314333D
 Structure written by MMmdl.
 47 51  0     1  0  0  0  0  0999 V2000
   -4.2567   -3.1043   13.5693 C   0  0  0  0  0  0  0  0  0  0  0  0
   -3.8736   -2.3603   14.7157 O   0  0  0  0  0  0  0  0  0  0  0  0
   -2.5257   -2.1109   14.8170 C   0  0  0  0  0  0  0  0  0  0  0  0
   -1.7457   -2.8699   15.6819 C   0  0  0  0  0  0  0  0  0  0  0  0
   -0.3904   -2.6103   15.8138 C   0  0  0  0  0  0  0  0  0  0  0  0
    0.2205   -1.5845   15.0866 C   0  0  0  0  0  0  0  0  0  0  0  0
    1.6039   -1.3601   15.3216 N   0  0  0  0  0  0  0  0  0  0  0  0
    2.5369   -0.4474   14.7595 C   0  0  0  0  0  0  0  0  0  0  0  0
    2.1817    0.3719   13.7240 N   0  0  0  0  0  0  0  0  0  0  0  0
    3.1138    1.2387   13.2179 C   0  0  0  0  0  0  0  0  0  0  0  0
    4.4187    1.2840   13.7027 C   0  0  0  0  0  0  0  0  0  0  0  0
    4.7466    0.4880   14.7600 N   0  0  0  0  0  0  0  0  0  0  0  0
    5.8977    0.3770   15.4865 C   0  0  0  0  0  0  0  0  0  0  0  0
    5.5876   -0.5233   16.5295 C   0  0  0  0  0  0  0  0  0  0  0  0
    4.3760   -1.0434   16.3734 N   0  0  0  0  0  0  0  0  0  0  0  0
    3.8370   -0.3940   15.3257 C   0  0  0  0  0  0  0  0  0  0  0  0
    2.6359    2.1614   12.1223 C   0  0  0  0  0  0  0  0  0  0  0  0
    1.3054    2.6314   12.1303 C   0  0  0  0  0  0  0  0  0  0  0  0
    0.8262    3.5165   11.1628 C   0  0  0  0  0  0  0  0  0  0  0  0
    1.7006    3.9330   10.1707 C   0  0  3  0  0  0  0  0  0  0  0  0
    1.4948    4.8131    9.1162 N   0  0  0  0  0  0  0  0  0  0  0  0
    2.6280    4.8521    8.4793 C   0  0  0  0  0  0  0  0  0  0  0  0
    3.5731    4.0579    9.0246 N   0  0  0  0  0  0  0  0  0  0  0  0
    3.0312    3.4473   10.1317 C   0  0  0  0  0  0  0  0  0  0  0  0
    3.5261    2.5537   11.0860 C   0  0  0  0  0  0  0  0  0  0  0  0
   -0.5552   -0.8189   14.1920 C   0  0  0  0  0  0  0  0  0  0  0  0
   -1.9445   -1.0884   14.0613 C   0  0  0  0  0  0  0  0  0  0  0  0
   -2.7533   -0.3562   13.2050 O   0  0  0  0  0  0  0  0  0  0  0  0
   -2.2327    0.6448   12.3521 C   0  0  0  0  0  0  0  0  0  0  0  0
   -5.3466   -3.2530   13.5754 H   0  0  0  0  0  0  0  0  0  0  0  0
   -3.9668   -2.5544   12.6618 H   0  0  0  0  0  0  0  0  0  0  0  0
   -3.7533   -4.0823   13.5820 H   0  0  0  0  0  0  0  0  0  0  0  0
   -2.1981   -3.6662   16.2542 H   0  0  0  0  0  0  0  0  0  0  0  0
    0.2026   -3.2097   16.4887 H   0  0  0  0  0  0  0  0  0  0  0  0
    1.9971   -1.9610   16.0175 H   0  0  0  0  0  0  0  0  0  0  0  0
    5.1536    1.9344   13.2517 H   0  0  0  0  0  0  0  0  0  0  0  0
    6.8406    0.8706   15.3032 H   0  0  0  0  0  0  0  0  0  0  0  0
    6.2508   -0.7585   17.3488 H   0  0  0  0  0  0  0  0  0  0  0  0
    0.6368    2.2959   12.9093 H   0  0  0  0  0  0  0  0  0  0  0  0
   -0.1953    3.8664   11.1865 H   0  0  0  0  0  0  0  0  0  0  0  0
    2.0243    4.7701   10.8068 H   0  0  0  0  0  0  0  0  0  0  0  0
    2.7959    5.4592    7.6020 H   0  0  0  0  0  0  0  0  0  0  0  0
    4.5378    2.1788   11.0381 H   0  0  0  0  0  0  0  0  0  0  0  0
   -0.0967   -0.0331   13.6101 H   0  0  0  0  0  0  0  0  0  0  0  0
   -3.0507    1.0906   11.7671 H   0  0  0  0  0  0  0  0  0  0  0  0
   -1.7468    1.4250   12.9565 H   0  0  0  0  0  0  0  0  0  0  0  0
   -1.4953    0.1975   11.6693 H   0  0  0  0  0  0  0  0  0  0  0  0
  1  2  1  0  0  0  0
  2  3  1  0  0  0  0
  3  4  2  0  0  0  0
  3 27  1  0  0  0  0
  4  5  1  0  0  0  0
  5  6  2  0  0  0  0
  6  7  1  0  0  0  0
  6 26  1  0  0  0  0
  7  8  1  0  0  0  0
  8  9  2  0  0  0  0
  8 16  1  0  0  0  0
  9 10  1  0  0  0  0
 10 11  2  0  0  0  0
 10 17  1  0  0  0  0
 11 12  1  0  0  0  0
 12 13  1  0  0  0  0
 12 16  1  0  0  0  0
 13 14  2  0  0  0  0
 14 15  1  0  0  0  0
 15 16  2  0  0  0  0
 17 18  1  0  0  0  0
 17 25  2  0  0  0  0
 18 19  2  0  0  0  0
 19 20  1  0  0  0  0
 20 21  1  0  0  0  0
 20 24  1  0  0  0  0
 21 22  2  0  0  0  0
 22 23  1  0  0  0  0
 23 24  2  0  0  0  0
 24 25  1  0  0  0  0
 26 27  2  0  0  0  0
 27 28  1  0  0  0  0
 28 29  1  0  0  0  0
  1 30  1  0  0  0  0
  1 31  1  0  0  0  0
  1 32  1  0  0  0  0
  4 33  1  0  0  0  0
  5 34  1  0  0  0  0
  7 35  1  0  0  0  0
 11 36  1  0  0  0  0
 13 37  1  0  0  0  0
 14 38  1  0  0  0  0
 18 39  1  0  0  0  0
 19 40  1  0  0  0  0
 20 41  1  0  0  0  0
 22 42  1  0  0  0  0
 25 43  1  0  0  0  0
 26 44  1  0  0  0  0
 29 45  1  0  0  0  0
 29 46  1  0  0  0  0
 29 47  1  0  0  0  0
M  END
> <IC50[nM]>
6.3

$$$$
CHEMBL3265018
  -OEChem-05192314333D
 Structure written by MMmdl.
 47 51  0     0  0  0  0  0  0999 V2000
   -4.2567   -3.1043   13.5693 C   0  0  0  0  0  0  0  0  0  0  0  0
   -3.8736   -2.3603   14.7157 O   0  0  0  0  0  0  0  0  0  0  0  0
   -2.5257   -2.1109   14.8170 C   0  0  0  0  0  0  0  0  0  0  0  0
   -1.7457   -2.8699   15.6819 C   0  0  0  0  0  0  0  0  0  0  0  0
   -0.3904   -2.6103   15.8138 C   0  0  0  0  0  0  0  0  0  0  0  0
    0.2205   -1.5845   15.0866 C   0  0  0  0  0  0  0  0  0  0  0  0
    1.6039   -1.3601   15.3216 N   0  0  0  0  0  0  0  0  0  0  0  0
    2.5369   -0.4474   14.7595 C   0  0  0  0  0  0  0  0  0  0  0  0
    2.1817    0.3719   13.7240 N   0  0  0  0  0  0  0  0  0  0  0  0
    3.1138    1.2387   13.2179 C   0  0  0  0  0  0  0  0  0  0  0  0
    4.4187    1.2840   13.7027 C   0  0  0  0  0  0  0  0  0  0  0  0
    4.7466    0.4880   14.7600 N   0  0  0  0  0  0  0  0  0  0  0  0
    5.8977    0.3770   15.4865 C   0  0  0  0  0  0  0  0  0  0  0  0
    5.5876   -0.5233   16.5295 C   0  0  0  0  0  0  0  0  0  0  0  0
    4.3760   -1.0434   16.3734 N   0  0  0  0  0  0  0  0  0  0  0  0
    3.8370   -0.3940   15.3257 C   0  0  0  0  0  0  0  0  0  0  0  0
    2.6359    2.1614   12.1223 C   0  0  0  0  0  0  0  0  0  0  0  0
    1.3054    2.6314   12.1303 C   0  0  0  0  0  0  0  0  0  0  0  0
    0.8262    3.5165   11.1628 C   0  0  0  0  0  0  0  0  0  0  0  0
    1.7006    3.9330   10.1707 C   0  0  0  0  0  0  0  0  0  0  0  0
    1.4948    4.8131    9.1162 N   0  0  0  0  0  0  0  0  0  0  0  0
    2.6280    4.8521    8.4793 C   0  0  0  0  0  0  0  0  0  0  0  0
    3.5731    4.0579    9.0246 N   0  0  0  0  0  0  0  0  0  0  0  0
    3.0312    3.4473   10.1317 C   0  0  0  0  0  0  0  0  0  0  0  0
    3.5261    2.5537   11.0860 C   0  0  0  0  0  0  0  0  0  0  0  0
   -0.5552   -0.8189   14.1920 C   0  0  0  0  0  0  0  0  0  0  0  0
   -1.9445   -1.0884   14.0613 C   0  0  0  0  0  0  0  0  0  0  0  0
   -2.7533   -0.3562   13.2050 O   0  0  0  0  0  0  0  0  0  0  0  0
   -2.2327    0.6448   12.3521 C   0  0  0  0  0  0  0  0  0  0  0  0
   -5.3466   -3.2530   13.5754 H   0  0  0  0  0  0  0  0  0  0  0  0
   -3.9668   -2.5544   12.6618 H   0  0  0  0  0  0  0  0  0  0  0  0
   -3.7533   -4.0823   13.5820 H   0  0  0  0  0  0  0  0  0  0  0  0
   -2.1981   -3.6662   16.2542 H   0  0  0  0  0  0  0  0  0  0  0  0
    0.2026   -3.2097   16.4887 H   0  0  0  0  0  0  0  0  0  0  0  0
    1.9971   -1.9610   16.0175 H   0  0  0  0  0  0  0  0  0  0  0  0
    5.1536    1.9344   13.2517 H   0  0  0  0  0  0  0  0  0  0  0  0
    6.8406    0.8706   15.3032 H   0  0  0  0  0  0  0  0  0  0  0  0
    6.2508   -0.7585   17.3488 H   0  0  0  0  0  0  0  0  0  0  0  0
    0.6368    2.2959   12.9093 H   0  0  0  0  0  0  0  0  0  0  0  0
   -0.0242    3.0277   10.6650 H   0  0  0  0  0  0  0  0  0  0  0  0
    0.4753    4.4168   11.6884 H   0  0  0  0  0  0  0  0  0  0  0  0
    2.7959    5.4592    7.6020 H   0  0  0  0  0  0  0  0  0  0  0  0
    4.5378    2.1788   11.0381 H   0  0  0  0  0  0  0  0  0  0  0  0
   -0.0967   -0.0331   13.6101 H   0  0  0  0  0  0  0  0  0  0  0  0
   -3.0507    1.0906   11.7671 H   0  0  0  0  0  0  0  0  0  0  0  0
   -1.7468    1.4250   12.9565 H   0  0  0  0  0  0  0  0  0  0  0  0
   -1.4953    0.1975   11.6693 H   0  0  0  0  0  0  0  0  0  0  0  0
  1  2  1  0  0  0  0
  2  3  1  0  0  0  0
  3  4  2  0  0  0  0
  3 27  1  0  0  0  0
  4  5  1  0  0  0  0
  5  6  2  0  0  0  0
  6  7  1  0  0  0  0
  6 26  1  0  0  0  0
  7  8  1  0  0  0  0
  8  9  2  0  0  0  0
  8 16  1  0  0  0  0
  9 10  1  0  0  0  0
 10 11  2  0  0  0  0
 10 17  1  0  0  0  0
 11 12  1  0  0  0  0
 12 13  1  0  0  0  0
 12 16  1  0  0  0  0
 13 14  2  0  0  0  0
 14 15  1  0  0  0  0
 15 16  2  0  0  0  0
 17 18  2  0  0  0  0
 17 25  1  0  0  0  0
 18 19  1  0  0  0  0
 19 20  1  0  0  0  0
 20 21  2  0  0  0  0
 20 24  1  0  0  0  0
 21 22  1  0  0  0  0
 22 23  2  0  0  0  0
 23 24  1  0  0  0  0
 24 25  2  0  0  0  0
 26 27  2  0  0  0  0
 27 28  1  0  0  0  0
 28 29  1  0  0  0  0
  1 30  1  0  0  0  0
  1 31  1  0  0  0  0
  1 32  1  0  0  0  0
  4 33  1  0  0  0  0
  5 34  1  0  0  0  0
  7 35  1  0  0  0  0
 11 36  1  0  0  0  0
 13 37  1  0  0  0  0
 14 38  1  0  0  0  0
 18 39  1  0  0  0  0
 19 40  1  0  0  0  0
 19 41  1  0  0  0  0
 22 42  1  0  0  0  0
 25 43  1  0  0  0  0
 26 44  1  0  0  0  0
 29 45  1  0  0  0  0
 29 46  1  0  0  0  0
 29 47  1  0  0  0  0
M  END
> <IC50[nM]>
6.3

$$$$
CHEMBL3265018
  -OEChem-05192314333D
 Structure written by MMmdl.
 47 51  0     0  0  0  0  0  0999 V2000
   -4.2567   -3.1043   13.5693 C   0  0  0  0  0  0  0  0  0  0  0  0
   -3.8736   -2.3603   14.7157 O   0  0  0  0  0  0  0  0  0  0  0  0
   -2.5257   -2.1109   14.8170 C   0  0  0  0  0  0  0  0  0  0  0  0
   -1.7457   -2.8699   15.6819 C   0  0  0  0  0  0  0  0  0  0  0  0
   -0.3904   -2.6103   15.8138 C   0  0  0  0  0  0  0  0  0  0  0  0
    0.2205   -1.5845   15.0866 C   0  0  0  0  0  0  0  0  0  0  0  0
    1.6039   -1.3601   15.3216 N   0  0  0  0  0  0  0  0  0  0  0  0
    2.5369   -0.4474   14.7595 C   0  0  0  0  0  0  0  0  0  0  0  0
    2.1817    0.3719   13.7240 N   0  0  0  0  0  0  0  0  0  0  0  0
    3.1138    1.2387   13.2179 C   0  0  0  0  0  0  0  0  0  0  0  0
    4.4187    1.2840   13.7027 C   0  0  0  0  0  0  0  0  0  0  0  0
    4.7466    0.4880   14.7600 N   0  0  0  0  0  0  0  0  0  0  0  0
    5.8977    0.3770   15.4865 C   0  0  0  0  0  0  0  0  0  0  0  0
    5.5876   -0.5233   16.5295 C   0  0  0  0  0  0  0  0  0  0  0  0
    4.3760   -1.0434   16.3734 N   0  0  0  0  0  0  0  0  0  0  0  0
    3.8370   -0.3940   15.3257 C   0  0  0  0  0  0  0  0  0  0  0  0
    2.6359    2.1614   12.1223 C   0  0  0  0  0  0  0  0  0  0  0  0
    1.3054    2.6314   12.1303 C   0  0  0  0  0  0  0  0  0  0  0  0
    0.8262    3.5165   11.1628 C   0  0  0  0  0  0  0  0  0  0  0  0
    1.7006    3.9330   10.1707 C   0  0  0  0  0  0  0  0  0  0  0  0
    1.4948    4.8131    9.1162 N   0  0  0  0  0  0  0  0  0  0  0  0
    2.6280    4.8521    8.4793 C   0  0  0  0  0  0  0  0  0  0  0  0
    3.5731    4.0579    9.0246 N   0  0  0  0  0  0  0  0  0  0  0  0
    3.0312    3.4473   10.1317 C   0  0  0  0  0  0  0  0  0  0  0  0
    3.5261    2.5537   11.0860 C   0  0  0  0  0  0  0  0  0  0  0  0
   -0.5552   -0.8189   14.1920 C   0  0  0  0  0  0  0  0  0  0  0  0
   -1.9445   -1.0884   14.0613 C   0  0  0  0  0  0  0  0  0  0  0  0
   -2.7533   -0.3562   13.2050 O   0  0  0  0  0  0  0  0  0  0  0  0
   -2.2327    0.6448   12.3521 C   0  0  0  0  0  0  0  0  0  0  0  0
   -5.3466   -3.2530   13.5754 H   0  0  0  0  0  0  0  0  0  0  0  0
   -3.9668   -2.5544   12.6618 H   0  0  0  0  0  0  0  0  0  0  0  0
   -3.7533   -4.0823   13.5820 H   0  0  0  0  0  0  0  0  0  0  0  0
   -2.1981   -3.6662   16.2542 H   0  0  0  0  0  0  0  0  0  0  0  0
    0.2026   -3.2097   16.4887 H   0  0  0  0  0  0  0  0  0  0  0  0
    1.9971   -1.9610   16.0175 H   0  0  0  0  0  0  0  0  0  0  0  0
    5.1536    1.9344   13.2517 H   0  0  0  0  0  0  0  0  0  0  0  0
    6.8406    0.8706   15.3032 H   0  0  0  0  0  0  0  0  0  0  0  0
    6.2508   -0.7585   17.3488 H   0  0  0  0  0  0  0  0  0  0  0  0
    0.6638    1.7395   12.0760 H   0  0  0  0  0  0  0  0  0  0  0  0
    1.1607    3.1287   13.1007 H   0  0  0  0  0  0  0  0  0  0  0  0
   -0.1953    3.8664   11.1865 H   0  0  0  0  0  0  0  0  0  0  0  0
    2.7959    5.4592    7.6020 H   0  0  0  0  0  0  0  0  0  0  0  0
    4.5378    2.1788   11.0381 H   0  0  0  0  0  0  0  0  0  0  0  0
   -0.0967   -0.0331   13.6101 H   0  0  0  0  0  0  0  0  0  0  0  0
   -3.0507    1.0906   11.7671 H   0  0  0  0  0  0  0  0  0  0  0  0
   -1.7468    1.4250   12.9565 H   0  0  0  0  0  0  0  0  0  0  0  0
   -1.4953    0.1975   11.6693 H   0  0  0  0  0  0  0  0  0  0  0  0
  1  2  1  0  0  0  0
  2  3  1  0  0  0  0
  3  4  2  0  0  0  0
  3 27  1  0  0  0  0
  4  5  1  0  0  0  0
  5  6  2  0  0  0  0
  6  7  1  0  0  0  0
  6 26  1  0  0  0  0
  7  8  1  0  0  0  0
  8  9  2  0  0  0  0
  8 16  1  0  0  0  0
  9 10  1  0  0  0  0
 10 11  2  0  0  0  0
 10 17  1  0  0  0  0
 11 12  1  0  0  0  0
 12 13  1  0  0  0  0
 12 16  1  0  0  0  0
 13 14  2  0  0  0  0
 14 15  1  0  0  0  0
 15 16  2  0  0  0  0
 17 18  1  0  0  0  0
 17 25  2  0  0  0  0
 18 19  1  0  0  0  0
 19 20  2  0  0  0  0
 20 21  1  0  0  0  0
 20 24  1  0  0  0  0
 21 22  2  0  0  0  0
 22 23  1  0  0  0  0
 23 24  2  0  0  0  0
 24 25  1  0  0  0  0
 26 27  2  0  0  0  0
 27 28  1  0  0  0  0
 28 29  1  0  0  0  0
  1 30  1  0  0  0  0
  1 31  1  0  0  0  0
  1 32  1  0  0  0  0
  4 33  1  0  0  0  0
  5 34  1  0  0  0  0
  7 35  1  0  0  0  0
 11 36  1  0  0  0  0
 13 37  1  0  0  0  0
 14 38  1  0  0  0  0
 18 39  1  0  0  0  0
 18 40  1  0  0  0  0
 19 41  1  0  0  0  0
 22 42  1  0  0  0  0
 25 43  1  0  0  0  0
 26 44  1  0  0  0  0
 29 45  1  0  0  0  0
 29 46  1  0  0  0  0
 29 47  1  0  0  0  0
M  END
> <IC50[nM]>
6.3

$$$$
CHEMBL3265018
  -OEChem-05192314333D
 Structure written by MMmdl.
 47 51  0     0  0  0  0  0  0999 V2000
   -4.2567   -3.1043   13.5693 C   0  0  0  0  0  0  0  0  0  0  0  0
   -3.8736   -2.3603   14.7157 O   0  0  0  0  0  0  0  0  0  0  0  0
   -2.5257   -2.1109   14.8170 C   0  0  0  0  0  0  0  0  0  0  0  0
   -1.7457   -2.8699   15.6819 C   0  0  0  0  0  0  0  0  0  0  0  0
   -0.3904   -2.6103   15.8138 C   0  0  0  0  0  0  0  0  0  0  0  0
    0.2205   -1.5845   15.0866 C   0  0  0  0  0  0  0  0  0  0  0  0
    1.6039   -1.3601   15.3216 N   0  0  0  0  0  0  0  0  0  0  0  0
    2.5369   -0.4474   14.7595 C   0  0  0  0  0  0  0  0  0  0  0  0
    2.1817    0.3719   13.7240 N   0  0  0  0  0  0  0  0  0  0  0  0
    3.1138    1.2387   13.2179 C   0  0  0  0  0  0  0  0  0  0  0  0
    4.4187    1.2840   13.7027 C   0  0  0  0  0  0  0  0  0  0  0  0
    4.7466    0.4880   14.7600 N   0  0  0  0  0  0  0  0  0  0  0  0
    5.8977    0.3770   15.4865 C   0  0  0  0  0  0  0  0  0  0  0  0
    5.5876   -0.5233   16.5295 C   0  0  0  0  0  0  0  0  0  0  0  0
    4.3760   -1.0434   16.3734 N   0  0  0  0  0  0  0  0  0  0  0  0
    3.8370   -0.3940   15.3257 C   0  0  0  0  0  0  0  0  0  0  0  0
    2.6359    2.1614   12.1223 C   0  0  0  0  0  0  0  0  0  0  0  0
    1.3054    2.6314   12.1303 C   0  0  0  0  0  0  0  0  0  0  0  0
    0.8262    3.5165   11.1628 C   0  0  0  0  0  0  0  0  0  0  0  0
    1.7006    3.9330   10.1707 C   0  0  0  0  0  0  0  0  0  0  0  0
    1.4948    4.8131    9.1162 N   0  0  0  0  0  0  0  0  0  0  0  0
    2.6280    4.8521    8.4793 C   0  0  0  0  0  0  0  0  0  0  0  0
    3.5731    4.0579    9.0246 N   0  0  0  0  0  0  0  0  0  0  0  0
    3.0312    3.4473   10.1317 C   0  0  0  0  0  0  0  0  0  0  0  0
    3.5261    2.5537   11.0860 C   0  0  0  0  0  0  0  0  0  0  0  0
   -0.5552   -0.8189   14.1920 C   0  0  0  0  0  0  0  0  0  0  0  0
   -1.9445   -1.0884   14.0613 C   0  0  0  0  0  0  0  0  0  0  0  0
   -2.7533   -0.3562   13.2050 O   0  0  0  0  0  0  0  0  0  0  0  0
   -2.2327    0.6448   12.3521 C   0  0  0  0  0  0  0  0  0  0  0  0
   -5.3466   -3.2530   13.5754 H   0  0  0  0  0  0  0  0  0  0  0  0
   -3.9668   -2.5544   12.6618 H   0  0  0  0  0  0  0  0  0  0  0  0
   -3.7533   -4.0823   13.5820 H   0  0  0  0  0  0  0  0  0  0  0  0
   -2.1981   -3.6662   16.2542 H   0  0  0  0  0  0  0  0  0  0  0  0
    0.2026   -3.2097   16.4887 H   0  0  0  0  0  0  0  0  0  0  0  0
    1.9971   -1.9610   16.0175 H   0  0  0  0  0  0  0  0  0  0  0  0
    5.1536    1.9344   13.2517 H   0  0  0  0  0  0  0  0  0  0  0  0
    6.8406    0.8706   15.3032 H   0  0  0  0  0  0  0  0  0  0  0  0
    6.2508   -0.7585   17.3488 H   0  0  0  0  0  0  0  0  0  0  0  0
    0.6368    2.2959   12.9093 H   0  0  0  0  0  0  0  0  0  0  0  0
   -0.1953    3.8664   11.1865 H   0  0  0  0  0  0  0  0  0  0  0  0
    2.7959    5.4592    7.6020 H   0  0  0  0  0  0  0  0  0  0  0  0
    4.4007    3.0238   11.5594 H   0  0  0  0  0  0  0  0  0  0  0  0
    3.8414    1.6427   10.5562 H   0  0  0  0  0  0  0  0  0  0  0  0
   -0.0967   -0.0331   13.6101 H   0  0  0  0  0  0  0  0  0  0  0  0
   -3.0507    1.0906   11.7671 H   0  0  0  0  0  0  0  0  0  0  0  0
   -1.7468    1.4250   12.9565 H   0  0  0  0  0  0  0  0  0  0  0  0
   -1.4953    0.1975   11.6693 H   0  0  0  0  0  0  0  0  0  0  0  0
  1  2  1  0  0  0  0
  2  3  1  0  0  0  0
  3  4  2  0  0  0  0
  3 27  1  0  0  0  0
  4  5  1  0  0  0  0
  5  6  2  0  0  0  0
  6  7  1  0  0  0  0
  6 26  1  0  0  0  0
  7  8  1  0  0  0  0
  8  9  2  0  0  0  0
  8 16  1  0  0  0  0
  9 10  1  0  0  0  0
 10 11  2  0  0  0  0
 10 17  1  0  0  0  0
 11 12  1  0  0  0  0
 12 13  1  0  0  0  0
 12 16  1  0  0  0  0
 13 14  2  0  0  0  0
 14 15  1  0  0  0  0
 15 16  2  0  0  0  0
 17 18  2  0  0  0  0
 17 25  1  0  0  0  0
 18 19  1  0  0  0  0
 19 20  2  0  0  0  0
 20 21  1  0  0  0  0
 20 24  1  0  0  0  0
 21 22  2  0  0  0  0
 22 23  1  0  0  0  0
 23 24  2  0  0  0  0
 24 25  1  0  0  0  0
 26 27  2  0  0  0  0
 27 28  1  0  0  0  0
 28 29  1  0  0  0  0
  1 30  1  0  0  0  0
  1 31  1  0  0  0  0
  1 32  1  0  0  0  0
  4 33  1  0  0  0  0
  5 34  1  0  0  0  0
  7 35  1  0  0  0  0
 11 36  1  0  0  0  0
 13 37  1  0  0  0  0
 14 38  1  0  0  0  0
 18 39  1  0  0  0  0
 19 40  1  0  0  0  0
 22 41  1  0  0  0  0
 25 42  1  0  0  0  0
 25 43  1  0  0  0  0
 26 44  1  0  0  0  0
 29 45  1  0  0  0  0
 29 46  1  0  0  0  0
 29 47  1  0  0  0  0
M  END
> <IC50[nM]>
6.3

$$$$
CHEMBL3265018
  -OEChem-05192314333D
 Structure written by MMmdl.
 47 51  0     1  0  0  0  0  0999 V2000
   -4.2567   -3.1043   13.5693 C   0  0  0  0  0  0  0  0  0  0  0  0
   -3.8736   -2.3603   14.7157 O   0  0  0  0  0  0  0  0  0  0  0  0
   -2.5257   -2.1109   14.8170 C   0  0  3  0  0  0  0  0  0  0  0  0
   -1.7457   -2.8699   15.6819 C   0  0  0  0  0  0  0  0  0  0  0  0
   -0.3904   -2.6103   15.8138 C   0  0  0  0  0  0  0  0  0  0  0  0
    0.2205   -1.5845   15.0866 C   0  0  0  0  0  0  0  0  0  0  0  0
    1.6039   -1.3601   15.3216 N   0  0  0  0  0  0  0  0  0  0  0  0
    2.5369   -0.4474   14.7595 C   0  0  0  0  0  0  0  0  0  0  0  0
    2.1817    0.3719   13.7240 N   0  0  0  0  0  0  0  0  0  0  0  0
    3.1138    1.2387   13.2179 C   0  0  0  0  0  0  0  0  0  0  0  0
    4.4187    1.2840   13.7027 C   0  0  0  0  0  0  0  0  0  0  0  0
    4.7466    0.4880   14.7600 N   0  0  0  0  0  0  0  0  0  0  0  0
    5.8977    0.3770   15.4865 C   0  0  0  0  0  0  0  0  0  0  0  0
    5.5876   -0.5233   16.5295 C   0  0  0  0  0  0  0  0  0  0  0  0
    4.3760   -1.0434   16.3734 N   0  0  0  0  0  0  0  0  0  0  0  0
    3.8370   -0.3940   15.3257 C   0  0  0  0  0  0  0  0  0  0  0  0
    2.6359    2.1614   12.1223 C   0  0  0  0  0  0  0  0  0  0  0  0
    1.3054    2.6314   12.1303 C   0  0  0  0  0  0  0  0  0  0  0  0
    0.8262    3.5165   11.1628 C   0  0  0  0  0  0  0  0  0  0  0  0
    1.7006    3.9330   10.1707 C   0  0  0  0  0  0  0  0  0  0  0  0
    1.4948    4.8131    9.1162 N   0  0  0  0  0  0  0  0  0  0  0  0
    2.6280    4.8521    8.4793 C   0  0  0  0  0  0  0  0  0  0  0  0
    3.5731    4.0579    9.0246 N   0  0  0  0  0  0  0  0  0  0  0  0
    3.0312    3.4473   10.1317 C   0  0  0  0  0  0  0  0  0  0  0  0
    3.5261    2.5537   11.0860 C   0  0  0  0  0  0  0  0  0  0  0  0
   -0.5552   -0.8189   14.1920 C   0  0  0  0  0  0  0  0  0  0  0  0
   -1.9445   -1.0884   14.0613 C   0  0  0  0  0  0  0  0  0  0  0  0
   -2.7533   -0.3562   13.2050 O   0  0  0  0  0  0  0  0  0  0  0  0
   -2.2327    0.6448   12.3521 C   0  0  0  0  0  0  0  0  0  0  0  0
   -5.3466   -3.2530   13.5754 H   0  0  0  0  0  0  0  0  0  0  0  0
   -3.9668   -2.5544   12.6618 H   0  0  0  0  0  0  0  0  0  0  0  0
   -3.7533   -4.0823   13.5820 H   0  0  0  0  0  0  0  0  0  0  0  0
   -2.3288   -2.8270   14.0056 H   0  0  0  0  0  0  0  0  0  0  0  0
   -2.1981   -3.6662   16.2542 H   0  0  0  0  0  0  0  0  0  0  0  0
    0.2026   -3.2097   16.4887 H   0  0  0  0  0  0  0  0  0  0  0  0
    5.1536    1.9344   13.2517 H   0  0  0  0  0  0  0  0  0  0  0  0
    6.8406    0.8706   15.3032 H   0  0  0  0  0  0  0  0  0  0  0  0
    6.2508   -0.7585   17.3488 H   0  0  0  0  0  0  0  0  0  0  0  0
    0.6368    2.2959   12.9093 H   0  0  0  0  0  0  0  0  0  0  0  0
   -0.1953    3.8664   11.1865 H   0  0  0  0  0  0  0  0  0  0  0  0
    2.4569    4.5297    7.4416 H   0  0  0  0  0  0  0  0  0  0  0  0
    2.9966    5.8885    8.4852 H   0  0  0  0  0  0  0  0  0  0  0  0
    4.5378    2.1788   11.0381 H   0  0  0  0  0  0  0  0  0  0  0  0
   -0.0967   -0.0331   13.6101 H   0  0  0  0  0  0  0  0  0  0  0  0
   -3.0507    1.0906   11.7671 H   0  0  0  0  0  0  0  0  0  0  0  0
   -1.7468    1.4250   12.9565 H   0  0  0  0  0  0  0  0  0  0  0  0
   -1.4953    0.1975   11.6693 H   0  0  0  0  0  0  0  0  0  0  0  0
  1  2  1  0  0  0  0
  2  3  1  0  0  0  0
  3  4  1  0  0  0  0
  3 27  1  0  0  0  0
  4  5  2  0  0  0  0
  5  6  1  0  0  0  0
  6  7  2  0  0  0  0
  6 26  1  0  0  0  0
  7  8  1  0  0  0  0
  8  9  2  0  0  0  0
  8 16  1  0  0  0  0
  9 10  1  0  0  0  0
 10 11  2  0  0  0  0
 10 17  1  0  0  0  0
 11 12  1  0  0  0  0
 12 13  1  0  0  0  0
 12 16  1  0  0  0  0
 13 14  2  0  0  0  0
 14 15  1  0  0  0  0
 15 16  2  0  0  0  0
 17 18  1  0  0  0  0
 17 25  2  0  0  0  0
 18 19  2  0  0  0  0
 19 20  1  0  0  0  0
 20 21  2  0  0  0  0
 20 24  1  0  0  0  0
 21 22  1  0  0  0  0
 22 23  1  0  0  0  0
 23 24  2  0  0  0  0
 24 25  1  0  0  0  0
 26 27  2  0  0  0  0
 27 28  1  0  0  0  0
 28 29  1  0  0  0  0
  1 30  1  0  0  0  0
  1 31  1  0  0  0  0
  1 32  1  0  0  0  0
  3 33  1  0  0  0  0
  4 34  1  0  0  0  0
  5 35  1  0  0  0  0
 11 36  1  0  0  0  0
 13 37  1  0  0  0  0
 14 38  1  0  0  0  0
 18 39  1  0  0  0  0
 19 40  1  0  0  0  0
 22 41  1  0  0  0  0
 22 42  1  0  0  0  0
 25 43  1  0  0  0  0
 26 44  1  0  0  0  0
 29 45  1  0  0  0  0
 29 46  1  0  0  0  0
 29 47  1  0  0  0  0
M  END
> <IC50[nM]>
6.3

$$$$
CHEMBL3265018
  -OEChem-05192314333D
 Structure written by MMmdl.
 47 51  0     0  0  0  0  0  0999 V2000
   -4.2567   -3.1043   13.5693 C   0  0  0  0  0  0  0  0  0  0  0  0
   -3.8736   -2.3603   14.7157 O   0  0  0  0  0  0  0  0  0  0  0  0
   -2.5257   -2.1109   14.8170 C   0  0  0  0  0  0  0  0  0  0  0  0
   -1.7457   -2.8699   15.6819 C   0  0  0  0  0  0  0  0  0  0  0  0
   -0.3904   -2.6103   15.8138 C   0  0  0  0  0  0  0  0  0  0  0  0
    0.2205   -1.5845   15.0866 C   0  0  0  0  0  0  0  0  0  0  0  0
    1.6039   -1.3601   15.3216 N   0  0  0  0  0  0  0  0  0  0  0  0
    2.5369   -0.4474   14.7595 C   0  0  0  0  0  0  0  0  0  0  0  0
    2.1817    0.3719   13.7240 N   0  0  0  0  0  0  0  0  0  0  0  0
    3.1138    1.2387   13.2179 C   0  0  0  0  0  0  0  0  0  0  0  0
    4.4187    1.2840   13.7027 C   0  0  0  0  0  0  0  0  0  0  0  0
    4.7466    0.4880   14.7600 N   0  0  0  0  0  0  0  0  0  0  0  0
    5.8977    0.3770   15.4865 C   0  0  0  0  0  0  0  0  0  0  0  0
    5.5876   -0.5233   16.5295 C   0  0  0  0  0  0  0  0  0  0  0  0
    4.3760   -1.0434   16.3734 N   0  0  0  0  0  0  0  0  0  0  0  0
    3.8370   -0.3940   15.3257 C   0  0  0  0  0  0  0  0  0  0  0  0
    2.6359    2.1614   12.1223 C   0  0  0  0  0  0  0  0  0  0  0  0
    1.3054    2.6314   12.1303 C   0  0  0  0  0  0  0  0  0  0  0  0
    0.8262    3.5165   11.1628 C   0  0  0  0  0  0  0  0  0  0  0  0
    1.7006    3.9330   10.1707 C   0  0  0  0  0  0  0  0  0  0  0  0
    1.4948    4.8131    9.1162 N   0  0  0  0  0  0  0  0  0  0  0  0
    2.6280    4.8521    8.4793 C   0  0  0  0  0  0  0  0  0  0  0  0
    3.5731    4.0579    9.0246 N   0  0  0  0  0  0  0  0  0  0  0  0
    3.0312    3.4473   10.1317 C   0  0  0  0  0  0  0  0  0  0  0  0
    3.5261    2.5537   11.0860 C   0  0  0  0  0  0  0  0  0  0  0  0
   -0.5552   -0.8189   14.1920 C   0  0  0  0  0  0  0  0  0  0  0  0
   -1.9445   -1.0884   14.0613 C   0  0  0  0  0  0  0  0  0  0  0  0
   -2.7533   -0.3562   13.2050 O   0  0  0  0  0  0  0  0  0  0  0  0
   -2.2327    0.6448   12.3521 C   0  0  0  0  0  0  0  0  0  0  0  0
   -5.3466   -3.2530   13.5754 H   0  0  0  0  0  0  0  0  0  0  0  0
   -3.9668   -2.5544   12.6618 H   0  0  0  0  0  0  0  0  0  0  0  0
   -3.7533   -4.0823   13.5820 H   0  0  0  0  0  0  0  0  0  0  0  0
   -2.1981   -3.6662   16.2542 H   0  0  0  0  0  0  0  0  0  0  0  0
   -0.2169   -2.3863   16.8767 H   0  0  0  0  0  0  0  0  0  0  0  0
    0.1336   -3.5393   15.5446 H   0  0  0  0  0  0  0  0  0  0  0  0
    5.1536    1.9344   13.2517 H   0  0  0  0  0  0  0  0  0  0  0  0
    6.8406    0.8706   15.3032 H   0  0  0  0  0  0  0  0  0  0  0  0
    6.2508   -0.7585   17.3488 H   0  0  0  0  0  0  0  0  0  0  0  0
    0.6368    2.2959   12.9093 H   0  0  0  0  0  0  0  0  0  0  0  0
   -0.1953    3.8664   11.1865 H   0  0  0  0  0  0  0  0  0  0  0  0
    2.4569    4.5297    7.4416 H   0  0  0  0  0  0  0  0  0  0  0  0
    2.9966    5.8885    8.4852 H   0  0  0  0  0  0  0  0  0  0  0  0
    4.5378    2.1788   11.0381 H   0  0  0  0  0  0  0  0  0  0  0  0
   -0.0967   -0.0331   13.6101 H   0  0  0  0  0  0  0  0  0  0  0  0
   -3.0507    1.0906   11.7671 H   0  0  0  0  0  0  0  0  0  0  0  0
   -1.7468    1.4250   12.9565 H   0  0  0  0  0  0  0  0  0  0  0  0
   -1.4953    0.1975   11.6693 H   0  0  0  0  0  0  0  0  0  0  0  0
  1  2  1  0  0  0  0
  2  3  1  0  0  0  0
  3  4  2  0  0  0  0
  3 27  1  0  0  0  0
  4  5  1  0  0  0  0
  5  6  1  0  0  0  0
  6  7  2  0  0  0  0
  6 26  1  0  0  0  0
  7  8  1  0  0  0  0
  8  9  2  0  0  0  0
  8 16  1  0  0  0  0
  9 10  1  0  0  0  0
 10 11  2  0  0  0  0
 10 17  1  0  0  0  0
 11 12  1  0  0  0  0
 12 13  1  0  0  0  0
 12 16  1  0  0  0  0
 13 14  2  0  0  0  0
 14 15  1  0  0  0  0
 15 16  2  0  0  0  0
 17 18  1  0  0  0  0
 17 25  2  0  0  0  0
 18 19  2  0  0  0  0
 19 20  1  0  0  0  0
 20 21  2  0  0  0  0
 20 24  1  0  0  0  0
 21 22  1  0  0  0  0
 22 23  1  0  0  0  0
 23 24  2  0  0  0  0
 24 25  1  0  0  0  0
 26 27  2  0  0  0  0
 27 28  1  0  0  0  0
 28 29  1  0  0  0  0
  1 30  1  0  0  0  0
  1 31  1  0  0  0  0
  1 32  1  0  0  0  0
  4 33  1  0  0  0  0
  5 34  1  0  0  0  0
  5 35  1  0  0  0  0
 11 36  1  0  0  0  0
 13 37  1  0  0  0  0
 14 38  1  0  0  0  0
 18 39  1  0  0  0  0
 19 40  1  0  0  0  0
 22 41  1  0  0  0  0
 22 42  1  0  0  0  0
 25 43  1  0  0  0  0
 26 44  1  0  0  0  0
 29 45  1  0  0  0  0
 29 46  1  0  0  0  0
 29 47  1  0  0  0  0
M  END
> <IC50[nM]>
6.3

$$$$
CHEMBL3265018
  -OEChem-05192314333D
 Structure written by MMmdl.
 47 51  0     0  0  0  0  0  0999 V2000
   -4.2567   -3.1043   13.5693 C   0  0  0  0  0  0  0  0  0  0  0  0
   -3.8736   -2.3603   14.7157 O   0  0  0  0  0  0  0  0  0  0  0  0
   -2.5257   -2.1109   14.8170 C   0  0  0  0  0  0  0  0  0  0  0  0
   -1.7457   -2.8699   15.6819 C   0  0  0  0  0  0  0  0  0  0  0  0
   -0.3904   -2.6103   15.8138 C   0  0  0  0  0  0  0  0  0  0  0  0
    0.2205   -1.5845   15.0866 C   0  0  0  0  0  0  0  0  0  0  0  0
    1.6039   -1.3601   15.3216 N   0  0  0  0  0  0  0  0  0  0  0  0
    2.5369   -0.4474   14.7595 C   0  0  0  0  0  0  0  0  0  0  0  0
    2.1817    0.3719   13.7240 N   0  0  0  0  0  0  0  0  0  0  0  0
    3.1138    1.2387   13.2179 C   0  0  0  0  0  0  0  0  0  0  0  0
    4.4187    1.2840   13.7027 C   0  0  0  0  0  0  0  0  0  0  0  0
    4.7466    0.4880   14.7600 N   0  0  0  0  0  0  0  0  0  0  0  0
    5.8977    0.3770   15.4865 C   0  0  0  0  0  0  0  0  0  0  0  0
    5.5876   -0.5233   16.5295 C   0  0  0  0  0  0  0  0  0  0  0  0
    4.3760   -1.0434   16.3734 N   0  0  0  0  0  0  0  0  0  0  0  0
    3.8370   -0.3940   15.3257 C   0  0  0  0  0  0  0  0  0  0  0  0
    2.6359    2.1614   12.1223 C   0  0  0  0  0  0  0  0  0  0  0  0
    1.3054    2.6314   12.1303 C   0  0  0  0  0  0  0  0  0  0  0  0
    0.8262    3.5165   11.1628 C   0  0  0  0  0  0  0  0  0  0  0  0
    1.7006    3.9330   10.1707 C   0  0  0  0  0  0  0  0  0  0  0  0
    1.4948    4.8131    9.1162 N   0  0  0  0  0  0  0  0  0  0  0  0
    2.6280    4.8521    8.4793 C   0  0  0  0  0  0  0  0  0  0  0  0
    3.5731    4.0579    9.0246 N   0  0  0  0  0  0  0  0  0  0  0  0
    3.0312    3.4473   10.1317 C   0  0  0  0  0  0  0  0  0  0  0  0
    3.5261    2.5537   11.0860 C   0  0  0  0  0  0  0  0  0  0  0  0
   -0.5552   -0.8189   14.1920 C   0  0  0  0  0  0  0  0  0  0  0  0
   -1.9445   -1.0884   14.0613 C   0  0  0  0  0  0  0  0  0  0  0  0
   -2.7533   -0.3562   13.2050 O   0  0  0  0  0  0  0  0  0  0  0  0
   -2.2327    0.6448   12.3521 C   0  0  0  0  0  0  0  0  0  0  0  0
   -5.3466   -3.2530   13.5754 H   0  0  0  0  0  0  0  0  0  0  0  0
   -3.9668   -2.5544   12.6618 H   0  0  0  0  0  0  0  0  0  0  0  0
   -3.7533   -4.0823   13.5820 H   0  0  0  0  0  0  0  0  0  0  0  0
   -2.1981   -3.6662   16.2542 H   0  0  0  0  0  0  0  0  0  0  0  0
    0.2026   -3.2097   16.4887 H   0  0  0  0  0  0  0  0  0  0  0  0
    5.1536    1.9344   13.2517 H   0  0  0  0  0  0  0  0  0  0  0  0
    6.8406    0.8706   15.3032 H   0  0  0  0  0  0  0  0  0  0  0  0
    6.2508   -0.7585   17.3488 H   0  0  0  0  0  0  0  0  0  0  0  0
    0.6368    2.2959   12.9093 H   0  0  0  0  0  0  0  0  0  0  0  0
   -0.1953    3.8664   11.1865 H   0  0  0  0  0  0  0  0  0  0  0  0
    2.4569    4.5297    7.4416 H   0  0  0  0  0  0  0  0  0  0  0  0
    2.9966    5.8885    8.4852 H   0  0  0  0  0  0  0  0  0  0  0  0
    4.5378    2.1788   11.0381 H   0  0  0  0  0  0  0  0  0  0  0  0
   -0.4614    0.2313   14.5055 H   0  0  0  0  0  0  0  0  0  0  0  0
   -0.1098   -0.9449   13.1941 H   0  0  0  0  0  0  0  0  0  0  0  0
   -3.0507    1.0906   11.7671 H   0  0  0  0  0  0  0  0  0  0  0  0
   -1.7468    1.4250   12.9565 H   0  0  0  0  0  0  0  0  0  0  0  0
   -1.4953    0.1975   11.6693 H   0  0  0  0  0  0  0  0  0  0  0  0
  1  2  1  0  0  0  0
  2  3  1  0  0  0  0
  3  4  1  0  0  0  0
  3 27  2  0  0  0  0
  4  5  2  0  0  0  0
  5  6  1  0  0  0  0
  6  7  2  0  0  0  0
  6 26  1  0  0  0  0
  7  8  1  0  0  0  0
  8  9  2  0  0  0  0
  8 16  1  0  0  0  0
  9 10  1  0  0  0  0
 10 11  2  0  0  0  0
 10 17  1  0  0  0  0
 11 12  1  0  0  0  0
 12 13  1  0  0  0  0
 12 16  1  0  0  0  0
 13 14  2  0  0  0  0
 14 15  1  0  0  0  0
 15 16  2  0  0  0  0
 17 18  1  0  0  0  0
 17 25  2  0  0  0  0
 18 19  2  0  0  0  0
 19 20  1  0  0  0  0
 20 21  2  0  0  0  0
 20 24  1  0  0  0  0
 21 22  1  0  0  0  0
 22 23  1  0  0  0  0
 23 24  2  0  0  0  0
 24 25  1  0  0  0  0
 26 27  1  0  0  0  0
 27 28  1  0  0  0  0
 28 29  1  0  0  0  0
  1 30  1  0  0  0  0
  1 31  1  0  0  0  0
  1 32  1  0  0  0  0
  4 33  1  0  0  0  0
  5 34  1  0  0  0  0
 11 35  1  0  0  0  0
 13 36  1  0  0  0  0
 14 37  1  0  0  0  0
 18 38  1  0  0  0  0
 19 39  1  0  0  0  0
 22 40  1  0  0  0  0
 22 41  1  0  0  0  0
 25 42  1  0  0  0  0
 26 43  1  0  0  0  0
 26 44  1  0  0  0  0
 29 45  1  0  0  0  0
 29 46  1  0  0  0  0
 29 47  1  0  0  0  0
M  END
> <IC50[nM]>
6.3

$$$$
CHEMBL3265018
  -OEChem-05192314333D
 Structure written by MMmdl.
 47 51  0     1  0  0  0  0  0999 V2000
   -4.2567   -3.1043   13.5693 C   0  0  0  0  0  0  0  0  0  0  0  0
   -3.8736   -2.3603   14.7157 O   0  0  0  0  0  0  0  0  0  0  0  0
   -2.5257   -2.1109   14.8170 C   0  0  0  0  0  0  0  0  0  0  0  0
   -1.7457   -2.8699   15.6819 C   0  0  0  0  0  0  0  0  0  0  0  0
   -0.3904   -2.6103   15.8138 C   0  0  0  0  0  0  0  0  0  0  0  0
    0.2205   -1.5845   15.0866 C   0  0  0  0  0  0  0  0  0  0  0  0
    1.6039   -1.3601   15.3216 N   0  0  0  0  0  0  0  0  0  0  0  0
    2.5369   -0.4474   14.7595 C   0  0  0  0  0  0  0  0  0  0  0  0
    2.1817    0.3719   13.7240 N   0  0  0  0  0  0  0  0  0  0  0  0
    3.1138    1.2387   13.2179 C   0  0  0  0  0  0  0  0  0  0  0  0
    4.4187    1.2840   13.7027 C   0  0  0  0  0  0  0  0  0  0  0  0
    4.7466    0.4880   14.7600 N   0  0  0  0  0  0  0  0  0  0  0  0
    5.8977    0.3770   15.4865 C   0  0  0  0  0  0  0  0  0  0  0  0
    5.5876   -0.5233   16.5295 C   0  0  0  0  0  0  0  0  0  0  0  0
    4.3760   -1.0434   16.3734 N   0  0  0  0  0  0  0  0  0  0  0  0
    3.8370   -0.3940   15.3257 C   0  0  0  0  0  0  0  0  0  0  0  0
    2.6359    2.1614   12.1223 C   0  0  3  0  0  0  0  0  0  0  0  0
    1.3054    2.6314   12.1303 C   0  0  0  0  0  0  0  0  0  0  0  0
    0.8262    3.5165   11.1628 C   0  0  0  0  0  0  0  0  0  0  0  0
    1.7006    3.9330   10.1707 C   0  0  0  0  0  0  0  0  0  0  0  0
    1.4948    4.8131    9.1162 N   0  0  0  0  0  0  0  0  0  0  0  0
    2.6280    4.8521    8.4793 C   0  0  0  0  0  0  0  0  0  0  0  0
    3.5731    4.0579    9.0246 N   0  0  0  0  0  0  0  0  0  0  0  0
    3.0312    3.4473   10.1317 C   0  0  0  0  0  0  0  0  0  0  0  0
    3.5261    2.5537   11.0860 C   0  0  0  0  0  0  0  0  0  0  0  0
   -0.5552   -0.8189   14.1920 C   0  0  0  0  0  0  0  0  0  0  0  0
   -1.9445   -1.0884   14.0613 C   0  0  0  0  0  0  0  0  0  0  0  0
   -2.7533   -0.3562   13.2050 O   0  0  0  0  0  0  0  0  0  0  0  0
   -2.2327    0.6448   12.3521 C   0  0  0  0  0  0  0  0  0  0  0  0
   -5.3466   -3.2530   13.5754 H   0  0  0  0  0  0  0  0  0  0  0  0
   -3.9668   -2.5544   12.6618 H   0  0  0  0  0  0  0  0  0  0  0  0
   -3.7533   -4.0823   13.5820 H   0  0  0  0  0  0  0  0  0  0  0  0
   -2.1981   -3.6662   16.2542 H   0  0  0  0  0  0  0  0  0  0  0  0
    0.2026   -3.2097   16.4887 H   0  0  0  0  0  0  0  0  0  0  0  0
    1.2578    0.3389   13.3429 H   0  0  0  0  0  0  0  0  0  0  0  0
    5.1536    1.9344   13.2517 H   0  0  0  0  0  0  0  0  0  0  0  0
    6.8406    0.8706   15.3032 H   0  0  0  0  0  0  0  0  0  0  0  0
    6.2508   -0.7585   17.3488 H   0  0  0  0  0  0  0  0  0  0  0  0
    2.9470    3.0315   12.7191 H   0  0  0  0  0  0  0  0  0  0  0  0
    0.6368    2.2959   12.9093 H   0  0  0  0  0  0  0  0  0  0  0  0
   -0.1953    3.8664   11.1865 H   0  0  0  0  0  0  0  0  0  0  0  0
    2.7959    5.4592    7.6020 H   0  0  0  0  0  0  0  0  0  0  0  0
    4.5378    2.1788   11.0381 H   0  0  0  0  0  0  0  0  0  0  0  0
   -0.0967   -0.0331   13.6101 H   0  0  0  0  0  0  0  0  0  0  0  0
   -3.0507    1.0906   11.7671 H   0  0  0  0  0  0  0  0  0  0  0  0
   -1.7468    1.4250   12.9565 H   0  0  0  0  0  0  0  0  0  0  0  0
   -1.4953    0.1975   11.6693 H   0  0  0  0  0  0  0  0  0  0  0  0
  1  2  1  0  0  0  0
  2  3  1  0  0  0  0
  3  4  2  0  0  0  0
  3 27  1  0  0  0  0
  4  5  1  0  0  0  0
  5  6  2  0  0  0  0
  6  7  1  0  0  0  0
  6 26  1  0  0  0  0
  7  8  2  0  0  0  0
  8  9  1  0  0  0  0
  8 16  1  0  0  0  0
  9 10  1  0  0  0  0
 10 11  2  0  0  0  0
 10 17  1  0  0  0  0
 11 12  1  0  0  0  0
 12 13  1  0  0  0  0
 12 16  1  0  0  0  0
 13 14  2  0  0  0  0
 14 15  1  0  0  0  0
 15 16  2  0  0  0  0
 17 18  1  0  0  0  0
 17 25  1  0  0  0  0
 18 19  2  0  0  0  0
 19 20  1  0  0  0  0
 20 21  2  0  0  0  0
 20 24  1  0  0  0  0
 21 22  1  0  0  0  0
 22 23  2  0  0  0  0
 23 24  1  0  0  0  0
 24 25  2  0  0  0  0
 26 27  2  0  0  0  0
 27 28  1  0  0  0  0
 28 29  1  0  0  0  0
  1 30  1  0  0  0  0
  1 31  1  0  0  0  0
  1 32  1  0  0  0  0
  4 33  1  0  0  0  0
  5 34  1  0  0  0  0
  9 35  1  0  0  0  0
 11 36  1  0  0  0  0
 13 37  1  0  0  0  0
 14 38  1  0  0  0  0
 17 39  1  0  0  0  0
 18 40  1  0  0  0  0
 19 41  1  0  0  0  0
 22 42  1  0  0  0  0
 25 43  1  0  0  0  0
 26 44  1  0  0  0  0
 29 45  1  0  0  0  0
 29 46  1  0  0  0  0
 29 47  1  0  0  0  0
M  END
> <IC50[nM]>
6.3

$$$$
CHEMBL3265018
  -OEChem-05192314333D
 Structure written by MMmdl.
 47 51  0     1  0  0  0  0  0999 V2000
   -4.2567   -3.1043   13.5693 C   0  0  0  0  0  0  0  0  0  0  0  0
   -3.8736   -2.3603   14.7157 O   0  0  0  0  0  0  0  0  0  0  0  0
   -2.5257   -2.1109   14.8170 C   0  0  0  0  0  0  0  0  0  0  0  0
   -1.7457   -2.8699   15.6819 C   0  0  0  0  0  0  0  0  0  0  0  0
   -0.3904   -2.6103   15.8138 C   0  0  0  0  0  0  0  0  0  0  0  0
    0.2205   -1.5845   15.0866 C   0  0  0  0  0  0  0  0  0  0  0  0
    1.6039   -1.3601   15.3216 N   0  0  0  0  0  0  0  0  0  0  0  0
    2.5369   -0.4474   14.7595 C   0  0  0  0  0  0  0  0  0  0  0  0
    2.1817    0.3719   13.7240 N   0  0  0  0  0  0  0  0  0  0  0  0
    3.1138    1.2387   13.2179 C   0  0  0  0  0  0  0  0  0  0  0  0
    4.4187    1.2840   13.7027 C   0  0  0  0  0  0  0  0  0  0  0  0
    4.7466    0.4880   14.7600 N   0  0  0  0  0  0  0  0  0  0  0  0
    5.8977    0.3770   15.4865 C   0  0  0  0  0  0  0  0  0  0  0  0
    5.5876   -0.5233   16.5295 C   0  0  0  0  0  0  0  0  0  0  0  0
    4.3760   -1.0434   16.3734 N   0  0  0  0  0  0  0  0  0  0  0  0
    3.8370   -0.3940   15.3257 C   0  0  0  0  0  0  0  0  0  0  0  0
    2.6359    2.1614   12.1223 C   0  0  0  0  0  0  0  0  0  0  0  0
    1.3054    2.6314   12.1303 C   0  0  0  0  0  0  0  0  0  0  0  0
    0.8262    3.5165   11.1628 C   0  0  0  0  0  0  0  0  0  0  0  0
    1.7006    3.9330   10.1707 C   0  0  0  0  0  0  0  0  0  0  0  0
    1.4948    4.8131    9.1162 N   0  0  0  0  0  0  0  0  0  0  0  0
    2.6280    4.8521    8.4793 C   0  0  0  0  0  0  0  0  0  0  0  0
    3.5731    4.0579    9.0246 N   0  0  0  0  0  0  0  0  0  0  0  0
    3.0312    3.4473   10.1317 C   0  0  3  0  0  0  0  0  0  0  0  0
    3.5261    2.5537   11.0860 C   0  0  0  0  0  0  0  0  0  0  0  0
   -0.5552   -0.8189   14.1920 C   0  0  0  0  0  0  0  0  0  0  0  0
   -1.9445   -1.0884   14.0613 C   0  0  0  0  0  0  0  0  0  0  0  0
   -2.7533   -0.3562   13.2050 O   0  0  0  0  0  0  0  0  0  0  0  0
   -2.2327    0.6448   12.3521 C   0  0  0  0  0  0  0  0  0  0  0  0
   -5.3466   -3.2530   13.5754 H   0  0  0  0  0  0  0  0  0  0  0  0
   -3.9668   -2.5544   12.6618 H   0  0  0  0  0  0  0  0  0  0  0  0
   -3.7533   -4.0823   13.5820 H   0  0  0  0  0  0  0  0  0  0  0  0
   -2.1981   -3.6662   16.2542 H   0  0  0  0  0  0  0  0  0  0  0  0
    0.2026   -3.2097   16.4887 H   0  0  0  0  0  0  0  0  0  0  0  0
    1.2578    0.3389   13.3429 H   0  0  0  0  0  0  0  0  0  0  0  0
    5.1536    1.9344   13.2517 H   0  0  0  0  0  0  0  0  0  0  0  0
    6.8406    0.8706   15.3032 H   0  0  0  0  0  0  0  0  0  0  0  0
    6.2508   -0.7585   17.3488 H   0  0  0  0  0  0  0  0  0  0  0  0
    0.6368    2.2959   12.9093 H   0  0  0  0  0  0  0  0  0  0  0  0
   -0.1953    3.8664   11.1865 H   0  0  0  0  0  0  0  0  0  0  0  0
    2.7959    5.4592    7.6020 H   0  0  0  0  0  0  0  0  0  0  0  0
    2.7055    2.6021    9.5075 H   0  0  0  0  0  0  0  0  0  0  0  0
    4.5378    2.1788   11.0381 H   0  0  0  0  0  0  0  0  0  0  0  0
   -0.0967   -0.0331   13.6101 H   0  0  0  0  0  0  0  0  0  0  0  0
   -3.0507    1.0906   11.7671 H   0  0  0  0  0  0  0  0  0  0  0  0
   -1.7468    1.4250   12.9565 H   0  0  0  0  0  0  0  0  0  0  0  0
   -1.4953    0.1975   11.6693 H   0  0  0  0  0  0  0  0  0  0  0  0
  1  2  1  0  0  0  0
  2  3  1  0  0  0  0
  3  4  2  0  0  0  0
  3 27  1  0  0  0  0
  4  5  1  0  0  0  0
  5  6  2  0  0  0  0
  6  7  1  0  0  0  0
  6 26  1  0  0  0  0
  7  8  2  0  0  0  0
  8  9  1  0  0  0  0
  8 16  1  0  0  0  0
  9 10  1  0  0  0  0
 10 11  2  0  0  0  0
 10 17  1  0  0  0  0
 11 12  1  0  0  0  0
 12 13  1  0  0  0  0
 12 16  1  0  0  0  0
 13 14  2  0  0  0  0
 14 15  1  0  0  0  0
 15 16  2  0  0  0  0
 17 18  1  0  0  0  0
 17 25  2  0  0  0  0
 18 19  2  0  0  0  0
 19 20  1  0  0  0  0
 20 21  2  0  0  0  0
 20 24  1  0  0  0  0
 21 22  1  0  0  0  0
 22 23  2  0  0  0  0
 23 24  1  0  0  0  0
 24 25  1  0  0  0  0
 26 27  2  0  0  0  0
 27 28  1  0  0  0  0
 28 29  1  0  0  0  0
  1 30  1  0  0  0  0
  1 31  1  0  0  0  0
  1 32  1  0  0  0  0
  4 33  1  0  0  0  0
  5 34  1  0  0  0  0
  9 35  1  0  0  0  0
 11 36  1  0  0  0  0
 13 37  1  0  0  0  0
 14 38  1  0  0  0  0
 18 39  1  0  0  0  0
 19 40  1  0  0  0  0
 22 41  1  0  0  0  0
 24 42  1  0  0  0  0
 25 43  1  0  0  0  0
 26 44  1  0  0  0  0
 29 45  1  0  0  0  0
 29 46  1  0  0  0  0
 29 47  1  0  0  0  0
M  END
> <IC50[nM]>
6.3

$$$$
CHEMBL3265018
  -OEChem-05192314333D
 Structure written by MMmdl.
 47 51  0     1  0  0  0  0  0999 V2000
   -4.2567   -3.1043   13.5693 C   0  0  0  0  0  0  0  0  0  0  0  0
   -3.8736   -2.3603   14.7157 O   0  0  0  0  0  0  0  0  0  0  0  0
   -2.5257   -2.1109   14.8170 C   0  0  0  0  0  0  0  0  0  0  0  0
   -1.7457   -2.8699   15.6819 C   0  0  0  0  0  0  0  0  0  0  0  0
   -0.3904   -2.6103   15.8138 C   0  0  0  0  0  0  0  0  0  0  0  0
    0.2205   -1.5845   15.0866 C   0  0  0  0  0  0  0  0  0  0  0  0
    1.6039   -1.3601   15.3216 N   0  0  0  0  0  0  0  0  0  0  0  0
    2.5369   -0.4474   14.7595 C   0  0  0  0  0  0  0  0  0  0  0  0
    2.1817    0.3719   13.7240 N   0  0  0  0  0  0  0  0  0  0  0  0
    3.1138    1.2387   13.2179 C   0  0  0  0  0  0  0  0  0  0  0  0
    4.4187    1.2840   13.7027 C   0  0  0  0  0  0  0  0  0  0  0  0
    4.7466    0.4880   14.7600 N   0  0  0  0  0  0  0  0  0  0  0  0
    5.8977    0.3770   15.4865 C   0  0  0  0  0  0  0  0  0  0  0  0
    5.5876   -0.5233   16.5295 C   0  0  0  0  0  0  0  0  0  0  0  0
    4.3760   -1.0434   16.3734 N   0  0  0  0  0  0  0  0  0  0  0  0
    3.8370   -0.3940   15.3257 C   0  0  0  0  0  0  0  0  0  0  0  0
    2.6359    2.1614   12.1223 C   0  0  0  0  0  0  0  0  0  0  0  0
    1.3054    2.6314   12.1303 C   0  0  0  0  0  0  0  0  0  0  0  0
    0.8262    3.5165   11.1628 C   0  0  0  0  0  0  0  0  0  0  0  0
    1.7006    3.9330   10.1707 C   0  0  3  0  0  0  0  0  0  0  0  0
    1.4948    4.8131    9.1162 N   0  0  0  0  0  0  0  0  0  0  0  0
    2.6280    4.8521    8.4793 C   0  0  0  0  0  0  0  0  0  0  0  0
    3.5731    4.0579    9.0246 N   0  0  0  0  0  0  0  0  0  0  0  0
    3.0312    3.4473   10.1317 C   0  0  0  0  0  0  0  0  0  0  0  0
    3.5261    2.5537   11.0860 C   0  0  0  0  0  0  0  0  0  0  0  0
   -0.5552   -0.8189   14.1920 C   0  0  0  0  0  0  0  0  0  0  0  0
   -1.9445   -1.0884   14.0613 C   0  0  0  0  0  0  0  0  0  0  0  0
   -2.7533   -0.3562   13.2050 O   0  0  0  0  0  0  0  0  0  0  0  0
   -2.2327    0.6448   12.3521 C   0  0  0  0  0  0  0  0  0  0  0  0
   -5.3466   -3.2530   13.5754 H   0  0  0  0  0  0  0  0  0  0  0  0
   -3.9668   -2.5544   12.6618 H   0  0  0  0  0  0  0  0  0  0  0  0
   -3.7533   -4.0823   13.5820 H   0  0  0  0  0  0  0  0  0  0  0  0
   -2.1981   -3.6662   16.2542 H   0  0  0  0  0  0  0  0  0  0  0  0
    0.2026   -3.2097   16.4887 H   0  0  0  0  0  0  0  0  0  0  0  0
    1.2578    0.3389   13.3429 H   0  0  0  0  0  0  0  0  0  0  0  0
    5.1536    1.9344   13.2517 H   0  0  0  0  0  0  0  0  0  0  0  0
    6.8406    0.8706   15.3032 H   0  0  0  0  0  0  0  0  0  0  0  0
    6.2508   -0.7585   17.3488 H   0  0  0  0  0  0  0  0  0  0  0  0
    0.6368    2.2959   12.9093 H   0  0  0  0  0  0  0  0  0  0  0  0
   -0.1953    3.8664   11.1865 H   0  0  0  0  0  0  0  0  0  0  0  0
    2.0243    4.7701   10.8068 H   0  0  0  0  0  0  0  0  0  0  0  0
    2.7959    5.4592    7.6020 H   0  0  0  0  0  0  0  0  0  0  0  0
    4.5378    2.1788   11.0381 H   0  0  0  0  0  0  0  0  0  0  0  0
   -0.0967   -0.0331   13.6101 H   0  0  0  0  0  0  0  0  0  0  0  0
   -3.0507    1.0906   11.7671 H   0  0  0  0  0  0  0  0  0  0  0  0
   -1.7468    1.4250   12.9565 H   0  0  0  0  0  0  0  0  0  0  0  0
   -1.4953    0.1975   11.6693 H   0  0  0  0  0  0  0  0  0  0  0  0
  1  2  1  0  0  0  0
  2  3  1  0  0  0  0
  3  4  2  0  0  0  0
  3 27  1  0  0  0  0
  4  5  1  0  0  0  0
  5  6  2  0  0  0  0
  6  7  1  0  0  0  0
  6 26  1  0  0  0  0
  7  8  2  0  0  0  0
  8  9  1  0  0  0  0
  8 16  1  0  0  0  0
  9 10  1  0  0  0  0
 10 11  2  0  0  0  0
 10 17  1  0  0  0  0
 11 12  1  0  0  0  0
 12 13  1  0  0  0  0
 12 16  1  0  0  0  0
 13 14  2  0  0  0  0
 14 15  1  0  0  0  0
 15 16  2  0  0  0  0
 17 18  1  0  0  0  0
 17 25  2  0  0  0  0
 18 19  2  0  0  0  0
 19 20  1  0  0  0  0
 20 21  1  0  0  0  0
 20 24  1  0  0  0  0
 21 22  2  0  0  0  0
 22 23  1  0  0  0  0
 23 24  2  0  0  0  0
 24 25  1  0  0  0  0
 26 27  2  0  0  0  0
 27 28  1  0  0  0  0
 28 29  1  0  0  0  0
  1 30  1  0  0  0  0
  1 31  1  0  0  0  0
  1 32  1  0  0  0  0
  4 33  1  0  0  0  0
  5 34  1  0  0  0  0
  9 35  1  0  0  0  0
 11 36  1  0  0  0  0
 13 37  1  0  0  0  0
 14 38  1  0  0  0  0
 18 39  1  0  0  0  0
 19 40  1  0  0  0  0
 20 41  1  0  0  0  0
 22 42  1  0  0  0  0
 25 43  1  0  0  0  0
 26 44  1  0  0  0  0
 29 45  1  0  0  0  0
 29 46  1  0  0  0  0
 29 47  1  0  0  0  0
M  END
> <IC50[nM]>
6.3

$$$$
CHEMBL3265018
  -OEChem-05192314333D
 Structure written by MMmdl.
 47 51  0     0  0  0  0  0  0999 V2000
   -4.2567   -3.1043   13.5693 C   0  0  0  0  0  0  0  0  0  0  0  0
   -3.8736   -2.3603   14.7157 O   0  0  0  0  0  0  0  0  0  0  0  0
   -2.5257   -2.1109   14.8170 C   0  0  0  0  0  0  0  0  0  0  0  0
   -1.7457   -2.8699   15.6819 C   0  0  0  0  0  0  0  0  0  0  0  0
   -0.3904   -2.6103   15.8138 C   0  0  0  0  0  0  0  0  0  0  0  0
    0.2205   -1.5845   15.0866 C   0  0  0  0  0  0  0  0  0  0  0  0
    1.6039   -1.3601   15.3216 N   0  0  0  0  0  0  0  0  0  0  0  0
    2.5369   -0.4474   14.7595 C   0  0  0  0  0  0  0  0  0  0  0  0
    2.1817    0.3719   13.7240 N   0  0  0  0  0  0  0  0  0  0  0  0
    3.1138    1.2387   13.2179 C   0  0  0  0  0  0  0  0  0  0  0  0
    4.4187    1.2840   13.7027 C   0  0  0  0  0  0  0  0  0  0  0  0
    4.7466    0.4880   14.7600 N   0  0  0  0  0  0  0  0  0  0  0  0
    5.8977    0.3770   15.4865 C   0  0  0  0  0  0  0  0  0  0  0  0
    5.5876   -0.5233   16.5295 C   0  0  0  0  0  0  0  0  0  0  0  0
    4.3760   -1.0434   16.3734 N   0  0  0  0  0  0  0  0  0  0  0  0
    3.8370   -0.3940   15.3257 C   0  0  0  0  0  0  0  0  0  0  0  0
    2.6359    2.1614   12.1223 C   0  0  0  0  0  0  0  0  0  0  0  0
    1.3054    2.6314   12.1303 C   0  0  0  0  0  0  0  0  0  0  0  0
    0.8262    3.5165   11.1628 C   0  0  0  0  0  0  0  0  0  0  0  0
    1.7006    3.9330   10.1707 C   0  0  0  0  0  0  0  0  0  0  0  0
    1.4948    4.8131    9.1162 N   0  0  0  0  0  0  0  0  0  0  0  0
    2.6280    4.8521    8.4793 C   0  0  0  0  0  0  0  0  0  0  0  0
    3.5731    4.0579    9.0246 N   0  0  0  0  0  0  0  0  0  0  0  0
    3.0312    3.4473   10.1317 C   0  0  0  0  0  0  0  0  0  0  0  0
    3.5261    2.5537   11.0860 C   0  0  0  0  0  0  0  0  0  0  0  0
   -0.5552   -0.8189   14.1920 C   0  0  0  0  0  0  0  0  0  0  0  0
   -1.9445   -1.0884   14.0613 C   0  0  0  0  0  0  0  0  0  0  0  0
   -2.7533   -0.3562   13.2050 O   0  0  0  0  0  0  0  0  0  0  0  0
   -2.2327    0.6448   12.3521 C   0  0  0  0  0  0  0  0  0  0  0  0
   -5.3466   -3.2530   13.5754 H   0  0  0  0  0  0  0  0  0  0  0  0
   -3.9668   -2.5544   12.6618 H   0  0  0  0  0  0  0  0  0  0  0  0
   -3.7533   -4.0823   13.5820 H   0  0  0  0  0  0  0  0  0  0  0  0
   -2.1981   -3.6662   16.2542 H   0  0  0  0  0  0  0  0  0  0  0  0
    0.2026   -3.2097   16.4887 H   0  0  0  0  0  0  0  0  0  0  0  0
    1.2578    0.3389   13.3429 H   0  0  0  0  0  0  0  0  0  0  0  0
    5.1536    1.9344   13.2517 H   0  0  0  0  0  0  0  0  0  0  0  0
    6.8406    0.8706   15.3032 H   0  0  0  0  0  0  0  0  0  0  0  0
    6.2508   -0.7585   17.3488 H   0  0  0  0  0  0  0  0  0  0  0  0
    0.6368    2.2959   12.9093 H   0  0  0  0  0  0  0  0  0  0  0  0
   -0.0242    3.0277   10.6650 H   0  0  0  0  0  0  0  0  0  0  0  0
    0.4753    4.4168   11.6884 H   0  0  0  0  0  0  0  0  0  0  0  0
    2.7959    5.4592    7.6020 H   0  0  0  0  0  0  0  0  0  0  0  0
    4.5378    2.1788   11.0381 H   0  0  0  0  0  0  0  0  0  0  0  0
   -0.0967   -0.0331   13.6101 H   0  0  0  0  0  0  0  0  0  0  0  0
   -3.0507    1.0906   11.7671 H   0  0  0  0  0  0  0  0  0  0  0  0
   -1.7468    1.4250   12.9565 H   0  0  0  0  0  0  0  0  0  0  0  0
   -1.4953    0.1975   11.6693 H   0  0  0  0  0  0  0  0  0  0  0  0
  1  2  1  0  0  0  0
  2  3  1  0  0  0  0
  3  4  2  0  0  0  0
  3 27  1  0  0  0  0
  4  5  1  0  0  0  0
  5  6  2  0  0  0  0
  6  7  1  0  0  0  0
  6 26  1  0  0  0  0
  7  8  2  0  0  0  0
  8  9  1  0  0  0  0
  8 16  1  0  0  0  0
  9 10  1  0  0  0  0
 10 11  2  0  0  0  0
 10 17  1  0  0  0  0
 11 12  1  0  0  0  0
 12 13  1  0  0  0  0
 12 16  1  0  0  0  0
 13 14  2  0  0  0  0
 14 15  1  0  0  0  0
 15 16  2  0  0  0  0
 17 18  2  0  0  0  0
 17 25  1  0  0  0  0
 18 19  1  0  0  0  0
 19 20  1  0  0  0  0
 20 21  2  0  0  0  0
 20 24  1  0  0  0  0
 21 22  1  0  0  0  0
 22 23  2  0  0  0  0
 23 24  1  0  0  0  0
 24 25  2  0  0  0  0
 26 27  2  0  0  0  0
 27 28  1  0  0  0  0
 28 29  1  0  0  0  0
  1 30  1  0  0  0  0
  1 31  1  0  0  0  0
  1 32  1  0  0  0  0
  4 33  1  0  0  0  0
  5 34  1  0  0  0  0
  9 35  1  0  0  0  0
 11 36  1  0  0  0  0
 13 37  1  0  0  0  0
 14 38  1  0  0  0  0
 18 39  1  0  0  0  0
 19 40  1  0  0  0  0
 19 41  1  0  0  0  0
 22 42  1  0  0  0  0
 25 43  1  0  0  0  0
 26 44  1  0  0  0  0
 29 45  1  0  0  0  0
 29 46  1  0  0  0  0
 29 47  1  0  0  0  0
M  END
> <IC50[nM]>
6.3

$$$$
CHEMBL3265018
  -OEChem-05192314333D
 Structure written by MMmdl.
 47 51  0     0  0  0  0  0  0999 V2000
   -4.2567   -3.1043   13.5693 C   0  0  0  0  0  0  0  0  0  0  0  0
   -3.8736   -2.3603   14.7157 O   0  0  0  0  0  0  0  0  0  0  0  0
   -2.5257   -2.1109   14.8170 C   0  0  0  0  0  0  0  0  0  0  0  0
   -1.7457   -2.8699   15.6819 C   0  0  0  0  0  0  0  0  0  0  0  0
   -0.3904   -2.6103   15.8138 C   0  0  0  0  0  0  0  0  0  0  0  0
    0.2205   -1.5845   15.0866 C   0  0  0  0  0  0  0  0  0  0  0  0
    1.6039   -1.3601   15.3216 N   0  0  0  0  0  0  0  0  0  0  0  0
    2.5369   -0.4474   14.7595 C   0  0  0  0  0  0  0  0  0  0  0  0
    2.1817    0.3719   13.7240 N   0  0  0  0  0  0  0  0  0  0  0  0
    3.1138    1.2387   13.2179 C   0  0  0  0  0  0  0  0  0  0  0  0
    4.4187    1.2840   13.7027 C   0  0  0  0  0  0  0  0  0  0  0  0
    4.7466    0.4880   14.7600 N   0  0  0  0  0  0  0  0  0  0  0  0
    5.8977    0.3770   15.4865 C   0  0  0  0  0  0  0  0  0  0  0  0
    5.5876   -0.5233   16.5295 C   0  0  0  0  0  0  0  0  0  0  0  0
    4.3760   -1.0434   16.3734 N   0  0  0  0  0  0  0  0  0  0  0  0
    3.8370   -0.3940   15.3257 C   0  0  0  0  0  0  0  0  0  0  0  0
    2.6359    2.1614   12.1223 C   0  0  0  0  0  0  0  0  0  0  0  0
    1.3054    2.6314   12.1303 C   0  0  0  0  0  0  0  0  0  0  0  0
    0.8262    3.5165   11.1628 C   0  0  0  0  0  0  0  0  0  0  0  0
    1.7006    3.9330   10.1707 C   0  0  0  0  0  0  0  0  0  0  0  0
    1.4948    4.8131    9.1162 N   0  0  0  0  0  0  0  0  0  0  0  0
    2.6280    4.8521    8.4793 C   0  0  0  0  0  0  0  0  0  0  0  0
    3.5731    4.0579    9.0246 N   0  0  0  0  0  0  0  0  0  0  0  0
    3.0312    3.4473   10.1317 C   0  0  0  0  0  0  0  0  0  0  0  0
    3.5261    2.5537   11.0860 C   0  0  0  0  0  0  0  0  0  0  0  0
   -0.5552   -0.8189   14.1920 C   0  0  0  0  0  0  0  0  0  0  0  0
   -1.9445   -1.0884   14.0613 C   0  0  0  0  0  0  0  0  0  0  0  0
   -2.7533   -0.3562   13.2050 O   0  0  0  0  0  0  0  0  0  0  0  0
   -2.2327    0.6448   12.3521 C   0  0  0  0  0  0  0  0  0  0  0  0
   -5.3466   -3.2530   13.5754 H   0  0  0  0  0  0  0  0  0  0  0  0
   -3.9668   -2.5544   12.6618 H   0  0  0  0  0  0  0  0  0  0  0  0
   -3.7533   -4.0823   13.5820 H   0  0  0  0  0  0  0  0  0  0  0  0
   -2.1981   -3.6662   16.2542 H   0  0  0  0  0  0  0  0  0  0  0  0
    0.2026   -3.2097   16.4887 H   0  0  0  0  0  0  0  0  0  0  0  0
    1.2578    0.3389   13.3429 H   0  0  0  0  0  0  0  0  0  0  0  0
    5.1536    1.9344   13.2517 H   0  0  0  0  0  0  0  0  0  0  0  0
    6.8406    0.8706   15.3032 H   0  0  0  0  0  0  0  0  0  0  0  0
    6.2508   -0.7585   17.3488 H   0  0  0  0  0  0  0  0  0  0  0  0
    0.6638    1.7395   12.0760 H   0  0  0  0  0  0  0  0  0  0  0  0
    1.1607    3.1287   13.1007 H   0  0  0  0  0  0  0  0  0  0  0  0
   -0.1953    3.8664   11.1865 H   0  0  0  0  0  0  0  0  0  0  0  0
    2.7959    5.4592    7.6020 H   0  0  0  0  0  0  0  0  0  0  0  0
    4.5378    2.1788   11.0381 H   0  0  0  0  0  0  0  0  0  0  0  0
   -0.0967   -0.0331   13.6101 H   0  0  0  0  0  0  0  0  0  0  0  0
   -3.0507    1.0906   11.7671 H   0  0  0  0  0  0  0  0  0  0  0  0
   -1.7468    1.4250   12.9565 H   0  0  0  0  0  0  0  0  0  0  0  0
   -1.4953    0.1975   11.6693 H   0  0  0  0  0  0  0  0  0  0  0  0
  1  2  1  0  0  0  0
  2  3  1  0  0  0  0
  3  4  2  0  0  0  0
  3 27  1  0  0  0  0
  4  5  1  0  0  0  0
  5  6  2  0  0  0  0
  6  7  1  0  0  0  0
  6 26  1  0  0  0  0
  7  8  2  0  0  0  0
  8  9  1  0  0  0  0
  8 16  1  0  0  0  0
  9 10  1  0  0  0  0
 10 11  2  0  0  0  0
 10 17  1  0  0  0  0
 11 12  1  0  0  0  0
 12 13  1  0  0  0  0
 12 16  1  0  0  0  0
 13 14  2  0  0  0  0
 14 15  1  0  0  0  0
 15 16  2  0  0  0  0
 17 18  1  0  0  0  0
 17 25  2  0  0  0  0
 18 19  1  0  0  0  0
 19 20  2  0  0  0  0
 20 21  1  0  0  0  0
 20 24  1  0  0  0  0
 21 22  2  0  0  0  0
 22 23  1  0  0  0  0
 23 24  2  0  0  0  0
 24 25  1  0  0  0  0
 26 27  2  0  0  0  0
 27 28  1  0  0  0  0
 28 29  1  0  0  0  0
  1 30  1  0  0  0  0
  1 31  1  0  0  0  0
  1 32  1  0  0  0  0
  4 33  1  0  0  0  0
  5 34  1  0  0  0  0
  9 35  1  0  0  0  0
 11 36  1  0  0  0  0
 13 37  1  0  0  0  0
 14 38  1  0  0  0  0
 18 39  1  0  0  0  0
 18 40  1  0  0  0  0
 19 41  1  0  0  0  0
 22 42  1  0  0  0  0
 25 43  1  0  0  0  0
 26 44  1  0  0  0  0
 29 45  1  0  0  0  0
 29 46  1  0  0  0  0
 29 47  1  0  0  0  0
M  END
> <IC50[nM]>
6.3

$$$$
CHEMBL3265018
  -OEChem-05192314333D
 Structure written by MMmdl.
 47 51  0     0  0  0  0  0  0999 V2000
   -4.2567   -3.1043   13.5693 C   0  0  0  0  0  0  0  0  0  0  0  0
   -3.8736   -2.3603   14.7157 O   0  0  0  0  0  0  0  0  0  0  0  0
   -2.5257   -2.1109   14.8170 C   0  0  0  0  0  0  0  0  0  0  0  0
   -1.7457   -2.8699   15.6819 C   0  0  0  0  0  0  0  0  0  0  0  0
   -0.3904   -2.6103   15.8138 C   0  0  0  0  0  0  0  0  0  0  0  0
    0.2205   -1.5845   15.0866 C   0  0  0  0  0  0  0  0  0  0  0  0
    1.6039   -1.3601   15.3216 N   0  0  0  0  0  0  0  0  0  0  0  0
    2.5369   -0.4474   14.7595 C   0  0  0  0  0  0  0  0  0  0  0  0
    2.1817    0.3719   13.7240 N   0  0  0  0  0  0  0  0  0  0  0  0
    3.1138    1.2387   13.2179 C   0  0  0  0  0  0  0  0  0  0  0  0
    4.4187    1.2840   13.7027 C   0  0  0  0  0  0  0  0  0  0  0  0
    4.7466    0.4880   14.7600 N   0  0  0  0  0  0  0  0  0  0  0  0
    5.8977    0.3770   15.4865 C   0  0  0  0  0  0  0  0  0  0  0  0
    5.5876   -0.5233   16.5295 C   0  0  0  0  0  0  0  0  0  0  0  0
    4.3760   -1.0434   16.3734 N   0  0  0  0  0  0  0  0  0  0  0  0
    3.8370   -0.3940   15.3257 C   0  0  0  0  0  0  0  0  0  0  0  0
    2.6359    2.1614   12.1223 C   0  0  0  0  0  0  0  0  0  0  0  0
    1.3054    2.6314   12.1303 C   0  0  0  0  0  0  0  0  0  0  0  0
    0.8262    3.5165   11.1628 C   0  0  0  0  0  0  0  0  0  0  0  0
    1.7006    3.9330   10.1707 C   0  0  0  0  0  0  0  0  0  0  0  0
    1.4948    4.8131    9.1162 N   0  0  0  0  0  0  0  0  0  0  0  0
    2.6280    4.8521    8.4793 C   0  0  0  0  0  0  0  0  0  0  0  0
    3.5731    4.0579    9.0246 N   0  0  0  0  0  0  0  0  0  0  0  0
    3.0312    3.4473   10.1317 C   0  0  0  0  0  0  0  0  0  0  0  0
    3.5261    2.5537   11.0860 C   0  0  0  0  0  0  0  0  0  0  0  0
   -0.5552   -0.8189   14.1920 C   0  0  0  0  0  0  0  0  0  0  0  0
   -1.9445   -1.0884   14.0613 C   0  0  0  0  0  0  0  0  0  0  0  0
   -2.7533   -0.3562   13.2050 O   0  0  0  0  0  0  0  0  0  0  0  0
   -2.2327    0.6448   12.3521 C   0  0  0  0  0  0  0  0  0  0  0  0
   -5.3466   -3.2530   13.5754 H   0  0  0  0  0  0  0  0  0  0  0  0
   -3.9668   -2.5544   12.6618 H   0  0  0  0  0  0  0  0  0  0  0  0
   -3.7533   -4.0823   13.5820 H   0  0  0  0  0  0  0  0  0  0  0  0
   -2.1981   -3.6662   16.2542 H   0  0  0  0  0  0  0  0  0  0  0  0
    0.2026   -3.2097   16.4887 H   0  0  0  0  0  0  0  0  0  0  0  0
    1.2578    0.3389   13.3429 H   0  0  0  0  0  0  0  0  0  0  0  0
    5.1536    1.9344   13.2517 H   0  0  0  0  0  0  0  0  0  0  0  0
    6.8406    0.8706   15.3032 H   0  0  0  0  0  0  0  0  0  0  0  0
    6.2508   -0.7585   17.3488 H   0  0  0  0  0  0  0  0  0  0  0  0
    0.6368    2.2959   12.9093 H   0  0  0  0  0  0  0  0  0  0  0  0
   -0.1953    3.8664   11.1865 H   0  0  0  0  0  0  0  0  0  0  0  0
    2.7959    5.4592    7.6020 H   0  0  0  0  0  0  0  0  0  0  0  0
    4.4007    3.0238   11.5594 H   0  0  0  0  0  0  0  0  0  0  0  0
    3.8414    1.6427   10.5562 H   0  0  0  0  0  0  0  0  0  0  0  0
   -0.0967   -0.0331   13.6101 H   0  0  0  0  0  0  0  0  0  0  0  0
   -3.0507    1.0906   11.7671 H   0  0  0  0  0  0  0  0  0  0  0  0
   -1.7468    1.4250   12.9565 H   0  0  0  0  0  0  0  0  0  0  0  0
   -1.4953    0.1975   11.6693 H   0  0  0  0  0  0  0  0  0  0  0  0
  1  2  1  0  0  0  0
  2  3  1  0  0  0  0
  3  4  2  0  0  0  0
  3 27  1  0  0  0  0
  4  5  1  0  0  0  0
  5  6  2  0  0  0  0
  6  7  1  0  0  0  0
  6 26  1  0  0  0  0
  7  8  2  0  0  0  0
  8  9  1  0  0  0  0
  8 16  1  0  0  0  0
  9 10  1  0  0  0  0
 10 11  2  0  0  0  0
 10 17  1  0  0  0  0
 11 12  1  0  0  0  0
 12 13  1  0  0  0  0
 12 16  1  0  0  0  0
 13 14  2  0  0  0  0
 14 15  1  0  0  0  0
 15 16  2  0  0  0  0
 17 18  2  0  0  0  0
 17 25  1  0  0  0  0
 18 19  1  0  0  0  0
 19 20  2  0  0  0  0
 20 21  1  0  0  0  0
 20 24  1  0  0  0  0
 21 22  2  0  0  0  0
 22 23  1  0  0  0  0
 23 24  2  0  0  0  0
 24 25  1  0  0  0  0
 26 27  2  0  0  0  0
 27 28  1  0  0  0  0
 28 29  1  0  0  0  0
  1 30  1  0  0  0  0
  1 31  1  0  0  0  0
  1 32  1  0  0  0  0
  4 33  1  0  0  0  0
  5 34  1  0  0  0  0
  9 35  1  0  0  0  0
 11 36  1  0  0  0  0
 13 37  1  0  0  0  0
 14 38  1  0  0  0  0
 18 39  1  0  0  0  0
 19 40  1  0  0  0  0
 22 41  1  0  0  0  0
 25 42  1  0  0  0  0
 25 43  1  0  0  0  0
 26 44  1  0  0  0  0
 29 45  1  0  0  0  0
 29 46  1  0  0  0  0
 29 47  1  0  0  0  0
M  END
> <IC50[nM]>
6.3

$$$$
CHEMBL3265018
  -OEChem-05192314333D
 Structure written by MMmdl.
 47 51  0     1  0  0  0  0  0999 V2000
   -4.2567   -3.1043   13.5693 C   0  0  0  0  0  0  0  0  0  0  0  0
   -3.8736   -2.3603   14.7157 O   0  0  0  0  0  0  0  0  0  0  0  0
   -2.5257   -2.1109   14.8170 C   0  0  0  0  0  0  0  0  0  0  0  0
   -1.7457   -2.8699   15.6819 C   0  0  0  0  0  0  0  0  0  0  0  0
   -0.3904   -2.6103   15.8138 C   0  0  0  0  0  0  0  0  0  0  0  0
    0.2205   -1.5845   15.0866 C   0  0  0  0  0  0  0  0  0  0  0  0
    1.6039   -1.3601   15.3216 N   0  0  0  0  0  0  0  0  0  0  0  0
    2.5369   -0.4474   14.7595 C   0  0  0  0  0  0  0  0  0  0  0  0
    2.1817    0.3719   13.7240 N   0  0  0  0  0  0  0  0  0  0  0  0
    3.1138    1.2387   13.2179 C   0  0  0  0  0  0  0  0  0  0  0  0
    4.4187    1.2840   13.7027 C   0  0  0  0  0  0  0  0  0  0  0  0
    4.7466    0.4880   14.7600 N   0  0  0  0  0  0  0  0  0  0  0  0
    5.8977    0.3770   15.4865 C   0  0  0  0  0  0  0  0  0  0  0  0
    5.5876   -0.5233   16.5295 C   0  0  0  0  0  0  0  0  0  0  0  0
    4.3760   -1.0434   16.3734 N   0  0  0  0  0  0  0  0  0  0  0  0
    3.8370   -0.3940   15.3257 C   0  0  0  0  0  0  0  0  0  0  0  0
    2.6359    2.1614   12.1223 C   0  0  3  0  0  0  0  0  0  0  0  0
    1.3054    2.6314   12.1303 C   0  0  0  0  0  0  0  0  0  0  0  0
    0.8262    3.5165   11.1628 C   0  0  0  0  0  0  0  0  0  0  0  0
    1.7006    3.9330   10.1707 C   0  0  0  0  0  0  0  0  0  0  0  0
    1.4948    4.8131    9.1162 N   0  0  0  0  0  0  0  0  0  0  0  0
    2.6280    4.8521    8.4793 C   0  0  0  0  0  0  0  0  0  0  0  0
    3.5731    4.0579    9.0246 N   0  0  0  0  0  0  0  0  0  0  0  0
    3.0312    3.4473   10.1317 C   0  0  0  0  0  0  0  0  0  0  0  0
    3.5261    2.5537   11.0860 C   0  0  0  0  0  0  0  0  0  0  0  0
   -0.5552   -0.8189   14.1920 C   0  0  0  0  0  0  0  0  0  0  0  0
   -1.9445   -1.0884   14.0613 C   0  0  0  0  0  0  0  0  0  0  0  0
   -2.7533   -0.3562   13.2050 O   0  0  0  0  0  0  0  0  0  0  0  0
   -2.2327    0.6448   12.3521 C   0  0  0  0  0  0  0  0  0  0  0  0
   -5.3466   -3.2530   13.5754 H   0  0  0  0  0  0  0  0  0  0  0  0
   -3.9668   -2.5544   12.6618 H   0  0  0  0  0  0  0  0  0  0  0  0
   -3.7533   -4.0823   13.5820 H   0  0  0  0  0  0  0  0  0  0  0  0
   -2.1981   -3.6662   16.2542 H   0  0  0  0  0  0  0  0  0  0  0  0
    0.2026   -3.2097   16.4887 H   0  0  0  0  0  0  0  0  0  0  0  0
    5.0842    1.0099   12.8708 H   0  0  0  0  0  0  0  0  0  0  0  0
    4.6175    2.3230   14.0042 H   0  0  0  0  0  0  0  0  0  0  0  0
    6.8406    0.8706   15.3032 H   0  0  0  0  0  0  0  0  0  0  0  0
    6.2508   -0.7585   17.3488 H   0  0  0  0  0  0  0  0  0  0  0  0
    2.9470    3.0315   12.7191 H   0  0  0  0  0  0  0  0  0  0  0  0
    0.6368    2.2959   12.9093 H   0  0  0  0  0  0  0  0  0  0  0  0
   -0.1953    3.8664   11.1865 H   0  0  0  0  0  0  0  0  0  0  0  0
    2.7959    5.4592    7.6020 H   0  0  0  0  0  0  0  0  0  0  0  0
    4.5378    2.1788   11.0381 H   0  0  0  0  0  0  0  0  0  0  0  0
   -0.0967   -0.0331   13.6101 H   0  0  0  0  0  0  0  0  0  0  0  0
   -3.0507    1.0906   11.7671 H   0  0  0  0  0  0  0  0  0  0  0  0
   -1.7468    1.4250   12.9565 H   0  0  0  0  0  0  0  0  0  0  0  0
   -1.4953    0.1975   11.6693 H   0  0  0  0  0  0  0  0  0  0  0  0
  1  2  1  0  0  0  0
  2  3  1  0  0  0  0
  3  4  2  0  0  0  0
  3 27  1  0  0  0  0
  4  5  1  0  0  0  0
  5  6  2  0  0  0  0
  6  7  1  0  0  0  0
  6 26  1  0  0  0  0
  7  8  2  0  0  0  0
  8  9  1  0  0  0  0
  8 16  1  0  0  0  0
  9 10  2  0  0  0  0
 10 11  1  0  0  0  0
 10 17  1  0  0  0  0
 11 12  1  0  0  0  0
 12 13  1  0  0  0  0
 12 16  1  0  0  0  0
 13 14  2  0  0  0  0
 14 15  1  0  0  0  0
 15 16  2  0  0  0  0
 17 18  1  0  0  0  0
 17 25  1  0  0  0  0
 18 19  2  0  0  0  0
 19 20  1  0  0  0  0
 20 21  2  0  0  0  0
 20 24  1  0  0  0  0
 21 22  1  0  0  0  0
 22 23  2  0  0  0  0
 23 24  1  0  0  0  0
 24 25  2  0  0  0  0
 26 27  2  0  0  0  0
 27 28  1  0  0  0  0
 28 29  1  0  0  0  0
  1 30  1  0  0  0  0
  1 31  1  0  0  0  0
  1 32  1  0  0  0  0
  4 33  1  0  0  0  0
  5 34  1  0  0  0  0
 11 35  1  0  0  0  0
 11 36  1  0  0  0  0
 13 37  1  0  0  0  0
 14 38  1  0  0  0  0
 17 39  1  0  0  0  0
 18 40  1  0  0  0  0
 19 41  1  0  0  0  0
 22 42  1  0  0  0  0
 25 43  1  0  0  0  0
 26 44  1  0  0  0  0
 29 45  1  0  0  0  0
 29 46  1  0  0  0  0
 29 47  1  0  0  0  0
M  END
> <IC50[nM]>
6.3

$$$$
CHEMBL3265018
  -OEChem-05192314333D
 Structure written by MMmdl.
 47 51  0     1  0  0  0  0  0999 V2000
   -4.2567   -3.1043   13.5693 C   0  0  0  0  0  0  0  0  0  0  0  0
   -3.8736   -2.3603   14.7157 O   0  0  0  0  0  0  0  0  0  0  0  0
   -2.5257   -2.1109   14.8170 C   0  0  0  0  0  0  0  0  0  0  0  0
   -1.7457   -2.8699   15.6819 C   0  0  0  0  0  0  0  0  0  0  0  0
   -0.3904   -2.6103   15.8138 C   0  0  0  0  0  0  0  0  0  0  0  0
    0.2205   -1.5845   15.0866 C   0  0  0  0  0  0  0  0  0  0  0  0
    1.6039   -1.3601   15.3216 N   0  0  0  0  0  0  0  0  0  0  0  0
    2.5369   -0.4474   14.7595 C   0  0  0  0  0  0  0  0  0  0  0  0
    2.1817    0.3719   13.7240 N   0  0  0  0  0  0  0  0  0  0  0  0
    3.1138    1.2387   13.2179 C   0  0  0  0  0  0  0  0  0  0  0  0
    4.4187    1.2840   13.7027 C   0  0  0  0  0  0  0  0  0  0  0  0
    4.7466    0.4880   14.7600 N   0  0  0  0  0  0  0  0  0  0  0  0
    5.8977    0.3770   15.4865 C   0  0  0  0  0  0  0  0  0  0  0  0
    5.5876   -0.5233   16.5295 C   0  0  0  0  0  0  0  0  0  0  0  0
    4.3760   -1.0434   16.3734 N   0  0  0  0  0  0  0  0  0  0  0  0
    3.8370   -0.3940   15.3257 C   0  0  0  0  0  0  0  0  0  0  0  0
    2.6359    2.1614   12.1223 C   0  0  0  0  0  0  0  0  0  0  0  0
    1.3054    2.6314   12.1303 C   0  0  0  0  0  0  0  0  0  0  0  0
    0.8262    3.5165   11.1628 C   0  0  0  0  0  0  0  0  0  0  0  0
    1.7006    3.9330   10.1707 C   0  0  0  0  0  0  0  0  0  0  0  0
    1.4948    4.8131    9.1162 N   0  0  0  0  0  0  0  0  0  0  0  0
    2.6280    4.8521    8.4793 C   0  0  0  0  0  0  0  0  0  0  0  0
    3.5731    4.0579    9.0246 N   0  0  0  0  0  0  0  0  0  0  0  0
    3.0312    3.4473   10.1317 C   0  0  3  0  0  0  0  0  0  0  0  0
    3.5261    2.5537   11.0860 C   0  0  0  0  0  0  0  0  0  0  0  0
   -0.5552   -0.8189   14.1920 C   0  0  0  0  0  0  0  0  0  0  0  0
   -1.9445   -1.0884   14.0613 C   0  0  0  0  0  0  0  0  0  0  0  0
   -2.7533   -0.3562   13.2050 O   0  0  0  0  0  0  0  0  0  0  0  0
   -2.2327    0.6448   12.3521 C   0  0  0  0  0  0  0  0  0  0  0  0
   -5.3466   -3.2530   13.5754 H   0  0  0  0  0  0  0  0  0  0  0  0
   -3.9668   -2.5544   12.6618 H   0  0  0  0  0  0  0  0  0  0  0  0
   -3.7533   -4.0823   13.5820 H   0  0  0  0  0  0  0  0  0  0  0  0
   -2.1981   -3.6662   16.2542 H   0  0  0  0  0  0  0  0  0  0  0  0
    0.2026   -3.2097   16.4887 H   0  0  0  0  0  0  0  0  0  0  0  0
    5.0842    1.0099   12.8708 H   0  0  0  0  0  0  0  0  0  0  0  0
    4.6175    2.3230   14.0042 H   0  0  0  0  0  0  0  0  0  0  0  0
    6.8406    0.8706   15.3032 H   0  0  0  0  0  0  0  0  0  0  0  0
    6.2508   -0.7585   17.3488 H   0  0  0  0  0  0  0  0  0  0  0  0
    0.6368    2.2959   12.9093 H   0  0  0  0  0  0  0  0  0  0  0  0
   -0.1953    3.8664   11.1865 H   0  0  0  0  0  0  0  0  0  0  0  0
    2.7959    5.4592    7.6020 H   0  0  0  0  0  0  0  0  0  0  0  0
    2.7055    2.6021    9.5075 H   0  0  0  0  0  0  0  0  0  0  0  0
    4.5378    2.1788   11.0381 H   0  0  0  0  0  0  0  0  0  0  0  0
   -0.0967   -0.0331   13.6101 H   0  0  0  0  0  0  0  0  0  0  0  0
   -3.0507    1.0906   11.7671 H   0  0  0  0  0  0  0  0  0  0  0  0
   -1.7468    1.4250   12.9565 H   0  0  0  0  0  0  0  0  0  0  0  0
   -1.4953    0.1975   11.6693 H   0  0  0  0  0  0  0  0  0  0  0  0
  1  2  1  0  0  0  0
  2  3  1  0  0  0  0
  3  4  2  0  0  0  0
  3 27  1  0  0  0  0
  4  5  1  0  0  0  0
  5  6  2  0  0  0  0
  6  7  1  0  0  0  0
  6 26  1  0  0  0  0
  7  8  2  0  0  0  0
  8  9  1  0  0  0  0
  8 16  1  0  0  0  0
  9 10  2  0  0  0  0
 10 11  1  0  0  0  0
 10 17  1  0  0  0  0
 11 12  1  0  0  0  0
 12 13  1  0  0  0  0
 12 16  1  0  0  0  0
 13 14  2  0  0  0  0
 14 15  1  0  0  0  0
 15 16  2  0  0  0  0
 17 18  1  0  0  0  0
 17 25  2  0  0  0  0
 18 19  2  0  0  0  0
 19 20  1  0  0  0  0
 20 21  2  0  0  0  0
 20 24  1  0  0  0  0
 21 22  1  0  0  0  0
 22 23  2  0  0  0  0
 23 24  1  0  0  0  0
 24 25  1  0  0  0  0
 26 27  2  0  0  0  0
 27 28  1  0  0  0  0
 28 29  1  0  0  0  0
  1 30  1  0  0  0  0
  1 31  1  0  0  0  0
  1 32  1  0  0  0  0
  4 33  1  0  0  0  0
  5 34  1  0  0  0  0
 11 35  1  0  0  0  0
 11 36  1  0  0  0  0
 13 37  1  0  0  0  0
 14 38  1  0  0  0  0
 18 39  1  0  0  0  0
 19 40  1  0  0  0  0
 22 41  1  0  0  0  0
 24 42  1  0  0  0  0
 25 43  1  0  0  0  0
 26 44  1  0  0  0  0
 29 45  1  0  0  0  0
 29 46  1  0  0  0  0
 29 47  1  0  0  0  0
M  END
> <IC50[nM]>
6.3

$$$$
CHEMBL3265018
  -OEChem-05192314333D
 Structure written by MMmdl.
 47 51  0     1  0  0  0  0  0999 V2000
   -4.2567   -3.1043   13.5693 C   0  0  0  0  0  0  0  0  0  0  0  0
   -3.8736   -2.3603   14.7157 O   0  0  0  0  0  0  0  0  0  0  0  0
   -2.5257   -2.1109   14.8170 C   0  0  0  0  0  0  0  0  0  0  0  0
   -1.7457   -2.8699   15.6819 C   0  0  0  0  0  0  0  0  0  0  0  0
   -0.3904   -2.6103   15.8138 C   0  0  0  0  0  0  0  0  0  0  0  0
    0.2205   -1.5845   15.0866 C   0  0  0  0  0  0  0  0  0  0  0  0
    1.6039   -1.3601   15.3216 N   0  0  0  0  0  0  0  0  0  0  0  0
    2.5369   -0.4474   14.7595 C   0  0  0  0  0  0  0  0  0  0  0  0
    2.1817    0.3719   13.7240 N   0  0  0  0  0  0  0  0  0  0  0  0
    3.1138    1.2387   13.2179 C   0  0  0  0  0  0  0  0  0  0  0  0
    4.4187    1.2840   13.7027 C   0  0  0  0  0  0  0  0  0  0  0  0
    4.7466    0.4880   14.7600 N   0  0  0  0  0  0  0  0  0  0  0  0
    5.8977    0.3770   15.4865 C   0  0  0  0  0  0  0  0  0  0  0  0
    5.5876   -0.5233   16.5295 C   0  0  0  0  0  0  0  0  0  0  0  0
    4.3760   -1.0434   16.3734 N   0  0  0  0  0  0  0  0  0  0  0  0
    3.8370   -0.3940   15.3257 C   0  0  0  0  0  0  0  0  0  0  0  0
    2.6359    2.1614   12.1223 C   0  0  0  0  0  0  0  0  0  0  0  0
    1.3054    2.6314   12.1303 C   0  0  0  0  0  0  0  0  0  0  0  0
    0.8262    3.5165   11.1628 C   0  0  0  0  0  0  0  0  0  0  0  0
    1.7006    3.9330   10.1707 C   0  0  3  0  0  0  0  0  0  0  0  0
    1.4948    4.8131    9.1162 N   0  0  0  0  0  0  0  0  0  0  0  0
    2.6280    4.8521    8.4793 C   0  0  0  0  0  0  0  0  0  0  0  0
    3.5731    4.0579    9.0246 N   0  0  0  0  0  0  0  0  0  0  0  0
    3.0312    3.4473   10.1317 C   0  0  0  0  0  0  0  0  0  0  0  0
    3.5261    2.5537   11.0860 C   0  0  0  0  0  0  0  0  0  0  0  0
   -0.5552   -0.8189   14.1920 C   0  0  0  0  0  0  0  0  0  0  0  0
   -1.9445   -1.0884   14.0613 C   0  0  0  0  0  0  0  0  0  0  0  0
   -2.7533   -0.3562   13.2050 O   0  0  0  0  0  0  0  0  0  0  0  0
   -2.2327    0.6448   12.3521 C   0  0  0  0  0  0  0  0  0  0  0  0
   -5.3466   -3.2530   13.5754 H   0  0  0  0  0  0  0  0  0  0  0  0
   -3.9668   -2.5544   12.6618 H   0  0  0  0  0  0  0  0  0  0  0  0
   -3.7533   -4.0823   13.5820 H   0  0  0  0  0  0  0  0  0  0  0  0
   -2.1981   -3.6662   16.2542 H   0  0  0  0  0  0  0  0  0  0  0  0
    0.2026   -3.2097   16.4887 H   0  0  0  0  0  0  0  0  0  0  0  0
    5.0842    1.0099   12.8708 H   0  0  0  0  0  0  0  0  0  0  0  0
    4.6175    2.3230   14.0042 H   0  0  0  0  0  0  0  0  0  0  0  0
    6.8406    0.8706   15.3032 H   0  0  0  0  0  0  0  0  0  0  0  0
    6.2508   -0.7585   17.3488 H   0  0  0  0  0  0  0  0  0  0  0  0
    0.6368    2.2959   12.9093 H   0  0  0  0  0  0  0  0  0  0  0  0
   -0.1953    3.8664   11.1865 H   0  0  0  0  0  0  0  0  0  0  0  0
    2.0243    4.7701   10.8068 H   0  0  0  0  0  0  0  0  0  0  0  0
    2.7959    5.4592    7.6020 H   0  0  0  0  0  0  0  0  0  0  0  0
    4.5378    2.1788   11.0381 H   0  0  0  0  0  0  0  0  0  0  0  0
   -0.0967   -0.0331   13.6101 H   0  0  0  0  0  0  0  0  0  0  0  0
   -3.0507    1.0906   11.7671 H   0  0  0  0  0  0  0  0  0  0  0  0
   -1.7468    1.4250   12.9565 H   0  0  0  0  0  0  0  0  0  0  0  0
   -1.4953    0.1975   11.6693 H   0  0  0  0  0  0  0  0  0  0  0  0
  1  2  1  0  0  0  0
  2  3  1  0  0  0  0
  3  4  2  0  0  0  0
  3 27  1  0  0  0  0
  4  5  1  0  0  0  0
  5  6  2  0  0  0  0
  6  7  1  0  0  0  0
  6 26  1  0  0  0  0
  7  8  2  0  0  0  0
  8  9  1  0  0  0  0
  8 16  1  0  0  0  0
  9 10  2  0  0  0  0
 10 11  1  0  0  0  0
 10 17  1  0  0  0  0
 11 12  1  0  0  0  0
 12 13  1  0  0  0  0
 12 16  1  0  0  0  0
 13 14  2  0  0  0  0
 14 15  1  0  0  0  0
 15 16  2  0  0  0  0
 17 18  1  0  0  0  0
 17 25  2  0  0  0  0
 18 19  2  0  0  0  0
 19 20  1  0  0  0  0
 20 21  1  0  0  0  0
 20 24  1  0  0  0  0
 21 22  2  0  0  0  0
 22 23  1  0  0  0  0
 23 24  2  0  0  0  0
 24 25  1  0  0  0  0
 26 27  2  0  0  0  0
 27 28  1  0  0  0  0
 28 29  1  0  0  0  0
  1 30  1  0  0  0  0
  1 31  1  0  0  0  0
  1 32  1  0  0  0  0
  4 33  1  0  0  0  0
  5 34  1  0  0  0  0
 11 35  1  0  0  0  0
 11 36  1  0  0  0  0
 13 37  1  0  0  0  0
 14 38  1  0  0  0  0
 18 39  1  0  0  0  0
 19 40  1  0  0  0  0
 20 41  1  0  0  0  0
 22 42  1  0  0  0  0
 25 43  1  0  0  0  0
 26 44  1  0  0  0  0
 29 45  1  0  0  0  0
 29 46  1  0  0  0  0
 29 47  1  0  0  0  0
M  END
> <IC50[nM]>
6.3

$$$$
CHEMBL3265018
  -OEChem-05192314333D
 Structure written by MMmdl.
 47 51  0     0  0  0  0  0  0999 V2000
   -4.2567   -3.1043   13.5693 C   0  0  0  0  0  0  0  0  0  0  0  0
   -3.8736   -2.3603   14.7157 O   0  0  0  0  0  0  0  0  0  0  0  0
   -2.5257   -2.1109   14.8170 C   0  0  0  0  0  0  0  0  0  0  0  0
   -1.7457   -2.8699   15.6819 C   0  0  0  0  0  0  0  0  0  0  0  0
   -0.3904   -2.6103   15.8138 C   0  0  0  0  0  0  0  0  0  0  0  0
    0.2205   -1.5845   15.0866 C   0  0  0  0  0  0  0  0  0  0  0  0
    1.6039   -1.3601   15.3216 N   0  0  0  0  0  0  0  0  0  0  0  0
    2.5369   -0.4474   14.7595 C   0  0  0  0  0  0  0  0  0  0  0  0
    2.1817    0.3719   13.7240 N   0  0  0  0  0  0  0  0  0  0  0  0
    3.1138    1.2387   13.2179 C   0  0  0  0  0  0  0  0  0  0  0  0
    4.4187    1.2840   13.7027 C   0  0  0  0  0  0  0  0  0  0  0  0
    4.7466    0.4880   14.7600 N   0  0  0  0  0  0  0  0  0  0  0  0
    5.8977    0.3770   15.4865 C   0  0  0  0  0  0  0  0  0  0  0  0
    5.5876   -0.5233   16.5295 C   0  0  0  0  0  0  0  0  0  0  0  0
    4.3760   -1.0434   16.3734 N   0  0  0  0  0  0  0  0  0  0  0  0
    3.8370   -0.3940   15.3257 C   0  0  0  0  0  0  0  0  0  0  0  0
    2.6359    2.1614   12.1223 C   0  0  0  0  0  0  0  0  0  0  0  0
    1.3054    2.6314   12.1303 C   0  0  0  0  0  0  0  0  0  0  0  0
    0.8262    3.5165   11.1628 C   0  0  0  0  0  0  0  0  0  0  0  0
    1.7006    3.9330   10.1707 C   0  0  0  0  0  0  0  0  0  0  0  0
    1.4948    4.8131    9.1162 N   0  0  0  0  0  0  0  0  0  0  0  0
    2.6280    4.8521    8.4793 C   0  0  0  0  0  0  0  0  0  0  0  0
    3.5731    4.0579    9.0246 N   0  0  0  0  0  0  0  0  0  0  0  0
    3.0312    3.4473   10.1317 C   0  0  0  0  0  0  0  0  0  0  0  0
    3.5261    2.5537   11.0860 C   0  0  0  0  0  0  0  0  0  0  0  0
   -0.5552   -0.8189   14.1920 C   0  0  0  0  0  0  0  0  0  0  0  0
   -1.9445   -1.0884   14.0613 C   0  0  0  0  0  0  0  0  0  0  0  0
   -2.7533   -0.3562   13.2050 O   0  0  0  0  0  0  0  0  0  0  0  0
   -2.2327    0.6448   12.3521 C   0  0  0  0  0  0  0  0  0  0  0  0
   -5.3466   -3.2530   13.5754 H   0  0  0  0  0  0  0  0  0  0  0  0
   -3.9668   -2.5544   12.6618 H   0  0  0  0  0  0  0  0  0  0  0  0
   -3.7533   -4.0823   13.5820 H   0  0  0  0  0  0  0  0  0  0  0  0
   -2.1981   -3.6662   16.2542 H   0  0  0  0  0  0  0  0  0  0  0  0
    0.2026   -3.2097   16.4887 H   0  0  0  0  0  0  0  0  0  0  0  0
    5.0842    1.0099   12.8708 H   0  0  0  0  0  0  0  0  0  0  0  0
    4.6175    2.3230   14.0042 H   0  0  0  0  0  0  0  0  0  0  0  0
    6.8406    0.8706   15.3032 H   0  0  0  0  0  0  0  0  0  0  0  0
    6.2508   -0.7585   17.3488 H   0  0  0  0  0  0  0  0  0  0  0  0
    0.6368    2.2959   12.9093 H   0  0  0  0  0  0  0  0  0  0  0  0
   -0.0242    3.0277   10.6650 H   0  0  0  0  0  0  0  0  0  0  0  0
    0.4753    4.4168   11.6884 H   0  0  0  0  0  0  0  0  0  0  0  0
    2.7959    5.4592    7.6020 H   0  0  0  0  0  0  0  0  0  0  0  0
    4.5378    2.1788   11.0381 H   0  0  0  0  0  0  0  0  0  0  0  0
   -0.0967   -0.0331   13.6101 H   0  0  0  0  0  0  0  0  0  0  0  0
   -3.0507    1.0906   11.7671 H   0  0  0  0  0  0  0  0  0  0  0  0
   -1.7468    1.4250   12.9565 H   0  0  0  0  0  0  0  0  0  0  0  0
   -1.4953    0.1975   11.6693 H   0  0  0  0  0  0  0  0  0  0  0  0
  1  2  1  0  0  0  0
  2  3  1  0  0  0  0
  3  4  2  0  0  0  0
  3 27  1  0  0  0  0
  4  5  1  0  0  0  0
  5  6  2  0  0  0  0
  6  7  1  0  0  0  0
  6 26  1  0  0  0  0
  7  8  2  0  0  0  0
  8  9  1  0  0  0  0
  8 16  1  0  0  0  0
  9 10  2  0  0  0  0
 10 11  1  0  0  0  0
 10 17  1  0  0  0  0
 11 12  1  0  0  0  0
 12 13  1  0  0  0  0
 12 16  1  0  0  0  0
 13 14  2  0  0  0  0
 14 15  1  0  0  0  0
 15 16  2  0  0  0  0
 17 18  2  0  0  0  0
 17 25  1  0  0  0  0
 18 19  1  0  0  0  0
 19 20  1  0  0  0  0
 20 21  2  0  0  0  0
 20 24  1  0  0  0  0
 21 22  1  0  0  0  0
 22 23  2  0  0  0  0
 23 24  1  0  0  0  0
 24 25  2  0  0  0  0
 26 27  2  0  0  0  0
 27 28  1  0  0  0  0
 28 29  1  0  0  0  0
  1 30  1  0  0  0  0
  1 31  1  0  0  0  0
  1 32  1  0  0  0  0
  4 33  1  0  0  0  0
  5 34  1  0  0  0  0
 11 35  1  0  0  0  0
 11 36  1  0  0  0  0
 13 37  1  0  0  0  0
 14 38  1  0  0  0  0
 18 39  1  0  0  0  0
 19 40  1  0  0  0  0
 19 41  1  0  0  0  0
 22 42  1  0  0  0  0
 25 43  1  0  0  0  0
 26 44  1  0  0  0  0
 29 45  1  0  0  0  0
 29 46  1  0  0  0  0
 29 47  1  0  0  0  0
M  END
> <IC50[nM]>
6.3

$$$$
CHEMBL3265018
  -OEChem-05192314333D
 Structure written by MMmdl.
 47 51  0     0  0  0  0  0  0999 V2000
   -4.2567   -3.1043   13.5693 C   0  0  0  0  0  0  0  0  0  0  0  0
   -3.8736   -2.3603   14.7157 O   0  0  0  0  0  0  0  0  0  0  0  0
   -2.5257   -2.1109   14.8170 C   0  0  0  0  0  0  0  0  0  0  0  0
   -1.7457   -2.8699   15.6819 C   0  0  0  0  0  0  0  0  0  0  0  0
   -0.3904   -2.6103   15.8138 C   0  0  0  0  0  0  0  0  0  0  0  0
    0.2205   -1.5845   15.0866 C   0  0  0  0  0  0  0  0  0  0  0  0
    1.6039   -1.3601   15.3216 N   0  0  0  0  0  0  0  0  0  0  0  0
    2.5369   -0.4474   14.7595 C   0  0  0  0  0  0  0  0  0  0  0  0
    2.1817    0.3719   13.7240 N   0  0  0  0  0  0  0  0  0  0  0  0
    3.1138    1.2387   13.2179 C   0  0  0  0  0  0  0  0  0  0  0  0
    4.4187    1.2840   13.7027 C   0  0  0  0  0  0  0  0  0  0  0  0
    4.7466    0.4880   14.7600 N   0  0  0  0  0  0  0  0  0  0  0  0
    5.8977    0.3770   15.4865 C   0  0  0  0  0  0  0  0  0  0  0  0
    5.5876   -0.5233   16.5295 C   0  0  0  0  0  0  0  0  0  0  0  0
    4.3760   -1.0434   16.3734 N   0  0  0  0  0  0  0  0  0  0  0  0
    3.8370   -0.3940   15.3257 C   0  0  0  0  0  0  0  0  0  0  0  0
    2.6359    2.1614   12.1223 C   0  0  0  0  0  0  0  0  0  0  0  0
    1.3054    2.6314   12.1303 C   0  0  0  0  0  0  0  0  0  0  0  0
    0.8262    3.5165   11.1628 C   0  0  0  0  0  0  0  0  0  0  0  0
    1.7006    3.9330   10.1707 C   0  0  0  0  0  0  0  0  0  0  0  0
    1.4948    4.8131    9.1162 N   0  0  0  0  0  0  0  0  0  0  0  0
    2.6280    4.8521    8.4793 C   0  0  0  0  0  0  0  0  0  0  0  0
    3.5731    4.0579    9.0246 N   0  0  0  0  0  0  0  0  0  0  0  0
    3.0312    3.4473   10.1317 C   0  0  0  0  0  0  0  0  0  0  0  0
    3.5261    2.5537   11.0860 C   0  0  0  0  0  0  0  0  0  0  0  0
   -0.5552   -0.8189   14.1920 C   0  0  0  0  0  0  0  0  0  0  0  0
   -1.9445   -1.0884   14.0613 C   0  0  0  0  0  0  0  0  0  0  0  0
   -2.7533   -0.3562   13.2050 O   0  0  0  0  0  0  0  0  0  0  0  0
   -2.2327    0.6448   12.3521 C   0  0  0  0  0  0  0  0  0  0  0  0
   -5.3466   -3.2530   13.5754 H   0  0  0  0  0  0  0  0  0  0  0  0
   -3.9668   -2.5544   12.6618 H   0  0  0  0  0  0  0  0  0  0  0  0
   -3.7533   -4.0823   13.5820 H   0  0  0  0  0  0  0  0  0  0  0  0
   -2.1981   -3.6662   16.2542 H   0  0  0  0  0  0  0  0  0  0  0  0
    0.2026   -3.2097   16.4887 H   0  0  0  0  0  0  0  0  0  0  0  0
    5.0842    1.0099   12.8708 H   0  0  0  0  0  0  0  0  0  0  0  0
    4.6175    2.3230   14.0042 H   0  0  0  0  0  0  0  0  0  0  0  0
    6.8406    0.8706   15.3032 H   0  0  0  0  0  0  0  0  0  0  0  0
    6.2508   -0.7585   17.3488 H   0  0  0  0  0  0  0  0  0  0  0  0
    0.6638    1.7395   12.0760 H   0  0  0  0  0  0  0  0  0  0  0  0
    1.1607    3.1287   13.1007 H   0  0  0  0  0  0  0  0  0  0  0  0
   -0.1953    3.8664   11.1865 H   0  0  0  0  0  0  0  0  0  0  0  0
    2.7959    5.4592    7.6020 H   0  0  0  0  0  0  0  0  0  0  0  0
    4.5378    2.1788   11.0381 H   0  0  0  0  0  0  0  0  0  0  0  0
   -0.0967   -0.0331   13.6101 H   0  0  0  0  0  0  0  0  0  0  0  0
   -3.0507    1.0906   11.7671 H   0  0  0  0  0  0  0  0  0  0  0  0
   -1.7468    1.4250   12.9565 H   0  0  0  0  0  0  0  0  0  0  0  0
   -1.4953    0.1975   11.6693 H   0  0  0  0  0  0  0  0  0  0  0  0
  1  2  1  0  0  0  0
  2  3  1  0  0  0  0
  3  4  2  0  0  0  0
  3 27  1  0  0  0  0
  4  5  1  0  0  0  0
  5  6  2  0  0  0  0
  6  7  1  0  0  0  0
  6 26  1  0  0  0  0
  7  8  2  0  0  0  0
  8  9  1  0  0  0  0
  8 16  1  0  0  0  0
  9 10  2  0  0  0  0
 10 11  1  0  0  0  0
 10 17  1  0  0  0  0
 11 12  1  0  0  0  0
 12 13  1  0  0  0  0
 12 16  1  0  0  0  0
 13 14  2  0  0  0  0
 14 15  1  0  0  0  0
 15 16  2  0  0  0  0
 17 18  1  0  0  0  0
 17 25  2  0  0  0  0
 18 19  1  0  0  0  0
 19 20  2  0  0  0  0
 20 21  1  0  0  0  0
 20 24  1  0  0  0  0
 21 22  2  0  0  0  0
 22 23  1  0  0  0  0
 23 24  2  0  0  0  0
 24 25  1  0  0  0  0
 26 27  2  0  0  0  0
 27 28  1  0  0  0  0
 28 29  1  0  0  0  0
  1 30  1  0  0  0  0
  1 31  1  0  0  0  0
  1 32  1  0  0  0  0
  4 33  1  0  0  0  0
  5 34  1  0  0  0  0
 11 35  1  0  0  0  0
 11 36  1  0  0  0  0
 13 37  1  0  0  0  0
 14 38  1  0  0  0  0
 18 39  1  0  0  0  0
 18 40  1  0  0  0  0
 19 41  1  0  0  0  0
 22 42  1  0  0  0  0
 25 43  1  0  0  0  0
 26 44  1  0  0  0  0
 29 45  1  0  0  0  0
 29 46  1  0  0  0  0
 29 47  1  0  0  0  0
M  END
> <IC50[nM]>
6.3

$$$$
CHEMBL3265018
  -OEChem-05192314333D
 Structure written by MMmdl.
 47 51  0     0  0  0  0  0  0999 V2000
   -4.2567   -3.1043   13.5693 C   0  0  0  0  0  0  0  0  0  0  0  0
   -3.8736   -2.3603   14.7157 O   0  0  0  0  0  0  0  0  0  0  0  0
   -2.5257   -2.1109   14.8170 C   0  0  0  0  0  0  0  0  0  0  0  0
   -1.7457   -2.8699   15.6819 C   0  0  0  0  0  0  0  0  0  0  0  0
   -0.3904   -2.6103   15.8138 C   0  0  0  0  0  0  0  0  0  0  0  0
    0.2205   -1.5845   15.0866 C   0  0  0  0  0  0  0  0  0  0  0  0
    1.6039   -1.3601   15.3216 N   0  0  0  0  0  0  0  0  0  0  0  0
    2.5369   -0.4474   14.7595 C   0  0  0  0  0  0  0  0  0  0  0  0
    2.1817    0.3719   13.7240 N   0  0  0  0  0  0  0  0  0  0  0  0
    3.1138    1.2387   13.2179 C   0  0  0  0  0  0  0  0  0  0  0  0
    4.4187    1.2840   13.7027 C   0  0  0  0  0  0  0  0  0  0  0  0
    4.7466    0.4880   14.7600 N   0  0  0  0  0  0  0  0  0  0  0  0
    5.8977    0.3770   15.4865 C   0  0  0  0  0  0  0  0  0  0  0  0
    5.5876   -0.5233   16.5295 C   0  0  0  0  0  0  0  0  0  0  0  0
    4.3760   -1.0434   16.3734 N   0  0  0  0  0  0  0  0  0  0  0  0
    3.8370   -0.3940   15.3257 C   0  0  0  0  0  0  0  0  0  0  0  0
    2.6359    2.1614   12.1223 C   0  0  0  0  0  0  0  0  0  0  0  0
    1.3054    2.6314   12.1303 C   0  0  0  0  0  0  0  0  0  0  0  0
    0.8262    3.5165   11.1628 C   0  0  0  0  0  0  0  0  0  0  0  0
    1.7006    3.9330   10.1707 C   0  0  0  0  0  0  0  0  0  0  0  0
    1.4948    4.8131    9.1162 N   0  0  0  0  0  0  0  0  0  0  0  0
    2.6280    4.8521    8.4793 C   0  0  0  0  0  0  0  0  0  0  0  0
    3.5731    4.0579    9.0246 N   0  0  0  0  0  0  0  0  0  0  0  0
    3.0312    3.4473   10.1317 C   0  0  0  0  0  0  0  0  0  0  0  0
    3.5261    2.5537   11.0860 C   0  0  0  0  0  0  0  0  0  0  0  0
   -0.5552   -0.8189   14.1920 C   0  0  0  0  0  0  0  0  0  0  0  0
   -1.9445   -1.0884   14.0613 C   0  0  0  0  0  0  0  0  0  0  0  0
   -2.7533   -0.3562   13.2050 O   0  0  0  0  0  0  0  0  0  0  0  0
   -2.2327    0.6448   12.3521 C   0  0  0  0  0  0  0  0  0  0  0  0
   -5.3466   -3.2530   13.5754 H   0  0  0  0  0  0  0  0  0  0  0  0
   -3.9668   -2.5544   12.6618 H   0  0  0  0  0  0  0  0  0  0  0  0
   -3.7533   -4.0823   13.5820 H   0  0  0  0  0  0  0  0  0  0  0  0
   -2.1981   -3.6662   16.2542 H   0  0  0  0  0  0  0  0  0  0  0  0
    0.2026   -3.2097   16.4887 H   0  0  0  0  0  0  0  0  0  0  0  0
    5.0842    1.0099   12.8708 H   0  0  0  0  0  0  0  0  0  0  0  0
    4.6175    2.3230   14.0042 H   0  0  0  0  0  0  0  0  0  0  0  0
    6.8406    0.8706   15.3032 H   0  0  0  0  0  0  0  0  0  0  0  0
    6.2508   -0.7585   17.3488 H   0  0  0  0  0  0  0  0  0  0  0  0
    0.6368    2.2959   12.9093 H   0  0  0  0  0  0  0  0  0  0  0  0
   -0.1953    3.8664   11.1865 H   0  0  0  0  0  0  0  0  0  0  0  0
    2.7959    5.4592    7.6020 H   0  0  0  0  0  0  0  0  0  0  0  0
    4.4007    3.0238   11.5594 H   0  0  0  0  0  0  0  0  0  0  0  0
    3.8414    1.6427   10.5562 H   0  0  0  0  0  0  0  0  0  0  0  0
   -0.0967   -0.0331   13.6101 H   0  0  0  0  0  0  0  0  0  0  0  0
   -3.0507    1.0906   11.7671 H   0  0  0  0  0  0  0  0  0  0  0  0
   -1.7468    1.4250   12.9565 H   0  0  0  0  0  0  0  0  0  0  0  0
   -1.4953    0.1975   11.6693 H   0  0  0  0  0  0  0  0  0  0  0  0
  1  2  1  0  0  0  0
  2  3  1  0  0  0  0
  3  4  2  0  0  0  0
  3 27  1  0  0  0  0
  4  5  1  0  0  0  0
  5  6  2  0  0  0  0
  6  7  1  0  0  0  0
  6 26  1  0  0  0  0
  7  8  2  0  0  0  0
  8  9  1  0  0  0  0
  8 16  1  0  0  0  0
  9 10  2  0  0  0  0
 10 11  1  0  0  0  0
 10 17  1  0  0  0  0
 11 12  1  0  0  0  0
 12 13  1  0  0  0  0
 12 16  1  0  0  0  0
 13 14  2  0  0  0  0
 14 15  1  0  0  0  0
 15 16  2  0  0  0  0
 17 18  2  0  0  0  0
 17 25  1  0  0  0  0
 18 19  1  0  0  0  0
 19 20  2  0  0  0  0
 20 21  1  0  0  0  0
 20 24  1  0  0  0  0
 21 22  2  0  0  0  0
 22 23  1  0  0  0  0
 23 24  2  0  0  0  0
 24 25  1  0  0  0  0
 26 27  2  0  0  0  0
 27 28  1  0  0  0  0
 28 29  1  0  0  0  0
  1 30  1  0  0  0  0
  1 31  1  0  0  0  0
  1 32  1  0  0  0  0
  4 33  1  0  0  0  0
  5 34  1  0  0  0  0
 11 35  1  0  0  0  0
 11 36  1  0  0  0  0
 13 37  1  0  0  0  0
 14 38  1  0  0  0  0
 18 39  1  0  0  0  0
 19 40  1  0  0  0  0
 22 41  1  0  0  0  0
 25 42  1  0  0  0  0
 25 43  1  0  0  0  0
 26 44  1  0  0  0  0
 29 45  1  0  0  0  0
 29 46  1  0  0  0  0
 29 47  1  0  0  0  0
M  END
> <IC50[nM]>
6.3

$$$$
CHEMBL3265018
  -OEChem-05192314333D
 Structure written by MMmdl.
 47 51  0     1  0  0  0  0  0999 V2000
   -4.2567   -3.1043   13.5693 C   0  0  0  0  0  0  0  0  0  0  0  0
   -3.8736   -2.3603   14.7157 O   0  0  0  0  0  0  0  0  0  0  0  0
   -2.5257   -2.1109   14.8170 C   0  0  3  0  0  0  0  0  0  0  0  0
   -1.7457   -2.8699   15.6819 C   0  0  0  0  0  0  0  0  0  0  0  0
   -0.3904   -2.6103   15.8138 C   0  0  0  0  0  0  0  0  0  0  0  0
    0.2205   -1.5845   15.0866 C   0  0  0  0  0  0  0  0  0  0  0  0
    1.6039   -1.3601   15.3216 N   0  0  0  0  0  0  0  0  0  0  0  0
    2.5369   -0.4474   14.7595 C   0  0  0  0  0  0  0  0  0  0  0  0
    2.1817    0.3719   13.7240 N   0  0  0  0  0  0  0  0  0  0  0  0
    3.1138    1.2387   13.2179 C   0  0  0  0  0  0  0  0  0  0  0  0
    4.4187    1.2840   13.7027 C   0  0  0  0  0  0  0  0  0  0  0  0
    4.7466    0.4880   14.7600 N   0  0  0  0  0  0  0  0  0  0  0  0
    5.8977    0.3770   15.4865 C   0  0  0  0  0  0  0  0  0  0  0  0
    5.5876   -0.5233   16.5295 C   0  0  0  0  0  0  0  0  0  0  0  0
    4.3760   -1.0434   16.3734 N   0  0  0  0  0  0  0  0  0  0  0  0
    3.8370   -0.3940   15.3257 C   0  0  0  0  0  0  0  0  0  0  0  0
    2.6359    2.1614   12.1223 C   0  0  0  0  0  0  0  0  0  0  0  0
    1.3054    2.6314   12.1303 C   0  0  0  0  0  0  0  0  0  0  0  0
    0.8262    3.5165   11.1628 C   0  0  0  0  0  0  0  0  0  0  0  0
    1.7006    3.9330   10.1707 C   0  0  0  0  0  0  0  0  0  0  0  0
    1.4948    4.8131    9.1162 N   0  0  0  0  0  0  0  0  0  0  0  0
    2.6280    4.8521    8.4793 C   0  0  0  0  0  0  0  0  0  0  0  0
    3.5731    4.0579    9.0246 N   0  0  0  0  0  0  0  0  0  0  0  0
    3.0312    3.4473   10.1317 C   0  0  0  0  0  0  0  0  0  0  0  0
    3.5261    2.5537   11.0860 C   0  0  0  0  0  0  0  0  0  0  0  0
   -0.5552   -0.8189   14.1920 C   0  0  0  0  0  0  0  0  0  0  0  0
   -1.9445   -1.0884   14.0613 C   0  0  0  0  0  0  0  0  0  0  0  0
   -2.7533   -0.3562   13.2050 O   0  0  0  0  0  0  0  0  0  0  0  0
   -2.2327    0.6448   12.3521 C   0  0  0  0  0  0  0  0  0  0  0  0
   -5.3466   -3.2530   13.5754 H   0  0  0  0  0  0  0  0  0  0  0  0
   -3.9668   -2.5544   12.6618 H   0  0  0  0  0  0  0  0  0  0  0  0
   -3.7533   -4.0823   13.5820 H   0  0  0  0  0  0  0  0  0  0  0  0
   -2.3288   -2.8270   14.0056 H   0  0  0  0  0  0  0  0  0  0  0  0
   -2.1981   -3.6662   16.2542 H   0  0  0  0  0  0  0  0  0  0  0  0
    0.2026   -3.2097   16.4887 H   0  0  0  0  0  0  0  0  0  0  0  0
    5.0842    1.0099   12.8708 H   0  0  0  0  0  0  0  0  0  0  0  0
    4.6175    2.3230   14.0042 H   0  0  0  0  0  0  0  0  0  0  0  0
    6.8406    0.8706   15.3032 H   0  0  0  0  0  0  0  0  0  0  0  0
    6.2508   -0.7585   17.3488 H   0  0  0  0  0  0  0  0  0  0  0  0
    0.6368    2.2959   12.9093 H   0  0  0  0  0  0  0  0  0  0  0  0
   -0.1953    3.8664   11.1865 H   0  0  0  0  0  0  0  0  0  0  0  0
    2.7959    5.4592    7.6020 H   0  0  0  0  0  0  0  0  0  0  0  0
    4.5378    2.1788   11.0381 H   0  0  0  0  0  0  0  0  0  0  0  0
   -0.0967   -0.0331   13.6101 H   0  0  0  0  0  0  0  0  0  0  0  0
   -3.0507    1.0906   11.7671 H   0  0  0  0  0  0  0  0  0  0  0  0
   -1.7468    1.4250   12.9565 H   0  0  0  0  0  0  0  0  0  0  0  0
   -1.4953    0.1975   11.6693 H   0  0  0  0  0  0  0  0  0  0  0  0
  1  2  1  0  0  0  0
  2  3  1  0  0  0  0
  3  4  1  0  0  0  0
  3 27  1  0  0  0  0
  4  5  2  0  0  0  0
  5  6  1  0  0  0  0
  6  7  2  0  0  0  0
  6 26  1  0  0  0  0
  7  8  1  0  0  0  0
  8  9  2  0  0  0  0
  8 16  1  0  0  0  0
  9 10  1  0  0  0  0
 10 11  1  0  0  0  0
 10 17  2  3  0  0  0
 11 12  1  0  0  0  0
 12 13  1  0  0  0  0
 12 16  1  0  0  0  0
 13 14  2  0  0  0  0
 14 15  1  0  0  0  0
 15 16  2  0  0  0  0
 17 18  1  0  0  0  0
 17 25  1  0  0  0  0
 18 19  2  0  0  0  0
 19 20  1  0  0  0  0
 20 21  2  0  0  0  0
 20 24  1  0  0  0  0
 21 22  1  0  0  0  0
 22 23  2  0  0  0  0
 23 24  1  0  0  0  0
 24 25  2  0  0  0  0
 26 27  2  0  0  0  0
 27 28  1  0  0  0  0
 28 29  1  0  0  0  0
  1 30  1  0  0  0  0
  1 31  1  0  0  0  0
  1 32  1  0  0  0  0
  3 33  1  0  0  0  0
  4 34  1  0  0  0  0
  5 35  1  0  0  0  0
 11 36  1  0  0  0  0
 11 37  1  0  0  0  0
 13 38  1  0  0  0  0
 14 39  1  0  0  0  0
 18 40  1  0  0  0  0
 19 41  1  0  0  0  0
 22 42  1  0  0  0  0
 25 43  1  0  0  0  0
 26 44  1  0  0  0  0
 29 45  1  0  0  0  0
 29 46  1  0  0  0  0
 29 47  1  0  0  0  0
M  END
> <IC50[nM]>
6.3

$$$$
CHEMBL3265018
  -OEChem-05192314333D
 Structure written by MMmdl.
 47 51  0     0  0  0  0  0  0999 V2000
   -4.2567   -3.1043   13.5693 C   0  0  0  0  0  0  0  0  0  0  0  0
   -3.8736   -2.3603   14.7157 O   0  0  0  0  0  0  0  0  0  0  0  0
   -2.5257   -2.1109   14.8170 C   0  0  0  0  0  0  0  0  0  0  0  0
   -1.7457   -2.8699   15.6819 C   0  0  0  0  0  0  0  0  0  0  0  0
   -0.3904   -2.6103   15.8138 C   0  0  0  0  0  0  0  0  0  0  0  0
    0.2205   -1.5845   15.0866 C   0  0  0  0  0  0  0  0  0  0  0  0
    1.6039   -1.3601   15.3216 N   0  0  0  0  0  0  0  0  0  0  0  0
    2.5369   -0.4474   14.7595 C   0  0  0  0  0  0  0  0  0  0  0  0
    2.1817    0.3719   13.7240 N   0  0  0  0  0  0  0  0  0  0  0  0
    3.1138    1.2387   13.2179 C   0  0  0  0  0  0  0  0  0  0  0  0
    4.4187    1.2840   13.7027 C   0  0  0  0  0  0  0  0  0  0  0  0
    4.7466    0.4880   14.7600 N   0  0  0  0  0  0  0  0  0  0  0  0
    5.8977    0.3770   15.4865 C   0  0  0  0  0  0  0  0  0  0  0  0
    5.5876   -0.5233   16.5295 C   0  0  0  0  0  0  0  0  0  0  0  0
    4.3760   -1.0434   16.3734 N   0  0  0  0  0  0  0  0  0  0  0  0
    3.8370   -0.3940   15.3257 C   0  0  0  0  0  0  0  0  0  0  0  0
    2.6359    2.1614   12.1223 C   0  0  0  0  0  0  0  0  0  0  0  0
    1.3054    2.6314   12.1303 C   0  0  0  0  0  0  0  0  0  0  0  0
    0.8262    3.5165   11.1628 C   0  0  0  0  0  0  0  0  0  0  0  0
    1.7006    3.9330   10.1707 C   0  0  0  0  0  0  0  0  0  0  0  0
    1.4948    4.8131    9.1162 N   0  0  0  0  0  0  0  0  0  0  0  0
    2.6280    4.8521    8.4793 C   0  0  0  0  0  0  0  0  0  0  0  0
    3.5731    4.0579    9.0246 N   0  0  0  0  0  0  0  0  0  0  0  0
    3.0312    3.4473   10.1317 C   0  0  0  0  0  0  0  0  0  0  0  0
    3.5261    2.5537   11.0860 C   0  0  0  0  0  0  0  0  0  0  0  0
   -0.5552   -0.8189   14.1920 C   0  0  0  0  0  0  0  0  0  0  0  0
   -1.9445   -1.0884   14.0613 C   0  0  0  0  0  0  0  0  0  0  0  0
   -2.7533   -0.3562   13.2050 O   0  0  0  0  0  0  0  0  0  0  0  0
   -2.2327    0.6448   12.3521 C   0  0  0  0  0  0  0  0  0  0  0  0
   -5.3466   -3.2530   13.5754 H   0  0  0  0  0  0  0  0  0  0  0  0
   -3.9668   -2.5544   12.6618 H   0  0  0  0  0  0  0  0  0  0  0  0
   -3.7533   -4.0823   13.5820 H   0  0  0  0  0  0  0  0  0  0  0  0
   -2.1981   -3.6662   16.2542 H   0  0  0  0  0  0  0  0  0  0  0  0
   -0.2169   -2.3863   16.8767 H   0  0  0  0  0  0  0  0  0  0  0  0
    0.1336   -3.5393   15.5446 H   0  0  0  0  0  0  0  0  0  0  0  0
    5.0842    1.0099   12.8708 H   0  0  0  0  0  0  0  0  0  0  0  0
    4.6175    2.3230   14.0042 H   0  0  0  0  0  0  0  0  0  0  0  0
    6.8406    0.8706   15.3032 H   0  0  0  0  0  0  0  0  0  0  0  0
    6.2508   -0.7585   17.3488 H   0  0  0  0  0  0  0  0  0  0  0  0
    0.6368    2.2959   12.9093 H   0  0  0  0  0  0  0  0  0  0  0  0
   -0.1953    3.8664   11.1865 H   0  0  0  0  0  0  0  0  0  0  0  0
    2.7959    5.4592    7.6020 H   0  0  0  0  0  0  0  0  0  0  0  0
    4.5378    2.1788   11.0381 H   0  0  0  0  0  0  0  0  0  0  0  0
   -0.0967   -0.0331   13.6101 H   0  0  0  0  0  0  0  0  0  0  0  0
   -3.0507    1.0906   11.7671 H   0  0  0  0  0  0  0  0  0  0  0  0
   -1.7468    1.4250   12.9565 H   0  0  0  0  0  0  0  0  0  0  0  0
   -1.4953    0.1975   11.6693 H   0  0  0  0  0  0  0  0  0  0  0  0
  1  2  1  0  0  0  0
  2  3  1  0  0  0  0
  3  4  2  0  0  0  0
  3 27  1  0  0  0  0
  4  5  1  0  0  0  0
  5  6  1  0  0  0  0
  6  7  2  0  0  0  0
  6 26  1  0  0  0  0
  7  8  1  0  0  0  0
  8  9  2  0  0  0  0
  8 16  1  0  0  0  0
  9 10  1  0  0  0  0
 10 11  1  0  0  0  0
 10 17  2  3  0  0  0
 11 12  1  0  0  0  0
 12 13  1  0  0  0  0
 12 16  1  0  0  0  0
 13 14  2  0  0  0  0
 14 15  1  0  0  0  0
 15 16  2  0  0  0  0
 17 18  1  0  0  0  0
 17 25  1  0  0  0  0
 18 19  2  0  0  0  0
 19 20  1  0  0  0  0
 20 21  2  0  0  0  0
 20 24  1  0  0  0  0
 21 22  1  0  0  0  0
 22 23  2  0  0  0  0
 23 24  1  0  0  0  0
 24 25  2  0  0  0  0
 26 27  2  0  0  0  0
 27 28  1  0  0  0  0
 28 29  1  0  0  0  0
  1 30  1  0  0  0  0
  1 31  1  0  0  0  0
  1 32  1  0  0  0  0
  4 33  1  0  0  0  0
  5 34  1  0  0  0  0
  5 35  1  0  0  0  0
 11 36  1  0  0  0  0
 11 37  1  0  0  0  0
 13 38  1  0  0  0  0
 14 39  1  0  0  0  0
 18 40  1  0  0  0  0
 19 41  1  0  0  0  0
 22 42  1  0  0  0  0
 25 43  1  0  0  0  0
 26 44  1  0  0  0  0
 29 45  1  0  0  0  0
 29 46  1  0  0  0  0
 29 47  1  0  0  0  0
M  END
> <IC50[nM]>
6.3

$$$$
CHEMBL3265018
  -OEChem-05192314333D
 Structure written by MMmdl.
 47 51  0     0  0  0  0  0  0999 V2000
   -4.2567   -3.1043   13.5693 C   0  0  0  0  0  0  0  0  0  0  0  0
   -3.8736   -2.3603   14.7157 O   0  0  0  0  0  0  0  0  0  0  0  0
   -2.5257   -2.1109   14.8170 C   0  0  0  0  0  0  0  0  0  0  0  0
   -1.7457   -2.8699   15.6819 C   0  0  0  0  0  0  0  0  0  0  0  0
   -0.3904   -2.6103   15.8138 C   0  0  0  0  0  0  0  0  0  0  0  0
    0.2205   -1.5845   15.0866 C   0  0  0  0  0  0  0  0  0  0  0  0
    1.6039   -1.3601   15.3216 N   0  0  0  0  0  0  0  0  0  0  0  0
    2.5369   -0.4474   14.7595 C   0  0  0  0  0  0  0  0  0  0  0  0
    2.1817    0.3719   13.7240 N   0  0  0  0  0  0  0  0  0  0  0  0
    3.1138    1.2387   13.2179 C   0  0  0  0  0  0  0  0  0  0  0  0
    4.4187    1.2840   13.7027 C   0  0  0  0  0  0  0  0  0  0  0  0
    4.7466    0.4880   14.7600 N   0  0  0  0  0  0  0  0  0  0  0  0
    5.8977    0.3770   15.4865 C   0  0  0  0  0  0  0  0  0  0  0  0
    5.5876   -0.5233   16.5295 C   0  0  0  0  0  0  0  0  0  0  0  0
    4.3760   -1.0434   16.3734 N   0  0  0  0  0  0  0  0  0  0  0  0
    3.8370   -0.3940   15.3257 C   0  0  0  0  0  0  0  0  0  0  0  0
    2.6359    2.1614   12.1223 C   0  0  0  0  0  0  0  0  0  0  0  0
    1.3054    2.6314   12.1303 C   0  0  0  0  0  0  0  0  0  0  0  0
    0.8262    3.5165   11.1628 C   0  0  0  0  0  0  0  0  0  0  0  0
    1.7006    3.9330   10.1707 C   0  0  0  0  0  0  0  0  0  0  0  0
    1.4948    4.8131    9.1162 N   0  0  0  0  0  0  0  0  0  0  0  0
    2.6280    4.8521    8.4793 C   0  0  0  0  0  0  0  0  0  0  0  0
    3.5731    4.0579    9.0246 N   0  0  0  0  0  0  0  0  0  0  0  0
    3.0312    3.4473   10.1317 C   0  0  0  0  0  0  0  0  0  0  0  0
    3.5261    2.5537   11.0860 C   0  0  0  0  0  0  0  0  0  0  0  0
   -0.5552   -0.8189   14.1920 C   0  0  0  0  0  0  0  0  0  0  0  0
   -1.9445   -1.0884   14.0613 C   0  0  0  0  0  0  0  0  0  0  0  0
   -2.7533   -0.3562   13.2050 O   0  0  0  0  0  0  0  0  0  0  0  0
   -2.2327    0.6448   12.3521 C   0  0  0  0  0  0  0  0  0  0  0  0
   -5.3466   -3.2530   13.5754 H   0  0  0  0  0  0  0  0  0  0  0  0
   -3.9668   -2.5544   12.6618 H   0  0  0  0  0  0  0  0  0  0  0  0
   -3.7533   -4.0823   13.5820 H   0  0  0  0  0  0  0  0  0  0  0  0
   -2.1981   -3.6662   16.2542 H   0  0  0  0  0  0  0  0  0  0  0  0
    0.2026   -3.2097   16.4887 H   0  0  0  0  0  0  0  0  0  0  0  0
    5.0842    1.0099   12.8708 H   0  0  0  0  0  0  0  0  0  0  0  0
    4.6175    2.3230   14.0042 H   0  0  0  0  0  0  0  0  0  0  0  0
    6.8406    0.8706   15.3032 H   0  0  0  0  0  0  0  0  0  0  0  0
    6.2508   -0.7585   17.3488 H   0  0  0  0  0  0  0  0  0  0  0  0
    0.6368    2.2959   12.9093 H   0  0  0  0  0  0  0  0  0  0  0  0
   -0.1953    3.8664   11.1865 H   0  0  0  0  0  0  0  0  0  0  0  0
    2.7959    5.4592    7.6020 H   0  0  0  0  0  0  0  0  0  0  0  0
    4.5378    2.1788   11.0381 H   0  0  0  0  0  0  0  0  0  0  0  0
   -0.4614    0.2313   14.5055 H   0  0  0  0  0  0  0  0  0  0  0  0
   -0.1098   -0.9449   13.1941 H   0  0  0  0  0  0  0  0  0  0  0  0
   -3.0507    1.0906   11.7671 H   0  0  0  0  0  0  0  0  0  0  0  0
   -1.7468    1.4250   12.9565 H   0  0  0  0  0  0  0  0  0  0  0  0
   -1.4953    0.1975   11.6693 H   0  0  0  0  0  0  0  0  0  0  0  0
  1  2  1  0  0  0  0
  2  3  1  0  0  0  0
  3  4  1  0  0  0  0
  3 27  2  0  0  0  0
  4  5  2  0  0  0  0
  5  6  1  0  0  0  0
  6  7  2  0  0  0  0
  6 26  1  0  0  0  0
  7  8  1  0  0  0  0
  8  9  2  0  0  0  0
  8 16  1  0  0  0  0
  9 10  1  0  0  0  0
 10 11  1  0  0  0  0
 10 17  2  3  0  0  0
 11 12  1  0  0  0  0
 12 13  1  0  0  0  0
 12 16  1  0  0  0  0
 13 14  2  0  0  0  0
 14 15  1  0  0  0  0
 15 16  2  0  0  0  0
 17 18  1  0  0  0  0
 17 25  1  0  0  0  0
 18 19  2  0  0  0  0
 19 20  1  0  0  0  0
 20 21  2  0  0  0  0
 20 24  1  0  0  0  0
 21 22  1  0  0  0  0
 22 23  2  0  0  0  0
 23 24  1  0  0  0  0
 24 25  2  0  0  0  0
 26 27  1  0  0  0  0
 27 28  1  0  0  0  0
 28 29  1  0  0  0  0
  1 30  1  0  0  0  0
  1 31  1  0  0  0  0
  1 32  1  0  0  0  0
  4 33  1  0  0  0  0
  5 34  1  0  0  0  0
 11 35  1  0  0  0  0
 11 36  1  0  0  0  0
 13 37  1  0  0  0  0
 14 38  1  0  0  0  0
 18 39  1  0  0  0  0
 19 40  1  0  0  0  0
 22 41  1  0  0  0  0
 25 42  1  0  0  0  0
 26 43  1  0  0  0  0
 26 44  1  0  0  0  0
 29 45  1  0  0  0  0
 29 46  1  0  0  0  0
 29 47  1  0  0  0  0
M  END
> <IC50[nM]>
6.3

$$$$
CHEMBL3265018
  -OEChem-05192314333D
 Structure written by MMmdl.
 47 51  0     1  0  0  0  0  0999 V2000
   -4.2567   -3.1043   13.5693 C   0  0  0  0  0  0  0  0  0  0  0  0
   -3.8736   -2.3603   14.7157 O   0  0  0  0  0  0  0  0  0  0  0  0
   -2.5257   -2.1109   14.8170 C   0  0  3  0  0  0  0  0  0  0  0  0
   -1.7457   -2.8699   15.6819 C   0  0  0  0  0  0  0  0  0  0  0  0
   -0.3904   -2.6103   15.8138 C   0  0  0  0  0  0  0  0  0  0  0  0
    0.2205   -1.5845   15.0866 C   0  0  0  0  0  0  0  0  0  0  0  0
    1.6039   -1.3601   15.3216 N   0  0  0  0  0  0  0  0  0  0  0  0
    2.5369   -0.4474   14.7595 C   0  0  0  0  0  0  0  0  0  0  0  0
    2.1817    0.3719   13.7240 N   0  0  0  0  0  0  0  0  0  0  0  0
    3.1138    1.2387   13.2179 C   0  0  0  0  0  0  0  0  0  0  0  0
    4.4187    1.2840   13.7027 C   0  0  0  0  0  0  0  0  0  0  0  0
    4.7466    0.4880   14.7600 N   0  0  0  0  0  0  0  0  0  0  0  0
    5.8977    0.3770   15.4865 C   0  0  0  0  0  0  0  0  0  0  0  0
    5.5876   -0.5233   16.5295 C   0  0  0  0  0  0  0  0  0  0  0  0
    4.3760   -1.0434   16.3734 N   0  0  0  0  0  0  0  0  0  0  0  0
    3.8370   -0.3940   15.3257 C   0  0  0  0  0  0  0  0  0  0  0  0
    2.6359    2.1614   12.1223 C   0  0  3  0  0  0  0  0  0  0  0  0
    1.3054    2.6314   12.1303 C   0  0  0  0  0  0  0  0  0  0  0  0
    0.8262    3.5165   11.1628 C   0  0  0  0  0  0  0  0  0  0  0  0
    1.7006    3.9330   10.1707 C   0  0  0  0  0  0  0  0  0  0  0  0
    1.4948    4.8131    9.1162 N   0  0  0  0  0  0  0  0  0  0  0  0
    2.6280    4.8521    8.4793 C   0  0  0  0  0  0  0  0  0  0  0  0
    3.5731    4.0579    9.0246 N   0  0  0  0  0  0  0  0  0  0  0  0
    3.0312    3.4473   10.1317 C   0  0  0  0  0  0  0  0  0  0  0  0
    3.5261    2.5537   11.0860 C   0  0  0  0  0  0  0  0  0  0  0  0
   -0.5552   -0.8189   14.1920 C   0  0  0  0  0  0  0  0  0  0  0  0
   -1.9445   -1.0884   14.0613 C   0  0  0  0  0  0  0  0  0  0  0  0
   -2.7533   -0.3562   13.2050 O   0  0  0  0  0  0  0  0  0  0  0  0
   -2.2327    0.6448   12.3521 C   0  0  0  0  0  0  0  0  0  0  0  0
   -5.3466   -3.2530   13.5754 H   0  0  0  0  0  0  0  0  0  0  0  0
   -3.9668   -2.5544   12.6618 H   0  0  0  0  0  0  0  0  0  0  0  0
   -3.7533   -4.0823   13.5820 H   0  0  0  0  0  0  0  0  0  0  0  0
   -2.3288   -2.8270   14.0056 H   0  0  0  0  0  0  0  0  0  0  0  0
   -2.1981   -3.6662   16.2542 H   0  0  0  0  0  0  0  0  0  0  0  0
    0.2026   -3.2097   16.4887 H   0  0  0  0  0  0  0  0  0  0  0  0
    5.1536    1.9344   13.2517 H   0  0  0  0  0  0  0  0  0  0  0  0
    6.8406    0.8706   15.3032 H   0  0  0  0  0  0  0  0  0  0  0  0
    6.2508   -0.7585   17.3488 H   0  0  0  0  0  0  0  0  0  0  0  0
    2.9470    3.0315   12.7191 H   0  0  0  0  0  0  0  0  0  0  0  0
    0.6368    2.2959   12.9093 H   0  0  0  0  0  0  0  0  0  0  0  0
   -0.1953    3.8664   11.1865 H   0  0  0  0  0  0  0  0  0  0  0  0
    2.7959    5.4592    7.6020 H   0  0  0  0  0  0  0  0  0  0  0  0
    4.5378    2.1788   11.0381 H   0  0  0  0  0  0  0  0  0  0  0  0
   -0.0967   -0.0331   13.6101 H   0  0  0  0  0  0  0  0  0  0  0  0
   -3.0507    1.0906   11.7671 H   0  0  0  0  0  0  0  0  0  0  0  0
   -1.7468    1.4250   12.9565 H   0  0  0  0  0  0  0  0  0  0  0  0
   -1.4953    0.1975   11.6693 H   0  0  0  0  0  0  0  0  0  0  0  0
  1  2  1  0  0  0  0
  2  3  1  0  0  0  0
  3  4  1  0  0  0  0
  3 27  1  0  0  0  0
  4  5  2  0  0  0  0
  5  6  1  0  0  0  0
  6  7  2  0  0  0  0
  6 26  1  0  0  0  0
  7  8  1  0  0  0  0
  8  9  2  0  0  0  0
  8 16  1  0  0  0  0
  9 10  1  0  0  0  0
 10 11  2  0  0  0  0
 10 17  1  0  0  0  0
 11 12  1  0  0  0  0
 12 13  1  0  0  0  0
 12 16  1  0  0  0  0
 13 14  2  0  0  0  0
 14 15  1  0  0  0  0
 15 16  2  0  0  0  0
 17 18  1  0  0  0  0
 17 25  1  0  0  0  0
 18 19  2  0  0  0  0
 19 20  1  0  0  0  0
 20 21  2  0  0  0  0
 20 24  1  0  0  0  0
 21 22  1  0  0  0  0
 22 23  2  0  0  0  0
 23 24  1  0  0  0  0
 24 25  2  0  0  0  0
 26 27  2  0  0  0  0
 27 28  1  0  0  0  0
 28 29  1  0  0  0  0
  1 30  1  0  0  0  0
  1 31  1  0  0  0  0
  1 32  1  0  0  0  0
  3 33  1  0  0  0  0
  4 34  1  0  0  0  0
  5 35  1  0  0  0  0
 11 36  1  0  0  0  0
 13 37  1  0  0  0  0
 14 38  1  0  0  0  0
 17 39  1  0  0  0  0
 18 40  1  0  0  0  0
 19 41  1  0  0  0  0
 22 42  1  0  0  0  0
 25 43  1  0  0  0  0
 26 44  1  0  0  0  0
 29 45  1  0  0  0  0
 29 46  1  0  0  0  0
 29 47  1  0  0  0  0
M  END
> <IC50[nM]>
6.3

$$$$
CHEMBL3265018
  -OEChem-05192314333D
 Structure written by MMmdl.
 47 51  0     1  0  0  0  0  0999 V2000
   -4.2567   -3.1043   13.5693 C   0  0  0  0  0  0  0  0  0  0  0  0
   -3.8736   -2.3603   14.7157 O   0  0  0  0  0  0  0  0  0  0  0  0
   -2.5257   -2.1109   14.8170 C   0  0  3  0  0  0  0  0  0  0  0  0
   -1.7457   -2.8699   15.6819 C   0  0  0  0  0  0  0  0  0  0  0  0
   -0.3904   -2.6103   15.8138 C   0  0  0  0  0  0  0  0  0  0  0  0
    0.2205   -1.5845   15.0866 C   0  0  0  0  0  0  0  0  0  0  0  0
    1.6039   -1.3601   15.3216 N   0  0  0  0  0  0  0  0  0  0  0  0
    2.5369   -0.4474   14.7595 C   0  0  0  0  0  0  0  0  0  0  0  0
    2.1817    0.3719   13.7240 N   0  0  0  0  0  0  0  0  0  0  0  0
    3.1138    1.2387   13.2179 C   0  0  0  0  0  0  0  0  0  0  0  0
    4.4187    1.2840   13.7027 C   0  0  0  0  0  0  0  0  0  0  0  0
    4.7466    0.4880   14.7600 N   0  0  0  0  0  0  0  0  0  0  0  0
    5.8977    0.3770   15.4865 C   0  0  0  0  0  0  0  0  0  0  0  0
    5.5876   -0.5233   16.5295 C   0  0  0  0  0  0  0  0  0  0  0  0
    4.3760   -1.0434   16.3734 N   0  0  0  0  0  0  0  0  0  0  0  0
    3.8370   -0.3940   15.3257 C   0  0  0  0  0  0  0  0  0  0  0  0
    2.6359    2.1614   12.1223 C   0  0  0  0  0  0  0  0  0  0  0  0
    1.3054    2.6314   12.1303 C   0  0  0  0  0  0  0  0  0  0  0  0
    0.8262    3.5165   11.1628 C   0  0  0  0  0  0  0  0  0  0  0  0
    1.7006    3.9330   10.1707 C   0  0  0  0  0  0  0  0  0  0  0  0
    1.4948    4.8131    9.1162 N   0  0  0  0  0  0  0  0  0  0  0  0
    2.6280    4.8521    8.4793 C   0  0  0  0  0  0  0  0  0  0  0  0
    3.5731    4.0579    9.0246 N   0  0  0  0  0  0  0  0  0  0  0  0
    3.0312    3.4473   10.1317 C   0  0  3  0  0  0  0  0  0  0  0  0
    3.5261    2.5537   11.0860 C   0  0  0  0  0  0  0  0  0  0  0  0
   -0.5552   -0.8189   14.1920 C   0  0  0  0  0  0  0  0  0  0  0  0
   -1.9445   -1.0884   14.0613 C   0  0  0  0  0  0  0  0  0  0  0  0
   -2.7533   -0.3562   13.2050 O   0  0  0  0  0  0  0  0  0  0  0  0
   -2.2327    0.6448   12.3521 C   0  0  0  0  0  0  0  0  0  0  0  0
   -5.3466   -3.2530   13.5754 H   0  0  0  0  0  0  0  0  0  0  0  0
   -3.9668   -2.5544   12.6618 H   0  0  0  0  0  0  0  0  0  0  0  0
   -3.7533   -4.0823   13.5820 H   0  0  0  0  0  0  0  0  0  0  0  0
   -2.3288   -2.8270   14.0056 H   0  0  0  0  0  0  0  0  0  0  0  0
   -2.1981   -3.6662   16.2542 H   0  0  0  0  0  0  0  0  0  0  0  0
    0.2026   -3.2097   16.4887 H   0  0  0  0  0  0  0  0  0  0  0  0
    5.1536    1.9344   13.2517 H   0  0  0  0  0  0  0  0  0  0  0  0
    6.8406    0.8706   15.3032 H   0  0  0  0  0  0  0  0  0  0  0  0
    6.2508   -0.7585   17.3488 H   0  0  0  0  0  0  0  0  0  0  0  0
    0.6368    2.2959   12.9093 H   0  0  0  0  0  0  0  0  0  0  0  0
   -0.1953    3.8664   11.1865 H   0  0  0  0  0  0  0  0  0  0  0  0
    2.7959    5.4592    7.6020 H   0  0  0  0  0  0  0  0  0  0  0  0
    2.7055    2.6021    9.5075 H   0  0  0  0  0  0  0  0  0  0  0  0
    4.5378    2.1788   11.0381 H   0  0  0  0  0  0  0  0  0  0  0  0
   -0.0967   -0.0331   13.6101 H   0  0  0  0  0  0  0  0  0  0  0  0
   -3.0507    1.0906   11.7671 H   0  0  0  0  0  0  0  0  0  0  0  0
   -1.7468    1.4250   12.9565 H   0  0  0  0  0  0  0  0  0  0  0  0
   -1.4953    0.1975   11.6693 H   0  0  0  0  0  0  0  0  0  0  0  0
  1  2  1  0  0  0  0
  2  3  1  0  0  0  0
  3  4  1  0  0  0  0
  3 27  1  0  0  0  0
  4  5  2  0  0  0  0
  5  6  1  0  0  0  0
  6  7  2  0  0  0  0
  6 26  1  0  0  0  0
  7  8  1  0  0  0  0
  8  9  2  0  0  0  0
  8 16  1  0  0  0  0
  9 10  1  0  0  0  0
 10 11  2  0  0  0  0
 10 17  1  0  0  0  0
 11 12  1  0  0  0  0
 12 13  1  0  0  0  0
 12 16  1  0  0  0  0
 13 14  2  0  0  0  0
 14 15  1  0  0  0  0
 15 16  2  0  0  0  0
 17 18  1  0  0  0  0
 17 25  2  0  0  0  0
 18 19  2  0  0  0  0
 19 20  1  0  0  0  0
 20 21  2  0  0  0  0
 20 24  1  0  0  0  0
 21 22  1  0  0  0  0
 22 23  2  0  0  0  0
 23 24  1  0  0  0  0
 24 25  1  0  0  0  0
 26 27  2  0  0  0  0
 27 28  1  0  0  0  0
 28 29  1  0  0  0  0
  1 30  1  0  0  0  0
  1 31  1  0  0  0  0
  1 32  1  0  0  0  0
  3 33  1  0  0  0  0
  4 34  1  0  0  0  0
  5 35  1  0  0  0  0
 11 36  1  0  0  0  0
 13 37  1  0  0  0  0
 14 38  1  0  0  0  0
 18 39  1  0  0  0  0
 19 40  1  0  0  0  0
 22 41  1  0  0  0  0
 24 42  1  0  0  0  0
 25 43  1  0  0  0  0
 26 44  1  0  0  0  0
 29 45  1  0  0  0  0
 29 46  1  0  0  0  0
 29 47  1  0  0  0  0
M  END
> <IC50[nM]>
6.3

$$$$
CHEMBL3265018
  -OEChem-05192314333D
 Structure written by MMmdl.
 47 51  0     1  0  0  0  0  0999 V2000
   -4.2567   -3.1043   13.5693 C   0  0  0  0  0  0  0  0  0  0  0  0
   -3.8736   -2.3603   14.7157 O   0  0  0  0  0  0  0  0  0  0  0  0
   -2.5257   -2.1109   14.8170 C   0  0  3  0  0  0  0  0  0  0  0  0
   -1.7457   -2.8699   15.6819 C   0  0  0  0  0  0  0  0  0  0  0  0
   -0.3904   -2.6103   15.8138 C   0  0  0  0  0  0  0  0  0  0  0  0
    0.2205   -1.5845   15.0866 C   0  0  0  0  0  0  0  0  0  0  0  0
    1.6039   -1.3601   15.3216 N   0  0  0  0  0  0  0  0  0  0  0  0
    2.5369   -0.4474   14.7595 C   0  0  0  0  0  0  0  0  0  0  0  0
    2.1817    0.3719   13.7240 N   0  0  0  0  0  0  0  0  0  0  0  0
    3.1138    1.2387   13.2179 C   0  0  0  0  0  0  0  0  0  0  0  0
    4.4187    1.2840   13.7027 C   0  0  0  0  0  0  0  0  0  0  0  0
    4.7466    0.4880   14.7600 N   0  0  0  0  0  0  0  0  0  0  0  0
    5.8977    0.3770   15.4865 C   0  0  0  0  0  0  0  0  0  0  0  0
    5.5876   -0.5233   16.5295 C   0  0  0  0  0  0  0  0  0  0  0  0
    4.3760   -1.0434   16.3734 N   0  0  0  0  0  0  0  0  0  0  0  0
    3.8370   -0.3940   15.3257 C   0  0  0  0  0  0  0  0  0  0  0  0
    2.6359    2.1614   12.1223 C   0  0  0  0  0  0  0  0  0  0  0  0
    1.3054    2.6314   12.1303 C   0  0  0  0  0  0  0  0  0  0  0  0
    0.8262    3.5165   11.1628 C   0  0  0  0  0  0  0  0  0  0  0  0
    1.7006    3.9330   10.1707 C   0  0  3  0  0  0  0  0  0  0  0  0
    1.4948    4.8131    9.1162 N   0  0  0  0  0  0  0  0  0  0  0  0
    2.6280    4.8521    8.4793 C   0  0  0  0  0  0  0  0  0  0  0  0
    3.5731    4.0579    9.0246 N   0  0  0  0  0  0  0  0  0  0  0  0
    3.0312    3.4473   10.1317 C   0  0  0  0  0  0  0  0  0  0  0  0
    3.5261    2.5537   11.0860 C   0  0  0  0  0  0  0  0  0  0  0  0
   -0.5552   -0.8189   14.1920 C   0  0  0  0  0  0  0  0  0  0  0  0
   -1.9445   -1.0884   14.0613 C   0  0  0  0  0  0  0  0  0  0  0  0
   -2.7533   -0.3562   13.2050 O   0  0  0  0  0  0  0  0  0  0  0  0
   -2.2327    0.6448   12.3521 C   0  0  0  0  0  0  0  0  0  0  0  0
   -5.3466   -3.2530   13.5754 H   0  0  0  0  0  0  0  0  0  0  0  0
   -3.9668   -2.5544   12.6618 H   0  0  0  0  0  0  0  0  0  0  0  0
   -3.7533   -4.0823   13.5820 H   0  0  0  0  0  0  0  0  0  0  0  0
   -2.3288   -2.8270   14.0056 H   0  0  0  0  0  0  0  0  0  0  0  0
   -2.1981   -3.6662   16.2542 H   0  0  0  0  0  0  0  0  0  0  0  0
    0.2026   -3.2097   16.4887 H   0  0  0  0  0  0  0  0  0  0  0  0
    5.1536    1.9344   13.2517 H   0  0  0  0  0  0  0  0  0  0  0  0
    6.8406    0.8706   15.3032 H   0  0  0  0  0  0  0  0  0  0  0  0
    6.2508   -0.7585   17.3488 H   0  0  0  0  0  0  0  0  0  0  0  0
    0.6368    2.2959   12.9093 H   0  0  0  0  0  0  0  0  0  0  0  0
   -0.1953    3.8664   11.1865 H   0  0  0  0  0  0  0  0  0  0  0  0
    2.0243    4.7701   10.8068 H   0  0  0  0  0  0  0  0  0  0  0  0
    2.7959    5.4592    7.6020 H   0  0  0  0  0  0  0  0  0  0  0  0
    4.5378    2.1788   11.0381 H   0  0  0  0  0  0  0  0  0  0  0  0
   -0.0967   -0.0331   13.6101 H   0  0  0  0  0  0  0  0  0  0  0  0
   -3.0507    1.0906   11.7671 H   0  0  0  0  0  0  0  0  0  0  0  0
   -1.7468    1.4250   12.9565 H   0  0  0  0  0  0  0  0  0  0  0  0
   -1.4953    0.1975   11.6693 H   0  0  0  0  0  0  0  0  0  0  0  0
  1  2  1  0  0  0  0
  2  3  1  0  0  0  0
  3  4  1  0  0  0  0
  3 27  1  0  0  0  0
  4  5  2  0  0  0  0
  5  6  1  0  0  0  0
  6  7  2  0  0  0  0
  6 26  1  0  0  0  0
  7  8  1  0  0  0  0
  8  9  2  0  0  0  0
  8 16  1  0  0  0  0
  9 10  1  0  0  0  0
 10 11  2  0  0  0  0
 10 17  1  0  0  0  0
 11 12  1  0  0  0  0
 12 13  1  0  0  0  0
 12 16  1  0  0  0  0
 13 14  2  0  0  0  0
 14 15  1  0  0  0  0
 15 16  2  0  0  0  0
 17 18  1  0  0  0  0
 17 25  2  0  0  0  0
 18 19  2  0  0  0  0
 19 20  1  0  0  0  0
 20 21  1  0  0  0  0
 20 24  1  0  0  0  0
 21 22  2  0  0  0  0
 22 23  1  0  0  0  0
 23 24  2  0  0  0  0
 24 25  1  0  0  0  0
 26 27  2  0  0  0  0
 27 28  1  0  0  0  0
 28 29  1  0  0  0  0
  1 30  1  0  0  0  0
  1 31  1  0  0  0  0
  1 32  1  0  0  0  0
  3 33  1  0  0  0  0
  4 34  1  0  0  0  0
  5 35  1  0  0  0  0
 11 36  1  0  0  0  0
 13 37  1  0  0  0  0
 14 38  1  0  0  0  0
 18 39  1  0  0  0  0
 19 40  1  0  0  0  0
 20 41  1  0  0  0  0
 22 42  1  0  0  0  0
 25 43  1  0  0  0  0
 26 44  1  0  0  0  0
 29 45  1  0  0  0  0
 29 46  1  0  0  0  0
 29 47  1  0  0  0  0
M  END
> <IC50[nM]>
6.3

$$$$
CHEMBL3265018
  -OEChem-05192314333D
 Structure written by MMmdl.
 47 51  0     1  0  0  0  0  0999 V2000
   -4.2567   -3.1043   13.5693 C   0  0  0  0  0  0  0  0  0  0  0  0
   -3.8736   -2.3603   14.7157 O   0  0  0  0  0  0  0  0  0  0  0  0
   -2.5257   -2.1109   14.8170 C   0  0  3  0  0  0  0  0  0  0  0  0
   -1.7457   -2.8699   15.6819 C   0  0  0  0  0  0  0  0  0  0  0  0
   -0.3904   -2.6103   15.8138 C   0  0  0  0  0  0  0  0  0  0  0  0
    0.2205   -1.5845   15.0866 C   0  0  0  0  0  0  0  0  0  0  0  0
    1.6039   -1.3601   15.3216 N   0  0  0  0  0  0  0  0  0  0  0  0
    2.5369   -0.4474   14.7595 C   0  0  0  0  0  0  0  0  0  0  0  0
    2.1817    0.3719   13.7240 N   0  0  0  0  0  0  0  0  0  0  0  0
    3.1138    1.2387   13.2179 C   0  0  0  0  0  0  0  0  0  0  0  0
    4.4187    1.2840   13.7027 C   0  0  0  0  0  0  0  0  0  0  0  0
    4.7466    0.4880   14.7600 N   0  0  0  0  0  0  0  0  0  0  0  0
    5.8977    0.3770   15.4865 C   0  0  0  0  0  0  0  0  0  0  0  0
    5.5876   -0.5233   16.5295 C   0  0  0  0  0  0  0  0  0  0  0  0
    4.3760   -1.0434   16.3734 N   0  0  0  0  0  0  0  0  0  0  0  0
    3.8370   -0.3940   15.3257 C   0  0  0  0  0  0  0  0  0  0  0  0
    2.6359    2.1614   12.1223 C   0  0  0  0  0  0  0  0  0  0  0  0
    1.3054    2.6314   12.1303 C   0  0  0  0  0  0  0  0  0  0  0  0
    0.8262    3.5165   11.1628 C   0  0  0  0  0  0  0  0  0  0  0  0
    1.7006    3.9330   10.1707 C   0  0  0  0  0  0  0  0  0  0  0  0
    1.4948    4.8131    9.1162 N   0  0  0  0  0  0  0  0  0  0  0  0
    2.6280    4.8521    8.4793 C   0  0  0  0  0  0  0  0  0  0  0  0
    3.5731    4.0579    9.0246 N   0  0  0  0  0  0  0  0  0  0  0  0
    3.0312    3.4473   10.1317 C   0  0  0  0  0  0  0  0  0  0  0  0
    3.5261    2.5537   11.0860 C   0  0  0  0  0  0  0  0  0  0  0  0
   -0.5552   -0.8189   14.1920 C   0  0  0  0  0  0  0  0  0  0  0  0
   -1.9445   -1.0884   14.0613 C   0  0  0  0  0  0  0  0  0  0  0  0
   -2.7533   -0.3562   13.2050 O   0  0  0  0  0  0  0  0  0  0  0  0
   -2.2327    0.6448   12.3521 C   0  0  0  0  0  0  0  0  0  0  0  0
   -5.3466   -3.2530   13.5754 H   0  0  0  0  0  0  0  0  0  0  0  0
   -3.9668   -2.5544   12.6618 H   0  0  0  0  0  0  0  0  0  0  0  0
   -3.7533   -4.0823   13.5820 H   0  0  0  0  0  0  0  0  0  0  0  0
   -2.3288   -2.8270   14.0056 H   0  0  0  0  0  0  0  0  0  0  0  0
   -2.1981   -3.6662   16.2542 H   0  0  0  0  0  0  0  0  0  0  0  0
    0.2026   -3.2097   16.4887 H   0  0  0  0  0  0  0  0  0  0  0  0
    5.1536    1.9344   13.2517 H   0  0  0  0  0  0  0  0  0  0  0  0
    6.8406    0.8706   15.3032 H   0  0  0  0  0  0  0  0  0  0  0  0
    6.2508   -0.7585   17.3488 H   0  0  0  0  0  0  0  0  0  0  0  0
    0.6368    2.2959   12.9093 H   0  0  0  0  0  0  0  0  0  0  0  0
   -0.0242    3.0277   10.6650 H   0  0  0  0  0  0  0  0  0  0  0  0
    0.4753    4.4168   11.6884 H   0  0  0  0  0  0  0  0  0  0  0  0
    2.7959    5.4592    7.6020 H   0  0  0  0  0  0  0  0  0  0  0  0
    4.5378    2.1788   11.0381 H   0  0  0  0  0  0  0  0  0  0  0  0
   -0.0967   -0.0331   13.6101 H   0  0  0  0  0  0  0  0  0  0  0  0
   -3.0507    1.0906   11.7671 H   0  0  0  0  0  0  0  0  0  0  0  0
   -1.7468    1.4250   12.9565 H   0  0  0  0  0  0  0  0  0  0  0  0
   -1.4953    0.1975   11.6693 H   0  0  0  0  0  0  0  0  0  0  0  0
  1  2  1  0  0  0  0
  2  3  1  0  0  0  0
  3  4  1  0  0  0  0
  3 27  1  0  0  0  0
  4  5  2  0  0  0  0
  5  6  1  0  0  0  0
  6  7  2  0  0  0  0
  6 26  1  0  0  0  0
  7  8  1  0  0  0  0
  8  9  2  0  0  0  0
  8 16  1  0  0  0  0
  9 10  1  0  0  0  0
 10 11  2  0  0  0  0
 10 17  1  0  0  0  0
 11 12  1  0  0  0  0
 12 13  1  0  0  0  0
 12 16  1  0  0  0  0
 13 14  2  0  0  0  0
 14 15  1  0  0  0  0
 15 16  2  0  0  0  0
 17 18  2  0  0  0  0
 17 25  1  0  0  0  0
 18 19  1  0  0  0  0
 19 20  1  0  0  0  0
 20 21  2  0  0  0  0
 20 24  1  0  0  0  0
 21 22  1  0  0  0  0
 22 23  2  0  0  0  0
 23 24  1  0  0  0  0
 24 25  2  0  0  0  0
 26 27  2  0  0  0  0
 27 28  1  0  0  0  0
 28 29  1  0  0  0  0
  1 30  1  0  0  0  0
  1 31  1  0  0  0  0
  1 32  1  0  0  0  0
  3 33  1  0  0  0  0
  4 34  1  0  0  0  0
  5 35  1  0  0  0  0
 11 36  1  0  0  0  0
 13 37  1  0  0  0  0
 14 38  1  0  0  0  0
 18 39  1  0  0  0  0
 19 40  1  0  0  0  0
 19 41  1  0  0  0  0
 22 42  1  0  0  0  0
 25 43  1  0  0  0  0
 26 44  1  0  0  0  0
 29 45  1  0  0  0  0
 29 46  1  0  0  0  0
 29 47  1  0  0  0  0
M  END
> <IC50[nM]>
6.3

$$$$
CHEMBL3265018
  -OEChem-05192314333D
 Structure written by MMmdl.
 47 51  0     1  0  0  0  0  0999 V2000
   -4.2567   -3.1043   13.5693 C   0  0  0  0  0  0  0  0  0  0  0  0
   -3.8736   -2.3603   14.7157 O   0  0  0  0  0  0  0  0  0  0  0  0
   -2.5257   -2.1109   14.8170 C   0  0  0  0  0  0  0  0  0  0  0  0
   -1.7457   -2.8699   15.6819 C   0  0  0  0  0  0  0  0  0  0  0  0
   -0.3904   -2.6103   15.8138 C   0  0  0  0  0  0  0  0  0  0  0  0
    0.2205   -1.5845   15.0866 C   0  0  0  0  0  0  0  0  0  0  0  0
    1.6039   -1.3601   15.3216 N   0  0  0  0  0  0  0  0  0  0  0  0
    2.5369   -0.4474   14.7595 C   0  0  0  0  0  0  0  0  0  0  0  0
    2.1817    0.3719   13.7240 N   0  0  0  0  0  0  0  0  0  0  0  0
    3.1138    1.2387   13.2179 C   0  0  0  0  0  0  0  0  0  0  0  0
    4.4187    1.2840   13.7027 C   0  0  0  0  0  0  0  0  0  0  0  0
    4.7466    0.4880   14.7600 N   0  0  0  0  0  0  0  0  0  0  0  0
    5.8977    0.3770   15.4865 C   0  0  0  0  0  0  0  0  0  0  0  0
    5.5876   -0.5233   16.5295 C   0  0  0  0  0  0  0  0  0  0  0  0
    4.3760   -1.0434   16.3734 N   0  0  0  0  0  0  0  0  0  0  0  0
    3.8370   -0.3940   15.3257 C   0  0  0  0  0  0  0  0  0  0  0  0
    2.6359    2.1614   12.1223 C   0  0  3  0  0  0  0  0  0  0  0  0
    1.3054    2.6314   12.1303 C   0  0  0  0  0  0  0  0  0  0  0  0
    0.8262    3.5165   11.1628 C   0  0  0  0  0  0  0  0  0  0  0  0
    1.7006    3.9330   10.1707 C   0  0  0  0  0  0  0  0  0  0  0  0
    1.4948    4.8131    9.1162 N   0  0  0  0  0  0  0  0  0  0  0  0
    2.6280    4.8521    8.4793 C   0  0  0  0  0  0  0  0  0  0  0  0
    3.5731    4.0579    9.0246 N   0  0  0  0  0  0  0  0  0  0  0  0
    3.0312    3.4473   10.1317 C   0  0  0  0  0  0  0  0  0  0  0  0
    3.5261    2.5537   11.0860 C   0  0  0  0  0  0  0  0  0  0  0  0
   -0.5552   -0.8189   14.1920 C   0  0  0  0  0  0  0  0  0  0  0  0
   -1.9445   -1.0884   14.0613 C   0  0  0  0  0  0  0  0  0  0  0  0
   -2.7533   -0.3562   13.2050 O   0  0  0  0  0  0  0  0  0  0  0  0
   -2.2327    0.6448   12.3521 C   0  0  0  0  0  0  0  0  0  0  0  0
   -5.3466   -3.2530   13.5754 H   0  0  0  0  0  0  0  0  0  0  0  0
   -3.9668   -2.5544   12.6618 H   0  0  0  0  0  0  0  0  0  0  0  0
   -3.7533   -4.0823   13.5820 H   0  0  0  0  0  0  0  0  0  0  0  0
   -2.1981   -3.6662   16.2542 H   0  0  0  0  0  0  0  0  0  0  0  0
   -0.2169   -2.3863   16.8767 H   0  0  0  0  0  0  0  0  0  0  0  0
    0.1336   -3.5393   15.5446 H   0  0  0  0  0  0  0  0  0  0  0  0
    5.1536    1.9344   13.2517 H   0  0  0  0  0  0  0  0  0  0  0  0
    6.8406    0.8706   15.3032 H   0  0  0  0  0  0  0  0  0  0  0  0
    6.2508   -0.7585   17.3488 H   0  0  0  0  0  0  0  0  0  0  0  0
    2.9470    3.0315   12.7191 H   0  0  0  0  0  0  0  0  0  0  0  0
    0.6368    2.2959   12.9093 H   0  0  0  0  0  0  0  0  0  0  0  0
   -0.1953    3.8664   11.1865 H   0  0  0  0  0  0  0  0  0  0  0  0
    2.7959    5.4592    7.6020 H   0  0  0  0  0  0  0  0  0  0  0  0
    4.5378    2.1788   11.0381 H   0  0  0  0  0  0  0  0  0  0  0  0
   -0.0967   -0.0331   13.6101 H   0  0  0  0  0  0  0  0  0  0  0  0
   -3.0507    1.0906   11.7671 H   0  0  0  0  0  0  0  0  0  0  0  0
   -1.7468    1.4250   12.9565 H   0  0  0  0  0  0  0  0  0  0  0  0
   -1.4953    0.1975   11.6693 H   0  0  0  0  0  0  0  0  0  0  0  0
  1  2  1  0  0  0  0
  2  3  1  0  0  0  0
  3  4  2  0  0  0  0
  3 27  1  0  0  0  0
  4  5  1  0  0  0  0
  5  6  1  0  0  0  0
  6  7  2  0  0  0  0
  6 26  1  0  0  0  0
  7  8  1  0  0  0  0
  8  9  2  0  0  0  0
  8 16  1  0  0  0  0
  9 10  1  0  0  0  0
 10 11  2  0  0  0  0
 10 17  1  0  0  0  0
 11 12  1  0  0  0  0
 12 13  1  0  0  0  0
 12 16  1  0  0  0  0
 13 14  2  0  0  0  0
 14 15  1  0  0  0  0
 15 16  2  0  0  0  0
 17 18  1  0  0  0  0
 17 25  1  0  0  0  0
 18 19  2  0  0  0  0
 19 20  1  0  0  0  0
 20 21  2  0  0  0  0
 20 24  1  0  0  0  0
 21 22  1  0  0  0  0
 22 23  2  0  0  0  0
 23 24  1  0  0  0  0
 24 25  2  0  0  0  0
 26 27  2  0  0  0  0
 27 28  1  0  0  0  0
 28 29  1  0  0  0  0
  1 30  1  0  0  0  0
  1 31  1  0  0  0  0
  1 32  1  0  0  0  0
  4 33  1  0  0  0  0
  5 34  1  0  0  0  0
  5 35  1  0  0  0  0
 11 36  1  0  0  0  0
 13 37  1  0  0  0  0
 14 38  1  0  0  0  0
 17 39  1  0  0  0  0
 18 40  1  0  0  0  0
 19 41  1  0  0  0  0
 22 42  1  0  0  0  0
 25 43  1  0  0  0  0
 26 44  1  0  0  0  0
 29 45  1  0  0  0  0
 29 46  1  0  0  0  0
 29 47  1  0  0  0  0
M  END
> <IC50[nM]>
6.3

$$$$
CHEMBL3265018
  -OEChem-05192314333D
 Structure written by MMmdl.
 47 51  0     1  0  0  0  0  0999 V2000
   -4.2567   -3.1043   13.5693 C   0  0  0  0  0  0  0  0  0  0  0  0
   -3.8736   -2.3603   14.7157 O   0  0  0  0  0  0  0  0  0  0  0  0
   -2.5257   -2.1109   14.8170 C   0  0  0  0  0  0  0  0  0  0  0  0
   -1.7457   -2.8699   15.6819 C   0  0  0  0  0  0  0  0  0  0  0  0
   -0.3904   -2.6103   15.8138 C   0  0  0  0  0  0  0  0  0  0  0  0
    0.2205   -1.5845   15.0866 C   0  0  0  0  0  0  0  0  0  0  0  0
    1.6039   -1.3601   15.3216 N   0  0  0  0  0  0  0  0  0  0  0  0
    2.5369   -0.4474   14.7595 C   0  0  0  0  0  0  0  0  0  0  0  0
    2.1817    0.3719   13.7240 N   0  0  0  0  0  0  0  0  0  0  0  0
    3.1138    1.2387   13.2179 C   0  0  0  0  0  0  0  0  0  0  0  0
    4.4187    1.2840   13.7027 C   0  0  0  0  0  0  0  0  0  0  0  0
    4.7466    0.4880   14.7600 N   0  0  0  0  0  0  0  0  0  0  0  0
    5.8977    0.3770   15.4865 C   0  0  0  0  0  0  0  0  0  0  0  0
    5.5876   -0.5233   16.5295 C   0  0  0  0  0  0  0  0  0  0  0  0
    4.3760   -1.0434   16.3734 N   0  0  0  0  0  0  0  0  0  0  0  0
    3.8370   -0.3940   15.3257 C   0  0  0  0  0  0  0  0  0  0  0  0
    2.6359    2.1614   12.1223 C   0  0  0  0  0  0  0  0  0  0  0  0
    1.3054    2.6314   12.1303 C   0  0  0  0  0  0  0  0  0  0  0  0
    0.8262    3.5165   11.1628 C   0  0  0  0  0  0  0  0  0  0  0  0
    1.7006    3.9330   10.1707 C   0  0  0  0  0  0  0  0  0  0  0  0
    1.4948    4.8131    9.1162 N   0  0  0  0  0  0  0  0  0  0  0  0
    2.6280    4.8521    8.4793 C   0  0  0  0  0  0  0  0  0  0  0  0
    3.5731    4.0579    9.0246 N   0  0  0  0  0  0  0  0  0  0  0  0
    3.0312    3.4473   10.1317 C   0  0  3  0  0  0  0  0  0  0  0  0
    3.5261    2.5537   11.0860 C   0  0  0  0  0  0  0  0  0  0  0  0
   -0.5552   -0.8189   14.1920 C   0  0  0  0  0  0  0  0  0  0  0  0
   -1.9445   -1.0884   14.0613 C   0  0  0  0  0  0  0  0  0  0  0  0
   -2.7533   -0.3562   13.2050 O   0  0  0  0  0  0  0  0  0  0  0  0
   -2.2327    0.6448   12.3521 C   0  0  0  0  0  0  0  0  0  0  0  0
   -5.3466   -3.2530   13.5754 H   0  0  0  0  0  0  0  0  0  0  0  0
   -3.9668   -2.5544   12.6618 H   0  0  0  0  0  0  0  0  0  0  0  0
   -3.7533   -4.0823   13.5820 H   0  0  0  0  0  0  0  0  0  0  0  0
   -2.1981   -3.6662   16.2542 H   0  0  0  0  0  0  0  0  0  0  0  0
   -0.2169   -2.3863   16.8767 H   0  0  0  0  0  0  0  0  0  0  0  0
    0.1336   -3.5393   15.5446 H   0  0  0  0  0  0  0  0  0  0  0  0
    5.1536    1.9344   13.2517 H   0  0  0  0  0  0  0  0  0  0  0  0
    6.8406    0.8706   15.3032 H   0  0  0  0  0  0  0  0  0  0  0  0
    6.2508   -0.7585   17.3488 H   0  0  0  0  0  0  0  0  0  0  0  0
    0.6368    2.2959   12.9093 H   0  0  0  0  0  0  0  0  0  0  0  0
   -0.1953    3.8664   11.1865 H   0  0  0  0  0  0  0  0  0  0  0  0
    2.7959    5.4592    7.6020 H   0  0  0  0  0  0  0  0  0  0  0  0
    2.7055    2.6021    9.5075 H   0  0  0  0  0  0  0  0  0  0  0  0
    4.5378    2.1788   11.0381 H   0  0  0  0  0  0  0  0  0  0  0  0
   -0.0967   -0.0331   13.6101 H   0  0  0  0  0  0  0  0  0  0  0  0
   -3.0507    1.0906   11.7671 H   0  0  0  0  0  0  0  0  0  0  0  0
   -1.7468    1.4250   12.9565 H   0  0  0  0  0  0  0  0  0  0  0  0
   -1.4953    0.1975   11.6693 H   0  0  0  0  0  0  0  0  0  0  0  0
  1  2  1  0  0  0  0
  2  3  1  0  0  0  0
  3  4  2  0  0  0  0
  3 27  1  0  0  0  0
  4  5  1  0  0  0  0
  5  6  1  0  0  0  0
  6  7  2  0  0  0  0
  6 26  1  0  0  0  0
  7  8  1  0  0  0  0
  8  9  2  0  0  0  0
  8 16  1  0  0  0  0
  9 10  1  0  0  0  0
 10 11  2  0  0  0  0
 10 17  1  0  0  0  0
 11 12  1  0  0  0  0
 12 13  1  0  0  0  0
 12 16  1  0  0  0  0
 13 14  2  0  0  0  0
 14 15  1  0  0  0  0
 15 16  2  0  0  0  0
 17 18  1  0  0  0  0
 17 25  2  0  0  0  0
 18 19  2  0  0  0  0
 19 20  1  0  0  0  0
 20 21  2  0  0  0  0
 20 24  1  0  0  0  0
 21 22  1  0  0  0  0
 22 23  2  0  0  0  0
 23 24  1  0  0  0  0
 24 25  1  0  0  0  0
 26 27  2  0  0  0  0
 27 28  1  0  0  0  0
 28 29  1  0  0  0  0
  1 30  1  0  0  0  0
  1 31  1  0  0  0  0
  1 32  1  0  0  0  0
  4 33  1  0  0  0  0
  5 34  1  0  0  0  0
  5 35  1  0  0  0  0
 11 36  1  0  0  0  0
 13 37  1  0  0  0  0
 14 38  1  0  0  0  0
 18 39  1  0  0  0  0
 19 40  1  0  0  0  0
 22 41  1  0  0  0  0
 24 42  1  0  0  0  0
 25 43  1  0  0  0  0
 26 44  1  0  0  0  0
 29 45  1  0  0  0  0
 29 46  1  0  0  0  0
 29 47  1  0  0  0  0
M  END
> <IC50[nM]>
6.3

$$$$
CHEMBL3265018
  -OEChem-05192314333D
 Structure written by MMmdl.
 47 51  0     1  0  0  0  0  0999 V2000
   -4.2567   -3.1043   13.5693 C   0  0  0  0  0  0  0  0  0  0  0  0
   -3.8736   -2.3603   14.7157 O   0  0  0  0  0  0  0  0  0  0  0  0
   -2.5257   -2.1109   14.8170 C   0  0  0  0  0  0  0  0  0  0  0  0
   -1.7457   -2.8699   15.6819 C   0  0  0  0  0  0  0  0  0  0  0  0
   -0.3904   -2.6103   15.8138 C   0  0  0  0  0  0  0  0  0  0  0  0
    0.2205   -1.5845   15.0866 C   0  0  0  0  0  0  0  0  0  0  0  0
    1.6039   -1.3601   15.3216 N   0  0  0  0  0  0  0  0  0  0  0  0
    2.5369   -0.4474   14.7595 C   0  0  0  0  0  0  0  0  0  0  0  0
    2.1817    0.3719   13.7240 N   0  0  0  0  0  0  0  0  0  0  0  0
    3.1138    1.2387   13.2179 C   0  0  0  0  0  0  0  0  0  0  0  0
    4.4187    1.2840   13.7027 C   0  0  0  0  0  0  0  0  0  0  0  0
    4.7466    0.4880   14.7600 N   0  0  0  0  0  0  0  0  0  0  0  0
    5.8977    0.3770   15.4865 C   0  0  0  0  0  0  0  0  0  0  0  0
    5.5876   -0.5233   16.5295 C   0  0  0  0  0  0  0  0  0  0  0  0
    4.3760   -1.0434   16.3734 N   0  0  0  0  0  0  0  0  0  0  0  0
    3.8370   -0.3940   15.3257 C   0  0  0  0  0  0  0  0  0  0  0  0
    2.6359    2.1614   12.1223 C   0  0  0  0  0  0  0  0  0  0  0  0
    1.3054    2.6314   12.1303 C   0  0  0  0  0  0  0  0  0  0  0  0
    0.8262    3.5165   11.1628 C   0  0  0  0  0  0  0  0  0  0  0  0
    1.7006    3.9330   10.1707 C   0  0  3  0  0  0  0  0  0  0  0  0
    1.4948    4.8131    9.1162 N   0  0  0  0  0  0  0  0  0  0  0  0
    2.6280    4.8521    8.4793 C   0  0  0  0  0  0  0  0  0  0  0  0
    3.5731    4.0579    9.0246 N   0  0  0  0  0  0  0  0  0  0  0  0
    3.0312    3.4473   10.1317 C   0  0  0  0  0  0  0  0  0  0  0  0
    3.5261    2.5537   11.0860 C   0  0  0  0  0  0  0  0  0  0  0  0
   -0.5552   -0.8189   14.1920 C   0  0  0  0  0  0  0  0  0  0  0  0
   -1.9445   -1.0884   14.0613 C   0  0  0  0  0  0  0  0  0  0  0  0
   -2.7533   -0.3562   13.2050 O   0  0  0  0  0  0  0  0  0  0  0  0
   -2.2327    0.6448   12.3521 C   0  0  0  0  0  0  0  0  0  0  0  0
   -5.3466   -3.2530   13.5754 H   0  0  0  0  0  0  0  0  0  0  0  0
   -3.9668   -2.5544   12.6618 H   0  0  0  0  0  0  0  0  0  0  0  0
   -3.7533   -4.0823   13.5820 H   0  0  0  0  0  0  0  0  0  0  0  0
   -2.1981   -3.6662   16.2542 H   0  0  0  0  0  0  0  0  0  0  0  0
   -0.2169   -2.3863   16.8767 H   0  0  0  0  0  0  0  0  0  0  0  0
    0.1336   -3.5393   15.5446 H   0  0  0  0  0  0  0  0  0  0  0  0
    5.1536    1.9344   13.2517 H   0  0  0  0  0  0  0  0  0  0  0  0
    6.8406    0.8706   15.3032 H   0  0  0  0  0  0  0  0  0  0  0  0
    6.2508   -0.7585   17.3488 H   0  0  0  0  0  0  0  0  0  0  0  0
    0.6368    2.2959   12.9093 H   0  0  0  0  0  0  0  0  0  0  0  0
   -0.1953    3.8664   11.1865 H   0  0  0  0  0  0  0  0  0  0  0  0
    2.0243    4.7701   10.8068 H   0  0  0  0  0  0  0  0  0  0  0  0
    2.7959    5.4592    7.6020 H   0  0  0  0  0  0  0  0  0  0  0  0
    4.5378    2.1788   11.0381 H   0  0  0  0  0  0  0  0  0  0  0  0
   -0.0967   -0.0331   13.6101 H   0  0  0  0  0  0  0  0  0  0  0  0
   -3.0507    1.0906   11.7671 H   0  0  0  0  0  0  0  0  0  0  0  0
   -1.7468    1.4250   12.9565 H   0  0  0  0  0  0  0  0  0  0  0  0
   -1.4953    0.1975   11.6693 H   0  0  0  0  0  0  0  0  0  0  0  0
  1  2  1  0  0  0  0
  2  3  1  0  0  0  0
  3  4  2  0  0  0  0
  3 27  1  0  0  0  0
  4  5  1  0  0  0  0
  5  6  1  0  0  0  0
  6  7  2  0  0  0  0
  6 26  1  0  0  0  0
  7  8  1  0  0  0  0
  8  9  2  0  0  0  0
  8 16  1  0  0  0  0
  9 10  1  0  0  0  0
 10 11  2  0  0  0  0
 10 17  1  0  0  0  0
 11 12  1  0  0  0  0
 12 13  1  0  0  0  0
 12 16  1  0  0  0  0
 13 14  2  0  0  0  0
 14 15  1  0  0  0  0
 15 16  2  0  0  0  0
 17 18  1  0  0  0  0
 17 25  2  0  0  0  0
 18 19  2  0  0  0  0
 19 20  1  0  0  0  0
 20 21  1  0  0  0  0
 20 24  1  0  0  0  0
 21 22  2  0  0  0  0
 22 23  1  0  0  0  0
 23 24  2  0  0  0  0
 24 25  1  0  0  0  0
 26 27  2  0  0  0  0
 27 28  1  0  0  0  0
 28 29  1  0  0  0  0
  1 30  1  0  0  0  0
  1 31  1  0  0  0  0
  1 32  1  0  0  0  0
  4 33  1  0  0  0  0
  5 34  1  0  0  0  0
  5 35  1  0  0  0  0
 11 36  1  0  0  0  0
 13 37  1  0  0  0  0
 14 38  1  0  0  0  0
 18 39  1  0  0  0  0
 19 40  1  0  0  0  0
 20 41  1  0  0  0  0
 22 42  1  0  0  0  0
 25 43  1  0  0  0  0
 26 44  1  0  0  0  0
 29 45  1  0  0  0  0
 29 46  1  0  0  0  0
 29 47  1  0  0  0  0
M  END
> <IC50[nM]>
6.3

$$$$
CHEMBL3265018
  -OEChem-05192314333D
 Structure written by MMmdl.
 47 51  0     0  0  0  0  0  0999 V2000
   -4.2567   -3.1043   13.5693 C   0  0  0  0  0  0  0  0  0  0  0  0
   -3.8736   -2.3603   14.7157 O   0  0  0  0  0  0  0  0  0  0  0  0
   -2.5257   -2.1109   14.8170 C   0  0  0  0  0  0  0  0  0  0  0  0
   -1.7457   -2.8699   15.6819 C   0  0  0  0  0  0  0  0  0  0  0  0
   -0.3904   -2.6103   15.8138 C   0  0  0  0  0  0  0  0  0  0  0  0
    0.2205   -1.5845   15.0866 C   0  0  0  0  0  0  0  0  0  0  0  0
    1.6039   -1.3601   15.3216 N   0  0  0  0  0  0  0  0  0  0  0  0
    2.5369   -0.4474   14.7595 C   0  0  0  0  0  0  0  0  0  0  0  0
    2.1817    0.3719   13.7240 N   0  0  0  0  0  0  0  0  0  0  0  0
    3.1138    1.2387   13.2179 C   0  0  0  0  0  0  0  0  0  0  0  0
    4.4187    1.2840   13.7027 C   0  0  0  0  0  0  0  0  0  0  0  0
    4.7466    0.4880   14.7600 N   0  0  0  0  0  0  0  0  0  0  0  0
    5.8977    0.3770   15.4865 C   0  0  0  0  0  0  0  0  0  0  0  0
    5.5876   -0.5233   16.5295 C   0  0  0  0  0  0  0  0  0  0  0  0
    4.3760   -1.0434   16.3734 N   0  0  0  0  0  0  0  0  0  0  0  0
    3.8370   -0.3940   15.3257 C   0  0  0  0  0  0  0  0  0  0  0  0
    2.6359    2.1614   12.1223 C   0  0  0  0  0  0  0  0  0  0  0  0
    1.3054    2.6314   12.1303 C   0  0  0  0  0  0  0  0  0  0  0  0
    0.8262    3.5165   11.1628 C   0  0  0  0  0  0  0  0  0  0  0  0
    1.7006    3.9330   10.1707 C   0  0  0  0  0  0  0  0  0  0  0  0
    1.4948    4.8131    9.1162 N   0  0  0  0  0  0  0  0  0  0  0  0
    2.6280    4.8521    8.4793 C   0  0  0  0  0  0  0  0  0  0  0  0
    3.5731    4.0579    9.0246 N   0  0  0  0  0  0  0  0  0  0  0  0
    3.0312    3.4473   10.1317 C   0  0  0  0  0  0  0  0  0  0  0  0
    3.5261    2.5537   11.0860 C   0  0  0  0  0  0  0  0  0  0  0  0
   -0.5552   -0.8189   14.1920 C   0  0  0  0  0  0  0  0  0  0  0  0
   -1.9445   -1.0884   14.0613 C   0  0  0  0  0  0  0  0  0  0  0  0
   -2.7533   -0.3562   13.2050 O   0  0  0  0  0  0  0  0  0  0  0  0
   -2.2327    0.6448   12.3521 C   0  0  0  0  0  0  0  0  0  0  0  0
   -5.3466   -3.2530   13.5754 H   0  0  0  0  0  0  0  0  0  0  0  0
   -3.9668   -2.5544   12.6618 H   0  0  0  0  0  0  0  0  0  0  0  0
   -3.7533   -4.0823   13.5820 H   0  0  0  0  0  0  0  0  0  0  0  0
   -2.1981   -3.6662   16.2542 H   0  0  0  0  0  0  0  0  0  0  0  0
   -0.2169   -2.3863   16.8767 H   0  0  0  0  0  0  0  0  0  0  0  0
    0.1336   -3.5393   15.5446 H   0  0  0  0  0  0  0  0  0  0  0  0
    5.1536    1.9344   13.2517 H   0  0  0  0  0  0  0  0  0  0  0  0
    6.8406    0.8706   15.3032 H   0  0  0  0  0  0  0  0  0  0  0  0
    6.2508   -0.7585   17.3488 H   0  0  0  0  0  0  0  0  0  0  0  0
    0.6368    2.2959   12.9093 H   0  0  0  0  0  0  0  0  0  0  0  0
   -0.0242    3.0277   10.6650 H   0  0  0  0  0  0  0  0  0  0  0  0
    0.4753    4.4168   11.6884 H   0  0  0  0  0  0  0  0  0  0  0  0
    2.7959    5.4592    7.6020 H   0  0  0  0  0  0  0  0  0  0  0  0
    4.5378    2.1788   11.0381 H   0  0  0  0  0  0  0  0  0  0  0  0
   -0.0967   -0.0331   13.6101 H   0  0  0  0  0  0  0  0  0  0  0  0
   -3.0507    1.0906   11.7671 H   0  0  0  0  0  0  0  0  0  0  0  0
   -1.7468    1.4250   12.9565 H   0  0  0  0  0  0  0  0  0  0  0  0
   -1.4953    0.1975   11.6693 H   0  0  0  0  0  0  0  0  0  0  0  0
  1  2  1  0  0  0  0
  2  3  1  0  0  0  0
  3  4  2  0  0  0  0
  3 27  1  0  0  0  0
  4  5  1  0  0  0  0
  5  6  1  0  0  0  0
  6  7  2  0  0  0  0
  6 26  1  0  0  0  0
  7  8  1  0  0  0  0
  8  9  2  0  0  0  0
  8 16  1  0  0  0  0
  9 10  1  0  0  0  0
 10 11  2  0  0  0  0
 10 17  1  0  0  0  0
 11 12  1  0  0  0  0
 12 13  1  0  0  0  0
 12 16  1  0  0  0  0
 13 14  2  0  0  0  0
 14 15  1  0  0  0  0
 15 16  2  0  0  0  0
 17 18  2  0  0  0  0
 17 25  1  0  0  0  0
 18 19  1  0  0  0  0
 19 20  1  0  0  0  0
 20 21  2  0  0  0  0
 20 24  1  0  0  0  0
 21 22  1  0  0  0  0
 22 23  2  0  0  0  0
 23 24  1  0  0  0  0
 24 25  2  0  0  0  0
 26 27  2  0  0  0  0
 27 28  1  0  0  0  0
 28 29  1  0  0  0  0
  1 30  1  0  0  0  0
  1 31  1  0  0  0  0
  1 32  1  0  0  0  0
  4 33  1  0  0  0  0
  5 34  1  0  0  0  0
  5 35  1  0  0  0  0
 11 36  1  0  0  0  0
 13 37  1  0  0  0  0
 14 38  1  0  0  0  0
 18 39  1  0  0  0  0
 19 40  1  0  0  0  0
 19 41  1  0  0  0  0
 22 42  1  0  0  0  0
 25 43  1  0  0  0  0
 26 44  1  0  0  0  0
 29 45  1  0  0  0  0
 29 46  1  0  0  0  0
 29 47  1  0  0  0  0
M  END
> <IC50[nM]>
6.3

$$$$
CHEMBL3265018
  -OEChem-05192314333D
 Structure written by MMmdl.
 47 51  0     1  0  0  0  0  0999 V2000
   -4.2567   -3.1043   13.5693 C   0  0  0  0  0  0  0  0  0  0  0  0
   -3.8736   -2.3603   14.7157 O   0  0  0  0  0  0  0  0  0  0  0  0
   -2.5257   -2.1109   14.8170 C   0  0  3  0  0  0  0  0  0  0  0  0
   -1.7457   -2.8699   15.6819 C   0  0  0  0  0  0  0  0  0  0  0  0
   -0.3904   -2.6103   15.8138 C   0  0  0  0  0  0  0  0  0  0  0  0
    0.2205   -1.5845   15.0866 C   0  0  0  0  0  0  0  0  0  0  0  0
    1.6039   -1.3601   15.3216 N   0  0  0  0  0  0  0  0  0  0  0  0
    2.5369   -0.4474   14.7595 C   0  0  0  0  0  0  0  0  0  0  0  0
    2.1817    0.3719   13.7240 N   0  0  0  0  0  0  0  0  0  0  0  0
    3.1138    1.2387   13.2179 C   0  0  0  0  0  0  0  0  0  0  0  0
    4.4187    1.2840   13.7027 C   0  0  0  0  0  0  0  0  0  0  0  0
    4.7466    0.4880   14.7600 N   0  0  0  0  0  0  0  0  0  0  0  0
    5.8977    0.3770   15.4865 C   0  0  0  0  0  0  0  0  0  0  0  0
    5.5876   -0.5233   16.5295 C   0  0  0  0  0  0  0  0  0  0  0  0
    4.3760   -1.0434   16.3734 N   0  0  0  0  0  0  0  0  0  0  0  0
    3.8370   -0.3940   15.3257 C   0  0  0  0  0  0  0  0  0  0  0  0
    2.6359    2.1614   12.1223 C   0  0  0  0  0  0  0  0  0  0  0  0
    1.3054    2.6314   12.1303 C   0  0  0  0  0  0  0  0  0  0  0  0
    0.8262    3.5165   11.1628 C   0  0  0  0  0  0  0  0  0  0  0  0
    1.7006    3.9330   10.1707 C   0  0  0  0  0  0  0  0  0  0  0  0
    1.4948    4.8131    9.1162 N   0  0  0  0  0  0  0  0  0  0  0  0
    2.6280    4.8521    8.4793 C   0  0  0  0  0  0  0  0  0  0  0  0
    3.5731    4.0579    9.0246 N   0  0  0  0  0  0  0  0  0  0  0  0
    3.0312    3.4473   10.1317 C   0  0  0  0  0  0  0  0  0  0  0  0
    3.5261    2.5537   11.0860 C   0  0  0  0  0  0  0  0  0  0  0  0
   -0.5552   -0.8189   14.1920 C   0  0  0  0  0  0  0  0  0  0  0  0
   -1.9445   -1.0884   14.0613 C   0  0  0  0  0  0  0  0  0  0  0  0
   -2.7533   -0.3562   13.2050 O   0  0  0  0  0  0  0  0  0  0  0  0
   -2.2327    0.6448   12.3521 C   0  0  0  0  0  0  0  0  0  0  0  0
   -5.3466   -3.2530   13.5754 H   0  0  0  0  0  0  0  0  0  0  0  0
   -3.9668   -2.5544   12.6618 H   0  0  0  0  0  0  0  0  0  0  0  0
   -3.7533   -4.0823   13.5820 H   0  0  0  0  0  0  0  0  0  0  0  0
   -2.3288   -2.8270   14.0056 H   0  0  0  0  0  0  0  0  0  0  0  0
   -2.1981   -3.6662   16.2542 H   0  0  0  0  0  0  0  0  0  0  0  0
    0.2026   -3.2097   16.4887 H   0  0  0  0  0  0  0  0  0  0  0  0
    5.1536    1.9344   13.2517 H   0  0  0  0  0  0  0  0  0  0  0  0
    6.8406    0.8706   15.3032 H   0  0  0  0  0  0  0  0  0  0  0  0
    6.2508   -0.7585   17.3488 H   0  0  0  0  0  0  0  0  0  0  0  0
    0.6638    1.7395   12.0760 H   0  0  0  0  0  0  0  0  0  0  0  0
    1.1607    3.1287   13.1007 H   0  0  0  0  0  0  0  0  0  0  0  0
   -0.1953    3.8664   11.1865 H   0  0  0  0  0  0  0  0  0  0  0  0
    2.7959    5.4592    7.6020 H   0  0  0  0  0  0  0  0  0  0  0  0
    4.5378    2.1788   11.0381 H   0  0  0  0  0  0  0  0  0  0  0  0
   -0.0967   -0.0331   13.6101 H   0  0  0  0  0  0  0  0  0  0  0  0
   -3.0507    1.0906   11.7671 H   0  0  0  0  0  0  0  0  0  0  0  0
   -1.7468    1.4250   12.9565 H   0  0  0  0  0  0  0  0  0  0  0  0
   -1.4953    0.1975   11.6693 H   0  0  0  0  0  0  0  0  0  0  0  0
  1  2  1  0  0  0  0
  2  3  1  0  0  0  0
  3  4  1  0  0  0  0
  3 27  1  0  0  0  0
  4  5  2  0  0  0  0
  5  6  1  0  0  0  0
  6  7  2  0  0  0  0
  6 26  1  0  0  0  0
  7  8  1  0  0  0  0
  8  9  2  0  0  0  0
  8 16  1  0  0  0  0
  9 10  1  0  0  0  0
 10 11  2  0  0  0  0
 10 17  1  0  0  0  0
 11 12  1  0  0  0  0
 12 13  1  0  0  0  0
 12 16  1  0  0  0  0
 13 14  2  0  0  0  0
 14 15  1  0  0  0  0
 15 16  2  0  0  0  0
 17 18  1  0  0  0  0
 17 25  2  0  0  0  0
 18 19  1  0  0  0  0
 19 20  2  0  0  0  0
 20 21  1  0  0  0  0
 20 24  1  0  0  0  0
 21 22  2  0  0  0  0
 22 23  1  0  0  0  0
 23 24  2  0  0  0  0
 24 25  1  0  0  0  0
 26 27  2  0  0  0  0
 27 28  1  0  0  0  0
 28 29  1  0  0  0  0
  1 30  1  0  0  0  0
  1 31  1  0  0  0  0
  1 32  1  0  0  0  0
  3 33  1  0  0  0  0
  4 34  1  0  0  0  0
  5 35  1  0  0  0  0
 11 36  1  0  0  0  0
 13 37  1  0  0  0  0
 14 38  1  0  0  0  0
 18 39  1  0  0  0  0
 18 40  1  0  0  0  0
 19 41  1  0  0  0  0
 22 42  1  0  0  0  0
 25 43  1  0  0  0  0
 26 44  1  0  0  0  0
 29 45  1  0  0  0  0
 29 46  1  0  0  0  0
 29 47  1  0  0  0  0
M  END
> <IC50[nM]>
6.3

$$$$
CHEMBL3265018
  -OEChem-05192314333D
 Structure written by MMmdl.
 47 51  0     0  0  0  0  0  0999 V2000
   -4.2567   -3.1043   13.5693 C   0  0  0  0  0  0  0  0  0  0  0  0
   -3.8736   -2.3603   14.7157 O   0  0  0  0  0  0  0  0  0  0  0  0
   -2.5257   -2.1109   14.8170 C   0  0  0  0  0  0  0  0  0  0  0  0
   -1.7457   -2.8699   15.6819 C   0  0  0  0  0  0  0  0  0  0  0  0
   -0.3904   -2.6103   15.8138 C   0  0  0  0  0  0  0  0  0  0  0  0
    0.2205   -1.5845   15.0866 C   0  0  0  0  0  0  0  0  0  0  0  0
    1.6039   -1.3601   15.3216 N   0  0  0  0  0  0  0  0  0  0  0  0
    2.5369   -0.4474   14.7595 C   0  0  0  0  0  0  0  0  0  0  0  0
    2.1817    0.3719   13.7240 N   0  0  0  0  0  0  0  0  0  0  0  0
    3.1138    1.2387   13.2179 C   0  0  0  0  0  0  0  0  0  0  0  0
    4.4187    1.2840   13.7027 C   0  0  0  0  0  0  0  0  0  0  0  0
    4.7466    0.4880   14.7600 N   0  0  0  0  0  0  0  0  0  0  0  0
    5.8977    0.3770   15.4865 C   0  0  0  0  0  0  0  0  0  0  0  0
    5.5876   -0.5233   16.5295 C   0  0  0  0  0  0  0  0  0  0  0  0
    4.3760   -1.0434   16.3734 N   0  0  0  0  0  0  0  0  0  0  0  0
    3.8370   -0.3940   15.3257 C   0  0  0  0  0  0  0  0  0  0  0  0
    2.6359    2.1614   12.1223 C   0  0  0  0  0  0  0  0  0  0  0  0
    1.3054    2.6314   12.1303 C   0  0  0  0  0  0  0  0  0  0  0  0
    0.8262    3.5165   11.1628 C   0  0  0  0  0  0  0  0  0  0  0  0
    1.7006    3.9330   10.1707 C   0  0  0  0  0  0  0  0  0  0  0  0
    1.4948    4.8131    9.1162 N   0  0  0  0  0  0  0  0  0  0  0  0
    2.6280    4.8521    8.4793 C   0  0  0  0  0  0  0  0  0  0  0  0
    3.5731    4.0579    9.0246 N   0  0  0  0  0  0  0  0  0  0  0  0
    3.0312    3.4473   10.1317 C   0  0  0  0  0  0  0  0  0  0  0  0
    3.5261    2.5537   11.0860 C   0  0  0  0  0  0  0  0  0  0  0  0
   -0.5552   -0.8189   14.1920 C   0  0  0  0  0  0  0  0  0  0  0  0
   -1.9445   -1.0884   14.0613 C   0  0  0  0  0  0  0  0  0  0  0  0
   -2.7533   -0.3562   13.2050 O   0  0  0  0  0  0  0  0  0  0  0  0
   -2.2327    0.6448   12.3521 C   0  0  0  0  0  0  0  0  0  0  0  0
   -5.3466   -3.2530   13.5754 H   0  0  0  0  0  0  0  0  0  0  0  0
   -3.9668   -2.5544   12.6618 H   0  0  0  0  0  0  0  0  0  0  0  0
   -3.7533   -4.0823   13.5820 H   0  0  0  0  0  0  0  0  0  0  0  0
   -2.1981   -3.6662   16.2542 H   0  0  0  0  0  0  0  0  0  0  0  0
   -0.2169   -2.3863   16.8767 H   0  0  0  0  0  0  0  0  0  0  0  0
    0.1336   -3.5393   15.5446 H   0  0  0  0  0  0  0  0  0  0  0  0
    5.1536    1.9344   13.2517 H   0  0  0  0  0  0  0  0  0  0  0  0
    6.8406    0.8706   15.3032 H   0  0  0  0  0  0  0  0  0  0  0  0
    6.2508   -0.7585   17.3488 H   0  0  0  0  0  0  0  0  0  0  0  0
    0.6638    1.7395   12.0760 H   0  0  0  0  0  0  0  0  0  0  0  0
    1.1607    3.1287   13.1007 H   0  0  0  0  0  0  0  0  0  0  0  0
   -0.1953    3.8664   11.1865 H   0  0  0  0  0  0  0  0  0  0  0  0
    2.7959    5.4592    7.6020 H   0  0  0  0  0  0  0  0  0  0  0  0
    4.5378    2.1788   11.0381 H   0  0  0  0  0  0  0  0  0  0  0  0
   -0.0967   -0.0331   13.6101 H   0  0  0  0  0  0  0  0  0  0  0  0
   -3.0507    1.0906   11.7671 H   0  0  0  0  0  0  0  0  0  0  0  0
   -1.7468    1.4250   12.9565 H   0  0  0  0  0  0  0  0  0  0  0  0
   -1.4953    0.1975   11.6693 H   0  0  0  0  0  0  0  0  0  0  0  0
  1  2  1  0  0  0  0
  2  3  1  0  0  0  0
  3  4  2  0  0  0  0
  3 27  1  0  0  0  0
  4  5  1  0  0  0  0
  5  6  1  0  0  0  0
  6  7  2  0  0  0  0
  6 26  1  0  0  0  0
  7  8  1  0  0  0  0
  8  9  2  0  0  0  0
  8 16  1  0  0  0  0
  9 10  1  0  0  0  0
 10 11  2  0  0  0  0
 10 17  1  0  0  0  0
 11 12  1  0  0  0  0
 12 13  1  0  0  0  0
 12 16  1  0  0  0  0
 13 14  2  0  0  0  0
 14 15  1  0  0  0  0
 15 16  2  0  0  0  0
 17 18  1  0  0  0  0
 17 25  2  0  0  0  0
 18 19  1  0  0  0  0
 19 20  2  0  0  0  0
 20 21  1  0  0  0  0
 20 24  1  0  0  0  0
 21 22  2  0  0  0  0
 22 23  1  0  0  0  0
 23 24  2  0  0  0  0
 24 25  1  0  0  0  0
 26 27  2  0  0  0  0
 27 28  1  0  0  0  0
 28 29  1  0  0  0  0
  1 30  1  0  0  0  0
  1 31  1  0  0  0  0
  1 32  1  0  0  0  0
  4 33  1  0  0  0  0
  5 34  1  0  0  0  0
  5 35  1  0  0  0  0
 11 36  1  0  0  0  0
 13 37  1  0  0  0  0
 14 38  1  0  0  0  0
 18 39  1  0  0  0  0
 18 40  1  0  0  0  0
 19 41  1  0  0  0  0
 22 42  1  0  0  0  0
 25 43  1  0  0  0  0
 26 44  1  0  0  0  0
 29 45  1  0  0  0  0
 29 46  1  0  0  0  0
 29 47  1  0  0  0  0
M  END
> <IC50[nM]>
6.3

$$$$
CHEMBL3265018
  -OEChem-05192314333D
 Structure written by MMmdl.
 47 51  0     1  0  0  0  0  0999 V2000
   -4.2567   -3.1043   13.5693 C   0  0  0  0  0  0  0  0  0  0  0  0
   -3.8736   -2.3603   14.7157 O   0  0  0  0  0  0  0  0  0  0  0  0
   -2.5257   -2.1109   14.8170 C   0  0  0  0  0  0  0  0  0  0  0  0
   -1.7457   -2.8699   15.6819 C   0  0  0  0  0  0  0  0  0  0  0  0
   -0.3904   -2.6103   15.8138 C   0  0  0  0  0  0  0  0  0  0  0  0
    0.2205   -1.5845   15.0866 C   0  0  0  0  0  0  0  0  0  0  0  0
    1.6039   -1.3601   15.3216 N   0  0  0  0  0  0  0  0  0  0  0  0
    2.5369   -0.4474   14.7595 C   0  0  0  0  0  0  0  0  0  0  0  0
    2.1817    0.3719   13.7240 N   0  0  0  0  0  0  0  0  0  0  0  0
    3.1138    1.2387   13.2179 C   0  0  0  0  0  0  0  0  0  0  0  0
    4.4187    1.2840   13.7027 C   0  0  0  0  0  0  0  0  0  0  0  0
    4.7466    0.4880   14.7600 N   0  0  0  0  0  0  0  0  0  0  0  0
    5.8977    0.3770   15.4865 C   0  0  0  0  0  0  0  0  0  0  0  0
    5.5876   -0.5233   16.5295 C   0  0  0  0  0  0  0  0  0  0  0  0
    4.3760   -1.0434   16.3734 N   0  0  0  0  0  0  0  0  0  0  0  0
    3.8370   -0.3940   15.3257 C   0  0  0  0  0  0  0  0  0  0  0  0
    2.6359    2.1614   12.1223 C   0  0  3  0  0  0  0  0  0  0  0  0
    1.3054    2.6314   12.1303 C   0  0  0  0  0  0  0  0  0  0  0  0
    0.8262    3.5165   11.1628 C   0  0  0  0  0  0  0  0  0  0  0  0
    1.7006    3.9330   10.1707 C   0  0  0  0  0  0  0  0  0  0  0  0
    1.4948    4.8131    9.1162 N   0  0  0  0  0  0  0  0  0  0  0  0
    2.6280    4.8521    8.4793 C   0  0  0  0  0  0  0  0  0  0  0  0
    3.5731    4.0579    9.0246 N   0  0  0  0  0  0  0  0  0  0  0  0
    3.0312    3.4473   10.1317 C   0  0  0  0  0  0  0  0  0  0  0  0
    3.5261    2.5537   11.0860 C   0  0  0  0  0  0  0  0  0  0  0  0
   -0.5552   -0.8189   14.1920 C   0  0  0  0  0  0  0  0  0  0  0  0
   -1.9445   -1.0884   14.0613 C   0  0  0  0  0  0  0  0  0  0  0  0
   -2.7533   -0.3562   13.2050 O   0  0  0  0  0  0  0  0  0  0  0  0
   -2.2327    0.6448   12.3521 C   0  0  0  0  0  0  0  0  0  0  0  0
   -5.3466   -3.2530   13.5754 H   0  0  0  0  0  0  0  0  0  0  0  0
   -3.9668   -2.5544   12.6618 H   0  0  0  0  0  0  0  0  0  0  0  0
   -3.7533   -4.0823   13.5820 H   0  0  0  0  0  0  0  0  0  0  0  0
   -2.1981   -3.6662   16.2542 H   0  0  0  0  0  0  0  0  0  0  0  0
    0.2026   -3.2097   16.4887 H   0  0  0  0  0  0  0  0  0  0  0  0
    5.1536    1.9344   13.2517 H   0  0  0  0  0  0  0  0  0  0  0  0
    6.8406    0.8706   15.3032 H   0  0  0  0  0  0  0  0  0  0  0  0
    6.2508   -0.7585   17.3488 H   0  0  0  0  0  0  0  0  0  0  0  0
    2.9470    3.0315   12.7191 H   0  0  0  0  0  0  0  0  0  0  0  0
    0.6368    2.2959   12.9093 H   0  0  0  0  0  0  0  0  0  0  0  0
   -0.1953    3.8664   11.1865 H   0  0  0  0  0  0  0  0  0  0  0  0
    2.7959    5.4592    7.6020 H   0  0  0  0  0  0  0  0  0  0  0  0
    4.5378    2.1788   11.0381 H   0  0  0  0  0  0  0  0  0  0  0  0
   -0.4614    0.2313   14.5055 H   0  0  0  0  0  0  0  0  0  0  0  0
   -0.1098   -0.9449   13.1941 H   0  0  0  0  0  0  0  0  0  0  0  0
   -3.0507    1.0906   11.7671 H   0  0  0  0  0  0  0  0  0  0  0  0
   -1.7468    1.4250   12.9565 H   0  0  0  0  0  0  0  0  0  0  0  0
   -1.4953    0.1975   11.6693 H   0  0  0  0  0  0  0  0  0  0  0  0
  1  2  1  0  0  0  0
  2  3  1  0  0  0  0
  3  4  1  0  0  0  0
  3 27  2  0  0  0  0
  4  5  2  0  0  0  0
  5  6  1  0  0  0  0
  6  7  2  0  0  0  0
  6 26  1  0  0  0  0
  7  8  1  0  0  0  0
  8  9  2  0  0  0  0
  8 16  1  0  0  0  0
  9 10  1  0  0  0  0
 10 11  2  0  0  0  0
 10 17  1  0  0  0  0
 11 12  1  0  0  0  0
 12 13  1  0  0  0  0
 12 16  1  0  0  0  0
 13 14  2  0  0  0  0
 14 15  1  0  0  0  0
 15 16  2  0  0  0  0
 17 18  1  0  0  0  0
 17 25  1  0  0  0  0
 18 19  2  0  0  0  0
 19 20  1  0  0  0  0
 20 21  2  0  0  0  0
 20 24  1  0  0  0  0
 21 22  1  0  0  0  0
 22 23  2  0  0  0  0
 23 24  1  0  0  0  0
 24 25  2  0  0  0  0
 26 27  1  0  0  0  0
 27 28  1  0  0  0  0
 28 29  1  0  0  0  0
  1 30  1  0  0  0  0
  1 31  1  0  0  0  0
  1 32  1  0  0  0  0
  4 33  1  0  0  0  0
  5 34  1  0  0  0  0
 11 35  1  0  0  0  0
 13 36  1  0  0  0  0
 14 37  1  0  0  0  0
 17 38  1  0  0  0  0
 18 39  1  0  0  0  0
 19 40  1  0  0  0  0
 22 41  1  0  0  0  0
 25 42  1  0  0  0  0
 26 43  1  0  0  0  0
 26 44  1  0  0  0  0
 29 45  1  0  0  0  0
 29 46  1  0  0  0  0
 29 47  1  0  0  0  0
M  END
> <IC50[nM]>
6.3

$$$$
CHEMBL3265018
  -OEChem-05192314333D
 Structure written by MMmdl.
 47 51  0     1  0  0  0  0  0999 V2000
   -4.2567   -3.1043   13.5693 C   0  0  0  0  0  0  0  0  0  0  0  0
   -3.8736   -2.3603   14.7157 O   0  0  0  0  0  0  0  0  0  0  0  0
   -2.5257   -2.1109   14.8170 C   0  0  0  0  0  0  0  0  0  0  0  0
   -1.7457   -2.8699   15.6819 C   0  0  0  0  0  0  0  0  0  0  0  0
   -0.3904   -2.6103   15.8138 C   0  0  0  0  0  0  0  0  0  0  0  0
    0.2205   -1.5845   15.0866 C   0  0  0  0  0  0  0  0  0  0  0  0
    1.6039   -1.3601   15.3216 N   0  0  0  0  0  0  0  0  0  0  0  0
    2.5369   -0.4474   14.7595 C   0  0  0  0  0  0  0  0  0  0  0  0
    2.1817    0.3719   13.7240 N   0  0  0  0  0  0  0  0  0  0  0  0
    3.1138    1.2387   13.2179 C   0  0  0  0  0  0  0  0  0  0  0  0
    4.4187    1.2840   13.7027 C   0  0  0  0  0  0  0  0  0  0  0  0
    4.7466    0.4880   14.7600 N   0  0  0  0  0  0  0  0  0  0  0  0
    5.8977    0.3770   15.4865 C   0  0  0  0  0  0  0  0  0  0  0  0
    5.5876   -0.5233   16.5295 C   0  0  0  0  0  0  0  0  0  0  0  0
    4.3760   -1.0434   16.3734 N   0  0  0  0  0  0  0  0  0  0  0  0
    3.8370   -0.3940   15.3257 C   0  0  0  0  0  0  0  0  0  0  0  0
    2.6359    2.1614   12.1223 C   0  0  0  0  0  0  0  0  0  0  0  0
    1.3054    2.6314   12.1303 C   0  0  0  0  0  0  0  0  0  0  0  0
    0.8262    3.5165   11.1628 C   0  0  0  0  0  0  0  0  0  0  0  0
    1.7006    3.9330   10.1707 C   0  0  0  0  0  0  0  0  0  0  0  0
    1.4948    4.8131    9.1162 N   0  0  0  0  0  0  0  0  0  0  0  0
    2.6280    4.8521    8.4793 C   0  0  0  0  0  0  0  0  0  0  0  0
    3.5731    4.0579    9.0246 N   0  0  0  0  0  0  0  0  0  0  0  0
    3.0312    3.4473   10.1317 C   0  0  3  0  0  0  0  0  0  0  0  0
    3.5261    2.5537   11.0860 C   0  0  0  0  0  0  0  0  0  0  0  0
   -0.5552   -0.8189   14.1920 C   0  0  0  0  0  0  0  0  0  0  0  0
   -1.9445   -1.0884   14.0613 C   0  0  0  0  0  0  0  0  0  0  0  0
   -2.7533   -0.3562   13.2050 O   0  0  0  0  0  0  0  0  0  0  0  0
   -2.2327    0.6448   12.3521 C   0  0  0  0  0  0  0  0  0  0  0  0
   -5.3466   -3.2530   13.5754 H   0  0  0  0  0  0  0  0  0  0  0  0
   -3.9668   -2.5544   12.6618 H   0  0  0  0  0  0  0  0  0  0  0  0
   -3.7533   -4.0823   13.5820 H   0  0  0  0  0  0  0  0  0  0  0  0
   -2.1981   -3.6662   16.2542 H   0  0  0  0  0  0  0  0  0  0  0  0
    0.2026   -3.2097   16.4887 H   0  0  0  0  0  0  0  0  0  0  0  0
    5.1536    1.9344   13.2517 H   0  0  0  0  0  0  0  0  0  0  0  0
    6.8406    0.8706   15.3032 H   0  0  0  0  0  0  0  0  0  0  0  0
    6.2508   -0.7585   17.3488 H   0  0  0  0  0  0  0  0  0  0  0  0
    0.6368    2.2959   12.9093 H   0  0  0  0  0  0  0  0  0  0  0  0
   -0.1953    3.8664   11.1865 H   0  0  0  0  0  0  0  0  0  0  0  0
    2.7959    5.4592    7.6020 H   0  0  0  0  0  0  0  0  0  0  0  0
    2.7055    2.6021    9.5075 H   0  0  0  0  0  0  0  0  0  0  0  0
    4.5378    2.1788   11.0381 H   0  0  0  0  0  0  0  0  0  0  0  0
   -0.4614    0.2313   14.5055 H   0  0  0  0  0  0  0  0  0  0  0  0
   -0.1098   -0.9449   13.1941 H   0  0  0  0  0  0  0  0  0  0  0  0
   -3.0507    1.0906   11.7671 H   0  0  0  0  0  0  0  0  0  0  0  0
   -1.7468    1.4250   12.9565 H   0  0  0  0  0  0  0  0  0  0  0  0
   -1.4953    0.1975   11.6693 H   0  0  0  0  0  0  0  0  0  0  0  0
  1  2  1  0  0  0  0
  2  3  1  0  0  0  0
  3  4  1  0  0  0  0
  3 27  2  0  0  0  0
  4  5  2  0  0  0  0
  5  6  1  0  0  0  0
  6  7  2  0  0  0  0
  6 26  1  0  0  0  0
  7  8  1  0  0  0  0
  8  9  2  0  0  0  0
  8 16  1  0  0  0  0
  9 10  1  0  0  0  0
 10 11  2  0  0  0  0
 10 17  1  0  0  0  0
 11 12  1  0  0  0  0
 12 13  1  0  0  0  0
 12 16  1  0  0  0  0
 13 14  2  0  0  0  0
 14 15  1  0  0  0  0
 15 16  2  0  0  0  0
 17 18  1  0  0  0  0
 17 25  2  0  0  0  0
 18 19  2  0  0  0  0
 19 20  1  0  0  0  0
 20 21  2  0  0  0  0
 20 24  1  0  0  0  0
 21 22  1  0  0  0  0
 22 23  2  0  0  0  0
 23 24  1  0  0  0  0
 24 25  1  0  0  0  0
 26 27  1  0  0  0  0
 27 28  1  0  0  0  0
 28 29  1  0  0  0  0
  1 30  1  0  0  0  0
  1 31  1  0  0  0  0
  1 32  1  0  0  0  0
  4 33  1  0  0  0  0
  5 34  1  0  0  0  0
 11 35  1  0  0  0  0
 13 36  1  0  0  0  0
 14 37  1  0  0  0  0
 18 38  1  0  0  0  0
 19 39  1  0  0  0  0
 22 40  1  0  0  0  0
 24 41  1  0  0  0  0
 25 42  1  0  0  0  0
 26 43  1  0  0  0  0
 26 44  1  0  0  0  0
 29 45  1  0  0  0  0
 29 46  1  0  0  0  0
 29 47  1  0  0  0  0
M  END
> <IC50[nM]>
6.3

$$$$
CHEMBL3265018
  -OEChem-05192314333D
 Structure written by MMmdl.
 47 51  0     1  0  0  0  0  0999 V2000
   -4.2567   -3.1043   13.5693 C   0  0  0  0  0  0  0  0  0  0  0  0
   -3.8736   -2.3603   14.7157 O   0  0  0  0  0  0  0  0  0  0  0  0
   -2.5257   -2.1109   14.8170 C   0  0  0  0  0  0  0  0  0  0  0  0
   -1.7457   -2.8699   15.6819 C   0  0  0  0  0  0  0  0  0  0  0  0
   -0.3904   -2.6103   15.8138 C   0  0  0  0  0  0  0  0  0  0  0  0
    0.2205   -1.5845   15.0866 C   0  0  0  0  0  0  0  0  0  0  0  0
    1.6039   -1.3601   15.3216 N   0  0  0  0  0  0  0  0  0  0  0  0
    2.5369   -0.4474   14.7595 C   0  0  0  0  0  0  0  0  0  0  0  0
    2.1817    0.3719   13.7240 N   0  0  0  0  0  0  0  0  0  0  0  0
    3.1138    1.2387   13.2179 C   0  0  0  0  0  0  0  0  0  0  0  0
    4.4187    1.2840   13.7027 C   0  0  0  0  0  0  0  0  0  0  0  0
    4.7466    0.4880   14.7600 N   0  0  0  0  0  0  0  0  0  0  0  0
    5.8977    0.3770   15.4865 C   0  0  0  0  0  0  0  0  0  0  0  0
    5.5876   -0.5233   16.5295 C   0  0  0  0  0  0  0  0  0  0  0  0
    4.3760   -1.0434   16.3734 N   0  0  0  0  0  0  0  0  0  0  0  0
    3.8370   -0.3940   15.3257 C   0  0  0  0  0  0  0  0  0  0  0  0
    2.6359    2.1614   12.1223 C   0  0  0  0  0  0  0  0  0  0  0  0
    1.3054    2.6314   12.1303 C   0  0  0  0  0  0  0  0  0  0  0  0
    0.8262    3.5165   11.1628 C   0  0  0  0  0  0  0  0  0  0  0  0
    1.7006    3.9330   10.1707 C   0  0  3  0  0  0  0  0  0  0  0  0
    1.4948    4.8131    9.1162 N   0  0  0  0  0  0  0  0  0  0  0  0
    2.6280    4.8521    8.4793 C   0  0  0  0  0  0  0  0  0  0  0  0
    3.5731    4.0579    9.0246 N   0  0  0  0  0  0  0  0  0  0  0  0
    3.0312    3.4473   10.1317 C   0  0  0  0  0  0  0  0  0  0  0  0
    3.5261    2.5537   11.0860 C   0  0  0  0  0  0  0  0  0  0  0  0
   -0.5552   -0.8189   14.1920 C   0  0  0  0  0  0  0  0  0  0  0  0
   -1.9445   -1.0884   14.0613 C   0  0  0  0  0  0  0  0  0  0  0  0
   -2.7533   -0.3562   13.2050 O   0  0  0  0  0  0  0  0  0  0  0  0
   -2.2327    0.6448   12.3521 C   0  0  0  0  0  0  0  0  0  0  0  0
   -5.3466   -3.2530   13.5754 H   0  0  0  0  0  0  0  0  0  0  0  0
   -3.9668   -2.5544   12.6618 H   0  0  0  0  0  0  0  0  0  0  0  0
   -3.7533   -4.0823   13.5820 H   0  0  0  0  0  0  0  0  0  0  0  0
   -2.1981   -3.6662   16.2542 H   0  0  0  0  0  0  0  0  0  0  0  0
    0.2026   -3.2097   16.4887 H   0  0  0  0  0  0  0  0  0  0  0  0
    5.1536    1.9344   13.2517 H   0  0  0  0  0  0  0  0  0  0  0  0
    6.8406    0.8706   15.3032 H   0  0  0  0  0  0  0  0  0  0  0  0
    6.2508   -0.7585   17.3488 H   0  0  0  0  0  0  0  0  0  0  0  0
    0.6368    2.2959   12.9093 H   0  0  0  0  0  0  0  0  0  0  0  0
   -0.1953    3.8664   11.1865 H   0  0  0  0  0  0  0  0  0  0  0  0
    2.0243    4.7701   10.8068 H   0  0  0  0  0  0  0  0  0  0  0  0
    2.7959    5.4592    7.6020 H   0  0  0  0  0  0  0  0  0  0  0  0
    4.5378    2.1788   11.0381 H   0  0  0  0  0  0  0  0  0  0  0  0
   -0.4614    0.2313   14.5055 H   0  0  0  0  0  0  0  0  0  0  0  0
   -0.1098   -0.9449   13.1941 H   0  0  0  0  0  0  0  0  0  0  0  0
   -3.0507    1.0906   11.7671 H   0  0  0  0  0  0  0  0  0  0  0  0
   -1.7468    1.4250   12.9565 H   0  0  0  0  0  0  0  0  0  0  0  0
   -1.4953    0.1975   11.6693 H   0  0  0  0  0  0  0  0  0  0  0  0
  1  2  1  0  0  0  0
  2  3  1  0  0  0  0
  3  4  1  0  0  0  0
  3 27  2  0  0  0  0
  4  5  2  0  0  0  0
  5  6  1  0  0  0  0
  6  7  2  0  0  0  0
  6 26  1  0  0  0  0
  7  8  1  0  0  0  0
  8  9  2  0  0  0  0
  8 16  1  0  0  0  0
  9 10  1  0  0  0  0
 10 11  2  0  0  0  0
 10 17  1  0  0  0  0
 11 12  1  0  0  0  0
 12 13  1  0  0  0  0
 12 16  1  0  0  0  0
 13 14  2  0  0  0  0
 14 15  1  0  0  0  0
 15 16  2  0  0  0  0
 17 18  1  0  0  0  0
 17 25  2  0  0  0  0
 18 19  2  0  0  0  0
 19 20  1  0  0  0  0
 20 21  1  0  0  0  0
 20 24  1  0  0  0  0
 21 22  2  0  0  0  0
 22 23  1  0  0  0  0
 23 24  2  0  0  0  0
 24 25  1  0  0  0  0
 26 27  1  0  0  0  0
 27 28  1  0  0  0  0
 28 29  1  0  0  0  0
  1 30  1  0  0  0  0
  1 31  1  0  0  0  0
  1 32  1  0  0  0  0
  4 33  1  0  0  0  0
  5 34  1  0  0  0  0
 11 35  1  0  0  0  0
 13 36  1  0  0  0  0
 14 37  1  0  0  0  0
 18 38  1  0  0  0  0
 19 39  1  0  0  0  0
 20 40  1  0  0  0  0
 22 41  1  0  0  0  0
 25 42  1  0  0  0  0
 26 43  1  0  0  0  0
 26 44  1  0  0  0  0
 29 45  1  0  0  0  0
 29 46  1  0  0  0  0
 29 47  1  0  0  0  0
M  END
> <IC50[nM]>
6.3

$$$$
CHEMBL3265018
  -OEChem-05192314333D
 Structure written by MMmdl.
 47 51  0     0  0  0  0  0  0999 V2000
   -4.2567   -3.1043   13.5693 C   0  0  0  0  0  0  0  0  0  0  0  0
   -3.8736   -2.3603   14.7157 O   0  0  0  0  0  0  0  0  0  0  0  0
   -2.5257   -2.1109   14.8170 C   0  0  0  0  0  0  0  0  0  0  0  0
   -1.7457   -2.8699   15.6819 C   0  0  0  0  0  0  0  0  0  0  0  0
   -0.3904   -2.6103   15.8138 C   0  0  0  0  0  0  0  0  0  0  0  0
    0.2205   -1.5845   15.0866 C   0  0  0  0  0  0  0  0  0  0  0  0
    1.6039   -1.3601   15.3216 N   0  0  0  0  0  0  0  0  0  0  0  0
    2.5369   -0.4474   14.7595 C   0  0  0  0  0  0  0  0  0  0  0  0
    2.1817    0.3719   13.7240 N   0  0  0  0  0  0  0  0  0  0  0  0
    3.1138    1.2387   13.2179 C   0  0  0  0  0  0  0  0  0  0  0  0
    4.4187    1.2840   13.7027 C   0  0  0  0  0  0  0  0  0  0  0  0
    4.7466    0.4880   14.7600 N   0  0  0  0  0  0  0  0  0  0  0  0
    5.8977    0.3770   15.4865 C   0  0  0  0  0  0  0  0  0  0  0  0
    5.5876   -0.5233   16.5295 C   0  0  0  0  0  0  0  0  0  0  0  0
    4.3760   -1.0434   16.3734 N   0  0  0  0  0  0  0  0  0  0  0  0
    3.8370   -0.3940   15.3257 C   0  0  0  0  0  0  0  0  0  0  0  0
    2.6359    2.1614   12.1223 C   0  0  0  0  0  0  0  0  0  0  0  0
    1.3054    2.6314   12.1303 C   0  0  0  0  0  0  0  0  0  0  0  0
    0.8262    3.5165   11.1628 C   0  0  0  0  0  0  0  0  0  0  0  0
    1.7006    3.9330   10.1707 C   0  0  0  0  0  0  0  0  0  0  0  0
    1.4948    4.8131    9.1162 N   0  0  0  0  0  0  0  0  0  0  0  0
    2.6280    4.8521    8.4793 C   0  0  0  0  0  0  0  0  0  0  0  0
    3.5731    4.0579    9.0246 N   0  0  0  0  0  0  0  0  0  0  0  0
    3.0312    3.4473   10.1317 C   0  0  0  0  0  0  0  0  0  0  0  0
    3.5261    2.5537   11.0860 C   0  0  0  0  0  0  0  0  0  0  0  0
   -0.5552   -0.8189   14.1920 C   0  0  0  0  0  0  0  0  0  0  0  0
   -1.9445   -1.0884   14.0613 C   0  0  0  0  0  0  0  0  0  0  0  0
   -2.7533   -0.3562   13.2050 O   0  0  0  0  0  0  0  0  0  0  0  0
   -2.2327    0.6448   12.3521 C   0  0  0  0  0  0  0  0  0  0  0  0
   -5.3466   -3.2530   13.5754 H   0  0  0  0  0  0  0  0  0  0  0  0
   -3.9668   -2.5544   12.6618 H   0  0  0  0  0  0  0  0  0  0  0  0
   -3.7533   -4.0823   13.5820 H   0  0  0  0  0  0  0  0  0  0  0  0
   -2.1981   -3.6662   16.2542 H   0  0  0  0  0  0  0  0  0  0  0  0
    0.2026   -3.2097   16.4887 H   0  0  0  0  0  0  0  0  0  0  0  0
    5.1536    1.9344   13.2517 H   0  0  0  0  0  0  0  0  0  0  0  0
    6.8406    0.8706   15.3032 H   0  0  0  0  0  0  0  0  0  0  0  0
    6.2508   -0.7585   17.3488 H   0  0  0  0  0  0  0  0  0  0  0  0
    0.6368    2.2959   12.9093 H   0  0  0  0  0  0  0  0  0  0  0  0
   -0.0242    3.0277   10.6650 H   0  0  0  0  0  0  0  0  0  0  0  0
    0.4753    4.4168   11.6884 H   0  0  0  0  0  0  0  0  0  0  0  0
    2.7959    5.4592    7.6020 H   0  0  0  0  0  0  0  0  0  0  0  0
    4.5378    2.1788   11.0381 H   0  0  0  0  0  0  0  0  0  0  0  0
   -0.4614    0.2313   14.5055 H   0  0  0  0  0  0  0  0  0  0  0  0
   -0.1098   -0.9449   13.1941 H   0  0  0  0  0  0  0  0  0  0  0  0
   -3.0507    1.0906   11.7671 H   0  0  0  0  0  0  0  0  0  0  0  0
   -1.7468    1.4250   12.9565 H   0  0  0  0  0  0  0  0  0  0  0  0
   -1.4953    0.1975   11.6693 H   0  0  0  0  0  0  0  0  0  0  0  0
  1  2  1  0  0  0  0
  2  3  1  0  0  0  0
  3  4  1  0  0  0  0
  3 27  2  0  0  0  0
  4  5  2  0  0  0  0
  5  6  1  0  0  0  0
  6  7  2  0  0  0  0
  6 26  1  0  0  0  0
  7  8  1  0  0  0  0
  8  9  2  0  0  0  0
  8 16  1  0  0  0  0
  9 10  1  0  0  0  0
 10 11  2  0  0  0  0
 10 17  1  0  0  0  0
 11 12  1  0  0  0  0
 12 13  1  0  0  0  0
 12 16  1  0  0  0  0
 13 14  2  0  0  0  0
 14 15  1  0  0  0  0
 15 16  2  0  0  0  0
 17 18  2  0  0  0  0
 17 25  1  0  0  0  0
 18 19  1  0  0  0  0
 19 20  1  0  0  0  0
 20 21  2  0  0  0  0
 20 24  1  0  0  0  0
 21 22  1  0  0  0  0
 22 23  2  0  0  0  0
 23 24  1  0  0  0  0
 24 25  2  0  0  0  0
 26 27  1  0  0  0  0
 27 28  1  0  0  0  0
 28 29  1  0  0  0  0
  1 30  1  0  0  0  0
  1 31  1  0  0  0  0
  1 32  1  0  0  0  0
  4 33  1  0  0  0  0
  5 34  1  0  0  0  0
 11 35  1  0  0  0  0
 13 36  1  0  0  0  0
 14 37  1  0  0  0  0
 18 38  1  0  0  0  0
 19 39  1  0  0  0  0
 19 40  1  0  0  0  0
 22 41  1  0  0  0  0
 25 42  1  0  0  0  0
 26 43  1  0  0  0  0
 26 44  1  0  0  0  0
 29 45  1  0  0  0  0
 29 46  1  0  0  0  0
 29 47  1  0  0  0  0
M  END
> <IC50[nM]>
6.3

$$$$
CHEMBL3265018
  -OEChem-05192314333D
 Structure written by MMmdl.
 47 51  0     0  0  0  0  0  0999 V2000
   -4.2567   -3.1043   13.5693 C   0  0  0  0  0  0  0  0  0  0  0  0
   -3.8736   -2.3603   14.7157 O   0  0  0  0  0  0  0  0  0  0  0  0
   -2.5257   -2.1109   14.8170 C   0  0  0  0  0  0  0  0  0  0  0  0
   -1.7457   -2.8699   15.6819 C   0  0  0  0  0  0  0  0  0  0  0  0
   -0.3904   -2.6103   15.8138 C   0  0  0  0  0  0  0  0  0  0  0  0
    0.2205   -1.5845   15.0866 C   0  0  0  0  0  0  0  0  0  0  0  0
    1.6039   -1.3601   15.3216 N   0  0  0  0  0  0  0  0  0  0  0  0
    2.5369   -0.4474   14.7595 C   0  0  0  0  0  0  0  0  0  0  0  0
    2.1817    0.3719   13.7240 N   0  0  0  0  0  0  0  0  0  0  0  0
    3.1138    1.2387   13.2179 C   0  0  0  0  0  0  0  0  0  0  0  0
    4.4187    1.2840   13.7027 C   0  0  0  0  0  0  0  0  0  0  0  0
    4.7466    0.4880   14.7600 N   0  0  0  0  0  0  0  0  0  0  0  0
    5.8977    0.3770   15.4865 C   0  0  0  0  0  0  0  0  0  0  0  0
    5.5876   -0.5233   16.5295 C   0  0  0  0  0  0  0  0  0  0  0  0
    4.3760   -1.0434   16.3734 N   0  0  0  0  0  0  0  0  0  0  0  0
    3.8370   -0.3940   15.3257 C   0  0  0  0  0  0  0  0  0  0  0  0
    2.6359    2.1614   12.1223 C   0  0  0  0  0  0  0  0  0  0  0  0
    1.3054    2.6314   12.1303 C   0  0  0  0  0  0  0  0  0  0  0  0
    0.8262    3.5165   11.1628 C   0  0  0  0  0  0  0  0  0  0  0  0
    1.7006    3.9330   10.1707 C   0  0  0  0  0  0  0  0  0  0  0  0
    1.4948    4.8131    9.1162 N   0  0  0  0  0  0  0  0  0  0  0  0
    2.6280    4.8521    8.4793 C   0  0  0  0  0  0  0  0  0  0  0  0
    3.5731    4.0579    9.0246 N   0  0  0  0  0  0  0  0  0  0  0  0
    3.0312    3.4473   10.1317 C   0  0  0  0  0  0  0  0  0  0  0  0
    3.5261    2.5537   11.0860 C   0  0  0  0  0  0  0  0  0  0  0  0
   -0.5552   -0.8189   14.1920 C   0  0  0  0  0  0  0  0  0  0  0  0
   -1.9445   -1.0884   14.0613 C   0  0  0  0  0  0  0  0  0  0  0  0
   -2.7533   -0.3562   13.2050 O   0  0  0  0  0  0  0  0  0  0  0  0
   -2.2327    0.6448   12.3521 C   0  0  0  0  0  0  0  0  0  0  0  0
   -5.3466   -3.2530   13.5754 H   0  0  0  0  0  0  0  0  0  0  0  0
   -3.9668   -2.5544   12.6618 H   0  0  0  0  0  0  0  0  0  0  0  0
   -3.7533   -4.0823   13.5820 H   0  0  0  0  0  0  0  0  0  0  0  0
   -2.1981   -3.6662   16.2542 H   0  0  0  0  0  0  0  0  0  0  0  0
    0.2026   -3.2097   16.4887 H   0  0  0  0  0  0  0  0  0  0  0  0
    5.1536    1.9344   13.2517 H   0  0  0  0  0  0  0  0  0  0  0  0
    6.8406    0.8706   15.3032 H   0  0  0  0  0  0  0  0  0  0  0  0
    6.2508   -0.7585   17.3488 H   0  0  0  0  0  0  0  0  0  0  0  0
    0.6638    1.7395   12.0760 H   0  0  0  0  0  0  0  0  0  0  0  0
    1.1607    3.1287   13.1007 H   0  0  0  0  0  0  0  0  0  0  0  0
   -0.1953    3.8664   11.1865 H   0  0  0  0  0  0  0  0  0  0  0  0
    2.7959    5.4592    7.6020 H   0  0  0  0  0  0  0  0  0  0  0  0
    4.5378    2.1788   11.0381 H   0  0  0  0  0  0  0  0  0  0  0  0
   -0.4614    0.2313   14.5055 H   0  0  0  0  0  0  0  0  0  0  0  0
   -0.1098   -0.9449   13.1941 H   0  0  0  0  0  0  0  0  0  0  0  0
   -3.0507    1.0906   11.7671 H   0  0  0  0  0  0  0  0  0  0  0  0
   -1.7468    1.4250   12.9565 H   0  0  0  0  0  0  0  0  0  0  0  0
   -1.4953    0.1975   11.6693 H   0  0  0  0  0  0  0  0  0  0  0  0
  1  2  1  0  0  0  0
  2  3  1  0  0  0  0
  3  4  1  0  0  0  0
  3 27  2  0  0  0  0
  4  5  2  0  0  0  0
  5  6  1  0  0  0  0
  6  7  2  0  0  0  0
  6 26  1  0  0  0  0
  7  8  1  0  0  0  0
  8  9  2  0  0  0  0
  8 16  1  0  0  0  0
  9 10  1  0  0  0  0
 10 11  2  0  0  0  0
 10 17  1  0  0  0  0
 11 12  1  0  0  0  0
 12 13  1  0  0  0  0
 12 16  1  0  0  0  0
 13 14  2  0  0  0  0
 14 15  1  0  0  0  0
 15 16  2  0  0  0  0
 17 18  1  0  0  0  0
 17 25  2  0  0  0  0
 18 19  1  0  0  0  0
 19 20  2  0  0  0  0
 20 21  1  0  0  0  0
 20 24  1  0  0  0  0
 21 22  2  0  0  0  0
 22 23  1  0  0  0  0
 23 24  2  0  0  0  0
 24 25  1  0  0  0  0
 26 27  1  0  0  0  0
 27 28  1  0  0  0  0
 28 29  1  0  0  0  0
  1 30  1  0  0  0  0
  1 31  1  0  0  0  0
  1 32  1  0  0  0  0
  4 33  1  0  0  0  0
  5 34  1  0  0  0  0
 11 35  1  0  0  0  0
 13 36  1  0  0  0  0
 14 37  1  0  0  0  0
 18 38  1  0  0  0  0
 18 39  1  0  0  0  0
 19 40  1  0  0  0  0
 22 41  1  0  0  0  0
 25 42  1  0  0  0  0
 26 43  1  0  0  0  0
 26 44  1  0  0  0  0
 29 45  1  0  0  0  0
 29 46  1  0  0  0  0
 29 47  1  0  0  0  0
M  END
> <IC50[nM]>
6.3

$$$$
CHEMBL3265018
  -OEChem-05192314333D
 Structure written by MMmdl.
 47 51  0     1  0  0  0  0  0999 V2000
   -4.2567   -3.1043   13.5693 C   0  0  0  0  0  0  0  0  0  0  0  0
   -3.8736   -2.3603   14.7157 O   0  0  0  0  0  0  0  0  0  0  0  0
   -2.5257   -2.1109   14.8170 C   0  0  3  0  0  0  0  0  0  0  0  0
   -1.7457   -2.8699   15.6819 C   0  0  0  0  0  0  0  0  0  0  0  0
   -0.3904   -2.6103   15.8138 C   0  0  0  0  0  0  0  0  0  0  0  0
    0.2205   -1.5845   15.0866 C   0  0  0  0  0  0  0  0  0  0  0  0
    1.6039   -1.3601   15.3216 N   0  0  0  0  0  0  0  0  0  0  0  0
    2.5369   -0.4474   14.7595 C   0  0  0  0  0  0  0  0  0  0  0  0
    2.1817    0.3719   13.7240 N   0  0  0  0  0  0  0  0  0  0  0  0
    3.1138    1.2387   13.2179 C   0  0  0  0  0  0  0  0  0  0  0  0
    4.4187    1.2840   13.7027 C   0  0  0  0  0  0  0  0  0  0  0  0
    4.7466    0.4880   14.7600 N   0  0  0  0  0  0  0  0  0  0  0  0
    5.8977    0.3770   15.4865 C   0  0  0  0  0  0  0  0  0  0  0  0
    5.5876   -0.5233   16.5295 C   0  0  0  0  0  0  0  0  0  0  0  0
    4.3760   -1.0434   16.3734 N   0  0  0  0  0  0  0  0  0  0  0  0
    3.8370   -0.3940   15.3257 C   0  0  0  0  0  0  0  0  0  0  0  0
    2.6359    2.1614   12.1223 C   0  0  0  0  0  0  0  0  0  0  0  0
    1.3054    2.6314   12.1303 C   0  0  0  0  0  0  0  0  0  0  0  0
    0.8262    3.5165   11.1628 C   0  0  0  0  0  0  0  0  0  0  0  0
    1.7006    3.9330   10.1707 C   0  0  0  0  0  0  0  0  0  0  0  0
    1.4948    4.8131    9.1162 N   0  0  0  0  0  0  0  0  0  0  0  0
    2.6280    4.8521    8.4793 C   0  0  0  0  0  0  0  0  0  0  0  0
    3.5731    4.0579    9.0246 N   0  0  0  0  0  0  0  0  0  0  0  0
    3.0312    3.4473   10.1317 C   0  0  0  0  0  0  0  0  0  0  0  0
    3.5261    2.5537   11.0860 C   0  0  0  0  0  0  0  0  0  0  0  0
   -0.5552   -0.8189   14.1920 C   0  0  0  0  0  0  0  0  0  0  0  0
   -1.9445   -1.0884   14.0613 C   0  0  0  0  0  0  0  0  0  0  0  0
   -2.7533   -0.3562   13.2050 O   0  0  0  0  0  0  0  0  0  0  0  0
   -2.2327    0.6448   12.3521 C   0  0  0  0  0  0  0  0  0  0  0  0
   -5.3466   -3.2530   13.5754 H   0  0  0  0  0  0  0  0  0  0  0  0
   -3.9668   -2.5544   12.6618 H   0  0  0  0  0  0  0  0  0  0  0  0
   -3.7533   -4.0823   13.5820 H   0  0  0  0  0  0  0  0  0  0  0  0
   -2.3288   -2.8270   14.0056 H   0  0  0  0  0  0  0  0  0  0  0  0
   -2.1981   -3.6662   16.2542 H   0  0  0  0  0  0  0  0  0  0  0  0
    0.2026   -3.2097   16.4887 H   0  0  0  0  0  0  0  0  0  0  0  0
    5.1536    1.9344   13.2517 H   0  0  0  0  0  0  0  0  0  0  0  0
    6.8406    0.8706   15.3032 H   0  0  0  0  0  0  0  0  0  0  0  0
    6.2508   -0.7585   17.3488 H   0  0  0  0  0  0  0  0  0  0  0  0
    0.6368    2.2959   12.9093 H   0  0  0  0  0  0  0  0  0  0  0  0
   -0.1953    3.8664   11.1865 H   0  0  0  0  0  0  0  0  0  0  0  0
    2.7959    5.4592    7.6020 H   0  0  0  0  0  0  0  0  0  0  0  0
    4.4007    3.0238   11.5594 H   0  0  0  0  0  0  0  0  0  0  0  0
    3.8414    1.6427   10.5562 H   0  0  0  0  0  0  0  0  0  0  0  0
   -0.0967   -0.0331   13.6101 H   0  0  0  0  0  0  0  0  0  0  0  0
   -3.0507    1.0906   11.7671 H   0  0  0  0  0  0  0  0  0  0  0  0
   -1.7468    1.4250   12.9565 H   0  0  0  0  0  0  0  0  0  0  0  0
   -1.4953    0.1975   11.6693 H   0  0  0  0  0  0  0  0  0  0  0  0
  1  2  1  0  0  0  0
  2  3  1  0  0  0  0
  3  4  1  0  0  0  0
  3 27  1  0  0  0  0
  4  5  2  0  0  0  0
  5  6  1  0  0  0  0
  6  7  2  0  0  0  0
  6 26  1  0  0  0  0
  7  8  1  0  0  0  0
  8  9  2  0  0  0  0
  8 16  1  0  0  0  0
  9 10  1  0  0  0  0
 10 11  2  0  0  0  0
 10 17  1  0  0  0  0
 11 12  1  0  0  0  0
 12 13  1  0  0  0  0
 12 16  1  0  0  0  0
 13 14  2  0  0  0  0
 14 15  1  0  0  0  0
 15 16  2  0  0  0  0
 17 18  2  0  0  0  0
 17 25  1  0  0  0  0
 18 19  1  0  0  0  0
 19 20  2  0  0  0  0
 20 21  1  0  0  0  0
 20 24  1  0  0  0  0
 21 22  2  0  0  0  0
 22 23  1  0  0  0  0
 23 24  2  0  0  0  0
 24 25  1  0  0  0  0
 26 27  2  0  0  0  0
 27 28  1  0  0  0  0
 28 29  1  0  0  0  0
  1 30  1  0  0  0  0
  1 31  1  0  0  0  0
  1 32  1  0  0  0  0
  3 33  1  0  0  0  0
  4 34  1  0  0  0  0
  5 35  1  0  0  0  0
 11 36  1  0  0  0  0
 13 37  1  0  0  0  0
 14 38  1  0  0  0  0
 18 39  1  0  0  0  0
 19 40  1  0  0  0  0
 22 41  1  0  0  0  0
 25 42  1  0  0  0  0
 25 43  1  0  0  0  0
 26 44  1  0  0  0  0
 29 45  1  0  0  0  0
 29 46  1  0  0  0  0
 29 47  1  0  0  0  0
M  END
> <IC50[nM]>
6.3

$$$$
CHEMBL3265018
  -OEChem-05192314333D
 Structure written by MMmdl.
 47 51  0     0  0  0  0  0  0999 V2000
   -4.2567   -3.1043   13.5693 C   0  0  0  0  0  0  0  0  0  0  0  0
   -3.8736   -2.3603   14.7157 O   0  0  0  0  0  0  0  0  0  0  0  0
   -2.5257   -2.1109   14.8170 C   0  0  0  0  0  0  0  0  0  0  0  0
   -1.7457   -2.8699   15.6819 C   0  0  0  0  0  0  0  0  0  0  0  0
   -0.3904   -2.6103   15.8138 C   0  0  0  0  0  0  0  0  0  0  0  0
    0.2205   -1.5845   15.0866 C   0  0  0  0  0  0  0  0  0  0  0  0
    1.6039   -1.3601   15.3216 N   0  0  0  0  0  0  0  0  0  0  0  0
    2.5369   -0.4474   14.7595 C   0  0  0  0  0  0  0  0  0  0  0  0
    2.1817    0.3719   13.7240 N   0  0  0  0  0  0  0  0  0  0  0  0
    3.1138    1.2387   13.2179 C   0  0  0  0  0  0  0  0  0  0  0  0
    4.4187    1.2840   13.7027 C   0  0  0  0  0  0  0  0  0  0  0  0
    4.7466    0.4880   14.7600 N   0  0  0  0  0  0  0  0  0  0  0  0
    5.8977    0.3770   15.4865 C   0  0  0  0  0  0  0  0  0  0  0  0
    5.5876   -0.5233   16.5295 C   0  0  0  0  0  0  0  0  0  0  0  0
    4.3760   -1.0434   16.3734 N   0  0  0  0  0  0  0  0  0  0  0  0
    3.8370   -0.3940   15.3257 C   0  0  0  0  0  0  0  0  0  0  0  0
    2.6359    2.1614   12.1223 C   0  0  0  0  0  0  0  0  0  0  0  0
    1.3054    2.6314   12.1303 C   0  0  0  0  0  0  0  0  0  0  0  0
    0.8262    3.5165   11.1628 C   0  0  0  0  0  0  0  0  0  0  0  0
    1.7006    3.9330   10.1707 C   0  0  0  0  0  0  0  0  0  0  0  0
    1.4948    4.8131    9.1162 N   0  0  0  0  0  0  0  0  0  0  0  0
    2.6280    4.8521    8.4793 C   0  0  0  0  0  0  0  0  0  0  0  0
    3.5731    4.0579    9.0246 N   0  0  0  0  0  0  0  0  0  0  0  0
    3.0312    3.4473   10.1317 C   0  0  0  0  0  0  0  0  0  0  0  0
    3.5261    2.5537   11.0860 C   0  0  0  0  0  0  0  0  0  0  0  0
   -0.5552   -0.8189   14.1920 C   0  0  0  0  0  0  0  0  0  0  0  0
   -1.9445   -1.0884   14.0613 C   0  0  0  0  0  0  0  0  0  0  0  0
   -2.7533   -0.3562   13.2050 O   0  0  0  0  0  0  0  0  0  0  0  0
   -2.2327    0.6448   12.3521 C   0  0  0  0  0  0  0  0  0  0  0  0
   -5.3466   -3.2530   13.5754 H   0  0  0  0  0  0  0  0  0  0  0  0
   -3.9668   -2.5544   12.6618 H   0  0  0  0  0  0  0  0  0  0  0  0
   -3.7533   -4.0823   13.5820 H   0  0  0  0  0  0  0  0  0  0  0  0
   -2.1981   -3.6662   16.2542 H   0  0  0  0  0  0  0  0  0  0  0  0
   -0.2169   -2.3863   16.8767 H   0  0  0  0  0  0  0  0  0  0  0  0
    0.1336   -3.5393   15.5446 H   0  0  0  0  0  0  0  0  0  0  0  0
    5.1536    1.9344   13.2517 H   0  0  0  0  0  0  0  0  0  0  0  0
    6.8406    0.8706   15.3032 H   0  0  0  0  0  0  0  0  0  0  0  0
    6.2508   -0.7585   17.3488 H   0  0  0  0  0  0  0  0  0  0  0  0
    0.6368    2.2959   12.9093 H   0  0  0  0  0  0  0  0  0  0  0  0
   -0.1953    3.8664   11.1865 H   0  0  0  0  0  0  0  0  0  0  0  0
    2.7959    5.4592    7.6020 H   0  0  0  0  0  0  0  0  0  0  0  0
    4.4007    3.0238   11.5594 H   0  0  0  0  0  0  0  0  0  0  0  0
    3.8414    1.6427   10.5562 H   0  0  0  0  0  0  0  0  0  0  0  0
   -0.0967   -0.0331   13.6101 H   0  0  0  0  0  0  0  0  0  0  0  0
   -3.0507    1.0906   11.7671 H   0  0  0  0  0  0  0  0  0  0  0  0
   -1.7468    1.4250   12.9565 H   0  0  0  0  0  0  0  0  0  0  0  0
   -1.4953    0.1975   11.6693 H   0  0  0  0  0  0  0  0  0  0  0  0
  1  2  1  0  0  0  0
  2  3  1  0  0  0  0
  3  4  2  0  0  0  0
  3 27  1  0  0  0  0
  4  5  1  0  0  0  0
  5  6  1  0  0  0  0
  6  7  2  0  0  0  0
  6 26  1  0  0  0  0
  7  8  1  0  0  0  0
  8  9  2  0  0  0  0
  8 16  1  0  0  0  0
  9 10  1  0  0  0  0
 10 11  2  0  0  0  0
 10 17  1  0  0  0  0
 11 12  1  0  0  0  0
 12 13  1  0  0  0  0
 12 16  1  0  0  0  0
 13 14  2  0  0  0  0
 14 15  1  0  0  0  0
 15 16  2  0  0  0  0
 17 18  2  0  0  0  0
 17 25  1  0  0  0  0
 18 19  1  0  0  0  0
 19 20  2  0  0  0  0
 20 21  1  0  0  0  0
 20 24  1  0  0  0  0
 21 22  2  0  0  0  0
 22 23  1  0  0  0  0
 23 24  2  0  0  0  0
 24 25  1  0  0  0  0
 26 27  2  0  0  0  0
 27 28  1  0  0  0  0
 28 29  1  0  0  0  0
  1 30  1  0  0  0  0
  1 31  1  0  0  0  0
  1 32  1  0  0  0  0
  4 33  1  0  0  0  0
  5 34  1  0  0  0  0
  5 35  1  0  0  0  0
 11 36  1  0  0  0  0
 13 37  1  0  0  0  0
 14 38  1  0  0  0  0
 18 39  1  0  0  0  0
 19 40  1  0  0  0  0
 22 41  1  0  0  0  0
 25 42  1  0  0  0  0
 25 43  1  0  0  0  0
 26 44  1  0  0  0  0
 29 45  1  0  0  0  0
 29 46  1  0  0  0  0
 29 47  1  0  0  0  0
M  END
> <IC50[nM]>
6.3

$$$$
CHEMBL3265018
  -OEChem-05192314333D
 Structure written by MMmdl.
 47 51  0     0  0  0  0  0  0999 V2000
   -4.2567   -3.1043   13.5693 C   0  0  0  0  0  0  0  0  0  0  0  0
   -3.8736   -2.3603   14.7157 O   0  0  0  0  0  0  0  0  0  0  0  0
   -2.5257   -2.1109   14.8170 C   0  0  0  0  0  0  0  0  0  0  0  0
   -1.7457   -2.8699   15.6819 C   0  0  0  0  0  0  0  0  0  0  0  0
   -0.3904   -2.6103   15.8138 C   0  0  0  0  0  0  0  0  0  0  0  0
    0.2205   -1.5845   15.0866 C   0  0  0  0  0  0  0  0  0  0  0  0
    1.6039   -1.3601   15.3216 N   0  0  0  0  0  0  0  0  0  0  0  0
    2.5369   -0.4474   14.7595 C   0  0  0  0  0  0  0  0  0  0  0  0
    2.1817    0.3719   13.7240 N   0  0  0  0  0  0  0  0  0  0  0  0
    3.1138    1.2387   13.2179 C   0  0  0  0  0  0  0  0  0  0  0  0
    4.4187    1.2840   13.7027 C   0  0  0  0  0  0  0  0  0  0  0  0
    4.7466    0.4880   14.7600 N   0  0  0  0  0  0  0  0  0  0  0  0
    5.8977    0.3770   15.4865 C   0  0  0  0  0  0  0  0  0  0  0  0
    5.5876   -0.5233   16.5295 C   0  0  0  0  0  0  0  0  0  0  0  0
    4.3760   -1.0434   16.3734 N   0  0  0  0  0  0  0  0  0  0  0  0
    3.8370   -0.3940   15.3257 C   0  0  0  0  0  0  0  0  0  0  0  0
    2.6359    2.1614   12.1223 C   0  0  0  0  0  0  0  0  0  0  0  0
    1.3054    2.6314   12.1303 C   0  0  0  0  0  0  0  0  0  0  0  0
    0.8262    3.5165   11.1628 C   0  0  0  0  0  0  0  0  0  0  0  0
    1.7006    3.9330   10.1707 C   0  0  0  0  0  0  0  0  0  0  0  0
    1.4948    4.8131    9.1162 N   0  0  0  0  0  0  0  0  0  0  0  0
    2.6280    4.8521    8.4793 C   0  0  0  0  0  0  0  0  0  0  0  0
    3.5731    4.0579    9.0246 N   0  0  0  0  0  0  0  0  0  0  0  0
    3.0312    3.4473   10.1317 C   0  0  0  0  0  0  0  0  0  0  0  0
    3.5261    2.5537   11.0860 C   0  0  0  0  0  0  0  0  0  0  0  0
   -0.5552   -0.8189   14.1920 C   0  0  0  0  0  0  0  0  0  0  0  0
   -1.9445   -1.0884   14.0613 C   0  0  0  0  0  0  0  0  0  0  0  0
   -2.7533   -0.3562   13.2050 O   0  0  0  0  0  0  0  0  0  0  0  0
   -2.2327    0.6448   12.3521 C   0  0  0  0  0  0  0  0  0  0  0  0
   -5.3466   -3.2530   13.5754 H   0  0  0  0  0  0  0  0  0  0  0  0
   -3.9668   -2.5544   12.6618 H   0  0  0  0  0  0  0  0  0  0  0  0
   -3.7533   -4.0823   13.5820 H   0  0  0  0  0  0  0  0  0  0  0  0
   -2.1981   -3.6662   16.2542 H   0  0  0  0  0  0  0  0  0  0  0  0
    0.2026   -3.2097   16.4887 H   0  0  0  0  0  0  0  0  0  0  0  0
    5.1536    1.9344   13.2517 H   0  0  0  0  0  0  0  0  0  0  0  0
    6.8406    0.8706   15.3032 H   0  0  0  0  0  0  0  0  0  0  0  0
    6.2508   -0.7585   17.3488 H   0  0  0  0  0  0  0  0  0  0  0  0
    0.6368    2.2959   12.9093 H   0  0  0  0  0  0  0  0  0  0  0  0
   -0.1953    3.8664   11.1865 H   0  0  0  0  0  0  0  0  0  0  0  0
    2.7959    5.4592    7.6020 H   0  0  0  0  0  0  0  0  0  0  0  0
    4.4007    3.0238   11.5594 H   0  0  0  0  0  0  0  0  0  0  0  0
    3.8414    1.6427   10.5562 H   0  0  0  0  0  0  0  0  0  0  0  0
   -0.4614    0.2313   14.5055 H   0  0  0  0  0  0  0  0  0  0  0  0
   -0.1098   -0.9449   13.1941 H   0  0  0  0  0  0  0  0  0  0  0  0
   -3.0507    1.0906   11.7671 H   0  0  0  0  0  0  0  0  0  0  0  0
   -1.7468    1.4250   12.9565 H   0  0  0  0  0  0  0  0  0  0  0  0
   -1.4953    0.1975   11.6693 H   0  0  0  0  0  0  0  0  0  0  0  0
  1  2  1  0  0  0  0
  2  3  1  0  0  0  0
  3  4  1  0  0  0  0
  3 27  2  0  0  0  0
  4  5  2  0  0  0  0
  5  6  1  0  0  0  0
  6  7  2  0  0  0  0
  6 26  1  0  0  0  0
  7  8  1  0  0  0  0
  8  9  2  0  0  0  0
  8 16  1  0  0  0  0
  9 10  1  0  0  0  0
 10 11  2  0  0  0  0
 10 17  1  0  0  0  0
 11 12  1  0  0  0  0
 12 13  1  0  0  0  0
 12 16  1  0  0  0  0
 13 14  2  0  0  0  0
 14 15  1  0  0  0  0
 15 16  2  0  0  0  0
 17 18  2  0  0  0  0
 17 25  1  0  0  0  0
 18 19  1  0  0  0  0
 19 20  2  0  0  0  0
 20 21  1  0  0  0  0
 20 24  1  0  0  0  0
 21 22  2  0  0  0  0
 22 23  1  0  0  0  0
 23 24  2  0  0  0  0
 24 25  1  0  0  0  0
 26 27  1  0  0  0  0
 27 28  1  0  0  0  0
 28 29  1  0  0  0  0
  1 30  1  0  0  0  0
  1 31  1  0  0  0  0
  1 32  1  0  0  0  0
  4 33  1  0  0  0  0
  5 34  1  0  0  0  0
 11 35  1  0  0  0  0
 13 36  1  0  0  0  0
 14 37  1  0  0  0  0
 18 38  1  0  0  0  0
 19 39  1  0  0  0  0
 22 40  1  0  0  0  0
 25 41  1  0  0  0  0
 25 42  1  0  0  0  0
 26 43  1  0  0  0  0
 26 44  1  0  0  0  0
 29 45  1  0  0  0  0
 29 46  1  0  0  0  0
 29 47  1  0  0  0  0
M  END
> <IC50[nM]>
6.3

$$$$
