CHEMBL3265005
  -OEChem-05192314333D
 Structure written by MMmdl.
 48 51  0     0  0  0  0  0  0999 V2000
   -4.2567   -3.1050   13.5684 C   0  0  0  0  0  0  0  0  0  0  0  0
   -3.8734   -2.3611   14.7148 O   0  0  0  0  0  0  0  0  0  0  0  0
   -2.5247   -2.1101   14.8166 C   0  0  0  0  0  0  0  0  0  0  0  0
   -1.7507   -2.8683   15.6828 C   0  0  0  0  0  0  0  0  0  0  0  0
   -0.3911   -2.6099   15.8185 C   0  0  0  0  0  0  0  0  0  0  0  0
    0.2170   -1.5863   15.0905 C   0  0  0  0  0  0  0  0  0  0  0  0
    1.6046   -1.3615   15.3286 N   0  0  0  0  0  0  0  0  0  0  0  0
    2.5322   -0.4485   14.7676 C   0  0  0  0  0  0  0  0  0  0  0  0
    2.1746    0.3813   13.7360 N   0  0  0  0  0  0  0  0  0  0  0  0
    3.1152    1.2349   13.2220 C   0  0  0  0  0  0  0  0  0  0  0  0
    4.4162    1.2784   13.7032 C   0  0  0  0  0  0  0  0  0  0  0  0
    4.7450    0.4849   14.7598 N   0  0  0  0  0  0  0  0  0  0  0  0
    5.8984    0.3795   15.4856 C   0  0  0  0  0  0  0  0  0  0  0  0
    5.5934   -0.5343   16.5244 C   0  0  0  0  0  0  0  0  0  0  0  0
    4.3805   -1.0504   16.3702 N   0  0  0  0  0  0  0  0  0  0  0  0
    3.8378   -0.3985   15.3258 C   0  0  0  0  0  0  0  0  0  0  0  0
    2.6545    2.1505   12.1229 C   0  0  0  0  0  0  0  0  0  0  0  0
    3.5650    2.6332   11.1660 C   0  0  0  0  0  0  0  0  0  0  0  0
    3.1279    3.4532   10.1263 C   0  0  0  0  0  0  0  0  0  0  0  0
    1.7853    3.8163   10.0263 C   0  0  0  0  0  0  0  0  0  0  0  0
    0.8655    3.3670   10.9906 C   0  0  0  0  0  0  0  0  0  0  0  0
    1.3076    2.5389   12.0352 C   0  0  0  0  0  0  0  0  0  0  0  0
   -0.6125    3.7616   10.9140 C   0  0  0  0  0  0  0  0  0  0  0  0
   -1.4124    3.3703   11.7502 O   0  0  0  0  0  0  0  0  0  0  0  0
   -0.9623    4.5440    9.8958 N   0  0  0  0  0  0  0  0  0  0  0  0
   -0.5525   -0.8154   14.1926 C   0  0  0  0  0  0  0  0  0  0  0  0
   -1.9431   -1.0889   14.0634 C   0  0  0  0  0  0  0  0  0  0  0  0
   -2.7491   -0.3514   13.2105 O   0  0  0  0  0  0  0  0  0  0  0  0
   -2.2119    0.5324   12.2516 C   0  0  0  0  0  0  0  0  0  0  0  0
   -5.3465   -3.2543   13.5751 H   0  0  0  0  0  0  0  0  0  0  0  0
   -3.9677   -2.5547   12.6609 H   0  0  0  0  0  0  0  0  0  0  0  0
   -3.7527   -4.0827   13.5805 H   0  0  0  0  0  0  0  0  0  0  0  0
   -2.2063   -3.6632   16.2546 H   0  0  0  0  0  0  0  0  0  0  0  0
    0.2010   -3.2082   16.4951 H   0  0  0  0  0  0  0  0  0  0  0  0
    1.9985   -1.9626   16.0240 H   0  0  0  0  0  0  0  0  0  0  0  0
    5.1512    1.9270   13.2499 H   0  0  0  0  0  0  0  0  0  0  0  0
    6.8370    0.8828   15.3064 H   0  0  0  0  0  0  0  0  0  0  0  0
    6.2616   -0.7792   17.3368 H   0  0  0  0  0  0  0  0  0  0  0  0
    4.6093    2.3671   11.2368 H   0  0  0  0  0  0  0  0  0  0  0  0
    3.8352    3.8101    9.3923 H   0  0  0  0  0  0  0  0  0  0  0  0
    1.4527    4.4409    9.2105 H   0  0  0  0  0  0  0  0  0  0  0  0
    0.6038    2.1968   12.7796 H   0  0  0  0  0  0  0  0  0  0  0  0
   -1.9135    4.8349    9.7926 H   0  0  0  0  0  0  0  0  0  0  0  0
   -0.2740    4.8409    9.2340 H   0  0  0  0  0  0  0  0  0  0  0  0
   -0.0925   -0.0294   13.6121 H   0  0  0  0  0  0  0  0  0  0  0  0
   -3.0303    1.0068   11.6903 H   0  0  0  0  0  0  0  0  0  0  0  0
   -1.6182    1.3070   12.7590 H   0  0  0  0  0  0  0  0  0  0  0  0
   -1.5677   -0.0273   11.5575 H   0  0  0  0  0  0  0  0  0  0  0  0
  1  2  1  0  0  0  0
  2  3  1  0  0  0  0
  3  4  2  0  0  0  0
  3 27  1  0  0  0  0
  4  5  1  0  0  0  0
  5  6  2  0  0  0  0
  6  7  1  0  0  0  0
  6 26  1  0  0  0  0
  7  8  1  0  0  0  0
  8  9  2  0  0  0  0
  8 16  1  0  0  0  0
  9 10  1  0  0  0  0
 10 11  2  0  0  0  0
 10 17  1  0  0  0  0
 11 12  1  0  0  0  0
 12 13  1  0  0  0  0
 12 16  1  0  0  0  0
 13 14  2  0  0  0  0
 14 15  1  0  0  0  0
 15 16  2  0  0  0  0
 17 18  2  0  0  0  0
 17 22  1  0  0  0  0
 18 19  1  0  0  0  0
 19 20  2  0  0  0  0
 20 21  1  0  0  0  0
 21 22  2  0  0  0  0
 21 23  1  0  0  0  0
 23 24  2  0  0  0  0
 23 25  1  0  0  0  0
 26 27  2  0  0  0  0
 27 28  1  0  0  0  0
 28 29  1  0  0  0  0
  1 30  1  0  0  0  0
  1 31  1  0  0  0  0
  1 32  1  0  0  0  0
  4 33  1  0  0  0  0
  5 34  1  0  0  0  0
  7 35  1  0  0  0  0
 11 36  1  0  0  0  0
 13 37  1  0  0  0  0
 14 38  1  0  0  0  0
 18 39  1  0  0  0  0
 19 40  1  0  0  0  0
 20 41  1  0  0  0  0
 22 42  1  0  0  0  0
 25 43  1  0  0  0  0
 25 44  1  0  0  0  0
 26 45  1  0  0  0  0
 29 46  1  0  0  0  0
 29 47  1  0  0  0  0
 29 48  1  0  0  0  0
M  END
> <IC50[nM]>
27.1

$$$$
CHEMBL3265005
  -OEChem-05192314333D
 Structure written by MMmdl.
 48 51  0     0  0  0  0  0  0999 V2000
   -4.2567   -3.1050   13.5684 C   0  0  0  0  0  0  0  0  0  0  0  0
   -3.8734   -2.3611   14.7148 O   0  0  0  0  0  0  0  0  0  0  0  0
   -2.5247   -2.1101   14.8166 C   0  0  0  0  0  0  0  0  0  0  0  0
   -1.7507   -2.8683   15.6828 C   0  0  0  0  0  0  0  0  0  0  0  0
   -0.3911   -2.6099   15.8185 C   0  0  0  0  0  0  0  0  0  0  0  0
    0.2170   -1.5863   15.0905 C   0  0  0  0  0  0  0  0  0  0  0  0
    1.6046   -1.3615   15.3286 N   0  0  0  0  0  0  0  0  0  0  0  0
    2.5322   -0.4485   14.7676 C   0  0  0  0  0  0  0  0  0  0  0  0
    2.1746    0.3813   13.7360 N   0  0  0  0  0  0  0  0  0  0  0  0
    3.1152    1.2349   13.2220 C   0  0  0  0  0  0  0  0  0  0  0  0
    4.4162    1.2784   13.7032 C   0  0  0  0  0  0  0  0  0  0  0  0
    4.7450    0.4849   14.7598 N   0  0  0  0  0  0  0  0  0  0  0  0
    5.8984    0.3795   15.4856 C   0  0  0  0  0  0  0  0  0  0  0  0
    5.5934   -0.5343   16.5244 C   0  0  0  0  0  0  0  0  0  0  0  0
    4.3805   -1.0504   16.3702 N   0  0  0  0  0  0  0  0  0  0  0  0
    3.8378   -0.3985   15.3258 C   0  0  0  0  0  0  0  0  0  0  0  0
    2.6545    2.1505   12.1229 C   0  0  0  0  0  0  0  0  0  0  0  0
    3.5650    2.6332   11.1660 C   0  0  0  0  0  0  0  0  0  0  0  0
    3.1279    3.4532   10.1263 C   0  0  0  0  0  0  0  0  0  0  0  0
    1.7853    3.8163   10.0263 C   0  0  0  0  0  0  0  0  0  0  0  0
    0.8655    3.3670   10.9906 C   0  0  0  0  0  0  0  0  0  0  0  0
    1.3076    2.5389   12.0352 C   0  0  0  0  0  0  0  0  0  0  0  0
   -0.6125    3.7616   10.9140 C   0  0  0  0  0  0  0  0  0  0  0  0
   -1.4124    3.3703   11.7502 O   0  0  0  0  0  0  0  0  0  0  0  0
   -0.9623    4.5440    9.8958 N   0  0  0  0  0  0  0  0  0  0  0  0
   -0.5525   -0.8154   14.1926 C   0  0  0  0  0  0  0  0  0  0  0  0
   -1.9431   -1.0889   14.0634 C   0  0  0  0  0  0  0  0  0  0  0  0
   -2.7491   -0.3514   13.2105 O   0  0  0  0  0  0  0  0  0  0  0  0
   -2.2119    0.5324   12.2516 C   0  0  0  0  0  0  0  0  0  0  0  0
   -5.3465   -3.2543   13.5751 H   0  0  0  0  0  0  0  0  0  0  0  0
   -3.9677   -2.5547   12.6609 H   0  0  0  0  0  0  0  0  0  0  0  0
   -3.7527   -4.0827   13.5805 H   0  0  0  0  0  0  0  0  0  0  0  0
   -2.2063   -3.6632   16.2546 H   0  0  0  0  0  0  0  0  0  0  0  0
    0.2010   -3.2082   16.4951 H   0  0  0  0  0  0  0  0  0  0  0  0
    1.9985   -1.9626   16.0240 H   0  0  0  0  0  0  0  0  0  0  0  0
    5.1512    1.9270   13.2499 H   0  0  0  0  0  0  0  0  0  0  0  0
    6.8370    0.8828   15.3064 H   0  0  0  0  0  0  0  0  0  0  0  0
    6.2616   -0.7792   17.3368 H   0  0  0  0  0  0  0  0  0  0  0  0
    4.6093    2.3671   11.2368 H   0  0  0  0  0  0  0  0  0  0  0  0
    3.8352    3.8101    9.3923 H   0  0  0  0  0  0  0  0  0  0  0  0
    1.4527    4.4409    9.2105 H   0  0  0  0  0  0  0  0  0  0  0  0
    0.6038    2.1968   12.7796 H   0  0  0  0  0  0  0  0  0  0  0  0
   -2.2758    3.7103   11.5466 H   0  0  0  0  0  0  0  0  0  0  0  0
   -1.9384    4.7610    9.9082 H   0  0  0  0  0  0  0  0  0  0  0  0
   -0.0925   -0.0294   13.6121 H   0  0  0  0  0  0  0  0  0  0  0  0
   -3.0303    1.0068   11.6903 H   0  0  0  0  0  0  0  0  0  0  0  0
   -1.6182    1.3070   12.7590 H   0  0  0  0  0  0  0  0  0  0  0  0
   -1.5677   -0.0273   11.5575 H   0  0  0  0  0  0  0  0  0  0  0  0
  1  2  1  0  0  0  0
  2  3  1  0  0  0  0
  3  4  2  0  0  0  0
  3 27  1  0  0  0  0
  4  5  1  0  0  0  0
  5  6  2  0  0  0  0
  6  7  1  0  0  0  0
  6 26  1  0  0  0  0
  7  8  1  0  0  0  0
  8  9  2  0  0  0  0
  8 16  1  0  0  0  0
  9 10  1  0  0  0  0
 10 11  2  0  0  0  0
 10 17  1  0  0  0  0
 11 12  1  0  0  0  0
 12 13  1  0  0  0  0
 12 16  1  0  0  0  0
 13 14  2  0  0  0  0
 14 15  1  0  0  0  0
 15 16  2  0  0  0  0
 17 18  2  0  0  0  0
 17 22  1  0  0  0  0
 18 19  1  0  0  0  0
 19 20  2  0  0  0  0
 20 21  1  0  0  0  0
 21 22  2  0  0  0  0
 21 23  1  0  0  0  0
 23 24  1  0  0  0  0
 23 25  2  0  0  0  0
 26 27  2  0  0  0  0
 27 28  1  0  0  0  0
 28 29  1  0  0  0  0
  1 30  1  0  0  0  0
  1 31  1  0  0  0  0
  1 32  1  0  0  0  0
  4 33  1  0  0  0  0
  5 34  1  0  0  0  0
  7 35  1  0  0  0  0
 11 36  1  0  0  0  0
 13 37  1  0  0  0  0
 14 38  1  0  0  0  0
 18 39  1  0  0  0  0
 19 40  1  0  0  0  0
 20 41  1  0  0  0  0
 22 42  1  0  0  0  0
 24 43  1  0  0  0  0
 25 44  1  0  0  0  0
 26 45  1  0  0  0  0
 29 46  1  0  0  0  0
 29 47  1  0  0  0  0
 29 48  1  0  0  0  0
M  END
> <IC50[nM]>
27.1

$$$$
CHEMBL3265005
  -OEChem-05192314333D
 Structure written by MMmdl.
 48 51  0     0  0  0  0  0  0999 V2000
   -4.2567   -3.1050   13.5684 C   0  0  0  0  0  0  0  0  0  0  0  0
   -3.8734   -2.3611   14.7148 O   0  0  0  0  0  0  0  0  0  0  0  0
   -2.5247   -2.1101   14.8166 C   0  0  0  0  0  0  0  0  0  0  0  0
   -1.7507   -2.8683   15.6828 C   0  0  0  0  0  0  0  0  0  0  0  0
   -0.3911   -2.6099   15.8185 C   0  0  0  0  0  0  0  0  0  0  0  0
    0.2170   -1.5863   15.0905 C   0  0  0  0  0  0  0  0  0  0  0  0
    1.6046   -1.3615   15.3286 N   0  0  0  0  0  0  0  0  0  0  0  0
    2.5322   -0.4485   14.7676 C   0  0  0  0  0  0  0  0  0  0  0  0
    2.1746    0.3813   13.7360 N   0  0  0  0  0  0  0  0  0  0  0  0
    3.1152    1.2349   13.2220 C   0  0  0  0  0  0  0  0  0  0  0  0
    4.4162    1.2784   13.7032 C   0  0  0  0  0  0  0  0  0  0  0  0
    4.7450    0.4849   14.7598 N   0  0  0  0  0  0  0  0  0  0  0  0
    5.8984    0.3795   15.4856 C   0  0  0  0  0  0  0  0  0  0  0  0
    5.5934   -0.5343   16.5244 C   0  0  0  0  0  0  0  0  0  0  0  0
    4.3805   -1.0504   16.3702 N   0  0  0  0  0  0  0  0  0  0  0  0
    3.8378   -0.3985   15.3258 C   0  0  0  0  0  0  0  0  0  0  0  0
    2.6545    2.1505   12.1229 C   0  0  0  0  0  0  0  0  0  0  0  0
    3.5650    2.6332   11.1660 C   0  0  0  0  0  0  0  0  0  0  0  0
    3.1279    3.4532   10.1263 C   0  0  0  0  0  0  0  0  0  0  0  0
    1.7853    3.8163   10.0263 C   0  0  0  0  0  0  0  0  0  0  0  0
    0.8655    3.3670   10.9906 C   0  0  0  0  0  0  0  0  0  0  0  0
    1.3076    2.5389   12.0352 C   0  0  0  0  0  0  0  0  0  0  0  0
   -0.6125    3.7616   10.9140 C   0  0  0  0  0  0  0  0  0  0  0  0
   -1.4124    3.3703   11.7502 O   0  0  0  0  0  0  0  0  0  0  0  0
   -0.9623    4.5440    9.8958 N   0  0  0  0  0  0  0  0  0  0  0  0
   -0.5525   -0.8154   14.1926 C   0  0  0  0  0  0  0  0  0  0  0  0
   -1.9431   -1.0889   14.0634 C   0  0  0  0  0  0  0  0  0  0  0  0
   -2.7491   -0.3514   13.2105 O   0  0  0  0  0  0  0  0  0  0  0  0
   -2.2119    0.5324   12.2516 C   0  0  0  0  0  0  0  0  0  0  0  0
   -5.3465   -3.2543   13.5751 H   0  0  0  0  0  0  0  0  0  0  0  0
   -3.9677   -2.5547   12.6609 H   0  0  0  0  0  0  0  0  0  0  0  0
   -3.7527   -4.0827   13.5805 H   0  0  0  0  0  0  0  0  0  0  0  0
   -2.2063   -3.6632   16.2546 H   0  0  0  0  0  0  0  0  0  0  0  0
    0.2010   -3.2082   16.4951 H   0  0  0  0  0  0  0  0  0  0  0  0
    1.2457    0.3638   13.3662 H   0  0  0  0  0  0  0  0  0  0  0  0
    5.1512    1.9270   13.2499 H   0  0  0  0  0  0  0  0  0  0  0  0
    6.8370    0.8828   15.3064 H   0  0  0  0  0  0  0  0  0  0  0  0
    6.2616   -0.7792   17.3368 H   0  0  0  0  0  0  0  0  0  0  0  0
    4.6093    2.3671   11.2368 H   0  0  0  0  0  0  0  0  0  0  0  0
    3.8352    3.8101    9.3923 H   0  0  0  0  0  0  0  0  0  0  0  0
    1.4527    4.4409    9.2105 H   0  0  0  0  0  0  0  0  0  0  0  0
    0.6038    2.1968   12.7796 H   0  0  0  0  0  0  0  0  0  0  0  0
   -1.9135    4.8349    9.7926 H   0  0  0  0  0  0  0  0  0  0  0  0
   -0.2740    4.8409    9.2340 H   0  0  0  0  0  0  0  0  0  0  0  0
   -0.0925   -0.0294   13.6121 H   0  0  0  0  0  0  0  0  0  0  0  0
   -3.0303    1.0068   11.6903 H   0  0  0  0  0  0  0  0  0  0  0  0
   -1.6182    1.3070   12.7590 H   0  0  0  0  0  0  0  0  0  0  0  0
   -1.5677   -0.0273   11.5575 H   0  0  0  0  0  0  0  0  0  0  0  0
  1  2  1  0  0  0  0
  2  3  1  0  0  0  0
  3  4  2  0  0  0  0
  3 27  1  0  0  0  0
  4  5  1  0  0  0  0
  5  6  2  0  0  0  0
  6  7  1  0  0  0  0
  6 26  1  0  0  0  0
  7  8  2  0  0  0  0
  8  9  1  0  0  0  0
  8 16  1  0  0  0  0
  9 10  1  0  0  0  0
 10 11  2  0  0  0  0
 10 17  1  0  0  0  0
 11 12  1  0  0  0  0
 12 13  1  0  0  0  0
 12 16  1  0  0  0  0
 13 14  2  0  0  0  0
 14 15  1  0  0  0  0
 15 16  2  0  0  0  0
 17 18  2  0  0  0  0
 17 22  1  0  0  0  0
 18 19  1  0  0  0  0
 19 20  2  0  0  0  0
 20 21  1  0  0  0  0
 21 22  2  0  0  0  0
 21 23  1  0  0  0  0
 23 24  2  0  0  0  0
 23 25  1  0  0  0  0
 26 27  2  0  0  0  0
 27 28  1  0  0  0  0
 28 29  1  0  0  0  0
  1 30  1  0  0  0  0
  1 31  1  0  0  0  0
  1 32  1  0  0  0  0
  4 33  1  0  0  0  0
  5 34  1  0  0  0  0
  9 35  1  0  0  0  0
 11 36  1  0  0  0  0
 13 37  1  0  0  0  0
 14 38  1  0  0  0  0
 18 39  1  0  0  0  0
 19 40  1  0  0  0  0
 20 41  1  0  0  0  0
 22 42  1  0  0  0  0
 25 43  1  0  0  0  0
 25 44  1  0  0  0  0
 26 45  1  0  0  0  0
 29 46  1  0  0  0  0
 29 47  1  0  0  0  0
 29 48  1  0  0  0  0
M  END
> <IC50[nM]>
27.1

$$$$
CHEMBL3265005
  -OEChem-05192314333D
 Structure written by MMmdl.
 48 51  0     0  0  0  0  0  0999 V2000
   -4.2567   -3.1050   13.5684 C   0  0  0  0  0  0  0  0  0  0  0  0
   -3.8734   -2.3611   14.7148 O   0  0  0  0  0  0  0  0  0  0  0  0
   -2.5247   -2.1101   14.8166 C   0  0  0  0  0  0  0  0  0  0  0  0
   -1.7507   -2.8683   15.6828 C   0  0  0  0  0  0  0  0  0  0  0  0
   -0.3911   -2.6099   15.8185 C   0  0  0  0  0  0  0  0  0  0  0  0
    0.2170   -1.5863   15.0905 C   0  0  0  0  0  0  0  0  0  0  0  0
    1.6046   -1.3615   15.3286 N   0  0  0  0  0  0  0  0  0  0  0  0
    2.5322   -0.4485   14.7676 C   0  0  0  0  0  0  0  0  0  0  0  0
    2.1746    0.3813   13.7360 N   0  0  0  0  0  0  0  0  0  0  0  0
    3.1152    1.2349   13.2220 C   0  0  0  0  0  0  0  0  0  0  0  0
    4.4162    1.2784   13.7032 C   0  0  0  0  0  0  0  0  0  0  0  0
    4.7450    0.4849   14.7598 N   0  0  0  0  0  0  0  0  0  0  0  0
    5.8984    0.3795   15.4856 C   0  0  0  0  0  0  0  0  0  0  0  0
    5.5934   -0.5343   16.5244 C   0  0  0  0  0  0  0  0  0  0  0  0
    4.3805   -1.0504   16.3702 N   0  0  0  0  0  0  0  0  0  0  0  0
    3.8378   -0.3985   15.3258 C   0  0  0  0  0  0  0  0  0  0  0  0
    2.6545    2.1505   12.1229 C   0  0  0  0  0  0  0  0  0  0  0  0
    3.5650    2.6332   11.1660 C   0  0  0  0  0  0  0  0  0  0  0  0
    3.1279    3.4532   10.1263 C   0  0  0  0  0  0  0  0  0  0  0  0
    1.7853    3.8163   10.0263 C   0  0  0  0  0  0  0  0  0  0  0  0
    0.8655    3.3670   10.9906 C   0  0  0  0  0  0  0  0  0  0  0  0
    1.3076    2.5389   12.0352 C   0  0  0  0  0  0  0  0  0  0  0  0
   -0.6125    3.7616   10.9140 C   0  0  0  0  0  0  0  0  0  0  0  0
   -1.4124    3.3703   11.7502 O   0  0  0  0  0  0  0  0  0  0  0  0
   -0.9623    4.5440    9.8958 N   0  0  0  0  0  0  0  0  0  0  0  0
   -0.5525   -0.8154   14.1926 C   0  0  0  0  0  0  0  0  0  0  0  0
   -1.9431   -1.0889   14.0634 C   0  0  0  0  0  0  0  0  0  0  0  0
   -2.7491   -0.3514   13.2105 O   0  0  0  0  0  0  0  0  0  0  0  0
   -2.2119    0.5324   12.2516 C   0  0  0  0  0  0  0  0  0  0  0  0
   -5.3465   -3.2543   13.5751 H   0  0  0  0  0  0  0  0  0  0  0  0
   -3.9677   -2.5547   12.6609 H   0  0  0  0  0  0  0  0  0  0  0  0
   -3.7527   -4.0827   13.5805 H   0  0  0  0  0  0  0  0  0  0  0  0
   -2.2063   -3.6632   16.2546 H   0  0  0  0  0  0  0  0  0  0  0  0
    0.2010   -3.2082   16.4951 H   0  0  0  0  0  0  0  0  0  0  0  0
    1.2457    0.3638   13.3662 H   0  0  0  0  0  0  0  0  0  0  0  0
    5.1512    1.9270   13.2499 H   0  0  0  0  0  0  0  0  0  0  0  0
    6.8370    0.8828   15.3064 H   0  0  0  0  0  0  0  0  0  0  0  0
    6.2616   -0.7792   17.3368 H   0  0  0  0  0  0  0  0  0  0  0  0
    4.6093    2.3671   11.2368 H   0  0  0  0  0  0  0  0  0  0  0  0
    3.8352    3.8101    9.3923 H   0  0  0  0  0  0  0  0  0  0  0  0
    1.4527    4.4409    9.2105 H   0  0  0  0  0  0  0  0  0  0  0  0
    0.6038    2.1968   12.7796 H   0  0  0  0  0  0  0  0  0  0  0  0
   -2.2758    3.7103   11.5466 H   0  0  0  0  0  0  0  0  0  0  0  0
   -1.9384    4.7610    9.9082 H   0  0  0  0  0  0  0  0  0  0  0  0
   -0.0925   -0.0294   13.6121 H   0  0  0  0  0  0  0  0  0  0  0  0
   -3.0303    1.0068   11.6903 H   0  0  0  0  0  0  0  0  0  0  0  0
   -1.6182    1.3070   12.7590 H   0  0  0  0  0  0  0  0  0  0  0  0
   -1.5677   -0.0273   11.5575 H   0  0  0  0  0  0  0  0  0  0  0  0
  1  2  1  0  0  0  0
  2  3  1  0  0  0  0
  3  4  2  0  0  0  0
  3 27  1  0  0  0  0
  4  5  1  0  0  0  0
  5  6  2  0  0  0  0
  6  7  1  0  0  0  0
  6 26  1  0  0  0  0
  7  8  2  0  0  0  0
  8  9  1  0  0  0  0
  8 16  1  0  0  0  0
  9 10  1  0  0  0  0
 10 11  2  0  0  0  0
 10 17  1  0  0  0  0
 11 12  1  0  0  0  0
 12 13  1  0  0  0  0
 12 16  1  0  0  0  0
 13 14  2  0  0  0  0
 14 15  1  0  0  0  0
 15 16  2  0  0  0  0
 17 18  2  0  0  0  0
 17 22  1  0  0  0  0
 18 19  1  0  0  0  0
 19 20  2  0  0  0  0
 20 21  1  0  0  0  0
 21 22  2  0  0  0  0
 21 23  1  0  0  0  0
 23 24  1  0  0  0  0
 23 25  2  0  0  0  0
 26 27  2  0  0  0  0
 27 28  1  0  0  0  0
 28 29  1  0  0  0  0
  1 30  1  0  0  0  0
  1 31  1  0  0  0  0
  1 32  1  0  0  0  0
  4 33  1  0  0  0  0
  5 34  1  0  0  0  0
  9 35  1  0  0  0  0
 11 36  1  0  0  0  0
 13 37  1  0  0  0  0
 14 38  1  0  0  0  0
 18 39  1  0  0  0  0
 19 40  1  0  0  0  0
 20 41  1  0  0  0  0
 22 42  1  0  0  0  0
 24 43  1  0  0  0  0
 25 44  1  0  0  0  0
 26 45  1  0  0  0  0
 29 46  1  0  0  0  0
 29 47  1  0  0  0  0
 29 48  1  0  0  0  0
M  END
> <IC50[nM]>
27.1

$$$$
CHEMBL3265005
  -OEChem-05192314333D
 Structure written by MMmdl.
 48 51  0     0  0  0  0  0  0999 V2000
   -4.2567   -3.1050   13.5684 C   0  0  0  0  0  0  0  0  0  0  0  0
   -3.8734   -2.3611   14.7148 O   0  0  0  0  0  0  0  0  0  0  0  0
   -2.5247   -2.1101   14.8166 C   0  0  0  0  0  0  0  0  0  0  0  0
   -1.7507   -2.8683   15.6828 C   0  0  0  0  0  0  0  0  0  0  0  0
   -0.3911   -2.6099   15.8185 C   0  0  0  0  0  0  0  0  0  0  0  0
    0.2170   -1.5863   15.0905 C   0  0  0  0  0  0  0  0  0  0  0  0
    1.6046   -1.3615   15.3286 N   0  0  0  0  0  0  0  0  0  0  0  0
    2.5322   -0.4485   14.7676 C   0  0  0  0  0  0  0  0  0  0  0  0
    2.1746    0.3813   13.7360 N   0  0  0  0  0  0  0  0  0  0  0  0
    3.1152    1.2349   13.2220 C   0  0  0  0  0  0  0  0  0  0  0  0
    4.4162    1.2784   13.7032 C   0  0  0  0  0  0  0  0  0  0  0  0
    4.7450    0.4849   14.7598 N   0  0  0  0  0  0  0  0  0  0  0  0
    5.8984    0.3795   15.4856 C   0  0  0  0  0  0  0  0  0  0  0  0
    5.5934   -0.5343   16.5244 C   0  0  0  0  0  0  0  0  0  0  0  0
    4.3805   -1.0504   16.3702 N   0  0  0  0  0  0  0  0  0  0  0  0
    3.8378   -0.3985   15.3258 C   0  0  0  0  0  0  0  0  0  0  0  0
    2.6545    2.1505   12.1229 C   0  0  0  0  0  0  0  0  0  0  0  0
    3.5650    2.6332   11.1660 C   0  0  0  0  0  0  0  0  0  0  0  0
    3.1279    3.4532   10.1263 C   0  0  0  0  0  0  0  0  0  0  0  0
    1.7853    3.8163   10.0263 C   0  0  0  0  0  0  0  0  0  0  0  0
    0.8655    3.3670   10.9906 C   0  0  0  0  0  0  0  0  0  0  0  0
    1.3076    2.5389   12.0352 C   0  0  0  0  0  0  0  0  0  0  0  0
   -0.6125    3.7616   10.9140 C   0  0  0  0  0  0  0  0  0  0  0  0
   -1.4124    3.3703   11.7502 O   0  0  0  0  0  0  0  0  0  0  0  0
   -0.9623    4.5440    9.8958 N   0  0  0  0  0  0  0  0  0  0  0  0
   -0.5525   -0.8154   14.1926 C   0  0  0  0  0  0  0  0  0  0  0  0
   -1.9431   -1.0889   14.0634 C   0  0  0  0  0  0  0  0  0  0  0  0
   -2.7491   -0.3514   13.2105 O   0  0  0  0  0  0  0  0  0  0  0  0
   -2.2119    0.5324   12.2516 C   0  0  0  0  0  0  0  0  0  0  0  0
   -5.3465   -3.2543   13.5751 H   0  0  0  0  0  0  0  0  0  0  0  0
   -3.9677   -2.5547   12.6609 H   0  0  0  0  0  0  0  0  0  0  0  0
   -3.7527   -4.0827   13.5805 H   0  0  0  0  0  0  0  0  0  0  0  0
   -2.2063   -3.6632   16.2546 H   0  0  0  0  0  0  0  0  0  0  0  0
    0.2010   -3.2082   16.4951 H   0  0  0  0  0  0  0  0  0  0  0  0
    5.0798    1.0019   12.8706 H   0  0  0  0  0  0  0  0  0  0  0  0
    4.6171    2.3176   14.0027 H   0  0  0  0  0  0  0  0  0  0  0  0
    6.8370    0.8828   15.3064 H   0  0  0  0  0  0  0  0  0  0  0  0
    6.2616   -0.7792   17.3368 H   0  0  0  0  0  0  0  0  0  0  0  0
    4.6093    2.3671   11.2368 H   0  0  0  0  0  0  0  0  0  0  0  0
    3.8352    3.8101    9.3923 H   0  0  0  0  0  0  0  0  0  0  0  0
    1.4527    4.4409    9.2105 H   0  0  0  0  0  0  0  0  0  0  0  0
    0.6038    2.1968   12.7796 H   0  0  0  0  0  0  0  0  0  0  0  0
   -1.9135    4.8349    9.7926 H   0  0  0  0  0  0  0  0  0  0  0  0
   -0.2740    4.8409    9.2340 H   0  0  0  0  0  0  0  0  0  0  0  0
   -0.0925   -0.0294   13.6121 H   0  0  0  0  0  0  0  0  0  0  0  0
   -3.0303    1.0068   11.6903 H   0  0  0  0  0  0  0  0  0  0  0  0
   -1.6182    1.3070   12.7590 H   0  0  0  0  0  0  0  0  0  0  0  0
   -1.5677   -0.0273   11.5575 H   0  0  0  0  0  0  0  0  0  0  0  0
  1  2  1  0  0  0  0
  2  3  1  0  0  0  0
  3  4  2  0  0  0  0
  3 27  1  0  0  0  0
  4  5  1  0  0  0  0
  5  6  2  0  0  0  0
  6  7  1  0  0  0  0
  6 26  1  0  0  0  0
  7  8  2  0  0  0  0
  8  9  1  0  0  0  0
  8 16  1  0  0  0  0
  9 10  2  0  0  0  0
 10 11  1  0  0  0  0
 10 17  1  0  0  0  0
 11 12  1  0  0  0  0
 12 13  1  0  0  0  0
 12 16  1  0  0  0  0
 13 14  2  0  0  0  0
 14 15  1  0  0  0  0
 15 16  2  0  0  0  0
 17 18  2  0  0  0  0
 17 22  1  0  0  0  0
 18 19  1  0  0  0  0
 19 20  2  0  0  0  0
 20 21  1  0  0  0  0
 21 22  2  0  0  0  0
 21 23  1  0  0  0  0
 23 24  2  0  0  0  0
 23 25  1  0  0  0  0
 26 27  2  0  0  0  0
 27 28  1  0  0  0  0
 28 29  1  0  0  0  0
  1 30  1  0  0  0  0
  1 31  1  0  0  0  0
  1 32  1  0  0  0  0
  4 33  1  0  0  0  0
  5 34  1  0  0  0  0
 11 35  1  0  0  0  0
 11 36  1  0  0  0  0
 13 37  1  0  0  0  0
 14 38  1  0  0  0  0
 18 39  1  0  0  0  0
 19 40  1  0  0  0  0
 20 41  1  0  0  0  0
 22 42  1  0  0  0  0
 25 43  1  0  0  0  0
 25 44  1  0  0  0  0
 26 45  1  0  0  0  0
 29 46  1  0  0  0  0
 29 47  1  0  0  0  0
 29 48  1  0  0  0  0
M  END
> <IC50[nM]>
27.1

$$$$
CHEMBL3265005
  -OEChem-05192314333D
 Structure written by MMmdl.
 48 51  0     0  0  0  0  0  0999 V2000
   -4.2567   -3.1050   13.5684 C   0  0  0  0  0  0  0  0  0  0  0  0
   -3.8734   -2.3611   14.7148 O   0  0  0  0  0  0  0  0  0  0  0  0
   -2.5247   -2.1101   14.8166 C   0  0  0  0  0  0  0  0  0  0  0  0
   -1.7507   -2.8683   15.6828 C   0  0  0  0  0  0  0  0  0  0  0  0
   -0.3911   -2.6099   15.8185 C   0  0  0  0  0  0  0  0  0  0  0  0
    0.2170   -1.5863   15.0905 C   0  0  0  0  0  0  0  0  0  0  0  0
    1.6046   -1.3615   15.3286 N   0  0  0  0  0  0  0  0  0  0  0  0
    2.5322   -0.4485   14.7676 C   0  0  0  0  0  0  0  0  0  0  0  0
    2.1746    0.3813   13.7360 N   0  0  0  0  0  0  0  0  0  0  0  0
    3.1152    1.2349   13.2220 C   0  0  0  0  0  0  0  0  0  0  0  0
    4.4162    1.2784   13.7032 C   0  0  0  0  0  0  0  0  0  0  0  0
    4.7450    0.4849   14.7598 N   0  0  0  0  0  0  0  0  0  0  0  0
    5.8984    0.3795   15.4856 C   0  0  0  0  0  0  0  0  0  0  0  0
    5.5934   -0.5343   16.5244 C   0  0  0  0  0  0  0  0  0  0  0  0
    4.3805   -1.0504   16.3702 N   0  0  0  0  0  0  0  0  0  0  0  0
    3.8378   -0.3985   15.3258 C   0  0  0  0  0  0  0  0  0  0  0  0
    2.6545    2.1505   12.1229 C   0  0  0  0  0  0  0  0  0  0  0  0
    3.5650    2.6332   11.1660 C   0  0  0  0  0  0  0  0  0  0  0  0
    3.1279    3.4532   10.1263 C   0  0  0  0  0  0  0  0  0  0  0  0
    1.7853    3.8163   10.0263 C   0  0  0  0  0  0  0  0  0  0  0  0
    0.8655    3.3670   10.9906 C   0  0  0  0  0  0  0  0  0  0  0  0
    1.3076    2.5389   12.0352 C   0  0  0  0  0  0  0  0  0  0  0  0
   -0.6125    3.7616   10.9140 C   0  0  0  0  0  0  0  0  0  0  0  0
   -1.4124    3.3703   11.7502 O   0  0  0  0  0  0  0  0  0  0  0  0
   -0.9623    4.5440    9.8958 N   0  0  0  0  0  0  0  0  0  0  0  0
   -0.5525   -0.8154   14.1926 C   0  0  0  0  0  0  0  0  0  0  0  0
   -1.9431   -1.0889   14.0634 C   0  0  0  0  0  0  0  0  0  0  0  0
   -2.7491   -0.3514   13.2105 O   0  0  0  0  0  0  0  0  0  0  0  0
   -2.2119    0.5324   12.2516 C   0  0  0  0  0  0  0  0  0  0  0  0
   -5.3465   -3.2543   13.5751 H   0  0  0  0  0  0  0  0  0  0  0  0
   -3.9677   -2.5547   12.6609 H   0  0  0  0  0  0  0  0  0  0  0  0
   -3.7527   -4.0827   13.5805 H   0  0  0  0  0  0  0  0  0  0  0  0
   -2.2063   -3.6632   16.2546 H   0  0  0  0  0  0  0  0  0  0  0  0
    0.2010   -3.2082   16.4951 H   0  0  0  0  0  0  0  0  0  0  0  0
    5.0798    1.0019   12.8706 H   0  0  0  0  0  0  0  0  0  0  0  0
    4.6171    2.3176   14.0027 H   0  0  0  0  0  0  0  0  0  0  0  0
    6.8370    0.8828   15.3064 H   0  0  0  0  0  0  0  0  0  0  0  0
    6.2616   -0.7792   17.3368 H   0  0  0  0  0  0  0  0  0  0  0  0
    4.6093    2.3671   11.2368 H   0  0  0  0  0  0  0  0  0  0  0  0
    3.8352    3.8101    9.3923 H   0  0  0  0  0  0  0  0  0  0  0  0
    1.4527    4.4409    9.2105 H   0  0  0  0  0  0  0  0  0  0  0  0
    0.6038    2.1968   12.7796 H   0  0  0  0  0  0  0  0  0  0  0  0
   -2.2758    3.7103   11.5466 H   0  0  0  0  0  0  0  0  0  0  0  0
   -1.9384    4.7610    9.9082 H   0  0  0  0  0  0  0  0  0  0  0  0
   -0.0925   -0.0294   13.6121 H   0  0  0  0  0  0  0  0  0  0  0  0
   -3.0303    1.0068   11.6903 H   0  0  0  0  0  0  0  0  0  0  0  0
   -1.6182    1.3070   12.7590 H   0  0  0  0  0  0  0  0  0  0  0  0
   -1.5677   -0.0273   11.5575 H   0  0  0  0  0  0  0  0  0  0  0  0
  1  2  1  0  0  0  0
  2  3  1  0  0  0  0
  3  4  2  0  0  0  0
  3 27  1  0  0  0  0
  4  5  1  0  0  0  0
  5  6  2  0  0  0  0
  6  7  1  0  0  0  0
  6 26  1  0  0  0  0
  7  8  2  0  0  0  0
  8  9  1  0  0  0  0
  8 16  1  0  0  0  0
  9 10  2  0  0  0  0
 10 11  1  0  0  0  0
 10 17  1  0  0  0  0
 11 12  1  0  0  0  0
 12 13  1  0  0  0  0
 12 16  1  0  0  0  0
 13 14  2  0  0  0  0
 14 15  1  0  0  0  0
 15 16  2  0  0  0  0
 17 18  2  0  0  0  0
 17 22  1  0  0  0  0
 18 19  1  0  0  0  0
 19 20  2  0  0  0  0
 20 21  1  0  0  0  0
 21 22  2  0  0  0  0
 21 23  1  0  0  0  0
 23 24  1  0  0  0  0
 23 25  2  0  0  0  0
 26 27  2  0  0  0  0
 27 28  1  0  0  0  0
 28 29  1  0  0  0  0
  1 30  1  0  0  0  0
  1 31  1  0  0  0  0
  1 32  1  0  0  0  0
  4 33  1  0  0  0  0
  5 34  1  0  0  0  0
 11 35  1  0  0  0  0
 11 36  1  0  0  0  0
 13 37  1  0  0  0  0
 14 38  1  0  0  0  0
 18 39  1  0  0  0  0
 19 40  1  0  0  0  0
 20 41  1  0  0  0  0
 22 42  1  0  0  0  0
 24 43  1  0  0  0  0
 25 44  1  0  0  0  0
 26 45  1  0  0  0  0
 29 46  1  0  0  0  0
 29 47  1  0  0  0  0
 29 48  1  0  0  0  0
M  END
> <IC50[nM]>
27.1

$$$$
CHEMBL3265005
  -OEChem-05192314333D
 Structure written by MMmdl.
 48 51  0     1  0  0  0  0  0999 V2000
   -4.2567   -3.1050   13.5684 C   0  0  0  0  0  0  0  0  0  0  0  0
   -3.8734   -2.3611   14.7148 O   0  0  0  0  0  0  0  0  0  0  0  0
   -2.5247   -2.1101   14.8166 C   0  0  3  0  0  0  0  0  0  0  0  0
   -1.7507   -2.8683   15.6828 C   0  0  0  0  0  0  0  0  0  0  0  0
   -0.3911   -2.6099   15.8185 C   0  0  0  0  0  0  0  0  0  0  0  0
    0.2170   -1.5863   15.0905 C   0  0  0  0  0  0  0  0  0  0  0  0
    1.6046   -1.3615   15.3286 N   0  0  0  0  0  0  0  0  0  0  0  0
    2.5322   -0.4485   14.7676 C   0  0  0  0  0  0  0  0  0  0  0  0
    2.1746    0.3813   13.7360 N   0  0  0  0  0  0  0  0  0  0  0  0
    3.1152    1.2349   13.2220 C   0  0  0  0  0  0  0  0  0  0  0  0
    4.4162    1.2784   13.7032 C   0  0  0  0  0  0  0  0  0  0  0  0
    4.7450    0.4849   14.7598 N   0  0  0  0  0  0  0  0  0  0  0  0
    5.8984    0.3795   15.4856 C   0  0  0  0  0  0  0  0  0  0  0  0
    5.5934   -0.5343   16.5244 C   0  0  0  0  0  0  0  0  0  0  0  0
    4.3805   -1.0504   16.3702 N   0  0  0  0  0  0  0  0  0  0  0  0
    3.8378   -0.3985   15.3258 C   0  0  0  0  0  0  0  0  0  0  0  0
    2.6545    2.1505   12.1229 C   0  0  0  0  0  0  0  0  0  0  0  0
    3.5650    2.6332   11.1660 C   0  0  0  0  0  0  0  0  0  0  0  0
    3.1279    3.4532   10.1263 C   0  0  0  0  0  0  0  0  0  0  0  0
    1.7853    3.8163   10.0263 C   0  0  0  0  0  0  0  0  0  0  0  0
    0.8655    3.3670   10.9906 C   0  0  0  0  0  0  0  0  0  0  0  0
    1.3076    2.5389   12.0352 C   0  0  0  0  0  0  0  0  0  0  0  0
   -0.6125    3.7616   10.9140 C   0  0  0  0  0  0  0  0  0  0  0  0
   -1.4124    3.3703   11.7502 O   0  0  0  0  0  0  0  0  0  0  0  0
   -0.9623    4.5440    9.8958 N   0  0  0  0  0  0  0  0  0  0  0  0
   -0.5525   -0.8154   14.1926 C   0  0  0  0  0  0  0  0  0  0  0  0
   -1.9431   -1.0889   14.0634 C   0  0  0  0  0  0  0  0  0  0  0  0
   -2.7491   -0.3514   13.2105 O   0  0  0  0  0  0  0  0  0  0  0  0
   -2.2119    0.5324   12.2516 C   0  0  0  0  0  0  0  0  0  0  0  0
   -5.3465   -3.2543   13.5751 H   0  0  0  0  0  0  0  0  0  0  0  0
   -3.9677   -2.5547   12.6609 H   0  0  0  0  0  0  0  0  0  0  0  0
   -3.7527   -4.0827   13.5805 H   0  0  0  0  0  0  0  0  0  0  0  0
   -2.3261   -2.8265   14.0058 H   0  0  0  0  0  0  0  0  0  0  0  0
   -2.2063   -3.6632   16.2546 H   0  0  0  0  0  0  0  0  0  0  0  0
    0.2010   -3.2082   16.4951 H   0  0  0  0  0  0  0  0  0  0  0  0
    5.1512    1.9270   13.2499 H   0  0  0  0  0  0  0  0  0  0  0  0
    6.8370    0.8828   15.3064 H   0  0  0  0  0  0  0  0  0  0  0  0
    6.2616   -0.7792   17.3368 H   0  0  0  0  0  0  0  0  0  0  0  0
    4.6093    2.3671   11.2368 H   0  0  0  0  0  0  0  0  0  0  0  0
    3.8352    3.8101    9.3923 H   0  0  0  0  0  0  0  0  0  0  0  0
    1.4527    4.4409    9.2105 H   0  0  0  0  0  0  0  0  0  0  0  0
    0.6038    2.1968   12.7796 H   0  0  0  0  0  0  0  0  0  0  0  0
   -1.9135    4.8349    9.7926 H   0  0  0  0  0  0  0  0  0  0  0  0
   -0.2740    4.8409    9.2340 H   0  0  0  0  0  0  0  0  0  0  0  0
   -0.0925   -0.0294   13.6121 H   0  0  0  0  0  0  0  0  0  0  0  0
   -3.0303    1.0068   11.6903 H   0  0  0  0  0  0  0  0  0  0  0  0
   -1.6182    1.3070   12.7590 H   0  0  0  0  0  0  0  0  0  0  0  0
   -1.5677   -0.0273   11.5575 H   0  0  0  0  0  0  0  0  0  0  0  0
  1  2  1  0  0  0  0
  2  3  1  0  0  0  0
  3  4  1  0  0  0  0
  3 27  1  0  0  0  0
  4  5  2  0  0  0  0
  5  6  1  0  0  0  0
  6  7  2  0  0  0  0
  6 26  1  0  0  0  0
  7  8  1  0  0  0  0
  8  9  2  0  0  0  0
  8 16  1  0  0  0  0
  9 10  1  0  0  0  0
 10 11  2  0  0  0  0
 10 17  1  0  0  0  0
 11 12  1  0  0  0  0
 12 13  1  0  0  0  0
 12 16  1  0  0  0  0
 13 14  2  0  0  0  0
 14 15  1  0  0  0  0
 15 16  2  0  0  0  0
 17 18  2  0  0  0  0
 17 22  1  0  0  0  0
 18 19  1  0  0  0  0
 19 20  2  0  0  0  0
 20 21  1  0  0  0  0
 21 22  2  0  0  0  0
 21 23  1  0  0  0  0
 23 24  2  0  0  0  0
 23 25  1  0  0  0  0
 26 27  2  0  0  0  0
 27 28  1  0  0  0  0
 28 29  1  0  0  0  0
  1 30  1  0  0  0  0
  1 31  1  0  0  0  0
  1 32  1  0  0  0  0
  3 33  1  0  0  0  0
  4 34  1  0  0  0  0
  5 35  1  0  0  0  0
 11 36  1  0  0  0  0
 13 37  1  0  0  0  0
 14 38  1  0  0  0  0
 18 39  1  0  0  0  0
 19 40  1  0  0  0  0
 20 41  1  0  0  0  0
 22 42  1  0  0  0  0
 25 43  1  0  0  0  0
 25 44  1  0  0  0  0
 26 45  1  0  0  0  0
 29 46  1  0  0  0  0
 29 47  1  0  0  0  0
 29 48  1  0  0  0  0
M  END
> <IC50[nM]>
27.1

$$$$
CHEMBL3265005
  -OEChem-05192314333D
 Structure written by MMmdl.
 48 51  0     0  0  0  0  0  0999 V2000
   -4.2567   -3.1050   13.5684 C   0  0  0  0  0  0  0  0  0  0  0  0
   -3.8734   -2.3611   14.7148 O   0  0  0  0  0  0  0  0  0  0  0  0
   -2.5247   -2.1101   14.8166 C   0  0  0  0  0  0  0  0  0  0  0  0
   -1.7507   -2.8683   15.6828 C   0  0  0  0  0  0  0  0  0  0  0  0
   -0.3911   -2.6099   15.8185 C   0  0  0  0  0  0  0  0  0  0  0  0
    0.2170   -1.5863   15.0905 C   0  0  0  0  0  0  0  0  0  0  0  0
    1.6046   -1.3615   15.3286 N   0  0  0  0  0  0  0  0  0  0  0  0
    2.5322   -0.4485   14.7676 C   0  0  0  0  0  0  0  0  0  0  0  0
    2.1746    0.3813   13.7360 N   0  0  0  0  0  0  0  0  0  0  0  0
    3.1152    1.2349   13.2220 C   0  0  0  0  0  0  0  0  0  0  0  0
    4.4162    1.2784   13.7032 C   0  0  0  0  0  0  0  0  0  0  0  0
    4.7450    0.4849   14.7598 N   0  0  0  0  0  0  0  0  0  0  0  0
    5.8984    0.3795   15.4856 C   0  0  0  0  0  0  0  0  0  0  0  0
    5.5934   -0.5343   16.5244 C   0  0  0  0  0  0  0  0  0  0  0  0
    4.3805   -1.0504   16.3702 N   0  0  0  0  0  0  0  0  0  0  0  0
    3.8378   -0.3985   15.3258 C   0  0  0  0  0  0  0  0  0  0  0  0
    2.6545    2.1505   12.1229 C   0  0  0  0  0  0  0  0  0  0  0  0
    3.5650    2.6332   11.1660 C   0  0  0  0  0  0  0  0  0  0  0  0
    3.1279    3.4532   10.1263 C   0  0  0  0  0  0  0  0  0  0  0  0
    1.7853    3.8163   10.0263 C   0  0  0  0  0  0  0  0  0  0  0  0
    0.8655    3.3670   10.9906 C   0  0  0  0  0  0  0  0  0  0  0  0
    1.3076    2.5389   12.0352 C   0  0  0  0  0  0  0  0  0  0  0  0
   -0.6125    3.7616   10.9140 C   0  0  0  0  0  0  0  0  0  0  0  0
   -1.4124    3.3703   11.7502 O   0  0  0  0  0  0  0  0  0  0  0  0
   -0.9623    4.5440    9.8958 N   0  0  0  0  0  0  0  0  0  0  0  0
   -0.5525   -0.8154   14.1926 C   0  0  0  0  0  0  0  0  0  0  0  0
   -1.9431   -1.0889   14.0634 C   0  0  0  0  0  0  0  0  0  0  0  0
   -2.7491   -0.3514   13.2105 O   0  0  0  0  0  0  0  0  0  0  0  0
   -2.2119    0.5324   12.2516 C   0  0  0  0  0  0  0  0  0  0  0  0
   -5.3465   -3.2543   13.5751 H   0  0  0  0  0  0  0  0  0  0  0  0
   -3.9677   -2.5547   12.6609 H   0  0  0  0  0  0  0  0  0  0  0  0
   -3.7527   -4.0827   13.5805 H   0  0  0  0  0  0  0  0  0  0  0  0
   -2.2063   -3.6632   16.2546 H   0  0  0  0  0  0  0  0  0  0  0  0
   -0.2190   -2.3842   16.8813 H   0  0  0  0  0  0  0  0  0  0  0  0
    0.1332   -3.5393   15.5514 H   0  0  0  0  0  0  0  0  0  0  0  0
    5.1512    1.9270   13.2499 H   0  0  0  0  0  0  0  0  0  0  0  0
    6.8370    0.8828   15.3064 H   0  0  0  0  0  0  0  0  0  0  0  0
    6.2616   -0.7792   17.3368 H   0  0  0  0  0  0  0  0  0  0  0  0
    4.6093    2.3671   11.2368 H   0  0  0  0  0  0  0  0  0  0  0  0
    3.8352    3.8101    9.3923 H   0  0  0  0  0  0  0  0  0  0  0  0
    1.4527    4.4409    9.2105 H   0  0  0  0  0  0  0  0  0  0  0  0
    0.6038    2.1968   12.7796 H   0  0  0  0  0  0  0  0  0  0  0  0
   -1.9135    4.8349    9.7926 H   0  0  0  0  0  0  0  0  0  0  0  0
   -0.2740    4.8409    9.2340 H   0  0  0  0  0  0  0  0  0  0  0  0
   -0.0925   -0.0294   13.6121 H   0  0  0  0  0  0  0  0  0  0  0  0
   -3.0303    1.0068   11.6903 H   0  0  0  0  0  0  0  0  0  0  0  0
   -1.6182    1.3070   12.7590 H   0  0  0  0  0  0  0  0  0  0  0  0
   -1.5677   -0.0273   11.5575 H   0  0  0  0  0  0  0  0  0  0  0  0
  1  2  1  0  0  0  0
  2  3  1  0  0  0  0
  3  4  2  0  0  0  0
  3 27  1  0  0  0  0
  4  5  1  0  0  0  0
  5  6  1  0  0  0  0
  6  7  2  0  0  0  0
  6 26  1  0  0  0  0
  7  8  1  0  0  0  0
  8  9  2  0  0  0  0
  8 16  1  0  0  0  0
  9 10  1  0  0  0  0
 10 11  2  0  0  0  0
 10 17  1  0  0  0  0
 11 12  1  0  0  0  0
 12 13  1  0  0  0  0
 12 16  1  0  0  0  0
 13 14  2  0  0  0  0
 14 15  1  0  0  0  0
 15 16  2  0  0  0  0
 17 18  2  0  0  0  0
 17 22  1  0  0  0  0
 18 19  1  0  0  0  0
 19 20  2  0  0  0  0
 20 21  1  0  0  0  0
 21 22  2  0  0  0  0
 21 23  1  0  0  0  0
 23 24  2  0  0  0  0
 23 25  1  0  0  0  0
 26 27  2  0  0  0  0
 27 28  1  0  0  0  0
 28 29  1  0  0  0  0
  1 30  1  0  0  0  0
  1 31  1  0  0  0  0
  1 32  1  0  0  0  0
  4 33  1  0  0  0  0
  5 34  1  0  0  0  0
  5 35  1  0  0  0  0
 11 36  1  0  0  0  0
 13 37  1  0  0  0  0
 14 38  1  0  0  0  0
 18 39  1  0  0  0  0
 19 40  1  0  0  0  0
 20 41  1  0  0  0  0
 22 42  1  0  0  0  0
 25 43  1  0  0  0  0
 25 44  1  0  0  0  0
 26 45  1  0  0  0  0
 29 46  1  0  0  0  0
 29 47  1  0  0  0  0
 29 48  1  0  0  0  0
M  END
> <IC50[nM]>
27.1

$$$$
CHEMBL3265005
  -OEChem-05192314333D
 Structure written by MMmdl.
 48 51  0     0  0  0  0  0  0999 V2000
   -4.2567   -3.1050   13.5684 C   0  0  0  0  0  0  0  0  0  0  0  0
   -3.8734   -2.3611   14.7148 O   0  0  0  0  0  0  0  0  0  0  0  0
   -2.5247   -2.1101   14.8166 C   0  0  0  0  0  0  0  0  0  0  0  0
   -1.7507   -2.8683   15.6828 C   0  0  0  0  0  0  0  0  0  0  0  0
   -0.3911   -2.6099   15.8185 C   0  0  0  0  0  0  0  0  0  0  0  0
    0.2170   -1.5863   15.0905 C   0  0  0  0  0  0  0  0  0  0  0  0
    1.6046   -1.3615   15.3286 N   0  0  0  0  0  0  0  0  0  0  0  0
    2.5322   -0.4485   14.7676 C   0  0  0  0  0  0  0  0  0  0  0  0
    2.1746    0.3813   13.7360 N   0  0  0  0  0  0  0  0  0  0  0  0
    3.1152    1.2349   13.2220 C   0  0  0  0  0  0  0  0  0  0  0  0
    4.4162    1.2784   13.7032 C   0  0  0  0  0  0  0  0  0  0  0  0
    4.7450    0.4849   14.7598 N   0  0  0  0  0  0  0  0  0  0  0  0
    5.8984    0.3795   15.4856 C   0  0  0  0  0  0  0  0  0  0  0  0
    5.5934   -0.5343   16.5244 C   0  0  0  0  0  0  0  0  0  0  0  0
    4.3805   -1.0504   16.3702 N   0  0  0  0  0  0  0  0  0  0  0  0
    3.8378   -0.3985   15.3258 C   0  0  0  0  0  0  0  0  0  0  0  0
    2.6545    2.1505   12.1229 C   0  0  0  0  0  0  0  0  0  0  0  0
    3.5650    2.6332   11.1660 C   0  0  0  0  0  0  0  0  0  0  0  0
    3.1279    3.4532   10.1263 C   0  0  0  0  0  0  0  0  0  0  0  0
    1.7853    3.8163   10.0263 C   0  0  0  0  0  0  0  0  0  0  0  0
    0.8655    3.3670   10.9906 C   0  0  0  0  0  0  0  0  0  0  0  0
    1.3076    2.5389   12.0352 C   0  0  0  0  0  0  0  0  0  0  0  0
   -0.6125    3.7616   10.9140 C   0  0  0  0  0  0  0  0  0  0  0  0
   -1.4124    3.3703   11.7502 O   0  0  0  0  0  0  0  0  0  0  0  0
   -0.9623    4.5440    9.8958 N   0  0  0  0  0  0  0  0  0  0  0  0
   -0.5525   -0.8154   14.1926 C   0  0  0  0  0  0  0  0  0  0  0  0
   -1.9431   -1.0889   14.0634 C   0  0  0  0  0  0  0  0  0  0  0  0
   -2.7491   -0.3514   13.2105 O   0  0  0  0  0  0  0  0  0  0  0  0
   -2.2119    0.5324   12.2516 C   0  0  0  0  0  0  0  0  0  0  0  0
   -5.3465   -3.2543   13.5751 H   0  0  0  0  0  0  0  0  0  0  0  0
   -3.9677   -2.5547   12.6609 H   0  0  0  0  0  0  0  0  0  0  0  0
   -3.7527   -4.0827   13.5805 H   0  0  0  0  0  0  0  0  0  0  0  0
   -2.2063   -3.6632   16.2546 H   0  0  0  0  0  0  0  0  0  0  0  0
    0.2010   -3.2082   16.4951 H   0  0  0  0  0  0  0  0  0  0  0  0
    5.1512    1.9270   13.2499 H   0  0  0  0  0  0  0  0  0  0  0  0
    6.8370    0.8828   15.3064 H   0  0  0  0  0  0  0  0  0  0  0  0
    6.2616   -0.7792   17.3368 H   0  0  0  0  0  0  0  0  0  0  0  0
    4.6093    2.3671   11.2368 H   0  0  0  0  0  0  0  0  0  0  0  0
    3.8352    3.8101    9.3923 H   0  0  0  0  0  0  0  0  0  0  0  0
    1.4527    4.4409    9.2105 H   0  0  0  0  0  0  0  0  0  0  0  0
    0.6038    2.1968   12.7796 H   0  0  0  0  0  0  0  0  0  0  0  0
   -1.9135    4.8349    9.7926 H   0  0  0  0  0  0  0  0  0  0  0  0
   -0.2740    4.8409    9.2340 H   0  0  0  0  0  0  0  0  0  0  0  0
   -0.4585    0.2345   14.5071 H   0  0  0  0  0  0  0  0  0  0  0  0
   -0.1055   -0.9409   13.1954 H   0  0  0  0  0  0  0  0  0  0  0  0
   -3.0303    1.0068   11.6903 H   0  0  0  0  0  0  0  0  0  0  0  0
   -1.6182    1.3070   12.7590 H   0  0  0  0  0  0  0  0  0  0  0  0
   -1.5677   -0.0273   11.5575 H   0  0  0  0  0  0  0  0  0  0  0  0
  1  2  1  0  0  0  0
  2  3  1  0  0  0  0
  3  4  1  0  0  0  0
  3 27  2  0  0  0  0
  4  5  2  0  0  0  0
  5  6  1  0  0  0  0
  6  7  2  0  0  0  0
  6 26  1  0  0  0  0
  7  8  1  0  0  0  0
  8  9  2  0  0  0  0
  8 16  1  0  0  0  0
  9 10  1  0  0  0  0
 10 11  2  0  0  0  0
 10 17  1  0  0  0  0
 11 12  1  0  0  0  0
 12 13  1  0  0  0  0
 12 16  1  0  0  0  0
 13 14  2  0  0  0  0
 14 15  1  0  0  0  0
 15 16  2  0  0  0  0
 17 18  2  0  0  0  0
 17 22  1  0  0  0  0
 18 19  1  0  0  0  0
 19 20  2  0  0  0  0
 20 21  1  0  0  0  0
 21 22  2  0  0  0  0
 21 23  1  0  0  0  0
 23 24  2  0  0  0  0
 23 25  1  0  0  0  0
 26 27  1  0  0  0  0
 27 28  1  0  0  0  0
 28 29  1  0  0  0  0
  1 30  1  0  0  0  0
  1 31  1  0  0  0  0
  1 32  1  0  0  0  0
  4 33  1  0  0  0  0
  5 34  1  0  0  0  0
 11 35  1  0  0  0  0
 13 36  1  0  0  0  0
 14 37  1  0  0  0  0
 18 38  1  0  0  0  0
 19 39  1  0  0  0  0
 20 40  1  0  0  0  0
 22 41  1  0  0  0  0
 25 42  1  0  0  0  0
 25 43  1  0  0  0  0
 26 44  1  0  0  0  0
 26 45  1  0  0  0  0
 29 46  1  0  0  0  0
 29 47  1  0  0  0  0
 29 48  1  0  0  0  0
M  END
> <IC50[nM]>
27.1

$$$$
CHEMBL3265005
  -OEChem-05192314333D
 Structure written by MMmdl.
 48 51  0     1  0  0  0  0  0999 V2000
   -4.2567   -3.1050   13.5684 C   0  0  0  0  0  0  0  0  0  0  0  0
   -3.8734   -2.3611   14.7148 O   0  0  0  0  0  0  0  0  0  0  0  0
   -2.5247   -2.1101   14.8166 C   0  0  3  0  0  0  0  0  0  0  0  0
   -1.7507   -2.8683   15.6828 C   0  0  0  0  0  0  0  0  0  0  0  0
   -0.3911   -2.6099   15.8185 C   0  0  0  0  0  0  0  0  0  0  0  0
    0.2170   -1.5863   15.0905 C   0  0  0  0  0  0  0  0  0  0  0  0
    1.6046   -1.3615   15.3286 N   0  0  0  0  0  0  0  0  0  0  0  0
    2.5322   -0.4485   14.7676 C   0  0  0  0  0  0  0  0  0  0  0  0
    2.1746    0.3813   13.7360 N   0  0  0  0  0  0  0  0  0  0  0  0
    3.1152    1.2349   13.2220 C   0  0  0  0  0  0  0  0  0  0  0  0
    4.4162    1.2784   13.7032 C   0  0  0  0  0  0  0  0  0  0  0  0
    4.7450    0.4849   14.7598 N   0  0  0  0  0  0  0  0  0  0  0  0
    5.8984    0.3795   15.4856 C   0  0  0  0  0  0  0  0  0  0  0  0
    5.5934   -0.5343   16.5244 C   0  0  0  0  0  0  0  0  0  0  0  0
    4.3805   -1.0504   16.3702 N   0  0  0  0  0  0  0  0  0  0  0  0
    3.8378   -0.3985   15.3258 C   0  0  0  0  0  0  0  0  0  0  0  0
    2.6545    2.1505   12.1229 C   0  0  0  0  0  0  0  0  0  0  0  0
    3.5650    2.6332   11.1660 C   0  0  0  0  0  0  0  0  0  0  0  0
    3.1279    3.4532   10.1263 C   0  0  0  0  0  0  0  0  0  0  0  0
    1.7853    3.8163   10.0263 C   0  0  0  0  0  0  0  0  0  0  0  0
    0.8655    3.3670   10.9906 C   0  0  0  0  0  0  0  0  0  0  0  0
    1.3076    2.5389   12.0352 C   0  0  0  0  0  0  0  0  0  0  0  0
   -0.6125    3.7616   10.9140 C   0  0  0  0  0  0  0  0  0  0  0  0
   -1.4124    3.3703   11.7502 O   0  0  0  0  0  0  0  0  0  0  0  0
   -0.9623    4.5440    9.8958 N   0  0  0  0  0  0  0  0  0  0  0  0
   -0.5525   -0.8154   14.1926 C   0  0  0  0  0  0  0  0  0  0  0  0
   -1.9431   -1.0889   14.0634 C   0  0  0  0  0  0  0  0  0  0  0  0
   -2.7491   -0.3514   13.2105 O   0  0  0  0  0  0  0  0  0  0  0  0
   -2.2119    0.5324   12.2516 C   0  0  0  0  0  0  0  0  0  0  0  0
   -5.3465   -3.2543   13.5751 H   0  0  0  0  0  0  0  0  0  0  0  0
   -3.9677   -2.5547   12.6609 H   0  0  0  0  0  0  0  0  0  0  0  0
   -3.7527   -4.0827   13.5805 H   0  0  0  0  0  0  0  0  0  0  0  0
   -2.3261   -2.8265   14.0058 H   0  0  0  0  0  0  0  0  0  0  0  0
   -2.2063   -3.6632   16.2546 H   0  0  0  0  0  0  0  0  0  0  0  0
    0.2010   -3.2082   16.4951 H   0  0  0  0  0  0  0  0  0  0  0  0
    5.1512    1.9270   13.2499 H   0  0  0  0  0  0  0  0  0  0  0  0
    6.8370    0.8828   15.3064 H   0  0  0  0  0  0  0  0  0  0  0  0
    6.2616   -0.7792   17.3368 H   0  0  0  0  0  0  0  0  0  0  0  0
    4.6093    2.3671   11.2368 H   0  0  0  0  0  0  0  0  0  0  0  0
    3.8352    3.8101    9.3923 H   0  0  0  0  0  0  0  0  0  0  0  0
    1.4527    4.4409    9.2105 H   0  0  0  0  0  0  0  0  0  0  0  0
    0.6038    2.1968   12.7796 H   0  0  0  0  0  0  0  0  0  0  0  0
   -2.2758    3.7103   11.5466 H   0  0  0  0  0  0  0  0  0  0  0  0
   -1.9384    4.7610    9.9082 H   0  0  0  0  0  0  0  0  0  0  0  0
   -0.0925   -0.0294   13.6121 H   0  0  0  0  0  0  0  0  0  0  0  0
   -3.0303    1.0068   11.6903 H   0  0  0  0  0  0  0  0  0  0  0  0
   -1.6182    1.3070   12.7590 H   0  0  0  0  0  0  0  0  0  0  0  0
   -1.5677   -0.0273   11.5575 H   0  0  0  0  0  0  0  0  0  0  0  0
  1  2  1  0  0  0  0
  2  3  1  0  0  0  0
  3  4  1  0  0  0  0
  3 27  1  0  0  0  0
  4  5  2  0  0  0  0
  5  6  1  0  0  0  0
  6  7  2  0  0  0  0
  6 26  1  0  0  0  0
  7  8  1  0  0  0  0
  8  9  2  0  0  0  0
  8 16  1  0  0  0  0
  9 10  1  0  0  0  0
 10 11  2  0  0  0  0
 10 17  1  0  0  0  0
 11 12  1  0  0  0  0
 12 13  1  0  0  0  0
 12 16  1  0  0  0  0
 13 14  2  0  0  0  0
 14 15  1  0  0  0  0
 15 16  2  0  0  0  0
 17 18  2  0  0  0  0
 17 22  1  0  0  0  0
 18 19  1  0  0  0  0
 19 20  2  0  0  0  0
 20 21  1  0  0  0  0
 21 22  2  0  0  0  0
 21 23  1  0  0  0  0
 23 24  1  0  0  0  0
 23 25  2  0  0  0  0
 26 27  2  0  0  0  0
 27 28  1  0  0  0  0
 28 29  1  0  0  0  0
  1 30  1  0  0  0  0
  1 31  1  0  0  0  0
  1 32  1  0  0  0  0
  3 33  1  0  0  0  0
  4 34  1  0  0  0  0
  5 35  1  0  0  0  0
 11 36  1  0  0  0  0
 13 37  1  0  0  0  0
 14 38  1  0  0  0  0
 18 39  1  0  0  0  0
 19 40  1  0  0  0  0
 20 41  1  0  0  0  0
 22 42  1  0  0  0  0
 24 43  1  0  0  0  0
 25 44  1  0  0  0  0
 26 45  1  0  0  0  0
 29 46  1  0  0  0  0
 29 47  1  0  0  0  0
 29 48  1  0  0  0  0
M  END
> <IC50[nM]>
27.1

$$$$
CHEMBL3265005
  -OEChem-05192314333D
 Structure written by MMmdl.
 48 51  0     0  0  0  0  0  0999 V2000
   -4.2567   -3.1050   13.5684 C   0  0  0  0  0  0  0  0  0  0  0  0
   -3.8734   -2.3611   14.7148 O   0  0  0  0  0  0  0  0  0  0  0  0
   -2.5247   -2.1101   14.8166 C   0  0  0  0  0  0  0  0  0  0  0  0
   -1.7507   -2.8683   15.6828 C   0  0  0  0  0  0  0  0  0  0  0  0
   -0.3911   -2.6099   15.8185 C   0  0  0  0  0  0  0  0  0  0  0  0
    0.2170   -1.5863   15.0905 C   0  0  0  0  0  0  0  0  0  0  0  0
    1.6046   -1.3615   15.3286 N   0  0  0  0  0  0  0  0  0  0  0  0
    2.5322   -0.4485   14.7676 C   0  0  0  0  0  0  0  0  0  0  0  0
    2.1746    0.3813   13.7360 N   0  0  0  0  0  0  0  0  0  0  0  0
    3.1152    1.2349   13.2220 C   0  0  0  0  0  0  0  0  0  0  0  0
    4.4162    1.2784   13.7032 C   0  0  0  0  0  0  0  0  0  0  0  0
    4.7450    0.4849   14.7598 N   0  0  0  0  0  0  0  0  0  0  0  0
    5.8984    0.3795   15.4856 C   0  0  0  0  0  0  0  0  0  0  0  0
    5.5934   -0.5343   16.5244 C   0  0  0  0  0  0  0  0  0  0  0  0
    4.3805   -1.0504   16.3702 N   0  0  0  0  0  0  0  0  0  0  0  0
    3.8378   -0.3985   15.3258 C   0  0  0  0  0  0  0  0  0  0  0  0
    2.6545    2.1505   12.1229 C   0  0  0  0  0  0  0  0  0  0  0  0
    3.5650    2.6332   11.1660 C   0  0  0  0  0  0  0  0  0  0  0  0
    3.1279    3.4532   10.1263 C   0  0  0  0  0  0  0  0  0  0  0  0
    1.7853    3.8163   10.0263 C   0  0  0  0  0  0  0  0  0  0  0  0
    0.8655    3.3670   10.9906 C   0  0  0  0  0  0  0  0  0  0  0  0
    1.3076    2.5389   12.0352 C   0  0  0  0  0  0  0  0  0  0  0  0
   -0.6125    3.7616   10.9140 C   0  0  0  0  0  0  0  0  0  0  0  0
   -1.4124    3.3703   11.7502 O   0  0  0  0  0  0  0  0  0  0  0  0
   -0.9623    4.5440    9.8958 N   0  0  0  0  0  0  0  0  0  0  0  0
   -0.5525   -0.8154   14.1926 C   0  0  0  0  0  0  0  0  0  0  0  0
   -1.9431   -1.0889   14.0634 C   0  0  0  0  0  0  0  0  0  0  0  0
   -2.7491   -0.3514   13.2105 O   0  0  0  0  0  0  0  0  0  0  0  0
   -2.2119    0.5324   12.2516 C   0  0  0  0  0  0  0  0  0  0  0  0
   -5.3465   -3.2543   13.5751 H   0  0  0  0  0  0  0  0  0  0  0  0
   -3.9677   -2.5547   12.6609 H   0  0  0  0  0  0  0  0  0  0  0  0
   -3.7527   -4.0827   13.5805 H   0  0  0  0  0  0  0  0  0  0  0  0
   -2.2063   -3.6632   16.2546 H   0  0  0  0  0  0  0  0  0  0  0  0
   -0.2190   -2.3842   16.8813 H   0  0  0  0  0  0  0  0  0  0  0  0
    0.1332   -3.5393   15.5514 H   0  0  0  0  0  0  0  0  0  0  0  0
    5.1512    1.9270   13.2499 H   0  0  0  0  0  0  0  0  0  0  0  0
    6.8370    0.8828   15.3064 H   0  0  0  0  0  0  0  0  0  0  0  0
    6.2616   -0.7792   17.3368 H   0  0  0  0  0  0  0  0  0  0  0  0
    4.6093    2.3671   11.2368 H   0  0  0  0  0  0  0  0  0  0  0  0
    3.8352    3.8101    9.3923 H   0  0  0  0  0  0  0  0  0  0  0  0
    1.4527    4.4409    9.2105 H   0  0  0  0  0  0  0  0  0  0  0  0
    0.6038    2.1968   12.7796 H   0  0  0  0  0  0  0  0  0  0  0  0
   -2.2758    3.7103   11.5466 H   0  0  0  0  0  0  0  0  0  0  0  0
   -1.9384    4.7610    9.9082 H   0  0  0  0  0  0  0  0  0  0  0  0
   -0.0925   -0.0294   13.6121 H   0  0  0  0  0  0  0  0  0  0  0  0
   -3.0303    1.0068   11.6903 H   0  0  0  0  0  0  0  0  0  0  0  0
   -1.6182    1.3070   12.7590 H   0  0  0  0  0  0  0  0  0  0  0  0
   -1.5677   -0.0273   11.5575 H   0  0  0  0  0  0  0  0  0  0  0  0
  1  2  1  0  0  0  0
  2  3  1  0  0  0  0
  3  4  2  0  0  0  0
  3 27  1  0  0  0  0
  4  5  1  0  0  0  0
  5  6  1  0  0  0  0
  6  7  2  0  0  0  0
  6 26  1  0  0  0  0
  7  8  1  0  0  0  0
  8  9  2  0  0  0  0
  8 16  1  0  0  0  0
  9 10  1  0  0  0  0
 10 11  2  0  0  0  0
 10 17  1  0  0  0  0
 11 12  1  0  0  0  0
 12 13  1  0  0  0  0
 12 16  1  0  0  0  0
 13 14  2  0  0  0  0
 14 15  1  0  0  0  0
 15 16  2  0  0  0  0
 17 18  2  0  0  0  0
 17 22  1  0  0  0  0
 18 19  1  0  0  0  0
 19 20  2  0  0  0  0
 20 21  1  0  0  0  0
 21 22  2  0  0  0  0
 21 23  1  0  0  0  0
 23 24  1  0  0  0  0
 23 25  2  0  0  0  0
 26 27  2  0  0  0  0
 27 28  1  0  0  0  0
 28 29  1  0  0  0  0
  1 30  1  0  0  0  0
  1 31  1  0  0  0  0
  1 32  1  0  0  0  0
  4 33  1  0  0  0  0
  5 34  1  0  0  0  0
  5 35  1  0  0  0  0
 11 36  1  0  0  0  0
 13 37  1  0  0  0  0
 14 38  1  0  0  0  0
 18 39  1  0  0  0  0
 19 40  1  0  0  0  0
 20 41  1  0  0  0  0
 22 42  1  0  0  0  0
 24 43  1  0  0  0  0
 25 44  1  0  0  0  0
 26 45  1  0  0  0  0
 29 46  1  0  0  0  0
 29 47  1  0  0  0  0
 29 48  1  0  0  0  0
M  END
> <IC50[nM]>
27.1

$$$$
CHEMBL3265005
  -OEChem-05192314333D
 Structure written by MMmdl.
 48 51  0     0  0  0  0  0  0999 V2000
   -4.2567   -3.1050   13.5684 C   0  0  0  0  0  0  0  0  0  0  0  0
   -3.8734   -2.3611   14.7148 O   0  0  0  0  0  0  0  0  0  0  0  0
   -2.5247   -2.1101   14.8166 C   0  0  0  0  0  0  0  0  0  0  0  0
   -1.7507   -2.8683   15.6828 C   0  0  0  0  0  0  0  0  0  0  0  0
   -0.3911   -2.6099   15.8185 C   0  0  0  0  0  0  0  0  0  0  0  0
    0.2170   -1.5863   15.0905 C   0  0  0  0  0  0  0  0  0  0  0  0
    1.6046   -1.3615   15.3286 N   0  0  0  0  0  0  0  0  0  0  0  0
    2.5322   -0.4485   14.7676 C   0  0  0  0  0  0  0  0  0  0  0  0
    2.1746    0.3813   13.7360 N   0  0  0  0  0  0  0  0  0  0  0  0
    3.1152    1.2349   13.2220 C   0  0  0  0  0  0  0  0  0  0  0  0
    4.4162    1.2784   13.7032 C   0  0  0  0  0  0  0  0  0  0  0  0
    4.7450    0.4849   14.7598 N   0  0  0  0  0  0  0  0  0  0  0  0
    5.8984    0.3795   15.4856 C   0  0  0  0  0  0  0  0  0  0  0  0
    5.5934   -0.5343   16.5244 C   0  0  0  0  0  0  0  0  0  0  0  0
    4.3805   -1.0504   16.3702 N   0  0  0  0  0  0  0  0  0  0  0  0
    3.8378   -0.3985   15.3258 C   0  0  0  0  0  0  0  0  0  0  0  0
    2.6545    2.1505   12.1229 C   0  0  0  0  0  0  0  0  0  0  0  0
    3.5650    2.6332   11.1660 C   0  0  0  0  0  0  0  0  0  0  0  0
    3.1279    3.4532   10.1263 C   0  0  0  0  0  0  0  0  0  0  0  0
    1.7853    3.8163   10.0263 C   0  0  0  0  0  0  0  0  0  0  0  0
    0.8655    3.3670   10.9906 C   0  0  0  0  0  0  0  0  0  0  0  0
    1.3076    2.5389   12.0352 C   0  0  0  0  0  0  0  0  0  0  0  0
   -0.6125    3.7616   10.9140 C   0  0  0  0  0  0  0  0  0  0  0  0
   -1.4124    3.3703   11.7502 O   0  0  0  0  0  0  0  0  0  0  0  0
   -0.9623    4.5440    9.8958 N   0  0  0  0  0  0  0  0  0  0  0  0
   -0.5525   -0.8154   14.1926 C   0  0  0  0  0  0  0  0  0  0  0  0
   -1.9431   -1.0889   14.0634 C   0  0  0  0  0  0  0  0  0  0  0  0
   -2.7491   -0.3514   13.2105 O   0  0  0  0  0  0  0  0  0  0  0  0
   -2.2119    0.5324   12.2516 C   0  0  0  0  0  0  0  0  0  0  0  0
   -5.3465   -3.2543   13.5751 H   0  0  0  0  0  0  0  0  0  0  0  0
   -3.9677   -2.5547   12.6609 H   0  0  0  0  0  0  0  0  0  0  0  0
   -3.7527   -4.0827   13.5805 H   0  0  0  0  0  0  0  0  0  0  0  0
   -2.2063   -3.6632   16.2546 H   0  0  0  0  0  0  0  0  0  0  0  0
    0.2010   -3.2082   16.4951 H   0  0  0  0  0  0  0  0  0  0  0  0
    5.1512    1.9270   13.2499 H   0  0  0  0  0  0  0  0  0  0  0  0
    6.8370    0.8828   15.3064 H   0  0  0  0  0  0  0  0  0  0  0  0
    6.2616   -0.7792   17.3368 H   0  0  0  0  0  0  0  0  0  0  0  0
    4.6093    2.3671   11.2368 H   0  0  0  0  0  0  0  0  0  0  0  0
    3.8352    3.8101    9.3923 H   0  0  0  0  0  0  0  0  0  0  0  0
    1.4527    4.4409    9.2105 H   0  0  0  0  0  0  0  0  0  0  0  0
    0.6038    2.1968   12.7796 H   0  0  0  0  0  0  0  0  0  0  0  0
   -2.2758    3.7103   11.5466 H   0  0  0  0  0  0  0  0  0  0  0  0
   -1.9384    4.7610    9.9082 H   0  0  0  0  0  0  0  0  0  0  0  0
   -0.4585    0.2345   14.5071 H   0  0  0  0  0  0  0  0  0  0  0  0
   -0.1055   -0.9409   13.1954 H   0  0  0  0  0  0  0  0  0  0  0  0
   -3.0303    1.0068   11.6903 H   0  0  0  0  0  0  0  0  0  0  0  0
   -1.6182    1.3070   12.7590 H   0  0  0  0  0  0  0  0  0  0  0  0
   -1.5677   -0.0273   11.5575 H   0  0  0  0  0  0  0  0  0  0  0  0
  1  2  1  0  0  0  0
  2  3  1  0  0  0  0
  3  4  1  0  0  0  0
  3 27  2  0  0  0  0
  4  5  2  0  0  0  0
  5  6  1  0  0  0  0
  6  7  2  0  0  0  0
  6 26  1  0  0  0  0
  7  8  1  0  0  0  0
  8  9  2  0  0  0  0
  8 16  1  0  0  0  0
  9 10  1  0  0  0  0
 10 11  2  0  0  0  0
 10 17  1  0  0  0  0
 11 12  1  0  0  0  0
 12 13  1  0  0  0  0
 12 16  1  0  0  0  0
 13 14  2  0  0  0  0
 14 15  1  0  0  0  0
 15 16  2  0  0  0  0
 17 18  2  0  0  0  0
 17 22  1  0  0  0  0
 18 19  1  0  0  0  0
 19 20  2  0  0  0  0
 20 21  1  0  0  0  0
 21 22  2  0  0  0  0
 21 23  1  0  0  0  0
 23 24  1  0  0  0  0
 23 25  2  0  0  0  0
 26 27  1  0  0  0  0
 27 28  1  0  0  0  0
 28 29  1  0  0  0  0
  1 30  1  0  0  0  0
  1 31  1  0  0  0  0
  1 32  1  0  0  0  0
  4 33  1  0  0  0  0
  5 34  1  0  0  0  0
 11 35  1  0  0  0  0
 13 36  1  0  0  0  0
 14 37  1  0  0  0  0
 18 38  1  0  0  0  0
 19 39  1  0  0  0  0
 20 40  1  0  0  0  0
 22 41  1  0  0  0  0
 24 42  1  0  0  0  0
 25 43  1  0  0  0  0
 26 44  1  0  0  0  0
 26 45  1  0  0  0  0
 29 46  1  0  0  0  0
 29 47  1  0  0  0  0
 29 48  1  0  0  0  0
M  END
> <IC50[nM]>
27.1

$$$$
