CHEMBL3265030_n
  -OEChem-05192314333D
 Structure written by MMmdl.
 52 57  0     0  0  0  0  0  0999 V2000
   -6.0443   -4.4602   16.2962 C   0  0  0  0  0  0  0  0  0  0  0  0
   -5.6240   -3.4001   15.2728 C   0  0  0  0  0  0  0  0  0  0  0  0
   -6.7329   -2.9884   14.5080 O   0  0  0  0  0  0  0  0  0  0  0  0
   -4.7833   -2.2666   15.8350 C   0  0  0  0  0  0  0  0  0  0  0  0
   -3.8370   -2.3937   14.7064 N   0  0  0  0  0  0  0  0  0  0  0  0
   -4.3873   -3.7457   14.4627 C   0  0  0  0  0  0  0  0  0  0  0  0
   -2.4739   -2.0989   14.7890 C   0  0  0  0  0  0  0  0  0  0  0  0
   -1.8935   -1.0737   14.0433 C   0  0  0  0  0  0  0  0  0  0  0  0
   -0.5352   -0.8073   14.1963 C   0  0  0  0  0  0  0  0  0  0  0  0
    0.2332   -1.5617   15.0991 C   0  0  0  0  0  0  0  0  0  0  0  0
    1.5948   -1.3216   15.3436 N   0  0  0  0  0  0  0  0  0  0  0  0
    2.5323   -0.4320   14.7835 C   0  0  0  0  0  0  0  0  0  0  0  0
    2.1832    0.3856   13.7527 N   0  0  0  0  0  0  0  0  0  0  0  0
    3.0997    1.2392   13.2138 C   0  0  0  0  0  0  0  0  0  0  0  0
    4.4085    1.2886   13.6971 C   0  0  0  0  0  0  0  0  0  0  0  0
    4.7393    0.4966   14.7557 N   0  0  0  0  0  0  0  0  0  0  0  0
    5.8912    0.3843   15.4874 C   0  0  0  0  0  0  0  0  0  0  0  0
    5.6000   -0.5403   16.4969 C   0  0  0  0  0  0  0  0  0  0  0  0
    4.3900   -1.0499   16.3863 N   0  0  0  0  0  0  0  0  0  0  0  0
    3.8285   -0.3910   15.3363 C   0  0  0  0  0  0  0  0  0  0  0  0
    2.6272    2.1508   12.1213 C   0  0  0  0  0  0  0  0  0  0  0  0
    3.5370    2.6346   11.1631 C   0  0  0  0  0  0  0  0  0  0  0  0
    3.1492    3.4622   10.1085 C   0  0  0  0  0  0  0  0  0  0  0  0
    1.8011    3.8208   10.0156 C   0  0  0  0  0  0  0  0  0  0  0  0
    0.9990    4.5979    9.1271 C   0  0  0  0  0  0  0  0  0  0  0  0
   -0.2497    4.6170    9.5128 N   0  0  0  0  0  0  0  0  0  0  0  0
   -0.3315    3.8838   10.6343 N   0  0  0  0  0  0  0  0  0  0  0  0
    0.8874    3.3527   10.9946 C   0  0  0  0  0  0  0  0  0  0  0  0
    1.2729    2.5247   12.0514 C   0  0  0  0  0  0  0  0  0  0  0  0
   -0.3672   -2.5916   15.8262 C   0  0  0  0  0  0  0  0  0  0  0  0
   -1.7168   -2.8552   15.6739 C   0  0  0  0  0  0  0  0  0  0  0  0
   -5.1681   -4.7705   16.8844 H   0  0  0  0  0  0  0  0  0  0  0  0
   -6.8064   -4.0390   16.9683 H   0  0  0  0  0  0  0  0  0  0  0  0
   -6.4606   -5.3323   15.7707 H   0  0  0  0  0  0  0  0  0  0  0  0
   -6.4580   -2.3321   13.8786 H   0  0  0  0  0  0  0  0  0  0  0  0
   -5.3055   -1.2992   15.8742 H   0  0  0  0  0  0  0  0  0  0  0  0
   -4.3393   -2.4837   16.8177 H   0  0  0  0  0  0  0  0  0  0  0  0
   -3.7836   -4.5587   14.8924 H   0  0  0  0  0  0  0  0  0  0  0  0
   -4.5919   -3.9613   13.4036 H   0  0  0  0  0  0  0  0  0  0  0  0
   -2.4902   -0.4931   13.3553 H   0  0  0  0  0  0  0  0  0  0  0  0
   -0.0718   -0.0199   13.6204 H   0  0  0  0  0  0  0  0  0  0  0  0
    1.9776   -1.9011   16.0631 H   0  0  0  0  0  0  0  0  0  0  0  0
    5.1414    1.9390   13.2429 H   0  0  0  0  0  0  0  0  0  0  0  0
    6.8256    0.8996   15.3209 H   0  0  0  0  0  0  0  0  0  0  0  0
    6.2923   -0.8072   17.2817 H   0  0  0  0  0  0  0  0  0  0  0  0
    4.5766    2.3543   11.2471 H   0  0  0  0  0  0  0  0  0  0  0  0
    3.8694    3.8153    9.3853 H   0  0  0  0  0  0  0  0  0  0  0  0
    1.3748    5.1042    8.2503 H   0  0  0  0  0  0  0  0  0  0  0  0
   -1.1775    3.7401   11.1477 H   0  0  0  0  0  0  0  0  0  0  0  0
    0.5586    2.1846   12.7866 H   0  0  0  0  0  0  0  0  0  0  0  0
    0.2235   -3.1840   16.5093 H   0  0  0  0  0  0  0  0  0  0  0  0
   -2.1807   -3.6478   16.2422 H   0  0  0  0  0  0  0  0  0  0  0  0
  1  2  1  0  0  0  0
  2  3  1  0  0  0  0
  2  4  1  0  0  0  0
  2  6  1  0  0  0  0
  4  5  1  0  0  0  0
  5  6  1  0  0  0  0
  5  7  1  0  0  0  0
  7  8  2  0  0  0  0
  7 31  1  0  0  0  0
  8  9  1  0  0  0  0
  9 10  2  0  0  0  0
 10 11  1  0  0  0  0
 10 30  1  0  0  0  0
 11 12  1  0  0  0  0
 12 13  2  0  0  0  0
 12 20  1  0  0  0  0
 13 14  1  0  0  0  0
 14 15  2  0  0  0  0
 14 21  1  0  0  0  0
 15 16  1  0  0  0  0
 16 17  1  0  0  0  0
 16 20  1  0  0  0  0
 17 18  2  0  0  0  0
 18 19  1  0  0  0  0
 19 20  2  0  0  0  0
 21 22  2  0  0  0  0
 21 29  1  0  0  0  0
 22 23  1  0  0  0  0
 23 24  2  0  0  0  0
 24 25  1  0  0  0  0
 24 28  1  0  0  0  0
 25 26  2  0  0  0  0
 26 27  1  0  0  0  0
 27 28  1  0  0  0  0
 28 29  2  0  0  0  0
 30 31  2  0  0  0  0
  1 32  1  0  0  0  0
  1 33  1  0  0  0  0
  1 34  1  0  0  0  0
  3 35  1  0  0  0  0
  4 36  1  0  0  0  0
  4 37  1  0  0  0  0
  6 38  1  0  0  0  0
  6 39  1  0  0  0  0
  8 40  1  0  0  0  0
  9 41  1  0  0  0  0
 11 42  1  0  0  0  0
 15 43  1  0  0  0  0
 17 44  1  0  0  0  0
 18 45  1  0  0  0  0
 22 46  1  0  0  0  0
 23 47  1  0  0  0  0
 25 48  1  0  0  0  0
 27 49  1  0  0  0  0
 29 50  1  0  0  0  0
 30 51  1  0  0  0  0
 31 52  1  0  0  0  0
M  END
> <IC50[nM]>
3.9

$$$$
CHEMBL3265030_n
  -OEChem-05192314333D
 Structure written by MMmdl.
 52 57  0     0  0  0  0  0  0999 V2000
   -6.0443   -4.4602   16.2962 C   0  0  0  0  0  0  0  0  0  0  0  0
   -5.6240   -3.4001   15.2728 C   0  0  0  0  0  0  0  0  0  0  0  0
   -6.7329   -2.9884   14.5080 O   0  0  0  0  0  0  0  0  0  0  0  0
   -4.7833   -2.2666   15.8350 C   0  0  0  0  0  0  0  0  0  0  0  0
   -3.8370   -2.3937   14.7064 N   0  0  0  0  0  0  0  0  0  0  0  0
   -4.3873   -3.7457   14.4627 C   0  0  0  0  0  0  0  0  0  0  0  0
   -2.4739   -2.0989   14.7890 C   0  0  0  0  0  0  0  0  0  0  0  0
   -1.8935   -1.0737   14.0433 C   0  0  0  0  0  0  0  0  0  0  0  0
   -0.5352   -0.8073   14.1963 C   0  0  0  0  0  0  0  0  0  0  0  0
    0.2332   -1.5617   15.0991 C   0  0  0  0  0  0  0  0  0  0  0  0
    1.5948   -1.3216   15.3436 N   0  0  0  0  0  0  0  0  0  0  0  0
    2.5323   -0.4320   14.7835 C   0  0  0  0  0  0  0  0  0  0  0  0
    2.1832    0.3856   13.7527 N   0  0  0  0  0  0  0  0  0  0  0  0
    3.0997    1.2392   13.2138 C   0  0  0  0  0  0  0  0  0  0  0  0
    4.4085    1.2886   13.6971 C   0  0  0  0  0  0  0  0  0  0  0  0
    4.7393    0.4966   14.7557 N   0  0  0  0  0  0  0  0  0  0  0  0
    5.8912    0.3843   15.4874 C   0  0  0  0  0  0  0  0  0  0  0  0
    5.6000   -0.5403   16.4969 C   0  0  0  0  0  0  0  0  0  0  0  0
    4.3900   -1.0499   16.3863 N   0  0  0  0  0  0  0  0  0  0  0  0
    3.8285   -0.3910   15.3363 C   0  0  0  0  0  0  0  0  0  0  0  0
    2.6272    2.1508   12.1213 C   0  0  0  0  0  0  0  0  0  0  0  0
    3.5370    2.6346   11.1631 C   0  0  0  0  0  0  0  0  0  0  0  0
    3.1492    3.4622   10.1085 C   0  0  0  0  0  0  0  0  0  0  0  0
    1.8011    3.8208   10.0156 C   0  0  0  0  0  0  0  0  0  0  0  0
    0.9990    4.5979    9.1271 C   0  0  0  0  0  0  0  0  0  0  0  0
   -0.2497    4.6170    9.5128 N   0  0  0  0  0  0  0  0  0  0  0  0
   -0.3315    3.8838   10.6343 N   0  0  0  0  0  0  0  0  0  0  0  0
    0.8874    3.3527   10.9946 C   0  0  0  0  0  0  0  0  0  0  0  0
    1.2729    2.5247   12.0514 C   0  0  0  0  0  0  0  0  0  0  0  0
   -0.3672   -2.5916   15.8262 C   0  0  0  0  0  0  0  0  0  0  0  0
   -1.7168   -2.8552   15.6739 C   0  0  0  0  0  0  0  0  0  0  0  0
   -5.1681   -4.7705   16.8844 H   0  0  0  0  0  0  0  0  0  0  0  0
   -6.8064   -4.0390   16.9683 H   0  0  0  0  0  0  0  0  0  0  0  0
   -6.4606   -5.3323   15.7707 H   0  0  0  0  0  0  0  0  0  0  0  0
   -6.4580   -2.3321   13.8786 H   0  0  0  0  0  0  0  0  0  0  0  0
   -5.3055   -1.2992   15.8742 H   0  0  0  0  0  0  0  0  0  0  0  0
   -4.3393   -2.4837   16.8177 H   0  0  0  0  0  0  0  0  0  0  0  0
   -3.7836   -4.5587   14.8924 H   0  0  0  0  0  0  0  0  0  0  0  0
   -4.5919   -3.9613   13.4036 H   0  0  0  0  0  0  0  0  0  0  0  0
   -2.4902   -0.4931   13.3553 H   0  0  0  0  0  0  0  0  0  0  0  0
   -0.0718   -0.0199   13.6204 H   0  0  0  0  0  0  0  0  0  0  0  0
    1.9776   -1.9011   16.0631 H   0  0  0  0  0  0  0  0  0  0  0  0
    5.1414    1.9390   13.2429 H   0  0  0  0  0  0  0  0  0  0  0  0
    6.8256    0.8996   15.3209 H   0  0  0  0  0  0  0  0  0  0  0  0
    6.2923   -0.8072   17.2817 H   0  0  0  0  0  0  0  0  0  0  0  0
    4.5766    2.3543   11.2471 H   0  0  0  0  0  0  0  0  0  0  0  0
    3.8694    3.8153    9.3853 H   0  0  0  0  0  0  0  0  0  0  0  0
    1.3748    5.1042    8.2503 H   0  0  0  0  0  0  0  0  0  0  0  0
   -1.0039    5.0899    9.0572 H   0  0  0  0  0  0  0  0  0  0  0  0
    0.5586    2.1846   12.7866 H   0  0  0  0  0  0  0  0  0  0  0  0
    0.2235   -3.1840   16.5093 H   0  0  0  0  0  0  0  0  0  0  0  0
   -2.1807   -3.6478   16.2422 H   0  0  0  0  0  0  0  0  0  0  0  0
  1  2  1  0  0  0  0
  2  3  1  0  0  0  0
  2  4  1  0  0  0  0
  2  6  1  0  0  0  0
  4  5  1  0  0  0  0
  5  6  1  0  0  0  0
  5  7  1  0  0  0  0
  7  8  2  0  0  0  0
  7 31  1  0  0  0  0
  8  9  1  0  0  0  0
  9 10  2  0  0  0  0
 10 11  1  0  0  0  0
 10 30  1  0  0  0  0
 11 12  1  0  0  0  0
 12 13  2  0  0  0  0
 12 20  1  0  0  0  0
 13 14  1  0  0  0  0
 14 15  2  0  0  0  0
 14 21  1  0  0  0  0
 15 16  1  0  0  0  0
 16 17  1  0  0  0  0
 16 20  1  0  0  0  0
 17 18  2  0  0  0  0
 18 19  1  0  0  0  0
 19 20  2  0  0  0  0
 21 22  1  0  0  0  0
 21 29  2  0  0  0  0
 22 23  2  0  0  0  0
 23 24  1  0  0  0  0
 24 25  2  0  0  0  0
 24 28  1  0  0  0  0
 25 26  1  0  0  0  0
 26 27  1  0  0  0  0
 27 28  2  0  0  0  0
 28 29  1  0  0  0  0
 30 31  2  0  0  0  0
  1 32  1  0  0  0  0
  1 33  1  0  0  0  0
  1 34  1  0  0  0  0
  3 35  1  0  0  0  0
  4 36  1  0  0  0  0
  4 37  1  0  0  0  0
  6 38  1  0  0  0  0
  6 39  1  0  0  0  0
  8 40  1  0  0  0  0
  9 41  1  0  0  0  0
 11 42  1  0  0  0  0
 15 43  1  0  0  0  0
 17 44  1  0  0  0  0
 18 45  1  0  0  0  0
 22 46  1  0  0  0  0
 23 47  1  0  0  0  0
 25 48  1  0  0  0  0
 26 49  1  0  0  0  0
 29 50  1  0  0  0  0
 30 51  1  0  0  0  0
 31 52  1  0  0  0  0
M  END
> <IC50[nM]>
3.9

$$$$
CHEMBL3265030_n
  -OEChem-05192314333D
 Structure written by MMmdl.
 52 57  0     0  0  0  0  0  0999 V2000
   -6.0443   -4.4602   16.2962 C   0  0  0  0  0  0  0  0  0  0  0  0
   -5.6240   -3.4001   15.2728 C   0  0  0  0  0  0  0  0  0  0  0  0
   -6.7329   -2.9884   14.5080 O   0  0  0  0  0  0  0  0  0  0  0  0
   -4.7833   -2.2666   15.8350 C   0  0  0  0  0  0  0  0  0  0  0  0
   -3.8370   -2.3937   14.7064 N   0  0  0  0  0  0  0  0  0  0  0  0
   -4.3873   -3.7457   14.4627 C   0  0  0  0  0  0  0  0  0  0  0  0
   -2.4739   -2.0989   14.7890 C   0  0  0  0  0  0  0  0  0  0  0  0
   -1.8935   -1.0737   14.0433 C   0  0  0  0  0  0  0  0  0  0  0  0
   -0.5352   -0.8073   14.1963 C   0  0  0  0  0  0  0  0  0  0  0  0
    0.2332   -1.5617   15.0991 C   0  0  0  0  0  0  0  0  0  0  0  0
    1.5948   -1.3216   15.3436 N   0  0  0  0  0  0  0  0  0  0  0  0
    2.5323   -0.4320   14.7835 C   0  0  0  0  0  0  0  0  0  0  0  0
    2.1832    0.3856   13.7527 N   0  0  0  0  0  0  0  0  0  0  0  0
    3.0997    1.2392   13.2138 C   0  0  0  0  0  0  0  0  0  0  0  0
    4.4085    1.2886   13.6971 C   0  0  0  0  0  0  0  0  0  0  0  0
    4.7393    0.4966   14.7557 N   0  0  0  0  0  0  0  0  0  0  0  0
    5.8912    0.3843   15.4874 C   0  0  0  0  0  0  0  0  0  0  0  0
    5.6000   -0.5403   16.4969 C   0  0  0  0  0  0  0  0  0  0  0  0
    4.3900   -1.0499   16.3863 N   0  0  0  0  0  0  0  0  0  0  0  0
    3.8285   -0.3910   15.3363 C   0  0  0  0  0  0  0  0  0  0  0  0
    2.6272    2.1508   12.1213 C   0  0  0  0  0  0  0  0  0  0  0  0
    3.5370    2.6346   11.1631 C   0  0  0  0  0  0  0  0  0  0  0  0
    3.1492    3.4622   10.1085 C   0  0  0  0  0  0  0  0  0  0  0  0
    1.8011    3.8208   10.0156 C   0  0  0  0  0  0  0  0  0  0  0  0
    0.9990    4.5979    9.1271 C   0  0  0  0  0  0  0  0  0  0  0  0
   -0.2497    4.6170    9.5128 N   0  0  0  0  0  0  0  0  0  0  0  0
   -0.3315    3.8838   10.6343 N   0  0  0  0  0  0  0  0  0  0  0  0
    0.8874    3.3527   10.9946 C   0  0  0  0  0  0  0  0  0  0  0  0
    1.2729    2.5247   12.0514 C   0  0  0  0  0  0  0  0  0  0  0  0
   -0.3672   -2.5916   15.8262 C   0  0  0  0  0  0  0  0  0  0  0  0
   -1.7168   -2.8552   15.6739 C   0  0  0  0  0  0  0  0  0  0  0  0
   -5.1681   -4.7705   16.8844 H   0  0  0  0  0  0  0  0  0  0  0  0
   -6.8064   -4.0390   16.9683 H   0  0  0  0  0  0  0  0  0  0  0  0
   -6.4606   -5.3323   15.7707 H   0  0  0  0  0  0  0  0  0  0  0  0
   -6.4580   -2.3321   13.8786 H   0  0  0  0  0  0  0  0  0  0  0  0
   -5.3055   -1.2992   15.8742 H   0  0  0  0  0  0  0  0  0  0  0  0
   -4.3393   -2.4837   16.8177 H   0  0  0  0  0  0  0  0  0  0  0  0
   -3.7836   -4.5587   14.8924 H   0  0  0  0  0  0  0  0  0  0  0  0
   -4.5919   -3.9613   13.4036 H   0  0  0  0  0  0  0  0  0  0  0  0
   -2.4902   -0.4931   13.3553 H   0  0  0  0  0  0  0  0  0  0  0  0
   -0.0718   -0.0199   13.6204 H   0  0  0  0  0  0  0  0  0  0  0  0
    1.2518    0.3601   13.3896 H   0  0  0  0  0  0  0  0  0  0  0  0
    5.1414    1.9390   13.2429 H   0  0  0  0  0  0  0  0  0  0  0  0
    6.8256    0.8996   15.3209 H   0  0  0  0  0  0  0  0  0  0  0  0
    6.2923   -0.8072   17.2817 H   0  0  0  0  0  0  0  0  0  0  0  0
    4.5766    2.3543   11.2471 H   0  0  0  0  0  0  0  0  0  0  0  0
    3.8694    3.8153    9.3853 H   0  0  0  0  0  0  0  0  0  0  0  0
    1.3748    5.1042    8.2503 H   0  0  0  0  0  0  0  0  0  0  0  0
   -1.1775    3.7401   11.1477 H   0  0  0  0  0  0  0  0  0  0  0  0
    0.5586    2.1846   12.7866 H   0  0  0  0  0  0  0  0  0  0  0  0
    0.2235   -3.1840   16.5093 H   0  0  0  0  0  0  0  0  0  0  0  0
   -2.1807   -3.6478   16.2422 H   0  0  0  0  0  0  0  0  0  0  0  0
  1  2  1  0  0  0  0
  2  3  1  0  0  0  0
  2  4  1  0  0  0  0
  2  6  1  0  0  0  0
  4  5  1  0  0  0  0
  5  6  1  0  0  0  0
  5  7  1  0  0  0  0
  7  8  2  0  0  0  0
  7 31  1  0  0  0  0
  8  9  1  0  0  0  0
  9 10  2  0  0  0  0
 10 11  1  0  0  0  0
 10 30  1  0  0  0  0
 11 12  2  0  0  0  0
 12 13  1  0  0  0  0
 12 20  1  0  0  0  0
 13 14  1  0  0  0  0
 14 15  2  0  0  0  0
 14 21  1  0  0  0  0
 15 16  1  0  0  0  0
 16 17  1  0  0  0  0
 16 20  1  0  0  0  0
 17 18  2  0  0  0  0
 18 19  1  0  0  0  0
 19 20  2  0  0  0  0
 21 22  2  0  0  0  0
 21 29  1  0  0  0  0
 22 23  1  0  0  0  0
 23 24  2  0  0  0  0
 24 25  1  0  0  0  0
 24 28  1  0  0  0  0
 25 26  2  0  0  0  0
 26 27  1  0  0  0  0
 27 28  1  0  0  0  0
 28 29  2  0  0  0  0
 30 31  2  0  0  0  0
  1 32  1  0  0  0  0
  1 33  1  0  0  0  0
  1 34  1  0  0  0  0
  3 35  1  0  0  0  0
  4 36  1  0  0  0  0
  4 37  1  0  0  0  0
  6 38  1  0  0  0  0
  6 39  1  0  0  0  0
  8 40  1  0  0  0  0
  9 41  1  0  0  0  0
 13 42  1  0  0  0  0
 15 43  1  0  0  0  0
 17 44  1  0  0  0  0
 18 45  1  0  0  0  0
 22 46  1  0  0  0  0
 23 47  1  0  0  0  0
 25 48  1  0  0  0  0
 27 49  1  0  0  0  0
 29 50  1  0  0  0  0
 30 51  1  0  0  0  0
 31 52  1  0  0  0  0
M  END
> <IC50[nM]>
3.9

$$$$
CHEMBL3265030_n
  -OEChem-05192314333D
 Structure written by MMmdl.
 52 57  0     0  0  0  0  0  0999 V2000
   -6.0443   -4.4602   16.2962 C   0  0  0  0  0  0  0  0  0  0  0  0
   -5.6240   -3.4001   15.2728 C   0  0  0  0  0  0  0  0  0  0  0  0
   -6.7329   -2.9884   14.5080 O   0  0  0  0  0  0  0  0  0  0  0  0
   -4.7833   -2.2666   15.8350 C   0  0  0  0  0  0  0  0  0  0  0  0
   -3.8370   -2.3937   14.7064 N   0  0  0  0  0  0  0  0  0  0  0  0
   -4.3873   -3.7457   14.4627 C   0  0  0  0  0  0  0  0  0  0  0  0
   -2.4739   -2.0989   14.7890 C   0  0  0  0  0  0  0  0  0  0  0  0
   -1.8935   -1.0737   14.0433 C   0  0  0  0  0  0  0  0  0  0  0  0
   -0.5352   -0.8073   14.1963 C   0  0  0  0  0  0  0  0  0  0  0  0
    0.2332   -1.5617   15.0991 C   0  0  0  0  0  0  0  0  0  0  0  0
    1.5948   -1.3216   15.3436 N   0  0  0  0  0  0  0  0  0  0  0  0
    2.5323   -0.4320   14.7835 C   0  0  0  0  0  0  0  0  0  0  0  0
    2.1832    0.3856   13.7527 N   0  0  0  0  0  0  0  0  0  0  0  0
    3.0997    1.2392   13.2138 C   0  0  0  0  0  0  0  0  0  0  0  0
    4.4085    1.2886   13.6971 C   0  0  0  0  0  0  0  0  0  0  0  0
    4.7393    0.4966   14.7557 N   0  0  0  0  0  0  0  0  0  0  0  0
    5.8912    0.3843   15.4874 C   0  0  0  0  0  0  0  0  0  0  0  0
    5.6000   -0.5403   16.4969 C   0  0  0  0  0  0  0  0  0  0  0  0
    4.3900   -1.0499   16.3863 N   0  0  0  0  0  0  0  0  0  0  0  0
    3.8285   -0.3910   15.3363 C   0  0  0  0  0  0  0  0  0  0  0  0
    2.6272    2.1508   12.1213 C   0  0  0  0  0  0  0  0  0  0  0  0
    3.5370    2.6346   11.1631 C   0  0  0  0  0  0  0  0  0  0  0  0
    3.1492    3.4622   10.1085 C   0  0  0  0  0  0  0  0  0  0  0  0
    1.8011    3.8208   10.0156 C   0  0  0  0  0  0  0  0  0  0  0  0
    0.9990    4.5979    9.1271 C   0  0  0  0  0  0  0  0  0  0  0  0
   -0.2497    4.6170    9.5128 N   0  0  0  0  0  0  0  0  0  0  0  0
   -0.3315    3.8838   10.6343 N   0  0  0  0  0  0  0  0  0  0  0  0
    0.8874    3.3527   10.9946 C   0  0  0  0  0  0  0  0  0  0  0  0
    1.2729    2.5247   12.0514 C   0  0  0  0  0  0  0  0  0  0  0  0
   -0.3672   -2.5916   15.8262 C   0  0  0  0  0  0  0  0  0  0  0  0
   -1.7168   -2.8552   15.6739 C   0  0  0  0  0  0  0  0  0  0  0  0
   -5.1681   -4.7705   16.8844 H   0  0  0  0  0  0  0  0  0  0  0  0
   -6.8064   -4.0390   16.9683 H   0  0  0  0  0  0  0  0  0  0  0  0
   -6.4606   -5.3323   15.7707 H   0  0  0  0  0  0  0  0  0  0  0  0
   -6.4580   -2.3321   13.8786 H   0  0  0  0  0  0  0  0  0  0  0  0
   -5.3055   -1.2992   15.8742 H   0  0  0  0  0  0  0  0  0  0  0  0
   -4.3393   -2.4837   16.8177 H   0  0  0  0  0  0  0  0  0  0  0  0
   -3.7836   -4.5587   14.8924 H   0  0  0  0  0  0  0  0  0  0  0  0
   -4.5919   -3.9613   13.4036 H   0  0  0  0  0  0  0  0  0  0  0  0
   -2.4902   -0.4931   13.3553 H   0  0  0  0  0  0  0  0  0  0  0  0
   -0.0718   -0.0199   13.6204 H   0  0  0  0  0  0  0  0  0  0  0  0
    1.2518    0.3601   13.3896 H   0  0  0  0  0  0  0  0  0  0  0  0
    5.1414    1.9390   13.2429 H   0  0  0  0  0  0  0  0  0  0  0  0
    6.8256    0.8996   15.3209 H   0  0  0  0  0  0  0  0  0  0  0  0
    6.2923   -0.8072   17.2817 H   0  0  0  0  0  0  0  0  0  0  0  0
    4.5766    2.3543   11.2471 H   0  0  0  0  0  0  0  0  0  0  0  0
    3.8694    3.8153    9.3853 H   0  0  0  0  0  0  0  0  0  0  0  0
    1.3748    5.1042    8.2503 H   0  0  0  0  0  0  0  0  0  0  0  0
   -1.0039    5.0899    9.0572 H   0  0  0  0  0  0  0  0  0  0  0  0
    0.5586    2.1846   12.7866 H   0  0  0  0  0  0  0  0  0  0  0  0
    0.2235   -3.1840   16.5093 H   0  0  0  0  0  0  0  0  0  0  0  0
   -2.1807   -3.6478   16.2422 H   0  0  0  0  0  0  0  0  0  0  0  0
  1  2  1  0  0  0  0
  2  3  1  0  0  0  0
  2  4  1  0  0  0  0
  2  6  1  0  0  0  0
  4  5  1  0  0  0  0
  5  6  1  0  0  0  0
  5  7  1  0  0  0  0
  7  8  2  0  0  0  0
  7 31  1  0  0  0  0
  8  9  1  0  0  0  0
  9 10  2  0  0  0  0
 10 11  1  0  0  0  0
 10 30  1  0  0  0  0
 11 12  2  0  0  0  0
 12 13  1  0  0  0  0
 12 20  1  0  0  0  0
 13 14  1  0  0  0  0
 14 15  2  0  0  0  0
 14 21  1  0  0  0  0
 15 16  1  0  0  0  0
 16 17  1  0  0  0  0
 16 20  1  0  0  0  0
 17 18  2  0  0  0  0
 18 19  1  0  0  0  0
 19 20  2  0  0  0  0
 21 22  1  0  0  0  0
 21 29  2  0  0  0  0
 22 23  2  0  0  0  0
 23 24  1  0  0  0  0
 24 25  2  0  0  0  0
 24 28  1  0  0  0  0
 25 26  1  0  0  0  0
 26 27  1  0  0  0  0
 27 28  2  0  0  0  0
 28 29  1  0  0  0  0
 30 31  2  0  0  0  0
  1 32  1  0  0  0  0
  1 33  1  0  0  0  0
  1 34  1  0  0  0  0
  3 35  1  0  0  0  0
  4 36  1  0  0  0  0
  4 37  1  0  0  0  0
  6 38  1  0  0  0  0
  6 39  1  0  0  0  0
  8 40  1  0  0  0  0
  9 41  1  0  0  0  0
 13 42  1  0  0  0  0
 15 43  1  0  0  0  0
 17 44  1  0  0  0  0
 18 45  1  0  0  0  0
 22 46  1  0  0  0  0
 23 47  1  0  0  0  0
 25 48  1  0  0  0  0
 26 49  1  0  0  0  0
 29 50  1  0  0  0  0
 30 51  1  0  0  0  0
 31 52  1  0  0  0  0
M  END
> <IC50[nM]>
3.9

$$$$
CHEMBL3265030_n
  -OEChem-05192314333D
 Structure written by MMmdl.
 52 57  0     0  0  0  0  0  0999 V2000
   -6.0443   -4.4602   16.2962 C   0  0  0  0  0  0  0  0  0  0  0  0
   -5.6240   -3.4001   15.2728 C   0  0  0  0  0  0  0  0  0  0  0  0
   -6.7329   -2.9884   14.5080 O   0  0  0  0  0  0  0  0  0  0  0  0
   -4.7833   -2.2666   15.8350 C   0  0  0  0  0  0  0  0  0  0  0  0
   -3.8370   -2.3937   14.7064 N   0  0  0  0  0  0  0  0  0  0  0  0
   -4.3873   -3.7457   14.4627 C   0  0  0  0  0  0  0  0  0  0  0  0
   -2.4739   -2.0989   14.7890 C   0  0  0  0  0  0  0  0  0  0  0  0
   -1.8935   -1.0737   14.0433 C   0  0  0  0  0  0  0  0  0  0  0  0
   -0.5352   -0.8073   14.1963 C   0  0  0  0  0  0  0  0  0  0  0  0
    0.2332   -1.5617   15.0991 C   0  0  0  0  0  0  0  0  0  0  0  0
    1.5948   -1.3216   15.3436 N   0  0  0  0  0  0  0  0  0  0  0  0
    2.5323   -0.4320   14.7835 C   0  0  0  0  0  0  0  0  0  0  0  0
    2.1832    0.3856   13.7527 N   0  0  0  0  0  0  0  0  0  0  0  0
    3.0997    1.2392   13.2138 C   0  0  0  0  0  0  0  0  0  0  0  0
    4.4085    1.2886   13.6971 C   0  0  0  0  0  0  0  0  0  0  0  0
    4.7393    0.4966   14.7557 N   0  0  0  0  0  0  0  0  0  0  0  0
    5.8912    0.3843   15.4874 C   0  0  0  0  0  0  0  0  0  0  0  0
    5.6000   -0.5403   16.4969 C   0  0  0  0  0  0  0  0  0  0  0  0
    4.3900   -1.0499   16.3863 N   0  0  0  0  0  0  0  0  0  0  0  0
    3.8285   -0.3910   15.3363 C   0  0  0  0  0  0  0  0  0  0  0  0
    2.6272    2.1508   12.1213 C   0  0  0  0  0  0  0  0  0  0  0  0
    3.5370    2.6346   11.1631 C   0  0  0  0  0  0  0  0  0  0  0  0
    3.1492    3.4622   10.1085 C   0  0  0  0  0  0  0  0  0  0  0  0
    1.8011    3.8208   10.0156 C   0  0  0  0  0  0  0  0  0  0  0  0
    0.9990    4.5979    9.1271 C   0  0  0  0  0  0  0  0  0  0  0  0
   -0.2497    4.6170    9.5128 N   0  0  0  0  0  0  0  0  0  0  0  0
   -0.3315    3.8838   10.6343 N   0  0  0  0  0  0  0  0  0  0  0  0
    0.8874    3.3527   10.9946 C   0  0  0  0  0  0  0  0  0  0  0  0
    1.2729    2.5247   12.0514 C   0  0  0  0  0  0  0  0  0  0  0  0
   -0.3672   -2.5916   15.8262 C   0  0  0  0  0  0  0  0  0  0  0  0
   -1.7168   -2.8552   15.6739 C   0  0  0  0  0  0  0  0  0  0  0  0
   -5.1681   -4.7705   16.8844 H   0  0  0  0  0  0  0  0  0  0  0  0
   -6.8064   -4.0390   16.9683 H   0  0  0  0  0  0  0  0  0  0  0  0
   -6.4606   -5.3323   15.7707 H   0  0  0  0  0  0  0  0  0  0  0  0
   -6.4580   -2.3321   13.8786 H   0  0  0  0  0  0  0  0  0  0  0  0
   -5.3055   -1.2992   15.8742 H   0  0  0  0  0  0  0  0  0  0  0  0
   -4.3393   -2.4837   16.8177 H   0  0  0  0  0  0  0  0  0  0  0  0
   -3.7836   -4.5587   14.8924 H   0  0  0  0  0  0  0  0  0  0  0  0
   -4.5919   -3.9613   13.4036 H   0  0  0  0  0  0  0  0  0  0  0  0
   -2.4902   -0.4931   13.3553 H   0  0  0  0  0  0  0  0  0  0  0  0
   -0.0718   -0.0199   13.6204 H   0  0  0  0  0  0  0  0  0  0  0  0
    1.9776   -1.9011   16.0631 H   0  0  0  0  0  0  0  0  0  0  0  0
    5.1414    1.9390   13.2429 H   0  0  0  0  0  0  0  0  0  0  0  0
    6.8256    0.8996   15.3209 H   0  0  0  0  0  0  0  0  0  0  0  0
    6.2923   -0.8072   17.2817 H   0  0  0  0  0  0  0  0  0  0  0  0
    4.5766    2.3543   11.2471 H   0  0  0  0  0  0  0  0  0  0  0  0
    3.8694    3.8153    9.3853 H   0  0  0  0  0  0  0  0  0  0  0  0
    1.3835    5.6283    9.1046 H   0  0  0  0  0  0  0  0  0  0  0  0
    1.0565    4.1630    8.1184 H   0  0  0  0  0  0  0  0  0  0  0  0
    0.5586    2.1846   12.7866 H   0  0  0  0  0  0  0  0  0  0  0  0
    0.2235   -3.1840   16.5093 H   0  0  0  0  0  0  0  0  0  0  0  0
   -2.1807   -3.6478   16.2422 H   0  0  0  0  0  0  0  0  0  0  0  0
  1  2  1  0  0  0  0
  2  3  1  0  0  0  0
  2  4  1  0  0  0  0
  2  6  1  0  0  0  0
  4  5  1  0  0  0  0
  5  6  1  0  0  0  0
  5  7  1  0  0  0  0
  7  8  2  0  0  0  0
  7 31  1  0  0  0  0
  8  9  1  0  0  0  0
  9 10  2  0  0  0  0
 10 11  1  0  0  0  0
 10 30  1  0  0  0  0
 11 12  1  0  0  0  0
 12 13  2  0  0  0  0
 12 20  1  0  0  0  0
 13 14  1  0  0  0  0
 14 15  2  0  0  0  0
 14 21  1  0  0  0  0
 15 16  1  0  0  0  0
 16 17  1  0  0  0  0
 16 20  1  0  0  0  0
 17 18  2  0  0  0  0
 18 19  1  0  0  0  0
 19 20  2  0  0  0  0
 21 22  2  0  0  0  0
 21 29  1  0  0  0  0
 22 23  1  0  0  0  0
 23 24  2  0  0  0  0
 24 25  1  0  0  0  0
 24 28  1  0  0  0  0
 25 26  1  0  0  0  0
 26 27  2  0  0  0  0
 27 28  1  0  0  0  0
 28 29  2  0  0  0  0
 30 31  2  0  0  0  0
  1 32  1  0  0  0  0
  1 33  1  0  0  0  0
  1 34  1  0  0  0  0
  3 35  1  0  0  0  0
  4 36  1  0  0  0  0
  4 37  1  0  0  0  0
  6 38  1  0  0  0  0
  6 39  1  0  0  0  0
  8 40  1  0  0  0  0
  9 41  1  0  0  0  0
 11 42  1  0  0  0  0
 15 43  1  0  0  0  0
 17 44  1  0  0  0  0
 18 45  1  0  0  0  0
 22 46  1  0  0  0  0
 23 47  1  0  0  0  0
 25 48  1  0  0  0  0
 25 49  1  0  0  0  0
 29 50  1  0  0  0  0
 30 51  1  0  0  0  0
 31 52  1  0  0  0  0
M  END
> <IC50[nM]>
3.9

$$$$
CHEMBL3265030_n
  -OEChem-05192314333D
 Structure written by MMmdl.
 52 57  0     0  0  0  0  0  0999 V2000
   -6.0443   -4.4602   16.2962 C   0  0  0  0  0  0  0  0  0  0  0  0
   -5.6240   -3.4001   15.2728 C   0  0  0  0  0  0  0  0  0  0  0  0
   -6.7329   -2.9884   14.5080 O   0  0  0  0  0  0  0  0  0  0  0  0
   -4.7833   -2.2666   15.8350 C   0  0  0  0  0  0  0  0  0  0  0  0
   -3.8370   -2.3937   14.7064 N   0  0  0  0  0  0  0  0  0  0  0  0
   -4.3873   -3.7457   14.4627 C   0  0  0  0  0  0  0  0  0  0  0  0
   -2.4739   -2.0989   14.7890 C   0  0  0  0  0  0  0  0  0  0  0  0
   -1.8935   -1.0737   14.0433 C   0  0  0  0  0  0  0  0  0  0  0  0
   -0.5352   -0.8073   14.1963 C   0  0  0  0  0  0  0  0  0  0  0  0
    0.2332   -1.5617   15.0991 C   0  0  0  0  0  0  0  0  0  0  0  0
    1.5948   -1.3216   15.3436 N   0  0  0  0  0  0  0  0  0  0  0  0
    2.5323   -0.4320   14.7835 C   0  0  0  0  0  0  0  0  0  0  0  0
    2.1832    0.3856   13.7527 N   0  0  0  0  0  0  0  0  0  0  0  0
    3.0997    1.2392   13.2138 C   0  0  0  0  0  0  0  0  0  0  0  0
    4.4085    1.2886   13.6971 C   0  0  0  0  0  0  0  0  0  0  0  0
    4.7393    0.4966   14.7557 N   0  0  0  0  0  0  0  0  0  0  0  0
    5.8912    0.3843   15.4874 C   0  0  0  0  0  0  0  0  0  0  0  0
    5.6000   -0.5403   16.4969 C   0  0  0  0  0  0  0  0  0  0  0  0
    4.3900   -1.0499   16.3863 N   0  0  0  0  0  0  0  0  0  0  0  0
    3.8285   -0.3910   15.3363 C   0  0  0  0  0  0  0  0  0  0  0  0
    2.6272    2.1508   12.1213 C   0  0  0  0  0  0  0  0  0  0  0  0
    3.5370    2.6346   11.1631 C   0  0  0  0  0  0  0  0  0  0  0  0
    3.1492    3.4622   10.1085 C   0  0  0  0  0  0  0  0  0  0  0  0
    1.8011    3.8208   10.0156 C   0  0  0  0  0  0  0  0  0  0  0  0
    0.9990    4.5979    9.1271 C   0  0  0  0  0  0  0  0  0  0  0  0
   -0.2497    4.6170    9.5128 N   0  0  0  0  0  0  0  0  0  0  0  0
   -0.3315    3.8838   10.6343 N   0  0  0  0  0  0  0  0  0  0  0  0
    0.8874    3.3527   10.9946 C   0  0  0  0  0  0  0  0  0  0  0  0
    1.2729    2.5247   12.0514 C   0  0  0  0  0  0  0  0  0  0  0  0
   -0.3672   -2.5916   15.8262 C   0  0  0  0  0  0  0  0  0  0  0  0
   -1.7168   -2.8552   15.6739 C   0  0  0  0  0  0  0  0  0  0  0  0
   -5.1681   -4.7705   16.8844 H   0  0  0  0  0  0  0  0  0  0  0  0
   -6.8064   -4.0390   16.9683 H   0  0  0  0  0  0  0  0  0  0  0  0
   -6.4606   -5.3323   15.7707 H   0  0  0  0  0  0  0  0  0  0  0  0
   -6.4580   -2.3321   13.8786 H   0  0  0  0  0  0  0  0  0  0  0  0
   -5.3055   -1.2992   15.8742 H   0  0  0  0  0  0  0  0  0  0  0  0
   -4.3393   -2.4837   16.8177 H   0  0  0  0  0  0  0  0  0  0  0  0
   -3.7836   -4.5587   14.8924 H   0  0  0  0  0  0  0  0  0  0  0  0
   -4.5919   -3.9613   13.4036 H   0  0  0  0  0  0  0  0  0  0  0  0
   -2.4902   -0.4931   13.3553 H   0  0  0  0  0  0  0  0  0  0  0  0
   -0.0718   -0.0199   13.6204 H   0  0  0  0  0  0  0  0  0  0  0  0
    1.2518    0.3601   13.3896 H   0  0  0  0  0  0  0  0  0  0  0  0
    5.1414    1.9390   13.2429 H   0  0  0  0  0  0  0  0  0  0  0  0
    6.8256    0.8996   15.3209 H   0  0  0  0  0  0  0  0  0  0  0  0
    6.2923   -0.8072   17.2817 H   0  0  0  0  0  0  0  0  0  0  0  0
    4.5766    2.3543   11.2471 H   0  0  0  0  0  0  0  0  0  0  0  0
    3.8694    3.8153    9.3853 H   0  0  0  0  0  0  0  0  0  0  0  0
    1.3835    5.6283    9.1046 H   0  0  0  0  0  0  0  0  0  0  0  0
    1.0565    4.1630    8.1184 H   0  0  0  0  0  0  0  0  0  0  0  0
    0.5586    2.1846   12.7866 H   0  0  0  0  0  0  0  0  0  0  0  0
    0.2235   -3.1840   16.5093 H   0  0  0  0  0  0  0  0  0  0  0  0
   -2.1807   -3.6478   16.2422 H   0  0  0  0  0  0  0  0  0  0  0  0
  1  2  1  0  0  0  0
  2  3  1  0  0  0  0
  2  4  1  0  0  0  0
  2  6  1  0  0  0  0
  4  5  1  0  0  0  0
  5  6  1  0  0  0  0
  5  7  1  0  0  0  0
  7  8  2  0  0  0  0
  7 31  1  0  0  0  0
  8  9  1  0  0  0  0
  9 10  2  0  0  0  0
 10 11  1  0  0  0  0
 10 30  1  0  0  0  0
 11 12  2  0  0  0  0
 12 13  1  0  0  0  0
 12 20  1  0  0  0  0
 13 14  1  0  0  0  0
 14 15  2  0  0  0  0
 14 21  1  0  0  0  0
 15 16  1  0  0  0  0
 16 17  1  0  0  0  0
 16 20  1  0  0  0  0
 17 18  2  0  0  0  0
 18 19  1  0  0  0  0
 19 20  2  0  0  0  0
 21 22  2  0  0  0  0
 21 29  1  0  0  0  0
 22 23  1  0  0  0  0
 23 24  2  0  0  0  0
 24 25  1  0  0  0  0
 24 28  1  0  0  0  0
 25 26  1  0  0  0  0
 26 27  2  0  0  0  0
 27 28  1  0  0  0  0
 28 29  2  0  0  0  0
 30 31  2  0  0  0  0
  1 32  1  0  0  0  0
  1 33  1  0  0  0  0
  1 34  1  0  0  0  0
  3 35  1  0  0  0  0
  4 36  1  0  0  0  0
  4 37  1  0  0  0  0
  6 38  1  0  0  0  0
  6 39  1  0  0  0  0
  8 40  1  0  0  0  0
  9 41  1  0  0  0  0
 13 42  1  0  0  0  0
 15 43  1  0  0  0  0
 17 44  1  0  0  0  0
 18 45  1  0  0  0  0
 22 46  1  0  0  0  0
 23 47  1  0  0  0  0
 25 48  1  0  0  0  0
 25 49  1  0  0  0  0
 29 50  1  0  0  0  0
 30 51  1  0  0  0  0
 31 52  1  0  0  0  0
M  END
> <IC50[nM]>
3.9

$$$$
CHEMBL3265030_n
  -OEChem-05192314333D
 Structure written by MMmdl.
 52 57  0     0  0  0  0  0  0999 V2000
   -6.0443   -4.4602   16.2962 C   0  0  0  0  0  0  0  0  0  0  0  0
   -5.6240   -3.4001   15.2728 C   0  0  0  0  0  0  0  0  0  0  0  0
   -6.7329   -2.9884   14.5080 O   0  0  0  0  0  0  0  0  0  0  0  0
   -4.7833   -2.2666   15.8350 C   0  0  0  0  0  0  0  0  0  0  0  0
   -3.8370   -2.3937   14.7064 N   0  0  0  0  0  0  0  0  0  0  0  0
   -4.3873   -3.7457   14.4627 C   0  0  0  0  0  0  0  0  0  0  0  0
   -2.4739   -2.0989   14.7890 C   0  0  0  0  0  0  0  0  0  0  0  0
   -1.8935   -1.0737   14.0433 C   0  0  0  0  0  0  0  0  0  0  0  0
   -0.5352   -0.8073   14.1963 C   0  0  0  0  0  0  0  0  0  0  0  0
    0.2332   -1.5617   15.0991 C   0  0  0  0  0  0  0  0  0  0  0  0
    1.5948   -1.3216   15.3436 N   0  0  0  0  0  0  0  0  0  0  0  0
    2.5323   -0.4320   14.7835 C   0  0  0  0  0  0  0  0  0  0  0  0
    2.1832    0.3856   13.7527 N   0  0  0  0  0  0  0  0  0  0  0  0
    3.0997    1.2392   13.2138 C   0  0  0  0  0  0  0  0  0  0  0  0
    4.4085    1.2886   13.6971 C   0  0  0  0  0  0  0  0  0  0  0  0
    4.7393    0.4966   14.7557 N   0  0  0  0  0  0  0  0  0  0  0  0
    5.8912    0.3843   15.4874 C   0  0  0  0  0  0  0  0  0  0  0  0
    5.6000   -0.5403   16.4969 C   0  0  0  0  0  0  0  0  0  0  0  0
    4.3900   -1.0499   16.3863 N   0  0  0  0  0  0  0  0  0  0  0  0
    3.8285   -0.3910   15.3363 C   0  0  0  0  0  0  0  0  0  0  0  0
    2.6272    2.1508   12.1213 C   0  0  0  0  0  0  0  0  0  0  0  0
    3.5370    2.6346   11.1631 C   0  0  0  0  0  0  0  0  0  0  0  0
    3.1492    3.4622   10.1085 C   0  0  0  0  0  0  0  0  0  0  0  0
    1.8011    3.8208   10.0156 C   0  0  0  0  0  0  0  0  0  0  0  0
    0.9990    4.5979    9.1271 C   0  0  0  0  0  0  0  0  0  0  0  0
   -0.2497    4.6170    9.5128 N   0  0  0  0  0  0  0  0  0  0  0  0
   -0.3315    3.8838   10.6343 N   0  0  0  0  0  0  0  0  0  0  0  0
    0.8874    3.3527   10.9946 C   0  0  0  0  0  0  0  0  0  0  0  0
    1.2729    2.5247   12.0514 C   0  0  0  0  0  0  0  0  0  0  0  0
   -0.3672   -2.5916   15.8262 C   0  0  0  0  0  0  0  0  0  0  0  0
   -1.7168   -2.8552   15.6739 C   0  0  0  0  0  0  0  0  0  0  0  0
   -5.1681   -4.7705   16.8844 H   0  0  0  0  0  0  0  0  0  0  0  0
   -6.8064   -4.0390   16.9683 H   0  0  0  0  0  0  0  0  0  0  0  0
   -6.4606   -5.3323   15.7707 H   0  0  0  0  0  0  0  0  0  0  0  0
   -6.4580   -2.3321   13.8786 H   0  0  0  0  0  0  0  0  0  0  0  0
   -5.3055   -1.2992   15.8742 H   0  0  0  0  0  0  0  0  0  0  0  0
   -4.3393   -2.4837   16.8177 H   0  0  0  0  0  0  0  0  0  0  0  0
   -3.7836   -4.5587   14.8924 H   0  0  0  0  0  0  0  0  0  0  0  0
   -4.5919   -3.9613   13.4036 H   0  0  0  0  0  0  0  0  0  0  0  0
   -2.4902   -0.4931   13.3553 H   0  0  0  0  0  0  0  0  0  0  0  0
   -0.0718   -0.0199   13.6204 H   0  0  0  0  0  0  0  0  0  0  0  0
    5.0730    1.0132   12.8649 H   0  0  0  0  0  0  0  0  0  0  0  0
    4.6060    2.3289   13.9951 H   0  0  0  0  0  0  0  0  0  0  0  0
    6.8256    0.8996   15.3209 H   0  0  0  0  0  0  0  0  0  0  0  0
    6.2923   -0.8072   17.2817 H   0  0  0  0  0  0  0  0  0  0  0  0
    4.5766    2.3543   11.2471 H   0  0  0  0  0  0  0  0  0  0  0  0
    3.8694    3.8153    9.3853 H   0  0  0  0  0  0  0  0  0  0  0  0
    1.3748    5.1042    8.2503 H   0  0  0  0  0  0  0  0  0  0  0  0
   -1.1775    3.7401   11.1477 H   0  0  0  0  0  0  0  0  0  0  0  0
    0.5586    2.1846   12.7866 H   0  0  0  0  0  0  0  0  0  0  0  0
    0.2235   -3.1840   16.5093 H   0  0  0  0  0  0  0  0  0  0  0  0
   -2.1807   -3.6478   16.2422 H   0  0  0  0  0  0  0  0  0  0  0  0
  1  2  1  0  0  0  0
  2  3  1  0  0  0  0
  2  4  1  0  0  0  0
  2  6  1  0  0  0  0
  4  5  1  0  0  0  0
  5  6  1  0  0  0  0
  5  7  1  0  0  0  0
  7  8  2  0  0  0  0
  7 31  1  0  0  0  0
  8  9  1  0  0  0  0
  9 10  2  0  0  0  0
 10 11  1  0  0  0  0
 10 30  1  0  0  0  0
 11 12  2  0  0  0  0
 12 13  1  0  0  0  0
 12 20  1  0  0  0  0
 13 14  2  0  0  0  0
 14 15  1  0  0  0  0
 14 21  1  0  0  0  0
 15 16  1  0  0  0  0
 16 17  1  0  0  0  0
 16 20  1  0  0  0  0
 17 18  2  0  0  0  0
 18 19  1  0  0  0  0
 19 20  2  0  0  0  0
 21 22  2  0  0  0  0
 21 29  1  0  0  0  0
 22 23  1  0  0  0  0
 23 24  2  0  0  0  0
 24 25  1  0  0  0  0
 24 28  1  0  0  0  0
 25 26  2  0  0  0  0
 26 27  1  0  0  0  0
 27 28  1  0  0  0  0
 28 29  2  0  0  0  0
 30 31  2  0  0  0  0
  1 32  1  0  0  0  0
  1 33  1  0  0  0  0
  1 34  1  0  0  0  0
  3 35  1  0  0  0  0
  4 36  1  0  0  0  0
  4 37  1  0  0  0  0
  6 38  1  0  0  0  0
  6 39  1  0  0  0  0
  8 40  1  0  0  0  0
  9 41  1  0  0  0  0
 15 42  1  0  0  0  0
 15 43  1  0  0  0  0
 17 44  1  0  0  0  0
 18 45  1  0  0  0  0
 22 46  1  0  0  0  0
 23 47  1  0  0  0  0
 25 48  1  0  0  0  0
 27 49  1  0  0  0  0
 29 50  1  0  0  0  0
 30 51  1  0  0  0  0
 31 52  1  0  0  0  0
M  END
> <IC50[nM]>
3.9

$$$$
CHEMBL3265030_n
  -OEChem-05192314333D
 Structure written by MMmdl.
 52 57  0     0  0  0  0  0  0999 V2000
   -6.0443   -4.4602   16.2962 C   0  0  0  0  0  0  0  0  0  0  0  0
   -5.6240   -3.4001   15.2728 C   0  0  0  0  0  0  0  0  0  0  0  0
   -6.7329   -2.9884   14.5080 O   0  0  0  0  0  0  0  0  0  0  0  0
   -4.7833   -2.2666   15.8350 C   0  0  0  0  0  0  0  0  0  0  0  0
   -3.8370   -2.3937   14.7064 N   0  0  0  0  0  0  0  0  0  0  0  0
   -4.3873   -3.7457   14.4627 C   0  0  0  0  0  0  0  0  0  0  0  0
   -2.4739   -2.0989   14.7890 C   0  0  0  0  0  0  0  0  0  0  0  0
   -1.8935   -1.0737   14.0433 C   0  0  0  0  0  0  0  0  0  0  0  0
   -0.5352   -0.8073   14.1963 C   0  0  0  0  0  0  0  0  0  0  0  0
    0.2332   -1.5617   15.0991 C   0  0  0  0  0  0  0  0  0  0  0  0
    1.5948   -1.3216   15.3436 N   0  0  0  0  0  0  0  0  0  0  0  0
    2.5323   -0.4320   14.7835 C   0  0  0  0  0  0  0  0  0  0  0  0
    2.1832    0.3856   13.7527 N   0  0  0  0  0  0  0  0  0  0  0  0
    3.0997    1.2392   13.2138 C   0  0  0  0  0  0  0  0  0  0  0  0
    4.4085    1.2886   13.6971 C   0  0  0  0  0  0  0  0  0  0  0  0
    4.7393    0.4966   14.7557 N   0  0  0  0  0  0  0  0  0  0  0  0
    5.8912    0.3843   15.4874 C   0  0  0  0  0  0  0  0  0  0  0  0
    5.6000   -0.5403   16.4969 C   0  0  0  0  0  0  0  0  0  0  0  0
    4.3900   -1.0499   16.3863 N   0  0  0  0  0  0  0  0  0  0  0  0
    3.8285   -0.3910   15.3363 C   0  0  0  0  0  0  0  0  0  0  0  0
    2.6272    2.1508   12.1213 C   0  0  0  0  0  0  0  0  0  0  0  0
    3.5370    2.6346   11.1631 C   0  0  0  0  0  0  0  0  0  0  0  0
    3.1492    3.4622   10.1085 C   0  0  0  0  0  0  0  0  0  0  0  0
    1.8011    3.8208   10.0156 C   0  0  0  0  0  0  0  0  0  0  0  0
    0.9990    4.5979    9.1271 C   0  0  0  0  0  0  0  0  0  0  0  0
   -0.2497    4.6170    9.5128 N   0  0  0  0  0  0  0  0  0  0  0  0
   -0.3315    3.8838   10.6343 N   0  0  0  0  0  0  0  0  0  0  0  0
    0.8874    3.3527   10.9946 C   0  0  0  0  0  0  0  0  0  0  0  0
    1.2729    2.5247   12.0514 C   0  0  0  0  0  0  0  0  0  0  0  0
   -0.3672   -2.5916   15.8262 C   0  0  0  0  0  0  0  0  0  0  0  0
   -1.7168   -2.8552   15.6739 C   0  0  0  0  0  0  0  0  0  0  0  0
   -5.1681   -4.7705   16.8844 H   0  0  0  0  0  0  0  0  0  0  0  0
   -6.8064   -4.0390   16.9683 H   0  0  0  0  0  0  0  0  0  0  0  0
   -6.4606   -5.3323   15.7707 H   0  0  0  0  0  0  0  0  0  0  0  0
   -6.4580   -2.3321   13.8786 H   0  0  0  0  0  0  0  0  0  0  0  0
   -5.3055   -1.2992   15.8742 H   0  0  0  0  0  0  0  0  0  0  0  0
   -4.3393   -2.4837   16.8177 H   0  0  0  0  0  0  0  0  0  0  0  0
   -3.7836   -4.5587   14.8924 H   0  0  0  0  0  0  0  0  0  0  0  0
   -4.5919   -3.9613   13.4036 H   0  0  0  0  0  0  0  0  0  0  0  0
   -2.4902   -0.4931   13.3553 H   0  0  0  0  0  0  0  0  0  0  0  0
   -0.0718   -0.0199   13.6204 H   0  0  0  0  0  0  0  0  0  0  0  0
    5.0730    1.0132   12.8649 H   0  0  0  0  0  0  0  0  0  0  0  0
    4.6060    2.3289   13.9951 H   0  0  0  0  0  0  0  0  0  0  0  0
    6.8256    0.8996   15.3209 H   0  0  0  0  0  0  0  0  0  0  0  0
    6.2923   -0.8072   17.2817 H   0  0  0  0  0  0  0  0  0  0  0  0
    4.5766    2.3543   11.2471 H   0  0  0  0  0  0  0  0  0  0  0  0
    3.8694    3.8153    9.3853 H   0  0  0  0  0  0  0  0  0  0  0  0
    1.3748    5.1042    8.2503 H   0  0  0  0  0  0  0  0  0  0  0  0
   -1.0039    5.0899    9.0572 H   0  0  0  0  0  0  0  0  0  0  0  0
    0.5586    2.1846   12.7866 H   0  0  0  0  0  0  0  0  0  0  0  0
    0.2235   -3.1840   16.5093 H   0  0  0  0  0  0  0  0  0  0  0  0
   -2.1807   -3.6478   16.2422 H   0  0  0  0  0  0  0  0  0  0  0  0
  1  2  1  0  0  0  0
  2  3  1  0  0  0  0
  2  4  1  0  0  0  0
  2  6  1  0  0  0  0
  4  5  1  0  0  0  0
  5  6  1  0  0  0  0
  5  7  1  0  0  0  0
  7  8  2  0  0  0  0
  7 31  1  0  0  0  0
  8  9  1  0  0  0  0
  9 10  2  0  0  0  0
 10 11  1  0  0  0  0
 10 30  1  0  0  0  0
 11 12  2  0  0  0  0
 12 13  1  0  0  0  0
 12 20  1  0  0  0  0
 13 14  2  0  0  0  0
 14 15  1  0  0  0  0
 14 21  1  0  0  0  0
 15 16  1  0  0  0  0
 16 17  1  0  0  0  0
 16 20  1  0  0  0  0
 17 18  2  0  0  0  0
 18 19  1  0  0  0  0
 19 20  2  0  0  0  0
 21 22  1  0  0  0  0
 21 29  2  0  0  0  0
 22 23  2  0  0  0  0
 23 24  1  0  0  0  0
 24 25  2  0  0  0  0
 24 28  1  0  0  0  0
 25 26  1  0  0  0  0
 26 27  1  0  0  0  0
 27 28  2  0  0  0  0
 28 29  1  0  0  0  0
 30 31  2  0  0  0  0
  1 32  1  0  0  0  0
  1 33  1  0  0  0  0
  1 34  1  0  0  0  0
  3 35  1  0  0  0  0
  4 36  1  0  0  0  0
  4 37  1  0  0  0  0
  6 38  1  0  0  0  0
  6 39  1  0  0  0  0
  8 40  1  0  0  0  0
  9 41  1  0  0  0  0
 15 42  1  0  0  0  0
 15 43  1  0  0  0  0
 17 44  1  0  0  0  0
 18 45  1  0  0  0  0
 22 46  1  0  0  0  0
 23 47  1  0  0  0  0
 25 48  1  0  0  0  0
 26 49  1  0  0  0  0
 29 50  1  0  0  0  0
 30 51  1  0  0  0  0
 31 52  1  0  0  0  0
M  END
> <IC50[nM]>
3.9

$$$$
CHEMBL3265030_n
  -OEChem-05192314333D
 Structure written by MMmdl.
 52 57  0     0  0  0  0  0  0999 V2000
   -6.0443   -4.4602   16.2962 C   0  0  0  0  0  0  0  0  0  0  0  0
   -5.6240   -3.4001   15.2728 C   0  0  0  0  0  0  0  0  0  0  0  0
   -6.7329   -2.9884   14.5080 O   0  0  0  0  0  0  0  0  0  0  0  0
   -4.7833   -2.2666   15.8350 C   0  0  0  0  0  0  0  0  0  0  0  0
   -3.8370   -2.3937   14.7064 N   0  0  0  0  0  0  0  0  0  0  0  0
   -4.3873   -3.7457   14.4627 C   0  0  0  0  0  0  0  0  0  0  0  0
   -2.4739   -2.0989   14.7890 C   0  0  0  0  0  0  0  0  0  0  0  0
   -1.8935   -1.0737   14.0433 C   0  0  0  0  0  0  0  0  0  0  0  0
   -0.5352   -0.8073   14.1963 C   0  0  0  0  0  0  0  0  0  0  0  0
    0.2332   -1.5617   15.0991 C   0  0  0  0  0  0  0  0  0  0  0  0
    1.5948   -1.3216   15.3436 N   0  0  0  0  0  0  0  0  0  0  0  0
    2.5323   -0.4320   14.7835 C   0  0  0  0  0  0  0  0  0  0  0  0
    2.1832    0.3856   13.7527 N   0  0  0  0  0  0  0  0  0  0  0  0
    3.0997    1.2392   13.2138 C   0  0  0  0  0  0  0  0  0  0  0  0
    4.4085    1.2886   13.6971 C   0  0  0  0  0  0  0  0  0  0  0  0
    4.7393    0.4966   14.7557 N   0  0  0  0  0  0  0  0  0  0  0  0
    5.8912    0.3843   15.4874 C   0  0  0  0  0  0  0  0  0  0  0  0
    5.6000   -0.5403   16.4969 C   0  0  0  0  0  0  0  0  0  0  0  0
    4.3900   -1.0499   16.3863 N   0  0  0  0  0  0  0  0  0  0  0  0
    3.8285   -0.3910   15.3363 C   0  0  0  0  0  0  0  0  0  0  0  0
    2.6272    2.1508   12.1213 C   0  0  0  0  0  0  0  0  0  0  0  0
    3.5370    2.6346   11.1631 C   0  0  0  0  0  0  0  0  0  0  0  0
    3.1492    3.4622   10.1085 C   0  0  0  0  0  0  0  0  0  0  0  0
    1.8011    3.8208   10.0156 C   0  0  0  0  0  0  0  0  0  0  0  0
    0.9990    4.5979    9.1271 C   0  0  0  0  0  0  0  0  0  0  0  0
   -0.2497    4.6170    9.5128 N   0  0  0  0  0  0  0  0  0  0  0  0
   -0.3315    3.8838   10.6343 N   0  0  0  0  0  0  0  0  0  0  0  0
    0.8874    3.3527   10.9946 C   0  0  0  0  0  0  0  0  0  0  0  0
    1.2729    2.5247   12.0514 C   0  0  0  0  0  0  0  0  0  0  0  0
   -0.3672   -2.5916   15.8262 C   0  0  0  0  0  0  0  0  0  0  0  0
   -1.7168   -2.8552   15.6739 C   0  0  0  0  0  0  0  0  0  0  0  0
   -5.1681   -4.7705   16.8844 H   0  0  0  0  0  0  0  0  0  0  0  0
   -6.8064   -4.0390   16.9683 H   0  0  0  0  0  0  0  0  0  0  0  0
   -6.4606   -5.3323   15.7707 H   0  0  0  0  0  0  0  0  0  0  0  0
   -6.4580   -2.3321   13.8786 H   0  0  0  0  0  0  0  0  0  0  0  0
   -5.3055   -1.2992   15.8742 H   0  0  0  0  0  0  0  0  0  0  0  0
   -4.3393   -2.4837   16.8177 H   0  0  0  0  0  0  0  0  0  0  0  0
   -3.7836   -4.5587   14.8924 H   0  0  0  0  0  0  0  0  0  0  0  0
   -4.5919   -3.9613   13.4036 H   0  0  0  0  0  0  0  0  0  0  0  0
   -2.2620   -2.8162   13.9824 H   0  0  0  0  0  0  0  0  0  0  0  0
   -2.4902   -0.4931   13.3553 H   0  0  0  0  0  0  0  0  0  0  0  0
   -0.0718   -0.0199   13.6204 H   0  0  0  0  0  0  0  0  0  0  0  0
    5.1414    1.9390   13.2429 H   0  0  0  0  0  0  0  0  0  0  0  0
    6.8256    0.8996   15.3209 H   0  0  0  0  0  0  0  0  0  0  0  0
    6.2923   -0.8072   17.2817 H   0  0  0  0  0  0  0  0  0  0  0  0
    4.5766    2.3543   11.2471 H   0  0  0  0  0  0  0  0  0  0  0  0
    3.8694    3.8153    9.3853 H   0  0  0  0  0  0  0  0  0  0  0  0
    1.3748    5.1042    8.2503 H   0  0  0  0  0  0  0  0  0  0  0  0
   -1.1775    3.7401   11.1477 H   0  0  0  0  0  0  0  0  0  0  0  0
    0.5586    2.1846   12.7866 H   0  0  0  0  0  0  0  0  0  0  0  0
    0.2235   -3.1840   16.5093 H   0  0  0  0  0  0  0  0  0  0  0  0
   -2.1807   -3.6478   16.2422 H   0  0  0  0  0  0  0  0  0  0  0  0
  1  2  1  0  0  0  0
  2  3  1  0  0  0  0
  2  4  1  0  0  0  0
  2  6  1  0  0  0  0
  4  5  1  0  0  0  0
  5  6  1  0  0  0  0
  5  7  1  0  0  0  0
  7  8  1  0  0  0  0
  7 31  1  0  0  0  0
  8  9  2  0  0  0  0
  9 10  1  0  0  0  0
 10 11  2  0  0  0  0
 10 30  1  0  0  0  0
 11 12  1  0  0  0  0
 12 13  2  0  0  0  0
 12 20  1  0  0  0  0
 13 14  1  0  0  0  0
 14 15  2  0  0  0  0
 14 21  1  0  0  0  0
 15 16  1  0  0  0  0
 16 17  1  0  0  0  0
 16 20  1  0  0  0  0
 17 18  2  0  0  0  0
 18 19  1  0  0  0  0
 19 20  2  0  0  0  0
 21 22  2  0  0  0  0
 21 29  1  0  0  0  0
 22 23  1  0  0  0  0
 23 24  2  0  0  0  0
 24 25  1  0  0  0  0
 24 28  1  0  0  0  0
 25 26  2  0  0  0  0
 26 27  1  0  0  0  0
 27 28  1  0  0  0  0
 28 29  2  0  0  0  0
 30 31  2  0  0  0  0
  1 32  1  0  0  0  0
  1 33  1  0  0  0  0
  1 34  1  0  0  0  0
  3 35  1  0  0  0  0
  4 36  1  0  0  0  0
  4 37  1  0  0  0  0
  6 38  1  0  0  0  0
  6 39  1  0  0  0  0
  7 40  1  0  0  0  0
  8 41  1  0  0  0  0
  9 42  1  0  0  0  0
 15 43  1  0  0  0  0
 17 44  1  0  0  0  0
 18 45  1  0  0  0  0
 22 46  1  0  0  0  0
 23 47  1  0  0  0  0
 25 48  1  0  0  0  0
 27 49  1  0  0  0  0
 29 50  1  0  0  0  0
 30 51  1  0  0  0  0
 31 52  1  0  0  0  0
M  END
> <IC50[nM]>
3.9

$$$$
CHEMBL3265030_n
  -OEChem-05192314333D
 Structure written by MMmdl.
 52 57  0     0  0  0  0  0  0999 V2000
   -6.0443   -4.4602   16.2962 C   0  0  0  0  0  0  0  0  0  0  0  0
   -5.6240   -3.4001   15.2728 C   0  0  0  0  0  0  0  0  0  0  0  0
   -6.7329   -2.9884   14.5080 O   0  0  0  0  0  0  0  0  0  0  0  0
   -4.7833   -2.2666   15.8350 C   0  0  0  0  0  0  0  0  0  0  0  0
   -3.8370   -2.3937   14.7064 N   0  0  0  0  0  0  0  0  0  0  0  0
   -4.3873   -3.7457   14.4627 C   0  0  0  0  0  0  0  0  0  0  0  0
   -2.4739   -2.0989   14.7890 C   0  0  0  0  0  0  0  0  0  0  0  0
   -1.8935   -1.0737   14.0433 C   0  0  0  0  0  0  0  0  0  0  0  0
   -0.5352   -0.8073   14.1963 C   0  0  0  0  0  0  0  0  0  0  0  0
    0.2332   -1.5617   15.0991 C   0  0  0  0  0  0  0  0  0  0  0  0
    1.5948   -1.3216   15.3436 N   0  0  0  0  0  0  0  0  0  0  0  0
    2.5323   -0.4320   14.7835 C   0  0  0  0  0  0  0  0  0  0  0  0
    2.1832    0.3856   13.7527 N   0  0  0  0  0  0  0  0  0  0  0  0
    3.0997    1.2392   13.2138 C   0  0  0  0  0  0  0  0  0  0  0  0
    4.4085    1.2886   13.6971 C   0  0  0  0  0  0  0  0  0  0  0  0
    4.7393    0.4966   14.7557 N   0  0  0  0  0  0  0  0  0  0  0  0
    5.8912    0.3843   15.4874 C   0  0  0  0  0  0  0  0  0  0  0  0
    5.6000   -0.5403   16.4969 C   0  0  0  0  0  0  0  0  0  0  0  0
    4.3900   -1.0499   16.3863 N   0  0  0  0  0  0  0  0  0  0  0  0
    3.8285   -0.3910   15.3363 C   0  0  0  0  0  0  0  0  0  0  0  0
    2.6272    2.1508   12.1213 C   0  0  0  0  0  0  0  0  0  0  0  0
    3.5370    2.6346   11.1631 C   0  0  0  0  0  0  0  0  0  0  0  0
    3.1492    3.4622   10.1085 C   0  0  0  0  0  0  0  0  0  0  0  0
    1.8011    3.8208   10.0156 C   0  0  0  0  0  0  0  0  0  0  0  0
    0.9990    4.5979    9.1271 C   0  0  0  0  0  0  0  0  0  0  0  0
   -0.2497    4.6170    9.5128 N   0  0  0  0  0  0  0  0  0  0  0  0
   -0.3315    3.8838   10.6343 N   0  0  0  0  0  0  0  0  0  0  0  0
    0.8874    3.3527   10.9946 C   0  0  0  0  0  0  0  0  0  0  0  0
    1.2729    2.5247   12.0514 C   0  0  0  0  0  0  0  0  0  0  0  0
   -0.3672   -2.5916   15.8262 C   0  0  0  0  0  0  0  0  0  0  0  0
   -1.7168   -2.8552   15.6739 C   0  0  0  0  0  0  0  0  0  0  0  0
   -5.1681   -4.7705   16.8844 H   0  0  0  0  0  0  0  0  0  0  0  0
   -6.8064   -4.0390   16.9683 H   0  0  0  0  0  0  0  0  0  0  0  0
   -6.4606   -5.3323   15.7707 H   0  0  0  0  0  0  0  0  0  0  0  0
   -6.4580   -2.3321   13.8786 H   0  0  0  0  0  0  0  0  0  0  0  0
   -5.3055   -1.2992   15.8742 H   0  0  0  0  0  0  0  0  0  0  0  0
   -4.3393   -2.4837   16.8177 H   0  0  0  0  0  0  0  0  0  0  0  0
   -3.7836   -4.5587   14.8924 H   0  0  0  0  0  0  0  0  0  0  0  0
   -4.5919   -3.9613   13.4036 H   0  0  0  0  0  0  0  0  0  0  0  0
   -2.2620   -2.8162   13.9824 H   0  0  0  0  0  0  0  0  0  0  0  0
   -2.4902   -0.4931   13.3553 H   0  0  0  0  0  0  0  0  0  0  0  0
   -0.0718   -0.0199   13.6204 H   0  0  0  0  0  0  0  0  0  0  0  0
    5.1414    1.9390   13.2429 H   0  0  0  0  0  0  0  0  0  0  0  0
    6.8256    0.8996   15.3209 H   0  0  0  0  0  0  0  0  0  0  0  0
    6.2923   -0.8072   17.2817 H   0  0  0  0  0  0  0  0  0  0  0  0
    4.5766    2.3543   11.2471 H   0  0  0  0  0  0  0  0  0  0  0  0
    3.8694    3.8153    9.3853 H   0  0  0  0  0  0  0  0  0  0  0  0
    1.3748    5.1042    8.2503 H   0  0  0  0  0  0  0  0  0  0  0  0
   -1.0039    5.0899    9.0572 H   0  0  0  0  0  0  0  0  0  0  0  0
    0.5586    2.1846   12.7866 H   0  0  0  0  0  0  0  0  0  0  0  0
    0.2235   -3.1840   16.5093 H   0  0  0  0  0  0  0  0  0  0  0  0
   -2.1807   -3.6478   16.2422 H   0  0  0  0  0  0  0  0  0  0  0  0
  1  2  1  0  0  0  0
  2  3  1  0  0  0  0
  2  4  1  0  0  0  0
  2  6  1  0  0  0  0
  4  5  1  0  0  0  0
  5  6  1  0  0  0  0
  5  7  1  0  0  0  0
  7  8  1  0  0  0  0
  7 31  1  0  0  0  0
  8  9  2  0  0  0  0
  9 10  1  0  0  0  0
 10 11  2  0  0  0  0
 10 30  1  0  0  0  0
 11 12  1  0  0  0  0
 12 13  2  0  0  0  0
 12 20  1  0  0  0  0
 13 14  1  0  0  0  0
 14 15  2  0  0  0  0
 14 21  1  0  0  0  0
 15 16  1  0  0  0  0
 16 17  1  0  0  0  0
 16 20  1  0  0  0  0
 17 18  2  0  0  0  0
 18 19  1  0  0  0  0
 19 20  2  0  0  0  0
 21 22  1  0  0  0  0
 21 29  2  0  0  0  0
 22 23  2  0  0  0  0
 23 24  1  0  0  0  0
 24 25  2  0  0  0  0
 24 28  1  0  0  0  0
 25 26  1  0  0  0  0
 26 27  1  0  0  0  0
 27 28  2  0  0  0  0
 28 29  1  0  0  0  0
 30 31  2  0  0  0  0
  1 32  1  0  0  0  0
  1 33  1  0  0  0  0
  1 34  1  0  0  0  0
  3 35  1  0  0  0  0
  4 36  1  0  0  0  0
  4 37  1  0  0  0  0
  6 38  1  0  0  0  0
  6 39  1  0  0  0  0
  7 40  1  0  0  0  0
  8 41  1  0  0  0  0
  9 42  1  0  0  0  0
 15 43  1  0  0  0  0
 17 44  1  0  0  0  0
 18 45  1  0  0  0  0
 22 46  1  0  0  0  0
 23 47  1  0  0  0  0
 25 48  1  0  0  0  0
 26 49  1  0  0  0  0
 29 50  1  0  0  0  0
 30 51  1  0  0  0  0
 31 52  1  0  0  0  0
M  END
> <IC50[nM]>
3.9

$$$$
CHEMBL3265030_n
  -OEChem-05192314333D
 Structure written by MMmdl.
 52 57  0     0  0  0  0  0  0999 V2000
   -6.0443   -4.4602   16.2962 C   0  0  0  0  0  0  0  0  0  0  0  0
   -5.6240   -3.4001   15.2728 C   0  0  0  0  0  0  0  0  0  0  0  0
   -6.7329   -2.9884   14.5080 O   0  0  0  0  0  0  0  0  0  0  0  0
   -4.7833   -2.2666   15.8350 C   0  0  0  0  0  0  0  0  0  0  0  0
   -3.8370   -2.3937   14.7064 N   0  0  0  0  0  0  0  0  0  0  0  0
   -4.3873   -3.7457   14.4627 C   0  0  0  0  0  0  0  0  0  0  0  0
   -2.4739   -2.0989   14.7890 C   0  0  0  0  0  0  0  0  0  0  0  0
   -1.8935   -1.0737   14.0433 C   0  0  0  0  0  0  0  0  0  0  0  0
   -0.5352   -0.8073   14.1963 C   0  0  0  0  0  0  0  0  0  0  0  0
    0.2332   -1.5617   15.0991 C   0  0  0  0  0  0  0  0  0  0  0  0
    1.5948   -1.3216   15.3436 N   0  0  0  0  0  0  0  0  0  0  0  0
    2.5323   -0.4320   14.7835 C   0  0  0  0  0  0  0  0  0  0  0  0
    2.1832    0.3856   13.7527 N   0  0  0  0  0  0  0  0  0  0  0  0
    3.0997    1.2392   13.2138 C   0  0  0  0  0  0  0  0  0  0  0  0
    4.4085    1.2886   13.6971 C   0  0  0  0  0  0  0  0  0  0  0  0
    4.7393    0.4966   14.7557 N   0  0  0  0  0  0  0  0  0  0  0  0
    5.8912    0.3843   15.4874 C   0  0  0  0  0  0  0  0  0  0  0  0
    5.6000   -0.5403   16.4969 C   0  0  0  0  0  0  0  0  0  0  0  0
    4.3900   -1.0499   16.3863 N   0  0  0  0  0  0  0  0  0  0  0  0
    3.8285   -0.3910   15.3363 C   0  0  0  0  0  0  0  0  0  0  0  0
    2.6272    2.1508   12.1213 C   0  0  0  0  0  0  0  0  0  0  0  0
    3.5370    2.6346   11.1631 C   0  0  0  0  0  0  0  0  0  0  0  0
    3.1492    3.4622   10.1085 C   0  0  0  0  0  0  0  0  0  0  0  0
    1.8011    3.8208   10.0156 C   0  0  0  0  0  0  0  0  0  0  0  0
    0.9990    4.5979    9.1271 C   0  0  0  0  0  0  0  0  0  0  0  0
   -0.2497    4.6170    9.5128 N   0  0  0  0  0  0  0  0  0  0  0  0
   -0.3315    3.8838   10.6343 N   0  0  0  0  0  0  0  0  0  0  0  0
    0.8874    3.3527   10.9946 C   0  0  0  0  0  0  0  0  0  0  0  0
    1.2729    2.5247   12.0514 C   0  0  0  0  0  0  0  0  0  0  0  0
   -0.3672   -2.5916   15.8262 C   0  0  0  0  0  0  0  0  0  0  0  0
   -1.7168   -2.8552   15.6739 C   0  0  0  0  0  0  0  0  0  0  0  0
   -5.1681   -4.7705   16.8844 H   0  0  0  0  0  0  0  0  0  0  0  0
   -6.8064   -4.0390   16.9683 H   0  0  0  0  0  0  0  0  0  0  0  0
   -6.4606   -5.3323   15.7707 H   0  0  0  0  0  0  0  0  0  0  0  0
   -6.4580   -2.3321   13.8786 H   0  0  0  0  0  0  0  0  0  0  0  0
   -5.3055   -1.2992   15.8742 H   0  0  0  0  0  0  0  0  0  0  0  0
   -4.3393   -2.4837   16.8177 H   0  0  0  0  0  0  0  0  0  0  0  0
   -3.7836   -4.5587   14.8924 H   0  0  0  0  0  0  0  0  0  0  0  0
   -4.5919   -3.9613   13.4036 H   0  0  0  0  0  0  0  0  0  0  0  0
   -2.4902   -0.4931   13.3553 H   0  0  0  0  0  0  0  0  0  0  0  0
   -0.0718   -0.0199   13.6204 H   0  0  0  0  0  0  0  0  0  0  0  0
    5.1414    1.9390   13.2429 H   0  0  0  0  0  0  0  0  0  0  0  0
    6.8256    0.8996   15.3209 H   0  0  0  0  0  0  0  0  0  0  0  0
    6.2923   -0.8072   17.2817 H   0  0  0  0  0  0  0  0  0  0  0  0
    4.5766    2.3543   11.2471 H   0  0  0  0  0  0  0  0  0  0  0  0
    3.8694    3.8153    9.3853 H   0  0  0  0  0  0  0  0  0  0  0  0
    1.3748    5.1042    8.2503 H   0  0  0  0  0  0  0  0  0  0  0  0
   -1.1775    3.7401   11.1477 H   0  0  0  0  0  0  0  0  0  0  0  0
    0.5586    2.1846   12.7866 H   0  0  0  0  0  0  0  0  0  0  0  0
    0.1676   -3.5168   15.5655 H   0  0  0  0  0  0  0  0  0  0  0  0
   -0.2073   -2.3630   16.8902 H   0  0  0  0  0  0  0  0  0  0  0  0
   -2.1807   -3.6478   16.2422 H   0  0  0  0  0  0  0  0  0  0  0  0
  1  2  1  0  0  0  0
  2  3  1  0  0  0  0
  2  4  1  0  0  0  0
  2  6  1  0  0  0  0
  4  5  1  0  0  0  0
  5  6  1  0  0  0  0
  5  7  1  0  0  0  0
  7  8  1  0  0  0  0
  7 31  2  0  0  0  0
  8  9  2  0  0  0  0
  9 10  1  0  0  0  0
 10 11  2  0  0  0  0
 10 30  1  0  0  0  0
 11 12  1  0  0  0  0
 12 13  2  0  0  0  0
 12 20  1  0  0  0  0
 13 14  1  0  0  0  0
 14 15  2  0  0  0  0
 14 21  1  0  0  0  0
 15 16  1  0  0  0  0
 16 17  1  0  0  0  0
 16 20  1  0  0  0  0
 17 18  2  0  0  0  0
 18 19  1  0  0  0  0
 19 20  2  0  0  0  0
 21 22  2  0  0  0  0
 21 29  1  0  0  0  0
 22 23  1  0  0  0  0
 23 24  2  0  0  0  0
 24 25  1  0  0  0  0
 24 28  1  0  0  0  0
 25 26  2  0  0  0  0
 26 27  1  0  0  0  0
 27 28  1  0  0  0  0
 28 29  2  0  0  0  0
 30 31  1  0  0  0  0
  1 32  1  0  0  0  0
  1 33  1  0  0  0  0
  1 34  1  0  0  0  0
  3 35  1  0  0  0  0
  4 36  1  0  0  0  0
  4 37  1  0  0  0  0
  6 38  1  0  0  0  0
  6 39  1  0  0  0  0
  8 40  1  0  0  0  0
  9 41  1  0  0  0  0
 15 42  1  0  0  0  0
 17 43  1  0  0  0  0
 18 44  1  0  0  0  0
 22 45  1  0  0  0  0
 23 46  1  0  0  0  0
 25 47  1  0  0  0  0
 27 48  1  0  0  0  0
 29 49  1  0  0  0  0
 30 50  1  0  0  0  0
 30 51  1  0  0  0  0
 31 52  1  0  0  0  0
M  END
> <IC50[nM]>
3.9

$$$$
CHEMBL3265030_n
  -OEChem-05192314333D
 Structure written by MMmdl.
 52 57  0     0  0  0  0  0  0999 V2000
   -6.0443   -4.4602   16.2962 C   0  0  0  0  0  0  0  0  0  0  0  0
   -5.6240   -3.4001   15.2728 C   0  0  0  0  0  0  0  0  0  0  0  0
   -6.7329   -2.9884   14.5080 O   0  0  0  0  0  0  0  0  0  0  0  0
   -4.7833   -2.2666   15.8350 C   0  0  0  0  0  0  0  0  0  0  0  0
   -3.8370   -2.3937   14.7064 N   0  0  0  0  0  0  0  0  0  0  0  0
   -4.3873   -3.7457   14.4627 C   0  0  0  0  0  0  0  0  0  0  0  0
   -2.4739   -2.0989   14.7890 C   0  0  0  0  0  0  0  0  0  0  0  0
   -1.8935   -1.0737   14.0433 C   0  0  0  0  0  0  0  0  0  0  0  0
   -0.5352   -0.8073   14.1963 C   0  0  0  0  0  0  0  0  0  0  0  0
    0.2332   -1.5617   15.0991 C   0  0  0  0  0  0  0  0  0  0  0  0
    1.5948   -1.3216   15.3436 N   0  0  0  0  0  0  0  0  0  0  0  0
    2.5323   -0.4320   14.7835 C   0  0  0  0  0  0  0  0  0  0  0  0
    2.1832    0.3856   13.7527 N   0  0  0  0  0  0  0  0  0  0  0  0
    3.0997    1.2392   13.2138 C   0  0  0  0  0  0  0  0  0  0  0  0
    4.4085    1.2886   13.6971 C   0  0  0  0  0  0  0  0  0  0  0  0
    4.7393    0.4966   14.7557 N   0  0  0  0  0  0  0  0  0  0  0  0
    5.8912    0.3843   15.4874 C   0  0  0  0  0  0  0  0  0  0  0  0
    5.6000   -0.5403   16.4969 C   0  0  0  0  0  0  0  0  0  0  0  0
    4.3900   -1.0499   16.3863 N   0  0  0  0  0  0  0  0  0  0  0  0
    3.8285   -0.3910   15.3363 C   0  0  0  0  0  0  0  0  0  0  0  0
    2.6272    2.1508   12.1213 C   0  0  0  0  0  0  0  0  0  0  0  0
    3.5370    2.6346   11.1631 C   0  0  0  0  0  0  0  0  0  0  0  0
    3.1492    3.4622   10.1085 C   0  0  0  0  0  0  0  0  0  0  0  0
    1.8011    3.8208   10.0156 C   0  0  0  0  0  0  0  0  0  0  0  0
    0.9990    4.5979    9.1271 C   0  0  0  0  0  0  0  0  0  0  0  0
   -0.2497    4.6170    9.5128 N   0  0  0  0  0  0  0  0  0  0  0  0
   -0.3315    3.8838   10.6343 N   0  0  0  0  0  0  0  0  0  0  0  0
    0.8874    3.3527   10.9946 C   0  0  0  0  0  0  0  0  0  0  0  0
    1.2729    2.5247   12.0514 C   0  0  0  0  0  0  0  0  0  0  0  0
   -0.3672   -2.5916   15.8262 C   0  0  0  0  0  0  0  0  0  0  0  0
   -1.7168   -2.8552   15.6739 C   0  0  0  0  0  0  0  0  0  0  0  0
   -5.1681   -4.7705   16.8844 H   0  0  0  0  0  0  0  0  0  0  0  0
   -6.8064   -4.0390   16.9683 H   0  0  0  0  0  0  0  0  0  0  0  0
   -6.4606   -5.3323   15.7707 H   0  0  0  0  0  0  0  0  0  0  0  0
   -6.4580   -2.3321   13.8786 H   0  0  0  0  0  0  0  0  0  0  0  0
   -5.3055   -1.2992   15.8742 H   0  0  0  0  0  0  0  0  0  0  0  0
   -4.3393   -2.4837   16.8177 H   0  0  0  0  0  0  0  0  0  0  0  0
   -3.7836   -4.5587   14.8924 H   0  0  0  0  0  0  0  0  0  0  0  0
   -4.5919   -3.9613   13.4036 H   0  0  0  0  0  0  0  0  0  0  0  0
   -2.4902   -0.4931   13.3553 H   0  0  0  0  0  0  0  0  0  0  0  0
   -0.0718   -0.0199   13.6204 H   0  0  0  0  0  0  0  0  0  0  0  0
    5.1414    1.9390   13.2429 H   0  0  0  0  0  0  0  0  0  0  0  0
    6.8256    0.8996   15.3209 H   0  0  0  0  0  0  0  0  0  0  0  0
    6.2923   -0.8072   17.2817 H   0  0  0  0  0  0  0  0  0  0  0  0
    4.5766    2.3543   11.2471 H   0  0  0  0  0  0  0  0  0  0  0  0
    3.8694    3.8153    9.3853 H   0  0  0  0  0  0  0  0  0  0  0  0
    1.3748    5.1042    8.2503 H   0  0  0  0  0  0  0  0  0  0  0  0
   -1.0039    5.0899    9.0572 H   0  0  0  0  0  0  0  0  0  0  0  0
    0.5586    2.1846   12.7866 H   0  0  0  0  0  0  0  0  0  0  0  0
    0.1676   -3.5168   15.5655 H   0  0  0  0  0  0  0  0  0  0  0  0
   -0.2073   -2.3630   16.8902 H   0  0  0  0  0  0  0  0  0  0  0  0
   -2.1807   -3.6478   16.2422 H   0  0  0  0  0  0  0  0  0  0  0  0
  1  2  1  0  0  0  0
  2  3  1  0  0  0  0
  2  4  1  0  0  0  0
  2  6  1  0  0  0  0
  4  5  1  0  0  0  0
  5  6  1  0  0  0  0
  5  7  1  0  0  0  0
  7  8  1  0  0  0  0
  7 31  2  0  0  0  0
  8  9  2  0  0  0  0
  9 10  1  0  0  0  0
 10 11  2  0  0  0  0
 10 30  1  0  0  0  0
 11 12  1  0  0  0  0
 12 13  2  0  0  0  0
 12 20  1  0  0  0  0
 13 14  1  0  0  0  0
 14 15  2  0  0  0  0
 14 21  1  0  0  0  0
 15 16  1  0  0  0  0
 16 17  1  0  0  0  0
 16 20  1  0  0  0  0
 17 18  2  0  0  0  0
 18 19  1  0  0  0  0
 19 20  2  0  0  0  0
 21 22  1  0  0  0  0
 21 29  2  0  0  0  0
 22 23  2  0  0  0  0
 23 24  1  0  0  0  0
 24 25  2  0  0  0  0
 24 28  1  0  0  0  0
 25 26  1  0  0  0  0
 26 27  1  0  0  0  0
 27 28  2  0  0  0  0
 28 29  1  0  0  0  0
 30 31  1  0  0  0  0
  1 32  1  0  0  0  0
  1 33  1  0  0  0  0
  1 34  1  0  0  0  0
  3 35  1  0  0  0  0
  4 36  1  0  0  0  0
  4 37  1  0  0  0  0
  6 38  1  0  0  0  0
  6 39  1  0  0  0  0
  8 40  1  0  0  0  0
  9 41  1  0  0  0  0
 15 42  1  0  0  0  0
 17 43  1  0  0  0  0
 18 44  1  0  0  0  0
 22 45  1  0  0  0  0
 23 46  1  0  0  0  0
 25 47  1  0  0  0  0
 26 48  1  0  0  0  0
 29 49  1  0  0  0  0
 30 50  1  0  0  0  0
 30 51  1  0  0  0  0
 31 52  1  0  0  0  0
M  END
> <IC50[nM]>
3.9

$$$$
CHEMBL3265030_n
  -OEChem-05192314333D
 Structure written by MMmdl.
 52 57  0     0  0  0  0  0  0999 V2000
   -6.0443   -4.4602   16.2962 C   0  0  0  0  0  0  0  0  0  0  0  0
   -5.6240   -3.4001   15.2728 C   0  0  0  0  0  0  0  0  0  0  0  0
   -6.7329   -2.9884   14.5080 O   0  0  0  0  0  0  0  0  0  0  0  0
   -4.7833   -2.2666   15.8350 C   0  0  0  0  0  0  0  0  0  0  0  0
   -3.8370   -2.3937   14.7064 N   0  0  0  0  0  0  0  0  0  0  0  0
   -4.3873   -3.7457   14.4627 C   0  0  0  0  0  0  0  0  0  0  0  0
   -2.4739   -2.0989   14.7890 C   0  0  0  0  0  0  0  0  0  0  0  0
   -1.8935   -1.0737   14.0433 C   0  0  0  0  0  0  0  0  0  0  0  0
   -0.5352   -0.8073   14.1963 C   0  0  0  0  0  0  0  0  0  0  0  0
    0.2332   -1.5617   15.0991 C   0  0  0  0  0  0  0  0  0  0  0  0
    1.5948   -1.3216   15.3436 N   0  0  0  0  0  0  0  0  0  0  0  0
    2.5323   -0.4320   14.7835 C   0  0  0  0  0  0  0  0  0  0  0  0
    2.1832    0.3856   13.7527 N   0  0  0  0  0  0  0  0  0  0  0  0
    3.0997    1.2392   13.2138 C   0  0  0  0  0  0  0  0  0  0  0  0
    4.4085    1.2886   13.6971 C   0  0  0  0  0  0  0  0  0  0  0  0
    4.7393    0.4966   14.7557 N   0  0  0  0  0  0  0  0  0  0  0  0
    5.8912    0.3843   15.4874 C   0  0  0  0  0  0  0  0  0  0  0  0
    5.6000   -0.5403   16.4969 C   0  0  0  0  0  0  0  0  0  0  0  0
    4.3900   -1.0499   16.3863 N   0  0  0  0  0  0  0  0  0  0  0  0
    3.8285   -0.3910   15.3363 C   0  0  0  0  0  0  0  0  0  0  0  0
    2.6272    2.1508   12.1213 C   0  0  0  0  0  0  0  0  0  0  0  0
    3.5370    2.6346   11.1631 C   0  0  0  0  0  0  0  0  0  0  0  0
    3.1492    3.4622   10.1085 C   0  0  0  0  0  0  0  0  0  0  0  0
    1.8011    3.8208   10.0156 C   0  0  0  0  0  0  0  0  0  0  0  0
    0.9990    4.5979    9.1271 C   0  0  0  0  0  0  0  0  0  0  0  0
   -0.2497    4.6170    9.5128 N   0  0  0  0  0  0  0  0  0  0  0  0
   -0.3315    3.8838   10.6343 N   0  0  0  0  0  0  0  0  0  0  0  0
    0.8874    3.3527   10.9946 C   0  0  0  0  0  0  0  0  0  0  0  0
    1.2729    2.5247   12.0514 C   0  0  0  0  0  0  0  0  0  0  0  0
   -0.3672   -2.5916   15.8262 C   0  0  0  0  0  0  0  0  0  0  0  0
   -1.7168   -2.8552   15.6739 C   0  0  0  0  0  0  0  0  0  0  0  0
   -5.1681   -4.7705   16.8844 H   0  0  0  0  0  0  0  0  0  0  0  0
   -6.8064   -4.0390   16.9683 H   0  0  0  0  0  0  0  0  0  0  0  0
   -6.4606   -5.3323   15.7707 H   0  0  0  0  0  0  0  0  0  0  0  0
   -6.4580   -2.3321   13.8786 H   0  0  0  0  0  0  0  0  0  0  0  0
   -5.3055   -1.2992   15.8742 H   0  0  0  0  0  0  0  0  0  0  0  0
   -4.3393   -2.4837   16.8177 H   0  0  0  0  0  0  0  0  0  0  0  0
   -3.7836   -4.5587   14.8924 H   0  0  0  0  0  0  0  0  0  0  0  0
   -4.5919   -3.9613   13.4036 H   0  0  0  0  0  0  0  0  0  0  0  0
   -2.4902   -0.4931   13.3553 H   0  0  0  0  0  0  0  0  0  0  0  0
   -0.0718   -0.0199   13.6204 H   0  0  0  0  0  0  0  0  0  0  0  0
    5.0730    1.0132   12.8649 H   0  0  0  0  0  0  0  0  0  0  0  0
    4.6060    2.3289   13.9951 H   0  0  0  0  0  0  0  0  0  0  0  0
    6.8256    0.8996   15.3209 H   0  0  0  0  0  0  0  0  0  0  0  0
    6.2923   -0.8072   17.2817 H   0  0  0  0  0  0  0  0  0  0  0  0
    4.5766    2.3543   11.2471 H   0  0  0  0  0  0  0  0  0  0  0  0
    3.8694    3.8153    9.3853 H   0  0  0  0  0  0  0  0  0  0  0  0
    1.3835    5.6283    9.1046 H   0  0  0  0  0  0  0  0  0  0  0  0
    1.0565    4.1630    8.1184 H   0  0  0  0  0  0  0  0  0  0  0  0
    0.5586    2.1846   12.7866 H   0  0  0  0  0  0  0  0  0  0  0  0
    0.2235   -3.1840   16.5093 H   0  0  0  0  0  0  0  0  0  0  0  0
   -2.1807   -3.6478   16.2422 H   0  0  0  0  0  0  0  0  0  0  0  0
  1  2  1  0  0  0  0
  2  3  1  0  0  0  0
  2  4  1  0  0  0  0
  2  6  1  0  0  0  0
  4  5  1  0  0  0  0
  5  6  1  0  0  0  0
  5  7  1  0  0  0  0
  7  8  2  0  0  0  0
  7 31  1  0  0  0  0
  8  9  1  0  0  0  0
  9 10  2  0  0  0  0
 10 11  1  0  0  0  0
 10 30  1  0  0  0  0
 11 12  2  0  0  0  0
 12 13  1  0  0  0  0
 12 20  1  0  0  0  0
 13 14  2  0  0  0  0
 14 15  1  0  0  0  0
 14 21  1  0  0  0  0
 15 16  1  0  0  0  0
 16 17  1  0  0  0  0
 16 20  1  0  0  0  0
 17 18  2  0  0  0  0
 18 19  1  0  0  0  0
 19 20  2  0  0  0  0
 21 22  2  0  0  0  0
 21 29  1  0  0  0  0
 22 23  1  0  0  0  0
 23 24  2  0  0  0  0
 24 25  1  0  0  0  0
 24 28  1  0  0  0  0
 25 26  1  0  0  0  0
 26 27  2  0  0  0  0
 27 28  1  0  0  0  0
 28 29  2  0  0  0  0
 30 31  2  0  0  0  0
  1 32  1  0  0  0  0
  1 33  1  0  0  0  0
  1 34  1  0  0  0  0
  3 35  1  0  0  0  0
  4 36  1  0  0  0  0
  4 37  1  0  0  0  0
  6 38  1  0  0  0  0
  6 39  1  0  0  0  0
  8 40  1  0  0  0  0
  9 41  1  0  0  0  0
 15 42  1  0  0  0  0
 15 43  1  0  0  0  0
 17 44  1  0  0  0  0
 18 45  1  0  0  0  0
 22 46  1  0  0  0  0
 23 47  1  0  0  0  0
 25 48  1  0  0  0  0
 25 49  1  0  0  0  0
 29 50  1  0  0  0  0
 30 51  1  0  0  0  0
 31 52  1  0  0  0  0
M  END
> <IC50[nM]>
3.9

$$$$
CHEMBL3265030_n
  -OEChem-05192314333D
 Structure written by MMmdl.
 52 57  0     0  0  0  0  0  0999 V2000
   -6.0443   -4.4602   16.2962 C   0  0  0  0  0  0  0  0  0  0  0  0
   -5.6240   -3.4001   15.2728 C   0  0  0  0  0  0  0  0  0  0  0  0
   -6.7329   -2.9884   14.5080 O   0  0  0  0  0  0  0  0  0  0  0  0
   -4.7833   -2.2666   15.8350 C   0  0  0  0  0  0  0  0  0  0  0  0
   -3.8370   -2.3937   14.7064 N   0  0  0  0  0  0  0  0  0  0  0  0
   -4.3873   -3.7457   14.4627 C   0  0  0  0  0  0  0  0  0  0  0  0
   -2.4739   -2.0989   14.7890 C   0  0  0  0  0  0  0  0  0  0  0  0
   -1.8935   -1.0737   14.0433 C   0  0  0  0  0  0  0  0  0  0  0  0
   -0.5352   -0.8073   14.1963 C   0  0  0  0  0  0  0  0  0  0  0  0
    0.2332   -1.5617   15.0991 C   0  0  0  0  0  0  0  0  0  0  0  0
    1.5948   -1.3216   15.3436 N   0  0  0  0  0  0  0  0  0  0  0  0
    2.5323   -0.4320   14.7835 C   0  0  0  0  0  0  0  0  0  0  0  0
    2.1832    0.3856   13.7527 N   0  0  0  0  0  0  0  0  0  0  0  0
    3.0997    1.2392   13.2138 C   0  0  0  0  0  0  0  0  0  0  0  0
    4.4085    1.2886   13.6971 C   0  0  0  0  0  0  0  0  0  0  0  0
    4.7393    0.4966   14.7557 N   0  0  0  0  0  0  0  0  0  0  0  0
    5.8912    0.3843   15.4874 C   0  0  0  0  0  0  0  0  0  0  0  0
    5.6000   -0.5403   16.4969 C   0  0  0  0  0  0  0  0  0  0  0  0
    4.3900   -1.0499   16.3863 N   0  0  0  0  0  0  0  0  0  0  0  0
    3.8285   -0.3910   15.3363 C   0  0  0  0  0  0  0  0  0  0  0  0
    2.6272    2.1508   12.1213 C   0  0  0  0  0  0  0  0  0  0  0  0
    3.5370    2.6346   11.1631 C   0  0  0  0  0  0  0  0  0  0  0  0
    3.1492    3.4622   10.1085 C   0  0  0  0  0  0  0  0  0  0  0  0
    1.8011    3.8208   10.0156 C   0  0  0  0  0  0  0  0  0  0  0  0
    0.9990    4.5979    9.1271 C   0  0  0  0  0  0  0  0  0  0  0  0
   -0.2497    4.6170    9.5128 N   0  0  0  0  0  0  0  0  0  0  0  0
   -0.3315    3.8838   10.6343 N   0  0  0  0  0  0  0  0  0  0  0  0
    0.8874    3.3527   10.9946 C   0  0  0  0  0  0  0  0  0  0  0  0
    1.2729    2.5247   12.0514 C   0  0  0  0  0  0  0  0  0  0  0  0
   -0.3672   -2.5916   15.8262 C   0  0  0  0  0  0  0  0  0  0  0  0
   -1.7168   -2.8552   15.6739 C   0  0  0  0  0  0  0  0  0  0  0  0
   -5.1681   -4.7705   16.8844 H   0  0  0  0  0  0  0  0  0  0  0  0
   -6.8064   -4.0390   16.9683 H   0  0  0  0  0  0  0  0  0  0  0  0
   -6.4606   -5.3323   15.7707 H   0  0  0  0  0  0  0  0  0  0  0  0
   -6.4580   -2.3321   13.8786 H   0  0  0  0  0  0  0  0  0  0  0  0
   -5.3055   -1.2992   15.8742 H   0  0  0  0  0  0  0  0  0  0  0  0
   -4.3393   -2.4837   16.8177 H   0  0  0  0  0  0  0  0  0  0  0  0
   -3.7836   -4.5587   14.8924 H   0  0  0  0  0  0  0  0  0  0  0  0
   -4.5919   -3.9613   13.4036 H   0  0  0  0  0  0  0  0  0  0  0  0
   -2.4902   -0.4931   13.3553 H   0  0  0  0  0  0  0  0  0  0  0  0
   -0.0718   -0.0199   13.6204 H   0  0  0  0  0  0  0  0  0  0  0  0
    1.9776   -1.9011   16.0631 H   0  0  0  0  0  0  0  0  0  0  0  0
    5.0730    1.0132   12.8649 H   0  0  0  0  0  0  0  0  0  0  0  0
    4.6060    2.3289   13.9951 H   0  0  0  0  0  0  0  0  0  0  0  0
    6.8256    0.8996   15.3209 H   0  0  0  0  0  0  0  0  0  0  0  0
    6.2923   -0.8072   17.2817 H   0  0  0  0  0  0  0  0  0  0  0  0
    4.5766    2.3543   11.2471 H   0  0  0  0  0  0  0  0  0  0  0  0
    3.8694    3.8153    9.3853 H   0  0  0  0  0  0  0  0  0  0  0  0
    1.3748    5.1042    8.2503 H   0  0  0  0  0  0  0  0  0  0  0  0
    0.5586    2.1846   12.7866 H   0  0  0  0  0  0  0  0  0  0  0  0
    0.2235   -3.1840   16.5093 H   0  0  0  0  0  0  0  0  0  0  0  0
   -2.1807   -3.6478   16.2422 H   0  0  0  0  0  0  0  0  0  0  0  0
  1  2  1  0  0  0  0
  2  3  1  0  0  0  0
  2  4  1  0  0  0  0
  2  6  1  0  0  0  0
  4  5  1  0  0  0  0
  5  6  1  0  0  0  0
  5  7  1  0  0  0  0
  7  8  2  0  0  0  0
  7 31  1  0  0  0  0
  8  9  1  0  0  0  0
  9 10  2  0  0  0  0
 10 11  1  0  0  0  0
 10 30  1  0  0  0  0
 11 12  1  0  0  0  0
 12 13  2  0  0  0  0
 12 20  1  0  0  0  0
 13 14  1  0  0  0  0
 14 15  1  0  0  0  0
 14 21  2  0  0  0  0
 15 16  1  0  0  0  0
 16 17  1  0  0  0  0
 16 20  1  0  0  0  0
 17 18  2  0  0  0  0
 18 19  1  0  0  0  0
 19 20  2  0  0  0  0
 21 22  1  0  0  0  0
 21 29  1  0  0  0  0
 22 23  2  0  0  0  0
 23 24  1  0  0  0  0
 24 25  2  0  0  0  0
 24 28  1  0  0  0  0
 25 26  1  0  0  0  0
 26 27  2  0  0  0  0
 27 28  1  0  0  0  0
 28 29  2  0  0  0  0
 30 31  2  0  0  0  0
  1 32  1  0  0  0  0
  1 33  1  0  0  0  0
  1 34  1  0  0  0  0
  3 35  1  0  0  0  0
  4 36  1  0  0  0  0
  4 37  1  0  0  0  0
  6 38  1  0  0  0  0
  6 39  1  0  0  0  0
  8 40  1  0  0  0  0
  9 41  1  0  0  0  0
 11 42  1  0  0  0  0
 15 43  1  0  0  0  0
 15 44  1  0  0  0  0
 17 45  1  0  0  0  0
 18 46  1  0  0  0  0
 22 47  1  0  0  0  0
 23 48  1  0  0  0  0
 25 49  1  0  0  0  0
 29 50  1  0  0  0  0
 30 51  1  0  0  0  0
 31 52  1  0  0  0  0
M  END
> <IC50[nM]>
3.9

$$$$
CHEMBL3265030_n
  -OEChem-05192314333D
 Structure written by MMmdl.
 52 57  0     0  0  0  0  0  0999 V2000
   -6.0443   -4.4602   16.2962 C   0  0  0  0  0  0  0  0  0  0  0  0
   -5.6240   -3.4001   15.2728 C   0  0  0  0  0  0  0  0  0  0  0  0
   -6.7329   -2.9884   14.5080 O   0  0  0  0  0  0  0  0  0  0  0  0
   -4.7833   -2.2666   15.8350 C   0  0  0  0  0  0  0  0  0  0  0  0
   -3.8370   -2.3937   14.7064 N   0  0  0  0  0  0  0  0  0  0  0  0
   -4.3873   -3.7457   14.4627 C   0  0  0  0  0  0  0  0  0  0  0  0
   -2.4739   -2.0989   14.7890 C   0  0  0  0  0  0  0  0  0  0  0  0
   -1.8935   -1.0737   14.0433 C   0  0  0  0  0  0  0  0  0  0  0  0
   -0.5352   -0.8073   14.1963 C   0  0  0  0  0  0  0  0  0  0  0  0
    0.2332   -1.5617   15.0991 C   0  0  0  0  0  0  0  0  0  0  0  0
    1.5948   -1.3216   15.3436 N   0  0  0  0  0  0  0  0  0  0  0  0
    2.5323   -0.4320   14.7835 C   0  0  0  0  0  0  0  0  0  0  0  0
    2.1832    0.3856   13.7527 N   0  0  0  0  0  0  0  0  0  0  0  0
    3.0997    1.2392   13.2138 C   0  0  0  0  0  0  0  0  0  0  0  0
    4.4085    1.2886   13.6971 C   0  0  0  0  0  0  0  0  0  0  0  0
    4.7393    0.4966   14.7557 N   0  0  0  0  0  0  0  0  0  0  0  0
    5.8912    0.3843   15.4874 C   0  0  0  0  0  0  0  0  0  0  0  0
    5.6000   -0.5403   16.4969 C   0  0  0  0  0  0  0  0  0  0  0  0
    4.3900   -1.0499   16.3863 N   0  0  0  0  0  0  0  0  0  0  0  0
    3.8285   -0.3910   15.3363 C   0  0  0  0  0  0  0  0  0  0  0  0
    2.6272    2.1508   12.1213 C   0  0  0  0  0  0  0  0  0  0  0  0
    3.5370    2.6346   11.1631 C   0  0  0  0  0  0  0  0  0  0  0  0
    3.1492    3.4622   10.1085 C   0  0  0  0  0  0  0  0  0  0  0  0
    1.8011    3.8208   10.0156 C   0  0  0  0  0  0  0  0  0  0  0  0
    0.9990    4.5979    9.1271 C   0  0  0  0  0  0  0  0  0  0  0  0
   -0.2497    4.6170    9.5128 N   0  0  0  0  0  0  0  0  0  0  0  0
   -0.3315    3.8838   10.6343 N   0  0  0  0  0  0  0  0  0  0  0  0
    0.8874    3.3527   10.9946 C   0  0  0  0  0  0  0  0  0  0  0  0
    1.2729    2.5247   12.0514 C   0  0  0  0  0  0  0  0  0  0  0  0
   -0.3672   -2.5916   15.8262 C   0  0  0  0  0  0  0  0  0  0  0  0
   -1.7168   -2.8552   15.6739 C   0  0  0  0  0  0  0  0  0  0  0  0
   -5.1681   -4.7705   16.8844 H   0  0  0  0  0  0  0  0  0  0  0  0
   -6.8064   -4.0390   16.9683 H   0  0  0  0  0  0  0  0  0  0  0  0
   -6.4606   -5.3323   15.7707 H   0  0  0  0  0  0  0  0  0  0  0  0
   -6.4580   -2.3321   13.8786 H   0  0  0  0  0  0  0  0  0  0  0  0
   -5.3055   -1.2992   15.8742 H   0  0  0  0  0  0  0  0  0  0  0  0
   -4.3393   -2.4837   16.8177 H   0  0  0  0  0  0  0  0  0  0  0  0
   -3.7836   -4.5587   14.8924 H   0  0  0  0  0  0  0  0  0  0  0  0
   -4.5919   -3.9613   13.4036 H   0  0  0  0  0  0  0  0  0  0  0  0
   -2.4902   -0.4931   13.3553 H   0  0  0  0  0  0  0  0  0  0  0  0
   -0.0718   -0.0199   13.6204 H   0  0  0  0  0  0  0  0  0  0  0  0
    1.2518    0.3601   13.3896 H   0  0  0  0  0  0  0  0  0  0  0  0
    5.0730    1.0132   12.8649 H   0  0  0  0  0  0  0  0  0  0  0  0
    4.6060    2.3289   13.9951 H   0  0  0  0  0  0  0  0  0  0  0  0
    6.8256    0.8996   15.3209 H   0  0  0  0  0  0  0  0  0  0  0  0
    6.2923   -0.8072   17.2817 H   0  0  0  0  0  0  0  0  0  0  0  0
    4.5766    2.3543   11.2471 H   0  0  0  0  0  0  0  0  0  0  0  0
    3.8694    3.8153    9.3853 H   0  0  0  0  0  0  0  0  0  0  0  0
    1.3748    5.1042    8.2503 H   0  0  0  0  0  0  0  0  0  0  0  0
    0.5586    2.1846   12.7866 H   0  0  0  0  0  0  0  0  0  0  0  0
    0.2235   -3.1840   16.5093 H   0  0  0  0  0  0  0  0  0  0  0  0
   -2.1807   -3.6478   16.2422 H   0  0  0  0  0  0  0  0  0  0  0  0
  1  2  1  0  0  0  0
  2  3  1  0  0  0  0
  2  4  1  0  0  0  0
  2  6  1  0  0  0  0
  4  5  1  0  0  0  0
  5  6  1  0  0  0  0
  5  7  1  0  0  0  0
  7  8  2  0  0  0  0
  7 31  1  0  0  0  0
  8  9  1  0  0  0  0
  9 10  2  0  0  0  0
 10 11  1  0  0  0  0
 10 30  1  0  0  0  0
 11 12  2  0  0  0  0
 12 13  1  0  0  0  0
 12 20  1  0  0  0  0
 13 14  1  0  0  0  0
 14 15  1  0  0  0  0
 14 21  2  0  0  0  0
 15 16  1  0  0  0  0
 16 17  1  0  0  0  0
 16 20  1  0  0  0  0
 17 18  2  0  0  0  0
 18 19  1  0  0  0  0
 19 20  2  0  0  0  0
 21 22  1  0  0  0  0
 21 29  1  0  0  0  0
 22 23  2  0  0  0  0
 23 24  1  0  0  0  0
 24 25  2  0  0  0  0
 24 28  1  0  0  0  0
 25 26  1  0  0  0  0
 26 27  2  0  0  0  0
 27 28  1  0  0  0  0
 28 29  2  0  0  0  0
 30 31  2  0  0  0  0
  1 32  1  0  0  0  0
  1 33  1  0  0  0  0
  1 34  1  0  0  0  0
  3 35  1  0  0  0  0
  4 36  1  0  0  0  0
  4 37  1  0  0  0  0
  6 38  1  0  0  0  0
  6 39  1  0  0  0  0
  8 40  1  0  0  0  0
  9 41  1  0  0  0  0
 13 42  1  0  0  0  0
 15 43  1  0  0  0  0
 15 44  1  0  0  0  0
 17 45  1  0  0  0  0
 18 46  1  0  0  0  0
 22 47  1  0  0  0  0
 23 48  1  0  0  0  0
 25 49  1  0  0  0  0
 29 50  1  0  0  0  0
 30 51  1  0  0  0  0
 31 52  1  0  0  0  0
M  END
> <IC50[nM]>
3.9

$$$$
CHEMBL3265030_n
  -OEChem-05192314333D
 Structure written by MMmdl.
 52 57  0     0  0  0  0  0  0999 V2000
   -6.0443   -4.4602   16.2962 C   0  0  0  0  0  0  0  0  0  0  0  0
   -5.6240   -3.4001   15.2728 C   0  0  0  0  0  0  0  0  0  0  0  0
   -6.7329   -2.9884   14.5080 O   0  0  0  0  0  0  0  0  0  0  0  0
   -4.7833   -2.2666   15.8350 C   0  0  0  0  0  0  0  0  0  0  0  0
   -3.8370   -2.3937   14.7064 N   0  0  0  0  0  0  0  0  0  0  0  0
   -4.3873   -3.7457   14.4627 C   0  0  0  0  0  0  0  0  0  0  0  0
   -2.4739   -2.0989   14.7890 C   0  0  0  0  0  0  0  0  0  0  0  0
   -1.8935   -1.0737   14.0433 C   0  0  0  0  0  0  0  0  0  0  0  0
   -0.5352   -0.8073   14.1963 C   0  0  0  0  0  0  0  0  0  0  0  0
    0.2332   -1.5617   15.0991 C   0  0  0  0  0  0  0  0  0  0  0  0
    1.5948   -1.3216   15.3436 N   0  0  0  0  0  0  0  0  0  0  0  0
    2.5323   -0.4320   14.7835 C   0  0  0  0  0  0  0  0  0  0  0  0
    2.1832    0.3856   13.7527 N   0  0  0  0  0  0  0  0  0  0  0  0
    3.0997    1.2392   13.2138 C   0  0  0  0  0  0  0  0  0  0  0  0
    4.4085    1.2886   13.6971 C   0  0  0  0  0  0  0  0  0  0  0  0
    4.7393    0.4966   14.7557 N   0  0  0  0  0  0  0  0  0  0  0  0
    5.8912    0.3843   15.4874 C   0  0  0  0  0  0  0  0  0  0  0  0
    5.6000   -0.5403   16.4969 C   0  0  0  0  0  0  0  0  0  0  0  0
    4.3900   -1.0499   16.3863 N   0  0  0  0  0  0  0  0  0  0  0  0
    3.8285   -0.3910   15.3363 C   0  0  0  0  0  0  0  0  0  0  0  0
    2.6272    2.1508   12.1213 C   0  0  0  0  0  0  0  0  0  0  0  0
    3.5370    2.6346   11.1631 C   0  0  0  0  0  0  0  0  0  0  0  0
    3.1492    3.4622   10.1085 C   0  0  0  0  0  0  0  0  0  0  0  0
    1.8011    3.8208   10.0156 C   0  0  0  0  0  0  0  0  0  0  0  0
    0.9990    4.5979    9.1271 C   0  0  0  0  0  0  0  0  0  0  0  0
   -0.2497    4.6170    9.5128 N   0  0  0  0  0  0  0  0  0  0  0  0
   -0.3315    3.8838   10.6343 N   0  0  0  0  0  0  0  0  0  0  0  0
    0.8874    3.3527   10.9946 C   0  0  0  0  0  0  0  0  0  0  0  0
    1.2729    2.5247   12.0514 C   0  0  0  0  0  0  0  0  0  0  0  0
   -0.3672   -2.5916   15.8262 C   0  0  0  0  0  0  0  0  0  0  0  0
   -1.7168   -2.8552   15.6739 C   0  0  0  0  0  0  0  0  0  0  0  0
   -5.1681   -4.7705   16.8844 H   0  0  0  0  0  0  0  0  0  0  0  0
   -6.8064   -4.0390   16.9683 H   0  0  0  0  0  0  0  0  0  0  0  0
   -6.4606   -5.3323   15.7707 H   0  0  0  0  0  0  0  0  0  0  0  0
   -6.4580   -2.3321   13.8786 H   0  0  0  0  0  0  0  0  0  0  0  0
   -5.3055   -1.2992   15.8742 H   0  0  0  0  0  0  0  0  0  0  0  0
   -4.3393   -2.4837   16.8177 H   0  0  0  0  0  0  0  0  0  0  0  0
   -3.7836   -4.5587   14.8924 H   0  0  0  0  0  0  0  0  0  0  0  0
   -4.5919   -3.9613   13.4036 H   0  0  0  0  0  0  0  0  0  0  0  0
   -2.2620   -2.8162   13.9824 H   0  0  0  0  0  0  0  0  0  0  0  0
   -2.4902   -0.4931   13.3553 H   0  0  0  0  0  0  0  0  0  0  0  0
   -0.0718   -0.0199   13.6204 H   0  0  0  0  0  0  0  0  0  0  0  0
    5.1414    1.9390   13.2429 H   0  0  0  0  0  0  0  0  0  0  0  0
    6.8256    0.8996   15.3209 H   0  0  0  0  0  0  0  0  0  0  0  0
    6.2923   -0.8072   17.2817 H   0  0  0  0  0  0  0  0  0  0  0  0
    4.5766    2.3543   11.2471 H   0  0  0  0  0  0  0  0  0  0  0  0
    3.8694    3.8153    9.3853 H   0  0  0  0  0  0  0  0  0  0  0  0
    1.3835    5.6283    9.1046 H   0  0  0  0  0  0  0  0  0  0  0  0
    1.0565    4.1630    8.1184 H   0  0  0  0  0  0  0  0  0  0  0  0
    0.5586    2.1846   12.7866 H   0  0  0  0  0  0  0  0  0  0  0  0
    0.2235   -3.1840   16.5093 H   0  0  0  0  0  0  0  0  0  0  0  0
   -2.1807   -3.6478   16.2422 H   0  0  0  0  0  0  0  0  0  0  0  0
  1  2  1  0  0  0  0
  2  3  1  0  0  0  0
  2  4  1  0  0  0  0
  2  6  1  0  0  0  0
  4  5  1  0  0  0  0
  5  6  1  0  0  0  0
  5  7  1  0  0  0  0
  7  8  1  0  0  0  0
  7 31  1  0  0  0  0
  8  9  2  0  0  0  0
  9 10  1  0  0  0  0
 10 11  2  0  0  0  0
 10 30  1  0  0  0  0
 11 12  1  0  0  0  0
 12 13  2  0  0  0  0
 12 20  1  0  0  0  0
 13 14  1  0  0  0  0
 14 15  2  0  0  0  0
 14 21  1  0  0  0  0
 15 16  1  0  0  0  0
 16 17  1  0  0  0  0
 16 20  1  0  0  0  0
 17 18  2  0  0  0  0
 18 19  1  0  0  0  0
 19 20  2  0  0  0  0
 21 22  2  0  0  0  0
 21 29  1  0  0  0  0
 22 23  1  0  0  0  0
 23 24  2  0  0  0  0
 24 25  1  0  0  0  0
 24 28  1  0  0  0  0
 25 26  1  0  0  0  0
 26 27  2  0  0  0  0
 27 28  1  0  0  0  0
 28 29  2  0  0  0  0
 30 31  2  0  0  0  0
  1 32  1  0  0  0  0
  1 33  1  0  0  0  0
  1 34  1  0  0  0  0
  3 35  1  0  0  0  0
  4 36  1  0  0  0  0
  4 37  1  0  0  0  0
  6 38  1  0  0  0  0
  6 39  1  0  0  0  0
  7 40  1  0  0  0  0
  8 41  1  0  0  0  0
  9 42  1  0  0  0  0
 15 43  1  0  0  0  0
 17 44  1  0  0  0  0
 18 45  1  0  0  0  0
 22 46  1  0  0  0  0
 23 47  1  0  0  0  0
 25 48  1  0  0  0  0
 25 49  1  0  0  0  0
 29 50  1  0  0  0  0
 30 51  1  0  0  0  0
 31 52  1  0  0  0  0
M  END
> <IC50[nM]>
3.9

$$$$
CHEMBL3265030_n
  -OEChem-05192314333D
 Structure written by MMmdl.
 52 57  0     0  0  0  0  0  0999 V2000
   -6.0443   -4.4602   16.2962 C   0  0  0  0  0  0  0  0  0  0  0  0
   -5.6240   -3.4001   15.2728 C   0  0  0  0  0  0  0  0  0  0  0  0
   -6.7329   -2.9884   14.5080 O   0  0  0  0  0  0  0  0  0  0  0  0
   -4.7833   -2.2666   15.8350 C   0  0  0  0  0  0  0  0  0  0  0  0
   -3.8370   -2.3937   14.7064 N   0  0  0  0  0  0  0  0  0  0  0  0
   -4.3873   -3.7457   14.4627 C   0  0  0  0  0  0  0  0  0  0  0  0
   -2.4739   -2.0989   14.7890 C   0  0  0  0  0  0  0  0  0  0  0  0
   -1.8935   -1.0737   14.0433 C   0  0  0  0  0  0  0  0  0  0  0  0
   -0.5352   -0.8073   14.1963 C   0  0  0  0  0  0  0  0  0  0  0  0
    0.2332   -1.5617   15.0991 C   0  0  0  0  0  0  0  0  0  0  0  0
    1.5948   -1.3216   15.3436 N   0  0  0  0  0  0  0  0  0  0  0  0
    2.5323   -0.4320   14.7835 C   0  0  0  0  0  0  0  0  0  0  0  0
    2.1832    0.3856   13.7527 N   0  0  0  0  0  0  0  0  0  0  0  0
    3.0997    1.2392   13.2138 C   0  0  0  0  0  0  0  0  0  0  0  0
    4.4085    1.2886   13.6971 C   0  0  0  0  0  0  0  0  0  0  0  0
    4.7393    0.4966   14.7557 N   0  0  0  0  0  0  0  0  0  0  0  0
    5.8912    0.3843   15.4874 C   0  0  0  0  0  0  0  0  0  0  0  0
    5.6000   -0.5403   16.4969 C   0  0  0  0  0  0  0  0  0  0  0  0
    4.3900   -1.0499   16.3863 N   0  0  0  0  0  0  0  0  0  0  0  0
    3.8285   -0.3910   15.3363 C   0  0  0  0  0  0  0  0  0  0  0  0
    2.6272    2.1508   12.1213 C   0  0  0  0  0  0  0  0  0  0  0  0
    3.5370    2.6346   11.1631 C   0  0  0  0  0  0  0  0  0  0  0  0
    3.1492    3.4622   10.1085 C   0  0  0  0  0  0  0  0  0  0  0  0
    1.8011    3.8208   10.0156 C   0  0  0  0  0  0  0  0  0  0  0  0
    0.9990    4.5979    9.1271 C   0  0  0  0  0  0  0  0  0  0  0  0
   -0.2497    4.6170    9.5128 N   0  0  0  0  0  0  0  0  0  0  0  0
   -0.3315    3.8838   10.6343 N   0  0  0  0  0  0  0  0  0  0  0  0
    0.8874    3.3527   10.9946 C   0  0  0  0  0  0  0  0  0  0  0  0
    1.2729    2.5247   12.0514 C   0  0  0  0  0  0  0  0  0  0  0  0
   -0.3672   -2.5916   15.8262 C   0  0  0  0  0  0  0  0  0  0  0  0
   -1.7168   -2.8552   15.6739 C   0  0  0  0  0  0  0  0  0  0  0  0
   -5.1681   -4.7705   16.8844 H   0  0  0  0  0  0  0  0  0  0  0  0
   -6.8064   -4.0390   16.9683 H   0  0  0  0  0  0  0  0  0  0  0  0
   -6.4606   -5.3323   15.7707 H   0  0  0  0  0  0  0  0  0  0  0  0
   -6.4580   -2.3321   13.8786 H   0  0  0  0  0  0  0  0  0  0  0  0
   -5.3055   -1.2992   15.8742 H   0  0  0  0  0  0  0  0  0  0  0  0
   -4.3393   -2.4837   16.8177 H   0  0  0  0  0  0  0  0  0  0  0  0
   -3.7836   -4.5587   14.8924 H   0  0  0  0  0  0  0  0  0  0  0  0
   -4.5919   -3.9613   13.4036 H   0  0  0  0  0  0  0  0  0  0  0  0
   -2.4902   -0.4931   13.3553 H   0  0  0  0  0  0  0  0  0  0  0  0
   -0.0718   -0.0199   13.6204 H   0  0  0  0  0  0  0  0  0  0  0  0
    5.1414    1.9390   13.2429 H   0  0  0  0  0  0  0  0  0  0  0  0
    6.8256    0.8996   15.3209 H   0  0  0  0  0  0  0  0  0  0  0  0
    6.2923   -0.8072   17.2817 H   0  0  0  0  0  0  0  0  0  0  0  0
    4.5766    2.3543   11.2471 H   0  0  0  0  0  0  0  0  0  0  0  0
    3.8694    3.8153    9.3853 H   0  0  0  0  0  0  0  0  0  0  0  0
    1.3835    5.6283    9.1046 H   0  0  0  0  0  0  0  0  0  0  0  0
    1.0565    4.1630    8.1184 H   0  0  0  0  0  0  0  0  0  0  0  0
    0.5586    2.1846   12.7866 H   0  0  0  0  0  0  0  0  0  0  0  0
    0.1676   -3.5168   15.5655 H   0  0  0  0  0  0  0  0  0  0  0  0
   -0.2073   -2.3630   16.8902 H   0  0  0  0  0  0  0  0  0  0  0  0
   -2.1807   -3.6478   16.2422 H   0  0  0  0  0  0  0  0  0  0  0  0
  1  2  1  0  0  0  0
  2  3  1  0  0  0  0
  2  4  1  0  0  0  0
  2  6  1  0  0  0  0
  4  5  1  0  0  0  0
  5  6  1  0  0  0  0
  5  7  1  0  0  0  0
  7  8  1  0  0  0  0
  7 31  2  0  0  0  0
  8  9  2  0  0  0  0
  9 10  1  0  0  0  0
 10 11  2  0  0  0  0
 10 30  1  0  0  0  0
 11 12  1  0  0  0  0
 12 13  2  0  0  0  0
 12 20  1  0  0  0  0
 13 14  1  0  0  0  0
 14 15  2  0  0  0  0
 14 21  1  0  0  0  0
 15 16  1  0  0  0  0
 16 17  1  0  0  0  0
 16 20  1  0  0  0  0
 17 18  2  0  0  0  0
 18 19  1  0  0  0  0
 19 20  2  0  0  0  0
 21 22  2  0  0  0  0
 21 29  1  0  0  0  0
 22 23  1  0  0  0  0
 23 24  2  0  0  0  0
 24 25  1  0  0  0  0
 24 28  1  0  0  0  0
 25 26  1  0  0  0  0
 26 27  2  0  0  0  0
 27 28  1  0  0  0  0
 28 29  2  0  0  0  0
 30 31  1  0  0  0  0
  1 32  1  0  0  0  0
  1 33  1  0  0  0  0
  1 34  1  0  0  0  0
  3 35  1  0  0  0  0
  4 36  1  0  0  0  0
  4 37  1  0  0  0  0
  6 38  1  0  0  0  0
  6 39  1  0  0  0  0
  8 40  1  0  0  0  0
  9 41  1  0  0  0  0
 15 42  1  0  0  0  0
 17 43  1  0  0  0  0
 18 44  1  0  0  0  0
 22 45  1  0  0  0  0
 23 46  1  0  0  0  0
 25 47  1  0  0  0  0
 25 48  1  0  0  0  0
 29 49  1  0  0  0  0
 30 50  1  0  0  0  0
 30 51  1  0  0  0  0
 31 52  1  0  0  0  0
M  END
> <IC50[nM]>
3.9

$$$$
CHEMBL3265030_n
  -OEChem-05192314333D
 Structure written by MMmdl.
 52 57  0     1  0  0  0  0  0999 V2000
   -6.0443   -4.4602   16.2962 C   0  0  0  0  0  0  0  0  0  0  0  0
   -5.6240   -3.4001   15.2728 C   0  0  0  0  0  0  0  0  0  0  0  0
   -6.7329   -2.9884   14.5080 O   0  0  0  0  0  0  0  0  0  0  0  0
   -4.7833   -2.2666   15.8350 C   0  0  0  0  0  0  0  0  0  0  0  0
   -3.8370   -2.3937   14.7064 N   0  0  0  0  0  0  0  0  0  0  0  0
   -4.3873   -3.7457   14.4627 C   0  0  0  0  0  0  0  0  0  0  0  0
   -2.4739   -2.0989   14.7890 C   0  0  0  0  0  0  0  0  0  0  0  0
   -1.8935   -1.0737   14.0433 C   0  0  0  0  0  0  0  0  0  0  0  0
   -0.5352   -0.8073   14.1963 C   0  0  0  0  0  0  0  0  0  0  0  0
    0.2332   -1.5617   15.0991 C   0  0  0  0  0  0  0  0  0  0  0  0
    1.5948   -1.3216   15.3436 N   0  0  0  0  0  0  0  0  0  0  0  0
    2.5323   -0.4320   14.7835 C   0  0  0  0  0  0  0  0  0  0  0  0
    2.1832    0.3856   13.7527 N   0  0  0  0  0  0  0  0  0  0  0  0
    3.0997    1.2392   13.2138 C   0  0  0  0  0  0  0  0  0  0  0  0
    4.4085    1.2886   13.6971 C   0  0  0  0  0  0  0  0  0  0  0  0
    4.7393    0.4966   14.7557 N   0  0  0  0  0  0  0  0  0  0  0  0
    5.8912    0.3843   15.4874 C   0  0  0  0  0  0  0  0  0  0  0  0
    5.6000   -0.5403   16.4969 C   0  0  0  0  0  0  0  0  0  0  0  0
    4.3900   -1.0499   16.3863 N   0  0  0  0  0  0  0  0  0  0  0  0
    3.8285   -0.3910   15.3363 C   0  0  0  0  0  0  0  0  0  0  0  0
    2.6272    2.1508   12.1213 C   0  0  0  0  0  0  0  0  0  0  0  0
    3.5370    2.6346   11.1631 C   0  0  0  0  0  0  0  0  0  0  0  0
    3.1492    3.4622   10.1085 C   0  0  0  0  0  0  0  0  0  0  0  0
    1.8011    3.8208   10.0156 C   0  0  3  0  0  0  0  0  0  0  0  0
    0.9990    4.5979    9.1271 C   0  0  0  0  0  0  0  0  0  0  0  0
   -0.2497    4.6170    9.5128 N   0  0  0  0  0  0  0  0  0  0  0  0
   -0.3315    3.8838   10.6343 N   0  0  0  0  0  0  0  0  0  0  0  0
    0.8874    3.3527   10.9946 C   0  0  0  0  0  0  0  0  0  0  0  0
    1.2729    2.5247   12.0514 C   0  0  0  0  0  0  0  0  0  0  0  0
   -0.3672   -2.5916   15.8262 C   0  0  0  0  0  0  0  0  0  0  0  0
   -1.7168   -2.8552   15.6739 C   0  0  0  0  0  0  0  0  0  0  0  0
   -5.1681   -4.7705   16.8844 H   0  0  0  0  0  0  0  0  0  0  0  0
   -6.8064   -4.0390   16.9683 H   0  0  0  0  0  0  0  0  0  0  0  0
   -6.4606   -5.3323   15.7707 H   0  0  0  0  0  0  0  0  0  0  0  0
   -6.4580   -2.3321   13.8786 H   0  0  0  0  0  0  0  0  0  0  0  0
   -5.3055   -1.2992   15.8742 H   0  0  0  0  0  0  0  0  0  0  0  0
   -4.3393   -2.4837   16.8177 H   0  0  0  0  0  0  0  0  0  0  0  0
   -3.7836   -4.5587   14.8924 H   0  0  0  0  0  0  0  0  0  0  0  0
   -4.5919   -3.9613   13.4036 H   0  0  0  0  0  0  0  0  0  0  0  0
   -2.4902   -0.4931   13.3553 H   0  0  0  0  0  0  0  0  0  0  0  0
   -0.0718   -0.0199   13.6204 H   0  0  0  0  0  0  0  0  0  0  0  0
    1.9776   -1.9011   16.0631 H   0  0  0  0  0  0  0  0  0  0  0  0
    5.1414    1.9390   13.2429 H   0  0  0  0  0  0  0  0  0  0  0  0
    6.8256    0.8996   15.3209 H   0  0  0  0  0  0  0  0  0  0  0  0
    6.2923   -0.8072   17.2817 H   0  0  0  0  0  0  0  0  0  0  0  0
    4.5766    2.3543   11.2471 H   0  0  0  0  0  0  0  0  0  0  0  0
    3.8694    3.8153    9.3853 H   0  0  0  0  0  0  0  0  0  0  0  0
    1.9962    4.7161   10.6242 H   0  0  0  0  0  0  0  0  0  0  0  0
    1.3748    5.1042    8.2503 H   0  0  0  0  0  0  0  0  0  0  0  0
    0.5586    2.1846   12.7866 H   0  0  0  0  0  0  0  0  0  0  0  0
    0.2235   -3.1840   16.5093 H   0  0  0  0  0  0  0  0  0  0  0  0
   -2.1807   -3.6478   16.2422 H   0  0  0  0  0  0  0  0  0  0  0  0
  1  2  1  0  0  0  0
  2  3  1  0  0  0  0
  2  4  1  0  0  0  0
  2  6  1  0  0  0  0
  4  5  1  0  0  0  0
  5  6  1  0  0  0  0
  5  7  1  0  0  0  0
  7  8  2  0  0  0  0
  7 31  1  0  0  0  0
  8  9  1  0  0  0  0
  9 10  2  0  0  0  0
 10 11  1  0  0  0  0
 10 30  1  0  0  0  0
 11 12  1  0  0  0  0
 12 13  2  0  0  0  0
 12 20  1  0  0  0  0
 13 14  1  0  0  0  0
 14 15  2  0  0  0  0
 14 21  1  0  0  0  0
 15 16  1  0  0  0  0
 16 17  1  0  0  0  0
 16 20  1  0  0  0  0
 17 18  2  0  0  0  0
 18 19  1  0  0  0  0
 19 20  2  0  0  0  0
 21 22  1  0  0  0  0
 21 29  2  0  0  0  0
 22 23  2  0  0  0  0
 23 24  1  0  0  0  0
 24 25  1  0  0  0  0
 24 28  1  0  0  0  0
 25 26  2  0  0  0  0
 26 27  1  0  0  0  0
 27 28  2  0  0  0  0
 28 29  1  0  0  0  0
 30 31  2  0  0  0  0
  1 32  1  0  0  0  0
  1 33  1  0  0  0  0
  1 34  1  0  0  0  0
  3 35  1  0  0  0  0
  4 36  1  0  0  0  0
  4 37  1  0  0  0  0
  6 38  1  0  0  0  0
  6 39  1  0  0  0  0
  8 40  1  0  0  0  0
  9 41  1  0  0  0  0
 11 42  1  0  0  0  0
 15 43  1  0  0  0  0
 17 44  1  0  0  0  0
 18 45  1  0  0  0  0
 22 46  1  0  0  0  0
 23 47  1  0  0  0  0
 24 48  1  0  0  0  0
 25 49  1  0  0  0  0
 29 50  1  0  0  0  0
 30 51  1  0  0  0  0
 31 52  1  0  0  0  0
M  END
> <IC50[nM]>
3.9

$$$$
CHEMBL3265030_n
  -OEChem-05192314333D
 Structure written by MMmdl.
 52 57  0     0  0  0  0  0  0999 V2000
   -6.0443   -4.4602   16.2962 C   0  0  0  0  0  0  0  0  0  0  0  0
   -5.6240   -3.4001   15.2728 C   0  0  0  0  0  0  0  0  0  0  0  0
   -6.7329   -2.9884   14.5080 O   0  0  0  0  0  0  0  0  0  0  0  0
   -4.7833   -2.2666   15.8350 C   0  0  0  0  0  0  0  0  0  0  0  0
   -3.8370   -2.3937   14.7064 N   0  0  0  0  0  0  0  0  0  0  0  0
   -4.3873   -3.7457   14.4627 C   0  0  0  0  0  0  0  0  0  0  0  0
   -2.4739   -2.0989   14.7890 C   0  0  0  0  0  0  0  0  0  0  0  0
   -1.8935   -1.0737   14.0433 C   0  0  0  0  0  0  0  0  0  0  0  0
   -0.5352   -0.8073   14.1963 C   0  0  0  0  0  0  0  0  0  0  0  0
    0.2332   -1.5617   15.0991 C   0  0  0  0  0  0  0  0  0  0  0  0
    1.5948   -1.3216   15.3436 N   0  0  0  0  0  0  0  0  0  0  0  0
    2.5323   -0.4320   14.7835 C   0  0  0  0  0  0  0  0  0  0  0  0
    2.1832    0.3856   13.7527 N   0  0  0  0  0  0  0  0  0  0  0  0
    3.0997    1.2392   13.2138 C   0  0  0  0  0  0  0  0  0  0  0  0
    4.4085    1.2886   13.6971 C   0  0  0  0  0  0  0  0  0  0  0  0
    4.7393    0.4966   14.7557 N   0  0  0  0  0  0  0  0  0  0  0  0
    5.8912    0.3843   15.4874 C   0  0  0  0  0  0  0  0  0  0  0  0
    5.6000   -0.5403   16.4969 C   0  0  0  0  0  0  0  0  0  0  0  0
    4.3900   -1.0499   16.3863 N   0  0  0  0  0  0  0  0  0  0  0  0
    3.8285   -0.3910   15.3363 C   0  0  0  0  0  0  0  0  0  0  0  0
    2.6272    2.1508   12.1213 C   0  0  0  0  0  0  0  0  0  0  0  0
    3.5370    2.6346   11.1631 C   0  0  0  0  0  0  0  0  0  0  0  0
    3.1492    3.4622   10.1085 C   0  0  0  0  0  0  0  0  0  0  0  0
    1.8011    3.8208   10.0156 C   0  0  0  0  0  0  0  0  0  0  0  0
    0.9990    4.5979    9.1271 C   0  0  0  0  0  0  0  0  0  0  0  0
   -0.2497    4.6170    9.5128 N   0  0  0  0  0  0  0  0  0  0  0  0
   -0.3315    3.8838   10.6343 N   0  0  0  0  0  0  0  0  0  0  0  0
    0.8874    3.3527   10.9946 C   0  0  0  0  0  0  0  0  0  0  0  0
    1.2729    2.5247   12.0514 C   0  0  0  0  0  0  0  0  0  0  0  0
   -0.3672   -2.5916   15.8262 C   0  0  0  0  0  0  0  0  0  0  0  0
   -1.7168   -2.8552   15.6739 C   0  0  0  0  0  0  0  0  0  0  0  0
   -5.1681   -4.7705   16.8844 H   0  0  0  0  0  0  0  0  0  0  0  0
   -6.8064   -4.0390   16.9683 H   0  0  0  0  0  0  0  0  0  0  0  0
   -6.4606   -5.3323   15.7707 H   0  0  0  0  0  0  0  0  0  0  0  0
   -6.4580   -2.3321   13.8786 H   0  0  0  0  0  0  0  0  0  0  0  0
   -5.3055   -1.2992   15.8742 H   0  0  0  0  0  0  0  0  0  0  0  0
   -4.3393   -2.4837   16.8177 H   0  0  0  0  0  0  0  0  0  0  0  0
   -3.7836   -4.5587   14.8924 H   0  0  0  0  0  0  0  0  0  0  0  0
   -4.5919   -3.9613   13.4036 H   0  0  0  0  0  0  0  0  0  0  0  0
   -2.4902   -0.4931   13.3553 H   0  0  0  0  0  0  0  0  0  0  0  0
   -0.0718   -0.0199   13.6204 H   0  0  0  0  0  0  0  0  0  0  0  0
    1.9776   -1.9011   16.0631 H   0  0  0  0  0  0  0  0  0  0  0  0
    5.1414    1.9390   13.2429 H   0  0  0  0  0  0  0  0  0  0  0  0
    6.8256    0.8996   15.3209 H   0  0  0  0  0  0  0  0  0  0  0  0
    6.2923   -0.8072   17.2817 H   0  0  0  0  0  0  0  0  0  0  0  0
    4.3019    3.1925   11.7232 H   0  0  0  0  0  0  0  0  0  0  0  0
    3.9948    1.7471   10.7018 H   0  0  0  0  0  0  0  0  0  0  0  0
    3.8694    3.8153    9.3853 H   0  0  0  0  0  0  0  0  0  0  0  0
    1.3748    5.1042    8.2503 H   0  0  0  0  0  0  0  0  0  0  0  0
    0.5586    2.1846   12.7866 H   0  0  0  0  0  0  0  0  0  0  0  0
    0.2235   -3.1840   16.5093 H   0  0  0  0  0  0  0  0  0  0  0  0
   -2.1807   -3.6478   16.2422 H   0  0  0  0  0  0  0  0  0  0  0  0
  1  2  1  0  0  0  0
  2  3  1  0  0  0  0
  2  4  1  0  0  0  0
  2  6  1  0  0  0  0
  4  5  1  0  0  0  0
  5  6  1  0  0  0  0
  5  7  1  0  0  0  0
  7  8  2  0  0  0  0
  7 31  1  0  0  0  0
  8  9  1  0  0  0  0
  9 10  2  0  0  0  0
 10 11  1  0  0  0  0
 10 30  1  0  0  0  0
 11 12  1  0  0  0  0
 12 13  2  0  0  0  0
 12 20  1  0  0  0  0
 13 14  1  0  0  0  0
 14 15  2  0  0  0  0
 14 21  1  0  0  0  0
 15 16  1  0  0  0  0
 16 17  1  0  0  0  0
 16 20  1  0  0  0  0
 17 18  2  0  0  0  0
 18 19  1  0  0  0  0
 19 20  2  0  0  0  0
 21 22  1  0  0  0  0
 21 29  2  0  0  0  0
 22 23  1  0  0  0  0
 23 24  2  0  0  0  0
 24 25  1  0  0  0  0
 24 28  1  0  0  0  0
 25 26  2  0  0  0  0
 26 27  1  0  0  0  0
 27 28  2  0  0  0  0
 28 29  1  0  0  0  0
 30 31  2  0  0  0  0
  1 32  1  0  0  0  0
  1 33  1  0  0  0  0
  1 34  1  0  0  0  0
  3 35  1  0  0  0  0
  4 36  1  0  0  0  0
  4 37  1  0  0  0  0
  6 38  1  0  0  0  0
  6 39  1  0  0  0  0
  8 40  1  0  0  0  0
  9 41  1  0  0  0  0
 11 42  1  0  0  0  0
 15 43  1  0  0  0  0
 17 44  1  0  0  0  0
 18 45  1  0  0  0  0
 22 46  1  0  0  0  0
 22 47  1  0  0  0  0
 23 48  1  0  0  0  0
 25 49  1  0  0  0  0
 29 50  1  0  0  0  0
 30 51  1  0  0  0  0
 31 52  1  0  0  0  0
M  END
> <IC50[nM]>
3.9

$$$$
CHEMBL3265030_n
  -OEChem-05192314333D
 Structure written by MMmdl.
 52 57  0     0  0  0  0  0  0999 V2000
   -6.0443   -4.4602   16.2962 C   0  0  0  0  0  0  0  0  0  0  0  0
   -5.6240   -3.4001   15.2728 C   0  0  0  0  0  0  0  0  0  0  0  0
   -6.7329   -2.9884   14.5080 O   0  0  0  0  0  0  0  0  0  0  0  0
   -4.7833   -2.2666   15.8350 C   0  0  0  0  0  0  0  0  0  0  0  0
   -3.8370   -2.3937   14.7064 N   0  0  0  0  0  0  0  0  0  0  0  0
   -4.3873   -3.7457   14.4627 C   0  0  0  0  0  0  0  0  0  0  0  0
   -2.4739   -2.0989   14.7890 C   0  0  0  0  0  0  0  0  0  0  0  0
   -1.8935   -1.0737   14.0433 C   0  0  0  0  0  0  0  0  0  0  0  0
   -0.5352   -0.8073   14.1963 C   0  0  0  0  0  0  0  0  0  0  0  0
    0.2332   -1.5617   15.0991 C   0  0  0  0  0  0  0  0  0  0  0  0
    1.5948   -1.3216   15.3436 N   0  0  0  0  0  0  0  0  0  0  0  0
    2.5323   -0.4320   14.7835 C   0  0  0  0  0  0  0  0  0  0  0  0
    2.1832    0.3856   13.7527 N   0  0  0  0  0  0  0  0  0  0  0  0
    3.0997    1.2392   13.2138 C   0  0  0  0  0  0  0  0  0  0  0  0
    4.4085    1.2886   13.6971 C   0  0  0  0  0  0  0  0  0  0  0  0
    4.7393    0.4966   14.7557 N   0  0  0  0  0  0  0  0  0  0  0  0
    5.8912    0.3843   15.4874 C   0  0  0  0  0  0  0  0  0  0  0  0
    5.6000   -0.5403   16.4969 C   0  0  0  0  0  0  0  0  0  0  0  0
    4.3900   -1.0499   16.3863 N   0  0  0  0  0  0  0  0  0  0  0  0
    3.8285   -0.3910   15.3363 C   0  0  0  0  0  0  0  0  0  0  0  0
    2.6272    2.1508   12.1213 C   0  0  0  0  0  0  0  0  0  0  0  0
    3.5370    2.6346   11.1631 C   0  0  0  0  0  0  0  0  0  0  0  0
    3.1492    3.4622   10.1085 C   0  0  0  0  0  0  0  0  0  0  0  0
    1.8011    3.8208   10.0156 C   0  0  0  0  0  0  0  0  0  0  0  0
    0.9990    4.5979    9.1271 C   0  0  0  0  0  0  0  0  0  0  0  0
   -0.2497    4.6170    9.5128 N   0  0  0  0  0  0  0  0  0  0  0  0
   -0.3315    3.8838   10.6343 N   0  0  0  0  0  0  0  0  0  0  0  0
    0.8874    3.3527   10.9946 C   0  0  0  0  0  0  0  0  0  0  0  0
    1.2729    2.5247   12.0514 C   0  0  0  0  0  0  0  0  0  0  0  0
   -0.3672   -2.5916   15.8262 C   0  0  0  0  0  0  0  0  0  0  0  0
   -1.7168   -2.8552   15.6739 C   0  0  0  0  0  0  0  0  0  0  0  0
   -5.1681   -4.7705   16.8844 H   0  0  0  0  0  0  0  0  0  0  0  0
   -6.8064   -4.0390   16.9683 H   0  0  0  0  0  0  0  0  0  0  0  0
   -6.4606   -5.3323   15.7707 H   0  0  0  0  0  0  0  0  0  0  0  0
   -6.4580   -2.3321   13.8786 H   0  0  0  0  0  0  0  0  0  0  0  0
   -5.3055   -1.2992   15.8742 H   0  0  0  0  0  0  0  0  0  0  0  0
   -4.3393   -2.4837   16.8177 H   0  0  0  0  0  0  0  0  0  0  0  0
   -3.7836   -4.5587   14.8924 H   0  0  0  0  0  0  0  0  0  0  0  0
   -4.5919   -3.9613   13.4036 H   0  0  0  0  0  0  0  0  0  0  0  0
   -2.4902   -0.4931   13.3553 H   0  0  0  0  0  0  0  0  0  0  0  0
   -0.0718   -0.0199   13.6204 H   0  0  0  0  0  0  0  0  0  0  0  0
    1.9776   -1.9011   16.0631 H   0  0  0  0  0  0  0  0  0  0  0  0
    5.1414    1.9390   13.2429 H   0  0  0  0  0  0  0  0  0  0  0  0
    6.8256    0.8996   15.3209 H   0  0  0  0  0  0  0  0  0  0  0  0
    6.2923   -0.8072   17.2817 H   0  0  0  0  0  0  0  0  0  0  0  0
    4.5766    2.3543   11.2471 H   0  0  0  0  0  0  0  0  0  0  0  0
    3.8694    3.8153    9.3853 H   0  0  0  0  0  0  0  0  0  0  0  0
    1.3748    5.1042    8.2503 H   0  0  0  0  0  0  0  0  0  0  0  0
    0.6792    1.6014   11.9804 H   0  0  0  0  0  0  0  0  0  0  0  0
    1.0266    3.0480   12.9871 H   0  0  0  0  0  0  0  0  0  0  0  0
    0.2235   -3.1840   16.5093 H   0  0  0  0  0  0  0  0  0  0  0  0
   -2.1807   -3.6478   16.2422 H   0  0  0  0  0  0  0  0  0  0  0  0
  1  2  1  0  0  0  0
  2  3  1  0  0  0  0
  2  4  1  0  0  0  0
  2  6  1  0  0  0  0
  4  5  1  0  0  0  0
  5  6  1  0  0  0  0
  5  7  1  0  0  0  0
  7  8  2  0  0  0  0
  7 31  1  0  0  0  0
  8  9  1  0  0  0  0
  9 10  2  0  0  0  0
 10 11  1  0  0  0  0
 10 30  1  0  0  0  0
 11 12  1  0  0  0  0
 12 13  2  0  0  0  0
 12 20  1  0  0  0  0
 13 14  1  0  0  0  0
 14 15  2  0  0  0  0
 14 21  1  0  0  0  0
 15 16  1  0  0  0  0
 16 17  1  0  0  0  0
 16 20  1  0  0  0  0
 17 18  2  0  0  0  0
 18 19  1  0  0  0  0
 19 20  2  0  0  0  0
 21 22  2  0  0  0  0
 21 29  1  0  0  0  0
 22 23  1  0  0  0  0
 23 24  2  0  0  0  0
 24 25  1  0  0  0  0
 24 28  1  0  0  0  0
 25 26  2  0  0  0  0
 26 27  1  0  0  0  0
 27 28  2  0  0  0  0
 28 29  1  0  0  0  0
 30 31  2  0  0  0  0
  1 32  1  0  0  0  0
  1 33  1  0  0  0  0
  1 34  1  0  0  0  0
  3 35  1  0  0  0  0
  4 36  1  0  0  0  0
  4 37  1  0  0  0  0
  6 38  1  0  0  0  0
  6 39  1  0  0  0  0
  8 40  1  0  0  0  0
  9 41  1  0  0  0  0
 11 42  1  0  0  0  0
 15 43  1  0  0  0  0
 17 44  1  0  0  0  0
 18 45  1  0  0  0  0
 22 46  1  0  0  0  0
 23 47  1  0  0  0  0
 25 48  1  0  0  0  0
 29 49  1  0  0  0  0
 29 50  1  0  0  0  0
 30 51  1  0  0  0  0
 31 52  1  0  0  0  0
M  END
> <IC50[nM]>
3.9

$$$$
CHEMBL3265030_n
  -OEChem-05192314333D
 Structure written by MMmdl.
 52 57  0     1  0  0  0  0  0999 V2000
   -6.0443   -4.4602   16.2962 C   0  0  0  0  0  0  0  0  0  0  0  0
   -5.6240   -3.4001   15.2728 C   0  0  0  0  0  0  0  0  0  0  0  0
   -6.7329   -2.9884   14.5080 O   0  0  0  0  0  0  0  0  0  0  0  0
   -4.7833   -2.2666   15.8350 C   0  0  0  0  0  0  0  0  0  0  0  0
   -3.8370   -2.3937   14.7064 N   0  0  0  0  0  0  0  0  0  0  0  0
   -4.3873   -3.7457   14.4627 C   0  0  0  0  0  0  0  0  0  0  0  0
   -2.4739   -2.0989   14.7890 C   0  0  0  0  0  0  0  0  0  0  0  0
   -1.8935   -1.0737   14.0433 C   0  0  0  0  0  0  0  0  0  0  0  0
   -0.5352   -0.8073   14.1963 C   0  0  0  0  0  0  0  0  0  0  0  0
    0.2332   -1.5617   15.0991 C   0  0  0  0  0  0  0  0  0  0  0  0
    1.5948   -1.3216   15.3436 N   0  0  0  0  0  0  0  0  0  0  0  0
    2.5323   -0.4320   14.7835 C   0  0  0  0  0  0  0  0  0  0  0  0
    2.1832    0.3856   13.7527 N   0  0  0  0  0  0  0  0  0  0  0  0
    3.0997    1.2392   13.2138 C   0  0  0  0  0  0  0  0  0  0  0  0
    4.4085    1.2886   13.6971 C   0  0  0  0  0  0  0  0  0  0  0  0
    4.7393    0.4966   14.7557 N   0  0  0  0  0  0  0  0  0  0  0  0
    5.8912    0.3843   15.4874 C   0  0  0  0  0  0  0  0  0  0  0  0
    5.6000   -0.5403   16.4969 C   0  0  0  0  0  0  0  0  0  0  0  0
    4.3900   -1.0499   16.3863 N   0  0  0  0  0  0  0  0  0  0  0  0
    3.8285   -0.3910   15.3363 C   0  0  0  0  0  0  0  0  0  0  0  0
    2.6272    2.1508   12.1213 C   0  0  3  0  0  0  0  0  0  0  0  0
    3.5370    2.6346   11.1631 C   0  0  0  0  0  0  0  0  0  0  0  0
    3.1492    3.4622   10.1085 C   0  0  0  0  0  0  0  0  0  0  0  0
    1.8011    3.8208   10.0156 C   0  0  0  0  0  0  0  0  0  0  0  0
    0.9990    4.5979    9.1271 C   0  0  0  0  0  0  0  0  0  0  0  0
   -0.2497    4.6170    9.5128 N   0  0  0  0  0  0  0  0  0  0  0  0
   -0.3315    3.8838   10.6343 N   0  0  0  0  0  0  0  0  0  0  0  0
    0.8874    3.3527   10.9946 C   0  0  0  0  0  0  0  0  0  0  0  0
    1.2729    2.5247   12.0514 C   0  0  0  0  0  0  0  0  0  0  0  0
   -0.3672   -2.5916   15.8262 C   0  0  0  0  0  0  0  0  0  0  0  0
   -1.7168   -2.8552   15.6739 C   0  0  0  0  0  0  0  0  0  0  0  0
   -5.1681   -4.7705   16.8844 H   0  0  0  0  0  0  0  0  0  0  0  0
   -6.8064   -4.0390   16.9683 H   0  0  0  0  0  0  0  0  0  0  0  0
   -6.4606   -5.3323   15.7707 H   0  0  0  0  0  0  0  0  0  0  0  0
   -6.4580   -2.3321   13.8786 H   0  0  0  0  0  0  0  0  0  0  0  0
   -5.3055   -1.2992   15.8742 H   0  0  0  0  0  0  0  0  0  0  0  0
   -4.3393   -2.4837   16.8177 H   0  0  0  0  0  0  0  0  0  0  0  0
   -3.7836   -4.5587   14.8924 H   0  0  0  0  0  0  0  0  0  0  0  0
   -4.5919   -3.9613   13.4036 H   0  0  0  0  0  0  0  0  0  0  0  0
   -2.4902   -0.4931   13.3553 H   0  0  0  0  0  0  0  0  0  0  0  0
   -0.0718   -0.0199   13.6204 H   0  0  0  0  0  0  0  0  0  0  0  0
    1.9776   -1.9011   16.0631 H   0  0  0  0  0  0  0  0  0  0  0  0
    5.1414    1.9390   13.2429 H   0  0  0  0  0  0  0  0  0  0  0  0
    6.8256    0.8996   15.3209 H   0  0  0  0  0  0  0  0  0  0  0  0
    6.2923   -0.8072   17.2817 H   0  0  0  0  0  0  0  0  0  0  0  0
    2.8350    3.0227   12.7589 H   0  0  0  0  0  0  0  0  0  0  0  0
    4.5766    2.3543   11.2471 H   0  0  0  0  0  0  0  0  0  0  0  0
    3.8694    3.8153    9.3853 H   0  0  0  0  0  0  0  0  0  0  0  0
    1.3748    5.1042    8.2503 H   0  0  0  0  0  0  0  0  0  0  0  0
    0.5586    2.1846   12.7866 H   0  0  0  0  0  0  0  0  0  0  0  0
    0.2235   -3.1840   16.5093 H   0  0  0  0  0  0  0  0  0  0  0  0
   -2.1807   -3.6478   16.2422 H   0  0  0  0  0  0  0  0  0  0  0  0
  1  2  1  0  0  0  0
  2  3  1  0  0  0  0
  2  4  1  0  0  0  0
  2  6  1  0  0  0  0
  4  5  1  0  0  0  0
  5  6  1  0  0  0  0
  5  7  1  0  0  0  0
  7  8  2  0  0  0  0
  7 31  1  0  0  0  0
  8  9  1  0  0  0  0
  9 10  2  0  0  0  0
 10 11  1  0  0  0  0
 10 30  1  0  0  0  0
 11 12  1  0  0  0  0
 12 13  2  0  0  0  0
 12 20  1  0  0  0  0
 13 14  1  0  0  0  0
 14 15  2  0  0  0  0
 14 21  1  0  0  0  0
 15 16  1  0  0  0  0
 16 17  1  0  0  0  0
 16 20  1  0  0  0  0
 17 18  2  0  0  0  0
 18 19  1  0  0  0  0
 19 20  2  0  0  0  0
 21 22  1  0  0  0  0
 21 29  1  0  0  0  0
 22 23  2  0  0  0  0
 23 24  1  0  0  0  0
 24 25  2  0  0  0  0
 24 28  1  0  0  0  0
 25 26  1  0  0  0  0
 26 27  2  0  0  0  0
 27 28  1  0  0  0  0
 28 29  2  0  0  0  0
 30 31  2  0  0  0  0
  1 32  1  0  0  0  0
  1 33  1  0  0  0  0
  1 34  1  0  0  0  0
  3 35  1  0  0  0  0
  4 36  1  0  0  0  0
  4 37  1  0  0  0  0
  6 38  1  0  0  0  0
  6 39  1  0  0  0  0
  8 40  1  0  0  0  0
  9 41  1  0  0  0  0
 11 42  1  0  0  0  0
 15 43  1  0  0  0  0
 17 44  1  0  0  0  0
 18 45  1  0  0  0  0
 21 46  1  0  0  0  0
 22 47  1  0  0  0  0
 23 48  1  0  0  0  0
 25 49  1  0  0  0  0
 29 50  1  0  0  0  0
 30 51  1  0  0  0  0
 31 52  1  0  0  0  0
M  END
> <IC50[nM]>
3.9

$$$$
CHEMBL3265030_n
  -OEChem-05192314333D
 Structure written by MMmdl.
 52 57  0     1  0  0  0  0  0999 V2000
   -6.0443   -4.4602   16.2962 C   0  0  0  0  0  0  0  0  0  0  0  0
   -5.6240   -3.4001   15.2728 C   0  0  0  0  0  0  0  0  0  0  0  0
   -6.7329   -2.9884   14.5080 O   0  0  0  0  0  0  0  0  0  0  0  0
   -4.7833   -2.2666   15.8350 C   0  0  0  0  0  0  0  0  0  0  0  0
   -3.8370   -2.3937   14.7064 N   0  0  0  0  0  0  0  0  0  0  0  0
   -4.3873   -3.7457   14.4627 C   0  0  0  0  0  0  0  0  0  0  0  0
   -2.4739   -2.0989   14.7890 C   0  0  0  0  0  0  0  0  0  0  0  0
   -1.8935   -1.0737   14.0433 C   0  0  0  0  0  0  0  0  0  0  0  0
   -0.5352   -0.8073   14.1963 C   0  0  0  0  0  0  0  0  0  0  0  0
    0.2332   -1.5617   15.0991 C   0  0  0  0  0  0  0  0  0  0  0  0
    1.5948   -1.3216   15.3436 N   0  0  0  0  0  0  0  0  0  0  0  0
    2.5323   -0.4320   14.7835 C   0  0  0  0  0  0  0  0  0  0  0  0
    2.1832    0.3856   13.7527 N   0  0  0  0  0  0  0  0  0  0  0  0
    3.0997    1.2392   13.2138 C   0  0  0  0  0  0  0  0  0  0  0  0
    4.4085    1.2886   13.6971 C   0  0  0  0  0  0  0  0  0  0  0  0
    4.7393    0.4966   14.7557 N   0  0  0  0  0  0  0  0  0  0  0  0
    5.8912    0.3843   15.4874 C   0  0  0  0  0  0  0  0  0  0  0  0
    5.6000   -0.5403   16.4969 C   0  0  0  0  0  0  0  0  0  0  0  0
    4.3900   -1.0499   16.3863 N   0  0  0  0  0  0  0  0  0  0  0  0
    3.8285   -0.3910   15.3363 C   0  0  0  0  0  0  0  0  0  0  0  0
    2.6272    2.1508   12.1213 C   0  0  0  0  0  0  0  0  0  0  0  0
    3.5370    2.6346   11.1631 C   0  0  0  0  0  0  0  0  0  0  0  0
    3.1492    3.4622   10.1085 C   0  0  0  0  0  0  0  0  0  0  0  0
    1.8011    3.8208   10.0156 C   0  0  0  0  0  0  0  0  0  0  0  0
    0.9990    4.5979    9.1271 C   0  0  0  0  0  0  0  0  0  0  0  0
   -0.2497    4.6170    9.5128 N   0  0  0  0  0  0  0  0  0  0  0  0
   -0.3315    3.8838   10.6343 N   0  0  0  0  0  0  0  0  0  0  0  0
    0.8874    3.3527   10.9946 C   0  0  3  0  0  0  0  0  0  0  0  0
    1.2729    2.5247   12.0514 C   0  0  0  0  0  0  0  0  0  0  0  0
   -0.3672   -2.5916   15.8262 C   0  0  0  0  0  0  0  0  0  0  0  0
   -1.7168   -2.8552   15.6739 C   0  0  0  0  0  0  0  0  0  0  0  0
   -5.1681   -4.7705   16.8844 H   0  0  0  0  0  0  0  0  0  0  0  0
   -6.8064   -4.0390   16.9683 H   0  0  0  0  0  0  0  0  0  0  0  0
   -6.4606   -5.3323   15.7707 H   0  0  0  0  0  0  0  0  0  0  0  0
   -6.4580   -2.3321   13.8786 H   0  0  0  0  0  0  0  0  0  0  0  0
   -5.3055   -1.2992   15.8742 H   0  0  0  0  0  0  0  0  0  0  0  0
   -4.3393   -2.4837   16.8177 H   0  0  0  0  0  0  0  0  0  0  0  0
   -3.7836   -4.5587   14.8924 H   0  0  0  0  0  0  0  0  0  0  0  0
   -4.5919   -3.9613   13.4036 H   0  0  0  0  0  0  0  0  0  0  0  0
   -2.4902   -0.4931   13.3553 H   0  0  0  0  0  0  0  0  0  0  0  0
   -0.0718   -0.0199   13.6204 H   0  0  0  0  0  0  0  0  0  0  0  0
    1.9776   -1.9011   16.0631 H   0  0  0  0  0  0  0  0  0  0  0  0
    5.1414    1.9390   13.2429 H   0  0  0  0  0  0  0  0  0  0  0  0
    6.8256    0.8996   15.3209 H   0  0  0  0  0  0  0  0  0  0  0  0
    6.2923   -0.8072   17.2817 H   0  0  0  0  0  0  0  0  0  0  0  0
    4.5766    2.3543   11.2471 H   0  0  0  0  0  0  0  0  0  0  0  0
    3.8694    3.8153    9.3853 H   0  0  0  0  0  0  0  0  0  0  0  0
    1.3748    5.1042    8.2503 H   0  0  0  0  0  0  0  0  0  0  0  0
    1.0928    4.2393   11.6124 H   0  0  0  0  0  0  0  0  0  0  0  0
    0.5586    2.1846   12.7866 H   0  0  0  0  0  0  0  0  0  0  0  0
    0.2235   -3.1840   16.5093 H   0  0  0  0  0  0  0  0  0  0  0  0
   -2.1807   -3.6478   16.2422 H   0  0  0  0  0  0  0  0  0  0  0  0
  1  2  1  0  0  0  0
  2  3  1  0  0  0  0
  2  4  1  0  0  0  0
  2  6  1  0  0  0  0
  4  5  1  0  0  0  0
  5  6  1  0  0  0  0
  5  7  1  0  0  0  0
  7  8  2  0  0  0  0
  7 31  1  0  0  0  0
  8  9  1  0  0  0  0
  9 10  2  0  0  0  0
 10 11  1  0  0  0  0
 10 30  1  0  0  0  0
 11 12  1  0  0  0  0
 12 13  2  0  0  0  0
 12 20  1  0  0  0  0
 13 14  1  0  0  0  0
 14 15  2  0  0  0  0
 14 21  1  0  0  0  0
 15 16  1  0  0  0  0
 16 17  1  0  0  0  0
 16 20  1  0  0  0  0
 17 18  2  0  0  0  0
 18 19  1  0  0  0  0
 19 20  2  0  0  0  0
 21 22  1  0  0  0  0
 21 29  2  0  0  0  0
 22 23  2  0  0  0  0
 23 24  1  0  0  0  0
 24 25  2  0  0  0  0
 24 28  1  0  0  0  0
 25 26  1  0  0  0  0
 26 27  2  0  0  0  0
 27 28  1  0  0  0  0
 28 29  1  0  0  0  0
 30 31  2  0  0  0  0
  1 32  1  0  0  0  0
  1 33  1  0  0  0  0
  1 34  1  0  0  0  0
  3 35  1  0  0  0  0
  4 36  1  0  0  0  0
  4 37  1  0  0  0  0
  6 38  1  0  0  0  0
  6 39  1  0  0  0  0
  8 40  1  0  0  0  0
  9 41  1  0  0  0  0
 11 42  1  0  0  0  0
 15 43  1  0  0  0  0
 17 44  1  0  0  0  0
 18 45  1  0  0  0  0
 22 46  1  0  0  0  0
 23 47  1  0  0  0  0
 25 48  1  0  0  0  0
 28 49  1  0  0  0  0
 29 50  1  0  0  0  0
 30 51  1  0  0  0  0
 31 52  1  0  0  0  0
M  END
> <IC50[nM]>
3.9

$$$$
CHEMBL3265030_n
  -OEChem-05192314333D
 Structure written by MMmdl.
 52 57  0     0  0  0  0  0  0999 V2000
   -6.0443   -4.4602   16.2962 C   0  0  0  0  0  0  0  0  0  0  0  0
   -5.6240   -3.4001   15.2728 C   0  0  0  0  0  0  0  0  0  0  0  0
   -6.7329   -2.9884   14.5080 O   0  0  0  0  0  0  0  0  0  0  0  0
   -4.7833   -2.2666   15.8350 C   0  0  0  0  0  0  0  0  0  0  0  0
   -3.8370   -2.3937   14.7064 N   0  0  0  0  0  0  0  0  0  0  0  0
   -4.3873   -3.7457   14.4627 C   0  0  0  0  0  0  0  0  0  0  0  0
   -2.4739   -2.0989   14.7890 C   0  0  0  0  0  0  0  0  0  0  0  0
   -1.8935   -1.0737   14.0433 C   0  0  0  0  0  0  0  0  0  0  0  0
   -0.5352   -0.8073   14.1963 C   0  0  0  0  0  0  0  0  0  0  0  0
    0.2332   -1.5617   15.0991 C   0  0  0  0  0  0  0  0  0  0  0  0
    1.5948   -1.3216   15.3436 N   0  0  0  0  0  0  0  0  0  0  0  0
    2.5323   -0.4320   14.7835 C   0  0  0  0  0  0  0  0  0  0  0  0
    2.1832    0.3856   13.7527 N   0  0  0  0  0  0  0  0  0  0  0  0
    3.0997    1.2392   13.2138 C   0  0  0  0  0  0  0  0  0  0  0  0
    4.4085    1.2886   13.6971 C   0  0  0  0  0  0  0  0  0  0  0  0
    4.7393    0.4966   14.7557 N   0  0  0  0  0  0  0  0  0  0  0  0
    5.8912    0.3843   15.4874 C   0  0  0  0  0  0  0  0  0  0  0  0
    5.6000   -0.5403   16.4969 C   0  0  0  0  0  0  0  0  0  0  0  0
    4.3900   -1.0499   16.3863 N   0  0  0  0  0  0  0  0  0  0  0  0
    3.8285   -0.3910   15.3363 C   0  0  0  0  0  0  0  0  0  0  0  0
    2.6272    2.1508   12.1213 C   0  0  0  0  0  0  0  0  0  0  0  0
    3.5370    2.6346   11.1631 C   0  0  0  0  0  0  0  0  0  0  0  0
    3.1492    3.4622   10.1085 C   0  0  0  0  0  0  0  0  0  0  0  0
    1.8011    3.8208   10.0156 C   0  0  0  0  0  0  0  0  0  0  0  0
    0.9990    4.5979    9.1271 C   0  0  0  0  0  0  0  0  0  0  0  0
   -0.2497    4.6170    9.5128 N   0  0  0  0  0  0  0  0  0  0  0  0
   -0.3315    3.8838   10.6343 N   0  0  0  0  0  0  0  0  0  0  0  0
    0.8874    3.3527   10.9946 C   0  0  0  0  0  0  0  0  0  0  0  0
    1.2729    2.5247   12.0514 C   0  0  0  0  0  0  0  0  0  0  0  0
   -0.3672   -2.5916   15.8262 C   0  0  0  0  0  0  0  0  0  0  0  0
   -1.7168   -2.8552   15.6739 C   0  0  0  0  0  0  0  0  0  0  0  0
   -5.1681   -4.7705   16.8844 H   0  0  0  0  0  0  0  0  0  0  0  0
   -6.8064   -4.0390   16.9683 H   0  0  0  0  0  0  0  0  0  0  0  0
   -6.4606   -5.3323   15.7707 H   0  0  0  0  0  0  0  0  0  0  0  0
   -6.4580   -2.3321   13.8786 H   0  0  0  0  0  0  0  0  0  0  0  0
   -5.3055   -1.2992   15.8742 H   0  0  0  0  0  0  0  0  0  0  0  0
   -4.3393   -2.4837   16.8177 H   0  0  0  0  0  0  0  0  0  0  0  0
   -3.7836   -4.5587   14.8924 H   0  0  0  0  0  0  0  0  0  0  0  0
   -4.5919   -3.9613   13.4036 H   0  0  0  0  0  0  0  0  0  0  0  0
   -2.4902   -0.4931   13.3553 H   0  0  0  0  0  0  0  0  0  0  0  0
   -0.0718   -0.0199   13.6204 H   0  0  0  0  0  0  0  0  0  0  0  0
    1.9776   -1.9011   16.0631 H   0  0  0  0  0  0  0  0  0  0  0  0
    5.1414    1.9390   13.2429 H   0  0  0  0  0  0  0  0  0  0  0  0
    6.8256    0.8996   15.3209 H   0  0  0  0  0  0  0  0  0  0  0  0
    6.2923   -0.8072   17.2817 H   0  0  0  0  0  0  0  0  0  0  0  0
    4.5766    2.3543   11.2471 H   0  0  0  0  0  0  0  0  0  0  0  0
    3.7299    4.3927   10.1927 H   0  0  0  0  0  0  0  0  0  0  0  0
    3.4155    2.9470    9.1738 H   0  0  0  0  0  0  0  0  0  0  0  0
    1.3748    5.1042    8.2503 H   0  0  0  0  0  0  0  0  0  0  0  0
    0.5586    2.1846   12.7866 H   0  0  0  0  0  0  0  0  0  0  0  0
    0.2235   -3.1840   16.5093 H   0  0  0  0  0  0  0  0  0  0  0  0
   -2.1807   -3.6478   16.2422 H   0  0  0  0  0  0  0  0  0  0  0  0
  1  2  1  0  0  0  0
  2  3  1  0  0  0  0
  2  4  1  0  0  0  0
  2  6  1  0  0  0  0
  4  5  1  0  0  0  0
  5  6  1  0  0  0  0
  5  7  1  0  0  0  0
  7  8  2  0  0  0  0
  7 31  1  0  0  0  0
  8  9  1  0  0  0  0
  9 10  2  0  0  0  0
 10 11  1  0  0  0  0
 10 30  1  0  0  0  0
 11 12  1  0  0  0  0
 12 13  2  0  0  0  0
 12 20  1  0  0  0  0
 13 14  1  0  0  0  0
 14 15  2  0  0  0  0
 14 21  1  0  0  0  0
 15 16  1  0  0  0  0
 16 17  1  0  0  0  0
 16 20  1  0  0  0  0
 17 18  2  0  0  0  0
 18 19  1  0  0  0  0
 19 20  2  0  0  0  0
 21 22  2  0  0  0  0
 21 29  1  0  0  0  0
 22 23  1  0  0  0  0
 23 24  1  0  0  0  0
 24 25  2  0  0  0  0
 24 28  1  0  0  0  0
 25 26  1  0  0  0  0
 26 27  2  0  0  0  0
 27 28  1  0  0  0  0
 28 29  2  0  0  0  0
 30 31  2  0  0  0  0
  1 32  1  0  0  0  0
  1 33  1  0  0  0  0
  1 34  1  0  0  0  0
  3 35  1  0  0  0  0
  4 36  1  0  0  0  0
  4 37  1  0  0  0  0
  6 38  1  0  0  0  0
  6 39  1  0  0  0  0
  8 40  1  0  0  0  0
  9 41  1  0  0  0  0
 11 42  1  0  0  0  0
 15 43  1  0  0  0  0
 17 44  1  0  0  0  0
 18 45  1  0  0  0  0
 22 46  1  0  0  0  0
 23 47  1  0  0  0  0
 23 48  1  0  0  0  0
 25 49  1  0  0  0  0
 29 50  1  0  0  0  0
 30 51  1  0  0  0  0
 31 52  1  0  0  0  0
M  END
> <IC50[nM]>
3.9

$$$$
CHEMBL3265030_n
  -OEChem-05192314333D
 Structure written by MMmdl.
 52 57  0     1  0  0  0  0  0999 V2000
   -6.0443   -4.4602   16.2962 C   0  0  0  0  0  0  0  0  0  0  0  0
   -5.6240   -3.4001   15.2728 C   0  0  0  0  0  0  0  0  0  0  0  0
   -6.7329   -2.9884   14.5080 O   0  0  0  0  0  0  0  0  0  0  0  0
   -4.7833   -2.2666   15.8350 C   0  0  0  0  0  0  0  0  0  0  0  0
   -3.8370   -2.3937   14.7064 N   0  0  0  0  0  0  0  0  0  0  0  0
   -4.3873   -3.7457   14.4627 C   0  0  0  0  0  0  0  0  0  0  0  0
   -2.4739   -2.0989   14.7890 C   0  0  0  0  0  0  0  0  0  0  0  0
   -1.8935   -1.0737   14.0433 C   0  0  0  0  0  0  0  0  0  0  0  0
   -0.5352   -0.8073   14.1963 C   0  0  0  0  0  0  0  0  0  0  0  0
    0.2332   -1.5617   15.0991 C   0  0  0  0  0  0  0  0  0  0  0  0
    1.5948   -1.3216   15.3436 N   0  0  0  0  0  0  0  0  0  0  0  0
    2.5323   -0.4320   14.7835 C   0  0  0  0  0  0  0  0  0  0  0  0
    2.1832    0.3856   13.7527 N   0  0  0  0  0  0  0  0  0  0  0  0
    3.0997    1.2392   13.2138 C   0  0  0  0  0  0  0  0  0  0  0  0
    4.4085    1.2886   13.6971 C   0  0  0  0  0  0  0  0  0  0  0  0
    4.7393    0.4966   14.7557 N   0  0  0  0  0  0  0  0  0  0  0  0
    5.8912    0.3843   15.4874 C   0  0  0  0  0  0  0  0  0  0  0  0
    5.6000   -0.5403   16.4969 C   0  0  0  0  0  0  0  0  0  0  0  0
    4.3900   -1.0499   16.3863 N   0  0  0  0  0  0  0  0  0  0  0  0
    3.8285   -0.3910   15.3363 C   0  0  0  0  0  0  0  0  0  0  0  0
    2.6272    2.1508   12.1213 C   0  0  0  0  0  0  0  0  0  0  0  0
    3.5370    2.6346   11.1631 C   0  0  0  0  0  0  0  0  0  0  0  0
    3.1492    3.4622   10.1085 C   0  0  0  0  0  0  0  0  0  0  0  0
    1.8011    3.8208   10.0156 C   0  0  3  0  0  0  0  0  0  0  0  0
    0.9990    4.5979    9.1271 C   0  0  0  0  0  0  0  0  0  0  0  0
   -0.2497    4.6170    9.5128 N   0  0  0  0  0  0  0  0  0  0  0  0
   -0.3315    3.8838   10.6343 N   0  0  0  0  0  0  0  0  0  0  0  0
    0.8874    3.3527   10.9946 C   0  0  0  0  0  0  0  0  0  0  0  0
    1.2729    2.5247   12.0514 C   0  0  0  0  0  0  0  0  0  0  0  0
   -0.3672   -2.5916   15.8262 C   0  0  0  0  0  0  0  0  0  0  0  0
   -1.7168   -2.8552   15.6739 C   0  0  0  0  0  0  0  0  0  0  0  0
   -5.1681   -4.7705   16.8844 H   0  0  0  0  0  0  0  0  0  0  0  0
   -6.8064   -4.0390   16.9683 H   0  0  0  0  0  0  0  0  0  0  0  0
   -6.4606   -5.3323   15.7707 H   0  0  0  0  0  0  0  0  0  0  0  0
   -6.4580   -2.3321   13.8786 H   0  0  0  0  0  0  0  0  0  0  0  0
   -5.3055   -1.2992   15.8742 H   0  0  0  0  0  0  0  0  0  0  0  0
   -4.3393   -2.4837   16.8177 H   0  0  0  0  0  0  0  0  0  0  0  0
   -3.7836   -4.5587   14.8924 H   0  0  0  0  0  0  0  0  0  0  0  0
   -4.5919   -3.9613   13.4036 H   0  0  0  0  0  0  0  0  0  0  0  0
   -2.4902   -0.4931   13.3553 H   0  0  0  0  0  0  0  0  0  0  0  0
   -0.0718   -0.0199   13.6204 H   0  0  0  0  0  0  0  0  0  0  0  0
    1.2518    0.3601   13.3896 H   0  0  0  0  0  0  0  0  0  0  0  0
    5.1414    1.9390   13.2429 H   0  0  0  0  0  0  0  0  0  0  0  0
    6.8256    0.8996   15.3209 H   0  0  0  0  0  0  0  0  0  0  0  0
    6.2923   -0.8072   17.2817 H   0  0  0  0  0  0  0  0  0  0  0  0
    4.5766    2.3543   11.2471 H   0  0  0  0  0  0  0  0  0  0  0  0
    3.8694    3.8153    9.3853 H   0  0  0  0  0  0  0  0  0  0  0  0
    1.9962    4.7161   10.6242 H   0  0  0  0  0  0  0  0  0  0  0  0
    1.3748    5.1042    8.2503 H   0  0  0  0  0  0  0  0  0  0  0  0
    0.5586    2.1846   12.7866 H   0  0  0  0  0  0  0  0  0  0  0  0
    0.2235   -3.1840   16.5093 H   0  0  0  0  0  0  0  0  0  0  0  0
   -2.1807   -3.6478   16.2422 H   0  0  0  0  0  0  0  0  0  0  0  0
  1  2  1  0  0  0  0
  2  3  1  0  0  0  0
  2  4  1  0  0  0  0
  2  6  1  0  0  0  0
  4  5  1  0  0  0  0
  5  6  1  0  0  0  0
  5  7  1  0  0  0  0
  7  8  2  0  0  0  0
  7 31  1  0  0  0  0
  8  9  1  0  0  0  0
  9 10  2  0  0  0  0
 10 11  1  0  0  0  0
 10 30  1  0  0  0  0
 11 12  2  0  0  0  0
 12 13  1  0  0  0  0
 12 20  1  0  0  0  0
 13 14  1  0  0  0  0
 14 15  2  0  0  0  0
 14 21  1  0  0  0  0
 15 16  1  0  0  0  0
 16 17  1  0  0  0  0
 16 20  1  0  0  0  0
 17 18  2  0  0  0  0
 18 19  1  0  0  0  0
 19 20  2  0  0  0  0
 21 22  1  0  0  0  0
 21 29  2  0  0  0  0
 22 23  2  0  0  0  0
 23 24  1  0  0  0  0
 24 25  1  0  0  0  0
 24 28  1  0  0  0  0
 25 26  2  0  0  0  0
 26 27  1  0  0  0  0
 27 28  2  0  0  0  0
 28 29  1  0  0  0  0
 30 31  2  0  0  0  0
  1 32  1  0  0  0  0
  1 33  1  0  0  0  0
  1 34  1  0  0  0  0
  3 35  1  0  0  0  0
  4 36  1  0  0  0  0
  4 37  1  0  0  0  0
  6 38  1  0  0  0  0
  6 39  1  0  0  0  0
  8 40  1  0  0  0  0
  9 41  1  0  0  0  0
 13 42  1  0  0  0  0
 15 43  1  0  0  0  0
 17 44  1  0  0  0  0
 18 45  1  0  0  0  0
 22 46  1  0  0  0  0
 23 47  1  0  0  0  0
 24 48  1  0  0  0  0
 25 49  1  0  0  0  0
 29 50  1  0  0  0  0
 30 51  1  0  0  0  0
 31 52  1  0  0  0  0
M  END
> <IC50[nM]>
3.9

$$$$
CHEMBL3265030_n
  -OEChem-05192314333D
 Structure written by MMmdl.
 52 57  0     0  0  0  0  0  0999 V2000
   -6.0443   -4.4602   16.2962 C   0  0  0  0  0  0  0  0  0  0  0  0
   -5.6240   -3.4001   15.2728 C   0  0  0  0  0  0  0  0  0  0  0  0
   -6.7329   -2.9884   14.5080 O   0  0  0  0  0  0  0  0  0  0  0  0
   -4.7833   -2.2666   15.8350 C   0  0  0  0  0  0  0  0  0  0  0  0
   -3.8370   -2.3937   14.7064 N   0  0  0  0  0  0  0  0  0  0  0  0
   -4.3873   -3.7457   14.4627 C   0  0  0  0  0  0  0  0  0  0  0  0
   -2.4739   -2.0989   14.7890 C   0  0  0  0  0  0  0  0  0  0  0  0
   -1.8935   -1.0737   14.0433 C   0  0  0  0  0  0  0  0  0  0  0  0
   -0.5352   -0.8073   14.1963 C   0  0  0  0  0  0  0  0  0  0  0  0
    0.2332   -1.5617   15.0991 C   0  0  0  0  0  0  0  0  0  0  0  0
    1.5948   -1.3216   15.3436 N   0  0  0  0  0  0  0  0  0  0  0  0
    2.5323   -0.4320   14.7835 C   0  0  0  0  0  0  0  0  0  0  0  0
    2.1832    0.3856   13.7527 N   0  0  0  0  0  0  0  0  0  0  0  0
    3.0997    1.2392   13.2138 C   0  0  0  0  0  0  0  0  0  0  0  0
    4.4085    1.2886   13.6971 C   0  0  0  0  0  0  0  0  0  0  0  0
    4.7393    0.4966   14.7557 N   0  0  0  0  0  0  0  0  0  0  0  0
    5.8912    0.3843   15.4874 C   0  0  0  0  0  0  0  0  0  0  0  0
    5.6000   -0.5403   16.4969 C   0  0  0  0  0  0  0  0  0  0  0  0
    4.3900   -1.0499   16.3863 N   0  0  0  0  0  0  0  0  0  0  0  0
    3.8285   -0.3910   15.3363 C   0  0  0  0  0  0  0  0  0  0  0  0
    2.6272    2.1508   12.1213 C   0  0  0  0  0  0  0  0  0  0  0  0
    3.5370    2.6346   11.1631 C   0  0  0  0  0  0  0  0  0  0  0  0
    3.1492    3.4622   10.1085 C   0  0  0  0  0  0  0  0  0  0  0  0
    1.8011    3.8208   10.0156 C   0  0  0  0  0  0  0  0  0  0  0  0
    0.9990    4.5979    9.1271 C   0  0  0  0  0  0  0  0  0  0  0  0
   -0.2497    4.6170    9.5128 N   0  0  0  0  0  0  0  0  0  0  0  0
   -0.3315    3.8838   10.6343 N   0  0  0  0  0  0  0  0  0  0  0  0
    0.8874    3.3527   10.9946 C   0  0  0  0  0  0  0  0  0  0  0  0
    1.2729    2.5247   12.0514 C   0  0  0  0  0  0  0  0  0  0  0  0
   -0.3672   -2.5916   15.8262 C   0  0  0  0  0  0  0  0  0  0  0  0
   -1.7168   -2.8552   15.6739 C   0  0  0  0  0  0  0  0  0  0  0  0
   -5.1681   -4.7705   16.8844 H   0  0  0  0  0  0  0  0  0  0  0  0
   -6.8064   -4.0390   16.9683 H   0  0  0  0  0  0  0  0  0  0  0  0
   -6.4606   -5.3323   15.7707 H   0  0  0  0  0  0  0  0  0  0  0  0
   -6.4580   -2.3321   13.8786 H   0  0  0  0  0  0  0  0  0  0  0  0
   -5.3055   -1.2992   15.8742 H   0  0  0  0  0  0  0  0  0  0  0  0
   -4.3393   -2.4837   16.8177 H   0  0  0  0  0  0  0  0  0  0  0  0
   -3.7836   -4.5587   14.8924 H   0  0  0  0  0  0  0  0  0  0  0  0
   -4.5919   -3.9613   13.4036 H   0  0  0  0  0  0  0  0  0  0  0  0
   -2.4902   -0.4931   13.3553 H   0  0  0  0  0  0  0  0  0  0  0  0
   -0.0718   -0.0199   13.6204 H   0  0  0  0  0  0  0  0  0  0  0  0
    1.2518    0.3601   13.3896 H   0  0  0  0  0  0  0  0  0  0  0  0
    5.1414    1.9390   13.2429 H   0  0  0  0  0  0  0  0  0  0  0  0
    6.8256    0.8996   15.3209 H   0  0  0  0  0  0  0  0  0  0  0  0
    6.2923   -0.8072   17.2817 H   0  0  0  0  0  0  0  0  0  0  0  0
    4.3019    3.1925   11.7232 H   0  0  0  0  0  0  0  0  0  0  0  0
    3.9948    1.7471   10.7018 H   0  0  0  0  0  0  0  0  0  0  0  0
    3.8694    3.8153    9.3853 H   0  0  0  0  0  0  0  0  0  0  0  0
    1.3748    5.1042    8.2503 H   0  0  0  0  0  0  0  0  0  0  0  0
    0.5586    2.1846   12.7866 H   0  0  0  0  0  0  0  0  0  0  0  0
    0.2235   -3.1840   16.5093 H   0  0  0  0  0  0  0  0  0  0  0  0
   -2.1807   -3.6478   16.2422 H   0  0  0  0  0  0  0  0  0  0  0  0
  1  2  1  0  0  0  0
  2  3  1  0  0  0  0
  2  4  1  0  0  0  0
  2  6  1  0  0  0  0
  4  5  1  0  0  0  0
  5  6  1  0  0  0  0
  5  7  1  0  0  0  0
  7  8  2  0  0  0  0
  7 31  1  0  0  0  0
  8  9  1  0  0  0  0
  9 10  2  0  0  0  0
 10 11  1  0  0  0  0
 10 30  1  0  0  0  0
 11 12  2  0  0  0  0
 12 13  1  0  0  0  0
 12 20  1  0  0  0  0
 13 14  1  0  0  0  0
 14 15  2  0  0  0  0
 14 21  1  0  0  0  0
 15 16  1  0  0  0  0
 16 17  1  0  0  0  0
 16 20  1  0  0  0  0
 17 18  2  0  0  0  0
 18 19  1  0  0  0  0
 19 20  2  0  0  0  0
 21 22  1  0  0  0  0
 21 29  2  0  0  0  0
 22 23  1  0  0  0  0
 23 24  2  0  0  0  0
 24 25  1  0  0  0  0
 24 28  1  0  0  0  0
 25 26  2  0  0  0  0
 26 27  1  0  0  0  0
 27 28  2  0  0  0  0
 28 29  1  0  0  0  0
 30 31  2  0  0  0  0
  1 32  1  0  0  0  0
  1 33  1  0  0  0  0
  1 34  1  0  0  0  0
  3 35  1  0  0  0  0
  4 36  1  0  0  0  0
  4 37  1  0  0  0  0
  6 38  1  0  0  0  0
  6 39  1  0  0  0  0
  8 40  1  0  0  0  0
  9 41  1  0  0  0  0
 13 42  1  0  0  0  0
 15 43  1  0  0  0  0
 17 44  1  0  0  0  0
 18 45  1  0  0  0  0
 22 46  1  0  0  0  0
 22 47  1  0  0  0  0
 23 48  1  0  0  0  0
 25 49  1  0  0  0  0
 29 50  1  0  0  0  0
 30 51  1  0  0  0  0
 31 52  1  0  0  0  0
M  END
> <IC50[nM]>
3.9

$$$$
CHEMBL3265030_n
  -OEChem-05192314333D
 Structure written by MMmdl.
 52 57  0     0  0  0  0  0  0999 V2000
   -6.0443   -4.4602   16.2962 C   0  0  0  0  0  0  0  0  0  0  0  0
   -5.6240   -3.4001   15.2728 C   0  0  0  0  0  0  0  0  0  0  0  0
   -6.7329   -2.9884   14.5080 O   0  0  0  0  0  0  0  0  0  0  0  0
   -4.7833   -2.2666   15.8350 C   0  0  0  0  0  0  0  0  0  0  0  0
   -3.8370   -2.3937   14.7064 N   0  0  0  0  0  0  0  0  0  0  0  0
   -4.3873   -3.7457   14.4627 C   0  0  0  0  0  0  0  0  0  0  0  0
   -2.4739   -2.0989   14.7890 C   0  0  0  0  0  0  0  0  0  0  0  0
   -1.8935   -1.0737   14.0433 C   0  0  0  0  0  0  0  0  0  0  0  0
   -0.5352   -0.8073   14.1963 C   0  0  0  0  0  0  0  0  0  0  0  0
    0.2332   -1.5617   15.0991 C   0  0  0  0  0  0  0  0  0  0  0  0
    1.5948   -1.3216   15.3436 N   0  0  0  0  0  0  0  0  0  0  0  0
    2.5323   -0.4320   14.7835 C   0  0  0  0  0  0  0  0  0  0  0  0
    2.1832    0.3856   13.7527 N   0  0  0  0  0  0  0  0  0  0  0  0
    3.0997    1.2392   13.2138 C   0  0  0  0  0  0  0  0  0  0  0  0
    4.4085    1.2886   13.6971 C   0  0  0  0  0  0  0  0  0  0  0  0
    4.7393    0.4966   14.7557 N   0  0  0  0  0  0  0  0  0  0  0  0
    5.8912    0.3843   15.4874 C   0  0  0  0  0  0  0  0  0  0  0  0
    5.6000   -0.5403   16.4969 C   0  0  0  0  0  0  0  0  0  0  0  0
    4.3900   -1.0499   16.3863 N   0  0  0  0  0  0  0  0  0  0  0  0
    3.8285   -0.3910   15.3363 C   0  0  0  0  0  0  0  0  0  0  0  0
    2.6272    2.1508   12.1213 C   0  0  0  0  0  0  0  0  0  0  0  0
    3.5370    2.6346   11.1631 C   0  0  0  0  0  0  0  0  0  0  0  0
    3.1492    3.4622   10.1085 C   0  0  0  0  0  0  0  0  0  0  0  0
    1.8011    3.8208   10.0156 C   0  0  0  0  0  0  0  0  0  0  0  0
    0.9990    4.5979    9.1271 C   0  0  0  0  0  0  0  0  0  0  0  0
   -0.2497    4.6170    9.5128 N   0  0  0  0  0  0  0  0  0  0  0  0
   -0.3315    3.8838   10.6343 N   0  0  0  0  0  0  0  0  0  0  0  0
    0.8874    3.3527   10.9946 C   0  0  0  0  0  0  0  0  0  0  0  0
    1.2729    2.5247   12.0514 C   0  0  0  0  0  0  0  0  0  0  0  0
   -0.3672   -2.5916   15.8262 C   0  0  0  0  0  0  0  0  0  0  0  0
   -1.7168   -2.8552   15.6739 C   0  0  0  0  0  0  0  0  0  0  0  0
   -5.1681   -4.7705   16.8844 H   0  0  0  0  0  0  0  0  0  0  0  0
   -6.8064   -4.0390   16.9683 H   0  0  0  0  0  0  0  0  0  0  0  0
   -6.4606   -5.3323   15.7707 H   0  0  0  0  0  0  0  0  0  0  0  0
   -6.4580   -2.3321   13.8786 H   0  0  0  0  0  0  0  0  0  0  0  0
   -5.3055   -1.2992   15.8742 H   0  0  0  0  0  0  0  0  0  0  0  0
   -4.3393   -2.4837   16.8177 H   0  0  0  0  0  0  0  0  0  0  0  0
   -3.7836   -4.5587   14.8924 H   0  0  0  0  0  0  0  0  0  0  0  0
   -4.5919   -3.9613   13.4036 H   0  0  0  0  0  0  0  0  0  0  0  0
   -2.4902   -0.4931   13.3553 H   0  0  0  0  0  0  0  0  0  0  0  0
   -0.0718   -0.0199   13.6204 H   0  0  0  0  0  0  0  0  0  0  0  0
    1.2518    0.3601   13.3896 H   0  0  0  0  0  0  0  0  0  0  0  0
    5.1414    1.9390   13.2429 H   0  0  0  0  0  0  0  0  0  0  0  0
    6.8256    0.8996   15.3209 H   0  0  0  0  0  0  0  0  0  0  0  0
    6.2923   -0.8072   17.2817 H   0  0  0  0  0  0  0  0  0  0  0  0
    4.5766    2.3543   11.2471 H   0  0  0  0  0  0  0  0  0  0  0  0
    3.8694    3.8153    9.3853 H   0  0  0  0  0  0  0  0  0  0  0  0
    1.3748    5.1042    8.2503 H   0  0  0  0  0  0  0  0  0  0  0  0
    0.6792    1.6014   11.9804 H   0  0  0  0  0  0  0  0  0  0  0  0
    1.0266    3.0480   12.9871 H   0  0  0  0  0  0  0  0  0  0  0  0
    0.2235   -3.1840   16.5093 H   0  0  0  0  0  0  0  0  0  0  0  0
   -2.1807   -3.6478   16.2422 H   0  0  0  0  0  0  0  0  0  0  0  0
  1  2  1  0  0  0  0
  2  3  1  0  0  0  0
  2  4  1  0  0  0  0
  2  6  1  0  0  0  0
  4  5  1  0  0  0  0
  5  6  1  0  0  0  0
  5  7  1  0  0  0  0
  7  8  2  0  0  0  0
  7 31  1  0  0  0  0
  8  9  1  0  0  0  0
  9 10  2  0  0  0  0
 10 11  1  0  0  0  0
 10 30  1  0  0  0  0
 11 12  2  0  0  0  0
 12 13  1  0  0  0  0
 12 20  1  0  0  0  0
 13 14  1  0  0  0  0
 14 15  2  0  0  0  0
 14 21  1  0  0  0  0
 15 16  1  0  0  0  0
 16 17  1  0  0  0  0
 16 20  1  0  0  0  0
 17 18  2  0  0  0  0
 18 19  1  0  0  0  0
 19 20  2  0  0  0  0
 21 22  2  0  0  0  0
 21 29  1  0  0  0  0
 22 23  1  0  0  0  0
 23 24  2  0  0  0  0
 24 25  1  0  0  0  0
 24 28  1  0  0  0  0
 25 26  2  0  0  0  0
 26 27  1  0  0  0  0
 27 28  2  0  0  0  0
 28 29  1  0  0  0  0
 30 31  2  0  0  0  0
  1 32  1  0  0  0  0
  1 33  1  0  0  0  0
  1 34  1  0  0  0  0
  3 35  1  0  0  0  0
  4 36  1  0  0  0  0
  4 37  1  0  0  0  0
  6 38  1  0  0  0  0
  6 39  1  0  0  0  0
  8 40  1  0  0  0  0
  9 41  1  0  0  0  0
 13 42  1  0  0  0  0
 15 43  1  0  0  0  0
 17 44  1  0  0  0  0
 18 45  1  0  0  0  0
 22 46  1  0  0  0  0
 23 47  1  0  0  0  0
 25 48  1  0  0  0  0
 29 49  1  0  0  0  0
 29 50  1  0  0  0  0
 30 51  1  0  0  0  0
 31 52  1  0  0  0  0
M  END
> <IC50[nM]>
3.9

$$$$
CHEMBL3265030_n
  -OEChem-05192314333D
 Structure written by MMmdl.
 52 57  0     1  0  0  0  0  0999 V2000
   -6.0443   -4.4602   16.2962 C   0  0  0  0  0  0  0  0  0  0  0  0
   -5.6240   -3.4001   15.2728 C   0  0  0  0  0  0  0  0  0  0  0  0
   -6.7329   -2.9884   14.5080 O   0  0  0  0  0  0  0  0  0  0  0  0
   -4.7833   -2.2666   15.8350 C   0  0  0  0  0  0  0  0  0  0  0  0
   -3.8370   -2.3937   14.7064 N   0  0  0  0  0  0  0  0  0  0  0  0
   -4.3873   -3.7457   14.4627 C   0  0  0  0  0  0  0  0  0  0  0  0
   -2.4739   -2.0989   14.7890 C   0  0  0  0  0  0  0  0  0  0  0  0
   -1.8935   -1.0737   14.0433 C   0  0  0  0  0  0  0  0  0  0  0  0
   -0.5352   -0.8073   14.1963 C   0  0  0  0  0  0  0  0  0  0  0  0
    0.2332   -1.5617   15.0991 C   0  0  0  0  0  0  0  0  0  0  0  0
    1.5948   -1.3216   15.3436 N   0  0  0  0  0  0  0  0  0  0  0  0
    2.5323   -0.4320   14.7835 C   0  0  0  0  0  0  0  0  0  0  0  0
    2.1832    0.3856   13.7527 N   0  0  0  0  0  0  0  0  0  0  0  0
    3.0997    1.2392   13.2138 C   0  0  0  0  0  0  0  0  0  0  0  0
    4.4085    1.2886   13.6971 C   0  0  0  0  0  0  0  0  0  0  0  0
    4.7393    0.4966   14.7557 N   0  0  0  0  0  0  0  0  0  0  0  0
    5.8912    0.3843   15.4874 C   0  0  0  0  0  0  0  0  0  0  0  0
    5.6000   -0.5403   16.4969 C   0  0  0  0  0  0  0  0  0  0  0  0
    4.3900   -1.0499   16.3863 N   0  0  0  0  0  0  0  0  0  0  0  0
    3.8285   -0.3910   15.3363 C   0  0  0  0  0  0  0  0  0  0  0  0
    2.6272    2.1508   12.1213 C   0  0  3  0  0  0  0  0  0  0  0  0
    3.5370    2.6346   11.1631 C   0  0  0  0  0  0  0  0  0  0  0  0
    3.1492    3.4622   10.1085 C   0  0  0  0  0  0  0  0  0  0  0  0
    1.8011    3.8208   10.0156 C   0  0  0  0  0  0  0  0  0  0  0  0
    0.9990    4.5979    9.1271 C   0  0  0  0  0  0  0  0  0  0  0  0
   -0.2497    4.6170    9.5128 N   0  0  0  0  0  0  0  0  0  0  0  0
   -0.3315    3.8838   10.6343 N   0  0  0  0  0  0  0  0  0  0  0  0
    0.8874    3.3527   10.9946 C   0  0  0  0  0  0  0  0  0  0  0  0
    1.2729    2.5247   12.0514 C   0  0  0  0  0  0  0  0  0  0  0  0
   -0.3672   -2.5916   15.8262 C   0  0  0  0  0  0  0  0  0  0  0  0
   -1.7168   -2.8552   15.6739 C   0  0  0  0  0  0  0  0  0  0  0  0
   -5.1681   -4.7705   16.8844 H   0  0  0  0  0  0  0  0  0  0  0  0
   -6.8064   -4.0390   16.9683 H   0  0  0  0  0  0  0  0  0  0  0  0
   -6.4606   -5.3323   15.7707 H   0  0  0  0  0  0  0  0  0  0  0  0
   -6.4580   -2.3321   13.8786 H   0  0  0  0  0  0  0  0  0  0  0  0
   -5.3055   -1.2992   15.8742 H   0  0  0  0  0  0  0  0  0  0  0  0
   -4.3393   -2.4837   16.8177 H   0  0  0  0  0  0  0  0  0  0  0  0
   -3.7836   -4.5587   14.8924 H   0  0  0  0  0  0  0  0  0  0  0  0
   -4.5919   -3.9613   13.4036 H   0  0  0  0  0  0  0  0  0  0  0  0
   -2.4902   -0.4931   13.3553 H   0  0  0  0  0  0  0  0  0  0  0  0
   -0.0718   -0.0199   13.6204 H   0  0  0  0  0  0  0  0  0  0  0  0
    1.2518    0.3601   13.3896 H   0  0  0  0  0  0  0  0  0  0  0  0
    5.1414    1.9390   13.2429 H   0  0  0  0  0  0  0  0  0  0  0  0
    6.8256    0.8996   15.3209 H   0  0  0  0  0  0  0  0  0  0  0  0
    6.2923   -0.8072   17.2817 H   0  0  0  0  0  0  0  0  0  0  0  0
    2.8350    3.0227   12.7589 H   0  0  0  0  0  0  0  0  0  0  0  0
    4.5766    2.3543   11.2471 H   0  0  0  0  0  0  0  0  0  0  0  0
    3.8694    3.8153    9.3853 H   0  0  0  0  0  0  0  0  0  0  0  0
    1.3748    5.1042    8.2503 H   0  0  0  0  0  0  0  0  0  0  0  0
    0.5586    2.1846   12.7866 H   0  0  0  0  0  0  0  0  0  0  0  0
    0.2235   -3.1840   16.5093 H   0  0  0  0  0  0  0  0  0  0  0  0
   -2.1807   -3.6478   16.2422 H   0  0  0  0  0  0  0  0  0  0  0  0
  1  2  1  0  0  0  0
  2  3  1  0  0  0  0
  2  4  1  0  0  0  0
  2  6  1  0  0  0  0
  4  5  1  0  0  0  0
  5  6  1  0  0  0  0
  5  7  1  0  0  0  0
  7  8  2  0  0  0  0
  7 31  1  0  0  0  0
  8  9  1  0  0  0  0
  9 10  2  0  0  0  0
 10 11  1  0  0  0  0
 10 30  1  0  0  0  0
 11 12  2  0  0  0  0
 12 13  1  0  0  0  0
 12 20  1  0  0  0  0
 13 14  1  0  0  0  0
 14 15  2  0  0  0  0
 14 21  1  0  0  0  0
 15 16  1  0  0  0  0
 16 17  1  0  0  0  0
 16 20  1  0  0  0  0
 17 18  2  0  0  0  0
 18 19  1  0  0  0  0
 19 20  2  0  0  0  0
 21 22  1  0  0  0  0
 21 29  1  0  0  0  0
 22 23  2  0  0  0  0
 23 24  1  0  0  0  0
 24 25  2  0  0  0  0
 24 28  1  0  0  0  0
 25 26  1  0  0  0  0
 26 27  2  0  0  0  0
 27 28  1  0  0  0  0
 28 29  2  0  0  0  0
 30 31  2  0  0  0  0
  1 32  1  0  0  0  0
  1 33  1  0  0  0  0
  1 34  1  0  0  0  0
  3 35  1  0  0  0  0
  4 36  1  0  0  0  0
  4 37  1  0  0  0  0
  6 38  1  0  0  0  0
  6 39  1  0  0  0  0
  8 40  1  0  0  0  0
  9 41  1  0  0  0  0
 13 42  1  0  0  0  0
 15 43  1  0  0  0  0
 17 44  1  0  0  0  0
 18 45  1  0  0  0  0
 21 46  1  0  0  0  0
 22 47  1  0  0  0  0
 23 48  1  0  0  0  0
 25 49  1  0  0  0  0
 29 50  1  0  0  0  0
 30 51  1  0  0  0  0
 31 52  1  0  0  0  0
M  END
> <IC50[nM]>
3.9

$$$$
CHEMBL3265030_n
  -OEChem-05192314333D
 Structure written by MMmdl.
 52 57  0     1  0  0  0  0  0999 V2000
   -6.0443   -4.4602   16.2962 C   0  0  0  0  0  0  0  0  0  0  0  0
   -5.6240   -3.4001   15.2728 C   0  0  0  0  0  0  0  0  0  0  0  0
   -6.7329   -2.9884   14.5080 O   0  0  0  0  0  0  0  0  0  0  0  0
   -4.7833   -2.2666   15.8350 C   0  0  0  0  0  0  0  0  0  0  0  0
   -3.8370   -2.3937   14.7064 N   0  0  0  0  0  0  0  0  0  0  0  0
   -4.3873   -3.7457   14.4627 C   0  0  0  0  0  0  0  0  0  0  0  0
   -2.4739   -2.0989   14.7890 C   0  0  0  0  0  0  0  0  0  0  0  0
   -1.8935   -1.0737   14.0433 C   0  0  0  0  0  0  0  0  0  0  0  0
   -0.5352   -0.8073   14.1963 C   0  0  0  0  0  0  0  0  0  0  0  0
    0.2332   -1.5617   15.0991 C   0  0  0  0  0  0  0  0  0  0  0  0
    1.5948   -1.3216   15.3436 N   0  0  0  0  0  0  0  0  0  0  0  0
    2.5323   -0.4320   14.7835 C   0  0  0  0  0  0  0  0  0  0  0  0
    2.1832    0.3856   13.7527 N   0  0  0  0  0  0  0  0  0  0  0  0
    3.0997    1.2392   13.2138 C   0  0  0  0  0  0  0  0  0  0  0  0
    4.4085    1.2886   13.6971 C   0  0  0  0  0  0  0  0  0  0  0  0
    4.7393    0.4966   14.7557 N   0  0  0  0  0  0  0  0  0  0  0  0
    5.8912    0.3843   15.4874 C   0  0  0  0  0  0  0  0  0  0  0  0
    5.6000   -0.5403   16.4969 C   0  0  0  0  0  0  0  0  0  0  0  0
    4.3900   -1.0499   16.3863 N   0  0  0  0  0  0  0  0  0  0  0  0
    3.8285   -0.3910   15.3363 C   0  0  0  0  0  0  0  0  0  0  0  0
    2.6272    2.1508   12.1213 C   0  0  0  0  0  0  0  0  0  0  0  0
    3.5370    2.6346   11.1631 C   0  0  0  0  0  0  0  0  0  0  0  0
    3.1492    3.4622   10.1085 C   0  0  0  0  0  0  0  0  0  0  0  0
    1.8011    3.8208   10.0156 C   0  0  0  0  0  0  0  0  0  0  0  0
    0.9990    4.5979    9.1271 C   0  0  0  0  0  0  0  0  0  0  0  0
   -0.2497    4.6170    9.5128 N   0  0  0  0  0  0  0  0  0  0  0  0
   -0.3315    3.8838   10.6343 N   0  0  0  0  0  0  0  0  0  0  0  0
    0.8874    3.3527   10.9946 C   0  0  3  0  0  0  0  0  0  0  0  0
    1.2729    2.5247   12.0514 C   0  0  0  0  0  0  0  0  0  0  0  0
   -0.3672   -2.5916   15.8262 C   0  0  0  0  0  0  0  0  0  0  0  0
   -1.7168   -2.8552   15.6739 C   0  0  0  0  0  0  0  0  0  0  0  0
   -5.1681   -4.7705   16.8844 H   0  0  0  0  0  0  0  0  0  0  0  0
   -6.8064   -4.0390   16.9683 H   0  0  0  0  0  0  0  0  0  0  0  0
   -6.4606   -5.3323   15.7707 H   0  0  0  0  0  0  0  0  0  0  0  0
   -6.4580   -2.3321   13.8786 H   0  0  0  0  0  0  0  0  0  0  0  0
   -5.3055   -1.2992   15.8742 H   0  0  0  0  0  0  0  0  0  0  0  0
   -4.3393   -2.4837   16.8177 H   0  0  0  0  0  0  0  0  0  0  0  0
   -3.7836   -4.5587   14.8924 H   0  0  0  0  0  0  0  0  0  0  0  0
   -4.5919   -3.9613   13.4036 H   0  0  0  0  0  0  0  0  0  0  0  0
   -2.4902   -0.4931   13.3553 H   0  0  0  0  0  0  0  0  0  0  0  0
   -0.0718   -0.0199   13.6204 H   0  0  0  0  0  0  0  0  0  0  0  0
    1.2518    0.3601   13.3896 H   0  0  0  0  0  0  0  0  0  0  0  0
    5.1414    1.9390   13.2429 H   0  0  0  0  0  0  0  0  0  0  0  0
    6.8256    0.8996   15.3209 H   0  0  0  0  0  0  0  0  0  0  0  0
    6.2923   -0.8072   17.2817 H   0  0  0  0  0  0  0  0  0  0  0  0
    4.5766    2.3543   11.2471 H   0  0  0  0  0  0  0  0  0  0  0  0
    3.8694    3.8153    9.3853 H   0  0  0  0  0  0  0  0  0  0  0  0
    1.3748    5.1042    8.2503 H   0  0  0  0  0  0  0  0  0  0  0  0
    1.0928    4.2393   11.6124 H   0  0  0  0  0  0  0  0  0  0  0  0
    0.5586    2.1846   12.7866 H   0  0  0  0  0  0  0  0  0  0  0  0
    0.2235   -3.1840   16.5093 H   0  0  0  0  0  0  0  0  0  0  0  0
   -2.1807   -3.6478   16.2422 H   0  0  0  0  0  0  0  0  0  0  0  0
  1  2  1  0  0  0  0
  2  3  1  0  0  0  0
  2  4  1  0  0  0  0
  2  6  1  0  0  0  0
  4  5  1  0  0  0  0
  5  6  1  0  0  0  0
  5  7  1  0  0  0  0
  7  8  2  0  0  0  0
  7 31  1  0  0  0  0
  8  9  1  0  0  0  0
  9 10  2  0  0  0  0
 10 11  1  0  0  0  0
 10 30  1  0  0  0  0
 11 12  2  0  0  0  0
 12 13  1  0  0  0  0
 12 20  1  0  0  0  0
 13 14  1  0  0  0  0
 14 15  2  0  0  0  0
 14 21  1  0  0  0  0
 15 16  1  0  0  0  0
 16 17  1  0  0  0  0
 16 20  1  0  0  0  0
 17 18  2  0  0  0  0
 18 19  1  0  0  0  0
 19 20  2  0  0  0  0
 21 22  1  0  0  0  0
 21 29  2  0  0  0  0
 22 23  2  0  0  0  0
 23 24  1  0  0  0  0
 24 25  2  0  0  0  0
 24 28  1  0  0  0  0
 25 26  1  0  0  0  0
 26 27  2  0  0  0  0
 27 28  1  0  0  0  0
 28 29  1  0  0  0  0
 30 31  2  0  0  0  0
  1 32  1  0  0  0  0
  1 33  1  0  0  0  0
  1 34  1  0  0  0  0
  3 35  1  0  0  0  0
  4 36  1  0  0  0  0
  4 37  1  0  0  0  0
  6 38  1  0  0  0  0
  6 39  1  0  0  0  0
  8 40  1  0  0  0  0
  9 41  1  0  0  0  0
 13 42  1  0  0  0  0
 15 43  1  0  0  0  0
 17 44  1  0  0  0  0
 18 45  1  0  0  0  0
 22 46  1  0  0  0  0
 23 47  1  0  0  0  0
 25 48  1  0  0  0  0
 28 49  1  0  0  0  0
 29 50  1  0  0  0  0
 30 51  1  0  0  0  0
 31 52  1  0  0  0  0
M  END
> <IC50[nM]>
3.9

$$$$
CHEMBL3265030_n
  -OEChem-05192314333D
 Structure written by MMmdl.
 52 57  0     0  0  0  0  0  0999 V2000
   -6.0443   -4.4602   16.2962 C   0  0  0  0  0  0  0  0  0  0  0  0
   -5.6240   -3.4001   15.2728 C   0  0  0  0  0  0  0  0  0  0  0  0
   -6.7329   -2.9884   14.5080 O   0  0  0  0  0  0  0  0  0  0  0  0
   -4.7833   -2.2666   15.8350 C   0  0  0  0  0  0  0  0  0  0  0  0
   -3.8370   -2.3937   14.7064 N   0  0  0  0  0  0  0  0  0  0  0  0
   -4.3873   -3.7457   14.4627 C   0  0  0  0  0  0  0  0  0  0  0  0
   -2.4739   -2.0989   14.7890 C   0  0  0  0  0  0  0  0  0  0  0  0
   -1.8935   -1.0737   14.0433 C   0  0  0  0  0  0  0  0  0  0  0  0
   -0.5352   -0.8073   14.1963 C   0  0  0  0  0  0  0  0  0  0  0  0
    0.2332   -1.5617   15.0991 C   0  0  0  0  0  0  0  0  0  0  0  0
    1.5948   -1.3216   15.3436 N   0  0  0  0  0  0  0  0  0  0  0  0
    2.5323   -0.4320   14.7835 C   0  0  0  0  0  0  0  0  0  0  0  0
    2.1832    0.3856   13.7527 N   0  0  0  0  0  0  0  0  0  0  0  0
    3.0997    1.2392   13.2138 C   0  0  0  0  0  0  0  0  0  0  0  0
    4.4085    1.2886   13.6971 C   0  0  0  0  0  0  0  0  0  0  0  0
    4.7393    0.4966   14.7557 N   0  0  0  0  0  0  0  0  0  0  0  0
    5.8912    0.3843   15.4874 C   0  0  0  0  0  0  0  0  0  0  0  0
    5.6000   -0.5403   16.4969 C   0  0  0  0  0  0  0  0  0  0  0  0
    4.3900   -1.0499   16.3863 N   0  0  0  0  0  0  0  0  0  0  0  0
    3.8285   -0.3910   15.3363 C   0  0  0  0  0  0  0  0  0  0  0  0
    2.6272    2.1508   12.1213 C   0  0  0  0  0  0  0  0  0  0  0  0
    3.5370    2.6346   11.1631 C   0  0  0  0  0  0  0  0  0  0  0  0
    3.1492    3.4622   10.1085 C   0  0  0  0  0  0  0  0  0  0  0  0
    1.8011    3.8208   10.0156 C   0  0  0  0  0  0  0  0  0  0  0  0
    0.9990    4.5979    9.1271 C   0  0  0  0  0  0  0  0  0  0  0  0
   -0.2497    4.6170    9.5128 N   0  0  0  0  0  0  0  0  0  0  0  0
   -0.3315    3.8838   10.6343 N   0  0  0  0  0  0  0  0  0  0  0  0
    0.8874    3.3527   10.9946 C   0  0  0  0  0  0  0  0  0  0  0  0
    1.2729    2.5247   12.0514 C   0  0  0  0  0  0  0  0  0  0  0  0
   -0.3672   -2.5916   15.8262 C   0  0  0  0  0  0  0  0  0  0  0  0
   -1.7168   -2.8552   15.6739 C   0  0  0  0  0  0  0  0  0  0  0  0
   -5.1681   -4.7705   16.8844 H   0  0  0  0  0  0  0  0  0  0  0  0
   -6.8064   -4.0390   16.9683 H   0  0  0  0  0  0  0  0  0  0  0  0
   -6.4606   -5.3323   15.7707 H   0  0  0  0  0  0  0  0  0  0  0  0
   -6.4580   -2.3321   13.8786 H   0  0  0  0  0  0  0  0  0  0  0  0
   -5.3055   -1.2992   15.8742 H   0  0  0  0  0  0  0  0  0  0  0  0
   -4.3393   -2.4837   16.8177 H   0  0  0  0  0  0  0  0  0  0  0  0
   -3.7836   -4.5587   14.8924 H   0  0  0  0  0  0  0  0  0  0  0  0
   -4.5919   -3.9613   13.4036 H   0  0  0  0  0  0  0  0  0  0  0  0
   -2.4902   -0.4931   13.3553 H   0  0  0  0  0  0  0  0  0  0  0  0
   -0.0718   -0.0199   13.6204 H   0  0  0  0  0  0  0  0  0  0  0  0
    1.2518    0.3601   13.3896 H   0  0  0  0  0  0  0  0  0  0  0  0
    5.1414    1.9390   13.2429 H   0  0  0  0  0  0  0  0  0  0  0  0
    6.8256    0.8996   15.3209 H   0  0  0  0  0  0  0  0  0  0  0  0
    6.2923   -0.8072   17.2817 H   0  0  0  0  0  0  0  0  0  0  0  0
    4.5766    2.3543   11.2471 H   0  0  0  0  0  0  0  0  0  0  0  0
    3.7299    4.3927   10.1927 H   0  0  0  0  0  0  0  0  0  0  0  0
    3.4155    2.9470    9.1738 H   0  0  0  0  0  0  0  0  0  0  0  0
    1.3748    5.1042    8.2503 H   0  0  0  0  0  0  0  0  0  0  0  0
    0.5586    2.1846   12.7866 H   0  0  0  0  0  0  0  0  0  0  0  0
    0.2235   -3.1840   16.5093 H   0  0  0  0  0  0  0  0  0  0  0  0
   -2.1807   -3.6478   16.2422 H   0  0  0  0  0  0  0  0  0  0  0  0
  1  2  1  0  0  0  0
  2  3  1  0  0  0  0
  2  4  1  0  0  0  0
  2  6  1  0  0  0  0
  4  5  1  0  0  0  0
  5  6  1  0  0  0  0
  5  7  1  0  0  0  0
  7  8  2  0  0  0  0
  7 31  1  0  0  0  0
  8  9  1  0  0  0  0
  9 10  2  0  0  0  0
 10 11  1  0  0  0  0
 10 30  1  0  0  0  0
 11 12  2  0  0  0  0
 12 13  1  0  0  0  0
 12 20  1  0  0  0  0
 13 14  1  0  0  0  0
 14 15  2  0  0  0  0
 14 21  1  0  0  0  0
 15 16  1  0  0  0  0
 16 17  1  0  0  0  0
 16 20  1  0  0  0  0
 17 18  2  0  0  0  0
 18 19  1  0  0  0  0
 19 20  2  0  0  0  0
 21 22  2  0  0  0  0
 21 29  1  0  0  0  0
 22 23  1  0  0  0  0
 23 24  1  0  0  0  0
 24 25  2  0  0  0  0
 24 28  1  0  0  0  0
 25 26  1  0  0  0  0
 26 27  2  0  0  0  0
 27 28  1  0  0  0  0
 28 29  2  0  0  0  0
 30 31  2  0  0  0  0
  1 32  1  0  0  0  0
  1 33  1  0  0  0  0
  1 34  1  0  0  0  0
  3 35  1  0  0  0  0
  4 36  1  0  0  0  0
  4 37  1  0  0  0  0
  6 38  1  0  0  0  0
  6 39  1  0  0  0  0
  8 40  1  0  0  0  0
  9 41  1  0  0  0  0
 13 42  1  0  0  0  0
 15 43  1  0  0  0  0
 17 44  1  0  0  0  0
 18 45  1  0  0  0  0
 22 46  1  0  0  0  0
 23 47  1  0  0  0  0
 23 48  1  0  0  0  0
 25 49  1  0  0  0  0
 29 50  1  0  0  0  0
 30 51  1  0  0  0  0
 31 52  1  0  0  0  0
M  END
> <IC50[nM]>
3.9

$$$$
CHEMBL3265030_n
  -OEChem-05192314333D
 Structure written by MMmdl.
 52 57  0     1  0  0  0  0  0999 V2000
   -6.0443   -4.4602   16.2962 C   0  0  0  0  0  0  0  0  0  0  0  0
   -5.6240   -3.4001   15.2728 C   0  0  0  0  0  0  0  0  0  0  0  0
   -6.7329   -2.9884   14.5080 O   0  0  0  0  0  0  0  0  0  0  0  0
   -4.7833   -2.2666   15.8350 C   0  0  0  0  0  0  0  0  0  0  0  0
   -3.8370   -2.3937   14.7064 N   0  0  0  0  0  0  0  0  0  0  0  0
   -4.3873   -3.7457   14.4627 C   0  0  0  0  0  0  0  0  0  0  0  0
   -2.4739   -2.0989   14.7890 C   0  0  0  0  0  0  0  0  0  0  0  0
   -1.8935   -1.0737   14.0433 C   0  0  0  0  0  0  0  0  0  0  0  0
   -0.5352   -0.8073   14.1963 C   0  0  0  0  0  0  0  0  0  0  0  0
    0.2332   -1.5617   15.0991 C   0  0  0  0  0  0  0  0  0  0  0  0
    1.5948   -1.3216   15.3436 N   0  0  0  0  0  0  0  0  0  0  0  0
    2.5323   -0.4320   14.7835 C   0  0  0  0  0  0  0  0  0  0  0  0
    2.1832    0.3856   13.7527 N   0  0  0  0  0  0  0  0  0  0  0  0
    3.0997    1.2392   13.2138 C   0  0  0  0  0  0  0  0  0  0  0  0
    4.4085    1.2886   13.6971 C   0  0  0  0  0  0  0  0  0  0  0  0
    4.7393    0.4966   14.7557 N   0  0  0  0  0  0  0  0  0  0  0  0
    5.8912    0.3843   15.4874 C   0  0  0  0  0  0  0  0  0  0  0  0
    5.6000   -0.5403   16.4969 C   0  0  0  0  0  0  0  0  0  0  0  0
    4.3900   -1.0499   16.3863 N   0  0  0  0  0  0  0  0  0  0  0  0
    3.8285   -0.3910   15.3363 C   0  0  0  0  0  0  0  0  0  0  0  0
    2.6272    2.1508   12.1213 C   0  0  0  0  0  0  0  0  0  0  0  0
    3.5370    2.6346   11.1631 C   0  0  0  0  0  0  0  0  0  0  0  0
    3.1492    3.4622   10.1085 C   0  0  0  0  0  0  0  0  0  0  0  0
    1.8011    3.8208   10.0156 C   0  0  3  0  0  0  0  0  0  0  0  0
    0.9990    4.5979    9.1271 C   0  0  0  0  0  0  0  0  0  0  0  0
   -0.2497    4.6170    9.5128 N   0  0  0  0  0  0  0  0  0  0  0  0
   -0.3315    3.8838   10.6343 N   0  0  0  0  0  0  0  0  0  0  0  0
    0.8874    3.3527   10.9946 C   0  0  0  0  0  0  0  0  0  0  0  0
    1.2729    2.5247   12.0514 C   0  0  0  0  0  0  0  0  0  0  0  0
   -0.3672   -2.5916   15.8262 C   0  0  0  0  0  0  0  0  0  0  0  0
   -1.7168   -2.8552   15.6739 C   0  0  0  0  0  0  0  0  0  0  0  0
   -5.1681   -4.7705   16.8844 H   0  0  0  0  0  0  0  0  0  0  0  0
   -6.8064   -4.0390   16.9683 H   0  0  0  0  0  0  0  0  0  0  0  0
   -6.4606   -5.3323   15.7707 H   0  0  0  0  0  0  0  0  0  0  0  0
   -6.4580   -2.3321   13.8786 H   0  0  0  0  0  0  0  0  0  0  0  0
   -5.3055   -1.2992   15.8742 H   0  0  0  0  0  0  0  0  0  0  0  0
   -4.3393   -2.4837   16.8177 H   0  0  0  0  0  0  0  0  0  0  0  0
   -3.7836   -4.5587   14.8924 H   0  0  0  0  0  0  0  0  0  0  0  0
   -4.5919   -3.9613   13.4036 H   0  0  0  0  0  0  0  0  0  0  0  0
   -2.4902   -0.4931   13.3553 H   0  0  0  0  0  0  0  0  0  0  0  0
   -0.0718   -0.0199   13.6204 H   0  0  0  0  0  0  0  0  0  0  0  0
    5.0730    1.0132   12.8649 H   0  0  0  0  0  0  0  0  0  0  0  0
    4.6060    2.3289   13.9951 H   0  0  0  0  0  0  0  0  0  0  0  0
    6.8256    0.8996   15.3209 H   0  0  0  0  0  0  0  0  0  0  0  0
    6.2923   -0.8072   17.2817 H   0  0  0  0  0  0  0  0  0  0  0  0
    4.5766    2.3543   11.2471 H   0  0  0  0  0  0  0  0  0  0  0  0
    3.8694    3.8153    9.3853 H   0  0  0  0  0  0  0  0  0  0  0  0
    1.9962    4.7161   10.6242 H   0  0  0  0  0  0  0  0  0  0  0  0
    1.3748    5.1042    8.2503 H   0  0  0  0  0  0  0  0  0  0  0  0
    0.5586    2.1846   12.7866 H   0  0  0  0  0  0  0  0  0  0  0  0
    0.2235   -3.1840   16.5093 H   0  0  0  0  0  0  0  0  0  0  0  0
   -2.1807   -3.6478   16.2422 H   0  0  0  0  0  0  0  0  0  0  0  0
  1  2  1  0  0  0  0
  2  3  1  0  0  0  0
  2  4  1  0  0  0  0
  2  6  1  0  0  0  0
  4  5  1  0  0  0  0
  5  6  1  0  0  0  0
  5  7  1  0  0  0  0
  7  8  2  0  0  0  0
  7 31  1  0  0  0  0
  8  9  1  0  0  0  0
  9 10  2  0  0  0  0
 10 11  1  0  0  0  0
 10 30  1  0  0  0  0
 11 12  2  0  0  0  0
 12 13  1  0  0  0  0
 12 20  1  0  0  0  0
 13 14  2  0  0  0  0
 14 15  1  0  0  0  0
 14 21  1  0  0  0  0
 15 16  1  0  0  0  0
 16 17  1  0  0  0  0
 16 20  1  0  0  0  0
 17 18  2  0  0  0  0
 18 19  1  0  0  0  0
 19 20  2  0  0  0  0
 21 22  1  0  0  0  0
 21 29  2  0  0  0  0
 22 23  2  0  0  0  0
 23 24  1  0  0  0  0
 24 25  1  0  0  0  0
 24 28  1  0  0  0  0
 25 26  2  0  0  0  0
 26 27  1  0  0  0  0
 27 28  2  0  0  0  0
 28 29  1  0  0  0  0
 30 31  2  0  0  0  0
  1 32  1  0  0  0  0
  1 33  1  0  0  0  0
  1 34  1  0  0  0  0
  3 35  1  0  0  0  0
  4 36  1  0  0  0  0
  4 37  1  0  0  0  0
  6 38  1  0  0  0  0
  6 39  1  0  0  0  0
  8 40  1  0  0  0  0
  9 41  1  0  0  0  0
 15 42  1  0  0  0  0
 15 43  1  0  0  0  0
 17 44  1  0  0  0  0
 18 45  1  0  0  0  0
 22 46  1  0  0  0  0
 23 47  1  0  0  0  0
 24 48  1  0  0  0  0
 25 49  1  0  0  0  0
 29 50  1  0  0  0  0
 30 51  1  0  0  0  0
 31 52  1  0  0  0  0
M  END
> <IC50[nM]>
3.9

$$$$
CHEMBL3265030_n
  -OEChem-05192314333D
 Structure written by MMmdl.
 52 57  0     0  0  0  0  0  0999 V2000
   -6.0443   -4.4602   16.2962 C   0  0  0  0  0  0  0  0  0  0  0  0
   -5.6240   -3.4001   15.2728 C   0  0  0  0  0  0  0  0  0  0  0  0
   -6.7329   -2.9884   14.5080 O   0  0  0  0  0  0  0  0  0  0  0  0
   -4.7833   -2.2666   15.8350 C   0  0  0  0  0  0  0  0  0  0  0  0
   -3.8370   -2.3937   14.7064 N   0  0  0  0  0  0  0  0  0  0  0  0
   -4.3873   -3.7457   14.4627 C   0  0  0  0  0  0  0  0  0  0  0  0
   -2.4739   -2.0989   14.7890 C   0  0  0  0  0  0  0  0  0  0  0  0
   -1.8935   -1.0737   14.0433 C   0  0  0  0  0  0  0  0  0  0  0  0
   -0.5352   -0.8073   14.1963 C   0  0  0  0  0  0  0  0  0  0  0  0
    0.2332   -1.5617   15.0991 C   0  0  0  0  0  0  0  0  0  0  0  0
    1.5948   -1.3216   15.3436 N   0  0  0  0  0  0  0  0  0  0  0  0
    2.5323   -0.4320   14.7835 C   0  0  0  0  0  0  0  0  0  0  0  0
    2.1832    0.3856   13.7527 N   0  0  0  0  0  0  0  0  0  0  0  0
    3.0997    1.2392   13.2138 C   0  0  0  0  0  0  0  0  0  0  0  0
    4.4085    1.2886   13.6971 C   0  0  0  0  0  0  0  0  0  0  0  0
    4.7393    0.4966   14.7557 N   0  0  0  0  0  0  0  0  0  0  0  0
    5.8912    0.3843   15.4874 C   0  0  0  0  0  0  0  0  0  0  0  0
    5.6000   -0.5403   16.4969 C   0  0  0  0  0  0  0  0  0  0  0  0
    4.3900   -1.0499   16.3863 N   0  0  0  0  0  0  0  0  0  0  0  0
    3.8285   -0.3910   15.3363 C   0  0  0  0  0  0  0  0  0  0  0  0
    2.6272    2.1508   12.1213 C   0  0  0  0  0  0  0  0  0  0  0  0
    3.5370    2.6346   11.1631 C   0  0  0  0  0  0  0  0  0  0  0  0
    3.1492    3.4622   10.1085 C   0  0  0  0  0  0  0  0  0  0  0  0
    1.8011    3.8208   10.0156 C   0  0  0  0  0  0  0  0  0  0  0  0
    0.9990    4.5979    9.1271 C   0  0  0  0  0  0  0  0  0  0  0  0
   -0.2497    4.6170    9.5128 N   0  0  0  0  0  0  0  0  0  0  0  0
   -0.3315    3.8838   10.6343 N   0  0  0  0  0  0  0  0  0  0  0  0
    0.8874    3.3527   10.9946 C   0  0  0  0  0  0  0  0  0  0  0  0
    1.2729    2.5247   12.0514 C   0  0  0  0  0  0  0  0  0  0  0  0
   -0.3672   -2.5916   15.8262 C   0  0  0  0  0  0  0  0  0  0  0  0
   -1.7168   -2.8552   15.6739 C   0  0  0  0  0  0  0  0  0  0  0  0
   -5.1681   -4.7705   16.8844 H   0  0  0  0  0  0  0  0  0  0  0  0
   -6.8064   -4.0390   16.9683 H   0  0  0  0  0  0  0  0  0  0  0  0
   -6.4606   -5.3323   15.7707 H   0  0  0  0  0  0  0  0  0  0  0  0
   -6.4580   -2.3321   13.8786 H   0  0  0  0  0  0  0  0  0  0  0  0
   -5.3055   -1.2992   15.8742 H   0  0  0  0  0  0  0  0  0  0  0  0
   -4.3393   -2.4837   16.8177 H   0  0  0  0  0  0  0  0  0  0  0  0
   -3.7836   -4.5587   14.8924 H   0  0  0  0  0  0  0  0  0  0  0  0
   -4.5919   -3.9613   13.4036 H   0  0  0  0  0  0  0  0  0  0  0  0
   -2.4902   -0.4931   13.3553 H   0  0  0  0  0  0  0  0  0  0  0  0
   -0.0718   -0.0199   13.6204 H   0  0  0  0  0  0  0  0  0  0  0  0
    5.0730    1.0132   12.8649 H   0  0  0  0  0  0  0  0  0  0  0  0
    4.6060    2.3289   13.9951 H   0  0  0  0  0  0  0  0  0  0  0  0
    6.8256    0.8996   15.3209 H   0  0  0  0  0  0  0  0  0  0  0  0
    6.2923   -0.8072   17.2817 H   0  0  0  0  0  0  0  0  0  0  0  0
    4.3019    3.1925   11.7232 H   0  0  0  0  0  0  0  0  0  0  0  0
    3.9948    1.7471   10.7018 H   0  0  0  0  0  0  0  0  0  0  0  0
    3.8694    3.8153    9.3853 H   0  0  0  0  0  0  0  0  0  0  0  0
    1.3748    5.1042    8.2503 H   0  0  0  0  0  0  0  0  0  0  0  0
    0.5586    2.1846   12.7866 H   0  0  0  0  0  0  0  0  0  0  0  0
    0.2235   -3.1840   16.5093 H   0  0  0  0  0  0  0  0  0  0  0  0
   -2.1807   -3.6478   16.2422 H   0  0  0  0  0  0  0  0  0  0  0  0
  1  2  1  0  0  0  0
  2  3  1  0  0  0  0
  2  4  1  0  0  0  0
  2  6  1  0  0  0  0
  4  5  1  0  0  0  0
  5  6  1  0  0  0  0
  5  7  1  0  0  0  0
  7  8  2  0  0  0  0
  7 31  1  0  0  0  0
  8  9  1  0  0  0  0
  9 10  2  0  0  0  0
 10 11  1  0  0  0  0
 10 30  1  0  0  0  0
 11 12  2  0  0  0  0
 12 13  1  0  0  0  0
 12 20  1  0  0  0  0
 13 14  2  0  0  0  0
 14 15  1  0  0  0  0
 14 21  1  0  0  0  0
 15 16  1  0  0  0  0
 16 17  1  0  0  0  0
 16 20  1  0  0  0  0
 17 18  2  0  0  0  0
 18 19  1  0  0  0  0
 19 20  2  0  0  0  0
 21 22  1  0  0  0  0
 21 29  2  0  0  0  0
 22 23  1  0  0  0  0
 23 24  2  0  0  0  0
 24 25  1  0  0  0  0
 24 28  1  0  0  0  0
 25 26  2  0  0  0  0
 26 27  1  0  0  0  0
 27 28  2  0  0  0  0
 28 29  1  0  0  0  0
 30 31  2  0  0  0  0
  1 32  1  0  0  0  0
  1 33  1  0  0  0  0
  1 34  1  0  0  0  0
  3 35  1  0  0  0  0
  4 36  1  0  0  0  0
  4 37  1  0  0  0  0
  6 38  1  0  0  0  0
  6 39  1  0  0  0  0
  8 40  1  0  0  0  0
  9 41  1  0  0  0  0
 15 42  1  0  0  0  0
 15 43  1  0  0  0  0
 17 44  1  0  0  0  0
 18 45  1  0  0  0  0
 22 46  1  0  0  0  0
 22 47  1  0  0  0  0
 23 48  1  0  0  0  0
 25 49  1  0  0  0  0
 29 50  1  0  0  0  0
 30 51  1  0  0  0  0
 31 52  1  0  0  0  0
M  END
> <IC50[nM]>
3.9

$$$$
CHEMBL3265030_n
  -OEChem-05192314333D
 Structure written by MMmdl.
 52 57  0     0  0  0  0  0  0999 V2000
   -6.0443   -4.4602   16.2962 C   0  0  0  0  0  0  0  0  0  0  0  0
   -5.6240   -3.4001   15.2728 C   0  0  0  0  0  0  0  0  0  0  0  0
   -6.7329   -2.9884   14.5080 O   0  0  0  0  0  0  0  0  0  0  0  0
   -4.7833   -2.2666   15.8350 C   0  0  0  0  0  0  0  0  0  0  0  0
   -3.8370   -2.3937   14.7064 N   0  0  0  0  0  0  0  0  0  0  0  0
   -4.3873   -3.7457   14.4627 C   0  0  0  0  0  0  0  0  0  0  0  0
   -2.4739   -2.0989   14.7890 C   0  0  0  0  0  0  0  0  0  0  0  0
   -1.8935   -1.0737   14.0433 C   0  0  0  0  0  0  0  0  0  0  0  0
   -0.5352   -0.8073   14.1963 C   0  0  0  0  0  0  0  0  0  0  0  0
    0.2332   -1.5617   15.0991 C   0  0  0  0  0  0  0  0  0  0  0  0
    1.5948   -1.3216   15.3436 N   0  0  0  0  0  0  0  0  0  0  0  0
    2.5323   -0.4320   14.7835 C   0  0  0  0  0  0  0  0  0  0  0  0
    2.1832    0.3856   13.7527 N   0  0  0  0  0  0  0  0  0  0  0  0
    3.0997    1.2392   13.2138 C   0  0  0  0  0  0  0  0  0  0  0  0
    4.4085    1.2886   13.6971 C   0  0  0  0  0  0  0  0  0  0  0  0
    4.7393    0.4966   14.7557 N   0  0  0  0  0  0  0  0  0  0  0  0
    5.8912    0.3843   15.4874 C   0  0  0  0  0  0  0  0  0  0  0  0
    5.6000   -0.5403   16.4969 C   0  0  0  0  0  0  0  0  0  0  0  0
    4.3900   -1.0499   16.3863 N   0  0  0  0  0  0  0  0  0  0  0  0
    3.8285   -0.3910   15.3363 C   0  0  0  0  0  0  0  0  0  0  0  0
    2.6272    2.1508   12.1213 C   0  0  0  0  0  0  0  0  0  0  0  0
    3.5370    2.6346   11.1631 C   0  0  0  0  0  0  0  0  0  0  0  0
    3.1492    3.4622   10.1085 C   0  0  0  0  0  0  0  0  0  0  0  0
    1.8011    3.8208   10.0156 C   0  0  0  0  0  0  0  0  0  0  0  0
    0.9990    4.5979    9.1271 C   0  0  0  0  0  0  0  0  0  0  0  0
   -0.2497    4.6170    9.5128 N   0  0  0  0  0  0  0  0  0  0  0  0
   -0.3315    3.8838   10.6343 N   0  0  0  0  0  0  0  0  0  0  0  0
    0.8874    3.3527   10.9946 C   0  0  0  0  0  0  0  0  0  0  0  0
    1.2729    2.5247   12.0514 C   0  0  0  0  0  0  0  0  0  0  0  0
   -0.3672   -2.5916   15.8262 C   0  0  0  0  0  0  0  0  0  0  0  0
   -1.7168   -2.8552   15.6739 C   0  0  0  0  0  0  0  0  0  0  0  0
   -5.1681   -4.7705   16.8844 H   0  0  0  0  0  0  0  0  0  0  0  0
   -6.8064   -4.0390   16.9683 H   0  0  0  0  0  0  0  0  0  0  0  0
   -6.4606   -5.3323   15.7707 H   0  0  0  0  0  0  0  0  0  0  0  0
   -6.4580   -2.3321   13.8786 H   0  0  0  0  0  0  0  0  0  0  0  0
   -5.3055   -1.2992   15.8742 H   0  0  0  0  0  0  0  0  0  0  0  0
   -4.3393   -2.4837   16.8177 H   0  0  0  0  0  0  0  0  0  0  0  0
   -3.7836   -4.5587   14.8924 H   0  0  0  0  0  0  0  0  0  0  0  0
   -4.5919   -3.9613   13.4036 H   0  0  0  0  0  0  0  0  0  0  0  0
   -2.4902   -0.4931   13.3553 H   0  0  0  0  0  0  0  0  0  0  0  0
   -0.0718   -0.0199   13.6204 H   0  0  0  0  0  0  0  0  0  0  0  0
    5.0730    1.0132   12.8649 H   0  0  0  0  0  0  0  0  0  0  0  0
    4.6060    2.3289   13.9951 H   0  0  0  0  0  0  0  0  0  0  0  0
    6.8256    0.8996   15.3209 H   0  0  0  0  0  0  0  0  0  0  0  0
    6.2923   -0.8072   17.2817 H   0  0  0  0  0  0  0  0  0  0  0  0
    4.5766    2.3543   11.2471 H   0  0  0  0  0  0  0  0  0  0  0  0
    3.8694    3.8153    9.3853 H   0  0  0  0  0  0  0  0  0  0  0  0
    1.3748    5.1042    8.2503 H   0  0  0  0  0  0  0  0  0  0  0  0
    0.6792    1.6014   11.9804 H   0  0  0  0  0  0  0  0  0  0  0  0
    1.0266    3.0480   12.9871 H   0  0  0  0  0  0  0  0  0  0  0  0
    0.2235   -3.1840   16.5093 H   0  0  0  0  0  0  0  0  0  0  0  0
   -2.1807   -3.6478   16.2422 H   0  0  0  0  0  0  0  0  0  0  0  0
  1  2  1  0  0  0  0
  2  3  1  0  0  0  0
  2  4  1  0  0  0  0
  2  6  1  0  0  0  0
  4  5  1  0  0  0  0
  5  6  1  0  0  0  0
  5  7  1  0  0  0  0
  7  8  2  0  0  0  0
  7 31  1  0  0  0  0
  8  9  1  0  0  0  0
  9 10  2  0  0  0  0
 10 11  1  0  0  0  0
 10 30  1  0  0  0  0
 11 12  2  0  0  0  0
 12 13  1  0  0  0  0
 12 20  1  0  0  0  0
 13 14  2  0  0  0  0
 14 15  1  0  0  0  0
 14 21  1  0  0  0  0
 15 16  1  0  0  0  0
 16 17  1  0  0  0  0
 16 20  1  0  0  0  0
 17 18  2  0  0  0  0
 18 19  1  0  0  0  0
 19 20  2  0  0  0  0
 21 22  2  0  0  0  0
 21 29  1  0  0  0  0
 22 23  1  0  0  0  0
 23 24  2  0  0  0  0
 24 25  1  0  0  0  0
 24 28  1  0  0  0  0
 25 26  2  0  0  0  0
 26 27  1  0  0  0  0
 27 28  2  0  0  0  0
 28 29  1  0  0  0  0
 30 31  2  0  0  0  0
  1 32  1  0  0  0  0
  1 33  1  0  0  0  0
  1 34  1  0  0  0  0
  3 35  1  0  0  0  0
  4 36  1  0  0  0  0
  4 37  1  0  0  0  0
  6 38  1  0  0  0  0
  6 39  1  0  0  0  0
  8 40  1  0  0  0  0
  9 41  1  0  0  0  0
 15 42  1  0  0  0  0
 15 43  1  0  0  0  0
 17 44  1  0  0  0  0
 18 45  1  0  0  0  0
 22 46  1  0  0  0  0
 23 47  1  0  0  0  0
 25 48  1  0  0  0  0
 29 49  1  0  0  0  0
 29 50  1  0  0  0  0
 30 51  1  0  0  0  0
 31 52  1  0  0  0  0
M  END
> <IC50[nM]>
3.9

$$$$
CHEMBL3265030_n
  -OEChem-05192314333D
 Structure written by MMmdl.
 52 57  0     1  0  0  0  0  0999 V2000
   -6.0443   -4.4602   16.2962 C   0  0  0  0  0  0  0  0  0  0  0  0
   -5.6240   -3.4001   15.2728 C   0  0  0  0  0  0  0  0  0  0  0  0
   -6.7329   -2.9884   14.5080 O   0  0  0  0  0  0  0  0  0  0  0  0
   -4.7833   -2.2666   15.8350 C   0  0  0  0  0  0  0  0  0  0  0  0
   -3.8370   -2.3937   14.7064 N   0  0  0  0  0  0  0  0  0  0  0  0
   -4.3873   -3.7457   14.4627 C   0  0  0  0  0  0  0  0  0  0  0  0
   -2.4739   -2.0989   14.7890 C   0  0  0  0  0  0  0  0  0  0  0  0
   -1.8935   -1.0737   14.0433 C   0  0  0  0  0  0  0  0  0  0  0  0
   -0.5352   -0.8073   14.1963 C   0  0  0  0  0  0  0  0  0  0  0  0
    0.2332   -1.5617   15.0991 C   0  0  0  0  0  0  0  0  0  0  0  0
    1.5948   -1.3216   15.3436 N   0  0  0  0  0  0  0  0  0  0  0  0
    2.5323   -0.4320   14.7835 C   0  0  0  0  0  0  0  0  0  0  0  0
    2.1832    0.3856   13.7527 N   0  0  0  0  0  0  0  0  0  0  0  0
    3.0997    1.2392   13.2138 C   0  0  0  0  0  0  0  0  0  0  0  0
    4.4085    1.2886   13.6971 C   0  0  0  0  0  0  0  0  0  0  0  0
    4.7393    0.4966   14.7557 N   0  0  0  0  0  0  0  0  0  0  0  0
    5.8912    0.3843   15.4874 C   0  0  0  0  0  0  0  0  0  0  0  0
    5.6000   -0.5403   16.4969 C   0  0  0  0  0  0  0  0  0  0  0  0
    4.3900   -1.0499   16.3863 N   0  0  0  0  0  0  0  0  0  0  0  0
    3.8285   -0.3910   15.3363 C   0  0  0  0  0  0  0  0  0  0  0  0
    2.6272    2.1508   12.1213 C   0  0  3  0  0  0  0  0  0  0  0  0
    3.5370    2.6346   11.1631 C   0  0  0  0  0  0  0  0  0  0  0  0
    3.1492    3.4622   10.1085 C   0  0  0  0  0  0  0  0  0  0  0  0
    1.8011    3.8208   10.0156 C   0  0  0  0  0  0  0  0  0  0  0  0
    0.9990    4.5979    9.1271 C   0  0  0  0  0  0  0  0  0  0  0  0
   -0.2497    4.6170    9.5128 N   0  0  0  0  0  0  0  0  0  0  0  0
   -0.3315    3.8838   10.6343 N   0  0  0  0  0  0  0  0  0  0  0  0
    0.8874    3.3527   10.9946 C   0  0  0  0  0  0  0  0  0  0  0  0
    1.2729    2.5247   12.0514 C   0  0  0  0  0  0  0  0  0  0  0  0
   -0.3672   -2.5916   15.8262 C   0  0  0  0  0  0  0  0  0  0  0  0
   -1.7168   -2.8552   15.6739 C   0  0  0  0  0  0  0  0  0  0  0  0
   -5.1681   -4.7705   16.8844 H   0  0  0  0  0  0  0  0  0  0  0  0
   -6.8064   -4.0390   16.9683 H   0  0  0  0  0  0  0  0  0  0  0  0
   -6.4606   -5.3323   15.7707 H   0  0  0  0  0  0  0  0  0  0  0  0
   -6.4580   -2.3321   13.8786 H   0  0  0  0  0  0  0  0  0  0  0  0
   -5.3055   -1.2992   15.8742 H   0  0  0  0  0  0  0  0  0  0  0  0
   -4.3393   -2.4837   16.8177 H   0  0  0  0  0  0  0  0  0  0  0  0
   -3.7836   -4.5587   14.8924 H   0  0  0  0  0  0  0  0  0  0  0  0
   -4.5919   -3.9613   13.4036 H   0  0  0  0  0  0  0  0  0  0  0  0
   -2.4902   -0.4931   13.3553 H   0  0  0  0  0  0  0  0  0  0  0  0
   -0.0718   -0.0199   13.6204 H   0  0  0  0  0  0  0  0  0  0  0  0
    5.0730    1.0132   12.8649 H   0  0  0  0  0  0  0  0  0  0  0  0
    4.6060    2.3289   13.9951 H   0  0  0  0  0  0  0  0  0  0  0  0
    6.8256    0.8996   15.3209 H   0  0  0  0  0  0  0  0  0  0  0  0
    6.2923   -0.8072   17.2817 H   0  0  0  0  0  0  0  0  0  0  0  0
    2.8350    3.0227   12.7589 H   0  0  0  0  0  0  0  0  0  0  0  0
    4.5766    2.3543   11.2471 H   0  0  0  0  0  0  0  0  0  0  0  0
    3.8694    3.8153    9.3853 H   0  0  0  0  0  0  0  0  0  0  0  0
    1.3748    5.1042    8.2503 H   0  0  0  0  0  0  0  0  0  0  0  0
    0.5586    2.1846   12.7866 H   0  0  0  0  0  0  0  0  0  0  0  0
    0.2235   -3.1840   16.5093 H   0  0  0  0  0  0  0  0  0  0  0  0
   -2.1807   -3.6478   16.2422 H   0  0  0  0  0  0  0  0  0  0  0  0
  1  2  1  0  0  0  0
  2  3  1  0  0  0  0
  2  4  1  0  0  0  0
  2  6  1  0  0  0  0
  4  5  1  0  0  0  0
  5  6  1  0  0  0  0
  5  7  1  0  0  0  0
  7  8  2  0  0  0  0
  7 31  1  0  0  0  0
  8  9  1  0  0  0  0
  9 10  2  0  0  0  0
 10 11  1  0  0  0  0
 10 30  1  0  0  0  0
 11 12  2  0  0  0  0
 12 13  1  0  0  0  0
 12 20  1  0  0  0  0
 13 14  2  0  0  0  0
 14 15  1  0  0  0  0
 14 21  1  0  0  0  0
 15 16  1  0  0  0  0
 16 17  1  0  0  0  0
 16 20  1  0  0  0  0
 17 18  2  0  0  0  0
 18 19  1  0  0  0  0
 19 20  2  0  0  0  0
 21 22  1  0  0  0  0
 21 29  1  0  0  0  0
 22 23  2  0  0  0  0
 23 24  1  0  0  0  0
 24 25  2  0  0  0  0
 24 28  1  0  0  0  0
 25 26  1  0  0  0  0
 26 27  2  0  0  0  0
 27 28  1  0  0  0  0
 28 29  2  0  0  0  0
 30 31  2  0  0  0  0
  1 32  1  0  0  0  0
  1 33  1  0  0  0  0
  1 34  1  0  0  0  0
  3 35  1  0  0  0  0
  4 36  1  0  0  0  0
  4 37  1  0  0  0  0
  6 38  1  0  0  0  0
  6 39  1  0  0  0  0
  8 40  1  0  0  0  0
  9 41  1  0  0  0  0
 15 42  1  0  0  0  0
 15 43  1  0  0  0  0
 17 44  1  0  0  0  0
 18 45  1  0  0  0  0
 21 46  1  0  0  0  0
 22 47  1  0  0  0  0
 23 48  1  0  0  0  0
 25 49  1  0  0  0  0
 29 50  1  0  0  0  0
 30 51  1  0  0  0  0
 31 52  1  0  0  0  0
M  END
> <IC50[nM]>
3.9

$$$$
CHEMBL3265030_n
  -OEChem-05192314333D
 Structure written by MMmdl.
 52 57  0     1  0  0  0  0  0999 V2000
   -6.0443   -4.4602   16.2962 C   0  0  0  0  0  0  0  0  0  0  0  0
   -5.6240   -3.4001   15.2728 C   0  0  0  0  0  0  0  0  0  0  0  0
   -6.7329   -2.9884   14.5080 O   0  0  0  0  0  0  0  0  0  0  0  0
   -4.7833   -2.2666   15.8350 C   0  0  0  0  0  0  0  0  0  0  0  0
   -3.8370   -2.3937   14.7064 N   0  0  0  0  0  0  0  0  0  0  0  0
   -4.3873   -3.7457   14.4627 C   0  0  0  0  0  0  0  0  0  0  0  0
   -2.4739   -2.0989   14.7890 C   0  0  0  0  0  0  0  0  0  0  0  0
   -1.8935   -1.0737   14.0433 C   0  0  0  0  0  0  0  0  0  0  0  0
   -0.5352   -0.8073   14.1963 C   0  0  0  0  0  0  0  0  0  0  0  0
    0.2332   -1.5617   15.0991 C   0  0  0  0  0  0  0  0  0  0  0  0
    1.5948   -1.3216   15.3436 N   0  0  0  0  0  0  0  0  0  0  0  0
    2.5323   -0.4320   14.7835 C   0  0  0  0  0  0  0  0  0  0  0  0
    2.1832    0.3856   13.7527 N   0  0  0  0  0  0  0  0  0  0  0  0
    3.0997    1.2392   13.2138 C   0  0  0  0  0  0  0  0  0  0  0  0
    4.4085    1.2886   13.6971 C   0  0  0  0  0  0  0  0  0  0  0  0
    4.7393    0.4966   14.7557 N   0  0  0  0  0  0  0  0  0  0  0  0
    5.8912    0.3843   15.4874 C   0  0  0  0  0  0  0  0  0  0  0  0
    5.6000   -0.5403   16.4969 C   0  0  0  0  0  0  0  0  0  0  0  0
    4.3900   -1.0499   16.3863 N   0  0  0  0  0  0  0  0  0  0  0  0
    3.8285   -0.3910   15.3363 C   0  0  0  0  0  0  0  0  0  0  0  0
    2.6272    2.1508   12.1213 C   0  0  0  0  0  0  0  0  0  0  0  0
    3.5370    2.6346   11.1631 C   0  0  0  0  0  0  0  0  0  0  0  0
    3.1492    3.4622   10.1085 C   0  0  0  0  0  0  0  0  0  0  0  0
    1.8011    3.8208   10.0156 C   0  0  0  0  0  0  0  0  0  0  0  0
    0.9990    4.5979    9.1271 C   0  0  0  0  0  0  0  0  0  0  0  0
   -0.2497    4.6170    9.5128 N   0  0  0  0  0  0  0  0  0  0  0  0
   -0.3315    3.8838   10.6343 N   0  0  0  0  0  0  0  0  0  0  0  0
    0.8874    3.3527   10.9946 C   0  0  3  0  0  0  0  0  0  0  0  0
    1.2729    2.5247   12.0514 C   0  0  0  0  0  0  0  0  0  0  0  0
   -0.3672   -2.5916   15.8262 C   0  0  0  0  0  0  0  0  0  0  0  0
   -1.7168   -2.8552   15.6739 C   0  0  0  0  0  0  0  0  0  0  0  0
   -5.1681   -4.7705   16.8844 H   0  0  0  0  0  0  0  0  0  0  0  0
   -6.8064   -4.0390   16.9683 H   0  0  0  0  0  0  0  0  0  0  0  0
   -6.4606   -5.3323   15.7707 H   0  0  0  0  0  0  0  0  0  0  0  0
   -6.4580   -2.3321   13.8786 H   0  0  0  0  0  0  0  0  0  0  0  0
   -5.3055   -1.2992   15.8742 H   0  0  0  0  0  0  0  0  0  0  0  0
   -4.3393   -2.4837   16.8177 H   0  0  0  0  0  0  0  0  0  0  0  0
   -3.7836   -4.5587   14.8924 H   0  0  0  0  0  0  0  0  0  0  0  0
   -4.5919   -3.9613   13.4036 H   0  0  0  0  0  0  0  0  0  0  0  0
   -2.4902   -0.4931   13.3553 H   0  0  0  0  0  0  0  0  0  0  0  0
   -0.0718   -0.0199   13.6204 H   0  0  0  0  0  0  0  0  0  0  0  0
    5.0730    1.0132   12.8649 H   0  0  0  0  0  0  0  0  0  0  0  0
    4.6060    2.3289   13.9951 H   0  0  0  0  0  0  0  0  0  0  0  0
    6.8256    0.8996   15.3209 H   0  0  0  0  0  0  0  0  0  0  0  0
    6.2923   -0.8072   17.2817 H   0  0  0  0  0  0  0  0  0  0  0  0
    4.5766    2.3543   11.2471 H   0  0  0  0  0  0  0  0  0  0  0  0
    3.8694    3.8153    9.3853 H   0  0  0  0  0  0  0  0  0  0  0  0
    1.3748    5.1042    8.2503 H   0  0  0  0  0  0  0  0  0  0  0  0
    1.0928    4.2393   11.6124 H   0  0  0  0  0  0  0  0  0  0  0  0
    0.5586    2.1846   12.7866 H   0  0  0  0  0  0  0  0  0  0  0  0
    0.2235   -3.1840   16.5093 H   0  0  0  0  0  0  0  0  0  0  0  0
   -2.1807   -3.6478   16.2422 H   0  0  0  0  0  0  0  0  0  0  0  0
  1  2  1  0  0  0  0
  2  3  1  0  0  0  0
  2  4  1  0  0  0  0
  2  6  1  0  0  0  0
  4  5  1  0  0  0  0
  5  6  1  0  0  0  0
  5  7  1  0  0  0  0
  7  8  2  0  0  0  0
  7 31  1  0  0  0  0
  8  9  1  0  0  0  0
  9 10  2  0  0  0  0
 10 11  1  0  0  0  0
 10 30  1  0  0  0  0
 11 12  2  0  0  0  0
 12 13  1  0  0  0  0
 12 20  1  0  0  0  0
 13 14  2  0  0  0  0
 14 15  1  0  0  0  0
 14 21  1  0  0  0  0
 15 16  1  0  0  0  0
 16 17  1  0  0  0  0
 16 20  1  0  0  0  0
 17 18  2  0  0  0  0
 18 19  1  0  0  0  0
 19 20  2  0  0  0  0
 21 22  1  0  0  0  0
 21 29  2  0  0  0  0
 22 23  2  0  0  0  0
 23 24  1  0  0  0  0
 24 25  2  0  0  0  0
 24 28  1  0  0  0  0
 25 26  1  0  0  0  0
 26 27  2  0  0  0  0
 27 28  1  0  0  0  0
 28 29  1  0  0  0  0
 30 31  2  0  0  0  0
  1 32  1  0  0  0  0
  1 33  1  0  0  0  0
  1 34  1  0  0  0  0
  3 35  1  0  0  0  0
  4 36  1  0  0  0  0
  4 37  1  0  0  0  0
  6 38  1  0  0  0  0
  6 39  1  0  0  0  0
  8 40  1  0  0  0  0
  9 41  1  0  0  0  0
 15 42  1  0  0  0  0
 15 43  1  0  0  0  0
 17 44  1  0  0  0  0
 18 45  1  0  0  0  0
 22 46  1  0  0  0  0
 23 47  1  0  0  0  0
 25 48  1  0  0  0  0
 28 49  1  0  0  0  0
 29 50  1  0  0  0  0
 30 51  1  0  0  0  0
 31 52  1  0  0  0  0
M  END
> <IC50[nM]>
3.9

$$$$
CHEMBL3265030_n
  -OEChem-05192314333D
 Structure written by MMmdl.
 52 57  0     0  0  0  0  0  0999 V2000
   -6.0443   -4.4602   16.2962 C   0  0  0  0  0  0  0  0  0  0  0  0
   -5.6240   -3.4001   15.2728 C   0  0  0  0  0  0  0  0  0  0  0  0
   -6.7329   -2.9884   14.5080 O   0  0  0  0  0  0  0  0  0  0  0  0
   -4.7833   -2.2666   15.8350 C   0  0  0  0  0  0  0  0  0  0  0  0
   -3.8370   -2.3937   14.7064 N   0  0  0  0  0  0  0  0  0  0  0  0
   -4.3873   -3.7457   14.4627 C   0  0  0  0  0  0  0  0  0  0  0  0
   -2.4739   -2.0989   14.7890 C   0  0  0  0  0  0  0  0  0  0  0  0
   -1.8935   -1.0737   14.0433 C   0  0  0  0  0  0  0  0  0  0  0  0
   -0.5352   -0.8073   14.1963 C   0  0  0  0  0  0  0  0  0  0  0  0
    0.2332   -1.5617   15.0991 C   0  0  0  0  0  0  0  0  0  0  0  0
    1.5948   -1.3216   15.3436 N   0  0  0  0  0  0  0  0  0  0  0  0
    2.5323   -0.4320   14.7835 C   0  0  0  0  0  0  0  0  0  0  0  0
    2.1832    0.3856   13.7527 N   0  0  0  0  0  0  0  0  0  0  0  0
    3.0997    1.2392   13.2138 C   0  0  0  0  0  0  0  0  0  0  0  0
    4.4085    1.2886   13.6971 C   0  0  0  0  0  0  0  0  0  0  0  0
    4.7393    0.4966   14.7557 N   0  0  0  0  0  0  0  0  0  0  0  0
    5.8912    0.3843   15.4874 C   0  0  0  0  0  0  0  0  0  0  0  0
    5.6000   -0.5403   16.4969 C   0  0  0  0  0  0  0  0  0  0  0  0
    4.3900   -1.0499   16.3863 N   0  0  0  0  0  0  0  0  0  0  0  0
    3.8285   -0.3910   15.3363 C   0  0  0  0  0  0  0  0  0  0  0  0
    2.6272    2.1508   12.1213 C   0  0  0  0  0  0  0  0  0  0  0  0
    3.5370    2.6346   11.1631 C   0  0  0  0  0  0  0  0  0  0  0  0
    3.1492    3.4622   10.1085 C   0  0  0  0  0  0  0  0  0  0  0  0
    1.8011    3.8208   10.0156 C   0  0  0  0  0  0  0  0  0  0  0  0
    0.9990    4.5979    9.1271 C   0  0  0  0  0  0  0  0  0  0  0  0
   -0.2497    4.6170    9.5128 N   0  0  0  0  0  0  0  0  0  0  0  0
   -0.3315    3.8838   10.6343 N   0  0  0  0  0  0  0  0  0  0  0  0
    0.8874    3.3527   10.9946 C   0  0  0  0  0  0  0  0  0  0  0  0
    1.2729    2.5247   12.0514 C   0  0  0  0  0  0  0  0  0  0  0  0
   -0.3672   -2.5916   15.8262 C   0  0  0  0  0  0  0  0  0  0  0  0
   -1.7168   -2.8552   15.6739 C   0  0  0  0  0  0  0  0  0  0  0  0
   -5.1681   -4.7705   16.8844 H   0  0  0  0  0  0  0  0  0  0  0  0
   -6.8064   -4.0390   16.9683 H   0  0  0  0  0  0  0  0  0  0  0  0
   -6.4606   -5.3323   15.7707 H   0  0  0  0  0  0  0  0  0  0  0  0
   -6.4580   -2.3321   13.8786 H   0  0  0  0  0  0  0  0  0  0  0  0
   -5.3055   -1.2992   15.8742 H   0  0  0  0  0  0  0  0  0  0  0  0
   -4.3393   -2.4837   16.8177 H   0  0  0  0  0  0  0  0  0  0  0  0
   -3.7836   -4.5587   14.8924 H   0  0  0  0  0  0  0  0  0  0  0  0
   -4.5919   -3.9613   13.4036 H   0  0  0  0  0  0  0  0  0  0  0  0
   -2.4902   -0.4931   13.3553 H   0  0  0  0  0  0  0  0  0  0  0  0
   -0.0718   -0.0199   13.6204 H   0  0  0  0  0  0  0  0  0  0  0  0
    5.0730    1.0132   12.8649 H   0  0  0  0  0  0  0  0  0  0  0  0
    4.6060    2.3289   13.9951 H   0  0  0  0  0  0  0  0  0  0  0  0
    6.8256    0.8996   15.3209 H   0  0  0  0  0  0  0  0  0  0  0  0
    6.2923   -0.8072   17.2817 H   0  0  0  0  0  0  0  0  0  0  0  0
    4.5766    2.3543   11.2471 H   0  0  0  0  0  0  0  0  0  0  0  0
    3.7299    4.3927   10.1927 H   0  0  0  0  0  0  0  0  0  0  0  0
    3.4155    2.9470    9.1738 H   0  0  0  0  0  0  0  0  0  0  0  0
    1.3748    5.1042    8.2503 H   0  0  0  0  0  0  0  0  0  0  0  0
    0.5586    2.1846   12.7866 H   0  0  0  0  0  0  0  0  0  0  0  0
    0.2235   -3.1840   16.5093 H   0  0  0  0  0  0  0  0  0  0  0  0
   -2.1807   -3.6478   16.2422 H   0  0  0  0  0  0  0  0  0  0  0  0
  1  2  1  0  0  0  0
  2  3  1  0  0  0  0
  2  4  1  0  0  0  0
  2  6  1  0  0  0  0
  4  5  1  0  0  0  0
  5  6  1  0  0  0  0
  5  7  1  0  0  0  0
  7  8  2  0  0  0  0
  7 31  1  0  0  0  0
  8  9  1  0  0  0  0
  9 10  2  0  0  0  0
 10 11  1  0  0  0  0
 10 30  1  0  0  0  0
 11 12  2  0  0  0  0
 12 13  1  0  0  0  0
 12 20  1  0  0  0  0
 13 14  2  0  0  0  0
 14 15  1  0  0  0  0
 14 21  1  0  0  0  0
 15 16  1  0  0  0  0
 16 17  1  0  0  0  0
 16 20  1  0  0  0  0
 17 18  2  0  0  0  0
 18 19  1  0  0  0  0
 19 20  2  0  0  0  0
 21 22  2  0  0  0  0
 21 29  1  0  0  0  0
 22 23  1  0  0  0  0
 23 24  1  0  0  0  0
 24 25  2  0  0  0  0
 24 28  1  0  0  0  0
 25 26  1  0  0  0  0
 26 27  2  0  0  0  0
 27 28  1  0  0  0  0
 28 29  2  0  0  0  0
 30 31  2  0  0  0  0
  1 32  1  0  0  0  0
  1 33  1  0  0  0  0
  1 34  1  0  0  0  0
  3 35  1  0  0  0  0
  4 36  1  0  0  0  0
  4 37  1  0  0  0  0
  6 38  1  0  0  0  0
  6 39  1  0  0  0  0
  8 40  1  0  0  0  0
  9 41  1  0  0  0  0
 15 42  1  0  0  0  0
 15 43  1  0  0  0  0
 17 44  1  0  0  0  0
 18 45  1  0  0  0  0
 22 46  1  0  0  0  0
 23 47  1  0  0  0  0
 23 48  1  0  0  0  0
 25 49  1  0  0  0  0
 29 50  1  0  0  0  0
 30 51  1  0  0  0  0
 31 52  1  0  0  0  0
M  END
> <IC50[nM]>
3.9

$$$$
CHEMBL3265030_n
  -OEChem-05192314333D
 Structure written by MMmdl.
 52 57  0     0  0  0  0  0  0999 V2000
   -6.0443   -4.4602   16.2962 C   0  0  0  0  0  0  0  0  0  0  0  0
   -5.6240   -3.4001   15.2728 C   0  0  0  0  0  0  0  0  0  0  0  0
   -6.7329   -2.9884   14.5080 O   0  0  0  0  0  0  0  0  0  0  0  0
   -4.7833   -2.2666   15.8350 C   0  0  0  0  0  0  0  0  0  0  0  0
   -3.8370   -2.3937   14.7064 N   0  0  0  0  0  0  0  0  0  0  0  0
   -4.3873   -3.7457   14.4627 C   0  0  0  0  0  0  0  0  0  0  0  0
   -2.4739   -2.0989   14.7890 C   0  0  0  0  0  0  0  0  0  0  0  0
   -1.8935   -1.0737   14.0433 C   0  0  0  0  0  0  0  0  0  0  0  0
   -0.5352   -0.8073   14.1963 C   0  0  0  0  0  0  0  0  0  0  0  0
    0.2332   -1.5617   15.0991 C   0  0  0  0  0  0  0  0  0  0  0  0
    1.5948   -1.3216   15.3436 N   0  0  0  0  0  0  0  0  0  0  0  0
    2.5323   -0.4320   14.7835 C   0  0  0  0  0  0  0  0  0  0  0  0
    2.1832    0.3856   13.7527 N   0  0  0  0  0  0  0  0  0  0  0  0
    3.0997    1.2392   13.2138 C   0  0  0  0  0  0  0  0  0  0  0  0
    4.4085    1.2886   13.6971 C   0  0  0  0  0  0  0  0  0  0  0  0
    4.7393    0.4966   14.7557 N   0  0  0  0  0  0  0  0  0  0  0  0
    5.8912    0.3843   15.4874 C   0  0  0  0  0  0  0  0  0  0  0  0
    5.6000   -0.5403   16.4969 C   0  0  0  0  0  0  0  0  0  0  0  0
    4.3900   -1.0499   16.3863 N   0  0  0  0  0  0  0  0  0  0  0  0
    3.8285   -0.3910   15.3363 C   0  0  0  0  0  0  0  0  0  0  0  0
    2.6272    2.1508   12.1213 C   0  0  0  0  0  0  0  0  0  0  0  0
    3.5370    2.6346   11.1631 C   0  0  0  0  0  0  0  0  0  0  0  0
    3.1492    3.4622   10.1085 C   0  0  0  0  0  0  0  0  0  0  0  0
    1.8011    3.8208   10.0156 C   0  0  0  0  0  0  0  0  0  0  0  0
    0.9990    4.5979    9.1271 C   0  0  0  0  0  0  0  0  0  0  0  0
   -0.2497    4.6170    9.5128 N   0  0  0  0  0  0  0  0  0  0  0  0
   -0.3315    3.8838   10.6343 N   0  0  0  0  0  0  0  0  0  0  0  0
    0.8874    3.3527   10.9946 C   0  0  0  0  0  0  0  0  0  0  0  0
    1.2729    2.5247   12.0514 C   0  0  0  0  0  0  0  0  0  0  0  0
   -0.3672   -2.5916   15.8262 C   0  0  0  0  0  0  0  0  0  0  0  0
   -1.7168   -2.8552   15.6739 C   0  0  0  0  0  0  0  0  0  0  0  0
   -5.1681   -4.7705   16.8844 H   0  0  0  0  0  0  0  0  0  0  0  0
   -6.8064   -4.0390   16.9683 H   0  0  0  0  0  0  0  0  0  0  0  0
   -6.4606   -5.3323   15.7707 H   0  0  0  0  0  0  0  0  0  0  0  0
   -6.4580   -2.3321   13.8786 H   0  0  0  0  0  0  0  0  0  0  0  0
   -5.3055   -1.2992   15.8742 H   0  0  0  0  0  0  0  0  0  0  0  0
   -4.3393   -2.4837   16.8177 H   0  0  0  0  0  0  0  0  0  0  0  0
   -3.7836   -4.5587   14.8924 H   0  0  0  0  0  0  0  0  0  0  0  0
   -4.5919   -3.9613   13.4036 H   0  0  0  0  0  0  0  0  0  0  0  0
   -2.2620   -2.8162   13.9824 H   0  0  0  0  0  0  0  0  0  0  0  0
   -2.4902   -0.4931   13.3553 H   0  0  0  0  0  0  0  0  0  0  0  0
   -0.0718   -0.0199   13.6204 H   0  0  0  0  0  0  0  0  0  0  0  0
    5.0730    1.0132   12.8649 H   0  0  0  0  0  0  0  0  0  0  0  0
    4.6060    2.3289   13.9951 H   0  0  0  0  0  0  0  0  0  0  0  0
    6.8256    0.8996   15.3209 H   0  0  0  0  0  0  0  0  0  0  0  0
    6.2923   -0.8072   17.2817 H   0  0  0  0  0  0  0  0  0  0  0  0
    4.5766    2.3543   11.2471 H   0  0  0  0  0  0  0  0  0  0  0  0
    3.8694    3.8153    9.3853 H   0  0  0  0  0  0  0  0  0  0  0  0
    1.3748    5.1042    8.2503 H   0  0  0  0  0  0  0  0  0  0  0  0
    0.5586    2.1846   12.7866 H   0  0  0  0  0  0  0  0  0  0  0  0
    0.2235   -3.1840   16.5093 H   0  0  0  0  0  0  0  0  0  0  0  0
   -2.1807   -3.6478   16.2422 H   0  0  0  0  0  0  0  0  0  0  0  0
  1  2  1  0  0  0  0
  2  3  1  0  0  0  0
  2  4  1  0  0  0  0
  2  6  1  0  0  0  0
  4  5  1  0  0  0  0
  5  6  1  0  0  0  0
  5  7  1  0  0  0  0
  7  8  1  0  0  0  0
  7 31  1  0  0  0  0
  8  9  2  0  0  0  0
  9 10  1  0  0  0  0
 10 11  2  0  0  0  0
 10 30  1  0  0  0  0
 11 12  1  0  0  0  0
 12 13  2  0  0  0  0
 12 20  1  0  0  0  0
 13 14  1  0  0  0  0
 14 15  1  0  0  0  0
 14 21  2  0  0  0  0
 15 16  1  0  0  0  0
 16 17  1  0  0  0  0
 16 20  1  0  0  0  0
 17 18  2  0  0  0  0
 18 19  1  0  0  0  0
 19 20  2  0  0  0  0
 21 22  1  0  0  0  0
 21 29  1  0  0  0  0
 22 23  2  0  0  0  0
 23 24  1  0  0  0  0
 24 25  2  0  0  0  0
 24 28  1  0  0  0  0
 25 26  1  0  0  0  0
 26 27  2  0  0  0  0
 27 28  1  0  0  0  0
 28 29  2  0  0  0  0
 30 31  2  0  0  0  0
  1 32  1  0  0  0  0
  1 33  1  0  0  0  0
  1 34  1  0  0  0  0
  3 35  1  0  0  0  0
  4 36  1  0  0  0  0
  4 37  1  0  0  0  0
  6 38  1  0  0  0  0
  6 39  1  0  0  0  0
  7 40  1  0  0  0  0
  8 41  1  0  0  0  0
  9 42  1  0  0  0  0
 15 43  1  0  0  0  0
 15 44  1  0  0  0  0
 17 45  1  0  0  0  0
 18 46  1  0  0  0  0
 22 47  1  0  0  0  0
 23 48  1  0  0  0  0
 25 49  1  0  0  0  0
 29 50  1  0  0  0  0
 30 51  1  0  0  0  0
 31 52  1  0  0  0  0
M  END
> <IC50[nM]>
3.9

$$$$
CHEMBL3265030_n
  -OEChem-05192314333D
 Structure written by MMmdl.
 52 57  0     0  0  0  0  0  0999 V2000
   -6.0443   -4.4602   16.2962 C   0  0  0  0  0  0  0  0  0  0  0  0
   -5.6240   -3.4001   15.2728 C   0  0  0  0  0  0  0  0  0  0  0  0
   -6.7329   -2.9884   14.5080 O   0  0  0  0  0  0  0  0  0  0  0  0
   -4.7833   -2.2666   15.8350 C   0  0  0  0  0  0  0  0  0  0  0  0
   -3.8370   -2.3937   14.7064 N   0  0  0  0  0  0  0  0  0  0  0  0
   -4.3873   -3.7457   14.4627 C   0  0  0  0  0  0  0  0  0  0  0  0
   -2.4739   -2.0989   14.7890 C   0  0  0  0  0  0  0  0  0  0  0  0
   -1.8935   -1.0737   14.0433 C   0  0  0  0  0  0  0  0  0  0  0  0
   -0.5352   -0.8073   14.1963 C   0  0  0  0  0  0  0  0  0  0  0  0
    0.2332   -1.5617   15.0991 C   0  0  0  0  0  0  0  0  0  0  0  0
    1.5948   -1.3216   15.3436 N   0  0  0  0  0  0  0  0  0  0  0  0
    2.5323   -0.4320   14.7835 C   0  0  0  0  0  0  0  0  0  0  0  0
    2.1832    0.3856   13.7527 N   0  0  0  0  0  0  0  0  0  0  0  0
    3.0997    1.2392   13.2138 C   0  0  0  0  0  0  0  0  0  0  0  0
    4.4085    1.2886   13.6971 C   0  0  0  0  0  0  0  0  0  0  0  0
    4.7393    0.4966   14.7557 N   0  0  0  0  0  0  0  0  0  0  0  0
    5.8912    0.3843   15.4874 C   0  0  0  0  0  0  0  0  0  0  0  0
    5.6000   -0.5403   16.4969 C   0  0  0  0  0  0  0  0  0  0  0  0
    4.3900   -1.0499   16.3863 N   0  0  0  0  0  0  0  0  0  0  0  0
    3.8285   -0.3910   15.3363 C   0  0  0  0  0  0  0  0  0  0  0  0
    2.6272    2.1508   12.1213 C   0  0  0  0  0  0  0  0  0  0  0  0
    3.5370    2.6346   11.1631 C   0  0  0  0  0  0  0  0  0  0  0  0
    3.1492    3.4622   10.1085 C   0  0  0  0  0  0  0  0  0  0  0  0
    1.8011    3.8208   10.0156 C   0  0  0  0  0  0  0  0  0  0  0  0
    0.9990    4.5979    9.1271 C   0  0  0  0  0  0  0  0  0  0  0  0
   -0.2497    4.6170    9.5128 N   0  0  0  0  0  0  0  0  0  0  0  0
   -0.3315    3.8838   10.6343 N   0  0  0  0  0  0  0  0  0  0  0  0
    0.8874    3.3527   10.9946 C   0  0  0  0  0  0  0  0  0  0  0  0
    1.2729    2.5247   12.0514 C   0  0  0  0  0  0  0  0  0  0  0  0
   -0.3672   -2.5916   15.8262 C   0  0  0  0  0  0  0  0  0  0  0  0
   -1.7168   -2.8552   15.6739 C   0  0  0  0  0  0  0  0  0  0  0  0
   -5.1681   -4.7705   16.8844 H   0  0  0  0  0  0  0  0  0  0  0  0
   -6.8064   -4.0390   16.9683 H   0  0  0  0  0  0  0  0  0  0  0  0
   -6.4606   -5.3323   15.7707 H   0  0  0  0  0  0  0  0  0  0  0  0
   -6.4580   -2.3321   13.8786 H   0  0  0  0  0  0  0  0  0  0  0  0
   -5.3055   -1.2992   15.8742 H   0  0  0  0  0  0  0  0  0  0  0  0
   -4.3393   -2.4837   16.8177 H   0  0  0  0  0  0  0  0  0  0  0  0
   -3.7836   -4.5587   14.8924 H   0  0  0  0  0  0  0  0  0  0  0  0
   -4.5919   -3.9613   13.4036 H   0  0  0  0  0  0  0  0  0  0  0  0
   -2.4902   -0.4931   13.3553 H   0  0  0  0  0  0  0  0  0  0  0  0
   -0.0718   -0.0199   13.6204 H   0  0  0  0  0  0  0  0  0  0  0  0
    5.0730    1.0132   12.8649 H   0  0  0  0  0  0  0  0  0  0  0  0
    4.6060    2.3289   13.9951 H   0  0  0  0  0  0  0  0  0  0  0  0
    6.8256    0.8996   15.3209 H   0  0  0  0  0  0  0  0  0  0  0  0
    6.2923   -0.8072   17.2817 H   0  0  0  0  0  0  0  0  0  0  0  0
    4.5766    2.3543   11.2471 H   0  0  0  0  0  0  0  0  0  0  0  0
    3.8694    3.8153    9.3853 H   0  0  0  0  0  0  0  0  0  0  0  0
    1.3748    5.1042    8.2503 H   0  0  0  0  0  0  0  0  0  0  0  0
    0.5586    2.1846   12.7866 H   0  0  0  0  0  0  0  0  0  0  0  0
    0.1676   -3.5168   15.5655 H   0  0  0  0  0  0  0  0  0  0  0  0
   -0.2073   -2.3630   16.8902 H   0  0  0  0  0  0  0  0  0  0  0  0
   -2.1807   -3.6478   16.2422 H   0  0  0  0  0  0  0  0  0  0  0  0
  1  2  1  0  0  0  0
  2  3  1  0  0  0  0
  2  4  1  0  0  0  0
  2  6  1  0  0  0  0
  4  5  1  0  0  0  0
  5  6  1  0  0  0  0
  5  7  1  0  0  0  0
  7  8  1  0  0  0  0
  7 31  2  0  0  0  0
  8  9  2  0  0  0  0
  9 10  1  0  0  0  0
 10 11  2  0  0  0  0
 10 30  1  0  0  0  0
 11 12  1  0  0  0  0
 12 13  2  0  0  0  0
 12 20  1  0  0  0  0
 13 14  1  0  0  0  0
 14 15  1  0  0  0  0
 14 21  2  0  0  0  0
 15 16  1  0  0  0  0
 16 17  1  0  0  0  0
 16 20  1  0  0  0  0
 17 18  2  0  0  0  0
 18 19  1  0  0  0  0
 19 20  2  0  0  0  0
 21 22  1  0  0  0  0
 21 29  1  0  0  0  0
 22 23  2  0  0  0  0
 23 24  1  0  0  0  0
 24 25  2  0  0  0  0
 24 28  1  0  0  0  0
 25 26  1  0  0  0  0
 26 27  2  0  0  0  0
 27 28  1  0  0  0  0
 28 29  2  0  0  0  0
 30 31  1  0  0  0  0
  1 32  1  0  0  0  0
  1 33  1  0  0  0  0
  1 34  1  0  0  0  0
  3 35  1  0  0  0  0
  4 36  1  0  0  0  0
  4 37  1  0  0  0  0
  6 38  1  0  0  0  0
  6 39  1  0  0  0  0
  8 40  1  0  0  0  0
  9 41  1  0  0  0  0
 15 42  1  0  0  0  0
 15 43  1  0  0  0  0
 17 44  1  0  0  0  0
 18 45  1  0  0  0  0
 22 46  1  0  0  0  0
 23 47  1  0  0  0  0
 25 48  1  0  0  0  0
 29 49  1  0  0  0  0
 30 50  1  0  0  0  0
 30 51  1  0  0  0  0
 31 52  1  0  0  0  0
M  END
> <IC50[nM]>
3.9

$$$$
CHEMBL3265030_n
  -OEChem-05192314333D
 Structure written by MMmdl.
 52 57  0     1  0  0  0  0  0999 V2000
   -6.0443   -4.4602   16.2962 C   0  0  0  0  0  0  0  0  0  0  0  0
   -5.6240   -3.4001   15.2728 C   0  0  0  0  0  0  0  0  0  0  0  0
   -6.7329   -2.9884   14.5080 O   0  0  0  0  0  0  0  0  0  0  0  0
   -4.7833   -2.2666   15.8350 C   0  0  0  0  0  0  0  0  0  0  0  0
   -3.8370   -2.3937   14.7064 N   0  0  0  0  0  0  0  0  0  0  0  0
   -4.3873   -3.7457   14.4627 C   0  0  0  0  0  0  0  0  0  0  0  0
   -2.4739   -2.0989   14.7890 C   0  0  0  0  0  0  0  0  0  0  0  0
   -1.8935   -1.0737   14.0433 C   0  0  0  0  0  0  0  0  0  0  0  0
   -0.5352   -0.8073   14.1963 C   0  0  0  0  0  0  0  0  0  0  0  0
    0.2332   -1.5617   15.0991 C   0  0  0  0  0  0  0  0  0  0  0  0
    1.5948   -1.3216   15.3436 N   0  0  0  0  0  0  0  0  0  0  0  0
    2.5323   -0.4320   14.7835 C   0  0  0  0  0  0  0  0  0  0  0  0
    2.1832    0.3856   13.7527 N   0  0  0  0  0  0  0  0  0  0  0  0
    3.0997    1.2392   13.2138 C   0  0  0  0  0  0  0  0  0  0  0  0
    4.4085    1.2886   13.6971 C   0  0  0  0  0  0  0  0  0  0  0  0
    4.7393    0.4966   14.7557 N   0  0  0  0  0  0  0  0  0  0  0  0
    5.8912    0.3843   15.4874 C   0  0  0  0  0  0  0  0  0  0  0  0
    5.6000   -0.5403   16.4969 C   0  0  0  0  0  0  0  0  0  0  0  0
    4.3900   -1.0499   16.3863 N   0  0  0  0  0  0  0  0  0  0  0  0
    3.8285   -0.3910   15.3363 C   0  0  0  0  0  0  0  0  0  0  0  0
    2.6272    2.1508   12.1213 C   0  0  0  0  0  0  0  0  0  0  0  0
    3.5370    2.6346   11.1631 C   0  0  0  0  0  0  0  0  0  0  0  0
    3.1492    3.4622   10.1085 C   0  0  0  0  0  0  0  0  0  0  0  0
    1.8011    3.8208   10.0156 C   0  0  3  0  0  0  0  0  0  0  0  0
    0.9990    4.5979    9.1271 C   0  0  0  0  0  0  0  0  0  0  0  0
   -0.2497    4.6170    9.5128 N   0  0  0  0  0  0  0  0  0  0  0  0
   -0.3315    3.8838   10.6343 N   0  0  0  0  0  0  0  0  0  0  0  0
    0.8874    3.3527   10.9946 C   0  0  0  0  0  0  0  0  0  0  0  0
    1.2729    2.5247   12.0514 C   0  0  0  0  0  0  0  0  0  0  0  0
   -0.3672   -2.5916   15.8262 C   0  0  0  0  0  0  0  0  0  0  0  0
   -1.7168   -2.8552   15.6739 C   0  0  0  0  0  0  0  0  0  0  0  0
   -5.1681   -4.7705   16.8844 H   0  0  0  0  0  0  0  0  0  0  0  0
   -6.8064   -4.0390   16.9683 H   0  0  0  0  0  0  0  0  0  0  0  0
   -6.4606   -5.3323   15.7707 H   0  0  0  0  0  0  0  0  0  0  0  0
   -6.4580   -2.3321   13.8786 H   0  0  0  0  0  0  0  0  0  0  0  0
   -5.3055   -1.2992   15.8742 H   0  0  0  0  0  0  0  0  0  0  0  0
   -4.3393   -2.4837   16.8177 H   0  0  0  0  0  0  0  0  0  0  0  0
   -3.7836   -4.5587   14.8924 H   0  0  0  0  0  0  0  0  0  0  0  0
   -4.5919   -3.9613   13.4036 H   0  0  0  0  0  0  0  0  0  0  0  0
   -2.2620   -2.8162   13.9824 H   0  0  0  0  0  0  0  0  0  0  0  0
   -2.4902   -0.4931   13.3553 H   0  0  0  0  0  0  0  0  0  0  0  0
   -0.0718   -0.0199   13.6204 H   0  0  0  0  0  0  0  0  0  0  0  0
    5.1414    1.9390   13.2429 H   0  0  0  0  0  0  0  0  0  0  0  0
    6.8256    0.8996   15.3209 H   0  0  0  0  0  0  0  0  0  0  0  0
    6.2923   -0.8072   17.2817 H   0  0  0  0  0  0  0  0  0  0  0  0
    4.5766    2.3543   11.2471 H   0  0  0  0  0  0  0  0  0  0  0  0
    3.8694    3.8153    9.3853 H   0  0  0  0  0  0  0  0  0  0  0  0
    1.9962    4.7161   10.6242 H   0  0  0  0  0  0  0  0  0  0  0  0
    1.3748    5.1042    8.2503 H   0  0  0  0  0  0  0  0  0  0  0  0
    0.5586    2.1846   12.7866 H   0  0  0  0  0  0  0  0  0  0  0  0
    0.2235   -3.1840   16.5093 H   0  0  0  0  0  0  0  0  0  0  0  0
   -2.1807   -3.6478   16.2422 H   0  0  0  0  0  0  0  0  0  0  0  0
  1  2  1  0  0  0  0
  2  3  1  0  0  0  0
  2  4  1  0  0  0  0
  2  6  1  0  0  0  0
  4  5  1  0  0  0  0
  5  6  1  0  0  0  0
  5  7  1  0  0  0  0
  7  8  1  0  0  0  0
  7 31  1  0  0  0  0
  8  9  2  0  0  0  0
  9 10  1  0  0  0  0
 10 11  2  0  0  0  0
 10 30  1  0  0  0  0
 11 12  1  0  0  0  0
 12 13  2  0  0  0  0
 12 20  1  0  0  0  0
 13 14  1  0  0  0  0
 14 15  2  0  0  0  0
 14 21  1  0  0  0  0
 15 16  1  0  0  0  0
 16 17  1  0  0  0  0
 16 20  1  0  0  0  0
 17 18  2  0  0  0  0
 18 19  1  0  0  0  0
 19 20  2  0  0  0  0
 21 22  1  0  0  0  0
 21 29  2  0  0  0  0
 22 23  2  0  0  0  0
 23 24  1  0  0  0  0
 24 25  1  0  0  0  0
 24 28  1  0  0  0  0
 25 26  2  0  0  0  0
 26 27  1  0  0  0  0
 27 28  2  0  0  0  0
 28 29  1  0  0  0  0
 30 31  2  0  0  0  0
  1 32  1  0  0  0  0
  1 33  1  0  0  0  0
  1 34  1  0  0  0  0
  3 35  1  0  0  0  0
  4 36  1  0  0  0  0
  4 37  1  0  0  0  0
  6 38  1  0  0  0  0
  6 39  1  0  0  0  0
  7 40  1  0  0  0  0
  8 41  1  0  0  0  0
  9 42  1  0  0  0  0
 15 43  1  0  0  0  0
 17 44  1  0  0  0  0
 18 45  1  0  0  0  0
 22 46  1  0  0  0  0
 23 47  1  0  0  0  0
 24 48  1  0  0  0  0
 25 49  1  0  0  0  0
 29 50  1  0  0  0  0
 30 51  1  0  0  0  0
 31 52  1  0  0  0  0
M  END
> <IC50[nM]>
3.9

$$$$
CHEMBL3265030_n
  -OEChem-05192314333D
 Structure written by MMmdl.
 52 57  0     1  0  0  0  0  0999 V2000
   -6.0443   -4.4602   16.2962 C   0  0  0  0  0  0  0  0  0  0  0  0
   -5.6240   -3.4001   15.2728 C   0  0  0  0  0  0  0  0  0  0  0  0
   -6.7329   -2.9884   14.5080 O   0  0  0  0  0  0  0  0  0  0  0  0
   -4.7833   -2.2666   15.8350 C   0  0  0  0  0  0  0  0  0  0  0  0
   -3.8370   -2.3937   14.7064 N   0  0  0  0  0  0  0  0  0  0  0  0
   -4.3873   -3.7457   14.4627 C   0  0  0  0  0  0  0  0  0  0  0  0
   -2.4739   -2.0989   14.7890 C   0  0  0  0  0  0  0  0  0  0  0  0
   -1.8935   -1.0737   14.0433 C   0  0  0  0  0  0  0  0  0  0  0  0
   -0.5352   -0.8073   14.1963 C   0  0  0  0  0  0  0  0  0  0  0  0
    0.2332   -1.5617   15.0991 C   0  0  0  0  0  0  0  0  0  0  0  0
    1.5948   -1.3216   15.3436 N   0  0  0  0  0  0  0  0  0  0  0  0
    2.5323   -0.4320   14.7835 C   0  0  0  0  0  0  0  0  0  0  0  0
    2.1832    0.3856   13.7527 N   0  0  0  0  0  0  0  0  0  0  0  0
    3.0997    1.2392   13.2138 C   0  0  0  0  0  0  0  0  0  0  0  0
    4.4085    1.2886   13.6971 C   0  0  0  0  0  0  0  0  0  0  0  0
    4.7393    0.4966   14.7557 N   0  0  0  0  0  0  0  0  0  0  0  0
    5.8912    0.3843   15.4874 C   0  0  0  0  0  0  0  0  0  0  0  0
    5.6000   -0.5403   16.4969 C   0  0  0  0  0  0  0  0  0  0  0  0
    4.3900   -1.0499   16.3863 N   0  0  0  0  0  0  0  0  0  0  0  0
    3.8285   -0.3910   15.3363 C   0  0  0  0  0  0  0  0  0  0  0  0
    2.6272    2.1508   12.1213 C   0  0  0  0  0  0  0  0  0  0  0  0
    3.5370    2.6346   11.1631 C   0  0  0  0  0  0  0  0  0  0  0  0
    3.1492    3.4622   10.1085 C   0  0  0  0  0  0  0  0  0  0  0  0
    1.8011    3.8208   10.0156 C   0  0  3  0  0  0  0  0  0  0  0  0
    0.9990    4.5979    9.1271 C   0  0  0  0  0  0  0  0  0  0  0  0
   -0.2497    4.6170    9.5128 N   0  0  0  0  0  0  0  0  0  0  0  0
   -0.3315    3.8838   10.6343 N   0  0  0  0  0  0  0  0  0  0  0  0
    0.8874    3.3527   10.9946 C   0  0  0  0  0  0  0  0  0  0  0  0
    1.2729    2.5247   12.0514 C   0  0  0  0  0  0  0  0  0  0  0  0
   -0.3672   -2.5916   15.8262 C   0  0  0  0  0  0  0  0  0  0  0  0
   -1.7168   -2.8552   15.6739 C   0  0  0  0  0  0  0  0  0  0  0  0
   -5.1681   -4.7705   16.8844 H   0  0  0  0  0  0  0  0  0  0  0  0
   -6.8064   -4.0390   16.9683 H   0  0  0  0  0  0  0  0  0  0  0  0
   -6.4606   -5.3323   15.7707 H   0  0  0  0  0  0  0  0  0  0  0  0
   -6.4580   -2.3321   13.8786 H   0  0  0  0  0  0  0  0  0  0  0  0
   -5.3055   -1.2992   15.8742 H   0  0  0  0  0  0  0  0  0  0  0  0
   -4.3393   -2.4837   16.8177 H   0  0  0  0  0  0  0  0  0  0  0  0
   -3.7836   -4.5587   14.8924 H   0  0  0  0  0  0  0  0  0  0  0  0
   -4.5919   -3.9613   13.4036 H   0  0  0  0  0  0  0  0  0  0  0  0
   -2.4902   -0.4931   13.3553 H   0  0  0  0  0  0  0  0  0  0  0  0
   -0.0718   -0.0199   13.6204 H   0  0  0  0  0  0  0  0  0  0  0  0
    5.1414    1.9390   13.2429 H   0  0  0  0  0  0  0  0  0  0  0  0
    6.8256    0.8996   15.3209 H   0  0  0  0  0  0  0  0  0  0  0  0
    6.2923   -0.8072   17.2817 H   0  0  0  0  0  0  0  0  0  0  0  0
    4.5766    2.3543   11.2471 H   0  0  0  0  0  0  0  0  0  0  0  0
    3.8694    3.8153    9.3853 H   0  0  0  0  0  0  0  0  0  0  0  0
    1.9962    4.7161   10.6242 H   0  0  0  0  0  0  0  0  0  0  0  0
    1.3748    5.1042    8.2503 H   0  0  0  0  0  0  0  0  0  0  0  0
    0.5586    2.1846   12.7866 H   0  0  0  0  0  0  0  0  0  0  0  0
    0.1676   -3.5168   15.5655 H   0  0  0  0  0  0  0  0  0  0  0  0
   -0.2073   -2.3630   16.8902 H   0  0  0  0  0  0  0  0  0  0  0  0
   -2.1807   -3.6478   16.2422 H   0  0  0  0  0  0  0  0  0  0  0  0
  1  2  1  0  0  0  0
  2  3  1  0  0  0  0
  2  4  1  0  0  0  0
  2  6  1  0  0  0  0
  4  5  1  0  0  0  0
  5  6  1  0  0  0  0
  5  7  1  0  0  0  0
  7  8  1  0  0  0  0
  7 31  2  0  0  0  0
  8  9  2  0  0  0  0
  9 10  1  0  0  0  0
 10 11  2  0  0  0  0
 10 30  1  0  0  0  0
 11 12  1  0  0  0  0
 12 13  2  0  0  0  0
 12 20  1  0  0  0  0
 13 14  1  0  0  0  0
 14 15  2  0  0  0  0
 14 21  1  0  0  0  0
 15 16  1  0  0  0  0
 16 17  1  0  0  0  0
 16 20  1  0  0  0  0
 17 18  2  0  0  0  0
 18 19  1  0  0  0  0
 19 20  2  0  0  0  0
 21 22  1  0  0  0  0
 21 29  2  0  0  0  0
 22 23  2  0  0  0  0
 23 24  1  0  0  0  0
 24 25  1  0  0  0  0
 24 28  1  0  0  0  0
 25 26  2  0  0  0  0
 26 27  1  0  0  0  0
 27 28  2  0  0  0  0
 28 29  1  0  0  0  0
 30 31  1  0  0  0  0
  1 32  1  0  0  0  0
  1 33  1  0  0  0  0
  1 34  1  0  0  0  0
  3 35  1  0  0  0  0
  4 36  1  0  0  0  0
  4 37  1  0  0  0  0
  6 38  1  0  0  0  0
  6 39  1  0  0  0  0
  8 40  1  0  0  0  0
  9 41  1  0  0  0  0
 15 42  1  0  0  0  0
 17 43  1  0  0  0  0
 18 44  1  0  0  0  0
 22 45  1  0  0  0  0
 23 46  1  0  0  0  0
 24 47  1  0  0  0  0
 25 48  1  0  0  0  0
 29 49  1  0  0  0  0
 30 50  1  0  0  0  0
 30 51  1  0  0  0  0
 31 52  1  0  0  0  0
M  END
> <IC50[nM]>
3.9

$$$$
CHEMBL3265030_n
  -OEChem-05192314333D
 Structure written by MMmdl.
 52 57  0     0  0  0  0  0  0999 V2000
   -6.0443   -4.4602   16.2962 C   0  0  0  0  0  0  0  0  0  0  0  0
   -5.6240   -3.4001   15.2728 C   0  0  0  0  0  0  0  0  0  0  0  0
   -6.7329   -2.9884   14.5080 O   0  0  0  0  0  0  0  0  0  0  0  0
   -4.7833   -2.2666   15.8350 C   0  0  0  0  0  0  0  0  0  0  0  0
   -3.8370   -2.3937   14.7064 N   0  0  0  0  0  0  0  0  0  0  0  0
   -4.3873   -3.7457   14.4627 C   0  0  0  0  0  0  0  0  0  0  0  0
   -2.4739   -2.0989   14.7890 C   0  0  0  0  0  0  0  0  0  0  0  0
   -1.8935   -1.0737   14.0433 C   0  0  0  0  0  0  0  0  0  0  0  0
   -0.5352   -0.8073   14.1963 C   0  0  0  0  0  0  0  0  0  0  0  0
    0.2332   -1.5617   15.0991 C   0  0  0  0  0  0  0  0  0  0  0  0
    1.5948   -1.3216   15.3436 N   0  0  0  0  0  0  0  0  0  0  0  0
    2.5323   -0.4320   14.7835 C   0  0  0  0  0  0  0  0  0  0  0  0
    2.1832    0.3856   13.7527 N   0  0  0  0  0  0  0  0  0  0  0  0
    3.0997    1.2392   13.2138 C   0  0  0  0  0  0  0  0  0  0  0  0
    4.4085    1.2886   13.6971 C   0  0  0  0  0  0  0  0  0  0  0  0
    4.7393    0.4966   14.7557 N   0  0  0  0  0  0  0  0  0  0  0  0
    5.8912    0.3843   15.4874 C   0  0  0  0  0  0  0  0  0  0  0  0
    5.6000   -0.5403   16.4969 C   0  0  0  0  0  0  0  0  0  0  0  0
    4.3900   -1.0499   16.3863 N   0  0  0  0  0  0  0  0  0  0  0  0
    3.8285   -0.3910   15.3363 C   0  0  0  0  0  0  0  0  0  0  0  0
    2.6272    2.1508   12.1213 C   0  0  0  0  0  0  0  0  0  0  0  0
    3.5370    2.6346   11.1631 C   0  0  0  0  0  0  0  0  0  0  0  0
    3.1492    3.4622   10.1085 C   0  0  0  0  0  0  0  0  0  0  0  0
    1.8011    3.8208   10.0156 C   0  0  0  0  0  0  0  0  0  0  0  0
    0.9990    4.5979    9.1271 C   0  0  0  0  0  0  0  0  0  0  0  0
   -0.2497    4.6170    9.5128 N   0  0  0  0  0  0  0  0  0  0  0  0
   -0.3315    3.8838   10.6343 N   0  0  0  0  0  0  0  0  0  0  0  0
    0.8874    3.3527   10.9946 C   0  0  0  0  0  0  0  0  0  0  0  0
    1.2729    2.5247   12.0514 C   0  0  0  0  0  0  0  0  0  0  0  0
   -0.3672   -2.5916   15.8262 C   0  0  0  0  0  0  0  0  0  0  0  0
   -1.7168   -2.8552   15.6739 C   0  0  0  0  0  0  0  0  0  0  0  0
   -5.1681   -4.7705   16.8844 H   0  0  0  0  0  0  0  0  0  0  0  0
   -6.8064   -4.0390   16.9683 H   0  0  0  0  0  0  0  0  0  0  0  0
   -6.4606   -5.3323   15.7707 H   0  0  0  0  0  0  0  0  0  0  0  0
   -6.4580   -2.3321   13.8786 H   0  0  0  0  0  0  0  0  0  0  0  0
   -5.3055   -1.2992   15.8742 H   0  0  0  0  0  0  0  0  0  0  0  0
   -4.3393   -2.4837   16.8177 H   0  0  0  0  0  0  0  0  0  0  0  0
   -3.7836   -4.5587   14.8924 H   0  0  0  0  0  0  0  0  0  0  0  0
   -4.5919   -3.9613   13.4036 H   0  0  0  0  0  0  0  0  0  0  0  0
   -2.2620   -2.8162   13.9824 H   0  0  0  0  0  0  0  0  0  0  0  0
   -2.4902   -0.4931   13.3553 H   0  0  0  0  0  0  0  0  0  0  0  0
   -0.0718   -0.0199   13.6204 H   0  0  0  0  0  0  0  0  0  0  0  0
    5.1414    1.9390   13.2429 H   0  0  0  0  0  0  0  0  0  0  0  0
    6.8256    0.8996   15.3209 H   0  0  0  0  0  0  0  0  0  0  0  0
    6.2923   -0.8072   17.2817 H   0  0  0  0  0  0  0  0  0  0  0  0
    4.3019    3.1925   11.7232 H   0  0  0  0  0  0  0  0  0  0  0  0
    3.9948    1.7471   10.7018 H   0  0  0  0  0  0  0  0  0  0  0  0
    3.8694    3.8153    9.3853 H   0  0  0  0  0  0  0  0  0  0  0  0
    1.3748    5.1042    8.2503 H   0  0  0  0  0  0  0  0  0  0  0  0
    0.5586    2.1846   12.7866 H   0  0  0  0  0  0  0  0  0  0  0  0
    0.2235   -3.1840   16.5093 H   0  0  0  0  0  0  0  0  0  0  0  0
   -2.1807   -3.6478   16.2422 H   0  0  0  0  0  0  0  0  0  0  0  0
  1  2  1  0  0  0  0
  2  3  1  0  0  0  0
  2  4  1  0  0  0  0
  2  6  1  0  0  0  0
  4  5  1  0  0  0  0
  5  6  1  0  0  0  0
  5  7  1  0  0  0  0
  7  8  1  0  0  0  0
  7 31  1  0  0  0  0
  8  9  2  0  0  0  0
  9 10  1  0  0  0  0
 10 11  2  0  0  0  0
 10 30  1  0  0  0  0
 11 12  1  0  0  0  0
 12 13  2  0  0  0  0
 12 20  1  0  0  0  0
 13 14  1  0  0  0  0
 14 15  2  0  0  0  0
 14 21  1  0  0  0  0
 15 16  1  0  0  0  0
 16 17  1  0  0  0  0
 16 20  1  0  0  0  0
 17 18  2  0  0  0  0
 18 19  1  0  0  0  0
 19 20  2  0  0  0  0
 21 22  1  0  0  0  0
 21 29  2  0  0  0  0
 22 23  1  0  0  0  0
 23 24  2  0  0  0  0
 24 25  1  0  0  0  0
 24 28  1  0  0  0  0
 25 26  2  0  0  0  0
 26 27  1  0  0  0  0
 27 28  2  0  0  0  0
 28 29  1  0  0  0  0
 30 31  2  0  0  0  0
  1 32  1  0  0  0  0
  1 33  1  0  0  0  0
  1 34  1  0  0  0  0
  3 35  1  0  0  0  0
  4 36  1  0  0  0  0
  4 37  1  0  0  0  0
  6 38  1  0  0  0  0
  6 39  1  0  0  0  0
  7 40  1  0  0  0  0
  8 41  1  0  0  0  0
  9 42  1  0  0  0  0
 15 43  1  0  0  0  0
 17 44  1  0  0  0  0
 18 45  1  0  0  0  0
 22 46  1  0  0  0  0
 22 47  1  0  0  0  0
 23 48  1  0  0  0  0
 25 49  1  0  0  0  0
 29 50  1  0  0  0  0
 30 51  1  0  0  0  0
 31 52  1  0  0  0  0
M  END
> <IC50[nM]>
3.9

$$$$
CHEMBL3265030_n
  -OEChem-05192314333D
 Structure written by MMmdl.
 52 57  0     0  0  0  0  0  0999 V2000
   -6.0443   -4.4602   16.2962 C   0  0  0  0  0  0  0  0  0  0  0  0
   -5.6240   -3.4001   15.2728 C   0  0  0  0  0  0  0  0  0  0  0  0
   -6.7329   -2.9884   14.5080 O   0  0  0  0  0  0  0  0  0  0  0  0
   -4.7833   -2.2666   15.8350 C   0  0  0  0  0  0  0  0  0  0  0  0
   -3.8370   -2.3937   14.7064 N   0  0  0  0  0  0  0  0  0  0  0  0
   -4.3873   -3.7457   14.4627 C   0  0  0  0  0  0  0  0  0  0  0  0
   -2.4739   -2.0989   14.7890 C   0  0  0  0  0  0  0  0  0  0  0  0
   -1.8935   -1.0737   14.0433 C   0  0  0  0  0  0  0  0  0  0  0  0
   -0.5352   -0.8073   14.1963 C   0  0  0  0  0  0  0  0  0  0  0  0
    0.2332   -1.5617   15.0991 C   0  0  0  0  0  0  0  0  0  0  0  0
    1.5948   -1.3216   15.3436 N   0  0  0  0  0  0  0  0  0  0  0  0
    2.5323   -0.4320   14.7835 C   0  0  0  0  0  0  0  0  0  0  0  0
    2.1832    0.3856   13.7527 N   0  0  0  0  0  0  0  0  0  0  0  0
    3.0997    1.2392   13.2138 C   0  0  0  0  0  0  0  0  0  0  0  0
    4.4085    1.2886   13.6971 C   0  0  0  0  0  0  0  0  0  0  0  0
    4.7393    0.4966   14.7557 N   0  0  0  0  0  0  0  0  0  0  0  0
    5.8912    0.3843   15.4874 C   0  0  0  0  0  0  0  0  0  0  0  0
    5.6000   -0.5403   16.4969 C   0  0  0  0  0  0  0  0  0  0  0  0
    4.3900   -1.0499   16.3863 N   0  0  0  0  0  0  0  0  0  0  0  0
    3.8285   -0.3910   15.3363 C   0  0  0  0  0  0  0  0  0  0  0  0
    2.6272    2.1508   12.1213 C   0  0  0  0  0  0  0  0  0  0  0  0
    3.5370    2.6346   11.1631 C   0  0  0  0  0  0  0  0  0  0  0  0
    3.1492    3.4622   10.1085 C   0  0  0  0  0  0  0  0  0  0  0  0
    1.8011    3.8208   10.0156 C   0  0  0  0  0  0  0  0  0  0  0  0
    0.9990    4.5979    9.1271 C   0  0  0  0  0  0  0  0  0  0  0  0
   -0.2497    4.6170    9.5128 N   0  0  0  0  0  0  0  0  0  0  0  0
   -0.3315    3.8838   10.6343 N   0  0  0  0  0  0  0  0  0  0  0  0
    0.8874    3.3527   10.9946 C   0  0  0  0  0  0  0  0  0  0  0  0
    1.2729    2.5247   12.0514 C   0  0  0  0  0  0  0  0  0  0  0  0
   -0.3672   -2.5916   15.8262 C   0  0  0  0  0  0  0  0  0  0  0  0
   -1.7168   -2.8552   15.6739 C   0  0  0  0  0  0  0  0  0  0  0  0
   -5.1681   -4.7705   16.8844 H   0  0  0  0  0  0  0  0  0  0  0  0
   -6.8064   -4.0390   16.9683 H   0  0  0  0  0  0  0  0  0  0  0  0
   -6.4606   -5.3323   15.7707 H   0  0  0  0  0  0  0  0  0  0  0  0
   -6.4580   -2.3321   13.8786 H   0  0  0  0  0  0  0  0  0  0  0  0
   -5.3055   -1.2992   15.8742 H   0  0  0  0  0  0  0  0  0  0  0  0
   -4.3393   -2.4837   16.8177 H   0  0  0  0  0  0  0  0  0  0  0  0
   -3.7836   -4.5587   14.8924 H   0  0  0  0  0  0  0  0  0  0  0  0
   -4.5919   -3.9613   13.4036 H   0  0  0  0  0  0  0  0  0  0  0  0
   -2.4902   -0.4931   13.3553 H   0  0  0  0  0  0  0  0  0  0  0  0
   -0.0718   -0.0199   13.6204 H   0  0  0  0  0  0  0  0  0  0  0  0
    5.1414    1.9390   13.2429 H   0  0  0  0  0  0  0  0  0  0  0  0
    6.8256    0.8996   15.3209 H   0  0  0  0  0  0  0  0  0  0  0  0
    6.2923   -0.8072   17.2817 H   0  0  0  0  0  0  0  0  0  0  0  0
    4.3019    3.1925   11.7232 H   0  0  0  0  0  0  0  0  0  0  0  0
    3.9948    1.7471   10.7018 H   0  0  0  0  0  0  0  0  0  0  0  0
    3.8694    3.8153    9.3853 H   0  0  0  0  0  0  0  0  0  0  0  0
    1.3748    5.1042    8.2503 H   0  0  0  0  0  0  0  0  0  0  0  0
    0.5586    2.1846   12.7866 H   0  0  0  0  0  0  0  0  0  0  0  0
    0.1676   -3.5168   15.5655 H   0  0  0  0  0  0  0  0  0  0  0  0
   -0.2073   -2.3630   16.8902 H   0  0  0  0  0  0  0  0  0  0  0  0
   -2.1807   -3.6478   16.2422 H   0  0  0  0  0  0  0  0  0  0  0  0
  1  2  1  0  0  0  0
  2  3  1  0  0  0  0
  2  4  1  0  0  0  0
  2  6  1  0  0  0  0
  4  5  1  0  0  0  0
  5  6  1  0  0  0  0
  5  7  1  0  0  0  0
  7  8  1  0  0  0  0
  7 31  2  0  0  0  0
  8  9  2  0  0  0  0
  9 10  1  0  0  0  0
 10 11  2  0  0  0  0
 10 30  1  0  0  0  0
 11 12  1  0  0  0  0
 12 13  2  0  0  0  0
 12 20  1  0  0  0  0
 13 14  1  0  0  0  0
 14 15  2  0  0  0  0
 14 21  1  0  0  0  0
 15 16  1  0  0  0  0
 16 17  1  0  0  0  0
 16 20  1  0  0  0  0
 17 18  2  0  0  0  0
 18 19  1  0  0  0  0
 19 20  2  0  0  0  0
 21 22  1  0  0  0  0
 21 29  2  0  0  0  0
 22 23  1  0  0  0  0
 23 24  2  0  0  0  0
 24 25  1  0  0  0  0
 24 28  1  0  0  0  0
 25 26  2  0  0  0  0
 26 27  1  0  0  0  0
 27 28  2  0  0  0  0
 28 29  1  0  0  0  0
 30 31  1  0  0  0  0
  1 32  1  0  0  0  0
  1 33  1  0  0  0  0
  1 34  1  0  0  0  0
  3 35  1  0  0  0  0
  4 36  1  0  0  0  0
  4 37  1  0  0  0  0
  6 38  1  0  0  0  0
  6 39  1  0  0  0  0
  8 40  1  0  0  0  0
  9 41  1  0  0  0  0
 15 42  1  0  0  0  0
 17 43  1  0  0  0  0
 18 44  1  0  0  0  0
 22 45  1  0  0  0  0
 22 46  1  0  0  0  0
 23 47  1  0  0  0  0
 25 48  1  0  0  0  0
 29 49  1  0  0  0  0
 30 50  1  0  0  0  0
 30 51  1  0  0  0  0
 31 52  1  0  0  0  0
M  END
> <IC50[nM]>
3.9

$$$$
CHEMBL3265030_n
  -OEChem-05192314333D
 Structure written by MMmdl.
 52 57  0     0  0  0  0  0  0999 V2000
   -6.0443   -4.4602   16.2962 C   0  0  0  0  0  0  0  0  0  0  0  0
   -5.6240   -3.4001   15.2728 C   0  0  0  0  0  0  0  0  0  0  0  0
   -6.7329   -2.9884   14.5080 O   0  0  0  0  0  0  0  0  0  0  0  0
   -4.7833   -2.2666   15.8350 C   0  0  0  0  0  0  0  0  0  0  0  0
   -3.8370   -2.3937   14.7064 N   0  0  0  0  0  0  0  0  0  0  0  0
   -4.3873   -3.7457   14.4627 C   0  0  0  0  0  0  0  0  0  0  0  0
   -2.4739   -2.0989   14.7890 C   0  0  0  0  0  0  0  0  0  0  0  0
   -1.8935   -1.0737   14.0433 C   0  0  0  0  0  0  0  0  0  0  0  0
   -0.5352   -0.8073   14.1963 C   0  0  0  0  0  0  0  0  0  0  0  0
    0.2332   -1.5617   15.0991 C   0  0  0  0  0  0  0  0  0  0  0  0
    1.5948   -1.3216   15.3436 N   0  0  0  0  0  0  0  0  0  0  0  0
    2.5323   -0.4320   14.7835 C   0  0  0  0  0  0  0  0  0  0  0  0
    2.1832    0.3856   13.7527 N   0  0  0  0  0  0  0  0  0  0  0  0
    3.0997    1.2392   13.2138 C   0  0  0  0  0  0  0  0  0  0  0  0
    4.4085    1.2886   13.6971 C   0  0  0  0  0  0  0  0  0  0  0  0
    4.7393    0.4966   14.7557 N   0  0  0  0  0  0  0  0  0  0  0  0
    5.8912    0.3843   15.4874 C   0  0  0  0  0  0  0  0  0  0  0  0
    5.6000   -0.5403   16.4969 C   0  0  0  0  0  0  0  0  0  0  0  0
    4.3900   -1.0499   16.3863 N   0  0  0  0  0  0  0  0  0  0  0  0
    3.8285   -0.3910   15.3363 C   0  0  0  0  0  0  0  0  0  0  0  0
    2.6272    2.1508   12.1213 C   0  0  0  0  0  0  0  0  0  0  0  0
    3.5370    2.6346   11.1631 C   0  0  0  0  0  0  0  0  0  0  0  0
    3.1492    3.4622   10.1085 C   0  0  0  0  0  0  0  0  0  0  0  0
    1.8011    3.8208   10.0156 C   0  0  0  0  0  0  0  0  0  0  0  0
    0.9990    4.5979    9.1271 C   0  0  0  0  0  0  0  0  0  0  0  0
   -0.2497    4.6170    9.5128 N   0  0  0  0  0  0  0  0  0  0  0  0
   -0.3315    3.8838   10.6343 N   0  0  0  0  0  0  0  0  0  0  0  0
    0.8874    3.3527   10.9946 C   0  0  0  0  0  0  0  0  0  0  0  0
    1.2729    2.5247   12.0514 C   0  0  0  0  0  0  0  0  0  0  0  0
   -0.3672   -2.5916   15.8262 C   0  0  0  0  0  0  0  0  0  0  0  0
   -1.7168   -2.8552   15.6739 C   0  0  0  0  0  0  0  0  0  0  0  0
   -5.1681   -4.7705   16.8844 H   0  0  0  0  0  0  0  0  0  0  0  0
   -6.8064   -4.0390   16.9683 H   0  0  0  0  0  0  0  0  0  0  0  0
   -6.4606   -5.3323   15.7707 H   0  0  0  0  0  0  0  0  0  0  0  0
   -6.4580   -2.3321   13.8786 H   0  0  0  0  0  0  0  0  0  0  0  0
   -5.3055   -1.2992   15.8742 H   0  0  0  0  0  0  0  0  0  0  0  0
   -4.3393   -2.4837   16.8177 H   0  0  0  0  0  0  0  0  0  0  0  0
   -3.7836   -4.5587   14.8924 H   0  0  0  0  0  0  0  0  0  0  0  0
   -4.5919   -3.9613   13.4036 H   0  0  0  0  0  0  0  0  0  0  0  0
   -2.2620   -2.8162   13.9824 H   0  0  0  0  0  0  0  0  0  0  0  0
   -2.4902   -0.4931   13.3553 H   0  0  0  0  0  0  0  0  0  0  0  0
   -0.0718   -0.0199   13.6204 H   0  0  0  0  0  0  0  0  0  0  0  0
    5.1414    1.9390   13.2429 H   0  0  0  0  0  0  0  0  0  0  0  0
    6.8256    0.8996   15.3209 H   0  0  0  0  0  0  0  0  0  0  0  0
    6.2923   -0.8072   17.2817 H   0  0  0  0  0  0  0  0  0  0  0  0
    4.5766    2.3543   11.2471 H   0  0  0  0  0  0  0  0  0  0  0  0
    3.8694    3.8153    9.3853 H   0  0  0  0  0  0  0  0  0  0  0  0
    1.3748    5.1042    8.2503 H   0  0  0  0  0  0  0  0  0  0  0  0
    0.6792    1.6014   11.9804 H   0  0  0  0  0  0  0  0  0  0  0  0
    1.0266    3.0480   12.9871 H   0  0  0  0  0  0  0  0  0  0  0  0
    0.2235   -3.1840   16.5093 H   0  0  0  0  0  0  0  0  0  0  0  0
   -2.1807   -3.6478   16.2422 H   0  0  0  0  0  0  0  0  0  0  0  0
  1  2  1  0  0  0  0
  2  3  1  0  0  0  0
  2  4  1  0  0  0  0
  2  6  1  0  0  0  0
  4  5  1  0  0  0  0
  5  6  1  0  0  0  0
  5  7  1  0  0  0  0
  7  8  1  0  0  0  0
  7 31  1  0  0  0  0
  8  9  2  0  0  0  0
  9 10  1  0  0  0  0
 10 11  2  0  0  0  0
 10 30  1  0  0  0  0
 11 12  1  0  0  0  0
 12 13  2  0  0  0  0
 12 20  1  0  0  0  0
 13 14  1  0  0  0  0
 14 15  2  0  0  0  0
 14 21  1  0  0  0  0
 15 16  1  0  0  0  0
 16 17  1  0  0  0  0
 16 20  1  0  0  0  0
 17 18  2  0  0  0  0
 18 19  1  0  0  0  0
 19 20  2  0  0  0  0
 21 22  2  0  0  0  0
 21 29  1  0  0  0  0
 22 23  1  0  0  0  0
 23 24  2  0  0  0  0
 24 25  1  0  0  0  0
 24 28  1  0  0  0  0
 25 26  2  0  0  0  0
 26 27  1  0  0  0  0
 27 28  2  0  0  0  0
 28 29  1  0  0  0  0
 30 31  2  0  0  0  0
  1 32  1  0  0  0  0
  1 33  1  0  0  0  0
  1 34  1  0  0  0  0
  3 35  1  0  0  0  0
  4 36  1  0  0  0  0
  4 37  1  0  0  0  0
  6 38  1  0  0  0  0
  6 39  1  0  0  0  0
  7 40  1  0  0  0  0
  8 41  1  0  0  0  0
  9 42  1  0  0  0  0
 15 43  1  0  0  0  0
 17 44  1  0  0  0  0
 18 45  1  0  0  0  0
 22 46  1  0  0  0  0
 23 47  1  0  0  0  0
 25 48  1  0  0  0  0
 29 49  1  0  0  0  0
 29 50  1  0  0  0  0
 30 51  1  0  0  0  0
 31 52  1  0  0  0  0
M  END
> <IC50[nM]>
3.9

$$$$
CHEMBL3265030_n
  -OEChem-05192314333D
 Structure written by MMmdl.
 52 57  0     0  0  0  0  0  0999 V2000
   -6.0443   -4.4602   16.2962 C   0  0  0  0  0  0  0  0  0  0  0  0
   -5.6240   -3.4001   15.2728 C   0  0  0  0  0  0  0  0  0  0  0  0
   -6.7329   -2.9884   14.5080 O   0  0  0  0  0  0  0  0  0  0  0  0
   -4.7833   -2.2666   15.8350 C   0  0  0  0  0  0  0  0  0  0  0  0
   -3.8370   -2.3937   14.7064 N   0  0  0  0  0  0  0  0  0  0  0  0
   -4.3873   -3.7457   14.4627 C   0  0  0  0  0  0  0  0  0  0  0  0
   -2.4739   -2.0989   14.7890 C   0  0  0  0  0  0  0  0  0  0  0  0
   -1.8935   -1.0737   14.0433 C   0  0  0  0  0  0  0  0  0  0  0  0
   -0.5352   -0.8073   14.1963 C   0  0  0  0  0  0  0  0  0  0  0  0
    0.2332   -1.5617   15.0991 C   0  0  0  0  0  0  0  0  0  0  0  0
    1.5948   -1.3216   15.3436 N   0  0  0  0  0  0  0  0  0  0  0  0
    2.5323   -0.4320   14.7835 C   0  0  0  0  0  0  0  0  0  0  0  0
    2.1832    0.3856   13.7527 N   0  0  0  0  0  0  0  0  0  0  0  0
    3.0997    1.2392   13.2138 C   0  0  0  0  0  0  0  0  0  0  0  0
    4.4085    1.2886   13.6971 C   0  0  0  0  0  0  0  0  0  0  0  0
    4.7393    0.4966   14.7557 N   0  0  0  0  0  0  0  0  0  0  0  0
    5.8912    0.3843   15.4874 C   0  0  0  0  0  0  0  0  0  0  0  0
    5.6000   -0.5403   16.4969 C   0  0  0  0  0  0  0  0  0  0  0  0
    4.3900   -1.0499   16.3863 N   0  0  0  0  0  0  0  0  0  0  0  0
    3.8285   -0.3910   15.3363 C   0  0  0  0  0  0  0  0  0  0  0  0
    2.6272    2.1508   12.1213 C   0  0  0  0  0  0  0  0  0  0  0  0
    3.5370    2.6346   11.1631 C   0  0  0  0  0  0  0  0  0  0  0  0
    3.1492    3.4622   10.1085 C   0  0  0  0  0  0  0  0  0  0  0  0
    1.8011    3.8208   10.0156 C   0  0  0  0  0  0  0  0  0  0  0  0
    0.9990    4.5979    9.1271 C   0  0  0  0  0  0  0  0  0  0  0  0
   -0.2497    4.6170    9.5128 N   0  0  0  0  0  0  0  0  0  0  0  0
   -0.3315    3.8838   10.6343 N   0  0  0  0  0  0  0  0  0  0  0  0
    0.8874    3.3527   10.9946 C   0  0  0  0  0  0  0  0  0  0  0  0
    1.2729    2.5247   12.0514 C   0  0  0  0  0  0  0  0  0  0  0  0
   -0.3672   -2.5916   15.8262 C   0  0  0  0  0  0  0  0  0  0  0  0
   -1.7168   -2.8552   15.6739 C   0  0  0  0  0  0  0  0  0  0  0  0
   -5.1681   -4.7705   16.8844 H   0  0  0  0  0  0  0  0  0  0  0  0
   -6.8064   -4.0390   16.9683 H   0  0  0  0  0  0  0  0  0  0  0  0
   -6.4606   -5.3323   15.7707 H   0  0  0  0  0  0  0  0  0  0  0  0
   -6.4580   -2.3321   13.8786 H   0  0  0  0  0  0  0  0  0  0  0  0
   -5.3055   -1.2992   15.8742 H   0  0  0  0  0  0  0  0  0  0  0  0
   -4.3393   -2.4837   16.8177 H   0  0  0  0  0  0  0  0  0  0  0  0
   -3.7836   -4.5587   14.8924 H   0  0  0  0  0  0  0  0  0  0  0  0
   -4.5919   -3.9613   13.4036 H   0  0  0  0  0  0  0  0  0  0  0  0
   -2.4902   -0.4931   13.3553 H   0  0  0  0  0  0  0  0  0  0  0  0
   -0.0718   -0.0199   13.6204 H   0  0  0  0  0  0  0  0  0  0  0  0
    5.1414    1.9390   13.2429 H   0  0  0  0  0  0  0  0  0  0  0  0
    6.8256    0.8996   15.3209 H   0  0  0  0  0  0  0  0  0  0  0  0
    6.2923   -0.8072   17.2817 H   0  0  0  0  0  0  0  0  0  0  0  0
    4.5766    2.3543   11.2471 H   0  0  0  0  0  0  0  0  0  0  0  0
    3.8694    3.8153    9.3853 H   0  0  0  0  0  0  0  0  0  0  0  0
    1.3748    5.1042    8.2503 H   0  0  0  0  0  0  0  0  0  0  0  0
    0.6792    1.6014   11.9804 H   0  0  0  0  0  0  0  0  0  0  0  0
    1.0266    3.0480   12.9871 H   0  0  0  0  0  0  0  0  0  0  0  0
    0.1676   -3.5168   15.5655 H   0  0  0  0  0  0  0  0  0  0  0  0
   -0.2073   -2.3630   16.8902 H   0  0  0  0  0  0  0  0  0  0  0  0
   -2.1807   -3.6478   16.2422 H   0  0  0  0  0  0  0  0  0  0  0  0
  1  2  1  0  0  0  0
  2  3  1  0  0  0  0
  2  4  1  0  0  0  0
  2  6  1  0  0  0  0
  4  5  1  0  0  0  0
  5  6  1  0  0  0  0
  5  7  1  0  0  0  0
  7  8  1  0  0  0  0
  7 31  2  0  0  0  0
  8  9  2  0  0  0  0
  9 10  1  0  0  0  0
 10 11  2  0  0  0  0
 10 30  1  0  0  0  0
 11 12  1  0  0  0  0
 12 13  2  0  0  0  0
 12 20  1  0  0  0  0
 13 14  1  0  0  0  0
 14 15  2  0  0  0  0
 14 21  1  0  0  0  0
 15 16  1  0  0  0  0
 16 17  1  0  0  0  0
 16 20  1  0  0  0  0
 17 18  2  0  0  0  0
 18 19  1  0  0  0  0
 19 20  2  0  0  0  0
 21 22  2  0  0  0  0
 21 29  1  0  0  0  0
 22 23  1  0  0  0  0
 23 24  2  0  0  0  0
 24 25  1  0  0  0  0
 24 28  1  0  0  0  0
 25 26  2  0  0  0  0
 26 27  1  0  0  0  0
 27 28  2  0  0  0  0
 28 29  1  0  0  0  0
 30 31  1  0  0  0  0
  1 32  1  0  0  0  0
  1 33  1  0  0  0  0
  1 34  1  0  0  0  0
  3 35  1  0  0  0  0
  4 36  1  0  0  0  0
  4 37  1  0  0  0  0
  6 38  1  0  0  0  0
  6 39  1  0  0  0  0
  8 40  1  0  0  0  0
  9 41  1  0  0  0  0
 15 42  1  0  0  0  0
 17 43  1  0  0  0  0
 18 44  1  0  0  0  0
 22 45  1  0  0  0  0
 23 46  1  0  0  0  0
 25 47  1  0  0  0  0
 29 48  1  0  0  0  0
 29 49  1  0  0  0  0
 30 50  1  0  0  0  0
 30 51  1  0  0  0  0
 31 52  1  0  0  0  0
M  END
> <IC50[nM]>
3.9

$$$$
CHEMBL3265030_n
  -OEChem-05192314333D
 Structure written by MMmdl.
 52 57  0     1  0  0  0  0  0999 V2000
   -6.0443   -4.4602   16.2962 C   0  0  0  0  0  0  0  0  0  0  0  0
   -5.6240   -3.4001   15.2728 C   0  0  0  0  0  0  0  0  0  0  0  0
   -6.7329   -2.9884   14.5080 O   0  0  0  0  0  0  0  0  0  0  0  0
   -4.7833   -2.2666   15.8350 C   0  0  0  0  0  0  0  0  0  0  0  0
   -3.8370   -2.3937   14.7064 N   0  0  0  0  0  0  0  0  0  0  0  0
   -4.3873   -3.7457   14.4627 C   0  0  0  0  0  0  0  0  0  0  0  0
   -2.4739   -2.0989   14.7890 C   0  0  0  0  0  0  0  0  0  0  0  0
   -1.8935   -1.0737   14.0433 C   0  0  0  0  0  0  0  0  0  0  0  0
   -0.5352   -0.8073   14.1963 C   0  0  0  0  0  0  0  0  0  0  0  0
    0.2332   -1.5617   15.0991 C   0  0  0  0  0  0  0  0  0  0  0  0
    1.5948   -1.3216   15.3436 N   0  0  0  0  0  0  0  0  0  0  0  0
    2.5323   -0.4320   14.7835 C   0  0  0  0  0  0  0  0  0  0  0  0
    2.1832    0.3856   13.7527 N   0  0  0  0  0  0  0  0  0  0  0  0
    3.0997    1.2392   13.2138 C   0  0  0  0  0  0  0  0  0  0  0  0
    4.4085    1.2886   13.6971 C   0  0  0  0  0  0  0  0  0  0  0  0
    4.7393    0.4966   14.7557 N   0  0  0  0  0  0  0  0  0  0  0  0
    5.8912    0.3843   15.4874 C   0  0  0  0  0  0  0  0  0  0  0  0
    5.6000   -0.5403   16.4969 C   0  0  0  0  0  0  0  0  0  0  0  0
    4.3900   -1.0499   16.3863 N   0  0  0  0  0  0  0  0  0  0  0  0
    3.8285   -0.3910   15.3363 C   0  0  0  0  0  0  0  0  0  0  0  0
    2.6272    2.1508   12.1213 C   0  0  3  0  0  0  0  0  0  0  0  0
    3.5370    2.6346   11.1631 C   0  0  0  0  0  0  0  0  0  0  0  0
    3.1492    3.4622   10.1085 C   0  0  0  0  0  0  0  0  0  0  0  0
    1.8011    3.8208   10.0156 C   0  0  0  0  0  0  0  0  0  0  0  0
    0.9990    4.5979    9.1271 C   0  0  0  0  0  0  0  0  0  0  0  0
   -0.2497    4.6170    9.5128 N   0  0  0  0  0  0  0  0  0  0  0  0
   -0.3315    3.8838   10.6343 N   0  0  0  0  0  0  0  0  0  0  0  0
    0.8874    3.3527   10.9946 C   0  0  0  0  0  0  0  0  0  0  0  0
    1.2729    2.5247   12.0514 C   0  0  0  0  0  0  0  0  0  0  0  0
   -0.3672   -2.5916   15.8262 C   0  0  0  0  0  0  0  0  0  0  0  0
   -1.7168   -2.8552   15.6739 C   0  0  0  0  0  0  0  0  0  0  0  0
   -5.1681   -4.7705   16.8844 H   0  0  0  0  0  0  0  0  0  0  0  0
   -6.8064   -4.0390   16.9683 H   0  0  0  0  0  0  0  0  0  0  0  0
   -6.4606   -5.3323   15.7707 H   0  0  0  0  0  0  0  0  0  0  0  0
   -6.4580   -2.3321   13.8786 H   0  0  0  0  0  0  0  0  0  0  0  0
   -5.3055   -1.2992   15.8742 H   0  0  0  0  0  0  0  0  0  0  0  0
   -4.3393   -2.4837   16.8177 H   0  0  0  0  0  0  0  0  0  0  0  0
   -3.7836   -4.5587   14.8924 H   0  0  0  0  0  0  0  0  0  0  0  0
   -4.5919   -3.9613   13.4036 H   0  0  0  0  0  0  0  0  0  0  0  0
   -2.2620   -2.8162   13.9824 H   0  0  0  0  0  0  0  0  0  0  0  0
   -2.4902   -0.4931   13.3553 H   0  0  0  0  0  0  0  0  0  0  0  0
   -0.0718   -0.0199   13.6204 H   0  0  0  0  0  0  0  0  0  0  0  0
    5.1414    1.9390   13.2429 H   0  0  0  0  0  0  0  0  0  0  0  0
    6.8256    0.8996   15.3209 H   0  0  0  0  0  0  0  0  0  0  0  0
    6.2923   -0.8072   17.2817 H   0  0  0  0  0  0  0  0  0  0  0  0
    2.8350    3.0227   12.7589 H   0  0  0  0  0  0  0  0  0  0  0  0
    4.5766    2.3543   11.2471 H   0  0  0  0  0  0  0  0  0  0  0  0
    3.8694    3.8153    9.3853 H   0  0  0  0  0  0  0  0  0  0  0  0
    1.3748    5.1042    8.2503 H   0  0  0  0  0  0  0  0  0  0  0  0
    0.5586    2.1846   12.7866 H   0  0  0  0  0  0  0  0  0  0  0  0
    0.2235   -3.1840   16.5093 H   0  0  0  0  0  0  0  0  0  0  0  0
   -2.1807   -3.6478   16.2422 H   0  0  0  0  0  0  0  0  0  0  0  0
  1  2  1  0  0  0  0
  2  3  1  0  0  0  0
  2  4  1  0  0  0  0
  2  6  1  0  0  0  0
  4  5  1  0  0  0  0
  5  6  1  0  0  0  0
  5  7  1  0  0  0  0
  7  8  1  0  0  0  0
  7 31  1  0  0  0  0
  8  9  2  0  0  0  0
  9 10  1  0  0  0  0
 10 11  2  0  0  0  0
 10 30  1  0  0  0  0
 11 12  1  0  0  0  0
 12 13  2  0  0  0  0
 12 20  1  0  0  0  0
 13 14  1  0  0  0  0
 14 15  2  0  0  0  0
 14 21  1  0  0  0  0
 15 16  1  0  0  0  0
 16 17  1  0  0  0  0
 16 20  1  0  0  0  0
 17 18  2  0  0  0  0
 18 19  1  0  0  0  0
 19 20  2  0  0  0  0
 21 22  1  0  0  0  0
 21 29  1  0  0  0  0
 22 23  2  0  0  0  0
 23 24  1  0  0  0  0
 24 25  2  0  0  0  0
 24 28  1  0  0  0  0
 25 26  1  0  0  0  0
 26 27  2  0  0  0  0
 27 28  1  0  0  0  0
 28 29  2  0  0  0  0
 30 31  2  0  0  0  0
  1 32  1  0  0  0  0
  1 33  1  0  0  0  0
  1 34  1  0  0  0  0
  3 35  1  0  0  0  0
  4 36  1  0  0  0  0
  4 37  1  0  0  0  0
  6 38  1  0  0  0  0
  6 39  1  0  0  0  0
  7 40  1  0  0  0  0
  8 41  1  0  0  0  0
  9 42  1  0  0  0  0
 15 43  1  0  0  0  0
 17 44  1  0  0  0  0
 18 45  1  0  0  0  0
 21 46  1  0  0  0  0
 22 47  1  0  0  0  0
 23 48  1  0  0  0  0
 25 49  1  0  0  0  0
 29 50  1  0  0  0  0
 30 51  1  0  0  0  0
 31 52  1  0  0  0  0
M  END
> <IC50[nM]>
3.9

$$$$
CHEMBL3265030_n
  -OEChem-05192314333D
 Structure written by MMmdl.
 52 57  0     1  0  0  0  0  0999 V2000
   -6.0443   -4.4602   16.2962 C   0  0  0  0  0  0  0  0  0  0  0  0
   -5.6240   -3.4001   15.2728 C   0  0  0  0  0  0  0  0  0  0  0  0
   -6.7329   -2.9884   14.5080 O   0  0  0  0  0  0  0  0  0  0  0  0
   -4.7833   -2.2666   15.8350 C   0  0  0  0  0  0  0  0  0  0  0  0
   -3.8370   -2.3937   14.7064 N   0  0  0  0  0  0  0  0  0  0  0  0
   -4.3873   -3.7457   14.4627 C   0  0  0  0  0  0  0  0  0  0  0  0
   -2.4739   -2.0989   14.7890 C   0  0  0  0  0  0  0  0  0  0  0  0
   -1.8935   -1.0737   14.0433 C   0  0  0  0  0  0  0  0  0  0  0  0
   -0.5352   -0.8073   14.1963 C   0  0  0  0  0  0  0  0  0  0  0  0
    0.2332   -1.5617   15.0991 C   0  0  0  0  0  0  0  0  0  0  0  0
    1.5948   -1.3216   15.3436 N   0  0  0  0  0  0  0  0  0  0  0  0
    2.5323   -0.4320   14.7835 C   0  0  0  0  0  0  0  0  0  0  0  0
    2.1832    0.3856   13.7527 N   0  0  0  0  0  0  0  0  0  0  0  0
    3.0997    1.2392   13.2138 C   0  0  0  0  0  0  0  0  0  0  0  0
    4.4085    1.2886   13.6971 C   0  0  0  0  0  0  0  0  0  0  0  0
    4.7393    0.4966   14.7557 N   0  0  0  0  0  0  0  0  0  0  0  0
    5.8912    0.3843   15.4874 C   0  0  0  0  0  0  0  0  0  0  0  0
    5.6000   -0.5403   16.4969 C   0  0  0  0  0  0  0  0  0  0  0  0
    4.3900   -1.0499   16.3863 N   0  0  0  0  0  0  0  0  0  0  0  0
    3.8285   -0.3910   15.3363 C   0  0  0  0  0  0  0  0  0  0  0  0
    2.6272    2.1508   12.1213 C   0  0  0  0  0  0  0  0  0  0  0  0
    3.5370    2.6346   11.1631 C   0  0  0  0  0  0  0  0  0  0  0  0
    3.1492    3.4622   10.1085 C   0  0  0  0  0  0  0  0  0  0  0  0
    1.8011    3.8208   10.0156 C   0  0  0  0  0  0  0  0  0  0  0  0
    0.9990    4.5979    9.1271 C   0  0  0  0  0  0  0  0  0  0  0  0
   -0.2497    4.6170    9.5128 N   0  0  0  0  0  0  0  0  0  0  0  0
   -0.3315    3.8838   10.6343 N   0  0  0  0  0  0  0  0  0  0  0  0
    0.8874    3.3527   10.9946 C   0  0  3  0  0  0  0  0  0  0  0  0
    1.2729    2.5247   12.0514 C   0  0  0  0  0  0  0  0  0  0  0  0
   -0.3672   -2.5916   15.8262 C   0  0  0  0  0  0  0  0  0  0  0  0
   -1.7168   -2.8552   15.6739 C   0  0  0  0  0  0  0  0  0  0  0  0
   -5.1681   -4.7705   16.8844 H   0  0  0  0  0  0  0  0  0  0  0  0
   -6.8064   -4.0390   16.9683 H   0  0  0  0  0  0  0  0  0  0  0  0
   -6.4606   -5.3323   15.7707 H   0  0  0  0  0  0  0  0  0  0  0  0
   -6.4580   -2.3321   13.8786 H   0  0  0  0  0  0  0  0  0  0  0  0
   -5.3055   -1.2992   15.8742 H   0  0  0  0  0  0  0  0  0  0  0  0
   -4.3393   -2.4837   16.8177 H   0  0  0  0  0  0  0  0  0  0  0  0
   -3.7836   -4.5587   14.8924 H   0  0  0  0  0  0  0  0  0  0  0  0
   -4.5919   -3.9613   13.4036 H   0  0  0  0  0  0  0  0  0  0  0  0
   -2.2620   -2.8162   13.9824 H   0  0  0  0  0  0  0  0  0  0  0  0
   -2.4902   -0.4931   13.3553 H   0  0  0  0  0  0  0  0  0  0  0  0
   -0.0718   -0.0199   13.6204 H   0  0  0  0  0  0  0  0  0  0  0  0
    5.1414    1.9390   13.2429 H   0  0  0  0  0  0  0  0  0  0  0  0
    6.8256    0.8996   15.3209 H   0  0  0  0  0  0  0  0  0  0  0  0
    6.2923   -0.8072   17.2817 H   0  0  0  0  0  0  0  0  0  0  0  0
    4.5766    2.3543   11.2471 H   0  0  0  0  0  0  0  0  0  0  0  0
    3.8694    3.8153    9.3853 H   0  0  0  0  0  0  0  0  0  0  0  0
    1.3748    5.1042    8.2503 H   0  0  0  0  0  0  0  0  0  0  0  0
    1.0928    4.2393   11.6124 H   0  0  0  0  0  0  0  0  0  0  0  0
    0.5586    2.1846   12.7866 H   0  0  0  0  0  0  0  0  0  0  0  0
    0.2235   -3.1840   16.5093 H   0  0  0  0  0  0  0  0  0  0  0  0
   -2.1807   -3.6478   16.2422 H   0  0  0  0  0  0  0  0  0  0  0  0
  1  2  1  0  0  0  0
  2  3  1  0  0  0  0
  2  4  1  0  0  0  0
  2  6  1  0  0  0  0
  4  5  1  0  0  0  0
  5  6  1  0  0  0  0
  5  7  1  0  0  0  0
  7  8  1  0  0  0  0
  7 31  1  0  0  0  0
  8  9  2  0  0  0  0
  9 10  1  0  0  0  0
 10 11  2  0  0  0  0
 10 30  1  0  0  0  0
 11 12  1  0  0  0  0
 12 13  2  0  0  0  0
 12 20  1  0  0  0  0
 13 14  1  0  0  0  0
 14 15  2  0  0  0  0
 14 21  1  0  0  0  0
 15 16  1  0  0  0  0
 16 17  1  0  0  0  0
 16 20  1  0  0  0  0
 17 18  2  0  0  0  0
 18 19  1  0  0  0  0
 19 20  2  0  0  0  0
 21 22  1  0  0  0  0
 21 29  2  0  0  0  0
 22 23  2  0  0  0  0
 23 24  1  0  0  0  0
 24 25  2  0  0  0  0
 24 28  1  0  0  0  0
 25 26  1  0  0  0  0
 26 27  2  0  0  0  0
 27 28  1  0  0  0  0
 28 29  1  0  0  0  0
 30 31  2  0  0  0  0
  1 32  1  0  0  0  0
  1 33  1  0  0  0  0
  1 34  1  0  0  0  0
  3 35  1  0  0  0  0
  4 36  1  0  0  0  0
  4 37  1  0  0  0  0
  6 38  1  0  0  0  0
  6 39  1  0  0  0  0
  7 40  1  0  0  0  0
  8 41  1  0  0  0  0
  9 42  1  0  0  0  0
 15 43  1  0  0  0  0
 17 44  1  0  0  0  0
 18 45  1  0  0  0  0
 22 46  1  0  0  0  0
 23 47  1  0  0  0  0
 25 48  1  0  0  0  0
 28 49  1  0  0  0  0
 29 50  1  0  0  0  0
 30 51  1  0  0  0  0
 31 52  1  0  0  0  0
M  END
> <IC50[nM]>
3.9

$$$$
CHEMBL3265030_n
  -OEChem-05192314333D
 Structure written by MMmdl.
 52 57  0     1  0  0  0  0  0999 V2000
   -6.0443   -4.4602   16.2962 C   0  0  0  0  0  0  0  0  0  0  0  0
   -5.6240   -3.4001   15.2728 C   0  0  0  0  0  0  0  0  0  0  0  0
   -6.7329   -2.9884   14.5080 O   0  0  0  0  0  0  0  0  0  0  0  0
   -4.7833   -2.2666   15.8350 C   0  0  0  0  0  0  0  0  0  0  0  0
   -3.8370   -2.3937   14.7064 N   0  0  0  0  0  0  0  0  0  0  0  0
   -4.3873   -3.7457   14.4627 C   0  0  0  0  0  0  0  0  0  0  0  0
   -2.4739   -2.0989   14.7890 C   0  0  0  0  0  0  0  0  0  0  0  0
   -1.8935   -1.0737   14.0433 C   0  0  0  0  0  0  0  0  0  0  0  0
   -0.5352   -0.8073   14.1963 C   0  0  0  0  0  0  0  0  0  0  0  0
    0.2332   -1.5617   15.0991 C   0  0  0  0  0  0  0  0  0  0  0  0
    1.5948   -1.3216   15.3436 N   0  0  0  0  0  0  0  0  0  0  0  0
    2.5323   -0.4320   14.7835 C   0  0  0  0  0  0  0  0  0  0  0  0
    2.1832    0.3856   13.7527 N   0  0  0  0  0  0  0  0  0  0  0  0
    3.0997    1.2392   13.2138 C   0  0  0  0  0  0  0  0  0  0  0  0
    4.4085    1.2886   13.6971 C   0  0  0  0  0  0  0  0  0  0  0  0
    4.7393    0.4966   14.7557 N   0  0  0  0  0  0  0  0  0  0  0  0
    5.8912    0.3843   15.4874 C   0  0  0  0  0  0  0  0  0  0  0  0
    5.6000   -0.5403   16.4969 C   0  0  0  0  0  0  0  0  0  0  0  0
    4.3900   -1.0499   16.3863 N   0  0  0  0  0  0  0  0  0  0  0  0
    3.8285   -0.3910   15.3363 C   0  0  0  0  0  0  0  0  0  0  0  0
    2.6272    2.1508   12.1213 C   0  0  3  0  0  0  0  0  0  0  0  0
    3.5370    2.6346   11.1631 C   0  0  0  0  0  0  0  0  0  0  0  0
    3.1492    3.4622   10.1085 C   0  0  0  0  0  0  0  0  0  0  0  0
    1.8011    3.8208   10.0156 C   0  0  0  0  0  0  0  0  0  0  0  0
    0.9990    4.5979    9.1271 C   0  0  0  0  0  0  0  0  0  0  0  0
   -0.2497    4.6170    9.5128 N   0  0  0  0  0  0  0  0  0  0  0  0
   -0.3315    3.8838   10.6343 N   0  0  0  0  0  0  0  0  0  0  0  0
    0.8874    3.3527   10.9946 C   0  0  0  0  0  0  0  0  0  0  0  0
    1.2729    2.5247   12.0514 C   0  0  0  0  0  0  0  0  0  0  0  0
   -0.3672   -2.5916   15.8262 C   0  0  0  0  0  0  0  0  0  0  0  0
   -1.7168   -2.8552   15.6739 C   0  0  0  0  0  0  0  0  0  0  0  0
   -5.1681   -4.7705   16.8844 H   0  0  0  0  0  0  0  0  0  0  0  0
   -6.8064   -4.0390   16.9683 H   0  0  0  0  0  0  0  0  0  0  0  0
   -6.4606   -5.3323   15.7707 H   0  0  0  0  0  0  0  0  0  0  0  0
   -6.4580   -2.3321   13.8786 H   0  0  0  0  0  0  0  0  0  0  0  0
   -5.3055   -1.2992   15.8742 H   0  0  0  0  0  0  0  0  0  0  0  0
   -4.3393   -2.4837   16.8177 H   0  0  0  0  0  0  0  0  0  0  0  0
   -3.7836   -4.5587   14.8924 H   0  0  0  0  0  0  0  0  0  0  0  0
   -4.5919   -3.9613   13.4036 H   0  0  0  0  0  0  0  0  0  0  0  0
   -2.4902   -0.4931   13.3553 H   0  0  0  0  0  0  0  0  0  0  0  0
   -0.0718   -0.0199   13.6204 H   0  0  0  0  0  0  0  0  0  0  0  0
    5.1414    1.9390   13.2429 H   0  0  0  0  0  0  0  0  0  0  0  0
    6.8256    0.8996   15.3209 H   0  0  0  0  0  0  0  0  0  0  0  0
    6.2923   -0.8072   17.2817 H   0  0  0  0  0  0  0  0  0  0  0  0
    2.8350    3.0227   12.7589 H   0  0  0  0  0  0  0  0  0  0  0  0
    4.5766    2.3543   11.2471 H   0  0  0  0  0  0  0  0  0  0  0  0
    3.8694    3.8153    9.3853 H   0  0  0  0  0  0  0  0  0  0  0  0
    1.3748    5.1042    8.2503 H   0  0  0  0  0  0  0  0  0  0  0  0
    0.5586    2.1846   12.7866 H   0  0  0  0  0  0  0  0  0  0  0  0
    0.1676   -3.5168   15.5655 H   0  0  0  0  0  0  0  0  0  0  0  0
   -0.2073   -2.3630   16.8902 H   0  0  0  0  0  0  0  0  0  0  0  0
   -2.1807   -3.6478   16.2422 H   0  0  0  0  0  0  0  0  0  0  0  0
  1  2  1  0  0  0  0
  2  3  1  0  0  0  0
  2  4  1  0  0  0  0
  2  6  1  0  0  0  0
  4  5  1  0  0  0  0
  5  6  1  0  0  0  0
  5  7  1  0  0  0  0
  7  8  1  0  0  0  0
  7 31  2  0  0  0  0
  8  9  2  0  0  0  0
  9 10  1  0  0  0  0
 10 11  2  0  0  0  0
 10 30  1  0  0  0  0
 11 12  1  0  0  0  0
 12 13  2  0  0  0  0
 12 20  1  0  0  0  0
 13 14  1  0  0  0  0
 14 15  2  0  0  0  0
 14 21  1  0  0  0  0
 15 16  1  0  0  0  0
 16 17  1  0  0  0  0
 16 20  1  0  0  0  0
 17 18  2  0  0  0  0
 18 19  1  0  0  0  0
 19 20  2  0  0  0  0
 21 22  1  0  0  0  0
 21 29  1  0  0  0  0
 22 23  2  0  0  0  0
 23 24  1  0  0  0  0
 24 25  2  0  0  0  0
 24 28  1  0  0  0  0
 25 26  1  0  0  0  0
 26 27  2  0  0  0  0
 27 28  1  0  0  0  0
 28 29  2  0  0  0  0
 30 31  1  0  0  0  0
  1 32  1  0  0  0  0
  1 33  1  0  0  0  0
  1 34  1  0  0  0  0
  3 35  1  0  0  0  0
  4 36  1  0  0  0  0
  4 37  1  0  0  0  0
  6 38  1  0  0  0  0
  6 39  1  0  0  0  0
  8 40  1  0  0  0  0
  9 41  1  0  0  0  0
 15 42  1  0  0  0  0
 17 43  1  0  0  0  0
 18 44  1  0  0  0  0
 21 45  1  0  0  0  0
 22 46  1  0  0  0  0
 23 47  1  0  0  0  0
 25 48  1  0  0  0  0
 29 49  1  0  0  0  0
 30 50  1  0  0  0  0
 30 51  1  0  0  0  0
 31 52  1  0  0  0  0
M  END
> <IC50[nM]>
3.9

$$$$
CHEMBL3265030_n
  -OEChem-05192314333D
 Structure written by MMmdl.
 52 57  0     1  0  0  0  0  0999 V2000
   -6.0443   -4.4602   16.2962 C   0  0  0  0  0  0  0  0  0  0  0  0
   -5.6240   -3.4001   15.2728 C   0  0  0  0  0  0  0  0  0  0  0  0
   -6.7329   -2.9884   14.5080 O   0  0  0  0  0  0  0  0  0  0  0  0
   -4.7833   -2.2666   15.8350 C   0  0  0  0  0  0  0  0  0  0  0  0
   -3.8370   -2.3937   14.7064 N   0  0  0  0  0  0  0  0  0  0  0  0
   -4.3873   -3.7457   14.4627 C   0  0  0  0  0  0  0  0  0  0  0  0
   -2.4739   -2.0989   14.7890 C   0  0  0  0  0  0  0  0  0  0  0  0
   -1.8935   -1.0737   14.0433 C   0  0  0  0  0  0  0  0  0  0  0  0
   -0.5352   -0.8073   14.1963 C   0  0  0  0  0  0  0  0  0  0  0  0
    0.2332   -1.5617   15.0991 C   0  0  0  0  0  0  0  0  0  0  0  0
    1.5948   -1.3216   15.3436 N   0  0  0  0  0  0  0  0  0  0  0  0
    2.5323   -0.4320   14.7835 C   0  0  0  0  0  0  0  0  0  0  0  0
    2.1832    0.3856   13.7527 N   0  0  0  0  0  0  0  0  0  0  0  0
    3.0997    1.2392   13.2138 C   0  0  0  0  0  0  0  0  0  0  0  0
    4.4085    1.2886   13.6971 C   0  0  0  0  0  0  0  0  0  0  0  0
    4.7393    0.4966   14.7557 N   0  0  0  0  0  0  0  0  0  0  0  0
    5.8912    0.3843   15.4874 C   0  0  0  0  0  0  0  0  0  0  0  0
    5.6000   -0.5403   16.4969 C   0  0  0  0  0  0  0  0  0  0  0  0
    4.3900   -1.0499   16.3863 N   0  0  0  0  0  0  0  0  0  0  0  0
    3.8285   -0.3910   15.3363 C   0  0  0  0  0  0  0  0  0  0  0  0
    2.6272    2.1508   12.1213 C   0  0  0  0  0  0  0  0  0  0  0  0
    3.5370    2.6346   11.1631 C   0  0  0  0  0  0  0  0  0  0  0  0
    3.1492    3.4622   10.1085 C   0  0  0  0  0  0  0  0  0  0  0  0
    1.8011    3.8208   10.0156 C   0  0  0  0  0  0  0  0  0  0  0  0
    0.9990    4.5979    9.1271 C   0  0  0  0  0  0  0  0  0  0  0  0
   -0.2497    4.6170    9.5128 N   0  0  0  0  0  0  0  0  0  0  0  0
   -0.3315    3.8838   10.6343 N   0  0  0  0  0  0  0  0  0  0  0  0
    0.8874    3.3527   10.9946 C   0  0  3  0  0  0  0  0  0  0  0  0
    1.2729    2.5247   12.0514 C   0  0  0  0  0  0  0  0  0  0  0  0
   -0.3672   -2.5916   15.8262 C   0  0  0  0  0  0  0  0  0  0  0  0
   -1.7168   -2.8552   15.6739 C   0  0  0  0  0  0  0  0  0  0  0  0
   -5.1681   -4.7705   16.8844 H   0  0  0  0  0  0  0  0  0  0  0  0
   -6.8064   -4.0390   16.9683 H   0  0  0  0  0  0  0  0  0  0  0  0
   -6.4606   -5.3323   15.7707 H   0  0  0  0  0  0  0  0  0  0  0  0
   -6.4580   -2.3321   13.8786 H   0  0  0  0  0  0  0  0  0  0  0  0
   -5.3055   -1.2992   15.8742 H   0  0  0  0  0  0  0  0  0  0  0  0
   -4.3393   -2.4837   16.8177 H   0  0  0  0  0  0  0  0  0  0  0  0
   -3.7836   -4.5587   14.8924 H   0  0  0  0  0  0  0  0  0  0  0  0
   -4.5919   -3.9613   13.4036 H   0  0  0  0  0  0  0  0  0  0  0  0
   -2.4902   -0.4931   13.3553 H   0  0  0  0  0  0  0  0  0  0  0  0
   -0.0718   -0.0199   13.6204 H   0  0  0  0  0  0  0  0  0  0  0  0
    5.1414    1.9390   13.2429 H   0  0  0  0  0  0  0  0  0  0  0  0
    6.8256    0.8996   15.3209 H   0  0  0  0  0  0  0  0  0  0  0  0
    6.2923   -0.8072   17.2817 H   0  0  0  0  0  0  0  0  0  0  0  0
    4.5766    2.3543   11.2471 H   0  0  0  0  0  0  0  0  0  0  0  0
    3.8694    3.8153    9.3853 H   0  0  0  0  0  0  0  0  0  0  0  0
    1.3748    5.1042    8.2503 H   0  0  0  0  0  0  0  0  0  0  0  0
    1.0928    4.2393   11.6124 H   0  0  0  0  0  0  0  0  0  0  0  0
    0.5586    2.1846   12.7866 H   0  0  0  0  0  0  0  0  0  0  0  0
    0.1676   -3.5168   15.5655 H   0  0  0  0  0  0  0  0  0  0  0  0
   -0.2073   -2.3630   16.8902 H   0  0  0  0  0  0  0  0  0  0  0  0
   -2.1807   -3.6478   16.2422 H   0  0  0  0  0  0  0  0  0  0  0  0
  1  2  1  0  0  0  0
  2  3  1  0  0  0  0
  2  4  1  0  0  0  0
  2  6  1  0  0  0  0
  4  5  1  0  0  0  0
  5  6  1  0  0  0  0
  5  7  1  0  0  0  0
  7  8  1  0  0  0  0
  7 31  2  0  0  0  0
  8  9  2  0  0  0  0
  9 10  1  0  0  0  0
 10 11  2  0  0  0  0
 10 30  1  0  0  0  0
 11 12  1  0  0  0  0
 12 13  2  0  0  0  0
 12 20  1  0  0  0  0
 13 14  1  0  0  0  0
 14 15  2  0  0  0  0
 14 21  1  0  0  0  0
 15 16  1  0  0  0  0
 16 17  1  0  0  0  0
 16 20  1  0  0  0  0
 17 18  2  0  0  0  0
 18 19  1  0  0  0  0
 19 20  2  0  0  0  0
 21 22  1  0  0  0  0
 21 29  2  0  0  0  0
 22 23  2  0  0  0  0
 23 24  1  0  0  0  0
 24 25  2  0  0  0  0
 24 28  1  0  0  0  0
 25 26  1  0  0  0  0
 26 27  2  0  0  0  0
 27 28  1  0  0  0  0
 28 29  1  0  0  0  0
 30 31  1  0  0  0  0
  1 32  1  0  0  0  0
  1 33  1  0  0  0  0
  1 34  1  0  0  0  0
  3 35  1  0  0  0  0
  4 36  1  0  0  0  0
  4 37  1  0  0  0  0
  6 38  1  0  0  0  0
  6 39  1  0  0  0  0
  8 40  1  0  0  0  0
  9 41  1  0  0  0  0
 15 42  1  0  0  0  0
 17 43  1  0  0  0  0
 18 44  1  0  0  0  0
 22 45  1  0  0  0  0
 23 46  1  0  0  0  0
 25 47  1  0  0  0  0
 28 48  1  0  0  0  0
 29 49  1  0  0  0  0
 30 50  1  0  0  0  0
 30 51  1  0  0  0  0
 31 52  1  0  0  0  0
M  END
> <IC50[nM]>
3.9

$$$$
CHEMBL3265030_n
  -OEChem-05192314333D
 Structure written by MMmdl.
 52 57  0     0  0  0  0  0  0999 V2000
   -6.0443   -4.4602   16.2962 C   0  0  0  0  0  0  0  0  0  0  0  0
   -5.6240   -3.4001   15.2728 C   0  0  0  0  0  0  0  0  0  0  0  0
   -6.7329   -2.9884   14.5080 O   0  0  0  0  0  0  0  0  0  0  0  0
   -4.7833   -2.2666   15.8350 C   0  0  0  0  0  0  0  0  0  0  0  0
   -3.8370   -2.3937   14.7064 N   0  0  0  0  0  0  0  0  0  0  0  0
   -4.3873   -3.7457   14.4627 C   0  0  0  0  0  0  0  0  0  0  0  0
   -2.4739   -2.0989   14.7890 C   0  0  0  0  0  0  0  0  0  0  0  0
   -1.8935   -1.0737   14.0433 C   0  0  0  0  0  0  0  0  0  0  0  0
   -0.5352   -0.8073   14.1963 C   0  0  0  0  0  0  0  0  0  0  0  0
    0.2332   -1.5617   15.0991 C   0  0  0  0  0  0  0  0  0  0  0  0
    1.5948   -1.3216   15.3436 N   0  0  0  0  0  0  0  0  0  0  0  0
    2.5323   -0.4320   14.7835 C   0  0  0  0  0  0  0  0  0  0  0  0
    2.1832    0.3856   13.7527 N   0  0  0  0  0  0  0  0  0  0  0  0
    3.0997    1.2392   13.2138 C   0  0  0  0  0  0  0  0  0  0  0  0
    4.4085    1.2886   13.6971 C   0  0  0  0  0  0  0  0  0  0  0  0
    4.7393    0.4966   14.7557 N   0  0  0  0  0  0  0  0  0  0  0  0
    5.8912    0.3843   15.4874 C   0  0  0  0  0  0  0  0  0  0  0  0
    5.6000   -0.5403   16.4969 C   0  0  0  0  0  0  0  0  0  0  0  0
    4.3900   -1.0499   16.3863 N   0  0  0  0  0  0  0  0  0  0  0  0
    3.8285   -0.3910   15.3363 C   0  0  0  0  0  0  0  0  0  0  0  0
    2.6272    2.1508   12.1213 C   0  0  0  0  0  0  0  0  0  0  0  0
    3.5370    2.6346   11.1631 C   0  0  0  0  0  0  0  0  0  0  0  0
    3.1492    3.4622   10.1085 C   0  0  0  0  0  0  0  0  0  0  0  0
    1.8011    3.8208   10.0156 C   0  0  0  0  0  0  0  0  0  0  0  0
    0.9990    4.5979    9.1271 C   0  0  0  0  0  0  0  0  0  0  0  0
   -0.2497    4.6170    9.5128 N   0  0  0  0  0  0  0  0  0  0  0  0
   -0.3315    3.8838   10.6343 N   0  0  0  0  0  0  0  0  0  0  0  0
    0.8874    3.3527   10.9946 C   0  0  0  0  0  0  0  0  0  0  0  0
    1.2729    2.5247   12.0514 C   0  0  0  0  0  0  0  0  0  0  0  0
   -0.3672   -2.5916   15.8262 C   0  0  0  0  0  0  0  0  0  0  0  0
   -1.7168   -2.8552   15.6739 C   0  0  0  0  0  0  0  0  0  0  0  0
   -5.1681   -4.7705   16.8844 H   0  0  0  0  0  0  0  0  0  0  0  0
   -6.8064   -4.0390   16.9683 H   0  0  0  0  0  0  0  0  0  0  0  0
   -6.4606   -5.3323   15.7707 H   0  0  0  0  0  0  0  0  0  0  0  0
   -6.4580   -2.3321   13.8786 H   0  0  0  0  0  0  0  0  0  0  0  0
   -5.3055   -1.2992   15.8742 H   0  0  0  0  0  0  0  0  0  0  0  0
   -4.3393   -2.4837   16.8177 H   0  0  0  0  0  0  0  0  0  0  0  0
   -3.7836   -4.5587   14.8924 H   0  0  0  0  0  0  0  0  0  0  0  0
   -4.5919   -3.9613   13.4036 H   0  0  0  0  0  0  0  0  0  0  0  0
   -2.2620   -2.8162   13.9824 H   0  0  0  0  0  0  0  0  0  0  0  0
   -2.4902   -0.4931   13.3553 H   0  0  0  0  0  0  0  0  0  0  0  0
   -0.0718   -0.0199   13.6204 H   0  0  0  0  0  0  0  0  0  0  0  0
    5.1414    1.9390   13.2429 H   0  0  0  0  0  0  0  0  0  0  0  0
    6.8256    0.8996   15.3209 H   0  0  0  0  0  0  0  0  0  0  0  0
    6.2923   -0.8072   17.2817 H   0  0  0  0  0  0  0  0  0  0  0  0
    4.5766    2.3543   11.2471 H   0  0  0  0  0  0  0  0  0  0  0  0
    3.7299    4.3927   10.1927 H   0  0  0  0  0  0  0  0  0  0  0  0
    3.4155    2.9470    9.1738 H   0  0  0  0  0  0  0  0  0  0  0  0
    1.3748    5.1042    8.2503 H   0  0  0  0  0  0  0  0  0  0  0  0
    0.5586    2.1846   12.7866 H   0  0  0  0  0  0  0  0  0  0  0  0
    0.2235   -3.1840   16.5093 H   0  0  0  0  0  0  0  0  0  0  0  0
   -2.1807   -3.6478   16.2422 H   0  0  0  0  0  0  0  0  0  0  0  0
  1  2  1  0  0  0  0
  2  3  1  0  0  0  0
  2  4  1  0  0  0  0
  2  6  1  0  0  0  0
  4  5  1  0  0  0  0
  5  6  1  0  0  0  0
  5  7  1  0  0  0  0
  7  8  1  0  0  0  0
  7 31  1  0  0  0  0
  8  9  2  0  0  0  0
  9 10  1  0  0  0  0
 10 11  2  0  0  0  0
 10 30  1  0  0  0  0
 11 12  1  0  0  0  0
 12 13  2  0  0  0  0
 12 20  1  0  0  0  0
 13 14  1  0  0  0  0
 14 15  2  0  0  0  0
 14 21  1  0  0  0  0
 15 16  1  0  0  0  0
 16 17  1  0  0  0  0
 16 20  1  0  0  0  0
 17 18  2  0  0  0  0
 18 19  1  0  0  0  0
 19 20  2  0  0  0  0
 21 22  2  0  0  0  0
 21 29  1  0  0  0  0
 22 23  1  0  0  0  0
 23 24  1  0  0  0  0
 24 25  2  0  0  0  0
 24 28  1  0  0  0  0
 25 26  1  0  0  0  0
 26 27  2  0  0  0  0
 27 28  1  0  0  0  0
 28 29  2  0  0  0  0
 30 31  2  0  0  0  0
  1 32  1  0  0  0  0
  1 33  1  0  0  0  0
  1 34  1  0  0  0  0
  3 35  1  0  0  0  0
  4 36  1  0  0  0  0
  4 37  1  0  0  0  0
  6 38  1  0  0  0  0
  6 39  1  0  0  0  0
  7 40  1  0  0  0  0
  8 41  1  0  0  0  0
  9 42  1  0  0  0  0
 15 43  1  0  0  0  0
 17 44  1  0  0  0  0
 18 45  1  0  0  0  0
 22 46  1  0  0  0  0
 23 47  1  0  0  0  0
 23 48  1  0  0  0  0
 25 49  1  0  0  0  0
 29 50  1  0  0  0  0
 30 51  1  0  0  0  0
 31 52  1  0  0  0  0
M  END
> <IC50[nM]>
3.9

$$$$
CHEMBL3265030_n
  -OEChem-05192314333D
 Structure written by MMmdl.
 52 57  0     0  0  0  0  0  0999 V2000
   -6.0443   -4.4602   16.2962 C   0  0  0  0  0  0  0  0  0  0  0  0
   -5.6240   -3.4001   15.2728 C   0  0  0  0  0  0  0  0  0  0  0  0
   -6.7329   -2.9884   14.5080 O   0  0  0  0  0  0  0  0  0  0  0  0
   -4.7833   -2.2666   15.8350 C   0  0  0  0  0  0  0  0  0  0  0  0
   -3.8370   -2.3937   14.7064 N   0  0  0  0  0  0  0  0  0  0  0  0
   -4.3873   -3.7457   14.4627 C   0  0  0  0  0  0  0  0  0  0  0  0
   -2.4739   -2.0989   14.7890 C   0  0  0  0  0  0  0  0  0  0  0  0
   -1.8935   -1.0737   14.0433 C   0  0  0  0  0  0  0  0  0  0  0  0
   -0.5352   -0.8073   14.1963 C   0  0  0  0  0  0  0  0  0  0  0  0
    0.2332   -1.5617   15.0991 C   0  0  0  0  0  0  0  0  0  0  0  0
    1.5948   -1.3216   15.3436 N   0  0  0  0  0  0  0  0  0  0  0  0
    2.5323   -0.4320   14.7835 C   0  0  0  0  0  0  0  0  0  0  0  0
    2.1832    0.3856   13.7527 N   0  0  0  0  0  0  0  0  0  0  0  0
    3.0997    1.2392   13.2138 C   0  0  0  0  0  0  0  0  0  0  0  0
    4.4085    1.2886   13.6971 C   0  0  0  0  0  0  0  0  0  0  0  0
    4.7393    0.4966   14.7557 N   0  0  0  0  0  0  0  0  0  0  0  0
    5.8912    0.3843   15.4874 C   0  0  0  0  0  0  0  0  0  0  0  0
    5.6000   -0.5403   16.4969 C   0  0  0  0  0  0  0  0  0  0  0  0
    4.3900   -1.0499   16.3863 N   0  0  0  0  0  0  0  0  0  0  0  0
    3.8285   -0.3910   15.3363 C   0  0  0  0  0  0  0  0  0  0  0  0
    2.6272    2.1508   12.1213 C   0  0  0  0  0  0  0  0  0  0  0  0
    3.5370    2.6346   11.1631 C   0  0  0  0  0  0  0  0  0  0  0  0
    3.1492    3.4622   10.1085 C   0  0  0  0  0  0  0  0  0  0  0  0
    1.8011    3.8208   10.0156 C   0  0  0  0  0  0  0  0  0  0  0  0
    0.9990    4.5979    9.1271 C   0  0  0  0  0  0  0  0  0  0  0  0
   -0.2497    4.6170    9.5128 N   0  0  0  0  0  0  0  0  0  0  0  0
   -0.3315    3.8838   10.6343 N   0  0  0  0  0  0  0  0  0  0  0  0
    0.8874    3.3527   10.9946 C   0  0  0  0  0  0  0  0  0  0  0  0
    1.2729    2.5247   12.0514 C   0  0  0  0  0  0  0  0  0  0  0  0
   -0.3672   -2.5916   15.8262 C   0  0  0  0  0  0  0  0  0  0  0  0
   -1.7168   -2.8552   15.6739 C   0  0  0  0  0  0  0  0  0  0  0  0
   -5.1681   -4.7705   16.8844 H   0  0  0  0  0  0  0  0  0  0  0  0
   -6.8064   -4.0390   16.9683 H   0  0  0  0  0  0  0  0  0  0  0  0
   -6.4606   -5.3323   15.7707 H   0  0  0  0  0  0  0  0  0  0  0  0
   -6.4580   -2.3321   13.8786 H   0  0  0  0  0  0  0  0  0  0  0  0
   -5.3055   -1.2992   15.8742 H   0  0  0  0  0  0  0  0  0  0  0  0
   -4.3393   -2.4837   16.8177 H   0  0  0  0  0  0  0  0  0  0  0  0
   -3.7836   -4.5587   14.8924 H   0  0  0  0  0  0  0  0  0  0  0  0
   -4.5919   -3.9613   13.4036 H   0  0  0  0  0  0  0  0  0  0  0  0
   -2.4902   -0.4931   13.3553 H   0  0  0  0  0  0  0  0  0  0  0  0
   -0.0718   -0.0199   13.6204 H   0  0  0  0  0  0  0  0  0  0  0  0
    5.1414    1.9390   13.2429 H   0  0  0  0  0  0  0  0  0  0  0  0
    6.8256    0.8996   15.3209 H   0  0  0  0  0  0  0  0  0  0  0  0
    6.2923   -0.8072   17.2817 H   0  0  0  0  0  0  0  0  0  0  0  0
    4.5766    2.3543   11.2471 H   0  0  0  0  0  0  0  0  0  0  0  0
    3.7299    4.3927   10.1927 H   0  0  0  0  0  0  0  0  0  0  0  0
    3.4155    2.9470    9.1738 H   0  0  0  0  0  0  0  0  0  0  0  0
    1.3748    5.1042    8.2503 H   0  0  0  0  0  0  0  0  0  0  0  0
    0.5586    2.1846   12.7866 H   0  0  0  0  0  0  0  0  0  0  0  0
    0.1676   -3.5168   15.5655 H   0  0  0  0  0  0  0  0  0  0  0  0
   -0.2073   -2.3630   16.8902 H   0  0  0  0  0  0  0  0  0  0  0  0
   -2.1807   -3.6478   16.2422 H   0  0  0  0  0  0  0  0  0  0  0  0
  1  2  1  0  0  0  0
  2  3  1  0  0  0  0
  2  4  1  0  0  0  0
  2  6  1  0  0  0  0
  4  5  1  0  0  0  0
  5  6  1  0  0  0  0
  5  7  1  0  0  0  0
  7  8  1  0  0  0  0
  7 31  2  0  0  0  0
  8  9  2  0  0  0  0
  9 10  1  0  0  0  0
 10 11  2  0  0  0  0
 10 30  1  0  0  0  0
 11 12  1  0  0  0  0
 12 13  2  0  0  0  0
 12 20  1  0  0  0  0
 13 14  1  0  0  0  0
 14 15  2  0  0  0  0
 14 21  1  0  0  0  0
 15 16  1  0  0  0  0
 16 17  1  0  0  0  0
 16 20  1  0  0  0  0
 17 18  2  0  0  0  0
 18 19  1  0  0  0  0
 19 20  2  0  0  0  0
 21 22  2  0  0  0  0
 21 29  1  0  0  0  0
 22 23  1  0  0  0  0
 23 24  1  0  0  0  0
 24 25  2  0  0  0  0
 24 28  1  0  0  0  0
 25 26  1  0  0  0  0
 26 27  2  0  0  0  0
 27 28  1  0  0  0  0
 28 29  2  0  0  0  0
 30 31  1  0  0  0  0
  1 32  1  0  0  0  0
  1 33  1  0  0  0  0
  1 34  1  0  0  0  0
  3 35  1  0  0  0  0
  4 36  1  0  0  0  0
  4 37  1  0  0  0  0
  6 38  1  0  0  0  0
  6 39  1  0  0  0  0
  8 40  1  0  0  0  0
  9 41  1  0  0  0  0
 15 42  1  0  0  0  0
 17 43  1  0  0  0  0
 18 44  1  0  0  0  0
 22 45  1  0  0  0  0
 23 46  1  0  0  0  0
 23 47  1  0  0  0  0
 25 48  1  0  0  0  0
 29 49  1  0  0  0  0
 30 50  1  0  0  0  0
 30 51  1  0  0  0  0
 31 52  1  0  0  0  0
M  END
> <IC50[nM]>
3.9

$$$$
