CHEMBL3264995
  -OEChem-05192314333D
 Structure written by MMmdl.
 61 65  0     0  0  0  0  0  0999 V2000
   -4.2563   -3.1062   13.5664 C   0  0  0  0  0  0  0  0  0  0  0  0
   -3.8728   -2.3593   14.7106 O   0  0  0  0  0  0  0  0  0  0  0  0
   -2.5249   -2.1101   14.8131 C   0  0  0  0  0  0  0  0  0  0  0  0
   -1.7501   -2.8737   15.6749 C   0  0  0  0  0  0  0  0  0  0  0  0
   -0.3910   -2.6176   15.8092 C   0  0  0  0  0  0  0  0  0  0  0  0
    0.2227   -1.5905   15.0869 C   0  0  0  0  0  0  0  0  0  0  0  0
    1.6077   -1.3711   15.3228 N   0  0  0  0  0  0  0  0  0  0  0  0
    2.5318   -0.4406   14.7752 C   0  0  0  0  0  0  0  0  0  0  0  0
    2.1656    0.3957   13.7562 N   0  0  0  0  0  0  0  0  0  0  0  0
    3.1117    1.2369   13.2296 C   0  0  0  0  0  0  0  0  0  0  0  0
    4.4129    1.2745   13.7026 C   0  0  0  0  0  0  0  0  0  0  0  0
    4.7445    0.4891   14.7604 N   0  0  0  0  0  0  0  0  0  0  0  0
    5.8979    0.3839   15.4837 C   0  0  0  0  0  0  0  0  0  0  0  0
    5.5998   -0.5411   16.5157 C   0  0  0  0  0  0  0  0  0  0  0  0
    4.3864   -1.0537   16.3628 N   0  0  0  0  0  0  0  0  0  0  0  0
    3.8368   -0.3920   15.3291 C   0  0  0  0  0  0  0  0  0  0  0  0
    2.6550    2.1423   12.1326 C   0  0  0  0  0  0  0  0  0  0  0  0
    3.5650    2.6308   11.1723 C   0  0  0  0  0  0  0  0  0  0  0  0
    3.1221    3.4386   10.1249 C   0  0  0  0  0  0  0  0  0  0  0  0
    1.7757    3.7777   10.0261 C   0  0  0  0  0  0  0  0  0  0  0  0
    0.8680    3.3392   10.9975 C   0  0  0  0  0  0  0  0  0  0  0  0
    1.3092    2.5240   12.0437 C   0  0  0  0  0  0  0  0  0  0  0  0
   -0.5769    3.7618   10.9126 C   0  0  0  0  0  0  0  0  0  0  0  0
   -1.1111    3.9318    9.8164 O   0  0  0  0  0  0  0  0  0  0  0  0
   -1.1792    4.0031   12.1232 N   0  0  0  0  0  0  0  0  0  0  0  0
   -2.4941    4.5708   12.2428 C   0  0  0  0  0  0  0  0  0  0  0  0
   -3.4732    4.3742   11.2553 C   0  0  0  0  0  0  0  0  0  0  0  0
   -4.7281    4.9504   11.3975 C   0  0  0  0  0  0  0  0  0  0  0  0
   -5.0306    5.7263   12.5247 C   0  0  0  0  0  0  0  0  0  0  0  0
   -4.0556    5.9172   13.5169 C   0  0  0  0  0  0  0  0  0  0  0  0
   -2.7906    5.3372   13.3771 C   0  0  0  0  0  0  0  0  0  0  0  0
   -6.3945    6.3441   12.6680 C   0  0  0  0  0  0  0  0  0  0  0  0
   -7.2177    6.1258   11.7478 O   0  0  0  0  0  0  0  0  0  0  0  0
   -6.6066    7.0283   13.6967 O   0  0  0  0  0  0  0  0  0  0  0  0
   -0.5540   -0.8141   14.1957 C   0  0  0  0  0  0  0  0  0  0  0  0
   -1.9401   -1.0806   14.0641 C   0  0  0  0  0  0  0  0  0  0  0  0
   -2.7443   -0.3364   13.2160 O   0  0  0  0  0  0  0  0  0  0  0  0
   -2.2132    0.6462   12.3458 C   0  0  0  0  0  0  0  0  0  0  0  0
   -5.3463   -3.2537   13.5726 H   0  0  0  0  0  0  0  0  0  0  0  0
   -3.9656   -2.5593   12.6573 H   0  0  0  0  0  0  0  0  0  0  0  0
   -3.7539   -4.0847   13.5821 H   0  0  0  0  0  0  0  0  0  0  0  0
   -2.2056   -3.6707   16.2438 H   0  0  0  0  0  0  0  0  0  0  0  0
    0.2000   -3.2214   16.4819 H   0  0  0  0  0  0  0  0  0  0  0  0
    2.0065   -1.9875   16.0018 H   0  0  0  0  0  0  0  0  0  0  0  0
    5.1490    1.9152   13.2399 H   0  0  0  0  0  0  0  0  0  0  0  0
    6.8334    0.8942   15.3079 H   0  0  0  0  0  0  0  0  0  0  0  0
    6.2729   -0.7951   17.3212 H   0  0  0  0  0  0  0  0  0  0  0  0
    4.6122    2.3777   11.2484 H   0  0  0  0  0  0  0  0  0  0  0  0
    3.8249    3.8015    9.3895 H   0  0  0  0  0  0  0  0  0  0  0  0
    1.4307    4.3801    9.1987 H   0  0  0  0  0  0  0  0  0  0  0  0
    0.6066    2.1850   12.7906 H   0  0  0  0  0  0  0  0  0  0  0  0
   -0.6804    3.7735   12.9589 H   0  0  0  0  0  0  0  0  0  0  0  0
   -3.2498    3.7747   10.3852 H   0  0  0  0  0  0  0  0  0  0  0  0
   -5.4768    4.7997   10.6339 H   0  0  0  0  0  0  0  0  0  0  0  0
   -4.2827    6.5125   14.3889 H   0  0  0  0  0  0  0  0  0  0  0  0
   -2.0429    5.4802   14.1432 H   0  0  0  0  0  0  0  0  0  0  0  0
   -7.4956    7.3626   13.6775 H   0  0  0  0  0  0  0  0  0  0  0  0
   -0.0946   -0.0243   13.6199 H   0  0  0  0  0  0  0  0  0  0  0  0
   -3.0297    1.1072   11.7706 H   0  0  0  0  0  0  0  0  0  0  0  0
   -1.6988    1.4190   12.9359 H   0  0  0  0  0  0  0  0  0  0  0  0
   -1.4981    0.1759   11.6548 H   0  0  0  0  0  0  0  0  0  0  0  0
  1  2  1  0  0  0  0
  2  3  1  0  0  0  0
  3  4  2  0  0  0  0
  3 36  1  0  0  0  0
  4  5  1  0  0  0  0
  5  6  2  0  0  0  0
  6  7  1  0  0  0  0
  6 35  1  0  0  0  0
  7  8  1  0  0  0  0
  8  9  2  0  0  0  0
  8 16  1  0  0  0  0
  9 10  1  0  0  0  0
 10 11  2  0  0  0  0
 10 17  1  0  0  0  0
 11 12  1  0  0  0  0
 12 13  1  0  0  0  0
 12 16  1  0  0  0  0
 13 14  2  0  0  0  0
 14 15  1  0  0  0  0
 15 16  2  0  0  0  0
 17 18  2  0  0  0  0
 17 22  1  0  0  0  0
 18 19  1  0  0  0  0
 19 20  2  0  0  0  0
 20 21  1  0  0  0  0
 21 22  2  0  0  0  0
 21 23  1  0  0  0  0
 23 24  2  0  0  0  0
 23 25  1  0  0  0  0
 25 26  1  0  0  0  0
 26 27  2  0  0  0  0
 26 31  1  0  0  0  0
 27 28  1  0  0  0  0
 28 29  2  0  0  0  0
 29 30  1  0  0  0  0
 29 32  1  0  0  0  0
 30 31  2  0  0  0  0
 32 33  2  0  0  0  0
 32 34  1  0  0  0  0
 35 36  2  0  0  0  0
 36 37  1  0  0  0  0
 37 38  1  0  0  0  0
  1 39  1  0  0  0  0
  1 40  1  0  0  0  0
  1 41  1  0  0  0  0
  4 42  1  0  0  0  0
  5 43  1  0  0  0  0
  7 44  1  0  0  0  0
 11 45  1  0  0  0  0
 13 46  1  0  0  0  0
 14 47  1  0  0  0  0
 18 48  1  0  0  0  0
 19 49  1  0  0  0  0
 20 50  1  0  0  0  0
 22 51  1  0  0  0  0
 25 52  1  0  0  0  0
 27 53  1  0  0  0  0
 28 54  1  0  0  0  0
 30 55  1  0  0  0  0
 31 56  1  0  0  0  0
 34 57  1  0  0  0  0
 35 58  1  0  0  0  0
 38 59  1  0  0  0  0
 38 60  1  0  0  0  0
 38 61  1  0  0  0  0
M  END
> <IC50[nM]>
0.84

$$$$
CHEMBL3264995
  -OEChem-05192314333D
 Structure written by MMmdl.
 61 65  0     0  0  0  0  0  0999 V2000
   -4.2563   -3.1062   13.5664 C   0  0  0  0  0  0  0  0  0  0  0  0
   -3.8728   -2.3593   14.7106 O   0  0  0  0  0  0  0  0  0  0  0  0
   -2.5249   -2.1101   14.8131 C   0  0  0  0  0  0  0  0  0  0  0  0
   -1.7501   -2.8737   15.6749 C   0  0  0  0  0  0  0  0  0  0  0  0
   -0.3910   -2.6176   15.8092 C   0  0  0  0  0  0  0  0  0  0  0  0
    0.2227   -1.5905   15.0869 C   0  0  0  0  0  0  0  0  0  0  0  0
    1.6077   -1.3711   15.3228 N   0  0  0  0  0  0  0  0  0  0  0  0
    2.5318   -0.4406   14.7752 C   0  0  0  0  0  0  0  0  0  0  0  0
    2.1656    0.3957   13.7562 N   0  0  0  0  0  0  0  0  0  0  0  0
    3.1117    1.2369   13.2296 C   0  0  0  0  0  0  0  0  0  0  0  0
    4.4129    1.2745   13.7026 C   0  0  0  0  0  0  0  0  0  0  0  0
    4.7445    0.4891   14.7604 N   0  0  0  0  0  0  0  0  0  0  0  0
    5.8979    0.3839   15.4837 C   0  0  0  0  0  0  0  0  0  0  0  0
    5.5998   -0.5411   16.5157 C   0  0  0  0  0  0  0  0  0  0  0  0
    4.3864   -1.0537   16.3628 N   0  0  0  0  0  0  0  0  0  0  0  0
    3.8368   -0.3920   15.3291 C   0  0  0  0  0  0  0  0  0  0  0  0
    2.6550    2.1423   12.1326 C   0  0  0  0  0  0  0  0  0  0  0  0
    3.5650    2.6308   11.1723 C   0  0  0  0  0  0  0  0  0  0  0  0
    3.1221    3.4386   10.1249 C   0  0  0  0  0  0  0  0  0  0  0  0
    1.7757    3.7777   10.0261 C   0  0  0  0  0  0  0  0  0  0  0  0
    0.8680    3.3392   10.9975 C   0  0  0  0  0  0  0  0  0  0  0  0
    1.3092    2.5240   12.0437 C   0  0  0  0  0  0  0  0  0  0  0  0
   -0.5769    3.7618   10.9126 C   0  0  0  0  0  0  0  0  0  0  0  0
   -1.1111    3.9318    9.8164 O   0  0  0  0  0  0  0  0  0  0  0  0
   -1.1792    4.0031   12.1232 N   0  0  0  0  0  0  0  0  0  0  0  0
   -2.4941    4.5708   12.2428 C   0  0  0  0  0  0  0  0  0  0  0  0
   -3.4732    4.3742   11.2553 C   0  0  0  0  0  0  0  0  0  0  0  0
   -4.7281    4.9504   11.3975 C   0  0  0  0  0  0  0  0  0  0  0  0
   -5.0306    5.7263   12.5247 C   0  0  0  0  0  0  0  0  0  0  0  0
   -4.0556    5.9172   13.5169 C   0  0  0  0  0  0  0  0  0  0  0  0
   -2.7906    5.3372   13.3771 C   0  0  0  0  0  0  0  0  0  0  0  0
   -6.3945    6.3441   12.6680 C   0  0  0  0  0  0  0  0  0  0  0  0
   -7.2177    6.1258   11.7478 O   0  0  0  0  0  0  0  0  0  0  0  0
   -6.6066    7.0283   13.6967 O   0  0  0  0  0  0  0  0  0  0  0  0
   -0.5540   -0.8141   14.1957 C   0  0  0  0  0  0  0  0  0  0  0  0
   -1.9401   -1.0806   14.0641 C   0  0  0  0  0  0  0  0  0  0  0  0
   -2.7443   -0.3364   13.2160 O   0  0  0  0  0  0  0  0  0  0  0  0
   -2.2132    0.6462   12.3458 C   0  0  0  0  0  0  0  0  0  0  0  0
   -5.3463   -3.2537   13.5726 H   0  0  0  0  0  0  0  0  0  0  0  0
   -3.9656   -2.5593   12.6573 H   0  0  0  0  0  0  0  0  0  0  0  0
   -3.7539   -4.0847   13.5821 H   0  0  0  0  0  0  0  0  0  0  0  0
   -2.2056   -3.6707   16.2438 H   0  0  0  0  0  0  0  0  0  0  0  0
    0.2000   -3.2214   16.4819 H   0  0  0  0  0  0  0  0  0  0  0  0
    2.0065   -1.9875   16.0018 H   0  0  0  0  0  0  0  0  0  0  0  0
    5.1490    1.9152   13.2399 H   0  0  0  0  0  0  0  0  0  0  0  0
    6.8334    0.8942   15.3079 H   0  0  0  0  0  0  0  0  0  0  0  0
    6.2729   -0.7951   17.3212 H   0  0  0  0  0  0  0  0  0  0  0  0
    4.6122    2.3777   11.2484 H   0  0  0  0  0  0  0  0  0  0  0  0
    3.8249    3.8015    9.3895 H   0  0  0  0  0  0  0  0  0  0  0  0
    1.4307    4.3801    9.1987 H   0  0  0  0  0  0  0  0  0  0  0  0
    0.6066    2.1850   12.7906 H   0  0  0  0  0  0  0  0  0  0  0  0
   -2.0156    4.1940    9.9416 H   0  0  0  0  0  0  0  0  0  0  0  0
   -3.2498    3.7747   10.3852 H   0  0  0  0  0  0  0  0  0  0  0  0
   -5.4768    4.7997   10.6339 H   0  0  0  0  0  0  0  0  0  0  0  0
   -4.2827    6.5125   14.3889 H   0  0  0  0  0  0  0  0  0  0  0  0
   -2.0429    5.4802   14.1432 H   0  0  0  0  0  0  0  0  0  0  0  0
   -7.4956    7.3626   13.6775 H   0  0  0  0  0  0  0  0  0  0  0  0
   -0.0946   -0.0243   13.6199 H   0  0  0  0  0  0  0  0  0  0  0  0
   -3.0297    1.1072   11.7706 H   0  0  0  0  0  0  0  0  0  0  0  0
   -1.6988    1.4190   12.9359 H   0  0  0  0  0  0  0  0  0  0  0  0
   -1.4981    0.1759   11.6548 H   0  0  0  0  0  0  0  0  0  0  0  0
  1  2  1  0  0  0  0
  2  3  1  0  0  0  0
  3  4  2  0  0  0  0
  3 36  1  0  0  0  0
  4  5  1  0  0  0  0
  5  6  2  0  0  0  0
  6  7  1  0  0  0  0
  6 35  1  0  0  0  0
  7  8  1  0  0  0  0
  8  9  2  0  0  0  0
  8 16  1  0  0  0  0
  9 10  1  0  0  0  0
 10 11  2  0  0  0  0
 10 17  1  0  0  0  0
 11 12  1  0  0  0  0
 12 13  1  0  0  0  0
 12 16  1  0  0  0  0
 13 14  2  0  0  0  0
 14 15  1  0  0  0  0
 15 16  2  0  0  0  0
 17 18  2  0  0  0  0
 17 22  1  0  0  0  0
 18 19  1  0  0  0  0
 19 20  2  0  0  0  0
 20 21  1  0  0  0  0
 21 22  2  0  0  0  0
 21 23  1  0  0  0  0
 23 24  1  0  0  0  0
 23 25  2  0  0  0  0
 25 26  1  0  0  0  0
 26 27  2  0  0  0  0
 26 31  1  0  0  0  0
 27 28  1  0  0  0  0
 28 29  2  0  0  0  0
 29 30  1  0  0  0  0
 29 32  1  0  0  0  0
 30 31  2  0  0  0  0
 32 33  2  0  0  0  0
 32 34  1  0  0  0  0
 35 36  2  0  0  0  0
 36 37  1  0  0  0  0
 37 38  1  0  0  0  0
  1 39  1  0  0  0  0
  1 40  1  0  0  0  0
  1 41  1  0  0  0  0
  4 42  1  0  0  0  0
  5 43  1  0  0  0  0
  7 44  1  0  0  0  0
 11 45  1  0  0  0  0
 13 46  1  0  0  0  0
 14 47  1  0  0  0  0
 18 48  1  0  0  0  0
 19 49  1  0  0  0  0
 20 50  1  0  0  0  0
 22 51  1  0  0  0  0
 24 52  1  0  0  0  0
 27 53  1  0  0  0  0
 28 54  1  0  0  0  0
 30 55  1  0  0  0  0
 31 56  1  0  0  0  0
 34 57  1  0  0  0  0
 35 58  1  0  0  0  0
 38 59  1  0  0  0  0
 38 60  1  0  0  0  0
 38 61  1  0  0  0  0
M  END
> <IC50[nM]>
0.84

$$$$
CHEMBL3264995
  -OEChem-05192314333D
 Structure written by MMmdl.
 61 65  0     0  0  0  0  0  0999 V2000
   -4.2563   -3.1062   13.5664 C   0  0  0  0  0  0  0  0  0  0  0  0
   -3.8728   -2.3593   14.7106 O   0  0  0  0  0  0  0  0  0  0  0  0
   -2.5249   -2.1101   14.8131 C   0  0  0  0  0  0  0  0  0  0  0  0
   -1.7501   -2.8737   15.6749 C   0  0  0  0  0  0  0  0  0  0  0  0
   -0.3910   -2.6176   15.8092 C   0  0  0  0  0  0  0  0  0  0  0  0
    0.2227   -1.5905   15.0869 C   0  0  0  0  0  0  0  0  0  0  0  0
    1.6077   -1.3711   15.3228 N   0  0  0  0  0  0  0  0  0  0  0  0
    2.5318   -0.4406   14.7752 C   0  0  0  0  0  0  0  0  0  0  0  0
    2.1656    0.3957   13.7562 N   0  0  0  0  0  0  0  0  0  0  0  0
    3.1117    1.2369   13.2296 C   0  0  0  0  0  0  0  0  0  0  0  0
    4.4129    1.2745   13.7026 C   0  0  0  0  0  0  0  0  0  0  0  0
    4.7445    0.4891   14.7604 N   0  0  0  0  0  0  0  0  0  0  0  0
    5.8979    0.3839   15.4837 C   0  0  0  0  0  0  0  0  0  0  0  0
    5.5998   -0.5411   16.5157 C   0  0  0  0  0  0  0  0  0  0  0  0
    4.3864   -1.0537   16.3628 N   0  0  0  0  0  0  0  0  0  0  0  0
    3.8368   -0.3920   15.3291 C   0  0  0  0  0  0  0  0  0  0  0  0
    2.6550    2.1423   12.1326 C   0  0  0  0  0  0  0  0  0  0  0  0
    3.5650    2.6308   11.1723 C   0  0  0  0  0  0  0  0  0  0  0  0
    3.1221    3.4386   10.1249 C   0  0  0  0  0  0  0  0  0  0  0  0
    1.7757    3.7777   10.0261 C   0  0  0  0  0  0  0  0  0  0  0  0
    0.8680    3.3392   10.9975 C   0  0  0  0  0  0  0  0  0  0  0  0
    1.3092    2.5240   12.0437 C   0  0  0  0  0  0  0  0  0  0  0  0
   -0.5769    3.7618   10.9126 C   0  0  0  0  0  0  0  0  0  0  0  0
   -1.1111    3.9318    9.8164 O   0  0  0  0  0  0  0  0  0  0  0  0
   -1.1792    4.0031   12.1232 N   0  0  0  0  0  0  0  0  0  0  0  0
   -2.4941    4.5708   12.2428 C   0  0  0  0  0  0  0  0  0  0  0  0
   -3.4732    4.3742   11.2553 C   0  0  0  0  0  0  0  0  0  0  0  0
   -4.7281    4.9504   11.3975 C   0  0  0  0  0  0  0  0  0  0  0  0
   -5.0306    5.7263   12.5247 C   0  0  0  0  0  0  0  0  0  0  0  0
   -4.0556    5.9172   13.5169 C   0  0  0  0  0  0  0  0  0  0  0  0
   -2.7906    5.3372   13.3771 C   0  0  0  0  0  0  0  0  0  0  0  0
   -6.3945    6.3441   12.6680 C   0  0  0  0  0  0  0  0  0  0  0  0
   -7.2177    6.1258   11.7478 O   0  0  0  0  0  0  0  0  0  0  0  0
   -6.6066    7.0283   13.6967 O   0  0  0  0  0  0  0  0  0  0  0  0
   -0.5540   -0.8141   14.1957 C   0  0  0  0  0  0  0  0  0  0  0  0
   -1.9401   -1.0806   14.0641 C   0  0  0  0  0  0  0  0  0  0  0  0
   -2.7443   -0.3364   13.2160 O   0  0  0  0  0  0  0  0  0  0  0  0
   -2.2132    0.6462   12.3458 C   0  0  0  0  0  0  0  0  0  0  0  0
   -5.3463   -3.2537   13.5726 H   0  0  0  0  0  0  0  0  0  0  0  0
   -3.9656   -2.5593   12.6573 H   0  0  0  0  0  0  0  0  0  0  0  0
   -3.7539   -4.0847   13.5821 H   0  0  0  0  0  0  0  0  0  0  0  0
   -2.2056   -3.6707   16.2438 H   0  0  0  0  0  0  0  0  0  0  0  0
    0.2000   -3.2214   16.4819 H   0  0  0  0  0  0  0  0  0  0  0  0
    1.2298    0.3935   13.4037 H   0  0  0  0  0  0  0  0  0  0  0  0
    5.1490    1.9152   13.2399 H   0  0  0  0  0  0  0  0  0  0  0  0
    6.8334    0.8942   15.3079 H   0  0  0  0  0  0  0  0  0  0  0  0
    6.2729   -0.7951   17.3212 H   0  0  0  0  0  0  0  0  0  0  0  0
    4.6122    2.3777   11.2484 H   0  0  0  0  0  0  0  0  0  0  0  0
    3.8249    3.8015    9.3895 H   0  0  0  0  0  0  0  0  0  0  0  0
    1.4307    4.3801    9.1987 H   0  0  0  0  0  0  0  0  0  0  0  0
    0.6066    2.1850   12.7906 H   0  0  0  0  0  0  0  0  0  0  0  0
   -0.6804    3.7735   12.9589 H   0  0  0  0  0  0  0  0  0  0  0  0
   -3.2498    3.7747   10.3852 H   0  0  0  0  0  0  0  0  0  0  0  0
   -5.4768    4.7997   10.6339 H   0  0  0  0  0  0  0  0  0  0  0  0
   -4.2827    6.5125   14.3889 H   0  0  0  0  0  0  0  0  0  0  0  0
   -2.0429    5.4802   14.1432 H   0  0  0  0  0  0  0  0  0  0  0  0
   -7.4956    7.3626   13.6775 H   0  0  0  0  0  0  0  0  0  0  0  0
   -0.0946   -0.0243   13.6199 H   0  0  0  0  0  0  0  0  0  0  0  0
   -3.0297    1.1072   11.7706 H   0  0  0  0  0  0  0  0  0  0  0  0
   -1.6988    1.4190   12.9359 H   0  0  0  0  0  0  0  0  0  0  0  0
   -1.4981    0.1759   11.6548 H   0  0  0  0  0  0  0  0  0  0  0  0
  1  2  1  0  0  0  0
  2  3  1  0  0  0  0
  3  4  2  0  0  0  0
  3 36  1  0  0  0  0
  4  5  1  0  0  0  0
  5  6  2  0  0  0  0
  6  7  1  0  0  0  0
  6 35  1  0  0  0  0
  7  8  2  0  0  0  0
  8  9  1  0  0  0  0
  8 16  1  0  0  0  0
  9 10  1  0  0  0  0
 10 11  2  0  0  0  0
 10 17  1  0  0  0  0
 11 12  1  0  0  0  0
 12 13  1  0  0  0  0
 12 16  1  0  0  0  0
 13 14  2  0  0  0  0
 14 15  1  0  0  0  0
 15 16  2  0  0  0  0
 17 18  2  0  0  0  0
 17 22  1  0  0  0  0
 18 19  1  0  0  0  0
 19 20  2  0  0  0  0
 20 21  1  0  0  0  0
 21 22  2  0  0  0  0
 21 23  1  0  0  0  0
 23 24  2  0  0  0  0
 23 25  1  0  0  0  0
 25 26  1  0  0  0  0
 26 27  2  0  0  0  0
 26 31  1  0  0  0  0
 27 28  1  0  0  0  0
 28 29  2  0  0  0  0
 29 30  1  0  0  0  0
 29 32  1  0  0  0  0
 30 31  2  0  0  0  0
 32 33  2  0  0  0  0
 32 34  1  0  0  0  0
 35 36  2  0  0  0  0
 36 37  1  0  0  0  0
 37 38  1  0  0  0  0
  1 39  1  0  0  0  0
  1 40  1  0  0  0  0
  1 41  1  0  0  0  0
  4 42  1  0  0  0  0
  5 43  1  0  0  0  0
  9 44  1  0  0  0  0
 11 45  1  0  0  0  0
 13 46  1  0  0  0  0
 14 47  1  0  0  0  0
 18 48  1  0  0  0  0
 19 49  1  0  0  0  0
 20 50  1  0  0  0  0
 22 51  1  0  0  0  0
 25 52  1  0  0  0  0
 27 53  1  0  0  0  0
 28 54  1  0  0  0  0
 30 55  1  0  0  0  0
 31 56  1  0  0  0  0
 34 57  1  0  0  0  0
 35 58  1  0  0  0  0
 38 59  1  0  0  0  0
 38 60  1  0  0  0  0
 38 61  1  0  0  0  0
M  END
> <IC50[nM]>
0.84

$$$$
CHEMBL3264995
  -OEChem-05192314333D
 Structure written by MMmdl.
 61 65  0     0  0  0  0  0  0999 V2000
   -4.2563   -3.1062   13.5664 C   0  0  0  0  0  0  0  0  0  0  0  0
   -3.8728   -2.3593   14.7106 O   0  0  0  0  0  0  0  0  0  0  0  0
   -2.5249   -2.1101   14.8131 C   0  0  0  0  0  0  0  0  0  0  0  0
   -1.7501   -2.8737   15.6749 C   0  0  0  0  0  0  0  0  0  0  0  0
   -0.3910   -2.6176   15.8092 C   0  0  0  0  0  0  0  0  0  0  0  0
    0.2227   -1.5905   15.0869 C   0  0  0  0  0  0  0  0  0  0  0  0
    1.6077   -1.3711   15.3228 N   0  0  0  0  0  0  0  0  0  0  0  0
    2.5318   -0.4406   14.7752 C   0  0  0  0  0  0  0  0  0  0  0  0
    2.1656    0.3957   13.7562 N   0  0  0  0  0  0  0  0  0  0  0  0
    3.1117    1.2369   13.2296 C   0  0  0  0  0  0  0  0  0  0  0  0
    4.4129    1.2745   13.7026 C   0  0  0  0  0  0  0  0  0  0  0  0
    4.7445    0.4891   14.7604 N   0  0  0  0  0  0  0  0  0  0  0  0
    5.8979    0.3839   15.4837 C   0  0  0  0  0  0  0  0  0  0  0  0
    5.5998   -0.5411   16.5157 C   0  0  0  0  0  0  0  0  0  0  0  0
    4.3864   -1.0537   16.3628 N   0  0  0  0  0  0  0  0  0  0  0  0
    3.8368   -0.3920   15.3291 C   0  0  0  0  0  0  0  0  0  0  0  0
    2.6550    2.1423   12.1326 C   0  0  0  0  0  0  0  0  0  0  0  0
    3.5650    2.6308   11.1723 C   0  0  0  0  0  0  0  0  0  0  0  0
    3.1221    3.4386   10.1249 C   0  0  0  0  0  0  0  0  0  0  0  0
    1.7757    3.7777   10.0261 C   0  0  0  0  0  0  0  0  0  0  0  0
    0.8680    3.3392   10.9975 C   0  0  0  0  0  0  0  0  0  0  0  0
    1.3092    2.5240   12.0437 C   0  0  0  0  0  0  0  0  0  0  0  0
   -0.5769    3.7618   10.9126 C   0  0  0  0  0  0  0  0  0  0  0  0
   -1.1111    3.9318    9.8164 O   0  0  0  0  0  0  0  0  0  0  0  0
   -1.1792    4.0031   12.1232 N   0  0  0  0  0  0  0  0  0  0  0  0
   -2.4941    4.5708   12.2428 C   0  0  0  0  0  0  0  0  0  0  0  0
   -3.4732    4.3742   11.2553 C   0  0  0  0  0  0  0  0  0  0  0  0
   -4.7281    4.9504   11.3975 C   0  0  0  0  0  0  0  0  0  0  0  0
   -5.0306    5.7263   12.5247 C   0  0  0  0  0  0  0  0  0  0  0  0
   -4.0556    5.9172   13.5169 C   0  0  0  0  0  0  0  0  0  0  0  0
   -2.7906    5.3372   13.3771 C   0  0  0  0  0  0  0  0  0  0  0  0
   -6.3945    6.3441   12.6680 C   0  0  0  0  0  0  0  0  0  0  0  0
   -7.2177    6.1258   11.7478 O   0  0  0  0  0  0  0  0  0  0  0  0
   -6.6066    7.0283   13.6967 O   0  0  0  0  0  0  0  0  0  0  0  0
   -0.5540   -0.8141   14.1957 C   0  0  0  0  0  0  0  0  0  0  0  0
   -1.9401   -1.0806   14.0641 C   0  0  0  0  0  0  0  0  0  0  0  0
   -2.7443   -0.3364   13.2160 O   0  0  0  0  0  0  0  0  0  0  0  0
   -2.2132    0.6462   12.3458 C   0  0  0  0  0  0  0  0  0  0  0  0
   -5.3463   -3.2537   13.5726 H   0  0  0  0  0  0  0  0  0  0  0  0
   -3.9656   -2.5593   12.6573 H   0  0  0  0  0  0  0  0  0  0  0  0
   -3.7539   -4.0847   13.5821 H   0  0  0  0  0  0  0  0  0  0  0  0
   -2.2056   -3.6707   16.2438 H   0  0  0  0  0  0  0  0  0  0  0  0
    0.2000   -3.2214   16.4819 H   0  0  0  0  0  0  0  0  0  0  0  0
    1.2298    0.3935   13.4037 H   0  0  0  0  0  0  0  0  0  0  0  0
    5.1490    1.9152   13.2399 H   0  0  0  0  0  0  0  0  0  0  0  0
    6.8334    0.8942   15.3079 H   0  0  0  0  0  0  0  0  0  0  0  0
    6.2729   -0.7951   17.3212 H   0  0  0  0  0  0  0  0  0  0  0  0
    4.6122    2.3777   11.2484 H   0  0  0  0  0  0  0  0  0  0  0  0
    3.8249    3.8015    9.3895 H   0  0  0  0  0  0  0  0  0  0  0  0
    1.4307    4.3801    9.1987 H   0  0  0  0  0  0  0  0  0  0  0  0
    0.6066    2.1850   12.7906 H   0  0  0  0  0  0  0  0  0  0  0  0
   -2.0156    4.1940    9.9416 H   0  0  0  0  0  0  0  0  0  0  0  0
   -3.2498    3.7747   10.3852 H   0  0  0  0  0  0  0  0  0  0  0  0
   -5.4768    4.7997   10.6339 H   0  0  0  0  0  0  0  0  0  0  0  0
   -4.2827    6.5125   14.3889 H   0  0  0  0  0  0  0  0  0  0  0  0
   -2.0429    5.4802   14.1432 H   0  0  0  0  0  0  0  0  0  0  0  0
   -7.4956    7.3626   13.6775 H   0  0  0  0  0  0  0  0  0  0  0  0
   -0.0946   -0.0243   13.6199 H   0  0  0  0  0  0  0  0  0  0  0  0
   -3.0297    1.1072   11.7706 H   0  0  0  0  0  0  0  0  0  0  0  0
   -1.6988    1.4190   12.9359 H   0  0  0  0  0  0  0  0  0  0  0  0
   -1.4981    0.1759   11.6548 H   0  0  0  0  0  0  0  0  0  0  0  0
  1  2  1  0  0  0  0
  2  3  1  0  0  0  0
  3  4  2  0  0  0  0
  3 36  1  0  0  0  0
  4  5  1  0  0  0  0
  5  6  2  0  0  0  0
  6  7  1  0  0  0  0
  6 35  1  0  0  0  0
  7  8  2  0  0  0  0
  8  9  1  0  0  0  0
  8 16  1  0  0  0  0
  9 10  1  0  0  0  0
 10 11  2  0  0  0  0
 10 17  1  0  0  0  0
 11 12  1  0  0  0  0
 12 13  1  0  0  0  0
 12 16  1  0  0  0  0
 13 14  2  0  0  0  0
 14 15  1  0  0  0  0
 15 16  2  0  0  0  0
 17 18  2  0  0  0  0
 17 22  1  0  0  0  0
 18 19  1  0  0  0  0
 19 20  2  0  0  0  0
 20 21  1  0  0  0  0
 21 22  2  0  0  0  0
 21 23  1  0  0  0  0
 23 24  1  0  0  0  0
 23 25  2  0  0  0  0
 25 26  1  0  0  0  0
 26 27  2  0  0  0  0
 26 31  1  0  0  0  0
 27 28  1  0  0  0  0
 28 29  2  0  0  0  0
 29 30  1  0  0  0  0
 29 32  1  0  0  0  0
 30 31  2  0  0  0  0
 32 33  2  0  0  0  0
 32 34  1  0  0  0  0
 35 36  2  0  0  0  0
 36 37  1  0  0  0  0
 37 38  1  0  0  0  0
  1 39  1  0  0  0  0
  1 40  1  0  0  0  0
  1 41  1  0  0  0  0
  4 42  1  0  0  0  0
  5 43  1  0  0  0  0
  9 44  1  0  0  0  0
 11 45  1  0  0  0  0
 13 46  1  0  0  0  0
 14 47  1  0  0  0  0
 18 48  1  0  0  0  0
 19 49  1  0  0  0  0
 20 50  1  0  0  0  0
 22 51  1  0  0  0  0
 24 52  1  0  0  0  0
 27 53  1  0  0  0  0
 28 54  1  0  0  0  0
 30 55  1  0  0  0  0
 31 56  1  0  0  0  0
 34 57  1  0  0  0  0
 35 58  1  0  0  0  0
 38 59  1  0  0  0  0
 38 60  1  0  0  0  0
 38 61  1  0  0  0  0
M  END
> <IC50[nM]>
0.84

$$$$
CHEMBL3264995
  -OEChem-05192314333D
 Structure written by MMmdl.
 61 65  0     0  0  0  0  0  0999 V2000
   -4.2563   -3.1062   13.5664 C   0  0  0  0  0  0  0  0  0  0  0  0
   -3.8728   -2.3593   14.7106 O   0  0  0  0  0  0  0  0  0  0  0  0
   -2.5249   -2.1101   14.8131 C   0  0  0  0  0  0  0  0  0  0  0  0
   -1.7501   -2.8737   15.6749 C   0  0  0  0  0  0  0  0  0  0  0  0
   -0.3910   -2.6176   15.8092 C   0  0  0  0  0  0  0  0  0  0  0  0
    0.2227   -1.5905   15.0869 C   0  0  0  0  0  0  0  0  0  0  0  0
    1.6077   -1.3711   15.3228 N   0  0  0  0  0  0  0  0  0  0  0  0
    2.5318   -0.4406   14.7752 C   0  0  0  0  0  0  0  0  0  0  0  0
    2.1656    0.3957   13.7562 N   0  0  0  0  0  0  0  0  0  0  0  0
    3.1117    1.2369   13.2296 C   0  0  0  0  0  0  0  0  0  0  0  0
    4.4129    1.2745   13.7026 C   0  0  0  0  0  0  0  0  0  0  0  0
    4.7445    0.4891   14.7604 N   0  0  0  0  0  0  0  0  0  0  0  0
    5.8979    0.3839   15.4837 C   0  0  0  0  0  0  0  0  0  0  0  0
    5.5998   -0.5411   16.5157 C   0  0  0  0  0  0  0  0  0  0  0  0
    4.3864   -1.0537   16.3628 N   0  0  0  0  0  0  0  0  0  0  0  0
    3.8368   -0.3920   15.3291 C   0  0  0  0  0  0  0  0  0  0  0  0
    2.6550    2.1423   12.1326 C   0  0  0  0  0  0  0  0  0  0  0  0
    3.5650    2.6308   11.1723 C   0  0  0  0  0  0  0  0  0  0  0  0
    3.1221    3.4386   10.1249 C   0  0  0  0  0  0  0  0  0  0  0  0
    1.7757    3.7777   10.0261 C   0  0  0  0  0  0  0  0  0  0  0  0
    0.8680    3.3392   10.9975 C   0  0  0  0  0  0  0  0  0  0  0  0
    1.3092    2.5240   12.0437 C   0  0  0  0  0  0  0  0  0  0  0  0
   -0.5769    3.7618   10.9126 C   0  0  0  0  0  0  0  0  0  0  0  0
   -1.1111    3.9318    9.8164 O   0  0  0  0  0  0  0  0  0  0  0  0
   -1.1792    4.0031   12.1232 N   0  0  0  0  0  0  0  0  0  0  0  0
   -2.4941    4.5708   12.2428 C   0  0  0  0  0  0  0  0  0  0  0  0
   -3.4732    4.3742   11.2553 C   0  0  0  0  0  0  0  0  0  0  0  0
   -4.7281    4.9504   11.3975 C   0  0  0  0  0  0  0  0  0  0  0  0
   -5.0306    5.7263   12.5247 C   0  0  0  0  0  0  0  0  0  0  0  0
   -4.0556    5.9172   13.5169 C   0  0  0  0  0  0  0  0  0  0  0  0
   -2.7906    5.3372   13.3771 C   0  0  0  0  0  0  0  0  0  0  0  0
   -6.3945    6.3441   12.6680 C   0  0  0  0  0  0  0  0  0  0  0  0
   -7.2177    6.1258   11.7478 O   0  0  0  0  0  0  0  0  0  0  0  0
   -6.6066    7.0283   13.6967 O   0  0  0  0  0  0  0  0  0  0  0  0
   -0.5540   -0.8141   14.1957 C   0  0  0  0  0  0  0  0  0  0  0  0
   -1.9401   -1.0806   14.0641 C   0  0  0  0  0  0  0  0  0  0  0  0
   -2.7443   -0.3364   13.2160 O   0  0  0  0  0  0  0  0  0  0  0  0
   -2.2132    0.6462   12.3458 C   0  0  0  0  0  0  0  0  0  0  0  0
   -5.3463   -3.2537   13.5726 H   0  0  0  0  0  0  0  0  0  0  0  0
   -3.9656   -2.5593   12.6573 H   0  0  0  0  0  0  0  0  0  0  0  0
   -3.7539   -4.0847   13.5821 H   0  0  0  0  0  0  0  0  0  0  0  0
   -2.2056   -3.6707   16.2438 H   0  0  0  0  0  0  0  0  0  0  0  0
    0.2000   -3.2214   16.4819 H   0  0  0  0  0  0  0  0  0  0  0  0
    5.0695    0.9879   12.8679 H   0  0  0  0  0  0  0  0  0  0  0  0
    4.6221    2.3146   13.9932 H   0  0  0  0  0  0  0  0  0  0  0  0
    6.8334    0.8942   15.3079 H   0  0  0  0  0  0  0  0  0  0  0  0
    6.2729   -0.7951   17.3212 H   0  0  0  0  0  0  0  0  0  0  0  0
    4.6122    2.3777   11.2484 H   0  0  0  0  0  0  0  0  0  0  0  0
    3.8249    3.8015    9.3895 H   0  0  0  0  0  0  0  0  0  0  0  0
    1.4307    4.3801    9.1987 H   0  0  0  0  0  0  0  0  0  0  0  0
    0.6066    2.1850   12.7906 H   0  0  0  0  0  0  0  0  0  0  0  0
   -0.6804    3.7735   12.9589 H   0  0  0  0  0  0  0  0  0  0  0  0
   -3.2498    3.7747   10.3852 H   0  0  0  0  0  0  0  0  0  0  0  0
   -5.4768    4.7997   10.6339 H   0  0  0  0  0  0  0  0  0  0  0  0
   -4.2827    6.5125   14.3889 H   0  0  0  0  0  0  0  0  0  0  0  0
   -2.0429    5.4802   14.1432 H   0  0  0  0  0  0  0  0  0  0  0  0
   -7.4956    7.3626   13.6775 H   0  0  0  0  0  0  0  0  0  0  0  0
   -0.0946   -0.0243   13.6199 H   0  0  0  0  0  0  0  0  0  0  0  0
   -3.0297    1.1072   11.7706 H   0  0  0  0  0  0  0  0  0  0  0  0
   -1.6988    1.4190   12.9359 H   0  0  0  0  0  0  0  0  0  0  0  0
   -1.4981    0.1759   11.6548 H   0  0  0  0  0  0  0  0  0  0  0  0
  1  2  1  0  0  0  0
  2  3  1  0  0  0  0
  3  4  2  0  0  0  0
  3 36  1  0  0  0  0
  4  5  1  0  0  0  0
  5  6  2  0  0  0  0
  6  7  1  0  0  0  0
  6 35  1  0  0  0  0
  7  8  2  0  0  0  0
  8  9  1  0  0  0  0
  8 16  1  0  0  0  0
  9 10  2  0  0  0  0
 10 11  1  0  0  0  0
 10 17  1  0  0  0  0
 11 12  1  0  0  0  0
 12 13  1  0  0  0  0
 12 16  1  0  0  0  0
 13 14  2  0  0  0  0
 14 15  1  0  0  0  0
 15 16  2  0  0  0  0
 17 18  2  0  0  0  0
 17 22  1  0  0  0  0
 18 19  1  0  0  0  0
 19 20  2  0  0  0  0
 20 21  1  0  0  0  0
 21 22  2  0  0  0  0
 21 23  1  0  0  0  0
 23 24  2  0  0  0  0
 23 25  1  0  0  0  0
 25 26  1  0  0  0  0
 26 27  2  0  0  0  0
 26 31  1  0  0  0  0
 27 28  1  0  0  0  0
 28 29  2  0  0  0  0
 29 30  1  0  0  0  0
 29 32  1  0  0  0  0
 30 31  2  0  0  0  0
 32 33  2  0  0  0  0
 32 34  1  0  0  0  0
 35 36  2  0  0  0  0
 36 37  1  0  0  0  0
 37 38  1  0  0  0  0
  1 39  1  0  0  0  0
  1 40  1  0  0  0  0
  1 41  1  0  0  0  0
  4 42  1  0  0  0  0
  5 43  1  0  0  0  0
 11 44  1  0  0  0  0
 11 45  1  0  0  0  0
 13 46  1  0  0  0  0
 14 47  1  0  0  0  0
 18 48  1  0  0  0  0
 19 49  1  0  0  0  0
 20 50  1  0  0  0  0
 22 51  1  0  0  0  0
 25 52  1  0  0  0  0
 27 53  1  0  0  0  0
 28 54  1  0  0  0  0
 30 55  1  0  0  0  0
 31 56  1  0  0  0  0
 34 57  1  0  0  0  0
 35 58  1  0  0  0  0
 38 59  1  0  0  0  0
 38 60  1  0  0  0  0
 38 61  1  0  0  0  0
M  END
> <IC50[nM]>
0.84

$$$$
CHEMBL3264995
  -OEChem-05192314333D
 Structure written by MMmdl.
 61 65  0     0  0  0  0  0  0999 V2000
   -4.2563   -3.1062   13.5664 C   0  0  0  0  0  0  0  0  0  0  0  0
   -3.8728   -2.3593   14.7106 O   0  0  0  0  0  0  0  0  0  0  0  0
   -2.5249   -2.1101   14.8131 C   0  0  0  0  0  0  0  0  0  0  0  0
   -1.7501   -2.8737   15.6749 C   0  0  0  0  0  0  0  0  0  0  0  0
   -0.3910   -2.6176   15.8092 C   0  0  0  0  0  0  0  0  0  0  0  0
    0.2227   -1.5905   15.0869 C   0  0  0  0  0  0  0  0  0  0  0  0
    1.6077   -1.3711   15.3228 N   0  0  0  0  0  0  0  0  0  0  0  0
    2.5318   -0.4406   14.7752 C   0  0  0  0  0  0  0  0  0  0  0  0
    2.1656    0.3957   13.7562 N   0  0  0  0  0  0  0  0  0  0  0  0
    3.1117    1.2369   13.2296 C   0  0  0  0  0  0  0  0  0  0  0  0
    4.4129    1.2745   13.7026 C   0  0  0  0  0  0  0  0  0  0  0  0
    4.7445    0.4891   14.7604 N   0  0  0  0  0  0  0  0  0  0  0  0
    5.8979    0.3839   15.4837 C   0  0  0  0  0  0  0  0  0  0  0  0
    5.5998   -0.5411   16.5157 C   0  0  0  0  0  0  0  0  0  0  0  0
    4.3864   -1.0537   16.3628 N   0  0  0  0  0  0  0  0  0  0  0  0
    3.8368   -0.3920   15.3291 C   0  0  0  0  0  0  0  0  0  0  0  0
    2.6550    2.1423   12.1326 C   0  0  0  0  0  0  0  0  0  0  0  0
    3.5650    2.6308   11.1723 C   0  0  0  0  0  0  0  0  0  0  0  0
    3.1221    3.4386   10.1249 C   0  0  0  0  0  0  0  0  0  0  0  0
    1.7757    3.7777   10.0261 C   0  0  0  0  0  0  0  0  0  0  0  0
    0.8680    3.3392   10.9975 C   0  0  0  0  0  0  0  0  0  0  0  0
    1.3092    2.5240   12.0437 C   0  0  0  0  0  0  0  0  0  0  0  0
   -0.5769    3.7618   10.9126 C   0  0  0  0  0  0  0  0  0  0  0  0
   -1.1111    3.9318    9.8164 O   0  0  0  0  0  0  0  0  0  0  0  0
   -1.1792    4.0031   12.1232 N   0  0  0  0  0  0  0  0  0  0  0  0
   -2.4941    4.5708   12.2428 C   0  0  0  0  0  0  0  0  0  0  0  0
   -3.4732    4.3742   11.2553 C   0  0  0  0  0  0  0  0  0  0  0  0
   -4.7281    4.9504   11.3975 C   0  0  0  0  0  0  0  0  0  0  0  0
   -5.0306    5.7263   12.5247 C   0  0  0  0  0  0  0  0  0  0  0  0
   -4.0556    5.9172   13.5169 C   0  0  0  0  0  0  0  0  0  0  0  0
   -2.7906    5.3372   13.3771 C   0  0  0  0  0  0  0  0  0  0  0  0
   -6.3945    6.3441   12.6680 C   0  0  0  0  0  0  0  0  0  0  0  0
   -7.2177    6.1258   11.7478 O   0  0  0  0  0  0  0  0  0  0  0  0
   -6.6066    7.0283   13.6967 O   0  0  0  0  0  0  0  0  0  0  0  0
   -0.5540   -0.8141   14.1957 C   0  0  0  0  0  0  0  0  0  0  0  0
   -1.9401   -1.0806   14.0641 C   0  0  0  0  0  0  0  0  0  0  0  0
   -2.7443   -0.3364   13.2160 O   0  0  0  0  0  0  0  0  0  0  0  0
   -2.2132    0.6462   12.3458 C   0  0  0  0  0  0  0  0  0  0  0  0
   -5.3463   -3.2537   13.5726 H   0  0  0  0  0  0  0  0  0  0  0  0
   -3.9656   -2.5593   12.6573 H   0  0  0  0  0  0  0  0  0  0  0  0
   -3.7539   -4.0847   13.5821 H   0  0  0  0  0  0  0  0  0  0  0  0
   -2.2056   -3.6707   16.2438 H   0  0  0  0  0  0  0  0  0  0  0  0
    0.2000   -3.2214   16.4819 H   0  0  0  0  0  0  0  0  0  0  0  0
    5.0695    0.9879   12.8679 H   0  0  0  0  0  0  0  0  0  0  0  0
    4.6221    2.3146   13.9932 H   0  0  0  0  0  0  0  0  0  0  0  0
    6.8334    0.8942   15.3079 H   0  0  0  0  0  0  0  0  0  0  0  0
    6.2729   -0.7951   17.3212 H   0  0  0  0  0  0  0  0  0  0  0  0
    4.6122    2.3777   11.2484 H   0  0  0  0  0  0  0  0  0  0  0  0
    3.8249    3.8015    9.3895 H   0  0  0  0  0  0  0  0  0  0  0  0
    1.4307    4.3801    9.1987 H   0  0  0  0  0  0  0  0  0  0  0  0
    0.6066    2.1850   12.7906 H   0  0  0  0  0  0  0  0  0  0  0  0
   -2.0156    4.1940    9.9416 H   0  0  0  0  0  0  0  0  0  0  0  0
   -3.2498    3.7747   10.3852 H   0  0  0  0  0  0  0  0  0  0  0  0
   -5.4768    4.7997   10.6339 H   0  0  0  0  0  0  0  0  0  0  0  0
   -4.2827    6.5125   14.3889 H   0  0  0  0  0  0  0  0  0  0  0  0
   -2.0429    5.4802   14.1432 H   0  0  0  0  0  0  0  0  0  0  0  0
   -7.4956    7.3626   13.6775 H   0  0  0  0  0  0  0  0  0  0  0  0
   -0.0946   -0.0243   13.6199 H   0  0  0  0  0  0  0  0  0  0  0  0
   -3.0297    1.1072   11.7706 H   0  0  0  0  0  0  0  0  0  0  0  0
   -1.6988    1.4190   12.9359 H   0  0  0  0  0  0  0  0  0  0  0  0
   -1.4981    0.1759   11.6548 H   0  0  0  0  0  0  0  0  0  0  0  0
  1  2  1  0  0  0  0
  2  3  1  0  0  0  0
  3  4  2  0  0  0  0
  3 36  1  0  0  0  0
  4  5  1  0  0  0  0
  5  6  2  0  0  0  0
  6  7  1  0  0  0  0
  6 35  1  0  0  0  0
  7  8  2  0  0  0  0
  8  9  1  0  0  0  0
  8 16  1  0  0  0  0
  9 10  2  0  0  0  0
 10 11  1  0  0  0  0
 10 17  1  0  0  0  0
 11 12  1  0  0  0  0
 12 13  1  0  0  0  0
 12 16  1  0  0  0  0
 13 14  2  0  0  0  0
 14 15  1  0  0  0  0
 15 16  2  0  0  0  0
 17 18  2  0  0  0  0
 17 22  1  0  0  0  0
 18 19  1  0  0  0  0
 19 20  2  0  0  0  0
 20 21  1  0  0  0  0
 21 22  2  0  0  0  0
 21 23  1  0  0  0  0
 23 24  1  0  0  0  0
 23 25  2  0  0  0  0
 25 26  1  0  0  0  0
 26 27  2  0  0  0  0
 26 31  1  0  0  0  0
 27 28  1  0  0  0  0
 28 29  2  0  0  0  0
 29 30  1  0  0  0  0
 29 32  1  0  0  0  0
 30 31  2  0  0  0  0
 32 33  2  0  0  0  0
 32 34  1  0  0  0  0
 35 36  2  0  0  0  0
 36 37  1  0  0  0  0
 37 38  1  0  0  0  0
  1 39  1  0  0  0  0
  1 40  1  0  0  0  0
  1 41  1  0  0  0  0
  4 42  1  0  0  0  0
  5 43  1  0  0  0  0
 11 44  1  0  0  0  0
 11 45  1  0  0  0  0
 13 46  1  0  0  0  0
 14 47  1  0  0  0  0
 18 48  1  0  0  0  0
 19 49  1  0  0  0  0
 20 50  1  0  0  0  0
 22 51  1  0  0  0  0
 24 52  1  0  0  0  0
 27 53  1  0  0  0  0
 28 54  1  0  0  0  0
 30 55  1  0  0  0  0
 31 56  1  0  0  0  0
 34 57  1  0  0  0  0
 35 58  1  0  0  0  0
 38 59  1  0  0  0  0
 38 60  1  0  0  0  0
 38 61  1  0  0  0  0
M  END
> <IC50[nM]>
0.84

$$$$
CHEMBL3264995
  -OEChem-05192314333D
 Structure written by MMmdl.
 61 65  0     1  0  0  0  0  0999 V2000
   -4.2563   -3.1062   13.5664 C   0  0  0  0  0  0  0  0  0  0  0  0
   -3.8728   -2.3593   14.7106 O   0  0  0  0  0  0  0  0  0  0  0  0
   -2.5249   -2.1101   14.8131 C   0  0  3  0  0  0  0  0  0  0  0  0
   -1.7501   -2.8737   15.6749 C   0  0  0  0  0  0  0  0  0  0  0  0
   -0.3910   -2.6176   15.8092 C   0  0  0  0  0  0  0  0  0  0  0  0
    0.2227   -1.5905   15.0869 C   0  0  0  0  0  0  0  0  0  0  0  0
    1.6077   -1.3711   15.3228 N   0  0  0  0  0  0  0  0  0  0  0  0
    2.5318   -0.4406   14.7752 C   0  0  0  0  0  0  0  0  0  0  0  0
    2.1656    0.3957   13.7562 N   0  0  0  0  0  0  0  0  0  0  0  0
    3.1117    1.2369   13.2296 C   0  0  0  0  0  0  0  0  0  0  0  0
    4.4129    1.2745   13.7026 C   0  0  0  0  0  0  0  0  0  0  0  0
    4.7445    0.4891   14.7604 N   0  0  0  0  0  0  0  0  0  0  0  0
    5.8979    0.3839   15.4837 C   0  0  0  0  0  0  0  0  0  0  0  0
    5.5998   -0.5411   16.5157 C   0  0  0  0  0  0  0  0  0  0  0  0
    4.3864   -1.0537   16.3628 N   0  0  0  0  0  0  0  0  0  0  0  0
    3.8368   -0.3920   15.3291 C   0  0  0  0  0  0  0  0  0  0  0  0
    2.6550    2.1423   12.1326 C   0  0  0  0  0  0  0  0  0  0  0  0
    3.5650    2.6308   11.1723 C   0  0  0  0  0  0  0  0  0  0  0  0
    3.1221    3.4386   10.1249 C   0  0  0  0  0  0  0  0  0  0  0  0
    1.7757    3.7777   10.0261 C   0  0  0  0  0  0  0  0  0  0  0  0
    0.8680    3.3392   10.9975 C   0  0  0  0  0  0  0  0  0  0  0  0
    1.3092    2.5240   12.0437 C   0  0  0  0  0  0  0  0  0  0  0  0
   -0.5769    3.7618   10.9126 C   0  0  0  0  0  0  0  0  0  0  0  0
   -1.1111    3.9318    9.8164 O   0  0  0  0  0  0  0  0  0  0  0  0
   -1.1792    4.0031   12.1232 N   0  0  0  0  0  0  0  0  0  0  0  0
   -2.4941    4.5708   12.2428 C   0  0  0  0  0  0  0  0  0  0  0  0
   -3.4732    4.3742   11.2553 C   0  0  0  0  0  0  0  0  0  0  0  0
   -4.7281    4.9504   11.3975 C   0  0  0  0  0  0  0  0  0  0  0  0
   -5.0306    5.7263   12.5247 C   0  0  0  0  0  0  0  0  0  0  0  0
   -4.0556    5.9172   13.5169 C   0  0  0  0  0  0  0  0  0  0  0  0
   -2.7906    5.3372   13.3771 C   0  0  0  0  0  0  0  0  0  0  0  0
   -6.3945    6.3441   12.6680 C   0  0  0  0  0  0  0  0  0  0  0  0
   -7.2177    6.1258   11.7478 O   0  0  0  0  0  0  0  0  0  0  0  0
   -6.6066    7.0283   13.6967 O   0  0  0  0  0  0  0  0  0  0  0  0
   -0.5540   -0.8141   14.1957 C   0  0  0  0  0  0  0  0  0  0  0  0
   -1.9401   -1.0806   14.0641 C   0  0  0  0  0  0  0  0  0  0  0  0
   -2.7443   -0.3364   13.2160 O   0  0  0  0  0  0  0  0  0  0  0  0
   -2.2132    0.6462   12.3458 C   0  0  0  0  0  0  0  0  0  0  0  0
   -5.3463   -3.2537   13.5726 H   0  0  0  0  0  0  0  0  0  0  0  0
   -3.9656   -2.5593   12.6573 H   0  0  0  0  0  0  0  0  0  0  0  0
   -3.7539   -4.0847   13.5821 H   0  0  0  0  0  0  0  0  0  0  0  0
   -2.3269   -2.8215   13.9978 H   0  0  0  0  0  0  0  0  0  0  0  0
   -2.2056   -3.6707   16.2438 H   0  0  0  0  0  0  0  0  0  0  0  0
    0.2000   -3.2214   16.4819 H   0  0  0  0  0  0  0  0  0  0  0  0
    5.1490    1.9152   13.2399 H   0  0  0  0  0  0  0  0  0  0  0  0
    6.8334    0.8942   15.3079 H   0  0  0  0  0  0  0  0  0  0  0  0
    6.2729   -0.7951   17.3212 H   0  0  0  0  0  0  0  0  0  0  0  0
    4.6122    2.3777   11.2484 H   0  0  0  0  0  0  0  0  0  0  0  0
    3.8249    3.8015    9.3895 H   0  0  0  0  0  0  0  0  0  0  0  0
    1.4307    4.3801    9.1987 H   0  0  0  0  0  0  0  0  0  0  0  0
    0.6066    2.1850   12.7906 H   0  0  0  0  0  0  0  0  0  0  0  0
   -0.6804    3.7735   12.9589 H   0  0  0  0  0  0  0  0  0  0  0  0
   -3.2498    3.7747   10.3852 H   0  0  0  0  0  0  0  0  0  0  0  0
   -5.4768    4.7997   10.6339 H   0  0  0  0  0  0  0  0  0  0  0  0
   -4.2827    6.5125   14.3889 H   0  0  0  0  0  0  0  0  0  0  0  0
   -2.0429    5.4802   14.1432 H   0  0  0  0  0  0  0  0  0  0  0  0
   -7.4956    7.3626   13.6775 H   0  0  0  0  0  0  0  0  0  0  0  0
   -0.0946   -0.0243   13.6199 H   0  0  0  0  0  0  0  0  0  0  0  0
   -3.0297    1.1072   11.7706 H   0  0  0  0  0  0  0  0  0  0  0  0
   -1.6988    1.4190   12.9359 H   0  0  0  0  0  0  0  0  0  0  0  0
   -1.4981    0.1759   11.6548 H   0  0  0  0  0  0  0  0  0  0  0  0
  1  2  1  0  0  0  0
  2  3  1  0  0  0  0
  3  4  1  0  0  0  0
  3 36  1  0  0  0  0
  4  5  2  0  0  0  0
  5  6  1  0  0  0  0
  6  7  2  0  0  0  0
  6 35  1  0  0  0  0
  7  8  1  0  0  0  0
  8  9  2  0  0  0  0
  8 16  1  0  0  0  0
  9 10  1  0  0  0  0
 10 11  2  0  0  0  0
 10 17  1  0  0  0  0
 11 12  1  0  0  0  0
 12 13  1  0  0  0  0
 12 16  1  0  0  0  0
 13 14  2  0  0  0  0
 14 15  1  0  0  0  0
 15 16  2  0  0  0  0
 17 18  2  0  0  0  0
 17 22  1  0  0  0  0
 18 19  1  0  0  0  0
 19 20  2  0  0  0  0
 20 21  1  0  0  0  0
 21 22  2  0  0  0  0
 21 23  1  0  0  0  0
 23 24  2  0  0  0  0
 23 25  1  0  0  0  0
 25 26  1  0  0  0  0
 26 27  2  0  0  0  0
 26 31  1  0  0  0  0
 27 28  1  0  0  0  0
 28 29  2  0  0  0  0
 29 30  1  0  0  0  0
 29 32  1  0  0  0  0
 30 31  2  0  0  0  0
 32 33  2  0  0  0  0
 32 34  1  0  0  0  0
 35 36  2  0  0  0  0
 36 37  1  0  0  0  0
 37 38  1  0  0  0  0
  1 39  1  0  0  0  0
  1 40  1  0  0  0  0
  1 41  1  0  0  0  0
  3 42  1  0  0  0  0
  4 43  1  0  0  0  0
  5 44  1  0  0  0  0
 11 45  1  0  0  0  0
 13 46  1  0  0  0  0
 14 47  1  0  0  0  0
 18 48  1  0  0  0  0
 19 49  1  0  0  0  0
 20 50  1  0  0  0  0
 22 51  1  0  0  0  0
 25 52  1  0  0  0  0
 27 53  1  0  0  0  0
 28 54  1  0  0  0  0
 30 55  1  0  0  0  0
 31 56  1  0  0  0  0
 34 57  1  0  0  0  0
 35 58  1  0  0  0  0
 38 59  1  0  0  0  0
 38 60  1  0  0  0  0
 38 61  1  0  0  0  0
M  END
> <IC50[nM]>
0.84

$$$$
CHEMBL3264995
  -OEChem-05192314333D
 Structure written by MMmdl.
 61 65  0     0  0  0  0  0  0999 V2000
   -4.2563   -3.1062   13.5664 C   0  0  0  0  0  0  0  0  0  0  0  0
   -3.8728   -2.3593   14.7106 O   0  0  0  0  0  0  0  0  0  0  0  0
   -2.5249   -2.1101   14.8131 C   0  0  0  0  0  0  0  0  0  0  0  0
   -1.7501   -2.8737   15.6749 C   0  0  0  0  0  0  0  0  0  0  0  0
   -0.3910   -2.6176   15.8092 C   0  0  0  0  0  0  0  0  0  0  0  0
    0.2227   -1.5905   15.0869 C   0  0  0  0  0  0  0  0  0  0  0  0
    1.6077   -1.3711   15.3228 N   0  0  0  0  0  0  0  0  0  0  0  0
    2.5318   -0.4406   14.7752 C   0  0  0  0  0  0  0  0  0  0  0  0
    2.1656    0.3957   13.7562 N   0  0  0  0  0  0  0  0  0  0  0  0
    3.1117    1.2369   13.2296 C   0  0  0  0  0  0  0  0  0  0  0  0
    4.4129    1.2745   13.7026 C   0  0  0  0  0  0  0  0  0  0  0  0
    4.7445    0.4891   14.7604 N   0  0  0  0  0  0  0  0  0  0  0  0
    5.8979    0.3839   15.4837 C   0  0  0  0  0  0  0  0  0  0  0  0
    5.5998   -0.5411   16.5157 C   0  0  0  0  0  0  0  0  0  0  0  0
    4.3864   -1.0537   16.3628 N   0  0  0  0  0  0  0  0  0  0  0  0
    3.8368   -0.3920   15.3291 C   0  0  0  0  0  0  0  0  0  0  0  0
    2.6550    2.1423   12.1326 C   0  0  0  0  0  0  0  0  0  0  0  0
    3.5650    2.6308   11.1723 C   0  0  0  0  0  0  0  0  0  0  0  0
    3.1221    3.4386   10.1249 C   0  0  0  0  0  0  0  0  0  0  0  0
    1.7757    3.7777   10.0261 C   0  0  0  0  0  0  0  0  0  0  0  0
    0.8680    3.3392   10.9975 C   0  0  0  0  0  0  0  0  0  0  0  0
    1.3092    2.5240   12.0437 C   0  0  0  0  0  0  0  0  0  0  0  0
   -0.5769    3.7618   10.9126 C   0  0  0  0  0  0  0  0  0  0  0  0
   -1.1111    3.9318    9.8164 O   0  0  0  0  0  0  0  0  0  0  0  0
   -1.1792    4.0031   12.1232 N   0  0  0  0  0  0  0  0  0  0  0  0
   -2.4941    4.5708   12.2428 C   0  0  0  0  0  0  0  0  0  0  0  0
   -3.4732    4.3742   11.2553 C   0  0  0  0  0  0  0  0  0  0  0  0
   -4.7281    4.9504   11.3975 C   0  0  0  0  0  0  0  0  0  0  0  0
   -5.0306    5.7263   12.5247 C   0  0  0  0  0  0  0  0  0  0  0  0
   -4.0556    5.9172   13.5169 C   0  0  0  0  0  0  0  0  0  0  0  0
   -2.7906    5.3372   13.3771 C   0  0  0  0  0  0  0  0  0  0  0  0
   -6.3945    6.3441   12.6680 C   0  0  0  0  0  0  0  0  0  0  0  0
   -7.2177    6.1258   11.7478 O   0  0  0  0  0  0  0  0  0  0  0  0
   -6.6066    7.0283   13.6967 O   0  0  0  0  0  0  0  0  0  0  0  0
   -0.5540   -0.8141   14.1957 C   0  0  0  0  0  0  0  0  0  0  0  0
   -1.9401   -1.0806   14.0641 C   0  0  0  0  0  0  0  0  0  0  0  0
   -2.7443   -0.3364   13.2160 O   0  0  0  0  0  0  0  0  0  0  0  0
   -2.2132    0.6462   12.3458 C   0  0  0  0  0  0  0  0  0  0  0  0
   -5.3463   -3.2537   13.5726 H   0  0  0  0  0  0  0  0  0  0  0  0
   -3.9656   -2.5593   12.6573 H   0  0  0  0  0  0  0  0  0  0  0  0
   -3.7539   -4.0847   13.5821 H   0  0  0  0  0  0  0  0  0  0  0  0
   -2.2056   -3.6707   16.2438 H   0  0  0  0  0  0  0  0  0  0  0  0
   -0.2177   -2.3985   16.8731 H   0  0  0  0  0  0  0  0  0  0  0  0
    0.1308   -3.5468   15.5364 H   0  0  0  0  0  0  0  0  0  0  0  0
    5.1490    1.9152   13.2399 H   0  0  0  0  0  0  0  0  0  0  0  0
    6.8334    0.8942   15.3079 H   0  0  0  0  0  0  0  0  0  0  0  0
    6.2729   -0.7951   17.3212 H   0  0  0  0  0  0  0  0  0  0  0  0
    4.6122    2.3777   11.2484 H   0  0  0  0  0  0  0  0  0  0  0  0
    3.8249    3.8015    9.3895 H   0  0  0  0  0  0  0  0  0  0  0  0
    1.4307    4.3801    9.1987 H   0  0  0  0  0  0  0  0  0  0  0  0
    0.6066    2.1850   12.7906 H   0  0  0  0  0  0  0  0  0  0  0  0
   -0.6804    3.7735   12.9589 H   0  0  0  0  0  0  0  0  0  0  0  0
   -3.2498    3.7747   10.3852 H   0  0  0  0  0  0  0  0  0  0  0  0
   -5.4768    4.7997   10.6339 H   0  0  0  0  0  0  0  0  0  0  0  0
   -4.2827    6.5125   14.3889 H   0  0  0  0  0  0  0  0  0  0  0  0
   -2.0429    5.4802   14.1432 H   0  0  0  0  0  0  0  0  0  0  0  0
   -7.4956    7.3626   13.6775 H   0  0  0  0  0  0  0  0  0  0  0  0
   -0.0946   -0.0243   13.6199 H   0  0  0  0  0  0  0  0  0  0  0  0
   -3.0297    1.1072   11.7706 H   0  0  0  0  0  0  0  0  0  0  0  0
   -1.6988    1.4190   12.9359 H   0  0  0  0  0  0  0  0  0  0  0  0
   -1.4981    0.1759   11.6548 H   0  0  0  0  0  0  0  0  0  0  0  0
  1  2  1  0  0  0  0
  2  3  1  0  0  0  0
  3  4  2  0  0  0  0
  3 36  1  0  0  0  0
  4  5  1  0  0  0  0
  5  6  1  0  0  0  0
  6  7  2  0  0  0  0
  6 35  1  0  0  0  0
  7  8  1  0  0  0  0
  8  9  2  0  0  0  0
  8 16  1  0  0  0  0
  9 10  1  0  0  0  0
 10 11  2  0  0  0  0
 10 17  1  0  0  0  0
 11 12  1  0  0  0  0
 12 13  1  0  0  0  0
 12 16  1  0  0  0  0
 13 14  2  0  0  0  0
 14 15  1  0  0  0  0
 15 16  2  0  0  0  0
 17 18  2  0  0  0  0
 17 22  1  0  0  0  0
 18 19  1  0  0  0  0
 19 20  2  0  0  0  0
 20 21  1  0  0  0  0
 21 22  2  0  0  0  0
 21 23  1  0  0  0  0
 23 24  2  0  0  0  0
 23 25  1  0  0  0  0
 25 26  1  0  0  0  0
 26 27  2  0  0  0  0
 26 31  1  0  0  0  0
 27 28  1  0  0  0  0
 28 29  2  0  0  0  0
 29 30  1  0  0  0  0
 29 32  1  0  0  0  0
 30 31  2  0  0  0  0
 32 33  2  0  0  0  0
 32 34  1  0  0  0  0
 35 36  2  0  0  0  0
 36 37  1  0  0  0  0
 37 38  1  0  0  0  0
  1 39  1  0  0  0  0
  1 40  1  0  0  0  0
  1 41  1  0  0  0  0
  4 42  1  0  0  0  0
  5 43  1  0  0  0  0
  5 44  1  0  0  0  0
 11 45  1  0  0  0  0
 13 46  1  0  0  0  0
 14 47  1  0  0  0  0
 18 48  1  0  0  0  0
 19 49  1  0  0  0  0
 20 50  1  0  0  0  0
 22 51  1  0  0  0  0
 25 52  1  0  0  0  0
 27 53  1  0  0  0  0
 28 54  1  0  0  0  0
 30 55  1  0  0  0  0
 31 56  1  0  0  0  0
 34 57  1  0  0  0  0
 35 58  1  0  0  0  0
 38 59  1  0  0  0  0
 38 60  1  0  0  0  0
 38 61  1  0  0  0  0
M  END
> <IC50[nM]>
0.84

$$$$
CHEMBL3264995
  -OEChem-05192314333D
 Structure written by MMmdl.
 61 65  0     0  0  0  0  0  0999 V2000
   -4.2563   -3.1062   13.5664 C   0  0  0  0  0  0  0  0  0  0  0  0
   -3.8728   -2.3593   14.7106 O   0  0  0  0  0  0  0  0  0  0  0  0
   -2.5249   -2.1101   14.8131 C   0  0  0  0  0  0  0  0  0  0  0  0
   -1.7501   -2.8737   15.6749 C   0  0  0  0  0  0  0  0  0  0  0  0
   -0.3910   -2.6176   15.8092 C   0  0  0  0  0  0  0  0  0  0  0  0
    0.2227   -1.5905   15.0869 C   0  0  0  0  0  0  0  0  0  0  0  0
    1.6077   -1.3711   15.3228 N   0  0  0  0  0  0  0  0  0  0  0  0
    2.5318   -0.4406   14.7752 C   0  0  0  0  0  0  0  0  0  0  0  0
    2.1656    0.3957   13.7562 N   0  0  0  0  0  0  0  0  0  0  0  0
    3.1117    1.2369   13.2296 C   0  0  0  0  0  0  0  0  0  0  0  0
    4.4129    1.2745   13.7026 C   0  0  0  0  0  0  0  0  0  0  0  0
    4.7445    0.4891   14.7604 N   0  0  0  0  0  0  0  0  0  0  0  0
    5.8979    0.3839   15.4837 C   0  0  0  0  0  0  0  0  0  0  0  0
    5.5998   -0.5411   16.5157 C   0  0  0  0  0  0  0  0  0  0  0  0
    4.3864   -1.0537   16.3628 N   0  0  0  0  0  0  0  0  0  0  0  0
    3.8368   -0.3920   15.3291 C   0  0  0  0  0  0  0  0  0  0  0  0
    2.6550    2.1423   12.1326 C   0  0  0  0  0  0  0  0  0  0  0  0
    3.5650    2.6308   11.1723 C   0  0  0  0  0  0  0  0  0  0  0  0
    3.1221    3.4386   10.1249 C   0  0  0  0  0  0  0  0  0  0  0  0
    1.7757    3.7777   10.0261 C   0  0  0  0  0  0  0  0  0  0  0  0
    0.8680    3.3392   10.9975 C   0  0  0  0  0  0  0  0  0  0  0  0
    1.3092    2.5240   12.0437 C   0  0  0  0  0  0  0  0  0  0  0  0
   -0.5769    3.7618   10.9126 C   0  0  0  0  0  0  0  0  0  0  0  0
   -1.1111    3.9318    9.8164 O   0  0  0  0  0  0  0  0  0  0  0  0
   -1.1792    4.0031   12.1232 N   0  0  0  0  0  0  0  0  0  0  0  0
   -2.4941    4.5708   12.2428 C   0  0  0  0  0  0  0  0  0  0  0  0
   -3.4732    4.3742   11.2553 C   0  0  0  0  0  0  0  0  0  0  0  0
   -4.7281    4.9504   11.3975 C   0  0  0  0  0  0  0  0  0  0  0  0
   -5.0306    5.7263   12.5247 C   0  0  0  0  0  0  0  0  0  0  0  0
   -4.0556    5.9172   13.5169 C   0  0  0  0  0  0  0  0  0  0  0  0
   -2.7906    5.3372   13.3771 C   0  0  0  0  0  0  0  0  0  0  0  0
   -6.3945    6.3441   12.6680 C   0  0  0  0  0  0  0  0  0  0  0  0
   -7.2177    6.1258   11.7478 O   0  0  0  0  0  0  0  0  0  0  0  0
   -6.6066    7.0283   13.6967 O   0  0  0  0  0  0  0  0  0  0  0  0
   -0.5540   -0.8141   14.1957 C   0  0  0  0  0  0  0  0  0  0  0  0
   -1.9401   -1.0806   14.0641 C   0  0  0  0  0  0  0  0  0  0  0  0
   -2.7443   -0.3364   13.2160 O   0  0  0  0  0  0  0  0  0  0  0  0
   -2.2132    0.6462   12.3458 C   0  0  0  0  0  0  0  0  0  0  0  0
   -5.3463   -3.2537   13.5726 H   0  0  0  0  0  0  0  0  0  0  0  0
   -3.9656   -2.5593   12.6573 H   0  0  0  0  0  0  0  0  0  0  0  0
   -3.7539   -4.0847   13.5821 H   0  0  0  0  0  0  0  0  0  0  0  0
   -2.2056   -3.6707   16.2438 H   0  0  0  0  0  0  0  0  0  0  0  0
    0.2000   -3.2214   16.4819 H   0  0  0  0  0  0  0  0  0  0  0  0
    5.1490    1.9152   13.2399 H   0  0  0  0  0  0  0  0  0  0  0  0
    6.8334    0.8942   15.3079 H   0  0  0  0  0  0  0  0  0  0  0  0
    6.2729   -0.7951   17.3212 H   0  0  0  0  0  0  0  0  0  0  0  0
    4.6122    2.3777   11.2484 H   0  0  0  0  0  0  0  0  0  0  0  0
    3.8249    3.8015    9.3895 H   0  0  0  0  0  0  0  0  0  0  0  0
    1.4307    4.3801    9.1987 H   0  0  0  0  0  0  0  0  0  0  0  0
    0.6066    2.1850   12.7906 H   0  0  0  0  0  0  0  0  0  0  0  0
   -0.6804    3.7735   12.9589 H   0  0  0  0  0  0  0  0  0  0  0  0
   -3.2498    3.7747   10.3852 H   0  0  0  0  0  0  0  0  0  0  0  0
   -5.4768    4.7997   10.6339 H   0  0  0  0  0  0  0  0  0  0  0  0
   -4.2827    6.5125   14.3889 H   0  0  0  0  0  0  0  0  0  0  0  0
   -2.0429    5.4802   14.1432 H   0  0  0  0  0  0  0  0  0  0  0  0
   -7.4956    7.3626   13.6775 H   0  0  0  0  0  0  0  0  0  0  0  0
   -0.4587    0.2335   14.5174 H   0  0  0  0  0  0  0  0  0  0  0  0
   -0.1091   -0.9328   13.1967 H   0  0  0  0  0  0  0  0  0  0  0  0
   -3.0297    1.1072   11.7706 H   0  0  0  0  0  0  0  0  0  0  0  0
   -1.6988    1.4190   12.9359 H   0  0  0  0  0  0  0  0  0  0  0  0
   -1.4981    0.1759   11.6548 H   0  0  0  0  0  0  0  0  0  0  0  0
  1  2  1  0  0  0  0
  2  3  1  0  0  0  0
  3  4  1  0  0  0  0
  3 36  2  0  0  0  0
  4  5  2  0  0  0  0
  5  6  1  0  0  0  0
  6  7  2  0  0  0  0
  6 35  1  0  0  0  0
  7  8  1  0  0  0  0
  8  9  2  0  0  0  0
  8 16  1  0  0  0  0
  9 10  1  0  0  0  0
 10 11  2  0  0  0  0
 10 17  1  0  0  0  0
 11 12  1  0  0  0  0
 12 13  1  0  0  0  0
 12 16  1  0  0  0  0
 13 14  2  0  0  0  0
 14 15  1  0  0  0  0
 15 16  2  0  0  0  0
 17 18  2  0  0  0  0
 17 22  1  0  0  0  0
 18 19  1  0  0  0  0
 19 20  2  0  0  0  0
 20 21  1  0  0  0  0
 21 22  2  0  0  0  0
 21 23  1  0  0  0  0
 23 24  2  0  0  0  0
 23 25  1  0  0  0  0
 25 26  1  0  0  0  0
 26 27  2  0  0  0  0
 26 31  1  0  0  0  0
 27 28  1  0  0  0  0
 28 29  2  0  0  0  0
 29 30  1  0  0  0  0
 29 32  1  0  0  0  0
 30 31  2  0  0  0  0
 32 33  2  0  0  0  0
 32 34  1  0  0  0  0
 35 36  1  0  0  0  0
 36 37  1  0  0  0  0
 37 38  1  0  0  0  0
  1 39  1  0  0  0  0
  1 40  1  0  0  0  0
  1 41  1  0  0  0  0
  4 42  1  0  0  0  0
  5 43  1  0  0  0  0
 11 44  1  0  0  0  0
 13 45  1  0  0  0  0
 14 46  1  0  0  0  0
 18 47  1  0  0  0  0
 19 48  1  0  0  0  0
 20 49  1  0  0  0  0
 22 50  1  0  0  0  0
 25 51  1  0  0  0  0
 27 52  1  0  0  0  0
 28 53  1  0  0  0  0
 30 54  1  0  0  0  0
 31 55  1  0  0  0  0
 34 56  1  0  0  0  0
 35 57  1  0  0  0  0
 35 58  1  0  0  0  0
 38 59  1  0  0  0  0
 38 60  1  0  0  0  0
 38 61  1  0  0  0  0
M  END
> <IC50[nM]>
0.84

$$$$
CHEMBL3264995
  -OEChem-05192314333D
 Structure written by MMmdl.
 61 65  0     0  0  0  0  0  0999 V2000
   -4.2563   -3.1062   13.5664 C   0  0  0  0  0  0  0  0  0  0  0  0
   -3.8728   -2.3593   14.7106 O   0  0  0  0  0  0  0  0  0  0  0  0
   -2.5249   -2.1101   14.8131 C   0  0  0  0  0  0  0  0  0  0  0  0
   -1.7501   -2.8737   15.6749 C   0  0  0  0  0  0  0  0  0  0  0  0
   -0.3910   -2.6176   15.8092 C   0  0  0  0  0  0  0  0  0  0  0  0
    0.2227   -1.5905   15.0869 C   0  0  0  0  0  0  0  0  0  0  0  0
    1.6077   -1.3711   15.3228 N   0  0  0  0  0  0  0  0  0  0  0  0
    2.5318   -0.4406   14.7752 C   0  0  0  0  0  0  0  0  0  0  0  0
    2.1656    0.3957   13.7562 N   0  0  0  0  0  0  0  0  0  0  0  0
    3.1117    1.2369   13.2296 C   0  0  0  0  0  0  0  0  0  0  0  0
    4.4129    1.2745   13.7026 C   0  0  0  0  0  0  0  0  0  0  0  0
    4.7445    0.4891   14.7604 N   0  0  0  0  0  0  0  0  0  0  0  0
    5.8979    0.3839   15.4837 C   0  0  0  0  0  0  0  0  0  0  0  0
    5.5998   -0.5411   16.5157 C   0  0  0  0  0  0  0  0  0  0  0  0
    4.3864   -1.0537   16.3628 N   0  0  0  0  0  0  0  0  0  0  0  0
    3.8368   -0.3920   15.3291 C   0  0  0  0  0  0  0  0  0  0  0  0
    2.6550    2.1423   12.1326 C   0  0  0  0  0  0  0  0  0  0  0  0
    3.5650    2.6308   11.1723 C   0  0  0  0  0  0  0  0  0  0  0  0
    3.1221    3.4386   10.1249 C   0  0  0  0  0  0  0  0  0  0  0  0
    1.7757    3.7777   10.0261 C   0  0  0  0  0  0  0  0  0  0  0  0
    0.8680    3.3392   10.9975 C   0  0  0  0  0  0  0  0  0  0  0  0
    1.3092    2.5240   12.0437 C   0  0  0  0  0  0  0  0  0  0  0  0
   -0.5769    3.7618   10.9126 C   0  0  0  0  0  0  0  0  0  0  0  0
   -1.1111    3.9318    9.8164 O   0  0  0  0  0  0  0  0  0  0  0  0
   -1.1792    4.0031   12.1232 N   0  0  0  0  0  0  0  0  0  0  0  0
   -2.4941    4.5708   12.2428 C   0  0  0  0  0  0  0  0  0  0  0  0
   -3.4732    4.3742   11.2553 C   0  0  0  0  0  0  0  0  0  0  0  0
   -4.7281    4.9504   11.3975 C   0  0  0  0  0  0  0  0  0  0  0  0
   -5.0306    5.7263   12.5247 C   0  0  0  0  0  0  0  0  0  0  0  0
   -4.0556    5.9172   13.5169 C   0  0  0  0  0  0  0  0  0  0  0  0
   -2.7906    5.3372   13.3771 C   0  0  0  0  0  0  0  0  0  0  0  0
   -6.3945    6.3441   12.6680 C   0  0  0  0  0  0  0  0  0  0  0  0
   -7.2177    6.1258   11.7478 O   0  0  0  0  0  0  0  0  0  0  0  0
   -6.6066    7.0283   13.6967 O   0  0  0  0  0  0  0  0  0  0  0  0
   -0.5540   -0.8141   14.1957 C   0  0  0  0  0  0  0  0  0  0  0  0
   -1.9401   -1.0806   14.0641 C   0  0  0  0  0  0  0  0  0  0  0  0
   -2.7443   -0.3364   13.2160 O   0  0  0  0  0  0  0  0  0  0  0  0
   -2.2132    0.6462   12.3458 C   0  0  0  0  0  0  0  0  0  0  0  0
   -5.3463   -3.2537   13.5726 H   0  0  0  0  0  0  0  0  0  0  0  0
   -3.9656   -2.5593   12.6573 H   0  0  0  0  0  0  0  0  0  0  0  0
   -3.7539   -4.0847   13.5821 H   0  0  0  0  0  0  0  0  0  0  0  0
   -2.2056   -3.6707   16.2438 H   0  0  0  0  0  0  0  0  0  0  0  0
    0.2000   -3.2214   16.4819 H   0  0  0  0  0  0  0  0  0  0  0  0
    2.0065   -1.9875   16.0018 H   0  0  0  0  0  0  0  0  0  0  0  0
    5.1490    1.9152   13.2399 H   0  0  0  0  0  0  0  0  0  0  0  0
    6.8334    0.8942   15.3079 H   0  0  0  0  0  0  0  0  0  0  0  0
    6.2729   -0.7951   17.3212 H   0  0  0  0  0  0  0  0  0  0  0  0
    4.6122    2.3777   11.2484 H   0  0  0  0  0  0  0  0  0  0  0  0
    3.8249    3.8015    9.3895 H   0  0  0  0  0  0  0  0  0  0  0  0
    1.4307    4.3801    9.1987 H   0  0  0  0  0  0  0  0  0  0  0  0
    0.6066    2.1850   12.7906 H   0  0  0  0  0  0  0  0  0  0  0  0
   -3.2498    3.7747   10.3852 H   0  0  0  0  0  0  0  0  0  0  0  0
   -5.4768    4.7997   10.6339 H   0  0  0  0  0  0  0  0  0  0  0  0
   -4.6764    6.6268   12.0015 H   0  0  0  0  0  0  0  0  0  0  0  0
   -4.2827    6.5125   14.3889 H   0  0  0  0  0  0  0  0  0  0  0  0
   -2.0429    5.4802   14.1432 H   0  0  0  0  0  0  0  0  0  0  0  0
   -7.4956    7.3626   13.6775 H   0  0  0  0  0  0  0  0  0  0  0  0
   -0.0946   -0.0243   13.6199 H   0  0  0  0  0  0  0  0  0  0  0  0
   -3.0297    1.1072   11.7706 H   0  0  0  0  0  0  0  0  0  0  0  0
   -1.6988    1.4190   12.9359 H   0  0  0  0  0  0  0  0  0  0  0  0
   -1.4981    0.1759   11.6548 H   0  0  0  0  0  0  0  0  0  0  0  0
  1  2  1  0  0  0  0
  2  3  1  0  0  0  0
  3  4  2  0  0  0  0
  3 36  1  0  0  0  0
  4  5  1  0  0  0  0
  5  6  2  0  0  0  0
  6  7  1  0  0  0  0
  6 35  1  0  0  0  0
  7  8  1  0  0  0  0
  8  9  2  0  0  0  0
  8 16  1  0  0  0  0
  9 10  1  0  0  0  0
 10 11  2  0  0  0  0
 10 17  1  0  0  0  0
 11 12  1  0  0  0  0
 12 13  1  0  0  0  0
 12 16  1  0  0  0  0
 13 14  2  0  0  0  0
 14 15  1  0  0  0  0
 15 16  2  0  0  0  0
 17 18  2  0  0  0  0
 17 22  1  0  0  0  0
 18 19  1  0  0  0  0
 19 20  2  0  0  0  0
 20 21  1  0  0  0  0
 21 22  2  0  0  0  0
 21 23  1  0  0  0  0
 23 24  2  0  0  0  0
 23 25  1  0  0  0  0
 25 26  2  0  0  0  0
 26 27  1  0  0  0  0
 26 31  1  0  0  0  0
 27 28  2  0  0  0  0
 28 29  1  0  0  0  0
 29 30  1  0  0  0  0
 29 32  1  0  0  0  0
 30 31  2  0  0  0  0
 32 33  2  0  0  0  0
 32 34  1  0  0  0  0
 35 36  2  0  0  0  0
 36 37  1  0  0  0  0
 37 38  1  0  0  0  0
  1 39  1  0  0  0  0
  1 40  1  0  0  0  0
  1 41  1  0  0  0  0
  4 42  1  0  0  0  0
  5 43  1  0  0  0  0
  7 44  1  0  0  0  0
 11 45  1  0  0  0  0
 13 46  1  0  0  0  0
 14 47  1  0  0  0  0
 18 48  1  0  0  0  0
 19 49  1  0  0  0  0
 20 50  1  0  0  0  0
 22 51  1  0  0  0  0
 27 52  1  0  0  0  0
 28 53  1  0  0  0  0
 29 54  1  0  0  0  0
 30 55  1  0  0  0  0
 31 56  1  0  0  0  0
 34 57  1  0  0  0  0
 35 58  1  0  0  0  0
 38 59  1  0  0  0  0
 38 60  1  0  0  0  0
 38 61  1  0  0  0  0
M  END
> <IC50[nM]>
0.84

$$$$
CHEMBL3264995
  -OEChem-05192314333D
 Structure written by MMmdl.
 61 65  0     0  0  0  0  0  0999 V2000
   -4.2563   -3.1062   13.5664 C   0  0  0  0  0  0  0  0  0  0  0  0
   -3.8728   -2.3593   14.7106 O   0  0  0  0  0  0  0  0  0  0  0  0
   -2.5249   -2.1101   14.8131 C   0  0  0  0  0  0  0  0  0  0  0  0
   -1.7501   -2.8737   15.6749 C   0  0  0  0  0  0  0  0  0  0  0  0
   -0.3910   -2.6176   15.8092 C   0  0  0  0  0  0  0  0  0  0  0  0
    0.2227   -1.5905   15.0869 C   0  0  0  0  0  0  0  0  0  0  0  0
    1.6077   -1.3711   15.3228 N   0  0  0  0  0  0  0  0  0  0  0  0
    2.5318   -0.4406   14.7752 C   0  0  0  0  0  0  0  0  0  0  0  0
    2.1656    0.3957   13.7562 N   0  0  0  0  0  0  0  0  0  0  0  0
    3.1117    1.2369   13.2296 C   0  0  0  0  0  0  0  0  0  0  0  0
    4.4129    1.2745   13.7026 C   0  0  0  0  0  0  0  0  0  0  0  0
    4.7445    0.4891   14.7604 N   0  0  0  0  0  0  0  0  0  0  0  0
    5.8979    0.3839   15.4837 C   0  0  0  0  0  0  0  0  0  0  0  0
    5.5998   -0.5411   16.5157 C   0  0  0  0  0  0  0  0  0  0  0  0
    4.3864   -1.0537   16.3628 N   0  0  0  0  0  0  0  0  0  0  0  0
    3.8368   -0.3920   15.3291 C   0  0  0  0  0  0  0  0  0  0  0  0
    2.6550    2.1423   12.1326 C   0  0  0  0  0  0  0  0  0  0  0  0
    3.5650    2.6308   11.1723 C   0  0  0  0  0  0  0  0  0  0  0  0
    3.1221    3.4386   10.1249 C   0  0  0  0  0  0  0  0  0  0  0  0
    1.7757    3.7777   10.0261 C   0  0  0  0  0  0  0  0  0  0  0  0
    0.8680    3.3392   10.9975 C   0  0  0  0  0  0  0  0  0  0  0  0
    1.3092    2.5240   12.0437 C   0  0  0  0  0  0  0  0  0  0  0  0
   -0.5769    3.7618   10.9126 C   0  0  0  0  0  0  0  0  0  0  0  0
   -1.1111    3.9318    9.8164 O   0  0  0  0  0  0  0  0  0  0  0  0
   -1.1792    4.0031   12.1232 N   0  0  0  0  0  0  0  0  0  0  0  0
   -2.4941    4.5708   12.2428 C   0  0  0  0  0  0  0  0  0  0  0  0
   -3.4732    4.3742   11.2553 C   0  0  0  0  0  0  0  0  0  0  0  0
   -4.7281    4.9504   11.3975 C   0  0  0  0  0  0  0  0  0  0  0  0
   -5.0306    5.7263   12.5247 C   0  0  0  0  0  0  0  0  0  0  0  0
   -4.0556    5.9172   13.5169 C   0  0  0  0  0  0  0  0  0  0  0  0
   -2.7906    5.3372   13.3771 C   0  0  0  0  0  0  0  0  0  0  0  0
   -6.3945    6.3441   12.6680 C   0  0  0  0  0  0  0  0  0  0  0  0
   -7.2177    6.1258   11.7478 O   0  0  0  0  0  0  0  0  0  0  0  0
   -6.6066    7.0283   13.6967 O   0  0  0  0  0  0  0  0  0  0  0  0
   -0.5540   -0.8141   14.1957 C   0  0  0  0  0  0  0  0  0  0  0  0
   -1.9401   -1.0806   14.0641 C   0  0  0  0  0  0  0  0  0  0  0  0
   -2.7443   -0.3364   13.2160 O   0  0  0  0  0  0  0  0  0  0  0  0
   -2.2132    0.6462   12.3458 C   0  0  0  0  0  0  0  0  0  0  0  0
   -5.3463   -3.2537   13.5726 H   0  0  0  0  0  0  0  0  0  0  0  0
   -3.9656   -2.5593   12.6573 H   0  0  0  0  0  0  0  0  0  0  0  0
   -3.7539   -4.0847   13.5821 H   0  0  0  0  0  0  0  0  0  0  0  0
   -2.2056   -3.6707   16.2438 H   0  0  0  0  0  0  0  0  0  0  0  0
    0.2000   -3.2214   16.4819 H   0  0  0  0  0  0  0  0  0  0  0  0
    2.0065   -1.9875   16.0018 H   0  0  0  0  0  0  0  0  0  0  0  0
    5.1490    1.9152   13.2399 H   0  0  0  0  0  0  0  0  0  0  0  0
    6.8334    0.8942   15.3079 H   0  0  0  0  0  0  0  0  0  0  0  0
    6.2729   -0.7951   17.3212 H   0  0  0  0  0  0  0  0  0  0  0  0
    4.6122    2.3777   11.2484 H   0  0  0  0  0  0  0  0  0  0  0  0
    3.8249    3.8015    9.3895 H   0  0  0  0  0  0  0  0  0  0  0  0
    1.4307    4.3801    9.1987 H   0  0  0  0  0  0  0  0  0  0  0  0
    0.6066    2.1850   12.7906 H   0  0  0  0  0  0  0  0  0  0  0  0
   -3.0540    4.7550   10.3123 H   0  0  0  0  0  0  0  0  0  0  0  0
   -3.6296    3.2883   11.1750 H   0  0  0  0  0  0  0  0  0  0  0  0
   -5.4768    4.7997   10.6339 H   0  0  0  0  0  0  0  0  0  0  0  0
   -4.2827    6.5125   14.3889 H   0  0  0  0  0  0  0  0  0  0  0  0
   -2.0429    5.4802   14.1432 H   0  0  0  0  0  0  0  0  0  0  0  0
   -7.4956    7.3626   13.6775 H   0  0  0  0  0  0  0  0  0  0  0  0
   -0.0946   -0.0243   13.6199 H   0  0  0  0  0  0  0  0  0  0  0  0
   -3.0297    1.1072   11.7706 H   0  0  0  0  0  0  0  0  0  0  0  0
   -1.6988    1.4190   12.9359 H   0  0  0  0  0  0  0  0  0  0  0  0
   -1.4981    0.1759   11.6548 H   0  0  0  0  0  0  0  0  0  0  0  0
  1  2  1  0  0  0  0
  2  3  1  0  0  0  0
  3  4  2  0  0  0  0
  3 36  1  0  0  0  0
  4  5  1  0  0  0  0
  5  6  2  0  0  0  0
  6  7  1  0  0  0  0
  6 35  1  0  0  0  0
  7  8  1  0  0  0  0
  8  9  2  0  0  0  0
  8 16  1  0  0  0  0
  9 10  1  0  0  0  0
 10 11  2  0  0  0  0
 10 17  1  0  0  0  0
 11 12  1  0  0  0  0
 12 13  1  0  0  0  0
 12 16  1  0  0  0  0
 13 14  2  0  0  0  0
 14 15  1  0  0  0  0
 15 16  2  0  0  0  0
 17 18  2  0  0  0  0
 17 22  1  0  0  0  0
 18 19  1  0  0  0  0
 19 20  2  0  0  0  0
 20 21  1  0  0  0  0
 21 22  2  0  0  0  0
 21 23  1  0  0  0  0
 23 24  2  0  0  0  0
 23 25  1  0  0  0  0
 25 26  2  0  0  0  0
 26 27  1  0  0  0  0
 26 31  1  0  0  0  0
 27 28  1  0  0  0  0
 28 29  2  0  0  0  0
 29 30  1  0  0  0  0
 29 32  1  0  0  0  0
 30 31  2  0  0  0  0
 32 33  2  0  0  0  0
 32 34  1  0  0  0  0
 35 36  2  0  0  0  0
 36 37  1  0  0  0  0
 37 38  1  0  0  0  0
  1 39  1  0  0  0  0
  1 40  1  0  0  0  0
  1 41  1  0  0  0  0
  4 42  1  0  0  0  0
  5 43  1  0  0  0  0
  7 44  1  0  0  0  0
 11 45  1  0  0  0  0
 13 46  1  0  0  0  0
 14 47  1  0  0  0  0
 18 48  1  0  0  0  0
 19 49  1  0  0  0  0
 20 50  1  0  0  0  0
 22 51  1  0  0  0  0
 27 52  1  0  0  0  0
 27 53  1  0  0  0  0
 28 54  1  0  0  0  0
 30 55  1  0  0  0  0
 31 56  1  0  0  0  0
 34 57  1  0  0  0  0
 35 58  1  0  0  0  0
 38 59  1  0  0  0  0
 38 60  1  0  0  0  0
 38 61  1  0  0  0  0
M  END
> <IC50[nM]>
0.84

$$$$
CHEMBL3264995
  -OEChem-05192314333D
 Structure written by MMmdl.
 61 65  0     1  0  0  0  0  0999 V2000
   -4.2563   -3.1062   13.5664 C   0  0  0  0  0  0  0  0  0  0  0  0
   -3.8728   -2.3593   14.7106 O   0  0  0  0  0  0  0  0  0  0  0  0
   -2.5249   -2.1101   14.8131 C   0  0  3  0  0  0  0  0  0  0  0  0
   -1.7501   -2.8737   15.6749 C   0  0  0  0  0  0  0  0  0  0  0  0
   -0.3910   -2.6176   15.8092 C   0  0  0  0  0  0  0  0  0  0  0  0
    0.2227   -1.5905   15.0869 C   0  0  0  0  0  0  0  0  0  0  0  0
    1.6077   -1.3711   15.3228 N   0  0  0  0  0  0  0  0  0  0  0  0
    2.5318   -0.4406   14.7752 C   0  0  0  0  0  0  0  0  0  0  0  0
    2.1656    0.3957   13.7562 N   0  0  0  0  0  0  0  0  0  0  0  0
    3.1117    1.2369   13.2296 C   0  0  0  0  0  0  0  0  0  0  0  0
    4.4129    1.2745   13.7026 C   0  0  0  0  0  0  0  0  0  0  0  0
    4.7445    0.4891   14.7604 N   0  0  0  0  0  0  0  0  0  0  0  0
    5.8979    0.3839   15.4837 C   0  0  0  0  0  0  0  0  0  0  0  0
    5.5998   -0.5411   16.5157 C   0  0  0  0  0  0  0  0  0  0  0  0
    4.3864   -1.0537   16.3628 N   0  0  0  0  0  0  0  0  0  0  0  0
    3.8368   -0.3920   15.3291 C   0  0  0  0  0  0  0  0  0  0  0  0
    2.6550    2.1423   12.1326 C   0  0  0  0  0  0  0  0  0  0  0  0
    3.5650    2.6308   11.1723 C   0  0  0  0  0  0  0  0  0  0  0  0
    3.1221    3.4386   10.1249 C   0  0  0  0  0  0  0  0  0  0  0  0
    1.7757    3.7777   10.0261 C   0  0  0  0  0  0  0  0  0  0  0  0
    0.8680    3.3392   10.9975 C   0  0  0  0  0  0  0  0  0  0  0  0
    1.3092    2.5240   12.0437 C   0  0  0  0  0  0  0  0  0  0  0  0
   -0.5769    3.7618   10.9126 C   0  0  0  0  0  0  0  0  0  0  0  0
   -1.1111    3.9318    9.8164 O   0  0  0  0  0  0  0  0  0  0  0  0
   -1.1792    4.0031   12.1232 N   0  0  0  0  0  0  0  0  0  0  0  0
   -2.4941    4.5708   12.2428 C   0  0  0  0  0  0  0  0  0  0  0  0
   -3.4732    4.3742   11.2553 C   0  0  0  0  0  0  0  0  0  0  0  0
   -4.7281    4.9504   11.3975 C   0  0  0  0  0  0  0  0  0  0  0  0
   -5.0306    5.7263   12.5247 C   0  0  0  0  0  0  0  0  0  0  0  0
   -4.0556    5.9172   13.5169 C   0  0  0  0  0  0  0  0  0  0  0  0
   -2.7906    5.3372   13.3771 C   0  0  0  0  0  0  0  0  0  0  0  0
   -6.3945    6.3441   12.6680 C   0  0  0  0  0  0  0  0  0  0  0  0
   -7.2177    6.1258   11.7478 O   0  0  0  0  0  0  0  0  0  0  0  0
   -6.6066    7.0283   13.6967 O   0  0  0  0  0  0  0  0  0  0  0  0
   -0.5540   -0.8141   14.1957 C   0  0  0  0  0  0  0  0  0  0  0  0
   -1.9401   -1.0806   14.0641 C   0  0  0  0  0  0  0  0  0  0  0  0
   -2.7443   -0.3364   13.2160 O   0  0  0  0  0  0  0  0  0  0  0  0
   -2.2132    0.6462   12.3458 C   0  0  0  0  0  0  0  0  0  0  0  0
   -5.3463   -3.2537   13.5726 H   0  0  0  0  0  0  0  0  0  0  0  0
   -3.9656   -2.5593   12.6573 H   0  0  0  0  0  0  0  0  0  0  0  0
   -3.7539   -4.0847   13.5821 H   0  0  0  0  0  0  0  0  0  0  0  0
   -2.3269   -2.8215   13.9978 H   0  0  0  0  0  0  0  0  0  0  0  0
   -2.2056   -3.6707   16.2438 H   0  0  0  0  0  0  0  0  0  0  0  0
    0.2000   -3.2214   16.4819 H   0  0  0  0  0  0  0  0  0  0  0  0
    5.1490    1.9152   13.2399 H   0  0  0  0  0  0  0  0  0  0  0  0
    6.8334    0.8942   15.3079 H   0  0  0  0  0  0  0  0  0  0  0  0
    6.2729   -0.7951   17.3212 H   0  0  0  0  0  0  0  0  0  0  0  0
    4.6122    2.3777   11.2484 H   0  0  0  0  0  0  0  0  0  0  0  0
    3.8249    3.8015    9.3895 H   0  0  0  0  0  0  0  0  0  0  0  0
    1.4307    4.3801    9.1987 H   0  0  0  0  0  0  0  0  0  0  0  0
    0.6066    2.1850   12.7906 H   0  0  0  0  0  0  0  0  0  0  0  0
   -2.0156    4.1940    9.9416 H   0  0  0  0  0  0  0  0  0  0  0  0
   -3.2498    3.7747   10.3852 H   0  0  0  0  0  0  0  0  0  0  0  0
   -5.4768    4.7997   10.6339 H   0  0  0  0  0  0  0  0  0  0  0  0
   -4.2827    6.5125   14.3889 H   0  0  0  0  0  0  0  0  0  0  0  0
   -2.0429    5.4802   14.1432 H   0  0  0  0  0  0  0  0  0  0  0  0
   -7.4956    7.3626   13.6775 H   0  0  0  0  0  0  0  0  0  0  0  0
   -0.0946   -0.0243   13.6199 H   0  0  0  0  0  0  0  0  0  0  0  0
   -3.0297    1.1072   11.7706 H   0  0  0  0  0  0  0  0  0  0  0  0
   -1.6988    1.4190   12.9359 H   0  0  0  0  0  0  0  0  0  0  0  0
   -1.4981    0.1759   11.6548 H   0  0  0  0  0  0  0  0  0  0  0  0
  1  2  1  0  0  0  0
  2  3  1  0  0  0  0
  3  4  1  0  0  0  0
  3 36  1  0  0  0  0
  4  5  2  0  0  0  0
  5  6  1  0  0  0  0
  6  7  2  0  0  0  0
  6 35  1  0  0  0  0
  7  8  1  0  0  0  0
  8  9  2  0  0  0  0
  8 16  1  0  0  0  0
  9 10  1  0  0  0  0
 10 11  2  0  0  0  0
 10 17  1  0  0  0  0
 11 12  1  0  0  0  0
 12 13  1  0  0  0  0
 12 16  1  0  0  0  0
 13 14  2  0  0  0  0
 14 15  1  0  0  0  0
 15 16  2  0  0  0  0
 17 18  2  0  0  0  0
 17 22  1  0  0  0  0
 18 19  1  0  0  0  0
 19 20  2  0  0  0  0
 20 21  1  0  0  0  0
 21 22  2  0  0  0  0
 21 23  1  0  0  0  0
 23 24  1  0  0  0  0
 23 25  2  0  0  0  0
 25 26  1  0  0  0  0
 26 27  2  0  0  0  0
 26 31  1  0  0  0  0
 27 28  1  0  0  0  0
 28 29  2  0  0  0  0
 29 30  1  0  0  0  0
 29 32  1  0  0  0  0
 30 31  2  0  0  0  0
 32 33  2  0  0  0  0
 32 34  1  0  0  0  0
 35 36  2  0  0  0  0
 36 37  1  0  0  0  0
 37 38  1  0  0  0  0
  1 39  1  0  0  0  0
  1 40  1  0  0  0  0
  1 41  1  0  0  0  0
  3 42  1  0  0  0  0
  4 43  1  0  0  0  0
  5 44  1  0  0  0  0
 11 45  1  0  0  0  0
 13 46  1  0  0  0  0
 14 47  1  0  0  0  0
 18 48  1  0  0  0  0
 19 49  1  0  0  0  0
 20 50  1  0  0  0  0
 22 51  1  0  0  0  0
 24 52  1  0  0  0  0
 27 53  1  0  0  0  0
 28 54  1  0  0  0  0
 30 55  1  0  0  0  0
 31 56  1  0  0  0  0
 34 57  1  0  0  0  0
 35 58  1  0  0  0  0
 38 59  1  0  0  0  0
 38 60  1  0  0  0  0
 38 61  1  0  0  0  0
M  END
> <IC50[nM]>
0.84

$$$$
CHEMBL3264995
  -OEChem-05192314333D
 Structure written by MMmdl.
 61 65  0     0  0  0  0  0  0999 V2000
   -4.2563   -3.1062   13.5664 C   0  0  0  0  0  0  0  0  0  0  0  0
   -3.8728   -2.3593   14.7106 O   0  0  0  0  0  0  0  0  0  0  0  0
   -2.5249   -2.1101   14.8131 C   0  0  0  0  0  0  0  0  0  0  0  0
   -1.7501   -2.8737   15.6749 C   0  0  0  0  0  0  0  0  0  0  0  0
   -0.3910   -2.6176   15.8092 C   0  0  0  0  0  0  0  0  0  0  0  0
    0.2227   -1.5905   15.0869 C   0  0  0  0  0  0  0  0  0  0  0  0
    1.6077   -1.3711   15.3228 N   0  0  0  0  0  0  0  0  0  0  0  0
    2.5318   -0.4406   14.7752 C   0  0  0  0  0  0  0  0  0  0  0  0
    2.1656    0.3957   13.7562 N   0  0  0  0  0  0  0  0  0  0  0  0
    3.1117    1.2369   13.2296 C   0  0  0  0  0  0  0  0  0  0  0  0
    4.4129    1.2745   13.7026 C   0  0  0  0  0  0  0  0  0  0  0  0
    4.7445    0.4891   14.7604 N   0  0  0  0  0  0  0  0  0  0  0  0
    5.8979    0.3839   15.4837 C   0  0  0  0  0  0  0  0  0  0  0  0
    5.5998   -0.5411   16.5157 C   0  0  0  0  0  0  0  0  0  0  0  0
    4.3864   -1.0537   16.3628 N   0  0  0  0  0  0  0  0  0  0  0  0
    3.8368   -0.3920   15.3291 C   0  0  0  0  0  0  0  0  0  0  0  0
    2.6550    2.1423   12.1326 C   0  0  0  0  0  0  0  0  0  0  0  0
    3.5650    2.6308   11.1723 C   0  0  0  0  0  0  0  0  0  0  0  0
    3.1221    3.4386   10.1249 C   0  0  0  0  0  0  0  0  0  0  0  0
    1.7757    3.7777   10.0261 C   0  0  0  0  0  0  0  0  0  0  0  0
    0.8680    3.3392   10.9975 C   0  0  0  0  0  0  0  0  0  0  0  0
    1.3092    2.5240   12.0437 C   0  0  0  0  0  0  0  0  0  0  0  0
   -0.5769    3.7618   10.9126 C   0  0  0  0  0  0  0  0  0  0  0  0
   -1.1111    3.9318    9.8164 O   0  0  0  0  0  0  0  0  0  0  0  0
   -1.1792    4.0031   12.1232 N   0  0  0  0  0  0  0  0  0  0  0  0
   -2.4941    4.5708   12.2428 C   0  0  0  0  0  0  0  0  0  0  0  0
   -3.4732    4.3742   11.2553 C   0  0  0  0  0  0  0  0  0  0  0  0
   -4.7281    4.9504   11.3975 C   0  0  0  0  0  0  0  0  0  0  0  0
   -5.0306    5.7263   12.5247 C   0  0  0  0  0  0  0  0  0  0  0  0
   -4.0556    5.9172   13.5169 C   0  0  0  0  0  0  0  0  0  0  0  0
   -2.7906    5.3372   13.3771 C   0  0  0  0  0  0  0  0  0  0  0  0
   -6.3945    6.3441   12.6680 C   0  0  0  0  0  0  0  0  0  0  0  0
   -7.2177    6.1258   11.7478 O   0  0  0  0  0  0  0  0  0  0  0  0
   -6.6066    7.0283   13.6967 O   0  0  0  0  0  0  0  0  0  0  0  0
   -0.5540   -0.8141   14.1957 C   0  0  0  0  0  0  0  0  0  0  0  0
   -1.9401   -1.0806   14.0641 C   0  0  0  0  0  0  0  0  0  0  0  0
   -2.7443   -0.3364   13.2160 O   0  0  0  0  0  0  0  0  0  0  0  0
   -2.2132    0.6462   12.3458 C   0  0  0  0  0  0  0  0  0  0  0  0
   -5.3463   -3.2537   13.5726 H   0  0  0  0  0  0  0  0  0  0  0  0
   -3.9656   -2.5593   12.6573 H   0  0  0  0  0  0  0  0  0  0  0  0
   -3.7539   -4.0847   13.5821 H   0  0  0  0  0  0  0  0  0  0  0  0
   -2.2056   -3.6707   16.2438 H   0  0  0  0  0  0  0  0  0  0  0  0
   -0.2177   -2.3985   16.8731 H   0  0  0  0  0  0  0  0  0  0  0  0
    0.1308   -3.5468   15.5364 H   0  0  0  0  0  0  0  0  0  0  0  0
    5.1490    1.9152   13.2399 H   0  0  0  0  0  0  0  0  0  0  0  0
    6.8334    0.8942   15.3079 H   0  0  0  0  0  0  0  0  0  0  0  0
    6.2729   -0.7951   17.3212 H   0  0  0  0  0  0  0  0  0  0  0  0
    4.6122    2.3777   11.2484 H   0  0  0  0  0  0  0  0  0  0  0  0
    3.8249    3.8015    9.3895 H   0  0  0  0  0  0  0  0  0  0  0  0
    1.4307    4.3801    9.1987 H   0  0  0  0  0  0  0  0  0  0  0  0
    0.6066    2.1850   12.7906 H   0  0  0  0  0  0  0  0  0  0  0  0
   -2.0156    4.1940    9.9416 H   0  0  0  0  0  0  0  0  0  0  0  0
   -3.2498    3.7747   10.3852 H   0  0  0  0  0  0  0  0  0  0  0  0
   -5.4768    4.7997   10.6339 H   0  0  0  0  0  0  0  0  0  0  0  0
   -4.2827    6.5125   14.3889 H   0  0  0  0  0  0  0  0  0  0  0  0
   -2.0429    5.4802   14.1432 H   0  0  0  0  0  0  0  0  0  0  0  0
   -7.4956    7.3626   13.6775 H   0  0  0  0  0  0  0  0  0  0  0  0
   -0.0946   -0.0243   13.6199 H   0  0  0  0  0  0  0  0  0  0  0  0
   -3.0297    1.1072   11.7706 H   0  0  0  0  0  0  0  0  0  0  0  0
   -1.6988    1.4190   12.9359 H   0  0  0  0  0  0  0  0  0  0  0  0
   -1.4981    0.1759   11.6548 H   0  0  0  0  0  0  0  0  0  0  0  0
  1  2  1  0  0  0  0
  2  3  1  0  0  0  0
  3  4  2  0  0  0  0
  3 36  1  0  0  0  0
  4  5  1  0  0  0  0
  5  6  1  0  0  0  0
  6  7  2  0  0  0  0
  6 35  1  0  0  0  0
  7  8  1  0  0  0  0
  8  9  2  0  0  0  0
  8 16  1  0  0  0  0
  9 10  1  0  0  0  0
 10 11  2  0  0  0  0
 10 17  1  0  0  0  0
 11 12  1  0  0  0  0
 12 13  1  0  0  0  0
 12 16  1  0  0  0  0
 13 14  2  0  0  0  0
 14 15  1  0  0  0  0
 15 16  2  0  0  0  0
 17 18  2  0  0  0  0
 17 22  1  0  0  0  0
 18 19  1  0  0  0  0
 19 20  2  0  0  0  0
 20 21  1  0  0  0  0
 21 22  2  0  0  0  0
 21 23  1  0  0  0  0
 23 24  1  0  0  0  0
 23 25  2  0  0  0  0
 25 26  1  0  0  0  0
 26 27  2  0  0  0  0
 26 31  1  0  0  0  0
 27 28  1  0  0  0  0
 28 29  2  0  0  0  0
 29 30  1  0  0  0  0
 29 32  1  0  0  0  0
 30 31  2  0  0  0  0
 32 33  2  0  0  0  0
 32 34  1  0  0  0  0
 35 36  2  0  0  0  0
 36 37  1  0  0  0  0
 37 38  1  0  0  0  0
  1 39  1  0  0  0  0
  1 40  1  0  0  0  0
  1 41  1  0  0  0  0
  4 42  1  0  0  0  0
  5 43  1  0  0  0  0
  5 44  1  0  0  0  0
 11 45  1  0  0  0  0
 13 46  1  0  0  0  0
 14 47  1  0  0  0  0
 18 48  1  0  0  0  0
 19 49  1  0  0  0  0
 20 50  1  0  0  0  0
 22 51  1  0  0  0  0
 24 52  1  0  0  0  0
 27 53  1  0  0  0  0
 28 54  1  0  0  0  0
 30 55  1  0  0  0  0
 31 56  1  0  0  0  0
 34 57  1  0  0  0  0
 35 58  1  0  0  0  0
 38 59  1  0  0  0  0
 38 60  1  0  0  0  0
 38 61  1  0  0  0  0
M  END
> <IC50[nM]>
0.84

$$$$
CHEMBL3264995
  -OEChem-05192314333D
 Structure written by MMmdl.
 61 65  0     0  0  0  0  0  0999 V2000
   -4.2563   -3.1062   13.5664 C   0  0  0  0  0  0  0  0  0  0  0  0
   -3.8728   -2.3593   14.7106 O   0  0  0  0  0  0  0  0  0  0  0  0
   -2.5249   -2.1101   14.8131 C   0  0  0  0  0  0  0  0  0  0  0  0
   -1.7501   -2.8737   15.6749 C   0  0  0  0  0  0  0  0  0  0  0  0
   -0.3910   -2.6176   15.8092 C   0  0  0  0  0  0  0  0  0  0  0  0
    0.2227   -1.5905   15.0869 C   0  0  0  0  0  0  0  0  0  0  0  0
    1.6077   -1.3711   15.3228 N   0  0  0  0  0  0  0  0  0  0  0  0
    2.5318   -0.4406   14.7752 C   0  0  0  0  0  0  0  0  0  0  0  0
    2.1656    0.3957   13.7562 N   0  0  0  0  0  0  0  0  0  0  0  0
    3.1117    1.2369   13.2296 C   0  0  0  0  0  0  0  0  0  0  0  0
    4.4129    1.2745   13.7026 C   0  0  0  0  0  0  0  0  0  0  0  0
    4.7445    0.4891   14.7604 N   0  0  0  0  0  0  0  0  0  0  0  0
    5.8979    0.3839   15.4837 C   0  0  0  0  0  0  0  0  0  0  0  0
    5.5998   -0.5411   16.5157 C   0  0  0  0  0  0  0  0  0  0  0  0
    4.3864   -1.0537   16.3628 N   0  0  0  0  0  0  0  0  0  0  0  0
    3.8368   -0.3920   15.3291 C   0  0  0  0  0  0  0  0  0  0  0  0
    2.6550    2.1423   12.1326 C   0  0  0  0  0  0  0  0  0  0  0  0
    3.5650    2.6308   11.1723 C   0  0  0  0  0  0  0  0  0  0  0  0
    3.1221    3.4386   10.1249 C   0  0  0  0  0  0  0  0  0  0  0  0
    1.7757    3.7777   10.0261 C   0  0  0  0  0  0  0  0  0  0  0  0
    0.8680    3.3392   10.9975 C   0  0  0  0  0  0  0  0  0  0  0  0
    1.3092    2.5240   12.0437 C   0  0  0  0  0  0  0  0  0  0  0  0
   -0.5769    3.7618   10.9126 C   0  0  0  0  0  0  0  0  0  0  0  0
   -1.1111    3.9318    9.8164 O   0  0  0  0  0  0  0  0  0  0  0  0
   -1.1792    4.0031   12.1232 N   0  0  0  0  0  0  0  0  0  0  0  0
   -2.4941    4.5708   12.2428 C   0  0  0  0  0  0  0  0  0  0  0  0
   -3.4732    4.3742   11.2553 C   0  0  0  0  0  0  0  0  0  0  0  0
   -4.7281    4.9504   11.3975 C   0  0  0  0  0  0  0  0  0  0  0  0
   -5.0306    5.7263   12.5247 C   0  0  0  0  0  0  0  0  0  0  0  0
   -4.0556    5.9172   13.5169 C   0  0  0  0  0  0  0  0  0  0  0  0
   -2.7906    5.3372   13.3771 C   0  0  0  0  0  0  0  0  0  0  0  0
   -6.3945    6.3441   12.6680 C   0  0  0  0  0  0  0  0  0  0  0  0
   -7.2177    6.1258   11.7478 O   0  0  0  0  0  0  0  0  0  0  0  0
   -6.6066    7.0283   13.6967 O   0  0  0  0  0  0  0  0  0  0  0  0
   -0.5540   -0.8141   14.1957 C   0  0  0  0  0  0  0  0  0  0  0  0
   -1.9401   -1.0806   14.0641 C   0  0  0  0  0  0  0  0  0  0  0  0
   -2.7443   -0.3364   13.2160 O   0  0  0  0  0  0  0  0  0  0  0  0
   -2.2132    0.6462   12.3458 C   0  0  0  0  0  0  0  0  0  0  0  0
   -5.3463   -3.2537   13.5726 H   0  0  0  0  0  0  0  0  0  0  0  0
   -3.9656   -2.5593   12.6573 H   0  0  0  0  0  0  0  0  0  0  0  0
   -3.7539   -4.0847   13.5821 H   0  0  0  0  0  0  0  0  0  0  0  0
   -2.2056   -3.6707   16.2438 H   0  0  0  0  0  0  0  0  0  0  0  0
    0.2000   -3.2214   16.4819 H   0  0  0  0  0  0  0  0  0  0  0  0
    5.1490    1.9152   13.2399 H   0  0  0  0  0  0  0  0  0  0  0  0
    6.8334    0.8942   15.3079 H   0  0  0  0  0  0  0  0  0  0  0  0
    6.2729   -0.7951   17.3212 H   0  0  0  0  0  0  0  0  0  0  0  0
    4.6122    2.3777   11.2484 H   0  0  0  0  0  0  0  0  0  0  0  0
    3.8249    3.8015    9.3895 H   0  0  0  0  0  0  0  0  0  0  0  0
    1.4307    4.3801    9.1987 H   0  0  0  0  0  0  0  0  0  0  0  0
    0.6066    2.1850   12.7906 H   0  0  0  0  0  0  0  0  0  0  0  0
   -2.0156    4.1940    9.9416 H   0  0  0  0  0  0  0  0  0  0  0  0
   -3.2498    3.7747   10.3852 H   0  0  0  0  0  0  0  0  0  0  0  0
   -5.4768    4.7997   10.6339 H   0  0  0  0  0  0  0  0  0  0  0  0
   -4.2827    6.5125   14.3889 H   0  0  0  0  0  0  0  0  0  0  0  0
   -2.0429    5.4802   14.1432 H   0  0  0  0  0  0  0  0  0  0  0  0
   -7.4956    7.3626   13.6775 H   0  0  0  0  0  0  0  0  0  0  0  0
   -0.4587    0.2335   14.5174 H   0  0  0  0  0  0  0  0  0  0  0  0
   -0.1091   -0.9328   13.1967 H   0  0  0  0  0  0  0  0  0  0  0  0
   -3.0297    1.1072   11.7706 H   0  0  0  0  0  0  0  0  0  0  0  0
   -1.6988    1.4190   12.9359 H   0  0  0  0  0  0  0  0  0  0  0  0
   -1.4981    0.1759   11.6548 H   0  0  0  0  0  0  0  0  0  0  0  0
  1  2  1  0  0  0  0
  2  3  1  0  0  0  0
  3  4  1  0  0  0  0
  3 36  2  0  0  0  0
  4  5  2  0  0  0  0
  5  6  1  0  0  0  0
  6  7  2  0  0  0  0
  6 35  1  0  0  0  0
  7  8  1  0  0  0  0
  8  9  2  0  0  0  0
  8 16  1  0  0  0  0
  9 10  1  0  0  0  0
 10 11  2  0  0  0  0
 10 17  1  0  0  0  0
 11 12  1  0  0  0  0
 12 13  1  0  0  0  0
 12 16  1  0  0  0  0
 13 14  2  0  0  0  0
 14 15  1  0  0  0  0
 15 16  2  0  0  0  0
 17 18  2  0  0  0  0
 17 22  1  0  0  0  0
 18 19  1  0  0  0  0
 19 20  2  0  0  0  0
 20 21  1  0  0  0  0
 21 22  2  0  0  0  0
 21 23  1  0  0  0  0
 23 24  1  0  0  0  0
 23 25  2  0  0  0  0
 25 26  1  0  0  0  0
 26 27  2  0  0  0  0
 26 31  1  0  0  0  0
 27 28  1  0  0  0  0
 28 29  2  0  0  0  0
 29 30  1  0  0  0  0
 29 32  1  0  0  0  0
 30 31  2  0  0  0  0
 32 33  2  0  0  0  0
 32 34  1  0  0  0  0
 35 36  1  0  0  0  0
 36 37  1  0  0  0  0
 37 38  1  0  0  0  0
  1 39  1  0  0  0  0
  1 40  1  0  0  0  0
  1 41  1  0  0  0  0
  4 42  1  0  0  0  0
  5 43  1  0  0  0  0
 11 44  1  0  0  0  0
 13 45  1  0  0  0  0
 14 46  1  0  0  0  0
 18 47  1  0  0  0  0
 19 48  1  0  0  0  0
 20 49  1  0  0  0  0
 22 50  1  0  0  0  0
 24 51  1  0  0  0  0
 27 52  1  0  0  0  0
 28 53  1  0  0  0  0
 30 54  1  0  0  0  0
 31 55  1  0  0  0  0
 34 56  1  0  0  0  0
 35 57  1  0  0  0  0
 35 58  1  0  0  0  0
 38 59  1  0  0  0  0
 38 60  1  0  0  0  0
 38 61  1  0  0  0  0
M  END
> <IC50[nM]>
0.84

$$$$
CHEMBL3264995
  -OEChem-05192314333D
 Structure written by MMmdl.
 61 65  0     0  0  0  0  0  0999 V2000
   -4.2563   -3.1062   13.5664 C   0  0  0  0  0  0  0  0  0  0  0  0
   -3.8728   -2.3593   14.7106 O   0  0  0  0  0  0  0  0  0  0  0  0
   -2.5249   -2.1101   14.8131 C   0  0  0  0  0  0  0  0  0  0  0  0
   -1.7501   -2.8737   15.6749 C   0  0  0  0  0  0  0  0  0  0  0  0
   -0.3910   -2.6176   15.8092 C   0  0  0  0  0  0  0  0  0  0  0  0
    0.2227   -1.5905   15.0869 C   0  0  0  0  0  0  0  0  0  0  0  0
    1.6077   -1.3711   15.3228 N   0  0  0  0  0  0  0  0  0  0  0  0
    2.5318   -0.4406   14.7752 C   0  0  0  0  0  0  0  0  0  0  0  0
    2.1656    0.3957   13.7562 N   0  0  0  0  0  0  0  0  0  0  0  0
    3.1117    1.2369   13.2296 C   0  0  0  0  0  0  0  0  0  0  0  0
    4.4129    1.2745   13.7026 C   0  0  0  0  0  0  0  0  0  0  0  0
    4.7445    0.4891   14.7604 N   0  0  0  0  0  0  0  0  0  0  0  0
    5.8979    0.3839   15.4837 C   0  0  0  0  0  0  0  0  0  0  0  0
    5.5998   -0.5411   16.5157 C   0  0  0  0  0  0  0  0  0  0  0  0
    4.3864   -1.0537   16.3628 N   0  0  0  0  0  0  0  0  0  0  0  0
    3.8368   -0.3920   15.3291 C   0  0  0  0  0  0  0  0  0  0  0  0
    2.6550    2.1423   12.1326 C   0  0  0  0  0  0  0  0  0  0  0  0
    3.5650    2.6308   11.1723 C   0  0  0  0  0  0  0  0  0  0  0  0
    3.1221    3.4386   10.1249 C   0  0  0  0  0  0  0  0  0  0  0  0
    1.7757    3.7777   10.0261 C   0  0  0  0  0  0  0  0  0  0  0  0
    0.8680    3.3392   10.9975 C   0  0  0  0  0  0  0  0  0  0  0  0
    1.3092    2.5240   12.0437 C   0  0  0  0  0  0  0  0  0  0  0  0
   -0.5769    3.7618   10.9126 C   0  0  0  0  0  0  0  0  0  0  0  0
   -1.1111    3.9318    9.8164 O   0  0  0  0  0  0  0  0  0  0  0  0
   -1.1792    4.0031   12.1232 N   0  0  0  0  0  0  0  0  0  0  0  0
   -2.4941    4.5708   12.2428 C   0  0  0  0  0  0  0  0  0  0  0  0
   -3.4732    4.3742   11.2553 C   0  0  0  0  0  0  0  0  0  0  0  0
   -4.7281    4.9504   11.3975 C   0  0  0  0  0  0  0  0  0  0  0  0
   -5.0306    5.7263   12.5247 C   0  0  0  0  0  0  0  0  0  0  0  0
   -4.0556    5.9172   13.5169 C   0  0  0  0  0  0  0  0  0  0  0  0
   -2.7906    5.3372   13.3771 C   0  0  0  0  0  0  0  0  0  0  0  0
   -6.3945    6.3441   12.6680 C   0  0  0  0  0  0  0  0  0  0  0  0
   -7.2177    6.1258   11.7478 O   0  0  0  0  0  0  0  0  0  0  0  0
   -6.6066    7.0283   13.6967 O   0  0  0  0  0  0  0  0  0  0  0  0
   -0.5540   -0.8141   14.1957 C   0  0  0  0  0  0  0  0  0  0  0  0
   -1.9401   -1.0806   14.0641 C   0  0  0  0  0  0  0  0  0  0  0  0
   -2.7443   -0.3364   13.2160 O   0  0  0  0  0  0  0  0  0  0  0  0
   -2.2132    0.6462   12.3458 C   0  0  0  0  0  0  0  0  0  0  0  0
   -5.3463   -3.2537   13.5726 H   0  0  0  0  0  0  0  0  0  0  0  0
   -3.9656   -2.5593   12.6573 H   0  0  0  0  0  0  0  0  0  0  0  0
   -3.7539   -4.0847   13.5821 H   0  0  0  0  0  0  0  0  0  0  0  0
   -2.2056   -3.6707   16.2438 H   0  0  0  0  0  0  0  0  0  0  0  0
    0.2000   -3.2214   16.4819 H   0  0  0  0  0  0  0  0  0  0  0  0
    1.2298    0.3935   13.4037 H   0  0  0  0  0  0  0  0  0  0  0  0
    5.1490    1.9152   13.2399 H   0  0  0  0  0  0  0  0  0  0  0  0
    6.8334    0.8942   15.3079 H   0  0  0  0  0  0  0  0  0  0  0  0
    6.2729   -0.7951   17.3212 H   0  0  0  0  0  0  0  0  0  0  0  0
    4.6122    2.3777   11.2484 H   0  0  0  0  0  0  0  0  0  0  0  0
    3.8249    3.8015    9.3895 H   0  0  0  0  0  0  0  0  0  0  0  0
    1.4307    4.3801    9.1987 H   0  0  0  0  0  0  0  0  0  0  0  0
    0.6066    2.1850   12.7906 H   0  0  0  0  0  0  0  0  0  0  0  0
   -3.2498    3.7747   10.3852 H   0  0  0  0  0  0  0  0  0  0  0  0
   -5.4768    4.7997   10.6339 H   0  0  0  0  0  0  0  0  0  0  0  0
   -4.6764    6.6268   12.0015 H   0  0  0  0  0  0  0  0  0  0  0  0
   -4.2827    6.5125   14.3889 H   0  0  0  0  0  0  0  0  0  0  0  0
   -2.0429    5.4802   14.1432 H   0  0  0  0  0  0  0  0  0  0  0  0
   -7.4956    7.3626   13.6775 H   0  0  0  0  0  0  0  0  0  0  0  0
   -0.0946   -0.0243   13.6199 H   0  0  0  0  0  0  0  0  0  0  0  0
   -3.0297    1.1072   11.7706 H   0  0  0  0  0  0  0  0  0  0  0  0
   -1.6988    1.4190   12.9359 H   0  0  0  0  0  0  0  0  0  0  0  0
   -1.4981    0.1759   11.6548 H   0  0  0  0  0  0  0  0  0  0  0  0
  1  2  1  0  0  0  0
  2  3  1  0  0  0  0
  3  4  2  0  0  0  0
  3 36  1  0  0  0  0
  4  5  1  0  0  0  0
  5  6  2  0  0  0  0
  6  7  1  0  0  0  0
  6 35  1  0  0  0  0
  7  8  2  0  0  0  0
  8  9  1  0  0  0  0
  8 16  1  0  0  0  0
  9 10  1  0  0  0  0
 10 11  2  0  0  0  0
 10 17  1  0  0  0  0
 11 12  1  0  0  0  0
 12 13  1  0  0  0  0
 12 16  1  0  0  0  0
 13 14  2  0  0  0  0
 14 15  1  0  0  0  0
 15 16  2  0  0  0  0
 17 18  2  0  0  0  0
 17 22  1  0  0  0  0
 18 19  1  0  0  0  0
 19 20  2  0  0  0  0
 20 21  1  0  0  0  0
 21 22  2  0  0  0  0
 21 23  1  0  0  0  0
 23 24  2  0  0  0  0
 23 25  1  0  0  0  0
 25 26  2  0  0  0  0
 26 27  1  0  0  0  0
 26 31  1  0  0  0  0
 27 28  2  0  0  0  0
 28 29  1  0  0  0  0
 29 30  1  0  0  0  0
 29 32  1  0  0  0  0
 30 31  2  0  0  0  0
 32 33  2  0  0  0  0
 32 34  1  0  0  0  0
 35 36  2  0  0  0  0
 36 37  1  0  0  0  0
 37 38  1  0  0  0  0
  1 39  1  0  0  0  0
  1 40  1  0  0  0  0
  1 41  1  0  0  0  0
  4 42  1  0  0  0  0
  5 43  1  0  0  0  0
  9 44  1  0  0  0  0
 11 45  1  0  0  0  0
 13 46  1  0  0  0  0
 14 47  1  0  0  0  0
 18 48  1  0  0  0  0
 19 49  1  0  0  0  0
 20 50  1  0  0  0  0
 22 51  1  0  0  0  0
 27 52  1  0  0  0  0
 28 53  1  0  0  0  0
 29 54  1  0  0  0  0
 30 55  1  0  0  0  0
 31 56  1  0  0  0  0
 34 57  1  0  0  0  0
 35 58  1  0  0  0  0
 38 59  1  0  0  0  0
 38 60  1  0  0  0  0
 38 61  1  0  0  0  0
M  END
> <IC50[nM]>
0.84

$$$$
CHEMBL3264995
  -OEChem-05192314333D
 Structure written by MMmdl.
 61 65  0     0  0  0  0  0  0999 V2000
   -4.2563   -3.1062   13.5664 C   0  0  0  0  0  0  0  0  0  0  0  0
   -3.8728   -2.3593   14.7106 O   0  0  0  0  0  0  0  0  0  0  0  0
   -2.5249   -2.1101   14.8131 C   0  0  0  0  0  0  0  0  0  0  0  0
   -1.7501   -2.8737   15.6749 C   0  0  0  0  0  0  0  0  0  0  0  0
   -0.3910   -2.6176   15.8092 C   0  0  0  0  0  0  0  0  0  0  0  0
    0.2227   -1.5905   15.0869 C   0  0  0  0  0  0  0  0  0  0  0  0
    1.6077   -1.3711   15.3228 N   0  0  0  0  0  0  0  0  0  0  0  0
    2.5318   -0.4406   14.7752 C   0  0  0  0  0  0  0  0  0  0  0  0
    2.1656    0.3957   13.7562 N   0  0  0  0  0  0  0  0  0  0  0  0
    3.1117    1.2369   13.2296 C   0  0  0  0  0  0  0  0  0  0  0  0
    4.4129    1.2745   13.7026 C   0  0  0  0  0  0  0  0  0  0  0  0
    4.7445    0.4891   14.7604 N   0  0  0  0  0  0  0  0  0  0  0  0
    5.8979    0.3839   15.4837 C   0  0  0  0  0  0  0  0  0  0  0  0
    5.5998   -0.5411   16.5157 C   0  0  0  0  0  0  0  0  0  0  0  0
    4.3864   -1.0537   16.3628 N   0  0  0  0  0  0  0  0  0  0  0  0
    3.8368   -0.3920   15.3291 C   0  0  0  0  0  0  0  0  0  0  0  0
    2.6550    2.1423   12.1326 C   0  0  0  0  0  0  0  0  0  0  0  0
    3.5650    2.6308   11.1723 C   0  0  0  0  0  0  0  0  0  0  0  0
    3.1221    3.4386   10.1249 C   0  0  0  0  0  0  0  0  0  0  0  0
    1.7757    3.7777   10.0261 C   0  0  0  0  0  0  0  0  0  0  0  0
    0.8680    3.3392   10.9975 C   0  0  0  0  0  0  0  0  0  0  0  0
    1.3092    2.5240   12.0437 C   0  0  0  0  0  0  0  0  0  0  0  0
   -0.5769    3.7618   10.9126 C   0  0  0  0  0  0  0  0  0  0  0  0
   -1.1111    3.9318    9.8164 O   0  0  0  0  0  0  0  0  0  0  0  0
   -1.1792    4.0031   12.1232 N   0  0  0  0  0  0  0  0  0  0  0  0
   -2.4941    4.5708   12.2428 C   0  0  0  0  0  0  0  0  0  0  0  0
   -3.4732    4.3742   11.2553 C   0  0  0  0  0  0  0  0  0  0  0  0
   -4.7281    4.9504   11.3975 C   0  0  0  0  0  0  0  0  0  0  0  0
   -5.0306    5.7263   12.5247 C   0  0  0  0  0  0  0  0  0  0  0  0
   -4.0556    5.9172   13.5169 C   0  0  0  0  0  0  0  0  0  0  0  0
   -2.7906    5.3372   13.3771 C   0  0  0  0  0  0  0  0  0  0  0  0
   -6.3945    6.3441   12.6680 C   0  0  0  0  0  0  0  0  0  0  0  0
   -7.2177    6.1258   11.7478 O   0  0  0  0  0  0  0  0  0  0  0  0
   -6.6066    7.0283   13.6967 O   0  0  0  0  0  0  0  0  0  0  0  0
   -0.5540   -0.8141   14.1957 C   0  0  0  0  0  0  0  0  0  0  0  0
   -1.9401   -1.0806   14.0641 C   0  0  0  0  0  0  0  0  0  0  0  0
   -2.7443   -0.3364   13.2160 O   0  0  0  0  0  0  0  0  0  0  0  0
   -2.2132    0.6462   12.3458 C   0  0  0  0  0  0  0  0  0  0  0  0
   -5.3463   -3.2537   13.5726 H   0  0  0  0  0  0  0  0  0  0  0  0
   -3.9656   -2.5593   12.6573 H   0  0  0  0  0  0  0  0  0  0  0  0
   -3.7539   -4.0847   13.5821 H   0  0  0  0  0  0  0  0  0  0  0  0
   -2.2056   -3.6707   16.2438 H   0  0  0  0  0  0  0  0  0  0  0  0
    0.2000   -3.2214   16.4819 H   0  0  0  0  0  0  0  0  0  0  0  0
    1.2298    0.3935   13.4037 H   0  0  0  0  0  0  0  0  0  0  0  0
    5.1490    1.9152   13.2399 H   0  0  0  0  0  0  0  0  0  0  0  0
    6.8334    0.8942   15.3079 H   0  0  0  0  0  0  0  0  0  0  0  0
    6.2729   -0.7951   17.3212 H   0  0  0  0  0  0  0  0  0  0  0  0
    4.6122    2.3777   11.2484 H   0  0  0  0  0  0  0  0  0  0  0  0
    3.8249    3.8015    9.3895 H   0  0  0  0  0  0  0  0  0  0  0  0
    1.4307    4.3801    9.1987 H   0  0  0  0  0  0  0  0  0  0  0  0
    0.6066    2.1850   12.7906 H   0  0  0  0  0  0  0  0  0  0  0  0
   -3.0540    4.7550   10.3123 H   0  0  0  0  0  0  0  0  0  0  0  0
   -3.6296    3.2883   11.1750 H   0  0  0  0  0  0  0  0  0  0  0  0
   -5.4768    4.7997   10.6339 H   0  0  0  0  0  0  0  0  0  0  0  0
   -4.2827    6.5125   14.3889 H   0  0  0  0  0  0  0  0  0  0  0  0
   -2.0429    5.4802   14.1432 H   0  0  0  0  0  0  0  0  0  0  0  0
   -7.4956    7.3626   13.6775 H   0  0  0  0  0  0  0  0  0  0  0  0
   -0.0946   -0.0243   13.6199 H   0  0  0  0  0  0  0  0  0  0  0  0
   -3.0297    1.1072   11.7706 H   0  0  0  0  0  0  0  0  0  0  0  0
   -1.6988    1.4190   12.9359 H   0  0  0  0  0  0  0  0  0  0  0  0
   -1.4981    0.1759   11.6548 H   0  0  0  0  0  0  0  0  0  0  0  0
  1  2  1  0  0  0  0
  2  3  1  0  0  0  0
  3  4  2  0  0  0  0
  3 36  1  0  0  0  0
  4  5  1  0  0  0  0
  5  6  2  0  0  0  0
  6  7  1  0  0  0  0
  6 35  1  0  0  0  0
  7  8  2  0  0  0  0
  8  9  1  0  0  0  0
  8 16  1  0  0  0  0
  9 10  1  0  0  0  0
 10 11  2  0  0  0  0
 10 17  1  0  0  0  0
 11 12  1  0  0  0  0
 12 13  1  0  0  0  0
 12 16  1  0  0  0  0
 13 14  2  0  0  0  0
 14 15  1  0  0  0  0
 15 16  2  0  0  0  0
 17 18  2  0  0  0  0
 17 22  1  0  0  0  0
 18 19  1  0  0  0  0
 19 20  2  0  0  0  0
 20 21  1  0  0  0  0
 21 22  2  0  0  0  0
 21 23  1  0  0  0  0
 23 24  2  0  0  0  0
 23 25  1  0  0  0  0
 25 26  2  0  0  0  0
 26 27  1  0  0  0  0
 26 31  1  0  0  0  0
 27 28  1  0  0  0  0
 28 29  2  0  0  0  0
 29 30  1  0  0  0  0
 29 32  1  0  0  0  0
 30 31  2  0  0  0  0
 32 33  2  0  0  0  0
 32 34  1  0  0  0  0
 35 36  2  0  0  0  0
 36 37  1  0  0  0  0
 37 38  1  0  0  0  0
  1 39  1  0  0  0  0
  1 40  1  0  0  0  0
  1 41  1  0  0  0  0
  4 42  1  0  0  0  0
  5 43  1  0  0  0  0
  9 44  1  0  0  0  0
 11 45  1  0  0  0  0
 13 46  1  0  0  0  0
 14 47  1  0  0  0  0
 18 48  1  0  0  0  0
 19 49  1  0  0  0  0
 20 50  1  0  0  0  0
 22 51  1  0  0  0  0
 27 52  1  0  0  0  0
 27 53  1  0  0  0  0
 28 54  1  0  0  0  0
 30 55  1  0  0  0  0
 31 56  1  0  0  0  0
 34 57  1  0  0  0  0
 35 58  1  0  0  0  0
 38 59  1  0  0  0  0
 38 60  1  0  0  0  0
 38 61  1  0  0  0  0
M  END
> <IC50[nM]>
0.84

$$$$
CHEMBL3264995
  -OEChem-05192314333D
 Structure written by MMmdl.
 61 65  0     0  0  0  0  0  0999 V2000
   -4.2563   -3.1062   13.5664 C   0  0  0  0  0  0  0  0  0  0  0  0
   -3.8728   -2.3593   14.7106 O   0  0  0  0  0  0  0  0  0  0  0  0
   -2.5249   -2.1101   14.8131 C   0  0  0  0  0  0  0  0  0  0  0  0
   -1.7501   -2.8737   15.6749 C   0  0  0  0  0  0  0  0  0  0  0  0
   -0.3910   -2.6176   15.8092 C   0  0  0  0  0  0  0  0  0  0  0  0
    0.2227   -1.5905   15.0869 C   0  0  0  0  0  0  0  0  0  0  0  0
    1.6077   -1.3711   15.3228 N   0  0  0  0  0  0  0  0  0  0  0  0
    2.5318   -0.4406   14.7752 C   0  0  0  0  0  0  0  0  0  0  0  0
    2.1656    0.3957   13.7562 N   0  0  0  0  0  0  0  0  0  0  0  0
    3.1117    1.2369   13.2296 C   0  0  0  0  0  0  0  0  0  0  0  0
    4.4129    1.2745   13.7026 C   0  0  0  0  0  0  0  0  0  0  0  0
    4.7445    0.4891   14.7604 N   0  0  0  0  0  0  0  0  0  0  0  0
    5.8979    0.3839   15.4837 C   0  0  0  0  0  0  0  0  0  0  0  0
    5.5998   -0.5411   16.5157 C   0  0  0  0  0  0  0  0  0  0  0  0
    4.3864   -1.0537   16.3628 N   0  0  0  0  0  0  0  0  0  0  0  0
    3.8368   -0.3920   15.3291 C   0  0  0  0  0  0  0  0  0  0  0  0
    2.6550    2.1423   12.1326 C   0  0  0  0  0  0  0  0  0  0  0  0
    3.5650    2.6308   11.1723 C   0  0  0  0  0  0  0  0  0  0  0  0
    3.1221    3.4386   10.1249 C   0  0  0  0  0  0  0  0  0  0  0  0
    1.7757    3.7777   10.0261 C   0  0  0  0  0  0  0  0  0  0  0  0
    0.8680    3.3392   10.9975 C   0  0  0  0  0  0  0  0  0  0  0  0
    1.3092    2.5240   12.0437 C   0  0  0  0  0  0  0  0  0  0  0  0
   -0.5769    3.7618   10.9126 C   0  0  0  0  0  0  0  0  0  0  0  0
   -1.1111    3.9318    9.8164 O   0  0  0  0  0  0  0  0  0  0  0  0
   -1.1792    4.0031   12.1232 N   0  0  0  0  0  0  0  0  0  0  0  0
   -2.4941    4.5708   12.2428 C   0  0  0  0  0  0  0  0  0  0  0  0
   -3.4732    4.3742   11.2553 C   0  0  0  0  0  0  0  0  0  0  0  0
   -4.7281    4.9504   11.3975 C   0  0  0  0  0  0  0  0  0  0  0  0
   -5.0306    5.7263   12.5247 C   0  0  0  0  0  0  0  0  0  0  0  0
   -4.0556    5.9172   13.5169 C   0  0  0  0  0  0  0  0  0  0  0  0
   -2.7906    5.3372   13.3771 C   0  0  0  0  0  0  0  0  0  0  0  0
   -6.3945    6.3441   12.6680 C   0  0  0  0  0  0  0  0  0  0  0  0
   -7.2177    6.1258   11.7478 O   0  0  0  0  0  0  0  0  0  0  0  0
   -6.6066    7.0283   13.6967 O   0  0  0  0  0  0  0  0  0  0  0  0
   -0.5540   -0.8141   14.1957 C   0  0  0  0  0  0  0  0  0  0  0  0
   -1.9401   -1.0806   14.0641 C   0  0  0  0  0  0  0  0  0  0  0  0
   -2.7443   -0.3364   13.2160 O   0  0  0  0  0  0  0  0  0  0  0  0
   -2.2132    0.6462   12.3458 C   0  0  0  0  0  0  0  0  0  0  0  0
   -5.3463   -3.2537   13.5726 H   0  0  0  0  0  0  0  0  0  0  0  0
   -3.9656   -2.5593   12.6573 H   0  0  0  0  0  0  0  0  0  0  0  0
   -3.7539   -4.0847   13.5821 H   0  0  0  0  0  0  0  0  0  0  0  0
   -2.2056   -3.6707   16.2438 H   0  0  0  0  0  0  0  0  0  0  0  0
    0.2000   -3.2214   16.4819 H   0  0  0  0  0  0  0  0  0  0  0  0
    5.0695    0.9879   12.8679 H   0  0  0  0  0  0  0  0  0  0  0  0
    4.6221    2.3146   13.9932 H   0  0  0  0  0  0  0  0  0  0  0  0
    6.8334    0.8942   15.3079 H   0  0  0  0  0  0  0  0  0  0  0  0
    6.2729   -0.7951   17.3212 H   0  0  0  0  0  0  0  0  0  0  0  0
    4.6122    2.3777   11.2484 H   0  0  0  0  0  0  0  0  0  0  0  0
    3.8249    3.8015    9.3895 H   0  0  0  0  0  0  0  0  0  0  0  0
    1.4307    4.3801    9.1987 H   0  0  0  0  0  0  0  0  0  0  0  0
    0.6066    2.1850   12.7906 H   0  0  0  0  0  0  0  0  0  0  0  0
   -3.2498    3.7747   10.3852 H   0  0  0  0  0  0  0  0  0  0  0  0
   -5.4768    4.7997   10.6339 H   0  0  0  0  0  0  0  0  0  0  0  0
   -4.6764    6.6268   12.0015 H   0  0  0  0  0  0  0  0  0  0  0  0
   -4.2827    6.5125   14.3889 H   0  0  0  0  0  0  0  0  0  0  0  0
   -2.0429    5.4802   14.1432 H   0  0  0  0  0  0  0  0  0  0  0  0
   -7.4956    7.3626   13.6775 H   0  0  0  0  0  0  0  0  0  0  0  0
   -0.0946   -0.0243   13.6199 H   0  0  0  0  0  0  0  0  0  0  0  0
   -3.0297    1.1072   11.7706 H   0  0  0  0  0  0  0  0  0  0  0  0
   -1.6988    1.4190   12.9359 H   0  0  0  0  0  0  0  0  0  0  0  0
   -1.4981    0.1759   11.6548 H   0  0  0  0  0  0  0  0  0  0  0  0
  1  2  1  0  0  0  0
  2  3  1  0  0  0  0
  3  4  2  0  0  0  0
  3 36  1  0  0  0  0
  4  5  1  0  0  0  0
  5  6  2  0  0  0  0
  6  7  1  0  0  0  0
  6 35  1  0  0  0  0
  7  8  2  0  0  0  0
  8  9  1  0  0  0  0
  8 16  1  0  0  0  0
  9 10  2  0  0  0  0
 10 11  1  0  0  0  0
 10 17  1  0  0  0  0
 11 12  1  0  0  0  0
 12 13  1  0  0  0  0
 12 16  1  0  0  0  0
 13 14  2  0  0  0  0
 14 15  1  0  0  0  0
 15 16  2  0  0  0  0
 17 18  2  0  0  0  0
 17 22  1  0  0  0  0
 18 19  1  0  0  0  0
 19 20  2  0  0  0  0
 20 21  1  0  0  0  0
 21 22  2  0  0  0  0
 21 23  1  0  0  0  0
 23 24  2  0  0  0  0
 23 25  1  0  0  0  0
 25 26  2  0  0  0  0
 26 27  1  0  0  0  0
 26 31  1  0  0  0  0
 27 28  2  0  0  0  0
 28 29  1  0  0  0  0
 29 30  1  0  0  0  0
 29 32  1  0  0  0  0
 30 31  2  0  0  0  0
 32 33  2  0  0  0  0
 32 34  1  0  0  0  0
 35 36  2  0  0  0  0
 36 37  1  0  0  0  0
 37 38  1  0  0  0  0
  1 39  1  0  0  0  0
  1 40  1  0  0  0  0
  1 41  1  0  0  0  0
  4 42  1  0  0  0  0
  5 43  1  0  0  0  0
 11 44  1  0  0  0  0
 11 45  1  0  0  0  0
 13 46  1  0  0  0  0
 14 47  1  0  0  0  0
 18 48  1  0  0  0  0
 19 49  1  0  0  0  0
 20 50  1  0  0  0  0
 22 51  1  0  0  0  0
 27 52  1  0  0  0  0
 28 53  1  0  0  0  0
 29 54  1  0  0  0  0
 30 55  1  0  0  0  0
 31 56  1  0  0  0  0
 34 57  1  0  0  0  0
 35 58  1  0  0  0  0
 38 59  1  0  0  0  0
 38 60  1  0  0  0  0
 38 61  1  0  0  0  0
M  END
> <IC50[nM]>
0.84

$$$$
CHEMBL3264995
  -OEChem-05192314333D
 Structure written by MMmdl.
 61 65  0     0  0  0  0  0  0999 V2000
   -4.2563   -3.1062   13.5664 C   0  0  0  0  0  0  0  0  0  0  0  0
   -3.8728   -2.3593   14.7106 O   0  0  0  0  0  0  0  0  0  0  0  0
   -2.5249   -2.1101   14.8131 C   0  0  0  0  0  0  0  0  0  0  0  0
   -1.7501   -2.8737   15.6749 C   0  0  0  0  0  0  0  0  0  0  0  0
   -0.3910   -2.6176   15.8092 C   0  0  0  0  0  0  0  0  0  0  0  0
    0.2227   -1.5905   15.0869 C   0  0  0  0  0  0  0  0  0  0  0  0
    1.6077   -1.3711   15.3228 N   0  0  0  0  0  0  0  0  0  0  0  0
    2.5318   -0.4406   14.7752 C   0  0  0  0  0  0  0  0  0  0  0  0
    2.1656    0.3957   13.7562 N   0  0  0  0  0  0  0  0  0  0  0  0
    3.1117    1.2369   13.2296 C   0  0  0  0  0  0  0  0  0  0  0  0
    4.4129    1.2745   13.7026 C   0  0  0  0  0  0  0  0  0  0  0  0
    4.7445    0.4891   14.7604 N   0  0  0  0  0  0  0  0  0  0  0  0
    5.8979    0.3839   15.4837 C   0  0  0  0  0  0  0  0  0  0  0  0
    5.5998   -0.5411   16.5157 C   0  0  0  0  0  0  0  0  0  0  0  0
    4.3864   -1.0537   16.3628 N   0  0  0  0  0  0  0  0  0  0  0  0
    3.8368   -0.3920   15.3291 C   0  0  0  0  0  0  0  0  0  0  0  0
    2.6550    2.1423   12.1326 C   0  0  0  0  0  0  0  0  0  0  0  0
    3.5650    2.6308   11.1723 C   0  0  0  0  0  0  0  0  0  0  0  0
    3.1221    3.4386   10.1249 C   0  0  0  0  0  0  0  0  0  0  0  0
    1.7757    3.7777   10.0261 C   0  0  0  0  0  0  0  0  0  0  0  0
    0.8680    3.3392   10.9975 C   0  0  0  0  0  0  0  0  0  0  0  0
    1.3092    2.5240   12.0437 C   0  0  0  0  0  0  0  0  0  0  0  0
   -0.5769    3.7618   10.9126 C   0  0  0  0  0  0  0  0  0  0  0  0
   -1.1111    3.9318    9.8164 O   0  0  0  0  0  0  0  0  0  0  0  0
   -1.1792    4.0031   12.1232 N   0  0  0  0  0  0  0  0  0  0  0  0
   -2.4941    4.5708   12.2428 C   0  0  0  0  0  0  0  0  0  0  0  0
   -3.4732    4.3742   11.2553 C   0  0  0  0  0  0  0  0  0  0  0  0
   -4.7281    4.9504   11.3975 C   0  0  0  0  0  0  0  0  0  0  0  0
   -5.0306    5.7263   12.5247 C   0  0  0  0  0  0  0  0  0  0  0  0
   -4.0556    5.9172   13.5169 C   0  0  0  0  0  0  0  0  0  0  0  0
   -2.7906    5.3372   13.3771 C   0  0  0  0  0  0  0  0  0  0  0  0
   -6.3945    6.3441   12.6680 C   0  0  0  0  0  0  0  0  0  0  0  0
   -7.2177    6.1258   11.7478 O   0  0  0  0  0  0  0  0  0  0  0  0
   -6.6066    7.0283   13.6967 O   0  0  0  0  0  0  0  0  0  0  0  0
   -0.5540   -0.8141   14.1957 C   0  0  0  0  0  0  0  0  0  0  0  0
   -1.9401   -1.0806   14.0641 C   0  0  0  0  0  0  0  0  0  0  0  0
   -2.7443   -0.3364   13.2160 O   0  0  0  0  0  0  0  0  0  0  0  0
   -2.2132    0.6462   12.3458 C   0  0  0  0  0  0  0  0  0  0  0  0
   -5.3463   -3.2537   13.5726 H   0  0  0  0  0  0  0  0  0  0  0  0
   -3.9656   -2.5593   12.6573 H   0  0  0  0  0  0  0  0  0  0  0  0
   -3.7539   -4.0847   13.5821 H   0  0  0  0  0  0  0  0  0  0  0  0
   -2.2056   -3.6707   16.2438 H   0  0  0  0  0  0  0  0  0  0  0  0
    0.2000   -3.2214   16.4819 H   0  0  0  0  0  0  0  0  0  0  0  0
    5.0695    0.9879   12.8679 H   0  0  0  0  0  0  0  0  0  0  0  0
    4.6221    2.3146   13.9932 H   0  0  0  0  0  0  0  0  0  0  0  0
    6.8334    0.8942   15.3079 H   0  0  0  0  0  0  0  0  0  0  0  0
    6.2729   -0.7951   17.3212 H   0  0  0  0  0  0  0  0  0  0  0  0
    4.6122    2.3777   11.2484 H   0  0  0  0  0  0  0  0  0  0  0  0
    3.8249    3.8015    9.3895 H   0  0  0  0  0  0  0  0  0  0  0  0
    1.4307    4.3801    9.1987 H   0  0  0  0  0  0  0  0  0  0  0  0
    0.6066    2.1850   12.7906 H   0  0  0  0  0  0  0  0  0  0  0  0
   -3.0540    4.7550   10.3123 H   0  0  0  0  0  0  0  0  0  0  0  0
   -3.6296    3.2883   11.1750 H   0  0  0  0  0  0  0  0  0  0  0  0
   -5.4768    4.7997   10.6339 H   0  0  0  0  0  0  0  0  0  0  0  0
   -4.2827    6.5125   14.3889 H   0  0  0  0  0  0  0  0  0  0  0  0
   -2.0429    5.4802   14.1432 H   0  0  0  0  0  0  0  0  0  0  0  0
   -7.4956    7.3626   13.6775 H   0  0  0  0  0  0  0  0  0  0  0  0
   -0.0946   -0.0243   13.6199 H   0  0  0  0  0  0  0  0  0  0  0  0
   -3.0297    1.1072   11.7706 H   0  0  0  0  0  0  0  0  0  0  0  0
   -1.6988    1.4190   12.9359 H   0  0  0  0  0  0  0  0  0  0  0  0
   -1.4981    0.1759   11.6548 H   0  0  0  0  0  0  0  0  0  0  0  0
  1  2  1  0  0  0  0
  2  3  1  0  0  0  0
  3  4  2  0  0  0  0
  3 36  1  0  0  0  0
  4  5  1  0  0  0  0
  5  6  2  0  0  0  0
  6  7  1  0  0  0  0
  6 35  1  0  0  0  0
  7  8  2  0  0  0  0
  8  9  1  0  0  0  0
  8 16  1  0  0  0  0
  9 10  2  0  0  0  0
 10 11  1  0  0  0  0
 10 17  1  0  0  0  0
 11 12  1  0  0  0  0
 12 13  1  0  0  0  0
 12 16  1  0  0  0  0
 13 14  2  0  0  0  0
 14 15  1  0  0  0  0
 15 16  2  0  0  0  0
 17 18  2  0  0  0  0
 17 22  1  0  0  0  0
 18 19  1  0  0  0  0
 19 20  2  0  0  0  0
 20 21  1  0  0  0  0
 21 22  2  0  0  0  0
 21 23  1  0  0  0  0
 23 24  2  0  0  0  0
 23 25  1  0  0  0  0
 25 26  2  0  0  0  0
 26 27  1  0  0  0  0
 26 31  1  0  0  0  0
 27 28  1  0  0  0  0
 28 29  2  0  0  0  0
 29 30  1  0  0  0  0
 29 32  1  0  0  0  0
 30 31  2  0  0  0  0
 32 33  2  0  0  0  0
 32 34  1  0  0  0  0
 35 36  2  0  0  0  0
 36 37  1  0  0  0  0
 37 38  1  0  0  0  0
  1 39  1  0  0  0  0
  1 40  1  0  0  0  0
  1 41  1  0  0  0  0
  4 42  1  0  0  0  0
  5 43  1  0  0  0  0
 11 44  1  0  0  0  0
 11 45  1  0  0  0  0
 13 46  1  0  0  0  0
 14 47  1  0  0  0  0
 18 48  1  0  0  0  0
 19 49  1  0  0  0  0
 20 50  1  0  0  0  0
 22 51  1  0  0  0  0
 27 52  1  0  0  0  0
 27 53  1  0  0  0  0
 28 54  1  0  0  0  0
 30 55  1  0  0  0  0
 31 56  1  0  0  0  0
 34 57  1  0  0  0  0
 35 58  1  0  0  0  0
 38 59  1  0  0  0  0
 38 60  1  0  0  0  0
 38 61  1  0  0  0  0
M  END
> <IC50[nM]>
0.84

$$$$
CHEMBL3264995
  -OEChem-05192314333D
 Structure written by MMmdl.
 61 65  0     1  0  0  0  0  0999 V2000
   -4.2563   -3.1062   13.5664 C   0  0  0  0  0  0  0  0  0  0  0  0
   -3.8728   -2.3593   14.7106 O   0  0  0  0  0  0  0  0  0  0  0  0
   -2.5249   -2.1101   14.8131 C   0  0  3  0  0  0  0  0  0  0  0  0
   -1.7501   -2.8737   15.6749 C   0  0  0  0  0  0  0  0  0  0  0  0
   -0.3910   -2.6176   15.8092 C   0  0  0  0  0  0  0  0  0  0  0  0
    0.2227   -1.5905   15.0869 C   0  0  0  0  0  0  0  0  0  0  0  0
    1.6077   -1.3711   15.3228 N   0  0  0  0  0  0  0  0  0  0  0  0
    2.5318   -0.4406   14.7752 C   0  0  0  0  0  0  0  0  0  0  0  0
    2.1656    0.3957   13.7562 N   0  0  0  0  0  0  0  0  0  0  0  0
    3.1117    1.2369   13.2296 C   0  0  0  0  0  0  0  0  0  0  0  0
    4.4129    1.2745   13.7026 C   0  0  0  0  0  0  0  0  0  0  0  0
    4.7445    0.4891   14.7604 N   0  0  0  0  0  0  0  0  0  0  0  0
    5.8979    0.3839   15.4837 C   0  0  0  0  0  0  0  0  0  0  0  0
    5.5998   -0.5411   16.5157 C   0  0  0  0  0  0  0  0  0  0  0  0
    4.3864   -1.0537   16.3628 N   0  0  0  0  0  0  0  0  0  0  0  0
    3.8368   -0.3920   15.3291 C   0  0  0  0  0  0  0  0  0  0  0  0
    2.6550    2.1423   12.1326 C   0  0  0  0  0  0  0  0  0  0  0  0
    3.5650    2.6308   11.1723 C   0  0  0  0  0  0  0  0  0  0  0  0
    3.1221    3.4386   10.1249 C   0  0  0  0  0  0  0  0  0  0  0  0
    1.7757    3.7777   10.0261 C   0  0  0  0  0  0  0  0  0  0  0  0
    0.8680    3.3392   10.9975 C   0  0  0  0  0  0  0  0  0  0  0  0
    1.3092    2.5240   12.0437 C   0  0  0  0  0  0  0  0  0  0  0  0
   -0.5769    3.7618   10.9126 C   0  0  0  0  0  0  0  0  0  0  0  0
   -1.1111    3.9318    9.8164 O   0  0  0  0  0  0  0  0  0  0  0  0
   -1.1792    4.0031   12.1232 N   0  0  0  0  0  0  0  0  0  0  0  0
   -2.4941    4.5708   12.2428 C   0  0  0  0  0  0  0  0  0  0  0  0
   -3.4732    4.3742   11.2553 C   0  0  0  0  0  0  0  0  0  0  0  0
   -4.7281    4.9504   11.3975 C   0  0  0  0  0  0  0  0  0  0  0  0
   -5.0306    5.7263   12.5247 C   0  0  0  0  0  0  0  0  0  0  0  0
   -4.0556    5.9172   13.5169 C   0  0  0  0  0  0  0  0  0  0  0  0
   -2.7906    5.3372   13.3771 C   0  0  0  0  0  0  0  0  0  0  0  0
   -6.3945    6.3441   12.6680 C   0  0  0  0  0  0  0  0  0  0  0  0
   -7.2177    6.1258   11.7478 O   0  0  0  0  0  0  0  0  0  0  0  0
   -6.6066    7.0283   13.6967 O   0  0  0  0  0  0  0  0  0  0  0  0
   -0.5540   -0.8141   14.1957 C   0  0  0  0  0  0  0  0  0  0  0  0
   -1.9401   -1.0806   14.0641 C   0  0  0  0  0  0  0  0  0  0  0  0
   -2.7443   -0.3364   13.2160 O   0  0  0  0  0  0  0  0  0  0  0  0
   -2.2132    0.6462   12.3458 C   0  0  0  0  0  0  0  0  0  0  0  0
   -5.3463   -3.2537   13.5726 H   0  0  0  0  0  0  0  0  0  0  0  0
   -3.9656   -2.5593   12.6573 H   0  0  0  0  0  0  0  0  0  0  0  0
   -3.7539   -4.0847   13.5821 H   0  0  0  0  0  0  0  0  0  0  0  0
   -2.3269   -2.8215   13.9978 H   0  0  0  0  0  0  0  0  0  0  0  0
   -2.2056   -3.6707   16.2438 H   0  0  0  0  0  0  0  0  0  0  0  0
    0.2000   -3.2214   16.4819 H   0  0  0  0  0  0  0  0  0  0  0  0
    5.1490    1.9152   13.2399 H   0  0  0  0  0  0  0  0  0  0  0  0
    6.8334    0.8942   15.3079 H   0  0  0  0  0  0  0  0  0  0  0  0
    6.2729   -0.7951   17.3212 H   0  0  0  0  0  0  0  0  0  0  0  0
    4.6122    2.3777   11.2484 H   0  0  0  0  0  0  0  0  0  0  0  0
    3.8249    3.8015    9.3895 H   0  0  0  0  0  0  0  0  0  0  0  0
    1.4307    4.3801    9.1987 H   0  0  0  0  0  0  0  0  0  0  0  0
    0.6066    2.1850   12.7906 H   0  0  0  0  0  0  0  0  0  0  0  0
   -3.2498    3.7747   10.3852 H   0  0  0  0  0  0  0  0  0  0  0  0
   -5.4768    4.7997   10.6339 H   0  0  0  0  0  0  0  0  0  0  0  0
   -4.6764    6.6268   12.0015 H   0  0  0  0  0  0  0  0  0  0  0  0
   -4.2827    6.5125   14.3889 H   0  0  0  0  0  0  0  0  0  0  0  0
   -2.0429    5.4802   14.1432 H   0  0  0  0  0  0  0  0  0  0  0  0
   -7.4956    7.3626   13.6775 H   0  0  0  0  0  0  0  0  0  0  0  0
   -0.0946   -0.0243   13.6199 H   0  0  0  0  0  0  0  0  0  0  0  0
   -3.0297    1.1072   11.7706 H   0  0  0  0  0  0  0  0  0  0  0  0
   -1.6988    1.4190   12.9359 H   0  0  0  0  0  0  0  0  0  0  0  0
   -1.4981    0.1759   11.6548 H   0  0  0  0  0  0  0  0  0  0  0  0
  1  2  1  0  0  0  0
  2  3  1  0  0  0  0
  3  4  1  0  0  0  0
  3 36  1  0  0  0  0
  4  5  2  0  0  0  0
  5  6  1  0  0  0  0
  6  7  2  0  0  0  0
  6 35  1  0  0  0  0
  7  8  1  0  0  0  0
  8  9  2  0  0  0  0
  8 16  1  0  0  0  0
  9 10  1  0  0  0  0
 10 11  2  0  0  0  0
 10 17  1  0  0  0  0
 11 12  1  0  0  0  0
 12 13  1  0  0  0  0
 12 16  1  0  0  0  0
 13 14  2  0  0  0  0
 14 15  1  0  0  0  0
 15 16  2  0  0  0  0
 17 18  2  0  0  0  0
 17 22  1  0  0  0  0
 18 19  1  0  0  0  0
 19 20  2  0  0  0  0
 20 21  1  0  0  0  0
 21 22  2  0  0  0  0
 21 23  1  0  0  0  0
 23 24  2  0  0  0  0
 23 25  1  0  0  0  0
 25 26  2  0  0  0  0
 26 27  1  0  0  0  0
 26 31  1  0  0  0  0
 27 28  2  0  0  0  0
 28 29  1  0  0  0  0
 29 30  1  0  0  0  0
 29 32  1  0  0  0  0
 30 31  2  0  0  0  0
 32 33  2  0  0  0  0
 32 34  1  0  0  0  0
 35 36  2  0  0  0  0
 36 37  1  0  0  0  0
 37 38  1  0  0  0  0
  1 39  1  0  0  0  0
  1 40  1  0  0  0  0
  1 41  1  0  0  0  0
  3 42  1  0  0  0  0
  4 43  1  0  0  0  0
  5 44  1  0  0  0  0
 11 45  1  0  0  0  0
 13 46  1  0  0  0  0
 14 47  1  0  0  0  0
 18 48  1  0  0  0  0
 19 49  1  0  0  0  0
 20 50  1  0  0  0  0
 22 51  1  0  0  0  0
 27 52  1  0  0  0  0
 28 53  1  0  0  0  0
 29 54  1  0  0  0  0
 30 55  1  0  0  0  0
 31 56  1  0  0  0  0
 34 57  1  0  0  0  0
 35 58  1  0  0  0  0
 38 59  1  0  0  0  0
 38 60  1  0  0  0  0
 38 61  1  0  0  0  0
M  END
> <IC50[nM]>
0.84

$$$$
CHEMBL3264995
  -OEChem-05192314333D
 Structure written by MMmdl.
 61 65  0     1  0  0  0  0  0999 V2000
   -4.2563   -3.1062   13.5664 C   0  0  0  0  0  0  0  0  0  0  0  0
   -3.8728   -2.3593   14.7106 O   0  0  0  0  0  0  0  0  0  0  0  0
   -2.5249   -2.1101   14.8131 C   0  0  3  0  0  0  0  0  0  0  0  0
   -1.7501   -2.8737   15.6749 C   0  0  0  0  0  0  0  0  0  0  0  0
   -0.3910   -2.6176   15.8092 C   0  0  0  0  0  0  0  0  0  0  0  0
    0.2227   -1.5905   15.0869 C   0  0  0  0  0  0  0  0  0  0  0  0
    1.6077   -1.3711   15.3228 N   0  0  0  0  0  0  0  0  0  0  0  0
    2.5318   -0.4406   14.7752 C   0  0  0  0  0  0  0  0  0  0  0  0
    2.1656    0.3957   13.7562 N   0  0  0  0  0  0  0  0  0  0  0  0
    3.1117    1.2369   13.2296 C   0  0  0  0  0  0  0  0  0  0  0  0
    4.4129    1.2745   13.7026 C   0  0  0  0  0  0  0  0  0  0  0  0
    4.7445    0.4891   14.7604 N   0  0  0  0  0  0  0  0  0  0  0  0
    5.8979    0.3839   15.4837 C   0  0  0  0  0  0  0  0  0  0  0  0
    5.5998   -0.5411   16.5157 C   0  0  0  0  0  0  0  0  0  0  0  0
    4.3864   -1.0537   16.3628 N   0  0  0  0  0  0  0  0  0  0  0  0
    3.8368   -0.3920   15.3291 C   0  0  0  0  0  0  0  0  0  0  0  0
    2.6550    2.1423   12.1326 C   0  0  0  0  0  0  0  0  0  0  0  0
    3.5650    2.6308   11.1723 C   0  0  0  0  0  0  0  0  0  0  0  0
    3.1221    3.4386   10.1249 C   0  0  0  0  0  0  0  0  0  0  0  0
    1.7757    3.7777   10.0261 C   0  0  0  0  0  0  0  0  0  0  0  0
    0.8680    3.3392   10.9975 C   0  0  0  0  0  0  0  0  0  0  0  0
    1.3092    2.5240   12.0437 C   0  0  0  0  0  0  0  0  0  0  0  0
   -0.5769    3.7618   10.9126 C   0  0  0  0  0  0  0  0  0  0  0  0
   -1.1111    3.9318    9.8164 O   0  0  0  0  0  0  0  0  0  0  0  0
   -1.1792    4.0031   12.1232 N   0  0  0  0  0  0  0  0  0  0  0  0
   -2.4941    4.5708   12.2428 C   0  0  0  0  0  0  0  0  0  0  0  0
   -3.4732    4.3742   11.2553 C   0  0  0  0  0  0  0  0  0  0  0  0
   -4.7281    4.9504   11.3975 C   0  0  0  0  0  0  0  0  0  0  0  0
   -5.0306    5.7263   12.5247 C   0  0  0  0  0  0  0  0  0  0  0  0
   -4.0556    5.9172   13.5169 C   0  0  0  0  0  0  0  0  0  0  0  0
   -2.7906    5.3372   13.3771 C   0  0  0  0  0  0  0  0  0  0  0  0
   -6.3945    6.3441   12.6680 C   0  0  0  0  0  0  0  0  0  0  0  0
   -7.2177    6.1258   11.7478 O   0  0  0  0  0  0  0  0  0  0  0  0
   -6.6066    7.0283   13.6967 O   0  0  0  0  0  0  0  0  0  0  0  0
   -0.5540   -0.8141   14.1957 C   0  0  0  0  0  0  0  0  0  0  0  0
   -1.9401   -1.0806   14.0641 C   0  0  0  0  0  0  0  0  0  0  0  0
   -2.7443   -0.3364   13.2160 O   0  0  0  0  0  0  0  0  0  0  0  0
   -2.2132    0.6462   12.3458 C   0  0  0  0  0  0  0  0  0  0  0  0
   -5.3463   -3.2537   13.5726 H   0  0  0  0  0  0  0  0  0  0  0  0
   -3.9656   -2.5593   12.6573 H   0  0  0  0  0  0  0  0  0  0  0  0
   -3.7539   -4.0847   13.5821 H   0  0  0  0  0  0  0  0  0  0  0  0
   -2.3269   -2.8215   13.9978 H   0  0  0  0  0  0  0  0  0  0  0  0
   -2.2056   -3.6707   16.2438 H   0  0  0  0  0  0  0  0  0  0  0  0
    0.2000   -3.2214   16.4819 H   0  0  0  0  0  0  0  0  0  0  0  0
    5.1490    1.9152   13.2399 H   0  0  0  0  0  0  0  0  0  0  0  0
    6.8334    0.8942   15.3079 H   0  0  0  0  0  0  0  0  0  0  0  0
    6.2729   -0.7951   17.3212 H   0  0  0  0  0  0  0  0  0  0  0  0
    4.6122    2.3777   11.2484 H   0  0  0  0  0  0  0  0  0  0  0  0
    3.8249    3.8015    9.3895 H   0  0  0  0  0  0  0  0  0  0  0  0
    1.4307    4.3801    9.1987 H   0  0  0  0  0  0  0  0  0  0  0  0
    0.6066    2.1850   12.7906 H   0  0  0  0  0  0  0  0  0  0  0  0
   -3.0540    4.7550   10.3123 H   0  0  0  0  0  0  0  0  0  0  0  0
   -3.6296    3.2883   11.1750 H   0  0  0  0  0  0  0  0  0  0  0  0
   -5.4768    4.7997   10.6339 H   0  0  0  0  0  0  0  0  0  0  0  0
   -4.2827    6.5125   14.3889 H   0  0  0  0  0  0  0  0  0  0  0  0
   -2.0429    5.4802   14.1432 H   0  0  0  0  0  0  0  0  0  0  0  0
   -7.4956    7.3626   13.6775 H   0  0  0  0  0  0  0  0  0  0  0  0
   -0.0946   -0.0243   13.6199 H   0  0  0  0  0  0  0  0  0  0  0  0
   -3.0297    1.1072   11.7706 H   0  0  0  0  0  0  0  0  0  0  0  0
   -1.6988    1.4190   12.9359 H   0  0  0  0  0  0  0  0  0  0  0  0
   -1.4981    0.1759   11.6548 H   0  0  0  0  0  0  0  0  0  0  0  0
  1  2  1  0  0  0  0
  2  3  1  0  0  0  0
  3  4  1  0  0  0  0
  3 36  1  0  0  0  0
  4  5  2  0  0  0  0
  5  6  1  0  0  0  0
  6  7  2  0  0  0  0
  6 35  1  0  0  0  0
  7  8  1  0  0  0  0
  8  9  2  0  0  0  0
  8 16  1  0  0  0  0
  9 10  1  0  0  0  0
 10 11  2  0  0  0  0
 10 17  1  0  0  0  0
 11 12  1  0  0  0  0
 12 13  1  0  0  0  0
 12 16  1  0  0  0  0
 13 14  2  0  0  0  0
 14 15  1  0  0  0  0
 15 16  2  0  0  0  0
 17 18  2  0  0  0  0
 17 22  1  0  0  0  0
 18 19  1  0  0  0  0
 19 20  2  0  0  0  0
 20 21  1  0  0  0  0
 21 22  2  0  0  0  0
 21 23  1  0  0  0  0
 23 24  2  0  0  0  0
 23 25  1  0  0  0  0
 25 26  2  0  0  0  0
 26 27  1  0  0  0  0
 26 31  1  0  0  0  0
 27 28  1  0  0  0  0
 28 29  2  0  0  0  0
 29 30  1  0  0  0  0
 29 32  1  0  0  0  0
 30 31  2  0  0  0  0
 32 33  2  0  0  0  0
 32 34  1  0  0  0  0
 35 36  2  0  0  0  0
 36 37  1  0  0  0  0
 37 38  1  0  0  0  0
  1 39  1  0  0  0  0
  1 40  1  0  0  0  0
  1 41  1  0  0  0  0
  3 42  1  0  0  0  0
  4 43  1  0  0  0  0
  5 44  1  0  0  0  0
 11 45  1  0  0  0  0
 13 46  1  0  0  0  0
 14 47  1  0  0  0  0
 18 48  1  0  0  0  0
 19 49  1  0  0  0  0
 20 50  1  0  0  0  0
 22 51  1  0  0  0  0
 27 52  1  0  0  0  0
 27 53  1  0  0  0  0
 28 54  1  0  0  0  0
 30 55  1  0  0  0  0
 31 56  1  0  0  0  0
 34 57  1  0  0  0  0
 35 58  1  0  0  0  0
 38 59  1  0  0  0  0
 38 60  1  0  0  0  0
 38 61  1  0  0  0  0
M  END
> <IC50[nM]>
0.84

$$$$
CHEMBL3264995
  -OEChem-05192314333D
 Structure written by MMmdl.
 61 65  0     0  0  0  0  0  0999 V2000
   -4.2563   -3.1062   13.5664 C   0  0  0  0  0  0  0  0  0  0  0  0
   -3.8728   -2.3593   14.7106 O   0  0  0  0  0  0  0  0  0  0  0  0
   -2.5249   -2.1101   14.8131 C   0  0  0  0  0  0  0  0  0  0  0  0
   -1.7501   -2.8737   15.6749 C   0  0  0  0  0  0  0  0  0  0  0  0
   -0.3910   -2.6176   15.8092 C   0  0  0  0  0  0  0  0  0  0  0  0
    0.2227   -1.5905   15.0869 C   0  0  0  0  0  0  0  0  0  0  0  0
    1.6077   -1.3711   15.3228 N   0  0  0  0  0  0  0  0  0  0  0  0
    2.5318   -0.4406   14.7752 C   0  0  0  0  0  0  0  0  0  0  0  0
    2.1656    0.3957   13.7562 N   0  0  0  0  0  0  0  0  0  0  0  0
    3.1117    1.2369   13.2296 C   0  0  0  0  0  0  0  0  0  0  0  0
    4.4129    1.2745   13.7026 C   0  0  0  0  0  0  0  0  0  0  0  0
    4.7445    0.4891   14.7604 N   0  0  0  0  0  0  0  0  0  0  0  0
    5.8979    0.3839   15.4837 C   0  0  0  0  0  0  0  0  0  0  0  0
    5.5998   -0.5411   16.5157 C   0  0  0  0  0  0  0  0  0  0  0  0
    4.3864   -1.0537   16.3628 N   0  0  0  0  0  0  0  0  0  0  0  0
    3.8368   -0.3920   15.3291 C   0  0  0  0  0  0  0  0  0  0  0  0
    2.6550    2.1423   12.1326 C   0  0  0  0  0  0  0  0  0  0  0  0
    3.5650    2.6308   11.1723 C   0  0  0  0  0  0  0  0  0  0  0  0
    3.1221    3.4386   10.1249 C   0  0  0  0  0  0  0  0  0  0  0  0
    1.7757    3.7777   10.0261 C   0  0  0  0  0  0  0  0  0  0  0  0
    0.8680    3.3392   10.9975 C   0  0  0  0  0  0  0  0  0  0  0  0
    1.3092    2.5240   12.0437 C   0  0  0  0  0  0  0  0  0  0  0  0
   -0.5769    3.7618   10.9126 C   0  0  0  0  0  0  0  0  0  0  0  0
   -1.1111    3.9318    9.8164 O   0  0  0  0  0  0  0  0  0  0  0  0
   -1.1792    4.0031   12.1232 N   0  0  0  0  0  0  0  0  0  0  0  0
   -2.4941    4.5708   12.2428 C   0  0  0  0  0  0  0  0  0  0  0  0
   -3.4732    4.3742   11.2553 C   0  0  0  0  0  0  0  0  0  0  0  0
   -4.7281    4.9504   11.3975 C   0  0  0  0  0  0  0  0  0  0  0  0
   -5.0306    5.7263   12.5247 C   0  0  0  0  0  0  0  0  0  0  0  0
   -4.0556    5.9172   13.5169 C   0  0  0  0  0  0  0  0  0  0  0  0
   -2.7906    5.3372   13.3771 C   0  0  0  0  0  0  0  0  0  0  0  0
   -6.3945    6.3441   12.6680 C   0  0  0  0  0  0  0  0  0  0  0  0
   -7.2177    6.1258   11.7478 O   0  0  0  0  0  0  0  0  0  0  0  0
   -6.6066    7.0283   13.6967 O   0  0  0  0  0  0  0  0  0  0  0  0
   -0.5540   -0.8141   14.1957 C   0  0  0  0  0  0  0  0  0  0  0  0
   -1.9401   -1.0806   14.0641 C   0  0  0  0  0  0  0  0  0  0  0  0
   -2.7443   -0.3364   13.2160 O   0  0  0  0  0  0  0  0  0  0  0  0
   -2.2132    0.6462   12.3458 C   0  0  0  0  0  0  0  0  0  0  0  0
   -5.3463   -3.2537   13.5726 H   0  0  0  0  0  0  0  0  0  0  0  0
   -3.9656   -2.5593   12.6573 H   0  0  0  0  0  0  0  0  0  0  0  0
   -3.7539   -4.0847   13.5821 H   0  0  0  0  0  0  0  0  0  0  0  0
   -2.2056   -3.6707   16.2438 H   0  0  0  0  0  0  0  0  0  0  0  0
   -0.2177   -2.3985   16.8731 H   0  0  0  0  0  0  0  0  0  0  0  0
    0.1308   -3.5468   15.5364 H   0  0  0  0  0  0  0  0  0  0  0  0
    5.1490    1.9152   13.2399 H   0  0  0  0  0  0  0  0  0  0  0  0
    6.8334    0.8942   15.3079 H   0  0  0  0  0  0  0  0  0  0  0  0
    6.2729   -0.7951   17.3212 H   0  0  0  0  0  0  0  0  0  0  0  0
    4.6122    2.3777   11.2484 H   0  0  0  0  0  0  0  0  0  0  0  0
    3.8249    3.8015    9.3895 H   0  0  0  0  0  0  0  0  0  0  0  0
    1.4307    4.3801    9.1987 H   0  0  0  0  0  0  0  0  0  0  0  0
    0.6066    2.1850   12.7906 H   0  0  0  0  0  0  0  0  0  0  0  0
   -3.2498    3.7747   10.3852 H   0  0  0  0  0  0  0  0  0  0  0  0
   -5.4768    4.7997   10.6339 H   0  0  0  0  0  0  0  0  0  0  0  0
   -4.6764    6.6268   12.0015 H   0  0  0  0  0  0  0  0  0  0  0  0
   -4.2827    6.5125   14.3889 H   0  0  0  0  0  0  0  0  0  0  0  0
   -2.0429    5.4802   14.1432 H   0  0  0  0  0  0  0  0  0  0  0  0
   -7.4956    7.3626   13.6775 H   0  0  0  0  0  0  0  0  0  0  0  0
   -0.0946   -0.0243   13.6199 H   0  0  0  0  0  0  0  0  0  0  0  0
   -3.0297    1.1072   11.7706 H   0  0  0  0  0  0  0  0  0  0  0  0
   -1.6988    1.4190   12.9359 H   0  0  0  0  0  0  0  0  0  0  0  0
   -1.4981    0.1759   11.6548 H   0  0  0  0  0  0  0  0  0  0  0  0
  1  2  1  0  0  0  0
  2  3  1  0  0  0  0
  3  4  2  0  0  0  0
  3 36  1  0  0  0  0
  4  5  1  0  0  0  0
  5  6  1  0  0  0  0
  6  7  2  0  0  0  0
  6 35  1  0  0  0  0
  7  8  1  0  0  0  0
  8  9  2  0  0  0  0
  8 16  1  0  0  0  0
  9 10  1  0  0  0  0
 10 11  2  0  0  0  0
 10 17  1  0  0  0  0
 11 12  1  0  0  0  0
 12 13  1  0  0  0  0
 12 16  1  0  0  0  0
 13 14  2  0  0  0  0
 14 15  1  0  0  0  0
 15 16  2  0  0  0  0
 17 18  2  0  0  0  0
 17 22  1  0  0  0  0
 18 19  1  0  0  0  0
 19 20  2  0  0  0  0
 20 21  1  0  0  0  0
 21 22  2  0  0  0  0
 21 23  1  0  0  0  0
 23 24  2  0  0  0  0
 23 25  1  0  0  0  0
 25 26  2  0  0  0  0
 26 27  1  0  0  0  0
 26 31  1  0  0  0  0
 27 28  2  0  0  0  0
 28 29  1  0  0  0  0
 29 30  1  0  0  0  0
 29 32  1  0  0  0  0
 30 31  2  0  0  0  0
 32 33  2  0  0  0  0
 32 34  1  0  0  0  0
 35 36  2  0  0  0  0
 36 37  1  0  0  0  0
 37 38  1  0  0  0  0
  1 39  1  0  0  0  0
  1 40  1  0  0  0  0
  1 41  1  0  0  0  0
  4 42  1  0  0  0  0
  5 43  1  0  0  0  0
  5 44  1  0  0  0  0
 11 45  1  0  0  0  0
 13 46  1  0  0  0  0
 14 47  1  0  0  0  0
 18 48  1  0  0  0  0
 19 49  1  0  0  0  0
 20 50  1  0  0  0  0
 22 51  1  0  0  0  0
 27 52  1  0  0  0  0
 28 53  1  0  0  0  0
 29 54  1  0  0  0  0
 30 55  1  0  0  0  0
 31 56  1  0  0  0  0
 34 57  1  0  0  0  0
 35 58  1  0  0  0  0
 38 59  1  0  0  0  0
 38 60  1  0  0  0  0
 38 61  1  0  0  0  0
M  END
> <IC50[nM]>
0.84

$$$$
CHEMBL3264995
  -OEChem-05192314333D
 Structure written by MMmdl.
 61 65  0     0  0  0  0  0  0999 V2000
   -4.2563   -3.1062   13.5664 C   0  0  0  0  0  0  0  0  0  0  0  0
   -3.8728   -2.3593   14.7106 O   0  0  0  0  0  0  0  0  0  0  0  0
   -2.5249   -2.1101   14.8131 C   0  0  0  0  0  0  0  0  0  0  0  0
   -1.7501   -2.8737   15.6749 C   0  0  0  0  0  0  0  0  0  0  0  0
   -0.3910   -2.6176   15.8092 C   0  0  0  0  0  0  0  0  0  0  0  0
    0.2227   -1.5905   15.0869 C   0  0  0  0  0  0  0  0  0  0  0  0
    1.6077   -1.3711   15.3228 N   0  0  0  0  0  0  0  0  0  0  0  0
    2.5318   -0.4406   14.7752 C   0  0  0  0  0  0  0  0  0  0  0  0
    2.1656    0.3957   13.7562 N   0  0  0  0  0  0  0  0  0  0  0  0
    3.1117    1.2369   13.2296 C   0  0  0  0  0  0  0  0  0  0  0  0
    4.4129    1.2745   13.7026 C   0  0  0  0  0  0  0  0  0  0  0  0
    4.7445    0.4891   14.7604 N   0  0  0  0  0  0  0  0  0  0  0  0
    5.8979    0.3839   15.4837 C   0  0  0  0  0  0  0  0  0  0  0  0
    5.5998   -0.5411   16.5157 C   0  0  0  0  0  0  0  0  0  0  0  0
    4.3864   -1.0537   16.3628 N   0  0  0  0  0  0  0  0  0  0  0  0
    3.8368   -0.3920   15.3291 C   0  0  0  0  0  0  0  0  0  0  0  0
    2.6550    2.1423   12.1326 C   0  0  0  0  0  0  0  0  0  0  0  0
    3.5650    2.6308   11.1723 C   0  0  0  0  0  0  0  0  0  0  0  0
    3.1221    3.4386   10.1249 C   0  0  0  0  0  0  0  0  0  0  0  0
    1.7757    3.7777   10.0261 C   0  0  0  0  0  0  0  0  0  0  0  0
    0.8680    3.3392   10.9975 C   0  0  0  0  0  0  0  0  0  0  0  0
    1.3092    2.5240   12.0437 C   0  0  0  0  0  0  0  0  0  0  0  0
   -0.5769    3.7618   10.9126 C   0  0  0  0  0  0  0  0  0  0  0  0
   -1.1111    3.9318    9.8164 O   0  0  0  0  0  0  0  0  0  0  0  0
   -1.1792    4.0031   12.1232 N   0  0  0  0  0  0  0  0  0  0  0  0
   -2.4941    4.5708   12.2428 C   0  0  0  0  0  0  0  0  0  0  0  0
   -3.4732    4.3742   11.2553 C   0  0  0  0  0  0  0  0  0  0  0  0
   -4.7281    4.9504   11.3975 C   0  0  0  0  0  0  0  0  0  0  0  0
   -5.0306    5.7263   12.5247 C   0  0  0  0  0  0  0  0  0  0  0  0
   -4.0556    5.9172   13.5169 C   0  0  0  0  0  0  0  0  0  0  0  0
   -2.7906    5.3372   13.3771 C   0  0  0  0  0  0  0  0  0  0  0  0
   -6.3945    6.3441   12.6680 C   0  0  0  0  0  0  0  0  0  0  0  0
   -7.2177    6.1258   11.7478 O   0  0  0  0  0  0  0  0  0  0  0  0
   -6.6066    7.0283   13.6967 O   0  0  0  0  0  0  0  0  0  0  0  0
   -0.5540   -0.8141   14.1957 C   0  0  0  0  0  0  0  0  0  0  0  0
   -1.9401   -1.0806   14.0641 C   0  0  0  0  0  0  0  0  0  0  0  0
   -2.7443   -0.3364   13.2160 O   0  0  0  0  0  0  0  0  0  0  0  0
   -2.2132    0.6462   12.3458 C   0  0  0  0  0  0  0  0  0  0  0  0
   -5.3463   -3.2537   13.5726 H   0  0  0  0  0  0  0  0  0  0  0  0
   -3.9656   -2.5593   12.6573 H   0  0  0  0  0  0  0  0  0  0  0  0
   -3.7539   -4.0847   13.5821 H   0  0  0  0  0  0  0  0  0  0  0  0
   -2.2056   -3.6707   16.2438 H   0  0  0  0  0  0  0  0  0  0  0  0
   -0.2177   -2.3985   16.8731 H   0  0  0  0  0  0  0  0  0  0  0  0
    0.1308   -3.5468   15.5364 H   0  0  0  0  0  0  0  0  0  0  0  0
    5.1490    1.9152   13.2399 H   0  0  0  0  0  0  0  0  0  0  0  0
    6.8334    0.8942   15.3079 H   0  0  0  0  0  0  0  0  0  0  0  0
    6.2729   -0.7951   17.3212 H   0  0  0  0  0  0  0  0  0  0  0  0
    4.6122    2.3777   11.2484 H   0  0  0  0  0  0  0  0  0  0  0  0
    3.8249    3.8015    9.3895 H   0  0  0  0  0  0  0  0  0  0  0  0
    1.4307    4.3801    9.1987 H   0  0  0  0  0  0  0  0  0  0  0  0
    0.6066    2.1850   12.7906 H   0  0  0  0  0  0  0  0  0  0  0  0
   -3.0540    4.7550   10.3123 H   0  0  0  0  0  0  0  0  0  0  0  0
   -3.6296    3.2883   11.1750 H   0  0  0  0  0  0  0  0  0  0  0  0
   -5.4768    4.7997   10.6339 H   0  0  0  0  0  0  0  0  0  0  0  0
   -4.2827    6.5125   14.3889 H   0  0  0  0  0  0  0  0  0  0  0  0
   -2.0429    5.4802   14.1432 H   0  0  0  0  0  0  0  0  0  0  0  0
   -7.4956    7.3626   13.6775 H   0  0  0  0  0  0  0  0  0  0  0  0
   -0.0946   -0.0243   13.6199 H   0  0  0  0  0  0  0  0  0  0  0  0
   -3.0297    1.1072   11.7706 H   0  0  0  0  0  0  0  0  0  0  0  0
   -1.6988    1.4190   12.9359 H   0  0  0  0  0  0  0  0  0  0  0  0
   -1.4981    0.1759   11.6548 H   0  0  0  0  0  0  0  0  0  0  0  0
  1  2  1  0  0  0  0
  2  3  1  0  0  0  0
  3  4  2  0  0  0  0
  3 36  1  0  0  0  0
  4  5  1  0  0  0  0
  5  6  1  0  0  0  0
  6  7  2  0  0  0  0
  6 35  1  0  0  0  0
  7  8  1  0  0  0  0
  8  9  2  0  0  0  0
  8 16  1  0  0  0  0
  9 10  1  0  0  0  0
 10 11  2  0  0  0  0
 10 17  1  0  0  0  0
 11 12  1  0  0  0  0
 12 13  1  0  0  0  0
 12 16  1  0  0  0  0
 13 14  2  0  0  0  0
 14 15  1  0  0  0  0
 15 16  2  0  0  0  0
 17 18  2  0  0  0  0
 17 22  1  0  0  0  0
 18 19  1  0  0  0  0
 19 20  2  0  0  0  0
 20 21  1  0  0  0  0
 21 22  2  0  0  0  0
 21 23  1  0  0  0  0
 23 24  2  0  0  0  0
 23 25  1  0  0  0  0
 25 26  2  0  0  0  0
 26 27  1  0  0  0  0
 26 31  1  0  0  0  0
 27 28  1  0  0  0  0
 28 29  2  0  0  0  0
 29 30  1  0  0  0  0
 29 32  1  0  0  0  0
 30 31  2  0  0  0  0
 32 33  2  0  0  0  0
 32 34  1  0  0  0  0
 35 36  2  0  0  0  0
 36 37  1  0  0  0  0
 37 38  1  0  0  0  0
  1 39  1  0  0  0  0
  1 40  1  0  0  0  0
  1 41  1  0  0  0  0
  4 42  1  0  0  0  0
  5 43  1  0  0  0  0
  5 44  1  0  0  0  0
 11 45  1  0  0  0  0
 13 46  1  0  0  0  0
 14 47  1  0  0  0  0
 18 48  1  0  0  0  0
 19 49  1  0  0  0  0
 20 50  1  0  0  0  0
 22 51  1  0  0  0  0
 27 52  1  0  0  0  0
 27 53  1  0  0  0  0
 28 54  1  0  0  0  0
 30 55  1  0  0  0  0
 31 56  1  0  0  0  0
 34 57  1  0  0  0  0
 35 58  1  0  0  0  0
 38 59  1  0  0  0  0
 38 60  1  0  0  0  0
 38 61  1  0  0  0  0
M  END
> <IC50[nM]>
0.84

$$$$
CHEMBL3264995
  -OEChem-05192314333D
 Structure written by MMmdl.
 61 65  0     0  0  0  0  0  0999 V2000
   -4.2563   -3.1062   13.5664 C   0  0  0  0  0  0  0  0  0  0  0  0
   -3.8728   -2.3593   14.7106 O   0  0  0  0  0  0  0  0  0  0  0  0
   -2.5249   -2.1101   14.8131 C   0  0  0  0  0  0  0  0  0  0  0  0
   -1.7501   -2.8737   15.6749 C   0  0  0  0  0  0  0  0  0  0  0  0
   -0.3910   -2.6176   15.8092 C   0  0  0  0  0  0  0  0  0  0  0  0
    0.2227   -1.5905   15.0869 C   0  0  0  0  0  0  0  0  0  0  0  0
    1.6077   -1.3711   15.3228 N   0  0  0  0  0  0  0  0  0  0  0  0
    2.5318   -0.4406   14.7752 C   0  0  0  0  0  0  0  0  0  0  0  0
    2.1656    0.3957   13.7562 N   0  0  0  0  0  0  0  0  0  0  0  0
    3.1117    1.2369   13.2296 C   0  0  0  0  0  0  0  0  0  0  0  0
    4.4129    1.2745   13.7026 C   0  0  0  0  0  0  0  0  0  0  0  0
    4.7445    0.4891   14.7604 N   0  0  0  0  0  0  0  0  0  0  0  0
    5.8979    0.3839   15.4837 C   0  0  0  0  0  0  0  0  0  0  0  0
    5.5998   -0.5411   16.5157 C   0  0  0  0  0  0  0  0  0  0  0  0
    4.3864   -1.0537   16.3628 N   0  0  0  0  0  0  0  0  0  0  0  0
    3.8368   -0.3920   15.3291 C   0  0  0  0  0  0  0  0  0  0  0  0
    2.6550    2.1423   12.1326 C   0  0  0  0  0  0  0  0  0  0  0  0
    3.5650    2.6308   11.1723 C   0  0  0  0  0  0  0  0  0  0  0  0
    3.1221    3.4386   10.1249 C   0  0  0  0  0  0  0  0  0  0  0  0
    1.7757    3.7777   10.0261 C   0  0  0  0  0  0  0  0  0  0  0  0
    0.8680    3.3392   10.9975 C   0  0  0  0  0  0  0  0  0  0  0  0
    1.3092    2.5240   12.0437 C   0  0  0  0  0  0  0  0  0  0  0  0
   -0.5769    3.7618   10.9126 C   0  0  0  0  0  0  0  0  0  0  0  0
   -1.1111    3.9318    9.8164 O   0  0  0  0  0  0  0  0  0  0  0  0
   -1.1792    4.0031   12.1232 N   0  0  0  0  0  0  0  0  0  0  0  0
   -2.4941    4.5708   12.2428 C   0  0  0  0  0  0  0  0  0  0  0  0
   -3.4732    4.3742   11.2553 C   0  0  0  0  0  0  0  0  0  0  0  0
   -4.7281    4.9504   11.3975 C   0  0  0  0  0  0  0  0  0  0  0  0
   -5.0306    5.7263   12.5247 C   0  0  0  0  0  0  0  0  0  0  0  0
   -4.0556    5.9172   13.5169 C   0  0  0  0  0  0  0  0  0  0  0  0
   -2.7906    5.3372   13.3771 C   0  0  0  0  0  0  0  0  0  0  0  0
   -6.3945    6.3441   12.6680 C   0  0  0  0  0  0  0  0  0  0  0  0
   -7.2177    6.1258   11.7478 O   0  0  0  0  0  0  0  0  0  0  0  0
   -6.6066    7.0283   13.6967 O   0  0  0  0  0  0  0  0  0  0  0  0
   -0.5540   -0.8141   14.1957 C   0  0  0  0  0  0  0  0  0  0  0  0
   -1.9401   -1.0806   14.0641 C   0  0  0  0  0  0  0  0  0  0  0  0
   -2.7443   -0.3364   13.2160 O   0  0  0  0  0  0  0  0  0  0  0  0
   -2.2132    0.6462   12.3458 C   0  0  0  0  0  0  0  0  0  0  0  0
   -5.3463   -3.2537   13.5726 H   0  0  0  0  0  0  0  0  0  0  0  0
   -3.9656   -2.5593   12.6573 H   0  0  0  0  0  0  0  0  0  0  0  0
   -3.7539   -4.0847   13.5821 H   0  0  0  0  0  0  0  0  0  0  0  0
   -2.2056   -3.6707   16.2438 H   0  0  0  0  0  0  0  0  0  0  0  0
    0.2000   -3.2214   16.4819 H   0  0  0  0  0  0  0  0  0  0  0  0
    5.1490    1.9152   13.2399 H   0  0  0  0  0  0  0  0  0  0  0  0
    6.8334    0.8942   15.3079 H   0  0  0  0  0  0  0  0  0  0  0  0
    6.2729   -0.7951   17.3212 H   0  0  0  0  0  0  0  0  0  0  0  0
    4.6122    2.3777   11.2484 H   0  0  0  0  0  0  0  0  0  0  0  0
    3.8249    3.8015    9.3895 H   0  0  0  0  0  0  0  0  0  0  0  0
    1.4307    4.3801    9.1987 H   0  0  0  0  0  0  0  0  0  0  0  0
    0.6066    2.1850   12.7906 H   0  0  0  0  0  0  0  0  0  0  0  0
   -3.2498    3.7747   10.3852 H   0  0  0  0  0  0  0  0  0  0  0  0
   -5.4768    4.7997   10.6339 H   0  0  0  0  0  0  0  0  0  0  0  0
   -4.6764    6.6268   12.0015 H   0  0  0  0  0  0  0  0  0  0  0  0
   -4.2827    6.5125   14.3889 H   0  0  0  0  0  0  0  0  0  0  0  0
   -2.0429    5.4802   14.1432 H   0  0  0  0  0  0  0  0  0  0  0  0
   -7.4956    7.3626   13.6775 H   0  0  0  0  0  0  0  0  0  0  0  0
   -0.4587    0.2335   14.5174 H   0  0  0  0  0  0  0  0  0  0  0  0
   -0.1091   -0.9328   13.1967 H   0  0  0  0  0  0  0  0  0  0  0  0
   -3.0297    1.1072   11.7706 H   0  0  0  0  0  0  0  0  0  0  0  0
   -1.6988    1.4190   12.9359 H   0  0  0  0  0  0  0  0  0  0  0  0
   -1.4981    0.1759   11.6548 H   0  0  0  0  0  0  0  0  0  0  0  0
  1  2  1  0  0  0  0
  2  3  1  0  0  0  0
  3  4  1  0  0  0  0
  3 36  2  0  0  0  0
  4  5  2  0  0  0  0
  5  6  1  0  0  0  0
  6  7  2  0  0  0  0
  6 35  1  0  0  0  0
  7  8  1  0  0  0  0
  8  9  2  0  0  0  0
  8 16  1  0  0  0  0
  9 10  1  0  0  0  0
 10 11  2  0  0  0  0
 10 17  1  0  0  0  0
 11 12  1  0  0  0  0
 12 13  1  0  0  0  0
 12 16  1  0  0  0  0
 13 14  2  0  0  0  0
 14 15  1  0  0  0  0
 15 16  2  0  0  0  0
 17 18  2  0  0  0  0
 17 22  1  0  0  0  0
 18 19  1  0  0  0  0
 19 20  2  0  0  0  0
 20 21  1  0  0  0  0
 21 22  2  0  0  0  0
 21 23  1  0  0  0  0
 23 24  2  0  0  0  0
 23 25  1  0  0  0  0
 25 26  2  0  0  0  0
 26 27  1  0  0  0  0
 26 31  1  0  0  0  0
 27 28  2  0  0  0  0
 28 29  1  0  0  0  0
 29 30  1  0  0  0  0
 29 32  1  0  0  0  0
 30 31  2  0  0  0  0
 32 33  2  0  0  0  0
 32 34  1  0  0  0  0
 35 36  1  0  0  0  0
 36 37  1  0  0  0  0
 37 38  1  0  0  0  0
  1 39  1  0  0  0  0
  1 40  1  0  0  0  0
  1 41  1  0  0  0  0
  4 42  1  0  0  0  0
  5 43  1  0  0  0  0
 11 44  1  0  0  0  0
 13 45  1  0  0  0  0
 14 46  1  0  0  0  0
 18 47  1  0  0  0  0
 19 48  1  0  0  0  0
 20 49  1  0  0  0  0
 22 50  1  0  0  0  0
 27 51  1  0  0  0  0
 28 52  1  0  0  0  0
 29 53  1  0  0  0  0
 30 54  1  0  0  0  0
 31 55  1  0  0  0  0
 34 56  1  0  0  0  0
 35 57  1  0  0  0  0
 35 58  1  0  0  0  0
 38 59  1  0  0  0  0
 38 60  1  0  0  0  0
 38 61  1  0  0  0  0
M  END
> <IC50[nM]>
0.84

$$$$
CHEMBL3264995
  -OEChem-05192314333D
 Structure written by MMmdl.
 61 65  0     0  0  0  0  0  0999 V2000
   -4.2563   -3.1062   13.5664 C   0  0  0  0  0  0  0  0  0  0  0  0
   -3.8728   -2.3593   14.7106 O   0  0  0  0  0  0  0  0  0  0  0  0
   -2.5249   -2.1101   14.8131 C   0  0  0  0  0  0  0  0  0  0  0  0
   -1.7501   -2.8737   15.6749 C   0  0  0  0  0  0  0  0  0  0  0  0
   -0.3910   -2.6176   15.8092 C   0  0  0  0  0  0  0  0  0  0  0  0
    0.2227   -1.5905   15.0869 C   0  0  0  0  0  0  0  0  0  0  0  0
    1.6077   -1.3711   15.3228 N   0  0  0  0  0  0  0  0  0  0  0  0
    2.5318   -0.4406   14.7752 C   0  0  0  0  0  0  0  0  0  0  0  0
    2.1656    0.3957   13.7562 N   0  0  0  0  0  0  0  0  0  0  0  0
    3.1117    1.2369   13.2296 C   0  0  0  0  0  0  0  0  0  0  0  0
    4.4129    1.2745   13.7026 C   0  0  0  0  0  0  0  0  0  0  0  0
    4.7445    0.4891   14.7604 N   0  0  0  0  0  0  0  0  0  0  0  0
    5.8979    0.3839   15.4837 C   0  0  0  0  0  0  0  0  0  0  0  0
    5.5998   -0.5411   16.5157 C   0  0  0  0  0  0  0  0  0  0  0  0
    4.3864   -1.0537   16.3628 N   0  0  0  0  0  0  0  0  0  0  0  0
    3.8368   -0.3920   15.3291 C   0  0  0  0  0  0  0  0  0  0  0  0
    2.6550    2.1423   12.1326 C   0  0  0  0  0  0  0  0  0  0  0  0
    3.5650    2.6308   11.1723 C   0  0  0  0  0  0  0  0  0  0  0  0
    3.1221    3.4386   10.1249 C   0  0  0  0  0  0  0  0  0  0  0  0
    1.7757    3.7777   10.0261 C   0  0  0  0  0  0  0  0  0  0  0  0
    0.8680    3.3392   10.9975 C   0  0  0  0  0  0  0  0  0  0  0  0
    1.3092    2.5240   12.0437 C   0  0  0  0  0  0  0  0  0  0  0  0
   -0.5769    3.7618   10.9126 C   0  0  0  0  0  0  0  0  0  0  0  0
   -1.1111    3.9318    9.8164 O   0  0  0  0  0  0  0  0  0  0  0  0
   -1.1792    4.0031   12.1232 N   0  0  0  0  0  0  0  0  0  0  0  0
   -2.4941    4.5708   12.2428 C   0  0  0  0  0  0  0  0  0  0  0  0
   -3.4732    4.3742   11.2553 C   0  0  0  0  0  0  0  0  0  0  0  0
   -4.7281    4.9504   11.3975 C   0  0  0  0  0  0  0  0  0  0  0  0
   -5.0306    5.7263   12.5247 C   0  0  0  0  0  0  0  0  0  0  0  0
   -4.0556    5.9172   13.5169 C   0  0  0  0  0  0  0  0  0  0  0  0
   -2.7906    5.3372   13.3771 C   0  0  0  0  0  0  0  0  0  0  0  0
   -6.3945    6.3441   12.6680 C   0  0  0  0  0  0  0  0  0  0  0  0
   -7.2177    6.1258   11.7478 O   0  0  0  0  0  0  0  0  0  0  0  0
   -6.6066    7.0283   13.6967 O   0  0  0  0  0  0  0  0  0  0  0  0
   -0.5540   -0.8141   14.1957 C   0  0  0  0  0  0  0  0  0  0  0  0
   -1.9401   -1.0806   14.0641 C   0  0  0  0  0  0  0  0  0  0  0  0
   -2.7443   -0.3364   13.2160 O   0  0  0  0  0  0  0  0  0  0  0  0
   -2.2132    0.6462   12.3458 C   0  0  0  0  0  0  0  0  0  0  0  0
   -5.3463   -3.2537   13.5726 H   0  0  0  0  0  0  0  0  0  0  0  0
   -3.9656   -2.5593   12.6573 H   0  0  0  0  0  0  0  0  0  0  0  0
   -3.7539   -4.0847   13.5821 H   0  0  0  0  0  0  0  0  0  0  0  0
   -2.2056   -3.6707   16.2438 H   0  0  0  0  0  0  0  0  0  0  0  0
    0.2000   -3.2214   16.4819 H   0  0  0  0  0  0  0  0  0  0  0  0
    5.1490    1.9152   13.2399 H   0  0  0  0  0  0  0  0  0  0  0  0
    6.8334    0.8942   15.3079 H   0  0  0  0  0  0  0  0  0  0  0  0
    6.2729   -0.7951   17.3212 H   0  0  0  0  0  0  0  0  0  0  0  0
    4.6122    2.3777   11.2484 H   0  0  0  0  0  0  0  0  0  0  0  0
    3.8249    3.8015    9.3895 H   0  0  0  0  0  0  0  0  0  0  0  0
    1.4307    4.3801    9.1987 H   0  0  0  0  0  0  0  0  0  0  0  0
    0.6066    2.1850   12.7906 H   0  0  0  0  0  0  0  0  0  0  0  0
   -3.0540    4.7550   10.3123 H   0  0  0  0  0  0  0  0  0  0  0  0
   -3.6296    3.2883   11.1750 H   0  0  0  0  0  0  0  0  0  0  0  0
   -5.4768    4.7997   10.6339 H   0  0  0  0  0  0  0  0  0  0  0  0
   -4.2827    6.5125   14.3889 H   0  0  0  0  0  0  0  0  0  0  0  0
   -2.0429    5.4802   14.1432 H   0  0  0  0  0  0  0  0  0  0  0  0
   -7.4956    7.3626   13.6775 H   0  0  0  0  0  0  0  0  0  0  0  0
   -0.4587    0.2335   14.5174 H   0  0  0  0  0  0  0  0  0  0  0  0
   -0.1091   -0.9328   13.1967 H   0  0  0  0  0  0  0  0  0  0  0  0
   -3.0297    1.1072   11.7706 H   0  0  0  0  0  0  0  0  0  0  0  0
   -1.6988    1.4190   12.9359 H   0  0  0  0  0  0  0  0  0  0  0  0
   -1.4981    0.1759   11.6548 H   0  0  0  0  0  0  0  0  0  0  0  0
  1  2  1  0  0  0  0
  2  3  1  0  0  0  0
  3  4  1  0  0  0  0
  3 36  2  0  0  0  0
  4  5  2  0  0  0  0
  5  6  1  0  0  0  0
  6  7  2  0  0  0  0
  6 35  1  0  0  0  0
  7  8  1  0  0  0  0
  8  9  2  0  0  0  0
  8 16  1  0  0  0  0
  9 10  1  0  0  0  0
 10 11  2  0  0  0  0
 10 17  1  0  0  0  0
 11 12  1  0  0  0  0
 12 13  1  0  0  0  0
 12 16  1  0  0  0  0
 13 14  2  0  0  0  0
 14 15  1  0  0  0  0
 15 16  2  0  0  0  0
 17 18  2  0  0  0  0
 17 22  1  0  0  0  0
 18 19  1  0  0  0  0
 19 20  2  0  0  0  0
 20 21  1  0  0  0  0
 21 22  2  0  0  0  0
 21 23  1  0  0  0  0
 23 24  2  0  0  0  0
 23 25  1  0  0  0  0
 25 26  2  0  0  0  0
 26 27  1  0  0  0  0
 26 31  1  0  0  0  0
 27 28  1  0  0  0  0
 28 29  2  0  0  0  0
 29 30  1  0  0  0  0
 29 32  1  0  0  0  0
 30 31  2  0  0  0  0
 32 33  2  0  0  0  0
 32 34  1  0  0  0  0
 35 36  1  0  0  0  0
 36 37  1  0  0  0  0
 37 38  1  0  0  0  0
  1 39  1  0  0  0  0
  1 40  1  0  0  0  0
  1 41  1  0  0  0  0
  4 42  1  0  0  0  0
  5 43  1  0  0  0  0
 11 44  1  0  0  0  0
 13 45  1  0  0  0  0
 14 46  1  0  0  0  0
 18 47  1  0  0  0  0
 19 48  1  0  0  0  0
 20 49  1  0  0  0  0
 22 50  1  0  0  0  0
 27 51  1  0  0  0  0
 27 52  1  0  0  0  0
 28 53  1  0  0  0  0
 30 54  1  0  0  0  0
 31 55  1  0  0  0  0
 34 56  1  0  0  0  0
 35 57  1  0  0  0  0
 35 58  1  0  0  0  0
 38 59  1  0  0  0  0
 38 60  1  0  0  0  0
 38 61  1  0  0  0  0
M  END
> <IC50[nM]>
0.84

$$$$
CHEMBL3264995
  -OEChem-05192314333D
 Structure written by MMmdl.
 61 65  0     0  0  0  0  0  0999 V2000
   -4.2563   -3.1062   13.5664 C   0  0  0  0  0  0  0  0  0  0  0  0
   -3.8728   -2.3593   14.7106 O   0  0  0  0  0  0  0  0  0  0  0  0
   -2.5249   -2.1101   14.8131 C   0  0  0  0  0  0  0  0  0  0  0  0
   -1.7501   -2.8737   15.6749 C   0  0  0  0  0  0  0  0  0  0  0  0
   -0.3910   -2.6176   15.8092 C   0  0  0  0  0  0  0  0  0  0  0  0
    0.2227   -1.5905   15.0869 C   0  0  0  0  0  0  0  0  0  0  0  0
    1.6077   -1.3711   15.3228 N   0  0  0  0  0  0  0  0  0  0  0  0
    2.5318   -0.4406   14.7752 C   0  0  0  0  0  0  0  0  0  0  0  0
    2.1656    0.3957   13.7562 N   0  0  0  0  0  0  0  0  0  0  0  0
    3.1117    1.2369   13.2296 C   0  0  0  0  0  0  0  0  0  0  0  0
    4.4129    1.2745   13.7026 C   0  0  0  0  0  0  0  0  0  0  0  0
    4.7445    0.4891   14.7604 N   0  0  0  0  0  0  0  0  0  0  0  0
    5.8979    0.3839   15.4837 C   0  0  0  0  0  0  0  0  0  0  0  0
    5.5998   -0.5411   16.5157 C   0  0  0  0  0  0  0  0  0  0  0  0
    4.3864   -1.0537   16.3628 N   0  0  0  0  0  0  0  0  0  0  0  0
    3.8368   -0.3920   15.3291 C   0  0  0  0  0  0  0  0  0  0  0  0
    2.6550    2.1423   12.1326 C   0  0  0  0  0  0  0  0  0  0  0  0
    3.5650    2.6308   11.1723 C   0  0  0  0  0  0  0  0  0  0  0  0
    3.1221    3.4386   10.1249 C   0  0  0  0  0  0  0  0  0  0  0  0
    1.7757    3.7777   10.0261 C   0  0  0  0  0  0  0  0  0  0  0  0
    0.8680    3.3392   10.9975 C   0  0  0  0  0  0  0  0  0  0  0  0
    1.3092    2.5240   12.0437 C   0  0  0  0  0  0  0  0  0  0  0  0
   -0.5769    3.7618   10.9126 C   0  0  0  0  0  0  0  0  0  0  0  0
   -1.1111    3.9318    9.8164 O   0  0  0  0  0  0  0  0  0  0  0  0
   -1.1792    4.0031   12.1232 N   0  0  0  0  0  0  0  0  0  0  0  0
   -2.4941    4.5708   12.2428 C   0  0  0  0  0  0  0  0  0  0  0  0
   -3.4732    4.3742   11.2553 C   0  0  0  0  0  0  0  0  0  0  0  0
   -4.7281    4.9504   11.3975 C   0  0  0  0  0  0  0  0  0  0  0  0
   -5.0306    5.7263   12.5247 C   0  0  0  0  0  0  0  0  0  0  0  0
   -4.0556    5.9172   13.5169 C   0  0  0  0  0  0  0  0  0  0  0  0
   -2.7906    5.3372   13.3771 C   0  0  0  0  0  0  0  0  0  0  0  0
   -6.3945    6.3441   12.6680 C   0  0  0  0  0  0  0  0  0  0  0  0
   -7.2177    6.1258   11.7478 O   0  0  0  0  0  0  0  0  0  0  0  0
   -6.6066    7.0283   13.6967 O   0  0  0  0  0  0  0  0  0  0  0  0
   -0.5540   -0.8141   14.1957 C   0  0  0  0  0  0  0  0  0  0  0  0
   -1.9401   -1.0806   14.0641 C   0  0  0  0  0  0  0  0  0  0  0  0
   -2.7443   -0.3364   13.2160 O   0  0  0  0  0  0  0  0  0  0  0  0
   -2.2132    0.6462   12.3458 C   0  0  0  0  0  0  0  0  0  0  0  0
   -5.3463   -3.2537   13.5726 H   0  0  0  0  0  0  0  0  0  0  0  0
   -3.9656   -2.5593   12.6573 H   0  0  0  0  0  0  0  0  0  0  0  0
   -3.7539   -4.0847   13.5821 H   0  0  0  0  0  0  0  0  0  0  0  0
   -2.2056   -3.6707   16.2438 H   0  0  0  0  0  0  0  0  0  0  0  0
    0.2000   -3.2214   16.4819 H   0  0  0  0  0  0  0  0  0  0  0  0
    2.0065   -1.9875   16.0018 H   0  0  0  0  0  0  0  0  0  0  0  0
    5.1490    1.9152   13.2399 H   0  0  0  0  0  0  0  0  0  0  0  0
    6.8334    0.8942   15.3079 H   0  0  0  0  0  0  0  0  0  0  0  0
    6.2729   -0.7951   17.3212 H   0  0  0  0  0  0  0  0  0  0  0  0
    4.6122    2.3777   11.2484 H   0  0  0  0  0  0  0  0  0  0  0  0
    3.8249    3.8015    9.3895 H   0  0  0  0  0  0  0  0  0  0  0  0
    1.4307    4.3801    9.1987 H   0  0  0  0  0  0  0  0  0  0  0  0
    0.6066    2.1850   12.7906 H   0  0  0  0  0  0  0  0  0  0  0  0
   -3.2498    3.7747   10.3852 H   0  0  0  0  0  0  0  0  0  0  0  0
   -5.4768    4.7997   10.6339 H   0  0  0  0  0  0  0  0  0  0  0  0
   -4.2827    6.5125   14.3889 H   0  0  0  0  0  0  0  0  0  0  0  0
   -2.0429    5.4802   14.1432 H   0  0  0  0  0  0  0  0  0  0  0  0
   -8.0377    6.5628   11.9456 H   0  0  0  0  0  0  0  0  0  0  0  0
   -7.4950    7.3643   13.6765 H   0  0  0  0  0  0  0  0  0  0  0  0
   -0.0946   -0.0243   13.6199 H   0  0  0  0  0  0  0  0  0  0  0  0
   -3.0297    1.1072   11.7706 H   0  0  0  0  0  0  0  0  0  0  0  0
   -1.6988    1.4190   12.9359 H   0  0  0  0  0  0  0  0  0  0  0  0
   -1.4981    0.1759   11.6548 H   0  0  0  0  0  0  0  0  0  0  0  0
  1  2  1  0  0  0  0
  2  3  1  0  0  0  0
  3  4  2  0  0  0  0
  3 36  1  0  0  0  0
  4  5  1  0  0  0  0
  5  6  2  0  0  0  0
  6  7  1  0  0  0  0
  6 35  1  0  0  0  0
  7  8  1  0  0  0  0
  8  9  2  0  0  0  0
  8 16  1  0  0  0  0
  9 10  1  0  0  0  0
 10 11  2  0  0  0  0
 10 17  1  0  0  0  0
 11 12  1  0  0  0  0
 12 13  1  0  0  0  0
 12 16  1  0  0  0  0
 13 14  2  0  0  0  0
 14 15  1  0  0  0  0
 15 16  2  0  0  0  0
 17 18  2  0  0  0  0
 17 22  1  0  0  0  0
 18 19  1  0  0  0  0
 19 20  2  0  0  0  0
 20 21  1  0  0  0  0
 21 22  2  0  0  0  0
 21 23  1  0  0  0  0
 23 24  2  0  0  0  0
 23 25  1  0  0  0  0
 25 26  2  0  0  0  0
 26 27  1  0  0  0  0
 26 31  1  0  0  0  0
 27 28  2  0  0  0  0
 28 29  1  0  0  0  0
 29 30  1  0  0  0  0
 29 32  2  0  0  0  0
 30 31  2  0  0  0  0
 32 33  1  0  0  0  0
 32 34  1  0  0  0  0
 35 36  2  0  0  0  0
 36 37  1  0  0  0  0
 37 38  1  0  0  0  0
  1 39  1  0  0  0  0
  1 40  1  0  0  0  0
  1 41  1  0  0  0  0
  4 42  1  0  0  0  0
  5 43  1  0  0  0  0
  7 44  1  0  0  0  0
 11 45  1  0  0  0  0
 13 46  1  0  0  0  0
 14 47  1  0  0  0  0
 18 48  1  0  0  0  0
 19 49  1  0  0  0  0
 20 50  1  0  0  0  0
 22 51  1  0  0  0  0
 27 52  1  0  0  0  0
 28 53  1  0  0  0  0
 30 54  1  0  0  0  0
 31 55  1  0  0  0  0
 33 56  1  0  0  0  0
 34 57  1  0  0  0  0
 35 58  1  0  0  0  0
 38 59  1  0  0  0  0
 38 60  1  0  0  0  0
 38 61  1  0  0  0  0
M  END
> <IC50[nM]>
0.84

$$$$
CHEMBL3264995
  -OEChem-05192314333D
 Structure written by MMmdl.
 61 65  0     0  0  0  0  0  0999 V2000
   -4.2563   -3.1062   13.5664 C   0  0  0  0  0  0  0  0  0  0  0  0
   -3.8728   -2.3593   14.7106 O   0  0  0  0  0  0  0  0  0  0  0  0
   -2.5249   -2.1101   14.8131 C   0  0  0  0  0  0  0  0  0  0  0  0
   -1.7501   -2.8737   15.6749 C   0  0  0  0  0  0  0  0  0  0  0  0
   -0.3910   -2.6176   15.8092 C   0  0  0  0  0  0  0  0  0  0  0  0
    0.2227   -1.5905   15.0869 C   0  0  0  0  0  0  0  0  0  0  0  0
    1.6077   -1.3711   15.3228 N   0  0  0  0  0  0  0  0  0  0  0  0
    2.5318   -0.4406   14.7752 C   0  0  0  0  0  0  0  0  0  0  0  0
    2.1656    0.3957   13.7562 N   0  0  0  0  0  0  0  0  0  0  0  0
    3.1117    1.2369   13.2296 C   0  0  0  0  0  0  0  0  0  0  0  0
    4.4129    1.2745   13.7026 C   0  0  0  0  0  0  0  0  0  0  0  0
    4.7445    0.4891   14.7604 N   0  0  0  0  0  0  0  0  0  0  0  0
    5.8979    0.3839   15.4837 C   0  0  0  0  0  0  0  0  0  0  0  0
    5.5998   -0.5411   16.5157 C   0  0  0  0  0  0  0  0  0  0  0  0
    4.3864   -1.0537   16.3628 N   0  0  0  0  0  0  0  0  0  0  0  0
    3.8368   -0.3920   15.3291 C   0  0  0  0  0  0  0  0  0  0  0  0
    2.6550    2.1423   12.1326 C   0  0  0  0  0  0  0  0  0  0  0  0
    3.5650    2.6308   11.1723 C   0  0  0  0  0  0  0  0  0  0  0  0
    3.1221    3.4386   10.1249 C   0  0  0  0  0  0  0  0  0  0  0  0
    1.7757    3.7777   10.0261 C   0  0  0  0  0  0  0  0  0  0  0  0
    0.8680    3.3392   10.9975 C   0  0  0  0  0  0  0  0  0  0  0  0
    1.3092    2.5240   12.0437 C   0  0  0  0  0  0  0  0  0  0  0  0
   -0.5769    3.7618   10.9126 C   0  0  0  0  0  0  0  0  0  0  0  0
   -1.1111    3.9318    9.8164 O   0  0  0  0  0  0  0  0  0  0  0  0
   -1.1792    4.0031   12.1232 N   0  0  0  0  0  0  0  0  0  0  0  0
   -2.4941    4.5708   12.2428 C   0  0  0  0  0  0  0  0  0  0  0  0
   -3.4732    4.3742   11.2553 C   0  0  0  0  0  0  0  0  0  0  0  0
   -4.7281    4.9504   11.3975 C   0  0  0  0  0  0  0  0  0  0  0  0
   -5.0306    5.7263   12.5247 C   0  0  0  0  0  0  0  0  0  0  0  0
   -4.0556    5.9172   13.5169 C   0  0  0  0  0  0  0  0  0  0  0  0
   -2.7906    5.3372   13.3771 C   0  0  0  0  0  0  0  0  0  0  0  0
   -6.3945    6.3441   12.6680 C   0  0  0  0  0  0  0  0  0  0  0  0
   -7.2177    6.1258   11.7478 O   0  0  0  0  0  0  0  0  0  0  0  0
   -6.6066    7.0283   13.6967 O   0  0  0  0  0  0  0  0  0  0  0  0
   -0.5540   -0.8141   14.1957 C   0  0  0  0  0  0  0  0  0  0  0  0
   -1.9401   -1.0806   14.0641 C   0  0  0  0  0  0  0  0  0  0  0  0
   -2.7443   -0.3364   13.2160 O   0  0  0  0  0  0  0  0  0  0  0  0
   -2.2132    0.6462   12.3458 C   0  0  0  0  0  0  0  0  0  0  0  0
   -5.3463   -3.2537   13.5726 H   0  0  0  0  0  0  0  0  0  0  0  0
   -3.9656   -2.5593   12.6573 H   0  0  0  0  0  0  0  0  0  0  0  0
   -3.7539   -4.0847   13.5821 H   0  0  0  0  0  0  0  0  0  0  0  0
   -2.2056   -3.6707   16.2438 H   0  0  0  0  0  0  0  0  0  0  0  0
    0.2000   -3.2214   16.4819 H   0  0  0  0  0  0  0  0  0  0  0  0
    1.2298    0.3935   13.4037 H   0  0  0  0  0  0  0  0  0  0  0  0
    5.1490    1.9152   13.2399 H   0  0  0  0  0  0  0  0  0  0  0  0
    6.8334    0.8942   15.3079 H   0  0  0  0  0  0  0  0  0  0  0  0
    6.2729   -0.7951   17.3212 H   0  0  0  0  0  0  0  0  0  0  0  0
    4.6122    2.3777   11.2484 H   0  0  0  0  0  0  0  0  0  0  0  0
    3.8249    3.8015    9.3895 H   0  0  0  0  0  0  0  0  0  0  0  0
    1.4307    4.3801    9.1987 H   0  0  0  0  0  0  0  0  0  0  0  0
    0.6066    2.1850   12.7906 H   0  0  0  0  0  0  0  0  0  0  0  0
   -3.2498    3.7747   10.3852 H   0  0  0  0  0  0  0  0  0  0  0  0
   -5.4768    4.7997   10.6339 H   0  0  0  0  0  0  0  0  0  0  0  0
   -4.2827    6.5125   14.3889 H   0  0  0  0  0  0  0  0  0  0  0  0
   -2.0429    5.4802   14.1432 H   0  0  0  0  0  0  0  0  0  0  0  0
   -8.0377    6.5628   11.9456 H   0  0  0  0  0  0  0  0  0  0  0  0
   -7.4950    7.3643   13.6765 H   0  0  0  0  0  0  0  0  0  0  0  0
   -0.0946   -0.0243   13.6199 H   0  0  0  0  0  0  0  0  0  0  0  0
   -3.0297    1.1072   11.7706 H   0  0  0  0  0  0  0  0  0  0  0  0
   -1.6988    1.4190   12.9359 H   0  0  0  0  0  0  0  0  0  0  0  0
   -1.4981    0.1759   11.6548 H   0  0  0  0  0  0  0  0  0  0  0  0
  1  2  1  0  0  0  0
  2  3  1  0  0  0  0
  3  4  2  0  0  0  0
  3 36  1  0  0  0  0
  4  5  1  0  0  0  0
  5  6  2  0  0  0  0
  6  7  1  0  0  0  0
  6 35  1  0  0  0  0
  7  8  2  0  0  0  0
  8  9  1  0  0  0  0
  8 16  1  0  0  0  0
  9 10  1  0  0  0  0
 10 11  2  0  0  0  0
 10 17  1  0  0  0  0
 11 12  1  0  0  0  0
 12 13  1  0  0  0  0
 12 16  1  0  0  0  0
 13 14  2  0  0  0  0
 14 15  1  0  0  0  0
 15 16  2  0  0  0  0
 17 18  2  0  0  0  0
 17 22  1  0  0  0  0
 18 19  1  0  0  0  0
 19 20  2  0  0  0  0
 20 21  1  0  0  0  0
 21 22  2  0  0  0  0
 21 23  1  0  0  0  0
 23 24  2  0  0  0  0
 23 25  1  0  0  0  0
 25 26  2  0  0  0  0
 26 27  1  0  0  0  0
 26 31  1  0  0  0  0
 27 28  2  0  0  0  0
 28 29  1  0  0  0  0
 29 30  1  0  0  0  0
 29 32  2  0  0  0  0
 30 31  2  0  0  0  0
 32 33  1  0  0  0  0
 32 34  1  0  0  0  0
 35 36  2  0  0  0  0
 36 37  1  0  0  0  0
 37 38  1  0  0  0  0
  1 39  1  0  0  0  0
  1 40  1  0  0  0  0
  1 41  1  0  0  0  0
  4 42  1  0  0  0  0
  5 43  1  0  0  0  0
  9 44  1  0  0  0  0
 11 45  1  0  0  0  0
 13 46  1  0  0  0  0
 14 47  1  0  0  0  0
 18 48  1  0  0  0  0
 19 49  1  0  0  0  0
 20 50  1  0  0  0  0
 22 51  1  0  0  0  0
 27 52  1  0  0  0  0
 28 53  1  0  0  0  0
 30 54  1  0  0  0  0
 31 55  1  0  0  0  0
 33 56  1  0  0  0  0
 34 57  1  0  0  0  0
 35 58  1  0  0  0  0
 38 59  1  0  0  0  0
 38 60  1  0  0  0  0
 38 61  1  0  0  0  0
M  END
> <IC50[nM]>
0.84

$$$$
CHEMBL3264995
  -OEChem-05192314333D
 Structure written by MMmdl.
 61 65  0     0  0  0  0  0  0999 V2000
   -4.2563   -3.1062   13.5664 C   0  0  0  0  0  0  0  0  0  0  0  0
   -3.8728   -2.3593   14.7106 O   0  0  0  0  0  0  0  0  0  0  0  0
   -2.5249   -2.1101   14.8131 C   0  0  0  0  0  0  0  0  0  0  0  0
   -1.7501   -2.8737   15.6749 C   0  0  0  0  0  0  0  0  0  0  0  0
   -0.3910   -2.6176   15.8092 C   0  0  0  0  0  0  0  0  0  0  0  0
    0.2227   -1.5905   15.0869 C   0  0  0  0  0  0  0  0  0  0  0  0
    1.6077   -1.3711   15.3228 N   0  0  0  0  0  0  0  0  0  0  0  0
    2.5318   -0.4406   14.7752 C   0  0  0  0  0  0  0  0  0  0  0  0
    2.1656    0.3957   13.7562 N   0  0  0  0  0  0  0  0  0  0  0  0
    3.1117    1.2369   13.2296 C   0  0  0  0  0  0  0  0  0  0  0  0
    4.4129    1.2745   13.7026 C   0  0  0  0  0  0  0  0  0  0  0  0
    4.7445    0.4891   14.7604 N   0  0  0  0  0  0  0  0  0  0  0  0
    5.8979    0.3839   15.4837 C   0  0  0  0  0  0  0  0  0  0  0  0
    5.5998   -0.5411   16.5157 C   0  0  0  0  0  0  0  0  0  0  0  0
    4.3864   -1.0537   16.3628 N   0  0  0  0  0  0  0  0  0  0  0  0
    3.8368   -0.3920   15.3291 C   0  0  0  0  0  0  0  0  0  0  0  0
    2.6550    2.1423   12.1326 C   0  0  0  0  0  0  0  0  0  0  0  0
    3.5650    2.6308   11.1723 C   0  0  0  0  0  0  0  0  0  0  0  0
    3.1221    3.4386   10.1249 C   0  0  0  0  0  0  0  0  0  0  0  0
    1.7757    3.7777   10.0261 C   0  0  0  0  0  0  0  0  0  0  0  0
    0.8680    3.3392   10.9975 C   0  0  0  0  0  0  0  0  0  0  0  0
    1.3092    2.5240   12.0437 C   0  0  0  0  0  0  0  0  0  0  0  0
   -0.5769    3.7618   10.9126 C   0  0  0  0  0  0  0  0  0  0  0  0
   -1.1111    3.9318    9.8164 O   0  0  0  0  0  0  0  0  0  0  0  0
   -1.1792    4.0031   12.1232 N   0  0  0  0  0  0  0  0  0  0  0  0
   -2.4941    4.5708   12.2428 C   0  0  0  0  0  0  0  0  0  0  0  0
   -3.4732    4.3742   11.2553 C   0  0  0  0  0  0  0  0  0  0  0  0
   -4.7281    4.9504   11.3975 C   0  0  0  0  0  0  0  0  0  0  0  0
   -5.0306    5.7263   12.5247 C   0  0  0  0  0  0  0  0  0  0  0  0
   -4.0556    5.9172   13.5169 C   0  0  0  0  0  0  0  0  0  0  0  0
   -2.7906    5.3372   13.3771 C   0  0  0  0  0  0  0  0  0  0  0  0
   -6.3945    6.3441   12.6680 C   0  0  0  0  0  0  0  0  0  0  0  0
   -7.2177    6.1258   11.7478 O   0  0  0  0  0  0  0  0  0  0  0  0
   -6.6066    7.0283   13.6967 O   0  0  0  0  0  0  0  0  0  0  0  0
   -0.5540   -0.8141   14.1957 C   0  0  0  0  0  0  0  0  0  0  0  0
   -1.9401   -1.0806   14.0641 C   0  0  0  0  0  0  0  0  0  0  0  0
   -2.7443   -0.3364   13.2160 O   0  0  0  0  0  0  0  0  0  0  0  0
   -2.2132    0.6462   12.3458 C   0  0  0  0  0  0  0  0  0  0  0  0
   -5.3463   -3.2537   13.5726 H   0  0  0  0  0  0  0  0  0  0  0  0
   -3.9656   -2.5593   12.6573 H   0  0  0  0  0  0  0  0  0  0  0  0
   -3.7539   -4.0847   13.5821 H   0  0  0  0  0  0  0  0  0  0  0  0
   -2.2056   -3.6707   16.2438 H   0  0  0  0  0  0  0  0  0  0  0  0
    0.2000   -3.2214   16.4819 H   0  0  0  0  0  0  0  0  0  0  0  0
    5.0695    0.9879   12.8679 H   0  0  0  0  0  0  0  0  0  0  0  0
    4.6221    2.3146   13.9932 H   0  0  0  0  0  0  0  0  0  0  0  0
    6.8334    0.8942   15.3079 H   0  0  0  0  0  0  0  0  0  0  0  0
    6.2729   -0.7951   17.3212 H   0  0  0  0  0  0  0  0  0  0  0  0
    4.6122    2.3777   11.2484 H   0  0  0  0  0  0  0  0  0  0  0  0
    3.8249    3.8015    9.3895 H   0  0  0  0  0  0  0  0  0  0  0  0
    1.4307    4.3801    9.1987 H   0  0  0  0  0  0  0  0  0  0  0  0
    0.6066    2.1850   12.7906 H   0  0  0  0  0  0  0  0  0  0  0  0
   -3.2498    3.7747   10.3852 H   0  0  0  0  0  0  0  0  0  0  0  0
   -5.4768    4.7997   10.6339 H   0  0  0  0  0  0  0  0  0  0  0  0
   -4.2827    6.5125   14.3889 H   0  0  0  0  0  0  0  0  0  0  0  0
   -2.0429    5.4802   14.1432 H   0  0  0  0  0  0  0  0  0  0  0  0
   -8.0377    6.5628   11.9456 H   0  0  0  0  0  0  0  0  0  0  0  0
   -7.4950    7.3643   13.6765 H   0  0  0  0  0  0  0  0  0  0  0  0
   -0.0946   -0.0243   13.6199 H   0  0  0  0  0  0  0  0  0  0  0  0
   -3.0297    1.1072   11.7706 H   0  0  0  0  0  0  0  0  0  0  0  0
   -1.6988    1.4190   12.9359 H   0  0  0  0  0  0  0  0  0  0  0  0
   -1.4981    0.1759   11.6548 H   0  0  0  0  0  0  0  0  0  0  0  0
  1  2  1  0  0  0  0
  2  3  1  0  0  0  0
  3  4  2  0  0  0  0
  3 36  1  0  0  0  0
  4  5  1  0  0  0  0
  5  6  2  0  0  0  0
  6  7  1  0  0  0  0
  6 35  1  0  0  0  0
  7  8  2  0  0  0  0
  8  9  1  0  0  0  0
  8 16  1  0  0  0  0
  9 10  2  0  0  0  0
 10 11  1  0  0  0  0
 10 17  1  0  0  0  0
 11 12  1  0  0  0  0
 12 13  1  0  0  0  0
 12 16  1  0  0  0  0
 13 14  2  0  0  0  0
 14 15  1  0  0  0  0
 15 16  2  0  0  0  0
 17 18  2  0  0  0  0
 17 22  1  0  0  0  0
 18 19  1  0  0  0  0
 19 20  2  0  0  0  0
 20 21  1  0  0  0  0
 21 22  2  0  0  0  0
 21 23  1  0  0  0  0
 23 24  2  0  0  0  0
 23 25  1  0  0  0  0
 25 26  2  0  0  0  0
 26 27  1  0  0  0  0
 26 31  1  0  0  0  0
 27 28  2  0  0  0  0
 28 29  1  0  0  0  0
 29 30  1  0  0  0  0
 29 32  2  0  0  0  0
 30 31  2  0  0  0  0
 32 33  1  0  0  0  0
 32 34  1  0  0  0  0
 35 36  2  0  0  0  0
 36 37  1  0  0  0  0
 37 38  1  0  0  0  0
  1 39  1  0  0  0  0
  1 40  1  0  0  0  0
  1 41  1  0  0  0  0
  4 42  1  0  0  0  0
  5 43  1  0  0  0  0
 11 44  1  0  0  0  0
 11 45  1  0  0  0  0
 13 46  1  0  0  0  0
 14 47  1  0  0  0  0
 18 48  1  0  0  0  0
 19 49  1  0  0  0  0
 20 50  1  0  0  0  0
 22 51  1  0  0  0  0
 27 52  1  0  0  0  0
 28 53  1  0  0  0  0
 30 54  1  0  0  0  0
 31 55  1  0  0  0  0
 33 56  1  0  0  0  0
 34 57  1  0  0  0  0
 35 58  1  0  0  0  0
 38 59  1  0  0  0  0
 38 60  1  0  0  0  0
 38 61  1  0  0  0  0
M  END
> <IC50[nM]>
0.84

$$$$
CHEMBL3264995
  -OEChem-05192314333D
 Structure written by MMmdl.
 61 65  0     1  0  0  0  0  0999 V2000
   -4.2563   -3.1062   13.5664 C   0  0  0  0  0  0  0  0  0  0  0  0
   -3.8728   -2.3593   14.7106 O   0  0  0  0  0  0  0  0  0  0  0  0
   -2.5249   -2.1101   14.8131 C   0  0  3  0  0  0  0  0  0  0  0  0
   -1.7501   -2.8737   15.6749 C   0  0  0  0  0  0  0  0  0  0  0  0
   -0.3910   -2.6176   15.8092 C   0  0  0  0  0  0  0  0  0  0  0  0
    0.2227   -1.5905   15.0869 C   0  0  0  0  0  0  0  0  0  0  0  0
    1.6077   -1.3711   15.3228 N   0  0  0  0  0  0  0  0  0  0  0  0
    2.5318   -0.4406   14.7752 C   0  0  0  0  0  0  0  0  0  0  0  0
    2.1656    0.3957   13.7562 N   0  0  0  0  0  0  0  0  0  0  0  0
    3.1117    1.2369   13.2296 C   0  0  0  0  0  0  0  0  0  0  0  0
    4.4129    1.2745   13.7026 C   0  0  0  0  0  0  0  0  0  0  0  0
    4.7445    0.4891   14.7604 N   0  0  0  0  0  0  0  0  0  0  0  0
    5.8979    0.3839   15.4837 C   0  0  0  0  0  0  0  0  0  0  0  0
    5.5998   -0.5411   16.5157 C   0  0  0  0  0  0  0  0  0  0  0  0
    4.3864   -1.0537   16.3628 N   0  0  0  0  0  0  0  0  0  0  0  0
    3.8368   -0.3920   15.3291 C   0  0  0  0  0  0  0  0  0  0  0  0
    2.6550    2.1423   12.1326 C   0  0  0  0  0  0  0  0  0  0  0  0
    3.5650    2.6308   11.1723 C   0  0  0  0  0  0  0  0  0  0  0  0
    3.1221    3.4386   10.1249 C   0  0  0  0  0  0  0  0  0  0  0  0
    1.7757    3.7777   10.0261 C   0  0  0  0  0  0  0  0  0  0  0  0
    0.8680    3.3392   10.9975 C   0  0  0  0  0  0  0  0  0  0  0  0
    1.3092    2.5240   12.0437 C   0  0  0  0  0  0  0  0  0  0  0  0
   -0.5769    3.7618   10.9126 C   0  0  0  0  0  0  0  0  0  0  0  0
   -1.1111    3.9318    9.8164 O   0  0  0  0  0  0  0  0  0  0  0  0
   -1.1792    4.0031   12.1232 N   0  0  0  0  0  0  0  0  0  0  0  0
   -2.4941    4.5708   12.2428 C   0  0  0  0  0  0  0  0  0  0  0  0
   -3.4732    4.3742   11.2553 C   0  0  0  0  0  0  0  0  0  0  0  0
   -4.7281    4.9504   11.3975 C   0  0  0  0  0  0  0  0  0  0  0  0
   -5.0306    5.7263   12.5247 C   0  0  0  0  0  0  0  0  0  0  0  0
   -4.0556    5.9172   13.5169 C   0  0  0  0  0  0  0  0  0  0  0  0
   -2.7906    5.3372   13.3771 C   0  0  0  0  0  0  0  0  0  0  0  0
   -6.3945    6.3441   12.6680 C   0  0  0  0  0  0  0  0  0  0  0  0
   -7.2177    6.1258   11.7478 O   0  0  0  0  0  0  0  0  0  0  0  0
   -6.6066    7.0283   13.6967 O   0  0  0  0  0  0  0  0  0  0  0  0
   -0.5540   -0.8141   14.1957 C   0  0  0  0  0  0  0  0  0  0  0  0
   -1.9401   -1.0806   14.0641 C   0  0  0  0  0  0  0  0  0  0  0  0
   -2.7443   -0.3364   13.2160 O   0  0  0  0  0  0  0  0  0  0  0  0
   -2.2132    0.6462   12.3458 C   0  0  0  0  0  0  0  0  0  0  0  0
   -5.3463   -3.2537   13.5726 H   0  0  0  0  0  0  0  0  0  0  0  0
   -3.9656   -2.5593   12.6573 H   0  0  0  0  0  0  0  0  0  0  0  0
   -3.7539   -4.0847   13.5821 H   0  0  0  0  0  0  0  0  0  0  0  0
   -2.3269   -2.8215   13.9978 H   0  0  0  0  0  0  0  0  0  0  0  0
   -2.2056   -3.6707   16.2438 H   0  0  0  0  0  0  0  0  0  0  0  0
    0.2000   -3.2214   16.4819 H   0  0  0  0  0  0  0  0  0  0  0  0
    5.1490    1.9152   13.2399 H   0  0  0  0  0  0  0  0  0  0  0  0
    6.8334    0.8942   15.3079 H   0  0  0  0  0  0  0  0  0  0  0  0
    6.2729   -0.7951   17.3212 H   0  0  0  0  0  0  0  0  0  0  0  0
    4.6122    2.3777   11.2484 H   0  0  0  0  0  0  0  0  0  0  0  0
    3.8249    3.8015    9.3895 H   0  0  0  0  0  0  0  0  0  0  0  0
    1.4307    4.3801    9.1987 H   0  0  0  0  0  0  0  0  0  0  0  0
    0.6066    2.1850   12.7906 H   0  0  0  0  0  0  0  0  0  0  0  0
   -3.2498    3.7747   10.3852 H   0  0  0  0  0  0  0  0  0  0  0  0
   -5.4768    4.7997   10.6339 H   0  0  0  0  0  0  0  0  0  0  0  0
   -4.2827    6.5125   14.3889 H   0  0  0  0  0  0  0  0  0  0  0  0
   -2.0429    5.4802   14.1432 H   0  0  0  0  0  0  0  0  0  0  0  0
   -8.0377    6.5628   11.9456 H   0  0  0  0  0  0  0  0  0  0  0  0
   -7.4950    7.3643   13.6765 H   0  0  0  0  0  0  0  0  0  0  0  0
   -0.0946   -0.0243   13.6199 H   0  0  0  0  0  0  0  0  0  0  0  0
   -3.0297    1.1072   11.7706 H   0  0  0  0  0  0  0  0  0  0  0  0
   -1.6988    1.4190   12.9359 H   0  0  0  0  0  0  0  0  0  0  0  0
   -1.4981    0.1759   11.6548 H   0  0  0  0  0  0  0  0  0  0  0  0
  1  2  1  0  0  0  0
  2  3  1  0  0  0  0
  3  4  1  0  0  0  0
  3 36  1  0  0  0  0
  4  5  2  0  0  0  0
  5  6  1  0  0  0  0
  6  7  2  0  0  0  0
  6 35  1  0  0  0  0
  7  8  1  0  0  0  0
  8  9  2  0  0  0  0
  8 16  1  0  0  0  0
  9 10  1  0  0  0  0
 10 11  2  0  0  0  0
 10 17  1  0  0  0  0
 11 12  1  0  0  0  0
 12 13  1  0  0  0  0
 12 16  1  0  0  0  0
 13 14  2  0  0  0  0
 14 15  1  0  0  0  0
 15 16  2  0  0  0  0
 17 18  2  0  0  0  0
 17 22  1  0  0  0  0
 18 19  1  0  0  0  0
 19 20  2  0  0  0  0
 20 21  1  0  0  0  0
 21 22  2  0  0  0  0
 21 23  1  0  0  0  0
 23 24  2  0  0  0  0
 23 25  1  0  0  0  0
 25 26  2  0  0  0  0
 26 27  1  0  0  0  0
 26 31  1  0  0  0  0
 27 28  2  0  0  0  0
 28 29  1  0  0  0  0
 29 30  1  0  0  0  0
 29 32  2  0  0  0  0
 30 31  2  0  0  0  0
 32 33  1  0  0  0  0
 32 34  1  0  0  0  0
 35 36  2  0  0  0  0
 36 37  1  0  0  0  0
 37 38  1  0  0  0  0
  1 39  1  0  0  0  0
  1 40  1  0  0  0  0
  1 41  1  0  0  0  0
  3 42  1  0  0  0  0
  4 43  1  0  0  0  0
  5 44  1  0  0  0  0
 11 45  1  0  0  0  0
 13 46  1  0  0  0  0
 14 47  1  0  0  0  0
 18 48  1  0  0  0  0
 19 49  1  0  0  0  0
 20 50  1  0  0  0  0
 22 51  1  0  0  0  0
 27 52  1  0  0  0  0
 28 53  1  0  0  0  0
 30 54  1  0  0  0  0
 31 55  1  0  0  0  0
 33 56  1  0  0  0  0
 34 57  1  0  0  0  0
 35 58  1  0  0  0  0
 38 59  1  0  0  0  0
 38 60  1  0  0  0  0
 38 61  1  0  0  0  0
M  END
> <IC50[nM]>
0.84

$$$$
CHEMBL3264995
  -OEChem-05192314333D
 Structure written by MMmdl.
 61 65  0     0  0  0  0  0  0999 V2000
   -4.2563   -3.1062   13.5664 C   0  0  0  0  0  0  0  0  0  0  0  0
   -3.8728   -2.3593   14.7106 O   0  0  0  0  0  0  0  0  0  0  0  0
   -2.5249   -2.1101   14.8131 C   0  0  0  0  0  0  0  0  0  0  0  0
   -1.7501   -2.8737   15.6749 C   0  0  0  0  0  0  0  0  0  0  0  0
   -0.3910   -2.6176   15.8092 C   0  0  0  0  0  0  0  0  0  0  0  0
    0.2227   -1.5905   15.0869 C   0  0  0  0  0  0  0  0  0  0  0  0
    1.6077   -1.3711   15.3228 N   0  0  0  0  0  0  0  0  0  0  0  0
    2.5318   -0.4406   14.7752 C   0  0  0  0  0  0  0  0  0  0  0  0
    2.1656    0.3957   13.7562 N   0  0  0  0  0  0  0  0  0  0  0  0
    3.1117    1.2369   13.2296 C   0  0  0  0  0  0  0  0  0  0  0  0
    4.4129    1.2745   13.7026 C   0  0  0  0  0  0  0  0  0  0  0  0
    4.7445    0.4891   14.7604 N   0  0  0  0  0  0  0  0  0  0  0  0
    5.8979    0.3839   15.4837 C   0  0  0  0  0  0  0  0  0  0  0  0
    5.5998   -0.5411   16.5157 C   0  0  0  0  0  0  0  0  0  0  0  0
    4.3864   -1.0537   16.3628 N   0  0  0  0  0  0  0  0  0  0  0  0
    3.8368   -0.3920   15.3291 C   0  0  0  0  0  0  0  0  0  0  0  0
    2.6550    2.1423   12.1326 C   0  0  0  0  0  0  0  0  0  0  0  0
    3.5650    2.6308   11.1723 C   0  0  0  0  0  0  0  0  0  0  0  0
    3.1221    3.4386   10.1249 C   0  0  0  0  0  0  0  0  0  0  0  0
    1.7757    3.7777   10.0261 C   0  0  0  0  0  0  0  0  0  0  0  0
    0.8680    3.3392   10.9975 C   0  0  0  0  0  0  0  0  0  0  0  0
    1.3092    2.5240   12.0437 C   0  0  0  0  0  0  0  0  0  0  0  0
   -0.5769    3.7618   10.9126 C   0  0  0  0  0  0  0  0  0  0  0  0
   -1.1111    3.9318    9.8164 O   0  0  0  0  0  0  0  0  0  0  0  0
   -1.1792    4.0031   12.1232 N   0  0  0  0  0  0  0  0  0  0  0  0
   -2.4941    4.5708   12.2428 C   0  0  0  0  0  0  0  0  0  0  0  0
   -3.4732    4.3742   11.2553 C   0  0  0  0  0  0  0  0  0  0  0  0
   -4.7281    4.9504   11.3975 C   0  0  0  0  0  0  0  0  0  0  0  0
   -5.0306    5.7263   12.5247 C   0  0  0  0  0  0  0  0  0  0  0  0
   -4.0556    5.9172   13.5169 C   0  0  0  0  0  0  0  0  0  0  0  0
   -2.7906    5.3372   13.3771 C   0  0  0  0  0  0  0  0  0  0  0  0
   -6.3945    6.3441   12.6680 C   0  0  0  0  0  0  0  0  0  0  0  0
   -7.2177    6.1258   11.7478 O   0  0  0  0  0  0  0  0  0  0  0  0
   -6.6066    7.0283   13.6967 O   0  0  0  0  0  0  0  0  0  0  0  0
   -0.5540   -0.8141   14.1957 C   0  0  0  0  0  0  0  0  0  0  0  0
   -1.9401   -1.0806   14.0641 C   0  0  0  0  0  0  0  0  0  0  0  0
   -2.7443   -0.3364   13.2160 O   0  0  0  0  0  0  0  0  0  0  0  0
   -2.2132    0.6462   12.3458 C   0  0  0  0  0  0  0  0  0  0  0  0
   -5.3463   -3.2537   13.5726 H   0  0  0  0  0  0  0  0  0  0  0  0
   -3.9656   -2.5593   12.6573 H   0  0  0  0  0  0  0  0  0  0  0  0
   -3.7539   -4.0847   13.5821 H   0  0  0  0  0  0  0  0  0  0  0  0
   -2.2056   -3.6707   16.2438 H   0  0  0  0  0  0  0  0  0  0  0  0
   -0.2177   -2.3985   16.8731 H   0  0  0  0  0  0  0  0  0  0  0  0
    0.1308   -3.5468   15.5364 H   0  0  0  0  0  0  0  0  0  0  0  0
    5.1490    1.9152   13.2399 H   0  0  0  0  0  0  0  0  0  0  0  0
    6.8334    0.8942   15.3079 H   0  0  0  0  0  0  0  0  0  0  0  0
    6.2729   -0.7951   17.3212 H   0  0  0  0  0  0  0  0  0  0  0  0
    4.6122    2.3777   11.2484 H   0  0  0  0  0  0  0  0  0  0  0  0
    3.8249    3.8015    9.3895 H   0  0  0  0  0  0  0  0  0  0  0  0
    1.4307    4.3801    9.1987 H   0  0  0  0  0  0  0  0  0  0  0  0
    0.6066    2.1850   12.7906 H   0  0  0  0  0  0  0  0  0  0  0  0
   -3.2498    3.7747   10.3852 H   0  0  0  0  0  0  0  0  0  0  0  0
   -5.4768    4.7997   10.6339 H   0  0  0  0  0  0  0  0  0  0  0  0
   -4.2827    6.5125   14.3889 H   0  0  0  0  0  0  0  0  0  0  0  0
   -2.0429    5.4802   14.1432 H   0  0  0  0  0  0  0  0  0  0  0  0
   -8.0377    6.5628   11.9456 H   0  0  0  0  0  0  0  0  0  0  0  0
   -7.4950    7.3643   13.6765 H   0  0  0  0  0  0  0  0  0  0  0  0
   -0.0946   -0.0243   13.6199 H   0  0  0  0  0  0  0  0  0  0  0  0
   -3.0297    1.1072   11.7706 H   0  0  0  0  0  0  0  0  0  0  0  0
   -1.6988    1.4190   12.9359 H   0  0  0  0  0  0  0  0  0  0  0  0
   -1.4981    0.1759   11.6548 H   0  0  0  0  0  0  0  0  0  0  0  0
  1  2  1  0  0  0  0
  2  3  1  0  0  0  0
  3  4  2  0  0  0  0
  3 36  1  0  0  0  0
  4  5  1  0  0  0  0
  5  6  1  0  0  0  0
  6  7  2  0  0  0  0
  6 35  1  0  0  0  0
  7  8  1  0  0  0  0
  8  9  2  0  0  0  0
  8 16  1  0  0  0  0
  9 10  1  0  0  0  0
 10 11  2  0  0  0  0
 10 17  1  0  0  0  0
 11 12  1  0  0  0  0
 12 13  1  0  0  0  0
 12 16  1  0  0  0  0
 13 14  2  0  0  0  0
 14 15  1  0  0  0  0
 15 16  2  0  0  0  0
 17 18  2  0  0  0  0
 17 22  1  0  0  0  0
 18 19  1  0  0  0  0
 19 20  2  0  0  0  0
 20 21  1  0  0  0  0
 21 22  2  0  0  0  0
 21 23  1  0  0  0  0
 23 24  2  0  0  0  0
 23 25  1  0  0  0  0
 25 26  2  0  0  0  0
 26 27  1  0  0  0  0
 26 31  1  0  0  0  0
 27 28  2  0  0  0  0
 28 29  1  0  0  0  0
 29 30  1  0  0  0  0
 29 32  2  0  0  0  0
 30 31  2  0  0  0  0
 32 33  1  0  0  0  0
 32 34  1  0  0  0  0
 35 36  2  0  0  0  0
 36 37  1  0  0  0  0
 37 38  1  0  0  0  0
  1 39  1  0  0  0  0
  1 40  1  0  0  0  0
  1 41  1  0  0  0  0
  4 42  1  0  0  0  0
  5 43  1  0  0  0  0
  5 44  1  0  0  0  0
 11 45  1  0  0  0  0
 13 46  1  0  0  0  0
 14 47  1  0  0  0  0
 18 48  1  0  0  0  0
 19 49  1  0  0  0  0
 20 50  1  0  0  0  0
 22 51  1  0  0  0  0
 27 52  1  0  0  0  0
 28 53  1  0  0  0  0
 30 54  1  0  0  0  0
 31 55  1  0  0  0  0
 33 56  1  0  0  0  0
 34 57  1  0  0  0  0
 35 58  1  0  0  0  0
 38 59  1  0  0  0  0
 38 60  1  0  0  0  0
 38 61  1  0  0  0  0
M  END
> <IC50[nM]>
0.84

$$$$
CHEMBL3264995
  -OEChem-05192314333D
 Structure written by MMmdl.
 61 65  0     0  0  0  0  0  0999 V2000
   -4.2563   -3.1062   13.5664 C   0  0  0  0  0  0  0  0  0  0  0  0
   -3.8728   -2.3593   14.7106 O   0  0  0  0  0  0  0  0  0  0  0  0
   -2.5249   -2.1101   14.8131 C   0  0  0  0  0  0  0  0  0  0  0  0
   -1.7501   -2.8737   15.6749 C   0  0  0  0  0  0  0  0  0  0  0  0
   -0.3910   -2.6176   15.8092 C   0  0  0  0  0  0  0  0  0  0  0  0
    0.2227   -1.5905   15.0869 C   0  0  0  0  0  0  0  0  0  0  0  0
    1.6077   -1.3711   15.3228 N   0  0  0  0  0  0  0  0  0  0  0  0
    2.5318   -0.4406   14.7752 C   0  0  0  0  0  0  0  0  0  0  0  0
    2.1656    0.3957   13.7562 N   0  0  0  0  0  0  0  0  0  0  0  0
    3.1117    1.2369   13.2296 C   0  0  0  0  0  0  0  0  0  0  0  0
    4.4129    1.2745   13.7026 C   0  0  0  0  0  0  0  0  0  0  0  0
    4.7445    0.4891   14.7604 N   0  0  0  0  0  0  0  0  0  0  0  0
    5.8979    0.3839   15.4837 C   0  0  0  0  0  0  0  0  0  0  0  0
    5.5998   -0.5411   16.5157 C   0  0  0  0  0  0  0  0  0  0  0  0
    4.3864   -1.0537   16.3628 N   0  0  0  0  0  0  0  0  0  0  0  0
    3.8368   -0.3920   15.3291 C   0  0  0  0  0  0  0  0  0  0  0  0
    2.6550    2.1423   12.1326 C   0  0  0  0  0  0  0  0  0  0  0  0
    3.5650    2.6308   11.1723 C   0  0  0  0  0  0  0  0  0  0  0  0
    3.1221    3.4386   10.1249 C   0  0  0  0  0  0  0  0  0  0  0  0
    1.7757    3.7777   10.0261 C   0  0  0  0  0  0  0  0  0  0  0  0
    0.8680    3.3392   10.9975 C   0  0  0  0  0  0  0  0  0  0  0  0
    1.3092    2.5240   12.0437 C   0  0  0  0  0  0  0  0  0  0  0  0
   -0.5769    3.7618   10.9126 C   0  0  0  0  0  0  0  0  0  0  0  0
   -1.1111    3.9318    9.8164 O   0  0  0  0  0  0  0  0  0  0  0  0
   -1.1792    4.0031   12.1232 N   0  0  0  0  0  0  0  0  0  0  0  0
   -2.4941    4.5708   12.2428 C   0  0  0  0  0  0  0  0  0  0  0  0
   -3.4732    4.3742   11.2553 C   0  0  0  0  0  0  0  0  0  0  0  0
   -4.7281    4.9504   11.3975 C   0  0  0  0  0  0  0  0  0  0  0  0
   -5.0306    5.7263   12.5247 C   0  0  0  0  0  0  0  0  0  0  0  0
   -4.0556    5.9172   13.5169 C   0  0  0  0  0  0  0  0  0  0  0  0
   -2.7906    5.3372   13.3771 C   0  0  0  0  0  0  0  0  0  0  0  0
   -6.3945    6.3441   12.6680 C   0  0  0  0  0  0  0  0  0  0  0  0
   -7.2177    6.1258   11.7478 O   0  0  0  0  0  0  0  0  0  0  0  0
   -6.6066    7.0283   13.6967 O   0  0  0  0  0  0  0  0  0  0  0  0
   -0.5540   -0.8141   14.1957 C   0  0  0  0  0  0  0  0  0  0  0  0
   -1.9401   -1.0806   14.0641 C   0  0  0  0  0  0  0  0  0  0  0  0
   -2.7443   -0.3364   13.2160 O   0  0  0  0  0  0  0  0  0  0  0  0
   -2.2132    0.6462   12.3458 C   0  0  0  0  0  0  0  0  0  0  0  0
   -5.3463   -3.2537   13.5726 H   0  0  0  0  0  0  0  0  0  0  0  0
   -3.9656   -2.5593   12.6573 H   0  0  0  0  0  0  0  0  0  0  0  0
   -3.7539   -4.0847   13.5821 H   0  0  0  0  0  0  0  0  0  0  0  0
   -2.2056   -3.6707   16.2438 H   0  0  0  0  0  0  0  0  0  0  0  0
    0.2000   -3.2214   16.4819 H   0  0  0  0  0  0  0  0  0  0  0  0
    5.1490    1.9152   13.2399 H   0  0  0  0  0  0  0  0  0  0  0  0
    6.8334    0.8942   15.3079 H   0  0  0  0  0  0  0  0  0  0  0  0
    6.2729   -0.7951   17.3212 H   0  0  0  0  0  0  0  0  0  0  0  0
    4.6122    2.3777   11.2484 H   0  0  0  0  0  0  0  0  0  0  0  0
    3.8249    3.8015    9.3895 H   0  0  0  0  0  0  0  0  0  0  0  0
    1.4307    4.3801    9.1987 H   0  0  0  0  0  0  0  0  0  0  0  0
    0.6066    2.1850   12.7906 H   0  0  0  0  0  0  0  0  0  0  0  0
   -3.2498    3.7747   10.3852 H   0  0  0  0  0  0  0  0  0  0  0  0
   -5.4768    4.7997   10.6339 H   0  0  0  0  0  0  0  0  0  0  0  0
   -4.2827    6.5125   14.3889 H   0  0  0  0  0  0  0  0  0  0  0  0
   -2.0429    5.4802   14.1432 H   0  0  0  0  0  0  0  0  0  0  0  0
   -8.0377    6.5628   11.9456 H   0  0  0  0  0  0  0  0  0  0  0  0
   -7.4950    7.3643   13.6765 H   0  0  0  0  0  0  0  0  0  0  0  0
   -0.4587    0.2335   14.5174 H   0  0  0  0  0  0  0  0  0  0  0  0
   -0.1091   -0.9328   13.1967 H   0  0  0  0  0  0  0  0  0  0  0  0
   -3.0297    1.1072   11.7706 H   0  0  0  0  0  0  0  0  0  0  0  0
   -1.6988    1.4190   12.9359 H   0  0  0  0  0  0  0  0  0  0  0  0
   -1.4981    0.1759   11.6548 H   0  0  0  0  0  0  0  0  0  0  0  0
  1  2  1  0  0  0  0
  2  3  1  0  0  0  0
  3  4  1  0  0  0  0
  3 36  2  0  0  0  0
  4  5  2  0  0  0  0
  5  6  1  0  0  0  0
  6  7  2  0  0  0  0
  6 35  1  0  0  0  0
  7  8  1  0  0  0  0
  8  9  2  0  0  0  0
  8 16  1  0  0  0  0
  9 10  1  0  0  0  0
 10 11  2  0  0  0  0
 10 17  1  0  0  0  0
 11 12  1  0  0  0  0
 12 13  1  0  0  0  0
 12 16  1  0  0  0  0
 13 14  2  0  0  0  0
 14 15  1  0  0  0  0
 15 16  2  0  0  0  0
 17 18  2  0  0  0  0
 17 22  1  0  0  0  0
 18 19  1  0  0  0  0
 19 20  2  0  0  0  0
 20 21  1  0  0  0  0
 21 22  2  0  0  0  0
 21 23  1  0  0  0  0
 23 24  2  0  0  0  0
 23 25  1  0  0  0  0
 25 26  2  0  0  0  0
 26 27  1  0  0  0  0
 26 31  1  0  0  0  0
 27 28  2  0  0  0  0
 28 29  1  0  0  0  0
 29 30  1  0  0  0  0
 29 32  2  0  0  0  0
 30 31  2  0  0  0  0
 32 33  1  0  0  0  0
 32 34  1  0  0  0  0
 35 36  1  0  0  0  0
 36 37  1  0  0  0  0
 37 38  1  0  0  0  0
  1 39  1  0  0  0  0
  1 40  1  0  0  0  0
  1 41  1  0  0  0  0
  4 42  1  0  0  0  0
  5 43  1  0  0  0  0
 11 44  1  0  0  0  0
 13 45  1  0  0  0  0
 14 46  1  0  0  0  0
 18 47  1  0  0  0  0
 19 48  1  0  0  0  0
 20 49  1  0  0  0  0
 22 50  1  0  0  0  0
 27 51  1  0  0  0  0
 28 52  1  0  0  0  0
 30 53  1  0  0  0  0
 31 54  1  0  0  0  0
 33 55  1  0  0  0  0
 34 56  1  0  0  0  0
 35 57  1  0  0  0  0
 35 58  1  0  0  0  0
 38 59  1  0  0  0  0
 38 60  1  0  0  0  0
 38 61  1  0  0  0  0
M  END
> <IC50[nM]>
0.84

$$$$
