CHEMBL3265000
  -OEChem-05192314333D
 Structure written by MMmdl.
 68 72  0     0  0  0  0  0  0999 V2000
   -4.2555   -3.1029   13.5707 C   0  0  0  0  0  0  0  0  0  0  0  0
   -3.8740   -2.3535   14.7166 O   0  0  0  0  0  0  0  0  0  0  0  0
   -2.5261   -2.1057   14.8053 C   0  0  0  0  0  0  0  0  0  0  0  0
   -1.7497   -2.8673   15.6804 C   0  0  0  0  0  0  0  0  0  0  0  0
   -0.3863   -2.6106   15.8150 C   0  0  0  0  0  0  0  0  0  0  0  0
    0.2220   -1.5829   15.0890 C   0  0  0  0  0  0  0  0  0  0  0  0
    1.5930   -1.3491   15.3060 N   0  0  0  0  0  0  0  0  0  0  0  0
    2.5452   -0.4689   14.7536 C   0  0  0  0  0  0  0  0  0  0  0  0
    2.2178    0.3551   13.7190 N   0  0  0  0  0  0  0  0  0  0  0  0
    3.1227    1.2406   13.2181 C   0  0  0  0  0  0  0  0  0  0  0  0
    4.4207    1.3039   13.7175 C   0  0  0  0  0  0  0  0  0  0  0  0
    4.7482    0.4921   14.7654 N   0  0  0  0  0  0  0  0  0  0  0  0
    5.8898    0.3836   15.5035 C   0  0  0  0  0  0  0  0  0  0  0  0
    5.5715   -0.5089   16.5177 C   0  0  0  0  0  0  0  0  0  0  0  0
    4.3818   -1.0543   16.3920 N   0  0  0  0  0  0  0  0  0  0  0  0
    3.8330   -0.4170   15.3252 C   0  0  0  0  0  0  0  0  0  0  0  0
    2.6564    2.1560   12.1340 C   0  0  0  0  0  0  0  0  0  0  0  0
    3.5566    2.6280   11.1666 C   0  0  0  0  0  0  0  0  0  0  0  0
    3.1294    3.4499   10.1277 C   0  0  0  0  0  0  0  0  0  0  0  0
    1.7879    3.8078   10.0318 C   0  0  0  0  0  0  0  0  0  0  0  0
    0.8660    3.3707   10.9895 C   0  0  0  0  0  0  0  0  0  0  0  0
    1.3140    2.5576   12.0419 C   0  0  0  0  0  0  0  0  0  0  0  0
   -0.5783    3.7648   10.8956 C   0  0  0  0  0  0  0  0  0  0  0  0
   -1.2780    3.6594    9.8925 O   0  0  0  0  0  0  0  0  0  0  0  0
   -1.0343    4.2553   12.0485 N   0  0  0  0  0  0  0  0  0  0  0  0
   -2.3943    4.7285   12.2897 C   0  0  0  0  0  0  0  0  0  0  0  0
   -2.6544    5.5820   13.3553 C   0  0  0  0  0  0  0  0  0  0  0  0
   -3.9490    6.0325   13.5849 C   0  0  0  0  0  0  0  0  0  0  0  0
   -4.9835    5.6294   12.7489 C   0  0  0  0  0  0  0  0  0  0  0  0
   -4.7235    4.7759   11.6833 C   0  0  0  0  0  0  0  0  0  0  0  0
   -3.4289    4.3254   11.4537 C   0  0  0  0  0  0  0  0  0  0  0  0
   -6.3808    6.1155   12.9967 C   0  0  0  0  0  0  0  0  0  0  0  0
   -7.3335    5.7936   12.2928 O   0  0  0  0  0  0  0  0  0  0  0  0
   -6.3969    6.9226   14.0705 N   0  0  0  0  0  0  0  0  0  0  0  0
   -7.9316    7.5992   14.5333 S   0  0  0  0  0  0  0  0  0  0  0  0
   -8.7871    6.4947   14.9809 O   0  0  0  0  0  0  0  0  0  0  0  0
   -8.3522    8.5161   13.4681 O   0  0  0  0  0  0  0  0  0  0  0  0
   -7.5285    8.5816   15.9619 C   0  0  0  0  0  0  0  0  0  0  0  0
   -0.5664   -0.8256   14.2115 C   0  0  0  0  0  0  0  0  0  0  0  0
   -1.9389   -1.0760   14.0580 C   0  0  0  0  0  0  0  0  0  0  0  0
   -2.6991   -0.3052   13.2021 O   0  0  0  0  0  0  0  0  0  0  0  0
   -2.0020    0.6746   12.5251 C   0  0  0  0  0  0  0  0  0  0  0  0
   -5.3448   -3.2555   13.5777 H   0  0  0  0  0  0  0  0  0  0  0  0
   -3.9681   -2.5543   12.6616 H   0  0  0  0  0  0  0  0  0  0  0  0
   -3.7486   -4.0790   13.5856 H   0  0  0  0  0  0  0  0  0  0  0  0
   -2.2073   -3.6587   16.2555 H   0  0  0  0  0  0  0  0  0  0  0  0
    0.2066   -3.2125   16.4877 H   0  0  0  0  0  0  0  0  0  0  0  0
    1.9791   -1.9422   16.0125 H   0  0  0  0  0  0  0  0  0  0  0  0
    5.1484    1.9765   13.2880 H   0  0  0  0  0  0  0  0  0  0  0  0
    6.8331    0.8820   15.3359 H   0  0  0  0  0  0  0  0  0  0  0  0
    6.2400   -0.7347   17.3354 H   0  0  0  0  0  0  0  0  0  0  0  0
    4.5981    2.3490   11.2292 H   0  0  0  0  0  0  0  0  0  0  0  0
    3.8383    3.8096    9.3966 H   0  0  0  0  0  0  0  0  0  0  0  0
    1.4559    4.4276    9.2120 H   0  0  0  0  0  0  0  0  0  0  0  0
    0.6121    2.2342   12.7963 H   0  0  0  0  0  0  0  0  0  0  0  0
   -0.3906    4.3031   12.8123 H   0  0  0  0  0  0  0  0  0  0  0  0
   -1.8505    5.8952   14.0050 H   0  0  0  0  0  0  0  0  0  0  0  0
   -4.1511    6.6958   14.4129 H   0  0  0  0  0  0  0  0  0  0  0  0
   -5.5274    4.4627   11.0337 H   0  0  0  0  0  0  0  0  0  0  0  0
   -3.2268    3.6621   10.6257 H   0  0  0  0  0  0  0  0  0  0  0  0
   -5.5621    7.1259   14.5822 H   0  0  0  0  0  0  0  0  0  0  0  0
   -8.4399    9.0642   16.3447 H   0  0  0  0  0  0  0  0  0  0  0  0
   -7.1006    7.9352   16.7423 H   0  0  0  0  0  0  0  0  0  0  0  0
   -6.7956    9.3525   15.6817 H   0  0  0  0  0  0  0  0  0  0  0  0
   -0.1075   -0.0318   13.6408 H   0  0  0  0  0  0  0  0  0  0  0  0
   -2.6909    1.2310   11.8726 H   0  0  0  0  0  0  0  0  0  0  0  0
   -1.5443    1.3652   13.2487 H   0  0  0  0  0  0  0  0  0  0  0  0
   -1.2146    0.2087   11.9144 H   0  0  0  0  0  0  0  0  0  0  0  0
  1  2  1  0  0  0  0
  2  3  1  0  0  0  0
  3  4  2  0  0  0  0
  3 40  1  0  0  0  0
  4  5  1  0  0  0  0
  5  6  2  0  0  0  0
  6  7  1  0  0  0  0
  6 39  1  0  0  0  0
  7  8  1  0  0  0  0
  8  9  2  0  0  0  0
  8 16  1  0  0  0  0
  9 10  1  0  0  0  0
 10 11  2  0  0  0  0
 10 17  1  0  0  0  0
 11 12  1  0  0  0  0
 12 13  1  0  0  0  0
 12 16  1  0  0  0  0
 13 14  2  0  0  0  0
 14 15  1  0  0  0  0
 15 16  2  0  0  0  0
 17 18  2  0  0  0  0
 17 22  1  0  0  0  0
 18 19  1  0  0  0  0
 19 20  2  0  0  0  0
 20 21  1  0  0  0  0
 21 22  2  0  0  0  0
 21 23  1  0  0  0  0
 23 24  2  0  0  0  0
 23 25  1  0  0  0  0
 25 26  1  0  0  0  0
 26 27  2  0  0  0  0
 26 31  1  0  0  0  0
 27 28  1  0  0  0  0
 28 29  2  0  0  0  0
 29 30  1  0  0  0  0
 29 32  1  0  0  0  0
 30 31  2  0  0  0  0
 32 33  2  0  0  0  0
 32 34  1  0  0  0  0
 34 35  1  0  0  0  0
 35 36  2  0  0  0  0
 35 37  2  0  0  0  0
 35 38  1  0  0  0  0
 39 40  2  0  0  0  0
 40 41  1  0  0  0  0
 41 42  1  0  0  0  0
  1 43  1  0  0  0  0
  1 44  1  0  0  0  0
  1 45  1  0  0  0  0
  4 46  1  0  0  0  0
  5 47  1  0  0  0  0
  7 48  1  0  0  0  0
 11 49  1  0  0  0  0
 13 50  1  0  0  0  0
 14 51  1  0  0  0  0
 18 52  1  0  0  0  0
 19 53  1  0  0  0  0
 20 54  1  0  0  0  0
 22 55  1  0  0  0  0
 25 56  1  0  0  0  0
 27 57  1  0  0  0  0
 28 58  1  0  0  0  0
 30 59  1  0  0  0  0
 31 60  1  0  0  0  0
 34 61  1  0  0  0  0
 38 62  1  0  0  0  0
 38 63  1  0  0  0  0
 38 64  1  0  0  0  0
 39 65  1  0  0  0  0
 42 66  1  0  0  0  0
 42 67  1  0  0  0  0
 42 68  1  0  0  0  0
M  END
> <IC50[nM]>
2.2

$$$$
CHEMBL3265000
  -OEChem-05192314333D
 Structure written by MMmdl.
 68 72  0     0  0  0  0  0  0999 V2000
   -4.2555   -3.1029   13.5707 C   0  0  0  0  0  0  0  0  0  0  0  0
   -3.8740   -2.3535   14.7166 O   0  0  0  0  0  0  0  0  0  0  0  0
   -2.5261   -2.1057   14.8053 C   0  0  0  0  0  0  0  0  0  0  0  0
   -1.7497   -2.8673   15.6804 C   0  0  0  0  0  0  0  0  0  0  0  0
   -0.3863   -2.6106   15.8150 C   0  0  0  0  0  0  0  0  0  0  0  0
    0.2220   -1.5829   15.0890 C   0  0  0  0  0  0  0  0  0  0  0  0
    1.5930   -1.3491   15.3060 N   0  0  0  0  0  0  0  0  0  0  0  0
    2.5452   -0.4689   14.7536 C   0  0  0  0  0  0  0  0  0  0  0  0
    2.2178    0.3551   13.7190 N   0  0  0  0  0  0  0  0  0  0  0  0
    3.1227    1.2406   13.2181 C   0  0  0  0  0  0  0  0  0  0  0  0
    4.4207    1.3039   13.7175 C   0  0  0  0  0  0  0  0  0  0  0  0
    4.7482    0.4921   14.7654 N   0  0  0  0  0  0  0  0  0  0  0  0
    5.8898    0.3836   15.5035 C   0  0  0  0  0  0  0  0  0  0  0  0
    5.5715   -0.5089   16.5177 C   0  0  0  0  0  0  0  0  0  0  0  0
    4.3818   -1.0543   16.3920 N   0  0  0  0  0  0  0  0  0  0  0  0
    3.8330   -0.4170   15.3252 C   0  0  0  0  0  0  0  0  0  0  0  0
    2.6564    2.1560   12.1340 C   0  0  0  0  0  0  0  0  0  0  0  0
    3.5566    2.6280   11.1666 C   0  0  0  0  0  0  0  0  0  0  0  0
    3.1294    3.4499   10.1277 C   0  0  0  0  0  0  0  0  0  0  0  0
    1.7879    3.8078   10.0318 C   0  0  0  0  0  0  0  0  0  0  0  0
    0.8660    3.3707   10.9895 C   0  0  0  0  0  0  0  0  0  0  0  0
    1.3140    2.5576   12.0419 C   0  0  0  0  0  0  0  0  0  0  0  0
   -0.5783    3.7648   10.8956 C   0  0  0  0  0  0  0  0  0  0  0  0
   -1.2780    3.6594    9.8925 O   0  0  0  0  0  0  0  0  0  0  0  0
   -1.0343    4.2553   12.0485 N   0  0  0  0  0  0  0  0  0  0  0  0
   -2.3943    4.7285   12.2897 C   0  0  0  0  0  0  0  0  0  0  0  0
   -2.6544    5.5820   13.3553 C   0  0  0  0  0  0  0  0  0  0  0  0
   -3.9490    6.0325   13.5849 C   0  0  0  0  0  0  0  0  0  0  0  0
   -4.9835    5.6294   12.7489 C   0  0  0  0  0  0  0  0  0  0  0  0
   -4.7235    4.7759   11.6833 C   0  0  0  0  0  0  0  0  0  0  0  0
   -3.4289    4.3254   11.4537 C   0  0  0  0  0  0  0  0  0  0  0  0
   -6.3808    6.1155   12.9967 C   0  0  0  0  0  0  0  0  0  0  0  0
   -7.3335    5.7936   12.2928 O   0  0  0  0  0  0  0  0  0  0  0  0
   -6.3969    6.9226   14.0705 N   0  0  0  0  0  0  0  0  0  0  0  0
   -7.9316    7.5992   14.5333 S   0  0  0  0  0  0  0  0  0  0  0  0
   -8.7871    6.4947   14.9809 O   0  0  0  0  0  0  0  0  0  0  0  0
   -8.3522    8.5161   13.4681 O   0  0  0  0  0  0  0  0  0  0  0  0
   -7.5285    8.5816   15.9619 C   0  0  0  0  0  0  0  0  0  0  0  0
   -0.5664   -0.8256   14.2115 C   0  0  0  0  0  0  0  0  0  0  0  0
   -1.9389   -1.0760   14.0580 C   0  0  0  0  0  0  0  0  0  0  0  0
   -2.6991   -0.3052   13.2021 O   0  0  0  0  0  0  0  0  0  0  0  0
   -2.0020    0.6746   12.5251 C   0  0  0  0  0  0  0  0  0  0  0  0
   -5.3448   -3.2555   13.5777 H   0  0  0  0  0  0  0  0  0  0  0  0
   -3.9681   -2.5543   12.6616 H   0  0  0  0  0  0  0  0  0  0  0  0
   -3.7486   -4.0790   13.5856 H   0  0  0  0  0  0  0  0  0  0  0  0
   -2.2073   -3.6587   16.2555 H   0  0  0  0  0  0  0  0  0  0  0  0
    0.2066   -3.2125   16.4877 H   0  0  0  0  0  0  0  0  0  0  0  0
    1.9791   -1.9422   16.0125 H   0  0  0  0  0  0  0  0  0  0  0  0
    5.1484    1.9765   13.2880 H   0  0  0  0  0  0  0  0  0  0  0  0
    6.8331    0.8820   15.3359 H   0  0  0  0  0  0  0  0  0  0  0  0
    6.2400   -0.7347   17.3354 H   0  0  0  0  0  0  0  0  0  0  0  0
    4.5981    2.3490   11.2292 H   0  0  0  0  0  0  0  0  0  0  0  0
    3.8383    3.8096    9.3966 H   0  0  0  0  0  0  0  0  0  0  0  0
    1.4559    4.4276    9.2120 H   0  0  0  0  0  0  0  0  0  0  0  0
    0.6121    2.2342   12.7963 H   0  0  0  0  0  0  0  0  0  0  0  0
   -0.3906    4.3031   12.8123 H   0  0  0  0  0  0  0  0  0  0  0  0
   -1.8505    5.8952   14.0050 H   0  0  0  0  0  0  0  0  0  0  0  0
   -4.1511    6.6958   14.4129 H   0  0  0  0  0  0  0  0  0  0  0  0
   -5.5274    4.4627   11.0337 H   0  0  0  0  0  0  0  0  0  0  0  0
   -3.2268    3.6621   10.6257 H   0  0  0  0  0  0  0  0  0  0  0  0
   -8.1235    6.2080   12.6194 H   0  0  0  0  0  0  0  0  0  0  0  0
   -8.4399    9.0642   16.3447 H   0  0  0  0  0  0  0  0  0  0  0  0
   -7.1006    7.9352   16.7423 H   0  0  0  0  0  0  0  0  0  0  0  0
   -6.7956    9.3525   15.6817 H   0  0  0  0  0  0  0  0  0  0  0  0
   -0.1075   -0.0318   13.6408 H   0  0  0  0  0  0  0  0  0  0  0  0
   -2.6909    1.2310   11.8726 H   0  0  0  0  0  0  0  0  0  0  0  0
   -1.5443    1.3652   13.2487 H   0  0  0  0  0  0  0  0  0  0  0  0
   -1.2146    0.2087   11.9144 H   0  0  0  0  0  0  0  0  0  0  0  0
  1  2  1  0  0  0  0
  2  3  1  0  0  0  0
  3  4  2  0  0  0  0
  3 40  1  0  0  0  0
  4  5  1  0  0  0  0
  5  6  2  0  0  0  0
  6  7  1  0  0  0  0
  6 39  1  0  0  0  0
  7  8  1  0  0  0  0
  8  9  2  0  0  0  0
  8 16  1  0  0  0  0
  9 10  1  0  0  0  0
 10 11  2  0  0  0  0
 10 17  1  0  0  0  0
 11 12  1  0  0  0  0
 12 13  1  0  0  0  0
 12 16  1  0  0  0  0
 13 14  2  0  0  0  0
 14 15  1  0  0  0  0
 15 16  2  0  0  0  0
 17 18  2  0  0  0  0
 17 22  1  0  0  0  0
 18 19  1  0  0  0  0
 19 20  2  0  0  0  0
 20 21  1  0  0  0  0
 21 22  2  0  0  0  0
 21 23  1  0  0  0  0
 23 24  2  0  0  0  0
 23 25  1  0  0  0  0
 25 26  1  0  0  0  0
 26 27  2  0  0  0  0
 26 31  1  0  0  0  0
 27 28  1  0  0  0  0
 28 29  2  0  0  0  0
 29 30  1  0  0  0  0
 29 32  1  0  0  0  0
 30 31  2  0  0  0  0
 32 33  1  0  0  0  0
 32 34  2  0  0  0  0
 34 35  1  0  0  0  0
 35 36  2  0  0  0  0
 35 37  2  0  0  0  0
 35 38  1  0  0  0  0
 39 40  2  0  0  0  0
 40 41  1  0  0  0  0
 41 42  1  0  0  0  0
  1 43  1  0  0  0  0
  1 44  1  0  0  0  0
  1 45  1  0  0  0  0
  4 46  1  0  0  0  0
  5 47  1  0  0  0  0
  7 48  1  0  0  0  0
 11 49  1  0  0  0  0
 13 50  1  0  0  0  0
 14 51  1  0  0  0  0
 18 52  1  0  0  0  0
 19 53  1  0  0  0  0
 20 54  1  0  0  0  0
 22 55  1  0  0  0  0
 25 56  1  0  0  0  0
 27 57  1  0  0  0  0
 28 58  1  0  0  0  0
 30 59  1  0  0  0  0
 31 60  1  0  0  0  0
 33 61  1  0  0  0  0
 38 62  1  0  0  0  0
 38 63  1  0  0  0  0
 38 64  1  0  0  0  0
 39 65  1  0  0  0  0
 42 66  1  0  0  0  0
 42 67  1  0  0  0  0
 42 68  1  0  0  0  0
M  END
> <IC50[nM]>
2.2

$$$$
CHEMBL3265000
  -OEChem-05192314333D
 Structure written by MMmdl.
 68 72  0     0  0  0  0  0  0999 V2000
   -4.2555   -3.1029   13.5707 C   0  0  0  0  0  0  0  0  0  0  0  0
   -3.8740   -2.3535   14.7166 O   0  0  0  0  0  0  0  0  0  0  0  0
   -2.5261   -2.1057   14.8053 C   0  0  0  0  0  0  0  0  0  0  0  0
   -1.7497   -2.8673   15.6804 C   0  0  0  0  0  0  0  0  0  0  0  0
   -0.3863   -2.6106   15.8150 C   0  0  0  0  0  0  0  0  0  0  0  0
    0.2220   -1.5829   15.0890 C   0  0  0  0  0  0  0  0  0  0  0  0
    1.5930   -1.3491   15.3060 N   0  0  0  0  0  0  0  0  0  0  0  0
    2.5452   -0.4689   14.7536 C   0  0  0  0  0  0  0  0  0  0  0  0
    2.2178    0.3551   13.7190 N   0  0  0  0  0  0  0  0  0  0  0  0
    3.1227    1.2406   13.2181 C   0  0  0  0  0  0  0  0  0  0  0  0
    4.4207    1.3039   13.7175 C   0  0  0  0  0  0  0  0  0  0  0  0
    4.7482    0.4921   14.7654 N   0  0  0  0  0  0  0  0  0  0  0  0
    5.8898    0.3836   15.5035 C   0  0  0  0  0  0  0  0  0  0  0  0
    5.5715   -0.5089   16.5177 C   0  0  0  0  0  0  0  0  0  0  0  0
    4.3818   -1.0543   16.3920 N   0  0  0  0  0  0  0  0  0  0  0  0
    3.8330   -0.4170   15.3252 C   0  0  0  0  0  0  0  0  0  0  0  0
    2.6564    2.1560   12.1340 C   0  0  0  0  0  0  0  0  0  0  0  0
    3.5566    2.6280   11.1666 C   0  0  0  0  0  0  0  0  0  0  0  0
    3.1294    3.4499   10.1277 C   0  0  0  0  0  0  0  0  0  0  0  0
    1.7879    3.8078   10.0318 C   0  0  0  0  0  0  0  0  0  0  0  0
    0.8660    3.3707   10.9895 C   0  0  0  0  0  0  0  0  0  0  0  0
    1.3140    2.5576   12.0419 C   0  0  0  0  0  0  0  0  0  0  0  0
   -0.5783    3.7648   10.8956 C   0  0  0  0  0  0  0  0  0  0  0  0
   -1.2780    3.6594    9.8925 O   0  0  0  0  0  0  0  0  0  0  0  0
   -1.0343    4.2553   12.0485 N   0  0  0  0  0  0  0  0  0  0  0  0
   -2.3943    4.7285   12.2897 C   0  0  0  0  0  0  0  0  0  0  0  0
   -2.6544    5.5820   13.3553 C   0  0  0  0  0  0  0  0  0  0  0  0
   -3.9490    6.0325   13.5849 C   0  0  0  0  0  0  0  0  0  0  0  0
   -4.9835    5.6294   12.7489 C   0  0  0  0  0  0  0  0  0  0  0  0
   -4.7235    4.7759   11.6833 C   0  0  0  0  0  0  0  0  0  0  0  0
   -3.4289    4.3254   11.4537 C   0  0  0  0  0  0  0  0  0  0  0  0
   -6.3808    6.1155   12.9967 C   0  0  0  0  0  0  0  0  0  0  0  0
   -7.3335    5.7936   12.2928 O   0  0  0  0  0  0  0  0  0  0  0  0
   -6.3969    6.9226   14.0705 N   0  0  0  0  0  0  0  0  0  0  0  0
   -7.9316    7.5992   14.5333 S   0  0  0  0  0  0  0  0  0  0  0  0
   -8.7871    6.4947   14.9809 O   0  0  0  0  0  0  0  0  0  0  0  0
   -8.3522    8.5161   13.4681 O   0  0  0  0  0  0  0  0  0  0  0  0
   -7.5285    8.5816   15.9619 C   0  0  0  0  0  0  0  0  0  0  0  0
   -0.5664   -0.8256   14.2115 C   0  0  0  0  0  0  0  0  0  0  0  0
   -1.9389   -1.0760   14.0580 C   0  0  0  0  0  0  0  0  0  0  0  0
   -2.6991   -0.3052   13.2021 O   0  0  0  0  0  0  0  0  0  0  0  0
   -2.0020    0.6746   12.5251 C   0  0  0  0  0  0  0  0  0  0  0  0
   -5.3448   -3.2555   13.5777 H   0  0  0  0  0  0  0  0  0  0  0  0
   -3.9681   -2.5543   12.6616 H   0  0  0  0  0  0  0  0  0  0  0  0
   -3.7486   -4.0790   13.5856 H   0  0  0  0  0  0  0  0  0  0  0  0
   -2.2073   -3.6587   16.2555 H   0  0  0  0  0  0  0  0  0  0  0  0
    0.2066   -3.2125   16.4877 H   0  0  0  0  0  0  0  0  0  0  0  0
    1.9791   -1.9422   16.0125 H   0  0  0  0  0  0  0  0  0  0  0  0
    5.1484    1.9765   13.2880 H   0  0  0  0  0  0  0  0  0  0  0  0
    6.8331    0.8820   15.3359 H   0  0  0  0  0  0  0  0  0  0  0  0
    6.2400   -0.7347   17.3354 H   0  0  0  0  0  0  0  0  0  0  0  0
    4.5981    2.3490   11.2292 H   0  0  0  0  0  0  0  0  0  0  0  0
    3.8383    3.8096    9.3966 H   0  0  0  0  0  0  0  0  0  0  0  0
    1.4559    4.4276    9.2120 H   0  0  0  0  0  0  0  0  0  0  0  0
    0.6121    2.2342   12.7963 H   0  0  0  0  0  0  0  0  0  0  0  0
   -2.1538    3.9747   10.0822 H   0  0  0  0  0  0  0  0  0  0  0  0
   -1.8505    5.8952   14.0050 H   0  0  0  0  0  0  0  0  0  0  0  0
   -4.1511    6.6958   14.4129 H   0  0  0  0  0  0  0  0  0  0  0  0
   -5.5274    4.4627   11.0337 H   0  0  0  0  0  0  0  0  0  0  0  0
   -3.2268    3.6621   10.6257 H   0  0  0  0  0  0  0  0  0  0  0  0
   -5.5621    7.1259   14.5822 H   0  0  0  0  0  0  0  0  0  0  0  0
   -8.4399    9.0642   16.3447 H   0  0  0  0  0  0  0  0  0  0  0  0
   -7.1006    7.9352   16.7423 H   0  0  0  0  0  0  0  0  0  0  0  0
   -6.7956    9.3525   15.6817 H   0  0  0  0  0  0  0  0  0  0  0  0
   -0.1075   -0.0318   13.6408 H   0  0  0  0  0  0  0  0  0  0  0  0
   -2.6909    1.2310   11.8726 H   0  0  0  0  0  0  0  0  0  0  0  0
   -1.5443    1.3652   13.2487 H   0  0  0  0  0  0  0  0  0  0  0  0
   -1.2146    0.2087   11.9144 H   0  0  0  0  0  0  0  0  0  0  0  0
  1  2  1  0  0  0  0
  2  3  1  0  0  0  0
  3  4  2  0  0  0  0
  3 40  1  0  0  0  0
  4  5  1  0  0  0  0
  5  6  2  0  0  0  0
  6  7  1  0  0  0  0
  6 39  1  0  0  0  0
  7  8  1  0  0  0  0
  8  9  2  0  0  0  0
  8 16  1  0  0  0  0
  9 10  1  0  0  0  0
 10 11  2  0  0  0  0
 10 17  1  0  0  0  0
 11 12  1  0  0  0  0
 12 13  1  0  0  0  0
 12 16  1  0  0  0  0
 13 14  2  0  0  0  0
 14 15  1  0  0  0  0
 15 16  2  0  0  0  0
 17 18  2  0  0  0  0
 17 22  1  0  0  0  0
 18 19  1  0  0  0  0
 19 20  2  0  0  0  0
 20 21  1  0  0  0  0
 21 22  2  0  0  0  0
 21 23  1  0  0  0  0
 23 24  1  0  0  0  0
 23 25  2  0  0  0  0
 25 26  1  0  0  0  0
 26 27  2  0  0  0  0
 26 31  1  0  0  0  0
 27 28  1  0  0  0  0
 28 29  2  0  0  0  0
 29 30  1  0  0  0  0
 29 32  1  0  0  0  0
 30 31  2  0  0  0  0
 32 33  2  0  0  0  0
 32 34  1  0  0  0  0
 34 35  1  0  0  0  0
 35 36  2  0  0  0  0
 35 37  2  0  0  0  0
 35 38  1  0  0  0  0
 39 40  2  0  0  0  0
 40 41  1  0  0  0  0
 41 42  1  0  0  0  0
  1 43  1  0  0  0  0
  1 44  1  0  0  0  0
  1 45  1  0  0  0  0
  4 46  1  0  0  0  0
  5 47  1  0  0  0  0
  7 48  1  0  0  0  0
 11 49  1  0  0  0  0
 13 50  1  0  0  0  0
 14 51  1  0  0  0  0
 18 52  1  0  0  0  0
 19 53  1  0  0  0  0
 20 54  1  0  0  0  0
 22 55  1  0  0  0  0
 24 56  1  0  0  0  0
 27 57  1  0  0  0  0
 28 58  1  0  0  0  0
 30 59  1  0  0  0  0
 31 60  1  0  0  0  0
 34 61  1  0  0  0  0
 38 62  1  0  0  0  0
 38 63  1  0  0  0  0
 38 64  1  0  0  0  0
 39 65  1  0  0  0  0
 42 66  1  0  0  0  0
 42 67  1  0  0  0  0
 42 68  1  0  0  0  0
M  END
> <IC50[nM]>
2.2

$$$$
CHEMBL3265000
  -OEChem-05192314333D
 Structure written by MMmdl.
 68 72  0     0  0  0  0  0  0999 V2000
   -4.2555   -3.1029   13.5707 C   0  0  0  0  0  0  0  0  0  0  0  0
   -3.8740   -2.3535   14.7166 O   0  0  0  0  0  0  0  0  0  0  0  0
   -2.5261   -2.1057   14.8053 C   0  0  0  0  0  0  0  0  0  0  0  0
   -1.7497   -2.8673   15.6804 C   0  0  0  0  0  0  0  0  0  0  0  0
   -0.3863   -2.6106   15.8150 C   0  0  0  0  0  0  0  0  0  0  0  0
    0.2220   -1.5829   15.0890 C   0  0  0  0  0  0  0  0  0  0  0  0
    1.5930   -1.3491   15.3060 N   0  0  0  0  0  0  0  0  0  0  0  0
    2.5452   -0.4689   14.7536 C   0  0  0  0  0  0  0  0  0  0  0  0
    2.2178    0.3551   13.7190 N   0  0  0  0  0  0  0  0  0  0  0  0
    3.1227    1.2406   13.2181 C   0  0  0  0  0  0  0  0  0  0  0  0
    4.4207    1.3039   13.7175 C   0  0  0  0  0  0  0  0  0  0  0  0
    4.7482    0.4921   14.7654 N   0  0  0  0  0  0  0  0  0  0  0  0
    5.8898    0.3836   15.5035 C   0  0  0  0  0  0  0  0  0  0  0  0
    5.5715   -0.5089   16.5177 C   0  0  0  0  0  0  0  0  0  0  0  0
    4.3818   -1.0543   16.3920 N   0  0  0  0  0  0  0  0  0  0  0  0
    3.8330   -0.4170   15.3252 C   0  0  0  0  0  0  0  0  0  0  0  0
    2.6564    2.1560   12.1340 C   0  0  0  0  0  0  0  0  0  0  0  0
    3.5566    2.6280   11.1666 C   0  0  0  0  0  0  0  0  0  0  0  0
    3.1294    3.4499   10.1277 C   0  0  0  0  0  0  0  0  0  0  0  0
    1.7879    3.8078   10.0318 C   0  0  0  0  0  0  0  0  0  0  0  0
    0.8660    3.3707   10.9895 C   0  0  0  0  0  0  0  0  0  0  0  0
    1.3140    2.5576   12.0419 C   0  0  0  0  0  0  0  0  0  0  0  0
   -0.5783    3.7648   10.8956 C   0  0  0  0  0  0  0  0  0  0  0  0
   -1.2780    3.6594    9.8925 O   0  0  0  0  0  0  0  0  0  0  0  0
   -1.0343    4.2553   12.0485 N   0  0  0  0  0  0  0  0  0  0  0  0
   -2.3943    4.7285   12.2897 C   0  0  0  0  0  0  0  0  0  0  0  0
   -2.6544    5.5820   13.3553 C   0  0  0  0  0  0  0  0  0  0  0  0
   -3.9490    6.0325   13.5849 C   0  0  0  0  0  0  0  0  0  0  0  0
   -4.9835    5.6294   12.7489 C   0  0  0  0  0  0  0  0  0  0  0  0
   -4.7235    4.7759   11.6833 C   0  0  0  0  0  0  0  0  0  0  0  0
   -3.4289    4.3254   11.4537 C   0  0  0  0  0  0  0  0  0  0  0  0
   -6.3808    6.1155   12.9967 C   0  0  0  0  0  0  0  0  0  0  0  0
   -7.3335    5.7936   12.2928 O   0  0  0  0  0  0  0  0  0  0  0  0
   -6.3969    6.9226   14.0705 N   0  0  0  0  0  0  0  0  0  0  0  0
   -7.9316    7.5992   14.5333 S   0  0  0  0  0  0  0  0  0  0  0  0
   -8.7871    6.4947   14.9809 O   0  0  0  0  0  0  0  0  0  0  0  0
   -8.3522    8.5161   13.4681 O   0  0  0  0  0  0  0  0  0  0  0  0
   -7.5285    8.5816   15.9619 C   0  0  0  0  0  0  0  0  0  0  0  0
   -0.5664   -0.8256   14.2115 C   0  0  0  0  0  0  0  0  0  0  0  0
   -1.9389   -1.0760   14.0580 C   0  0  0  0  0  0  0  0  0  0  0  0
   -2.6991   -0.3052   13.2021 O   0  0  0  0  0  0  0  0  0  0  0  0
   -2.0020    0.6746   12.5251 C   0  0  0  0  0  0  0  0  0  0  0  0
   -5.3448   -3.2555   13.5777 H   0  0  0  0  0  0  0  0  0  0  0  0
   -3.9681   -2.5543   12.6616 H   0  0  0  0  0  0  0  0  0  0  0  0
   -3.7486   -4.0790   13.5856 H   0  0  0  0  0  0  0  0  0  0  0  0
   -2.2073   -3.6587   16.2555 H   0  0  0  0  0  0  0  0  0  0  0  0
    0.2066   -3.2125   16.4877 H   0  0  0  0  0  0  0  0  0  0  0  0
    1.9791   -1.9422   16.0125 H   0  0  0  0  0  0  0  0  0  0  0  0
    5.1484    1.9765   13.2880 H   0  0  0  0  0  0  0  0  0  0  0  0
    6.8331    0.8820   15.3359 H   0  0  0  0  0  0  0  0  0  0  0  0
    6.2400   -0.7347   17.3354 H   0  0  0  0  0  0  0  0  0  0  0  0
    4.5981    2.3490   11.2292 H   0  0  0  0  0  0  0  0  0  0  0  0
    3.8383    3.8096    9.3966 H   0  0  0  0  0  0  0  0  0  0  0  0
    1.4559    4.4276    9.2120 H   0  0  0  0  0  0  0  0  0  0  0  0
    0.6121    2.2342   12.7963 H   0  0  0  0  0  0  0  0  0  0  0  0
   -2.1538    3.9747   10.0822 H   0  0  0  0  0  0  0  0  0  0  0  0
   -1.8505    5.8952   14.0050 H   0  0  0  0  0  0  0  0  0  0  0  0
   -4.1511    6.6958   14.4129 H   0  0  0  0  0  0  0  0  0  0  0  0
   -5.5274    4.4627   11.0337 H   0  0  0  0  0  0  0  0  0  0  0  0
   -3.2268    3.6621   10.6257 H   0  0  0  0  0  0  0  0  0  0  0  0
   -8.1235    6.2080   12.6194 H   0  0  0  0  0  0  0  0  0  0  0  0
   -8.4399    9.0642   16.3447 H   0  0  0  0  0  0  0  0  0  0  0  0
   -7.1006    7.9352   16.7423 H   0  0  0  0  0  0  0  0  0  0  0  0
   -6.7956    9.3525   15.6817 H   0  0  0  0  0  0  0  0  0  0  0  0
   -0.1075   -0.0318   13.6408 H   0  0  0  0  0  0  0  0  0  0  0  0
   -2.6909    1.2310   11.8726 H   0  0  0  0  0  0  0  0  0  0  0  0
   -1.5443    1.3652   13.2487 H   0  0  0  0  0  0  0  0  0  0  0  0
   -1.2146    0.2087   11.9144 H   0  0  0  0  0  0  0  0  0  0  0  0
  1  2  1  0  0  0  0
  2  3  1  0  0  0  0
  3  4  2  0  0  0  0
  3 40  1  0  0  0  0
  4  5  1  0  0  0  0
  5  6  2  0  0  0  0
  6  7  1  0  0  0  0
  6 39  1  0  0  0  0
  7  8  1  0  0  0  0
  8  9  2  0  0  0  0
  8 16  1  0  0  0  0
  9 10  1  0  0  0  0
 10 11  2  0  0  0  0
 10 17  1  0  0  0  0
 11 12  1  0  0  0  0
 12 13  1  0  0  0  0
 12 16  1  0  0  0  0
 13 14  2  0  0  0  0
 14 15  1  0  0  0  0
 15 16  2  0  0  0  0
 17 18  2  0  0  0  0
 17 22  1  0  0  0  0
 18 19  1  0  0  0  0
 19 20  2  0  0  0  0
 20 21  1  0  0  0  0
 21 22  2  0  0  0  0
 21 23  1  0  0  0  0
 23 24  1  0  0  0  0
 23 25  2  0  0  0  0
 25 26  1  0  0  0  0
 26 27  2  0  0  0  0
 26 31  1  0  0  0  0
 27 28  1  0  0  0  0
 28 29  2  0  0  0  0
 29 30  1  0  0  0  0
 29 32  1  0  0  0  0
 30 31  2  0  0  0  0
 32 33  1  0  0  0  0
 32 34  2  0  0  0  0
 34 35  1  0  0  0  0
 35 36  2  0  0  0  0
 35 37  2  0  0  0  0
 35 38  1  0  0  0  0
 39 40  2  0  0  0  0
 40 41  1  0  0  0  0
 41 42  1  0  0  0  0
  1 43  1  0  0  0  0
  1 44  1  0  0  0  0
  1 45  1  0  0  0  0
  4 46  1  0  0  0  0
  5 47  1  0  0  0  0
  7 48  1  0  0  0  0
 11 49  1  0  0  0  0
 13 50  1  0  0  0  0
 14 51  1  0  0  0  0
 18 52  1  0  0  0  0
 19 53  1  0  0  0  0
 20 54  1  0  0  0  0
 22 55  1  0  0  0  0
 24 56  1  0  0  0  0
 27 57  1  0  0  0  0
 28 58  1  0  0  0  0
 30 59  1  0  0  0  0
 31 60  1  0  0  0  0
 33 61  1  0  0  0  0
 38 62  1  0  0  0  0
 38 63  1  0  0  0  0
 38 64  1  0  0  0  0
 39 65  1  0  0  0  0
 42 66  1  0  0  0  0
 42 67  1  0  0  0  0
 42 68  1  0  0  0  0
M  END
> <IC50[nM]>
2.2

$$$$
CHEMBL3265000
  -OEChem-05192314333D
 Structure written by MMmdl.
 68 72  0     0  0  0  0  0  0999 V2000
   -4.2555   -3.1029   13.5707 C   0  0  0  0  0  0  0  0  0  0  0  0
   -3.8740   -2.3535   14.7166 O   0  0  0  0  0  0  0  0  0  0  0  0
   -2.5261   -2.1057   14.8053 C   0  0  0  0  0  0  0  0  0  0  0  0
   -1.7497   -2.8673   15.6804 C   0  0  0  0  0  0  0  0  0  0  0  0
   -0.3863   -2.6106   15.8150 C   0  0  0  0  0  0  0  0  0  0  0  0
    0.2220   -1.5829   15.0890 C   0  0  0  0  0  0  0  0  0  0  0  0
    1.5930   -1.3491   15.3060 N   0  0  0  0  0  0  0  0  0  0  0  0
    2.5452   -0.4689   14.7536 C   0  0  0  0  0  0  0  0  0  0  0  0
    2.2178    0.3551   13.7190 N   0  0  0  0  0  0  0  0  0  0  0  0
    3.1227    1.2406   13.2181 C   0  0  0  0  0  0  0  0  0  0  0  0
    4.4207    1.3039   13.7175 C   0  0  0  0  0  0  0  0  0  0  0  0
    4.7482    0.4921   14.7654 N   0  0  0  0  0  0  0  0  0  0  0  0
    5.8898    0.3836   15.5035 C   0  0  0  0  0  0  0  0  0  0  0  0
    5.5715   -0.5089   16.5177 C   0  0  0  0  0  0  0  0  0  0  0  0
    4.3818   -1.0543   16.3920 N   0  0  0  0  0  0  0  0  0  0  0  0
    3.8330   -0.4170   15.3252 C   0  0  0  0  0  0  0  0  0  0  0  0
    2.6564    2.1560   12.1340 C   0  0  0  0  0  0  0  0  0  0  0  0
    3.5566    2.6280   11.1666 C   0  0  0  0  0  0  0  0  0  0  0  0
    3.1294    3.4499   10.1277 C   0  0  0  0  0  0  0  0  0  0  0  0
    1.7879    3.8078   10.0318 C   0  0  0  0  0  0  0  0  0  0  0  0
    0.8660    3.3707   10.9895 C   0  0  0  0  0  0  0  0  0  0  0  0
    1.3140    2.5576   12.0419 C   0  0  0  0  0  0  0  0  0  0  0  0
   -0.5783    3.7648   10.8956 C   0  0  0  0  0  0  0  0  0  0  0  0
   -1.2780    3.6594    9.8925 O   0  0  0  0  0  0  0  0  0  0  0  0
   -1.0343    4.2553   12.0485 N   0  0  0  0  0  0  0  0  0  0  0  0
   -2.3943    4.7285   12.2897 C   0  0  0  0  0  0  0  0  0  0  0  0
   -2.6544    5.5820   13.3553 C   0  0  0  0  0  0  0  0  0  0  0  0
   -3.9490    6.0325   13.5849 C   0  0  0  0  0  0  0  0  0  0  0  0
   -4.9835    5.6294   12.7489 C   0  0  0  0  0  0  0  0  0  0  0  0
   -4.7235    4.7759   11.6833 C   0  0  0  0  0  0  0  0  0  0  0  0
   -3.4289    4.3254   11.4537 C   0  0  0  0  0  0  0  0  0  0  0  0
   -6.3808    6.1155   12.9967 C   0  0  0  0  0  0  0  0  0  0  0  0
   -7.3335    5.7936   12.2928 O   0  0  0  0  0  0  0  0  0  0  0  0
   -6.3969    6.9226   14.0705 N   0  0  0  0  0  0  0  0  0  0  0  0
   -7.9316    7.5992   14.5333 S   0  0  0  0  0  0  0  0  0  0  0  0
   -8.7871    6.4947   14.9809 O   0  0  0  0  0  0  0  0  0  0  0  0
   -8.3522    8.5161   13.4681 O   0  0  0  0  0  0  0  0  0  0  0  0
   -7.5285    8.5816   15.9619 C   0  0  0  0  0  0  0  0  0  0  0  0
   -0.5664   -0.8256   14.2115 C   0  0  0  0  0  0  0  0  0  0  0  0
   -1.9389   -1.0760   14.0580 C   0  0  0  0  0  0  0  0  0  0  0  0
   -2.6991   -0.3052   13.2021 O   0  0  0  0  0  0  0  0  0  0  0  0
   -2.0020    0.6746   12.5251 C   0  0  0  0  0  0  0  0  0  0  0  0
   -5.3448   -3.2555   13.5777 H   0  0  0  0  0  0  0  0  0  0  0  0
   -3.9681   -2.5543   12.6616 H   0  0  0  0  0  0  0  0  0  0  0  0
   -3.7486   -4.0790   13.5856 H   0  0  0  0  0  0  0  0  0  0  0  0
   -2.2073   -3.6587   16.2555 H   0  0  0  0  0  0  0  0  0  0  0  0
    0.2066   -3.2125   16.4877 H   0  0  0  0  0  0  0  0  0  0  0  0
    1.3010    0.3089   13.3224 H   0  0  0  0  0  0  0  0  0  0  0  0
    5.1484    1.9765   13.2880 H   0  0  0  0  0  0  0  0  0  0  0  0
    6.8331    0.8820   15.3359 H   0  0  0  0  0  0  0  0  0  0  0  0
    6.2400   -0.7347   17.3354 H   0  0  0  0  0  0  0  0  0  0  0  0
    4.5981    2.3490   11.2292 H   0  0  0  0  0  0  0  0  0  0  0  0
    3.8383    3.8096    9.3966 H   0  0  0  0  0  0  0  0  0  0  0  0
    1.4559    4.4276    9.2120 H   0  0  0  0  0  0  0  0  0  0  0  0
    0.6121    2.2342   12.7963 H   0  0  0  0  0  0  0  0  0  0  0  0
   -0.3906    4.3031   12.8123 H   0  0  0  0  0  0  0  0  0  0  0  0
   -1.8505    5.8952   14.0050 H   0  0  0  0  0  0  0  0  0  0  0  0
   -4.1511    6.6958   14.4129 H   0  0  0  0  0  0  0  0  0  0  0  0
   -5.5274    4.4627   11.0337 H   0  0  0  0  0  0  0  0  0  0  0  0
   -3.2268    3.6621   10.6257 H   0  0  0  0  0  0  0  0  0  0  0  0
   -5.5621    7.1259   14.5822 H   0  0  0  0  0  0  0  0  0  0  0  0
   -8.4399    9.0642   16.3447 H   0  0  0  0  0  0  0  0  0  0  0  0
   -7.1006    7.9352   16.7423 H   0  0  0  0  0  0  0  0  0  0  0  0
   -6.7956    9.3525   15.6817 H   0  0  0  0  0  0  0  0  0  0  0  0
   -0.1075   -0.0318   13.6408 H   0  0  0  0  0  0  0  0  0  0  0  0
   -2.6909    1.2310   11.8726 H   0  0  0  0  0  0  0  0  0  0  0  0
   -1.5443    1.3652   13.2487 H   0  0  0  0  0  0  0  0  0  0  0  0
   -1.2146    0.2087   11.9144 H   0  0  0  0  0  0  0  0  0  0  0  0
  1  2  1  0  0  0  0
  2  3  1  0  0  0  0
  3  4  2  0  0  0  0
  3 40  1  0  0  0  0
  4  5  1  0  0  0  0
  5  6  2  0  0  0  0
  6  7  1  0  0  0  0
  6 39  1  0  0  0  0
  7  8  2  0  0  0  0
  8  9  1  0  0  0  0
  8 16  1  0  0  0  0
  9 10  1  0  0  0  0
 10 11  2  0  0  0  0
 10 17  1  0  0  0  0
 11 12  1  0  0  0  0
 12 13  1  0  0  0  0
 12 16  1  0  0  0  0
 13 14  2  0  0  0  0
 14 15  1  0  0  0  0
 15 16  2  0  0  0  0
 17 18  2  0  0  0  0
 17 22  1  0  0  0  0
 18 19  1  0  0  0  0
 19 20  2  0  0  0  0
 20 21  1  0  0  0  0
 21 22  2  0  0  0  0
 21 23  1  0  0  0  0
 23 24  2  0  0  0  0
 23 25  1  0  0  0  0
 25 26  1  0  0  0  0
 26 27  2  0  0  0  0
 26 31  1  0  0  0  0
 27 28  1  0  0  0  0
 28 29  2  0  0  0  0
 29 30  1  0  0  0  0
 29 32  1  0  0  0  0
 30 31  2  0  0  0  0
 32 33  2  0  0  0  0
 32 34  1  0  0  0  0
 34 35  1  0  0  0  0
 35 36  2  0  0  0  0
 35 37  2  0  0  0  0
 35 38  1  0  0  0  0
 39 40  2  0  0  0  0
 40 41  1  0  0  0  0
 41 42  1  0  0  0  0
  1 43  1  0  0  0  0
  1 44  1  0  0  0  0
  1 45  1  0  0  0  0
  4 46  1  0  0  0  0
  5 47  1  0  0  0  0
  9 48  1  0  0  0  0
 11 49  1  0  0  0  0
 13 50  1  0  0  0  0
 14 51  1  0  0  0  0
 18 52  1  0  0  0  0
 19 53  1  0  0  0  0
 20 54  1  0  0  0  0
 22 55  1  0  0  0  0
 25 56  1  0  0  0  0
 27 57  1  0  0  0  0
 28 58  1  0  0  0  0
 30 59  1  0  0  0  0
 31 60  1  0  0  0  0
 34 61  1  0  0  0  0
 38 62  1  0  0  0  0
 38 63  1  0  0  0  0
 38 64  1  0  0  0  0
 39 65  1  0  0  0  0
 42 66  1  0  0  0  0
 42 67  1  0  0  0  0
 42 68  1  0  0  0  0
M  END
> <IC50[nM]>
2.2

$$$$
CHEMBL3265000
  -OEChem-05192314333D
 Structure written by MMmdl.
 68 72  0     0  0  0  0  0  0999 V2000
   -4.2555   -3.1029   13.5707 C   0  0  0  0  0  0  0  0  0  0  0  0
   -3.8740   -2.3535   14.7166 O   0  0  0  0  0  0  0  0  0  0  0  0
   -2.5261   -2.1057   14.8053 C   0  0  0  0  0  0  0  0  0  0  0  0
   -1.7497   -2.8673   15.6804 C   0  0  0  0  0  0  0  0  0  0  0  0
   -0.3863   -2.6106   15.8150 C   0  0  0  0  0  0  0  0  0  0  0  0
    0.2220   -1.5829   15.0890 C   0  0  0  0  0  0  0  0  0  0  0  0
    1.5930   -1.3491   15.3060 N   0  0  0  0  0  0  0  0  0  0  0  0
    2.5452   -0.4689   14.7536 C   0  0  0  0  0  0  0  0  0  0  0  0
    2.2178    0.3551   13.7190 N   0  0  0  0  0  0  0  0  0  0  0  0
    3.1227    1.2406   13.2181 C   0  0  0  0  0  0  0  0  0  0  0  0
    4.4207    1.3039   13.7175 C   0  0  0  0  0  0  0  0  0  0  0  0
    4.7482    0.4921   14.7654 N   0  0  0  0  0  0  0  0  0  0  0  0
    5.8898    0.3836   15.5035 C   0  0  0  0  0  0  0  0  0  0  0  0
    5.5715   -0.5089   16.5177 C   0  0  0  0  0  0  0  0  0  0  0  0
    4.3818   -1.0543   16.3920 N   0  0  0  0  0  0  0  0  0  0  0  0
    3.8330   -0.4170   15.3252 C   0  0  0  0  0  0  0  0  0  0  0  0
    2.6564    2.1560   12.1340 C   0  0  0  0  0  0  0  0  0  0  0  0
    3.5566    2.6280   11.1666 C   0  0  0  0  0  0  0  0  0  0  0  0
    3.1294    3.4499   10.1277 C   0  0  0  0  0  0  0  0  0  0  0  0
    1.7879    3.8078   10.0318 C   0  0  0  0  0  0  0  0  0  0  0  0
    0.8660    3.3707   10.9895 C   0  0  0  0  0  0  0  0  0  0  0  0
    1.3140    2.5576   12.0419 C   0  0  0  0  0  0  0  0  0  0  0  0
   -0.5783    3.7648   10.8956 C   0  0  0  0  0  0  0  0  0  0  0  0
   -1.2780    3.6594    9.8925 O   0  0  0  0  0  0  0  0  0  0  0  0
   -1.0343    4.2553   12.0485 N   0  0  0  0  0  0  0  0  0  0  0  0
   -2.3943    4.7285   12.2897 C   0  0  0  0  0  0  0  0  0  0  0  0
   -2.6544    5.5820   13.3553 C   0  0  0  0  0  0  0  0  0  0  0  0
   -3.9490    6.0325   13.5849 C   0  0  0  0  0  0  0  0  0  0  0  0
   -4.9835    5.6294   12.7489 C   0  0  0  0  0  0  0  0  0  0  0  0
   -4.7235    4.7759   11.6833 C   0  0  0  0  0  0  0  0  0  0  0  0
   -3.4289    4.3254   11.4537 C   0  0  0  0  0  0  0  0  0  0  0  0
   -6.3808    6.1155   12.9967 C   0  0  0  0  0  0  0  0  0  0  0  0
   -7.3335    5.7936   12.2928 O   0  0  0  0  0  0  0  0  0  0  0  0
   -6.3969    6.9226   14.0705 N   0  0  0  0  0  0  0  0  0  0  0  0
   -7.9316    7.5992   14.5333 S   0  0  0  0  0  0  0  0  0  0  0  0
   -8.7871    6.4947   14.9809 O   0  0  0  0  0  0  0  0  0  0  0  0
   -8.3522    8.5161   13.4681 O   0  0  0  0  0  0  0  0  0  0  0  0
   -7.5285    8.5816   15.9619 C   0  0  0  0  0  0  0  0  0  0  0  0
   -0.5664   -0.8256   14.2115 C   0  0  0  0  0  0  0  0  0  0  0  0
   -1.9389   -1.0760   14.0580 C   0  0  0  0  0  0  0  0  0  0  0  0
   -2.6991   -0.3052   13.2021 O   0  0  0  0  0  0  0  0  0  0  0  0
   -2.0020    0.6746   12.5251 C   0  0  0  0  0  0  0  0  0  0  0  0
   -5.3448   -3.2555   13.5777 H   0  0  0  0  0  0  0  0  0  0  0  0
   -3.9681   -2.5543   12.6616 H   0  0  0  0  0  0  0  0  0  0  0  0
   -3.7486   -4.0790   13.5856 H   0  0  0  0  0  0  0  0  0  0  0  0
   -2.2073   -3.6587   16.2555 H   0  0  0  0  0  0  0  0  0  0  0  0
    0.2066   -3.2125   16.4877 H   0  0  0  0  0  0  0  0  0  0  0  0
    1.3010    0.3089   13.3224 H   0  0  0  0  0  0  0  0  0  0  0  0
    5.1484    1.9765   13.2880 H   0  0  0  0  0  0  0  0  0  0  0  0
    6.8331    0.8820   15.3359 H   0  0  0  0  0  0  0  0  0  0  0  0
    6.2400   -0.7347   17.3354 H   0  0  0  0  0  0  0  0  0  0  0  0
    4.5981    2.3490   11.2292 H   0  0  0  0  0  0  0  0  0  0  0  0
    3.8383    3.8096    9.3966 H   0  0  0  0  0  0  0  0  0  0  0  0
    1.4559    4.4276    9.2120 H   0  0  0  0  0  0  0  0  0  0  0  0
    0.6121    2.2342   12.7963 H   0  0  0  0  0  0  0  0  0  0  0  0
   -0.3906    4.3031   12.8123 H   0  0  0  0  0  0  0  0  0  0  0  0
   -1.8505    5.8952   14.0050 H   0  0  0  0  0  0  0  0  0  0  0  0
   -4.1511    6.6958   14.4129 H   0  0  0  0  0  0  0  0  0  0  0  0
   -5.5274    4.4627   11.0337 H   0  0  0  0  0  0  0  0  0  0  0  0
   -3.2268    3.6621   10.6257 H   0  0  0  0  0  0  0  0  0  0  0  0
   -8.1235    6.2080   12.6194 H   0  0  0  0  0  0  0  0  0  0  0  0
   -8.4399    9.0642   16.3447 H   0  0  0  0  0  0  0  0  0  0  0  0
   -7.1006    7.9352   16.7423 H   0  0  0  0  0  0  0  0  0  0  0  0
   -6.7956    9.3525   15.6817 H   0  0  0  0  0  0  0  0  0  0  0  0
   -0.1075   -0.0318   13.6408 H   0  0  0  0  0  0  0  0  0  0  0  0
   -2.6909    1.2310   11.8726 H   0  0  0  0  0  0  0  0  0  0  0  0
   -1.5443    1.3652   13.2487 H   0  0  0  0  0  0  0  0  0  0  0  0
   -1.2146    0.2087   11.9144 H   0  0  0  0  0  0  0  0  0  0  0  0
  1  2  1  0  0  0  0
  2  3  1  0  0  0  0
  3  4  2  0  0  0  0
  3 40  1  0  0  0  0
  4  5  1  0  0  0  0
  5  6  2  0  0  0  0
  6  7  1  0  0  0  0
  6 39  1  0  0  0  0
  7  8  2  0  0  0  0
  8  9  1  0  0  0  0
  8 16  1  0  0  0  0
  9 10  1  0  0  0  0
 10 11  2  0  0  0  0
 10 17  1  0  0  0  0
 11 12  1  0  0  0  0
 12 13  1  0  0  0  0
 12 16  1  0  0  0  0
 13 14  2  0  0  0  0
 14 15  1  0  0  0  0
 15 16  2  0  0  0  0
 17 18  2  0  0  0  0
 17 22  1  0  0  0  0
 18 19  1  0  0  0  0
 19 20  2  0  0  0  0
 20 21  1  0  0  0  0
 21 22  2  0  0  0  0
 21 23  1  0  0  0  0
 23 24  2  0  0  0  0
 23 25  1  0  0  0  0
 25 26  1  0  0  0  0
 26 27  2  0  0  0  0
 26 31  1  0  0  0  0
 27 28  1  0  0  0  0
 28 29  2  0  0  0  0
 29 30  1  0  0  0  0
 29 32  1  0  0  0  0
 30 31  2  0  0  0  0
 32 33  1  0  0  0  0
 32 34  2  0  0  0  0
 34 35  1  0  0  0  0
 35 36  2  0  0  0  0
 35 37  2  0  0  0  0
 35 38  1  0  0  0  0
 39 40  2  0  0  0  0
 40 41  1  0  0  0  0
 41 42  1  0  0  0  0
  1 43  1  0  0  0  0
  1 44  1  0  0  0  0
  1 45  1  0  0  0  0
  4 46  1  0  0  0  0
  5 47  1  0  0  0  0
  9 48  1  0  0  0  0
 11 49  1  0  0  0  0
 13 50  1  0  0  0  0
 14 51  1  0  0  0  0
 18 52  1  0  0  0  0
 19 53  1  0  0  0  0
 20 54  1  0  0  0  0
 22 55  1  0  0  0  0
 25 56  1  0  0  0  0
 27 57  1  0  0  0  0
 28 58  1  0  0  0  0
 30 59  1  0  0  0  0
 31 60  1  0  0  0  0
 33 61  1  0  0  0  0
 38 62  1  0  0  0  0
 38 63  1  0  0  0  0
 38 64  1  0  0  0  0
 39 65  1  0  0  0  0
 42 66  1  0  0  0  0
 42 67  1  0  0  0  0
 42 68  1  0  0  0  0
M  END
> <IC50[nM]>
2.2

$$$$
CHEMBL3265000
  -OEChem-05192314333D
 Structure written by MMmdl.
 68 72  0     0  0  0  0  0  0999 V2000
   -4.2555   -3.1029   13.5707 C   0  0  0  0  0  0  0  0  0  0  0  0
   -3.8740   -2.3535   14.7166 O   0  0  0  0  0  0  0  0  0  0  0  0
   -2.5261   -2.1057   14.8053 C   0  0  0  0  0  0  0  0  0  0  0  0
   -1.7497   -2.8673   15.6804 C   0  0  0  0  0  0  0  0  0  0  0  0
   -0.3863   -2.6106   15.8150 C   0  0  0  0  0  0  0  0  0  0  0  0
    0.2220   -1.5829   15.0890 C   0  0  0  0  0  0  0  0  0  0  0  0
    1.5930   -1.3491   15.3060 N   0  0  0  0  0  0  0  0  0  0  0  0
    2.5452   -0.4689   14.7536 C   0  0  0  0  0  0  0  0  0  0  0  0
    2.2178    0.3551   13.7190 N   0  0  0  0  0  0  0  0  0  0  0  0
    3.1227    1.2406   13.2181 C   0  0  0  0  0  0  0  0  0  0  0  0
    4.4207    1.3039   13.7175 C   0  0  0  0  0  0  0  0  0  0  0  0
    4.7482    0.4921   14.7654 N   0  0  0  0  0  0  0  0  0  0  0  0
    5.8898    0.3836   15.5035 C   0  0  0  0  0  0  0  0  0  0  0  0
    5.5715   -0.5089   16.5177 C   0  0  0  0  0  0  0  0  0  0  0  0
    4.3818   -1.0543   16.3920 N   0  0  0  0  0  0  0  0  0  0  0  0
    3.8330   -0.4170   15.3252 C   0  0  0  0  0  0  0  0  0  0  0  0
    2.6564    2.1560   12.1340 C   0  0  0  0  0  0  0  0  0  0  0  0
    3.5566    2.6280   11.1666 C   0  0  0  0  0  0  0  0  0  0  0  0
    3.1294    3.4499   10.1277 C   0  0  0  0  0  0  0  0  0  0  0  0
    1.7879    3.8078   10.0318 C   0  0  0  0  0  0  0  0  0  0  0  0
    0.8660    3.3707   10.9895 C   0  0  0  0  0  0  0  0  0  0  0  0
    1.3140    2.5576   12.0419 C   0  0  0  0  0  0  0  0  0  0  0  0
   -0.5783    3.7648   10.8956 C   0  0  0  0  0  0  0  0  0  0  0  0
   -1.2780    3.6594    9.8925 O   0  0  0  0  0  0  0  0  0  0  0  0
   -1.0343    4.2553   12.0485 N   0  0  0  0  0  0  0  0  0  0  0  0
   -2.3943    4.7285   12.2897 C   0  0  0  0  0  0  0  0  0  0  0  0
   -2.6544    5.5820   13.3553 C   0  0  0  0  0  0  0  0  0  0  0  0
   -3.9490    6.0325   13.5849 C   0  0  0  0  0  0  0  0  0  0  0  0
   -4.9835    5.6294   12.7489 C   0  0  0  0  0  0  0  0  0  0  0  0
   -4.7235    4.7759   11.6833 C   0  0  0  0  0  0  0  0  0  0  0  0
   -3.4289    4.3254   11.4537 C   0  0  0  0  0  0  0  0  0  0  0  0
   -6.3808    6.1155   12.9967 C   0  0  0  0  0  0  0  0  0  0  0  0
   -7.3335    5.7936   12.2928 O   0  0  0  0  0  0  0  0  0  0  0  0
   -6.3969    6.9226   14.0705 N   0  0  0  0  0  0  0  0  0  0  0  0
   -7.9316    7.5992   14.5333 S   0  0  0  0  0  0  0  0  0  0  0  0
   -8.7871    6.4947   14.9809 O   0  0  0  0  0  0  0  0  0  0  0  0
   -8.3522    8.5161   13.4681 O   0  0  0  0  0  0  0  0  0  0  0  0
   -7.5285    8.5816   15.9619 C   0  0  0  0  0  0  0  0  0  0  0  0
   -0.5664   -0.8256   14.2115 C   0  0  0  0  0  0  0  0  0  0  0  0
   -1.9389   -1.0760   14.0580 C   0  0  0  0  0  0  0  0  0  0  0  0
   -2.6991   -0.3052   13.2021 O   0  0  0  0  0  0  0  0  0  0  0  0
   -2.0020    0.6746   12.5251 C   0  0  0  0  0  0  0  0  0  0  0  0
   -5.3448   -3.2555   13.5777 H   0  0  0  0  0  0  0  0  0  0  0  0
   -3.9681   -2.5543   12.6616 H   0  0  0  0  0  0  0  0  0  0  0  0
   -3.7486   -4.0790   13.5856 H   0  0  0  0  0  0  0  0  0  0  0  0
   -2.2073   -3.6587   16.2555 H   0  0  0  0  0  0  0  0  0  0  0  0
    0.2066   -3.2125   16.4877 H   0  0  0  0  0  0  0  0  0  0  0  0
    1.3010    0.3089   13.3224 H   0  0  0  0  0  0  0  0  0  0  0  0
    5.1484    1.9765   13.2880 H   0  0  0  0  0  0  0  0  0  0  0  0
    6.8331    0.8820   15.3359 H   0  0  0  0  0  0  0  0  0  0  0  0
    6.2400   -0.7347   17.3354 H   0  0  0  0  0  0  0  0  0  0  0  0
    4.5981    2.3490   11.2292 H   0  0  0  0  0  0  0  0  0  0  0  0
    3.8383    3.8096    9.3966 H   0  0  0  0  0  0  0  0  0  0  0  0
    1.4559    4.4276    9.2120 H   0  0  0  0  0  0  0  0  0  0  0  0
    0.6121    2.2342   12.7963 H   0  0  0  0  0  0  0  0  0  0  0  0
   -2.1538    3.9747   10.0822 H   0  0  0  0  0  0  0  0  0  0  0  0
   -1.8505    5.8952   14.0050 H   0  0  0  0  0  0  0  0  0  0  0  0
   -4.1511    6.6958   14.4129 H   0  0  0  0  0  0  0  0  0  0  0  0
   -5.5274    4.4627   11.0337 H   0  0  0  0  0  0  0  0  0  0  0  0
   -3.2268    3.6621   10.6257 H   0  0  0  0  0  0  0  0  0  0  0  0
   -5.5621    7.1259   14.5822 H   0  0  0  0  0  0  0  0  0  0  0  0
   -8.4399    9.0642   16.3447 H   0  0  0  0  0  0  0  0  0  0  0  0
   -7.1006    7.9352   16.7423 H   0  0  0  0  0  0  0  0  0  0  0  0
   -6.7956    9.3525   15.6817 H   0  0  0  0  0  0  0  0  0  0  0  0
   -0.1075   -0.0318   13.6408 H   0  0  0  0  0  0  0  0  0  0  0  0
   -2.6909    1.2310   11.8726 H   0  0  0  0  0  0  0  0  0  0  0  0
   -1.5443    1.3652   13.2487 H   0  0  0  0  0  0  0  0  0  0  0  0
   -1.2146    0.2087   11.9144 H   0  0  0  0  0  0  0  0  0  0  0  0
  1  2  1  0  0  0  0
  2  3  1  0  0  0  0
  3  4  2  0  0  0  0
  3 40  1  0  0  0  0
  4  5  1  0  0  0  0
  5  6  2  0  0  0  0
  6  7  1  0  0  0  0
  6 39  1  0  0  0  0
  7  8  2  0  0  0  0
  8  9  1  0  0  0  0
  8 16  1  0  0  0  0
  9 10  1  0  0  0  0
 10 11  2  0  0  0  0
 10 17  1  0  0  0  0
 11 12  1  0  0  0  0
 12 13  1  0  0  0  0
 12 16  1  0  0  0  0
 13 14  2  0  0  0  0
 14 15  1  0  0  0  0
 15 16  2  0  0  0  0
 17 18  2  0  0  0  0
 17 22  1  0  0  0  0
 18 19  1  0  0  0  0
 19 20  2  0  0  0  0
 20 21  1  0  0  0  0
 21 22  2  0  0  0  0
 21 23  1  0  0  0  0
 23 24  1  0  0  0  0
 23 25  2  0  0  0  0
 25 26  1  0  0  0  0
 26 27  2  0  0  0  0
 26 31  1  0  0  0  0
 27 28  1  0  0  0  0
 28 29  2  0  0  0  0
 29 30  1  0  0  0  0
 29 32  1  0  0  0  0
 30 31  2  0  0  0  0
 32 33  2  0  0  0  0
 32 34  1  0  0  0  0
 34 35  1  0  0  0  0
 35 36  2  0  0  0  0
 35 37  2  0  0  0  0
 35 38  1  0  0  0  0
 39 40  2  0  0  0  0
 40 41  1  0  0  0  0
 41 42  1  0  0  0  0
  1 43  1  0  0  0  0
  1 44  1  0  0  0  0
  1 45  1  0  0  0  0
  4 46  1  0  0  0  0
  5 47  1  0  0  0  0
  9 48  1  0  0  0  0
 11 49  1  0  0  0  0
 13 50  1  0  0  0  0
 14 51  1  0  0  0  0
 18 52  1  0  0  0  0
 19 53  1  0  0  0  0
 20 54  1  0  0  0  0
 22 55  1  0  0  0  0
 24 56  1  0  0  0  0
 27 57  1  0  0  0  0
 28 58  1  0  0  0  0
 30 59  1  0  0  0  0
 31 60  1  0  0  0  0
 34 61  1  0  0  0  0
 38 62  1  0  0  0  0
 38 63  1  0  0  0  0
 38 64  1  0  0  0  0
 39 65  1  0  0  0  0
 42 66  1  0  0  0  0
 42 67  1  0  0  0  0
 42 68  1  0  0  0  0
M  END
> <IC50[nM]>
2.2

$$$$
CHEMBL3265000
  -OEChem-05192314333D
 Structure written by MMmdl.
 68 72  0     0  0  0  0  0  0999 V2000
   -4.2555   -3.1029   13.5707 C   0  0  0  0  0  0  0  0  0  0  0  0
   -3.8740   -2.3535   14.7166 O   0  0  0  0  0  0  0  0  0  0  0  0
   -2.5261   -2.1057   14.8053 C   0  0  0  0  0  0  0  0  0  0  0  0
   -1.7497   -2.8673   15.6804 C   0  0  0  0  0  0  0  0  0  0  0  0
   -0.3863   -2.6106   15.8150 C   0  0  0  0  0  0  0  0  0  0  0  0
    0.2220   -1.5829   15.0890 C   0  0  0  0  0  0  0  0  0  0  0  0
    1.5930   -1.3491   15.3060 N   0  0  0  0  0  0  0  0  0  0  0  0
    2.5452   -0.4689   14.7536 C   0  0  0  0  0  0  0  0  0  0  0  0
    2.2178    0.3551   13.7190 N   0  0  0  0  0  0  0  0  0  0  0  0
    3.1227    1.2406   13.2181 C   0  0  0  0  0  0  0  0  0  0  0  0
    4.4207    1.3039   13.7175 C   0  0  0  0  0  0  0  0  0  0  0  0
    4.7482    0.4921   14.7654 N   0  0  0  0  0  0  0  0  0  0  0  0
    5.8898    0.3836   15.5035 C   0  0  0  0  0  0  0  0  0  0  0  0
    5.5715   -0.5089   16.5177 C   0  0  0  0  0  0  0  0  0  0  0  0
    4.3818   -1.0543   16.3920 N   0  0  0  0  0  0  0  0  0  0  0  0
    3.8330   -0.4170   15.3252 C   0  0  0  0  0  0  0  0  0  0  0  0
    2.6564    2.1560   12.1340 C   0  0  0  0  0  0  0  0  0  0  0  0
    3.5566    2.6280   11.1666 C   0  0  0  0  0  0  0  0  0  0  0  0
    3.1294    3.4499   10.1277 C   0  0  0  0  0  0  0  0  0  0  0  0
    1.7879    3.8078   10.0318 C   0  0  0  0  0  0  0  0  0  0  0  0
    0.8660    3.3707   10.9895 C   0  0  0  0  0  0  0  0  0  0  0  0
    1.3140    2.5576   12.0419 C   0  0  0  0  0  0  0  0  0  0  0  0
   -0.5783    3.7648   10.8956 C   0  0  0  0  0  0  0  0  0  0  0  0
   -1.2780    3.6594    9.8925 O   0  0  0  0  0  0  0  0  0  0  0  0
   -1.0343    4.2553   12.0485 N   0  0  0  0  0  0  0  0  0  0  0  0
   -2.3943    4.7285   12.2897 C   0  0  0  0  0  0  0  0  0  0  0  0
   -2.6544    5.5820   13.3553 C   0  0  0  0  0  0  0  0  0  0  0  0
   -3.9490    6.0325   13.5849 C   0  0  0  0  0  0  0  0  0  0  0  0
   -4.9835    5.6294   12.7489 C   0  0  0  0  0  0  0  0  0  0  0  0
   -4.7235    4.7759   11.6833 C   0  0  0  0  0  0  0  0  0  0  0  0
   -3.4289    4.3254   11.4537 C   0  0  0  0  0  0  0  0  0  0  0  0
   -6.3808    6.1155   12.9967 C   0  0  0  0  0  0  0  0  0  0  0  0
   -7.3335    5.7936   12.2928 O   0  0  0  0  0  0  0  0  0  0  0  0
   -6.3969    6.9226   14.0705 N   0  0  0  0  0  0  0  0  0  0  0  0
   -7.9316    7.5992   14.5333 S   0  0  0  0  0  0  0  0  0  0  0  0
   -8.7871    6.4947   14.9809 O   0  0  0  0  0  0  0  0  0  0  0  0
   -8.3522    8.5161   13.4681 O   0  0  0  0  0  0  0  0  0  0  0  0
   -7.5285    8.5816   15.9619 C   0  0  0  0  0  0  0  0  0  0  0  0
   -0.5664   -0.8256   14.2115 C   0  0  0  0  0  0  0  0  0  0  0  0
   -1.9389   -1.0760   14.0580 C   0  0  0  0  0  0  0  0  0  0  0  0
   -2.6991   -0.3052   13.2021 O   0  0  0  0  0  0  0  0  0  0  0  0
   -2.0020    0.6746   12.5251 C   0  0  0  0  0  0  0  0  0  0  0  0
   -5.3448   -3.2555   13.5777 H   0  0  0  0  0  0  0  0  0  0  0  0
   -3.9681   -2.5543   12.6616 H   0  0  0  0  0  0  0  0  0  0  0  0
   -3.7486   -4.0790   13.5856 H   0  0  0  0  0  0  0  0  0  0  0  0
   -2.2073   -3.6587   16.2555 H   0  0  0  0  0  0  0  0  0  0  0  0
    0.2066   -3.2125   16.4877 H   0  0  0  0  0  0  0  0  0  0  0  0
    1.3010    0.3089   13.3224 H   0  0  0  0  0  0  0  0  0  0  0  0
    5.1484    1.9765   13.2880 H   0  0  0  0  0  0  0  0  0  0  0  0
    6.8331    0.8820   15.3359 H   0  0  0  0  0  0  0  0  0  0  0  0
    6.2400   -0.7347   17.3354 H   0  0  0  0  0  0  0  0  0  0  0  0
    4.5981    2.3490   11.2292 H   0  0  0  0  0  0  0  0  0  0  0  0
    3.8383    3.8096    9.3966 H   0  0  0  0  0  0  0  0  0  0  0  0
    1.4559    4.4276    9.2120 H   0  0  0  0  0  0  0  0  0  0  0  0
    0.6121    2.2342   12.7963 H   0  0  0  0  0  0  0  0  0  0  0  0
   -2.1538    3.9747   10.0822 H   0  0  0  0  0  0  0  0  0  0  0  0
   -1.8505    5.8952   14.0050 H   0  0  0  0  0  0  0  0  0  0  0  0
   -4.1511    6.6958   14.4129 H   0  0  0  0  0  0  0  0  0  0  0  0
   -5.5274    4.4627   11.0337 H   0  0  0  0  0  0  0  0  0  0  0  0
   -3.2268    3.6621   10.6257 H   0  0  0  0  0  0  0  0  0  0  0  0
   -8.1235    6.2080   12.6194 H   0  0  0  0  0  0  0  0  0  0  0  0
   -8.4399    9.0642   16.3447 H   0  0  0  0  0  0  0  0  0  0  0  0
   -7.1006    7.9352   16.7423 H   0  0  0  0  0  0  0  0  0  0  0  0
   -6.7956    9.3525   15.6817 H   0  0  0  0  0  0  0  0  0  0  0  0
   -0.1075   -0.0318   13.6408 H   0  0  0  0  0  0  0  0  0  0  0  0
   -2.6909    1.2310   11.8726 H   0  0  0  0  0  0  0  0  0  0  0  0
   -1.5443    1.3652   13.2487 H   0  0  0  0  0  0  0  0  0  0  0  0
   -1.2146    0.2087   11.9144 H   0  0  0  0  0  0  0  0  0  0  0  0
  1  2  1  0  0  0  0
  2  3  1  0  0  0  0
  3  4  2  0  0  0  0
  3 40  1  0  0  0  0
  4  5  1  0  0  0  0
  5  6  2  0  0  0  0
  6  7  1  0  0  0  0
  6 39  1  0  0  0  0
  7  8  2  0  0  0  0
  8  9  1  0  0  0  0
  8 16  1  0  0  0  0
  9 10  1  0  0  0  0
 10 11  2  0  0  0  0
 10 17  1  0  0  0  0
 11 12  1  0  0  0  0
 12 13  1  0  0  0  0
 12 16  1  0  0  0  0
 13 14  2  0  0  0  0
 14 15  1  0  0  0  0
 15 16  2  0  0  0  0
 17 18  2  0  0  0  0
 17 22  1  0  0  0  0
 18 19  1  0  0  0  0
 19 20  2  0  0  0  0
 20 21  1  0  0  0  0
 21 22  2  0  0  0  0
 21 23  1  0  0  0  0
 23 24  1  0  0  0  0
 23 25  2  0  0  0  0
 25 26  1  0  0  0  0
 26 27  2  0  0  0  0
 26 31  1  0  0  0  0
 27 28  1  0  0  0  0
 28 29  2  0  0  0  0
 29 30  1  0  0  0  0
 29 32  1  0  0  0  0
 30 31  2  0  0  0  0
 32 33  1  0  0  0  0
 32 34  2  0  0  0  0
 34 35  1  0  0  0  0
 35 36  2  0  0  0  0
 35 37  2  0  0  0  0
 35 38  1  0  0  0  0
 39 40  2  0  0  0  0
 40 41  1  0  0  0  0
 41 42  1  0  0  0  0
  1 43  1  0  0  0  0
  1 44  1  0  0  0  0
  1 45  1  0  0  0  0
  4 46  1  0  0  0  0
  5 47  1  0  0  0  0
  9 48  1  0  0  0  0
 11 49  1  0  0  0  0
 13 50  1  0  0  0  0
 14 51  1  0  0  0  0
 18 52  1  0  0  0  0
 19 53  1  0  0  0  0
 20 54  1  0  0  0  0
 22 55  1  0  0  0  0
 24 56  1  0  0  0  0
 27 57  1  0  0  0  0
 28 58  1  0  0  0  0
 30 59  1  0  0  0  0
 31 60  1  0  0  0  0
 33 61  1  0  0  0  0
 38 62  1  0  0  0  0
 38 63  1  0  0  0  0
 38 64  1  0  0  0  0
 39 65  1  0  0  0  0
 42 66  1  0  0  0  0
 42 67  1  0  0  0  0
 42 68  1  0  0  0  0
M  END
> <IC50[nM]>
2.2

$$$$
CHEMBL3265000
  -OEChem-05192314333D
 Structure written by MMmdl.
 68 72  0     0  0  0  0  0  0999 V2000
   -4.2555   -3.1029   13.5707 C   0  0  0  0  0  0  0  0  0  0  0  0
   -3.8740   -2.3535   14.7166 O   0  0  0  0  0  0  0  0  0  0  0  0
   -2.5261   -2.1057   14.8053 C   0  0  0  0  0  0  0  0  0  0  0  0
   -1.7497   -2.8673   15.6804 C   0  0  0  0  0  0  0  0  0  0  0  0
   -0.3863   -2.6106   15.8150 C   0  0  0  0  0  0  0  0  0  0  0  0
    0.2220   -1.5829   15.0890 C   0  0  0  0  0  0  0  0  0  0  0  0
    1.5930   -1.3491   15.3060 N   0  0  0  0  0  0  0  0  0  0  0  0
    2.5452   -0.4689   14.7536 C   0  0  0  0  0  0  0  0  0  0  0  0
    2.2178    0.3551   13.7190 N   0  0  0  0  0  0  0  0  0  0  0  0
    3.1227    1.2406   13.2181 C   0  0  0  0  0  0  0  0  0  0  0  0
    4.4207    1.3039   13.7175 C   0  0  0  0  0  0  0  0  0  0  0  0
    4.7482    0.4921   14.7654 N   0  0  0  0  0  0  0  0  0  0  0  0
    5.8898    0.3836   15.5035 C   0  0  0  0  0  0  0  0  0  0  0  0
    5.5715   -0.5089   16.5177 C   0  0  0  0  0  0  0  0  0  0  0  0
    4.3818   -1.0543   16.3920 N   0  0  0  0  0  0  0  0  0  0  0  0
    3.8330   -0.4170   15.3252 C   0  0  0  0  0  0  0  0  0  0  0  0
    2.6564    2.1560   12.1340 C   0  0  0  0  0  0  0  0  0  0  0  0
    3.5566    2.6280   11.1666 C   0  0  0  0  0  0  0  0  0  0  0  0
    3.1294    3.4499   10.1277 C   0  0  0  0  0  0  0  0  0  0  0  0
    1.7879    3.8078   10.0318 C   0  0  0  0  0  0  0  0  0  0  0  0
    0.8660    3.3707   10.9895 C   0  0  0  0  0  0  0  0  0  0  0  0
    1.3140    2.5576   12.0419 C   0  0  0  0  0  0  0  0  0  0  0  0
   -0.5783    3.7648   10.8956 C   0  0  0  0  0  0  0  0  0  0  0  0
   -1.2780    3.6594    9.8925 O   0  0  0  0  0  0  0  0  0  0  0  0
   -1.0343    4.2553   12.0485 N   0  0  0  0  0  0  0  0  0  0  0  0
   -2.3943    4.7285   12.2897 C   0  0  0  0  0  0  0  0  0  0  0  0
   -2.6544    5.5820   13.3553 C   0  0  0  0  0  0  0  0  0  0  0  0
   -3.9490    6.0325   13.5849 C   0  0  0  0  0  0  0  0  0  0  0  0
   -4.9835    5.6294   12.7489 C   0  0  0  0  0  0  0  0  0  0  0  0
   -4.7235    4.7759   11.6833 C   0  0  0  0  0  0  0  0  0  0  0  0
   -3.4289    4.3254   11.4537 C   0  0  0  0  0  0  0  0  0  0  0  0
   -6.3808    6.1155   12.9967 C   0  0  0  0  0  0  0  0  0  0  0  0
   -7.3335    5.7936   12.2928 O   0  0  0  0  0  0  0  0  0  0  0  0
   -6.3969    6.9226   14.0705 N   0  0  0  0  0  0  0  0  0  0  0  0
   -7.9316    7.5992   14.5333 S   0  0  0  0  0  0  0  0  0  0  0  0
   -8.7871    6.4947   14.9809 O   0  0  0  0  0  0  0  0  0  0  0  0
   -8.3522    8.5161   13.4681 O   0  0  0  0  0  0  0  0  0  0  0  0
   -7.5285    8.5816   15.9619 C   0  0  0  0  0  0  0  0  0  0  0  0
   -0.5664   -0.8256   14.2115 C   0  0  0  0  0  0  0  0  0  0  0  0
   -1.9389   -1.0760   14.0580 C   0  0  0  0  0  0  0  0  0  0  0  0
   -2.6991   -0.3052   13.2021 O   0  0  0  0  0  0  0  0  0  0  0  0
   -2.0020    0.6746   12.5251 C   0  0  0  0  0  0  0  0  0  0  0  0
   -5.3448   -3.2555   13.5777 H   0  0  0  0  0  0  0  0  0  0  0  0
   -3.9681   -2.5543   12.6616 H   0  0  0  0  0  0  0  0  0  0  0  0
   -3.7486   -4.0790   13.5856 H   0  0  0  0  0  0  0  0  0  0  0  0
   -2.2073   -3.6587   16.2555 H   0  0  0  0  0  0  0  0  0  0  0  0
    0.2066   -3.2125   16.4877 H   0  0  0  0  0  0  0  0  0  0  0  0
    5.1014    1.0581   12.8891 H   0  0  0  0  0  0  0  0  0  0  0  0
    4.5958    2.3407   14.0407 H   0  0  0  0  0  0  0  0  0  0  0  0
    6.8331    0.8820   15.3359 H   0  0  0  0  0  0  0  0  0  0  0  0
    6.2400   -0.7347   17.3354 H   0  0  0  0  0  0  0  0  0  0  0  0
    4.5981    2.3490   11.2292 H   0  0  0  0  0  0  0  0  0  0  0  0
    3.8383    3.8096    9.3966 H   0  0  0  0  0  0  0  0  0  0  0  0
    1.4559    4.4276    9.2120 H   0  0  0  0  0  0  0  0  0  0  0  0
    0.6121    2.2342   12.7963 H   0  0  0  0  0  0  0  0  0  0  0  0
   -0.3906    4.3031   12.8123 H   0  0  0  0  0  0  0  0  0  0  0  0
   -1.8505    5.8952   14.0050 H   0  0  0  0  0  0  0  0  0  0  0  0
   -4.1511    6.6958   14.4129 H   0  0  0  0  0  0  0  0  0  0  0  0
   -5.5274    4.4627   11.0337 H   0  0  0  0  0  0  0  0  0  0  0  0
   -3.2268    3.6621   10.6257 H   0  0  0  0  0  0  0  0  0  0  0  0
   -5.5621    7.1259   14.5822 H   0  0  0  0  0  0  0  0  0  0  0  0
   -8.4399    9.0642   16.3447 H   0  0  0  0  0  0  0  0  0  0  0  0
   -7.1006    7.9352   16.7423 H   0  0  0  0  0  0  0  0  0  0  0  0
   -6.7956    9.3525   15.6817 H   0  0  0  0  0  0  0  0  0  0  0  0
   -0.1075   -0.0318   13.6408 H   0  0  0  0  0  0  0  0  0  0  0  0
   -2.6909    1.2310   11.8726 H   0  0  0  0  0  0  0  0  0  0  0  0
   -1.5443    1.3652   13.2487 H   0  0  0  0  0  0  0  0  0  0  0  0
   -1.2146    0.2087   11.9144 H   0  0  0  0  0  0  0  0  0  0  0  0
  1  2  1  0  0  0  0
  2  3  1  0  0  0  0
  3  4  2  0  0  0  0
  3 40  1  0  0  0  0
  4  5  1  0  0  0  0
  5  6  2  0  0  0  0
  6  7  1  0  0  0  0
  6 39  1  0  0  0  0
  7  8  2  0  0  0  0
  8  9  1  0  0  0  0
  8 16  1  0  0  0  0
  9 10  2  0  0  0  0
 10 11  1  0  0  0  0
 10 17  1  0  0  0  0
 11 12  1  0  0  0  0
 12 13  1  0  0  0  0
 12 16  1  0  0  0  0
 13 14  2  0  0  0  0
 14 15  1  0  0  0  0
 15 16  2  0  0  0  0
 17 18  2  0  0  0  0
 17 22  1  0  0  0  0
 18 19  1  0  0  0  0
 19 20  2  0  0  0  0
 20 21  1  0  0  0  0
 21 22  2  0  0  0  0
 21 23  1  0  0  0  0
 23 24  2  0  0  0  0
 23 25  1  0  0  0  0
 25 26  1  0  0  0  0
 26 27  2  0  0  0  0
 26 31  1  0  0  0  0
 27 28  1  0  0  0  0
 28 29  2  0  0  0  0
 29 30  1  0  0  0  0
 29 32  1  0  0  0  0
 30 31  2  0  0  0  0
 32 33  2  0  0  0  0
 32 34  1  0  0  0  0
 34 35  1  0  0  0  0
 35 36  2  0  0  0  0
 35 37  2  0  0  0  0
 35 38  1  0  0  0  0
 39 40  2  0  0  0  0
 40 41  1  0  0  0  0
 41 42  1  0  0  0  0
  1 43  1  0  0  0  0
  1 44  1  0  0  0  0
  1 45  1  0  0  0  0
  4 46  1  0  0  0  0
  5 47  1  0  0  0  0
 11 48  1  0  0  0  0
 11 49  1  0  0  0  0
 13 50  1  0  0  0  0
 14 51  1  0  0  0  0
 18 52  1  0  0  0  0
 19 53  1  0  0  0  0
 20 54  1  0  0  0  0
 22 55  1  0  0  0  0
 25 56  1  0  0  0  0
 27 57  1  0  0  0  0
 28 58  1  0  0  0  0
 30 59  1  0  0  0  0
 31 60  1  0  0  0  0
 34 61  1  0  0  0  0
 38 62  1  0  0  0  0
 38 63  1  0  0  0  0
 38 64  1  0  0  0  0
 39 65  1  0  0  0  0
 42 66  1  0  0  0  0
 42 67  1  0  0  0  0
 42 68  1  0  0  0  0
M  END
> <IC50[nM]>
2.2

$$$$
CHEMBL3265000
  -OEChem-05192314333D
 Structure written by MMmdl.
 68 72  0     0  0  0  0  0  0999 V2000
   -4.2555   -3.1029   13.5707 C   0  0  0  0  0  0  0  0  0  0  0  0
   -3.8740   -2.3535   14.7166 O   0  0  0  0  0  0  0  0  0  0  0  0
   -2.5261   -2.1057   14.8053 C   0  0  0  0  0  0  0  0  0  0  0  0
   -1.7497   -2.8673   15.6804 C   0  0  0  0  0  0  0  0  0  0  0  0
   -0.3863   -2.6106   15.8150 C   0  0  0  0  0  0  0  0  0  0  0  0
    0.2220   -1.5829   15.0890 C   0  0  0  0  0  0  0  0  0  0  0  0
    1.5930   -1.3491   15.3060 N   0  0  0  0  0  0  0  0  0  0  0  0
    2.5452   -0.4689   14.7536 C   0  0  0  0  0  0  0  0  0  0  0  0
    2.2178    0.3551   13.7190 N   0  0  0  0  0  0  0  0  0  0  0  0
    3.1227    1.2406   13.2181 C   0  0  0  0  0  0  0  0  0  0  0  0
    4.4207    1.3039   13.7175 C   0  0  0  0  0  0  0  0  0  0  0  0
    4.7482    0.4921   14.7654 N   0  0  0  0  0  0  0  0  0  0  0  0
    5.8898    0.3836   15.5035 C   0  0  0  0  0  0  0  0  0  0  0  0
    5.5715   -0.5089   16.5177 C   0  0  0  0  0  0  0  0  0  0  0  0
    4.3818   -1.0543   16.3920 N   0  0  0  0  0  0  0  0  0  0  0  0
    3.8330   -0.4170   15.3252 C   0  0  0  0  0  0  0  0  0  0  0  0
    2.6564    2.1560   12.1340 C   0  0  0  0  0  0  0  0  0  0  0  0
    3.5566    2.6280   11.1666 C   0  0  0  0  0  0  0  0  0  0  0  0
    3.1294    3.4499   10.1277 C   0  0  0  0  0  0  0  0  0  0  0  0
    1.7879    3.8078   10.0318 C   0  0  0  0  0  0  0  0  0  0  0  0
    0.8660    3.3707   10.9895 C   0  0  0  0  0  0  0  0  0  0  0  0
    1.3140    2.5576   12.0419 C   0  0  0  0  0  0  0  0  0  0  0  0
   -0.5783    3.7648   10.8956 C   0  0  0  0  0  0  0  0  0  0  0  0
   -1.2780    3.6594    9.8925 O   0  0  0  0  0  0  0  0  0  0  0  0
   -1.0343    4.2553   12.0485 N   0  0  0  0  0  0  0  0  0  0  0  0
   -2.3943    4.7285   12.2897 C   0  0  0  0  0  0  0  0  0  0  0  0
   -2.6544    5.5820   13.3553 C   0  0  0  0  0  0  0  0  0  0  0  0
   -3.9490    6.0325   13.5849 C   0  0  0  0  0  0  0  0  0  0  0  0
   -4.9835    5.6294   12.7489 C   0  0  0  0  0  0  0  0  0  0  0  0
   -4.7235    4.7759   11.6833 C   0  0  0  0  0  0  0  0  0  0  0  0
   -3.4289    4.3254   11.4537 C   0  0  0  0  0  0  0  0  0  0  0  0
   -6.3808    6.1155   12.9967 C   0  0  0  0  0  0  0  0  0  0  0  0
   -7.3335    5.7936   12.2928 O   0  0  0  0  0  0  0  0  0  0  0  0
   -6.3969    6.9226   14.0705 N   0  0  0  0  0  0  0  0  0  0  0  0
   -7.9316    7.5992   14.5333 S   0  0  0  0  0  0  0  0  0  0  0  0
   -8.7871    6.4947   14.9809 O   0  0  0  0  0  0  0  0  0  0  0  0
   -8.3522    8.5161   13.4681 O   0  0  0  0  0  0  0  0  0  0  0  0
   -7.5285    8.5816   15.9619 C   0  0  0  0  0  0  0  0  0  0  0  0
   -0.5664   -0.8256   14.2115 C   0  0  0  0  0  0  0  0  0  0  0  0
   -1.9389   -1.0760   14.0580 C   0  0  0  0  0  0  0  0  0  0  0  0
   -2.6991   -0.3052   13.2021 O   0  0  0  0  0  0  0  0  0  0  0  0
   -2.0020    0.6746   12.5251 C   0  0  0  0  0  0  0  0  0  0  0  0
   -5.3448   -3.2555   13.5777 H   0  0  0  0  0  0  0  0  0  0  0  0
   -3.9681   -2.5543   12.6616 H   0  0  0  0  0  0  0  0  0  0  0  0
   -3.7486   -4.0790   13.5856 H   0  0  0  0  0  0  0  0  0  0  0  0
   -2.2073   -3.6587   16.2555 H   0  0  0  0  0  0  0  0  0  0  0  0
    0.2066   -3.2125   16.4877 H   0  0  0  0  0  0  0  0  0  0  0  0
    5.1014    1.0581   12.8891 H   0  0  0  0  0  0  0  0  0  0  0  0
    4.5958    2.3407   14.0407 H   0  0  0  0  0  0  0  0  0  0  0  0
    6.8331    0.8820   15.3359 H   0  0  0  0  0  0  0  0  0  0  0  0
    6.2400   -0.7347   17.3354 H   0  0  0  0  0  0  0  0  0  0  0  0
    4.5981    2.3490   11.2292 H   0  0  0  0  0  0  0  0  0  0  0  0
    3.8383    3.8096    9.3966 H   0  0  0  0  0  0  0  0  0  0  0  0
    1.4559    4.4276    9.2120 H   0  0  0  0  0  0  0  0  0  0  0  0
    0.6121    2.2342   12.7963 H   0  0  0  0  0  0  0  0  0  0  0  0
   -0.3906    4.3031   12.8123 H   0  0  0  0  0  0  0  0  0  0  0  0
   -1.8505    5.8952   14.0050 H   0  0  0  0  0  0  0  0  0  0  0  0
   -4.1511    6.6958   14.4129 H   0  0  0  0  0  0  0  0  0  0  0  0
   -5.5274    4.4627   11.0337 H   0  0  0  0  0  0  0  0  0  0  0  0
   -3.2268    3.6621   10.6257 H   0  0  0  0  0  0  0  0  0  0  0  0
   -8.1235    6.2080   12.6194 H   0  0  0  0  0  0  0  0  0  0  0  0
   -8.4399    9.0642   16.3447 H   0  0  0  0  0  0  0  0  0  0  0  0
   -7.1006    7.9352   16.7423 H   0  0  0  0  0  0  0  0  0  0  0  0
   -6.7956    9.3525   15.6817 H   0  0  0  0  0  0  0  0  0  0  0  0
   -0.1075   -0.0318   13.6408 H   0  0  0  0  0  0  0  0  0  0  0  0
   -2.6909    1.2310   11.8726 H   0  0  0  0  0  0  0  0  0  0  0  0
   -1.5443    1.3652   13.2487 H   0  0  0  0  0  0  0  0  0  0  0  0
   -1.2146    0.2087   11.9144 H   0  0  0  0  0  0  0  0  0  0  0  0
  1  2  1  0  0  0  0
  2  3  1  0  0  0  0
  3  4  2  0  0  0  0
  3 40  1  0  0  0  0
  4  5  1  0  0  0  0
  5  6  2  0  0  0  0
  6  7  1  0  0  0  0
  6 39  1  0  0  0  0
  7  8  2  0  0  0  0
  8  9  1  0  0  0  0
  8 16  1  0  0  0  0
  9 10  2  0  0  0  0
 10 11  1  0  0  0  0
 10 17  1  0  0  0  0
 11 12  1  0  0  0  0
 12 13  1  0  0  0  0
 12 16  1  0  0  0  0
 13 14  2  0  0  0  0
 14 15  1  0  0  0  0
 15 16  2  0  0  0  0
 17 18  2  0  0  0  0
 17 22  1  0  0  0  0
 18 19  1  0  0  0  0
 19 20  2  0  0  0  0
 20 21  1  0  0  0  0
 21 22  2  0  0  0  0
 21 23  1  0  0  0  0
 23 24  2  0  0  0  0
 23 25  1  0  0  0  0
 25 26  1  0  0  0  0
 26 27  2  0  0  0  0
 26 31  1  0  0  0  0
 27 28  1  0  0  0  0
 28 29  2  0  0  0  0
 29 30  1  0  0  0  0
 29 32  1  0  0  0  0
 30 31  2  0  0  0  0
 32 33  1  0  0  0  0
 32 34  2  0  0  0  0
 34 35  1  0  0  0  0
 35 36  2  0  0  0  0
 35 37  2  0  0  0  0
 35 38  1  0  0  0  0
 39 40  2  0  0  0  0
 40 41  1  0  0  0  0
 41 42  1  0  0  0  0
  1 43  1  0  0  0  0
  1 44  1  0  0  0  0
  1 45  1  0  0  0  0
  4 46  1  0  0  0  0
  5 47  1  0  0  0  0
 11 48  1  0  0  0  0
 11 49  1  0  0  0  0
 13 50  1  0  0  0  0
 14 51  1  0  0  0  0
 18 52  1  0  0  0  0
 19 53  1  0  0  0  0
 20 54  1  0  0  0  0
 22 55  1  0  0  0  0
 25 56  1  0  0  0  0
 27 57  1  0  0  0  0
 28 58  1  0  0  0  0
 30 59  1  0  0  0  0
 31 60  1  0  0  0  0
 33 61  1  0  0  0  0
 38 62  1  0  0  0  0
 38 63  1  0  0  0  0
 38 64  1  0  0  0  0
 39 65  1  0  0  0  0
 42 66  1  0  0  0  0
 42 67  1  0  0  0  0
 42 68  1  0  0  0  0
M  END
> <IC50[nM]>
2.2

$$$$
CHEMBL3265000
  -OEChem-05192314333D
 Structure written by MMmdl.
 68 72  0     0  0  0  0  0  0999 V2000
   -4.2555   -3.1029   13.5707 C   0  0  0  0  0  0  0  0  0  0  0  0
   -3.8740   -2.3535   14.7166 O   0  0  0  0  0  0  0  0  0  0  0  0
   -2.5261   -2.1057   14.8053 C   0  0  0  0  0  0  0  0  0  0  0  0
   -1.7497   -2.8673   15.6804 C   0  0  0  0  0  0  0  0  0  0  0  0
   -0.3863   -2.6106   15.8150 C   0  0  0  0  0  0  0  0  0  0  0  0
    0.2220   -1.5829   15.0890 C   0  0  0  0  0  0  0  0  0  0  0  0
    1.5930   -1.3491   15.3060 N   0  0  0  0  0  0  0  0  0  0  0  0
    2.5452   -0.4689   14.7536 C   0  0  0  0  0  0  0  0  0  0  0  0
    2.2178    0.3551   13.7190 N   0  0  0  0  0  0  0  0  0  0  0  0
    3.1227    1.2406   13.2181 C   0  0  0  0  0  0  0  0  0  0  0  0
    4.4207    1.3039   13.7175 C   0  0  0  0  0  0  0  0  0  0  0  0
    4.7482    0.4921   14.7654 N   0  0  0  0  0  0  0  0  0  0  0  0
    5.8898    0.3836   15.5035 C   0  0  0  0  0  0  0  0  0  0  0  0
    5.5715   -0.5089   16.5177 C   0  0  0  0  0  0  0  0  0  0  0  0
    4.3818   -1.0543   16.3920 N   0  0  0  0  0  0  0  0  0  0  0  0
    3.8330   -0.4170   15.3252 C   0  0  0  0  0  0  0  0  0  0  0  0
    2.6564    2.1560   12.1340 C   0  0  0  0  0  0  0  0  0  0  0  0
    3.5566    2.6280   11.1666 C   0  0  0  0  0  0  0  0  0  0  0  0
    3.1294    3.4499   10.1277 C   0  0  0  0  0  0  0  0  0  0  0  0
    1.7879    3.8078   10.0318 C   0  0  0  0  0  0  0  0  0  0  0  0
    0.8660    3.3707   10.9895 C   0  0  0  0  0  0  0  0  0  0  0  0
    1.3140    2.5576   12.0419 C   0  0  0  0  0  0  0  0  0  0  0  0
   -0.5783    3.7648   10.8956 C   0  0  0  0  0  0  0  0  0  0  0  0
   -1.2780    3.6594    9.8925 O   0  0  0  0  0  0  0  0  0  0  0  0
   -1.0343    4.2553   12.0485 N   0  0  0  0  0  0  0  0  0  0  0  0
   -2.3943    4.7285   12.2897 C   0  0  0  0  0  0  0  0  0  0  0  0
   -2.6544    5.5820   13.3553 C   0  0  0  0  0  0  0  0  0  0  0  0
   -3.9490    6.0325   13.5849 C   0  0  0  0  0  0  0  0  0  0  0  0
   -4.9835    5.6294   12.7489 C   0  0  0  0  0  0  0  0  0  0  0  0
   -4.7235    4.7759   11.6833 C   0  0  0  0  0  0  0  0  0  0  0  0
   -3.4289    4.3254   11.4537 C   0  0  0  0  0  0  0  0  0  0  0  0
   -6.3808    6.1155   12.9967 C   0  0  0  0  0  0  0  0  0  0  0  0
   -7.3335    5.7936   12.2928 O   0  0  0  0  0  0  0  0  0  0  0  0
   -6.3969    6.9226   14.0705 N   0  0  0  0  0  0  0  0  0  0  0  0
   -7.9316    7.5992   14.5333 S   0  0  0  0  0  0  0  0  0  0  0  0
   -8.7871    6.4947   14.9809 O   0  0  0  0  0  0  0  0  0  0  0  0
   -8.3522    8.5161   13.4681 O   0  0  0  0  0  0  0  0  0  0  0  0
   -7.5285    8.5816   15.9619 C   0  0  0  0  0  0  0  0  0  0  0  0
   -0.5664   -0.8256   14.2115 C   0  0  0  0  0  0  0  0  0  0  0  0
   -1.9389   -1.0760   14.0580 C   0  0  0  0  0  0  0  0  0  0  0  0
   -2.6991   -0.3052   13.2021 O   0  0  0  0  0  0  0  0  0  0  0  0
   -2.0020    0.6746   12.5251 C   0  0  0  0  0  0  0  0  0  0  0  0
   -5.3448   -3.2555   13.5777 H   0  0  0  0  0  0  0  0  0  0  0  0
   -3.9681   -2.5543   12.6616 H   0  0  0  0  0  0  0  0  0  0  0  0
   -3.7486   -4.0790   13.5856 H   0  0  0  0  0  0  0  0  0  0  0  0
   -2.2073   -3.6587   16.2555 H   0  0  0  0  0  0  0  0  0  0  0  0
    0.2066   -3.2125   16.4877 H   0  0  0  0  0  0  0  0  0  0  0  0
    5.1014    1.0581   12.8891 H   0  0  0  0  0  0  0  0  0  0  0  0
    4.5958    2.3407   14.0407 H   0  0  0  0  0  0  0  0  0  0  0  0
    6.8331    0.8820   15.3359 H   0  0  0  0  0  0  0  0  0  0  0  0
    6.2400   -0.7347   17.3354 H   0  0  0  0  0  0  0  0  0  0  0  0
    4.5981    2.3490   11.2292 H   0  0  0  0  0  0  0  0  0  0  0  0
    3.8383    3.8096    9.3966 H   0  0  0  0  0  0  0  0  0  0  0  0
    1.4559    4.4276    9.2120 H   0  0  0  0  0  0  0  0  0  0  0  0
    0.6121    2.2342   12.7963 H   0  0  0  0  0  0  0  0  0  0  0  0
   -2.1538    3.9747   10.0822 H   0  0  0  0  0  0  0  0  0  0  0  0
   -1.8505    5.8952   14.0050 H   0  0  0  0  0  0  0  0  0  0  0  0
   -4.1511    6.6958   14.4129 H   0  0  0  0  0  0  0  0  0  0  0  0
   -5.5274    4.4627   11.0337 H   0  0  0  0  0  0  0  0  0  0  0  0
   -3.2268    3.6621   10.6257 H   0  0  0  0  0  0  0  0  0  0  0  0
   -5.5621    7.1259   14.5822 H   0  0  0  0  0  0  0  0  0  0  0  0
   -8.4399    9.0642   16.3447 H   0  0  0  0  0  0  0  0  0  0  0  0
   -7.1006    7.9352   16.7423 H   0  0  0  0  0  0  0  0  0  0  0  0
   -6.7956    9.3525   15.6817 H   0  0  0  0  0  0  0  0  0  0  0  0
   -0.1075   -0.0318   13.6408 H   0  0  0  0  0  0  0  0  0  0  0  0
   -2.6909    1.2310   11.8726 H   0  0  0  0  0  0  0  0  0  0  0  0
   -1.5443    1.3652   13.2487 H   0  0  0  0  0  0  0  0  0  0  0  0
   -1.2146    0.2087   11.9144 H   0  0  0  0  0  0  0  0  0  0  0  0
  1  2  1  0  0  0  0
  2  3  1  0  0  0  0
  3  4  2  0  0  0  0
  3 40  1  0  0  0  0
  4  5  1  0  0  0  0
  5  6  2  0  0  0  0
  6  7  1  0  0  0  0
  6 39  1  0  0  0  0
  7  8  2  0  0  0  0
  8  9  1  0  0  0  0
  8 16  1  0  0  0  0
  9 10  2  0  0  0  0
 10 11  1  0  0  0  0
 10 17  1  0  0  0  0
 11 12  1  0  0  0  0
 12 13  1  0  0  0  0
 12 16  1  0  0  0  0
 13 14  2  0  0  0  0
 14 15  1  0  0  0  0
 15 16  2  0  0  0  0
 17 18  2  0  0  0  0
 17 22  1  0  0  0  0
 18 19  1  0  0  0  0
 19 20  2  0  0  0  0
 20 21  1  0  0  0  0
 21 22  2  0  0  0  0
 21 23  1  0  0  0  0
 23 24  1  0  0  0  0
 23 25  2  0  0  0  0
 25 26  1  0  0  0  0
 26 27  2  0  0  0  0
 26 31  1  0  0  0  0
 27 28  1  0  0  0  0
 28 29  2  0  0  0  0
 29 30  1  0  0  0  0
 29 32  1  0  0  0  0
 30 31  2  0  0  0  0
 32 33  2  0  0  0  0
 32 34  1  0  0  0  0
 34 35  1  0  0  0  0
 35 36  2  0  0  0  0
 35 37  2  0  0  0  0
 35 38  1  0  0  0  0
 39 40  2  0  0  0  0
 40 41  1  0  0  0  0
 41 42  1  0  0  0  0
  1 43  1  0  0  0  0
  1 44  1  0  0  0  0
  1 45  1  0  0  0  0
  4 46  1  0  0  0  0
  5 47  1  0  0  0  0
 11 48  1  0  0  0  0
 11 49  1  0  0  0  0
 13 50  1  0  0  0  0
 14 51  1  0  0  0  0
 18 52  1  0  0  0  0
 19 53  1  0  0  0  0
 20 54  1  0  0  0  0
 22 55  1  0  0  0  0
 24 56  1  0  0  0  0
 27 57  1  0  0  0  0
 28 58  1  0  0  0  0
 30 59  1  0  0  0  0
 31 60  1  0  0  0  0
 34 61  1  0  0  0  0
 38 62  1  0  0  0  0
 38 63  1  0  0  0  0
 38 64  1  0  0  0  0
 39 65  1  0  0  0  0
 42 66  1  0  0  0  0
 42 67  1  0  0  0  0
 42 68  1  0  0  0  0
M  END
> <IC50[nM]>
2.2

$$$$
CHEMBL3265000
  -OEChem-05192314333D
 Structure written by MMmdl.
 68 72  0     0  0  0  0  0  0999 V2000
   -4.2555   -3.1029   13.5707 C   0  0  0  0  0  0  0  0  0  0  0  0
   -3.8740   -2.3535   14.7166 O   0  0  0  0  0  0  0  0  0  0  0  0
   -2.5261   -2.1057   14.8053 C   0  0  0  0  0  0  0  0  0  0  0  0
   -1.7497   -2.8673   15.6804 C   0  0  0  0  0  0  0  0  0  0  0  0
   -0.3863   -2.6106   15.8150 C   0  0  0  0  0  0  0  0  0  0  0  0
    0.2220   -1.5829   15.0890 C   0  0  0  0  0  0  0  0  0  0  0  0
    1.5930   -1.3491   15.3060 N   0  0  0  0  0  0  0  0  0  0  0  0
    2.5452   -0.4689   14.7536 C   0  0  0  0  0  0  0  0  0  0  0  0
    2.2178    0.3551   13.7190 N   0  0  0  0  0  0  0  0  0  0  0  0
    3.1227    1.2406   13.2181 C   0  0  0  0  0  0  0  0  0  0  0  0
    4.4207    1.3039   13.7175 C   0  0  0  0  0  0  0  0  0  0  0  0
    4.7482    0.4921   14.7654 N   0  0  0  0  0  0  0  0  0  0  0  0
    5.8898    0.3836   15.5035 C   0  0  0  0  0  0  0  0  0  0  0  0
    5.5715   -0.5089   16.5177 C   0  0  0  0  0  0  0  0  0  0  0  0
    4.3818   -1.0543   16.3920 N   0  0  0  0  0  0  0  0  0  0  0  0
    3.8330   -0.4170   15.3252 C   0  0  0  0  0  0  0  0  0  0  0  0
    2.6564    2.1560   12.1340 C   0  0  0  0  0  0  0  0  0  0  0  0
    3.5566    2.6280   11.1666 C   0  0  0  0  0  0  0  0  0  0  0  0
    3.1294    3.4499   10.1277 C   0  0  0  0  0  0  0  0  0  0  0  0
    1.7879    3.8078   10.0318 C   0  0  0  0  0  0  0  0  0  0  0  0
    0.8660    3.3707   10.9895 C   0  0  0  0  0  0  0  0  0  0  0  0
    1.3140    2.5576   12.0419 C   0  0  0  0  0  0  0  0  0  0  0  0
   -0.5783    3.7648   10.8956 C   0  0  0  0  0  0  0  0  0  0  0  0
   -1.2780    3.6594    9.8925 O   0  0  0  0  0  0  0  0  0  0  0  0
   -1.0343    4.2553   12.0485 N   0  0  0  0  0  0  0  0  0  0  0  0
   -2.3943    4.7285   12.2897 C   0  0  0  0  0  0  0  0  0  0  0  0
   -2.6544    5.5820   13.3553 C   0  0  0  0  0  0  0  0  0  0  0  0
   -3.9490    6.0325   13.5849 C   0  0  0  0  0  0  0  0  0  0  0  0
   -4.9835    5.6294   12.7489 C   0  0  0  0  0  0  0  0  0  0  0  0
   -4.7235    4.7759   11.6833 C   0  0  0  0  0  0  0  0  0  0  0  0
   -3.4289    4.3254   11.4537 C   0  0  0  0  0  0  0  0  0  0  0  0
   -6.3808    6.1155   12.9967 C   0  0  0  0  0  0  0  0  0  0  0  0
   -7.3335    5.7936   12.2928 O   0  0  0  0  0  0  0  0  0  0  0  0
   -6.3969    6.9226   14.0705 N   0  0  0  0  0  0  0  0  0  0  0  0
   -7.9316    7.5992   14.5333 S   0  0  0  0  0  0  0  0  0  0  0  0
   -8.7871    6.4947   14.9809 O   0  0  0  0  0  0  0  0  0  0  0  0
   -8.3522    8.5161   13.4681 O   0  0  0  0  0  0  0  0  0  0  0  0
   -7.5285    8.5816   15.9619 C   0  0  0  0  0  0  0  0  0  0  0  0
   -0.5664   -0.8256   14.2115 C   0  0  0  0  0  0  0  0  0  0  0  0
   -1.9389   -1.0760   14.0580 C   0  0  0  0  0  0  0  0  0  0  0  0
   -2.6991   -0.3052   13.2021 O   0  0  0  0  0  0  0  0  0  0  0  0
   -2.0020    0.6746   12.5251 C   0  0  0  0  0  0  0  0  0  0  0  0
   -5.3448   -3.2555   13.5777 H   0  0  0  0  0  0  0  0  0  0  0  0
   -3.9681   -2.5543   12.6616 H   0  0  0  0  0  0  0  0  0  0  0  0
   -3.7486   -4.0790   13.5856 H   0  0  0  0  0  0  0  0  0  0  0  0
   -2.2073   -3.6587   16.2555 H   0  0  0  0  0  0  0  0  0  0  0  0
    0.2066   -3.2125   16.4877 H   0  0  0  0  0  0  0  0  0  0  0  0
    5.1014    1.0581   12.8891 H   0  0  0  0  0  0  0  0  0  0  0  0
    4.5958    2.3407   14.0407 H   0  0  0  0  0  0  0  0  0  0  0  0
    6.8331    0.8820   15.3359 H   0  0  0  0  0  0  0  0  0  0  0  0
    6.2400   -0.7347   17.3354 H   0  0  0  0  0  0  0  0  0  0  0  0
    4.5981    2.3490   11.2292 H   0  0  0  0  0  0  0  0  0  0  0  0
    3.8383    3.8096    9.3966 H   0  0  0  0  0  0  0  0  0  0  0  0
    1.4559    4.4276    9.2120 H   0  0  0  0  0  0  0  0  0  0  0  0
    0.6121    2.2342   12.7963 H   0  0  0  0  0  0  0  0  0  0  0  0
   -2.1538    3.9747   10.0822 H   0  0  0  0  0  0  0  0  0  0  0  0
   -1.8505    5.8952   14.0050 H   0  0  0  0  0  0  0  0  0  0  0  0
   -4.1511    6.6958   14.4129 H   0  0  0  0  0  0  0  0  0  0  0  0
   -5.5274    4.4627   11.0337 H   0  0  0  0  0  0  0  0  0  0  0  0
   -3.2268    3.6621   10.6257 H   0  0  0  0  0  0  0  0  0  0  0  0
   -8.1235    6.2080   12.6194 H   0  0  0  0  0  0  0  0  0  0  0  0
   -8.4399    9.0642   16.3447 H   0  0  0  0  0  0  0  0  0  0  0  0
   -7.1006    7.9352   16.7423 H   0  0  0  0  0  0  0  0  0  0  0  0
   -6.7956    9.3525   15.6817 H   0  0  0  0  0  0  0  0  0  0  0  0
   -0.1075   -0.0318   13.6408 H   0  0  0  0  0  0  0  0  0  0  0  0
   -2.6909    1.2310   11.8726 H   0  0  0  0  0  0  0  0  0  0  0  0
   -1.5443    1.3652   13.2487 H   0  0  0  0  0  0  0  0  0  0  0  0
   -1.2146    0.2087   11.9144 H   0  0  0  0  0  0  0  0  0  0  0  0
  1  2  1  0  0  0  0
  2  3  1  0  0  0  0
  3  4  2  0  0  0  0
  3 40  1  0  0  0  0
  4  5  1  0  0  0  0
  5  6  2  0  0  0  0
  6  7  1  0  0  0  0
  6 39  1  0  0  0  0
  7  8  2  0  0  0  0
  8  9  1  0  0  0  0
  8 16  1  0  0  0  0
  9 10  2  0  0  0  0
 10 11  1  0  0  0  0
 10 17  1  0  0  0  0
 11 12  1  0  0  0  0
 12 13  1  0  0  0  0
 12 16  1  0  0  0  0
 13 14  2  0  0  0  0
 14 15  1  0  0  0  0
 15 16  2  0  0  0  0
 17 18  2  0  0  0  0
 17 22  1  0  0  0  0
 18 19  1  0  0  0  0
 19 20  2  0  0  0  0
 20 21  1  0  0  0  0
 21 22  2  0  0  0  0
 21 23  1  0  0  0  0
 23 24  1  0  0  0  0
 23 25  2  0  0  0  0
 25 26  1  0  0  0  0
 26 27  2  0  0  0  0
 26 31  1  0  0  0  0
 27 28  1  0  0  0  0
 28 29  2  0  0  0  0
 29 30  1  0  0  0  0
 29 32  1  0  0  0  0
 30 31  2  0  0  0  0
 32 33  1  0  0  0  0
 32 34  2  0  0  0  0
 34 35  1  0  0  0  0
 35 36  2  0  0  0  0
 35 37  2  0  0  0  0
 35 38  1  0  0  0  0
 39 40  2  0  0  0  0
 40 41  1  0  0  0  0
 41 42  1  0  0  0  0
  1 43  1  0  0  0  0
  1 44  1  0  0  0  0
  1 45  1  0  0  0  0
  4 46  1  0  0  0  0
  5 47  1  0  0  0  0
 11 48  1  0  0  0  0
 11 49  1  0  0  0  0
 13 50  1  0  0  0  0
 14 51  1  0  0  0  0
 18 52  1  0  0  0  0
 19 53  1  0  0  0  0
 20 54  1  0  0  0  0
 22 55  1  0  0  0  0
 24 56  1  0  0  0  0
 27 57  1  0  0  0  0
 28 58  1  0  0  0  0
 30 59  1  0  0  0  0
 31 60  1  0  0  0  0
 33 61  1  0  0  0  0
 38 62  1  0  0  0  0
 38 63  1  0  0  0  0
 38 64  1  0  0  0  0
 39 65  1  0  0  0  0
 42 66  1  0  0  0  0
 42 67  1  0  0  0  0
 42 68  1  0  0  0  0
M  END
> <IC50[nM]>
2.2

$$$$
CHEMBL3265000
  -OEChem-05192314333D
 Structure written by MMmdl.
 68 72  0     1  0  0  0  0  0999 V2000
   -4.2555   -3.1029   13.5707 C   0  0  0  0  0  0  0  0  0  0  0  0
   -3.8740   -2.3535   14.7166 O   0  0  0  0  0  0  0  0  0  0  0  0
   -2.5261   -2.1057   14.8053 C   0  0  3  0  0  0  0  0  0  0  0  0
   -1.7497   -2.8673   15.6804 C   0  0  0  0  0  0  0  0  0  0  0  0
   -0.3863   -2.6106   15.8150 C   0  0  0  0  0  0  0  0  0  0  0  0
    0.2220   -1.5829   15.0890 C   0  0  0  0  0  0  0  0  0  0  0  0
    1.5930   -1.3491   15.3060 N   0  0  0  0  0  0  0  0  0  0  0  0
    2.5452   -0.4689   14.7536 C   0  0  0  0  0  0  0  0  0  0  0  0
    2.2178    0.3551   13.7190 N   0  0  0  0  0  0  0  0  0  0  0  0
    3.1227    1.2406   13.2181 C   0  0  0  0  0  0  0  0  0  0  0  0
    4.4207    1.3039   13.7175 C   0  0  0  0  0  0  0  0  0  0  0  0
    4.7482    0.4921   14.7654 N   0  0  0  0  0  0  0  0  0  0  0  0
    5.8898    0.3836   15.5035 C   0  0  0  0  0  0  0  0  0  0  0  0
    5.5715   -0.5089   16.5177 C   0  0  0  0  0  0  0  0  0  0  0  0
    4.3818   -1.0543   16.3920 N   0  0  0  0  0  0  0  0  0  0  0  0
    3.8330   -0.4170   15.3252 C   0  0  0  0  0  0  0  0  0  0  0  0
    2.6564    2.1560   12.1340 C   0  0  0  0  0  0  0  0  0  0  0  0
    3.5566    2.6280   11.1666 C   0  0  0  0  0  0  0  0  0  0  0  0
    3.1294    3.4499   10.1277 C   0  0  0  0  0  0  0  0  0  0  0  0
    1.7879    3.8078   10.0318 C   0  0  0  0  0  0  0  0  0  0  0  0
    0.8660    3.3707   10.9895 C   0  0  0  0  0  0  0  0  0  0  0  0
    1.3140    2.5576   12.0419 C   0  0  0  0  0  0  0  0  0  0  0  0
   -0.5783    3.7648   10.8956 C   0  0  0  0  0  0  0  0  0  0  0  0
   -1.2780    3.6594    9.8925 O   0  0  0  0  0  0  0  0  0  0  0  0
   -1.0343    4.2553   12.0485 N   0  0  0  0  0  0  0  0  0  0  0  0
   -2.3943    4.7285   12.2897 C   0  0  0  0  0  0  0  0  0  0  0  0
   -2.6544    5.5820   13.3553 C   0  0  0  0  0  0  0  0  0  0  0  0
   -3.9490    6.0325   13.5849 C   0  0  0  0  0  0  0  0  0  0  0  0
   -4.9835    5.6294   12.7489 C   0  0  0  0  0  0  0  0  0  0  0  0
   -4.7235    4.7759   11.6833 C   0  0  0  0  0  0  0  0  0  0  0  0
   -3.4289    4.3254   11.4537 C   0  0  0  0  0  0  0  0  0  0  0  0
   -6.3808    6.1155   12.9967 C   0  0  0  0  0  0  0  0  0  0  0  0
   -7.3335    5.7936   12.2928 O   0  0  0  0  0  0  0  0  0  0  0  0
   -6.3969    6.9226   14.0705 N   0  0  0  0  0  0  0  0  0  0  0  0
   -7.9316    7.5992   14.5333 S   0  0  0  0  0  0  0  0  0  0  0  0
   -8.7871    6.4947   14.9809 O   0  0  0  0  0  0  0  0  0  0  0  0
   -8.3522    8.5161   13.4681 O   0  0  0  0  0  0  0  0  0  0  0  0
   -7.5285    8.5816   15.9619 C   0  0  0  0  0  0  0  0  0  0  0  0
   -0.5664   -0.8256   14.2115 C   0  0  0  0  0  0  0  0  0  0  0  0
   -1.9389   -1.0760   14.0580 C   0  0  0  0  0  0  0  0  0  0  0  0
   -2.6991   -0.3052   13.2021 O   0  0  0  0  0  0  0  0  0  0  0  0
   -2.0020    0.6746   12.5251 C   0  0  0  0  0  0  0  0  0  0  0  0
   -5.3448   -3.2555   13.5777 H   0  0  0  0  0  0  0  0  0  0  0  0
   -3.9681   -2.5543   12.6616 H   0  0  0  0  0  0  0  0  0  0  0  0
   -3.7486   -4.0790   13.5856 H   0  0  0  0  0  0  0  0  0  0  0  0
   -2.3305   -2.8209   13.9928 H   0  0  0  0  0  0  0  0  0  0  0  0
   -2.2073   -3.6587   16.2555 H   0  0  0  0  0  0  0  0  0  0  0  0
    0.2066   -3.2125   16.4877 H   0  0  0  0  0  0  0  0  0  0  0  0
    5.1484    1.9765   13.2880 H   0  0  0  0  0  0  0  0  0  0  0  0
    6.8331    0.8820   15.3359 H   0  0  0  0  0  0  0  0  0  0  0  0
    6.2400   -0.7347   17.3354 H   0  0  0  0  0  0  0  0  0  0  0  0
    4.5981    2.3490   11.2292 H   0  0  0  0  0  0  0  0  0  0  0  0
    3.8383    3.8096    9.3966 H   0  0  0  0  0  0  0  0  0  0  0  0
    1.4559    4.4276    9.2120 H   0  0  0  0  0  0  0  0  0  0  0  0
    0.6121    2.2342   12.7963 H   0  0  0  0  0  0  0  0  0  0  0  0
   -0.3906    4.3031   12.8123 H   0  0  0  0  0  0  0  0  0  0  0  0
   -1.8505    5.8952   14.0050 H   0  0  0  0  0  0  0  0  0  0  0  0
   -4.1511    6.6958   14.4129 H   0  0  0  0  0  0  0  0  0  0  0  0
   -5.5274    4.4627   11.0337 H   0  0  0  0  0  0  0  0  0  0  0  0
   -3.2268    3.6621   10.6257 H   0  0  0  0  0  0  0  0  0  0  0  0
   -5.5621    7.1259   14.5822 H   0  0  0  0  0  0  0  0  0  0  0  0
   -8.4399    9.0642   16.3447 H   0  0  0  0  0  0  0  0  0  0  0  0
   -7.1006    7.9352   16.7423 H   0  0  0  0  0  0  0  0  0  0  0  0
   -6.7956    9.3525   15.6817 H   0  0  0  0  0  0  0  0  0  0  0  0
   -0.1075   -0.0318   13.6408 H   0  0  0  0  0  0  0  0  0  0  0  0
   -2.6909    1.2310   11.8726 H   0  0  0  0  0  0  0  0  0  0  0  0
   -1.5443    1.3652   13.2487 H   0  0  0  0  0  0  0  0  0  0  0  0
   -1.2146    0.2087   11.9144 H   0  0  0  0  0  0  0  0  0  0  0  0
  1  2  1  0  0  0  0
  2  3  1  0  0  0  0
  3  4  1  0  0  0  0
  3 40  1  0  0  0  0
  4  5  2  0  0  0  0
  5  6  1  0  0  0  0
  6  7  2  0  0  0  0
  6 39  1  0  0  0  0
  7  8  1  0  0  0  0
  8  9  2  0  0  0  0
  8 16  1  0  0  0  0
  9 10  1  0  0  0  0
 10 11  2  0  0  0  0
 10 17  1  0  0  0  0
 11 12  1  0  0  0  0
 12 13  1  0  0  0  0
 12 16  1  0  0  0  0
 13 14  2  0  0  0  0
 14 15  1  0  0  0  0
 15 16  2  0  0  0  0
 17 18  2  0  0  0  0
 17 22  1  0  0  0  0
 18 19  1  0  0  0  0
 19 20  2  0  0  0  0
 20 21  1  0  0  0  0
 21 22  2  0  0  0  0
 21 23  1  0  0  0  0
 23 24  2  0  0  0  0
 23 25  1  0  0  0  0
 25 26  1  0  0  0  0
 26 27  2  0  0  0  0
 26 31  1  0  0  0  0
 27 28  1  0  0  0  0
 28 29  2  0  0  0  0
 29 30  1  0  0  0  0
 29 32  1  0  0  0  0
 30 31  2  0  0  0  0
 32 33  2  0  0  0  0
 32 34  1  0  0  0  0
 34 35  1  0  0  0  0
 35 36  2  0  0  0  0
 35 37  2  0  0  0  0
 35 38  1  0  0  0  0
 39 40  2  0  0  0  0
 40 41  1  0  0  0  0
 41 42  1  0  0  0  0
  1 43  1  0  0  0  0
  1 44  1  0  0  0  0
  1 45  1  0  0  0  0
  3 46  1  0  0  0  0
  4 47  1  0  0  0  0
  5 48  1  0  0  0  0
 11 49  1  0  0  0  0
 13 50  1  0  0  0  0
 14 51  1  0  0  0  0
 18 52  1  0  0  0  0
 19 53  1  0  0  0  0
 20 54  1  0  0  0  0
 22 55  1  0  0  0  0
 25 56  1  0  0  0  0
 27 57  1  0  0  0  0
 28 58  1  0  0  0  0
 30 59  1  0  0  0  0
 31 60  1  0  0  0  0
 34 61  1  0  0  0  0
 38 62  1  0  0  0  0
 38 63  1  0  0  0  0
 38 64  1  0  0  0  0
 39 65  1  0  0  0  0
 42 66  1  0  0  0  0
 42 67  1  0  0  0  0
 42 68  1  0  0  0  0
M  END
> <IC50[nM]>
2.2

$$$$
CHEMBL3265000
  -OEChem-05192314333D
 Structure written by MMmdl.
 68 72  0     0  0  0  0  0  0999 V2000
   -4.2555   -3.1029   13.5707 C   0  0  0  0  0  0  0  0  0  0  0  0
   -3.8740   -2.3535   14.7166 O   0  0  0  0  0  0  0  0  0  0  0  0
   -2.5261   -2.1057   14.8053 C   0  0  0  0  0  0  0  0  0  0  0  0
   -1.7497   -2.8673   15.6804 C   0  0  0  0  0  0  0  0  0  0  0  0
   -0.3863   -2.6106   15.8150 C   0  0  0  0  0  0  0  0  0  0  0  0
    0.2220   -1.5829   15.0890 C   0  0  0  0  0  0  0  0  0  0  0  0
    1.5930   -1.3491   15.3060 N   0  0  0  0  0  0  0  0  0  0  0  0
    2.5452   -0.4689   14.7536 C   0  0  0  0  0  0  0  0  0  0  0  0
    2.2178    0.3551   13.7190 N   0  0  0  0  0  0  0  0  0  0  0  0
    3.1227    1.2406   13.2181 C   0  0  0  0  0  0  0  0  0  0  0  0
    4.4207    1.3039   13.7175 C   0  0  0  0  0  0  0  0  0  0  0  0
    4.7482    0.4921   14.7654 N   0  0  0  0  0  0  0  0  0  0  0  0
    5.8898    0.3836   15.5035 C   0  0  0  0  0  0  0  0  0  0  0  0
    5.5715   -0.5089   16.5177 C   0  0  0  0  0  0  0  0  0  0  0  0
    4.3818   -1.0543   16.3920 N   0  0  0  0  0  0  0  0  0  0  0  0
    3.8330   -0.4170   15.3252 C   0  0  0  0  0  0  0  0  0  0  0  0
    2.6564    2.1560   12.1340 C   0  0  0  0  0  0  0  0  0  0  0  0
    3.5566    2.6280   11.1666 C   0  0  0  0  0  0  0  0  0  0  0  0
    3.1294    3.4499   10.1277 C   0  0  0  0  0  0  0  0  0  0  0  0
    1.7879    3.8078   10.0318 C   0  0  0  0  0  0  0  0  0  0  0  0
    0.8660    3.3707   10.9895 C   0  0  0  0  0  0  0  0  0  0  0  0
    1.3140    2.5576   12.0419 C   0  0  0  0  0  0  0  0  0  0  0  0
   -0.5783    3.7648   10.8956 C   0  0  0  0  0  0  0  0  0  0  0  0
   -1.2780    3.6594    9.8925 O   0  0  0  0  0  0  0  0  0  0  0  0
   -1.0343    4.2553   12.0485 N   0  0  0  0  0  0  0  0  0  0  0  0
   -2.3943    4.7285   12.2897 C   0  0  0  0  0  0  0  0  0  0  0  0
   -2.6544    5.5820   13.3553 C   0  0  0  0  0  0  0  0  0  0  0  0
   -3.9490    6.0325   13.5849 C   0  0  0  0  0  0  0  0  0  0  0  0
   -4.9835    5.6294   12.7489 C   0  0  0  0  0  0  0  0  0  0  0  0
   -4.7235    4.7759   11.6833 C   0  0  0  0  0  0  0  0  0  0  0  0
   -3.4289    4.3254   11.4537 C   0  0  0  0  0  0  0  0  0  0  0  0
   -6.3808    6.1155   12.9967 C   0  0  0  0  0  0  0  0  0  0  0  0
   -7.3335    5.7936   12.2928 O   0  0  0  0  0  0  0  0  0  0  0  0
   -6.3969    6.9226   14.0705 N   0  0  0  0  0  0  0  0  0  0  0  0
   -7.9316    7.5992   14.5333 S   0  0  0  0  0  0  0  0  0  0  0  0
   -8.7871    6.4947   14.9809 O   0  0  0  0  0  0  0  0  0  0  0  0
   -8.3522    8.5161   13.4681 O   0  0  0  0  0  0  0  0  0  0  0  0
   -7.5285    8.5816   15.9619 C   0  0  0  0  0  0  0  0  0  0  0  0
   -0.5664   -0.8256   14.2115 C   0  0  0  0  0  0  0  0  0  0  0  0
   -1.9389   -1.0760   14.0580 C   0  0  0  0  0  0  0  0  0  0  0  0
   -2.6991   -0.3052   13.2021 O   0  0  0  0  0  0  0  0  0  0  0  0
   -2.0020    0.6746   12.5251 C   0  0  0  0  0  0  0  0  0  0  0  0
   -5.3448   -3.2555   13.5777 H   0  0  0  0  0  0  0  0  0  0  0  0
   -3.9681   -2.5543   12.6616 H   0  0  0  0  0  0  0  0  0  0  0  0
   -3.7486   -4.0790   13.5856 H   0  0  0  0  0  0  0  0  0  0  0  0
   -2.2073   -3.6587   16.2555 H   0  0  0  0  0  0  0  0  0  0  0  0
   -0.2118   -2.3897   16.8784 H   0  0  0  0  0  0  0  0  0  0  0  0
    0.1365   -3.5394   15.5428 H   0  0  0  0  0  0  0  0  0  0  0  0
    5.1484    1.9765   13.2880 H   0  0  0  0  0  0  0  0  0  0  0  0
    6.8331    0.8820   15.3359 H   0  0  0  0  0  0  0  0  0  0  0  0
    6.2400   -0.7347   17.3354 H   0  0  0  0  0  0  0  0  0  0  0  0
    4.5981    2.3490   11.2292 H   0  0  0  0  0  0  0  0  0  0  0  0
    3.8383    3.8096    9.3966 H   0  0  0  0  0  0  0  0  0  0  0  0
    1.4559    4.4276    9.2120 H   0  0  0  0  0  0  0  0  0  0  0  0
    0.6121    2.2342   12.7963 H   0  0  0  0  0  0  0  0  0  0  0  0
   -0.3906    4.3031   12.8123 H   0  0  0  0  0  0  0  0  0  0  0  0
   -1.8505    5.8952   14.0050 H   0  0  0  0  0  0  0  0  0  0  0  0
   -4.1511    6.6958   14.4129 H   0  0  0  0  0  0  0  0  0  0  0  0
   -5.5274    4.4627   11.0337 H   0  0  0  0  0  0  0  0  0  0  0  0
   -3.2268    3.6621   10.6257 H   0  0  0  0  0  0  0  0  0  0  0  0
   -5.5621    7.1259   14.5822 H   0  0  0  0  0  0  0  0  0  0  0  0
   -8.4399    9.0642   16.3447 H   0  0  0  0  0  0  0  0  0  0  0  0
   -7.1006    7.9352   16.7423 H   0  0  0  0  0  0  0  0  0  0  0  0
   -6.7956    9.3525   15.6817 H   0  0  0  0  0  0  0  0  0  0  0  0
   -0.1075   -0.0318   13.6408 H   0  0  0  0  0  0  0  0  0  0  0  0
   -2.6909    1.2310   11.8726 H   0  0  0  0  0  0  0  0  0  0  0  0
   -1.5443    1.3652   13.2487 H   0  0  0  0  0  0  0  0  0  0  0  0
   -1.2146    0.2087   11.9144 H   0  0  0  0  0  0  0  0  0  0  0  0
  1  2  1  0  0  0  0
  2  3  1  0  0  0  0
  3  4  2  0  0  0  0
  3 40  1  0  0  0  0
  4  5  1  0  0  0  0
  5  6  1  0  0  0  0
  6  7  2  0  0  0  0
  6 39  1  0  0  0  0
  7  8  1  0  0  0  0
  8  9  2  0  0  0  0
  8 16  1  0  0  0  0
  9 10  1  0  0  0  0
 10 11  2  0  0  0  0
 10 17  1  0  0  0  0
 11 12  1  0  0  0  0
 12 13  1  0  0  0  0
 12 16  1  0  0  0  0
 13 14  2  0  0  0  0
 14 15  1  0  0  0  0
 15 16  2  0  0  0  0
 17 18  2  0  0  0  0
 17 22  1  0  0  0  0
 18 19  1  0  0  0  0
 19 20  2  0  0  0  0
 20 21  1  0  0  0  0
 21 22  2  0  0  0  0
 21 23  1  0  0  0  0
 23 24  2  0  0  0  0
 23 25  1  0  0  0  0
 25 26  1  0  0  0  0
 26 27  2  0  0  0  0
 26 31  1  0  0  0  0
 27 28  1  0  0  0  0
 28 29  2  0  0  0  0
 29 30  1  0  0  0  0
 29 32  1  0  0  0  0
 30 31  2  0  0  0  0
 32 33  2  0  0  0  0
 32 34  1  0  0  0  0
 34 35  1  0  0  0  0
 35 36  2  0  0  0  0
 35 37  2  0  0  0  0
 35 38  1  0  0  0  0
 39 40  2  0  0  0  0
 40 41  1  0  0  0  0
 41 42  1  0  0  0  0
  1 43  1  0  0  0  0
  1 44  1  0  0  0  0
  1 45  1  0  0  0  0
  4 46  1  0  0  0  0
  5 47  1  0  0  0  0
  5 48  1  0  0  0  0
 11 49  1  0  0  0  0
 13 50  1  0  0  0  0
 14 51  1  0  0  0  0
 18 52  1  0  0  0  0
 19 53  1  0  0  0  0
 20 54  1  0  0  0  0
 22 55  1  0  0  0  0
 25 56  1  0  0  0  0
 27 57  1  0  0  0  0
 28 58  1  0  0  0  0
 30 59  1  0  0  0  0
 31 60  1  0  0  0  0
 34 61  1  0  0  0  0
 38 62  1  0  0  0  0
 38 63  1  0  0  0  0
 38 64  1  0  0  0  0
 39 65  1  0  0  0  0
 42 66  1  0  0  0  0
 42 67  1  0  0  0  0
 42 68  1  0  0  0  0
M  END
> <IC50[nM]>
2.2

$$$$
CHEMBL3265000
  -OEChem-05192314333D
 Structure written by MMmdl.
 68 72  0     0  0  0  0  0  0999 V2000
   -4.2555   -3.1029   13.5707 C   0  0  0  0  0  0  0  0  0  0  0  0
   -3.8740   -2.3535   14.7166 O   0  0  0  0  0  0  0  0  0  0  0  0
   -2.5261   -2.1057   14.8053 C   0  0  0  0  0  0  0  0  0  0  0  0
   -1.7497   -2.8673   15.6804 C   0  0  0  0  0  0  0  0  0  0  0  0
   -0.3863   -2.6106   15.8150 C   0  0  0  0  0  0  0  0  0  0  0  0
    0.2220   -1.5829   15.0890 C   0  0  0  0  0  0  0  0  0  0  0  0
    1.5930   -1.3491   15.3060 N   0  0  0  0  0  0  0  0  0  0  0  0
    2.5452   -0.4689   14.7536 C   0  0  0  0  0  0  0  0  0  0  0  0
    2.2178    0.3551   13.7190 N   0  0  0  0  0  0  0  0  0  0  0  0
    3.1227    1.2406   13.2181 C   0  0  0  0  0  0  0  0  0  0  0  0
    4.4207    1.3039   13.7175 C   0  0  0  0  0  0  0  0  0  0  0  0
    4.7482    0.4921   14.7654 N   0  0  0  0  0  0  0  0  0  0  0  0
    5.8898    0.3836   15.5035 C   0  0  0  0  0  0  0  0  0  0  0  0
    5.5715   -0.5089   16.5177 C   0  0  0  0  0  0  0  0  0  0  0  0
    4.3818   -1.0543   16.3920 N   0  0  0  0  0  0  0  0  0  0  0  0
    3.8330   -0.4170   15.3252 C   0  0  0  0  0  0  0  0  0  0  0  0
    2.6564    2.1560   12.1340 C   0  0  0  0  0  0  0  0  0  0  0  0
    3.5566    2.6280   11.1666 C   0  0  0  0  0  0  0  0  0  0  0  0
    3.1294    3.4499   10.1277 C   0  0  0  0  0  0  0  0  0  0  0  0
    1.7879    3.8078   10.0318 C   0  0  0  0  0  0  0  0  0  0  0  0
    0.8660    3.3707   10.9895 C   0  0  0  0  0  0  0  0  0  0  0  0
    1.3140    2.5576   12.0419 C   0  0  0  0  0  0  0  0  0  0  0  0
   -0.5783    3.7648   10.8956 C   0  0  0  0  0  0  0  0  0  0  0  0
   -1.2780    3.6594    9.8925 O   0  0  0  0  0  0  0  0  0  0  0  0
   -1.0343    4.2553   12.0485 N   0  0  0  0  0  0  0  0  0  0  0  0
   -2.3943    4.7285   12.2897 C   0  0  0  0  0  0  0  0  0  0  0  0
   -2.6544    5.5820   13.3553 C   0  0  0  0  0  0  0  0  0  0  0  0
   -3.9490    6.0325   13.5849 C   0  0  0  0  0  0  0  0  0  0  0  0
   -4.9835    5.6294   12.7489 C   0  0  0  0  0  0  0  0  0  0  0  0
   -4.7235    4.7759   11.6833 C   0  0  0  0  0  0  0  0  0  0  0  0
   -3.4289    4.3254   11.4537 C   0  0  0  0  0  0  0  0  0  0  0  0
   -6.3808    6.1155   12.9967 C   0  0  0  0  0  0  0  0  0  0  0  0
   -7.3335    5.7936   12.2928 O   0  0  0  0  0  0  0  0  0  0  0  0
   -6.3969    6.9226   14.0705 N   0  0  0  0  0  0  0  0  0  0  0  0
   -7.9316    7.5992   14.5333 S   0  0  0  0  0  0  0  0  0  0  0  0
   -8.7871    6.4947   14.9809 O   0  0  0  0  0  0  0  0  0  0  0  0
   -8.3522    8.5161   13.4681 O   0  0  0  0  0  0  0  0  0  0  0  0
   -7.5285    8.5816   15.9619 C   0  0  0  0  0  0  0  0  0  0  0  0
   -0.5664   -0.8256   14.2115 C   0  0  0  0  0  0  0  0  0  0  0  0
   -1.9389   -1.0760   14.0580 C   0  0  0  0  0  0  0  0  0  0  0  0
   -2.6991   -0.3052   13.2021 O   0  0  0  0  0  0  0  0  0  0  0  0
   -2.0020    0.6746   12.5251 C   0  0  0  0  0  0  0  0  0  0  0  0
   -5.3448   -3.2555   13.5777 H   0  0  0  0  0  0  0  0  0  0  0  0
   -3.9681   -2.5543   12.6616 H   0  0  0  0  0  0  0  0  0  0  0  0
   -3.7486   -4.0790   13.5856 H   0  0  0  0  0  0  0  0  0  0  0  0
   -2.2073   -3.6587   16.2555 H   0  0  0  0  0  0  0  0  0  0  0  0
    0.2066   -3.2125   16.4877 H   0  0  0  0  0  0  0  0  0  0  0  0
    5.1484    1.9765   13.2880 H   0  0  0  0  0  0  0  0  0  0  0  0
    6.8331    0.8820   15.3359 H   0  0  0  0  0  0  0  0  0  0  0  0
    6.2400   -0.7347   17.3354 H   0  0  0  0  0  0  0  0  0  0  0  0
    4.5981    2.3490   11.2292 H   0  0  0  0  0  0  0  0  0  0  0  0
    3.8383    3.8096    9.3966 H   0  0  0  0  0  0  0  0  0  0  0  0
    1.4559    4.4276    9.2120 H   0  0  0  0  0  0  0  0  0  0  0  0
    0.6121    2.2342   12.7963 H   0  0  0  0  0  0  0  0  0  0  0  0
   -0.3906    4.3031   12.8123 H   0  0  0  0  0  0  0  0  0  0  0  0
   -1.8505    5.8952   14.0050 H   0  0  0  0  0  0  0  0  0  0  0  0
   -4.1511    6.6958   14.4129 H   0  0  0  0  0  0  0  0  0  0  0  0
   -5.5274    4.4627   11.0337 H   0  0  0  0  0  0  0  0  0  0  0  0
   -3.2268    3.6621   10.6257 H   0  0  0  0  0  0  0  0  0  0  0  0
   -5.5621    7.1259   14.5822 H   0  0  0  0  0  0  0  0  0  0  0  0
   -8.4399    9.0642   16.3447 H   0  0  0  0  0  0  0  0  0  0  0  0
   -7.1006    7.9352   16.7423 H   0  0  0  0  0  0  0  0  0  0  0  0
   -6.7956    9.3525   15.6817 H   0  0  0  0  0  0  0  0  0  0  0  0
   -0.4764    0.2210   14.5379 H   0  0  0  0  0  0  0  0  0  0  0  0
   -0.1167   -0.9386   13.2140 H   0  0  0  0  0  0  0  0  0  0  0  0
   -2.6909    1.2310   11.8726 H   0  0  0  0  0  0  0  0  0  0  0  0
   -1.5443    1.3652   13.2487 H   0  0  0  0  0  0  0  0  0  0  0  0
   -1.2146    0.2087   11.9144 H   0  0  0  0  0  0  0  0  0  0  0  0
  1  2  1  0  0  0  0
  2  3  1  0  0  0  0
  3  4  1  0  0  0  0
  3 40  2  0  0  0  0
  4  5  2  0  0  0  0
  5  6  1  0  0  0  0
  6  7  2  0  0  0  0
  6 39  1  0  0  0  0
  7  8  1  0  0  0  0
  8  9  2  0  0  0  0
  8 16  1  0  0  0  0
  9 10  1  0  0  0  0
 10 11  2  0  0  0  0
 10 17  1  0  0  0  0
 11 12  1  0  0  0  0
 12 13  1  0  0  0  0
 12 16  1  0  0  0  0
 13 14  2  0  0  0  0
 14 15  1  0  0  0  0
 15 16  2  0  0  0  0
 17 18  2  0  0  0  0
 17 22  1  0  0  0  0
 18 19  1  0  0  0  0
 19 20  2  0  0  0  0
 20 21  1  0  0  0  0
 21 22  2  0  0  0  0
 21 23  1  0  0  0  0
 23 24  2  0  0  0  0
 23 25  1  0  0  0  0
 25 26  1  0  0  0  0
 26 27  2  0  0  0  0
 26 31  1  0  0  0  0
 27 28  1  0  0  0  0
 28 29  2  0  0  0  0
 29 30  1  0  0  0  0
 29 32  1  0  0  0  0
 30 31  2  0  0  0  0
 32 33  2  0  0  0  0
 32 34  1  0  0  0  0
 34 35  1  0  0  0  0
 35 36  2  0  0  0  0
 35 37  2  0  0  0  0
 35 38  1  0  0  0  0
 39 40  1  0  0  0  0
 40 41  1  0  0  0  0
 41 42  1  0  0  0  0
  1 43  1  0  0  0  0
  1 44  1  0  0  0  0
  1 45  1  0  0  0  0
  4 46  1  0  0  0  0
  5 47  1  0  0  0  0
 11 48  1  0  0  0  0
 13 49  1  0  0  0  0
 14 50  1  0  0  0  0
 18 51  1  0  0  0  0
 19 52  1  0  0  0  0
 20 53  1  0  0  0  0
 22 54  1  0  0  0  0
 25 55  1  0  0  0  0
 27 56  1  0  0  0  0
 28 57  1  0  0  0  0
 30 58  1  0  0  0  0
 31 59  1  0  0  0  0
 34 60  1  0  0  0  0
 38 61  1  0  0  0  0
 38 62  1  0  0  0  0
 38 63  1  0  0  0  0
 39 64  1  0  0  0  0
 39 65  1  0  0  0  0
 42 66  1  0  0  0  0
 42 67  1  0  0  0  0
 42 68  1  0  0  0  0
M  END
> <IC50[nM]>
2.2

$$$$
CHEMBL3265000
  -OEChem-05192314333D
 Structure written by MMmdl.
 68 72  0     0  0  0  0  0  0999 V2000
   -4.2555   -3.1029   13.5707 C   0  0  0  0  0  0  0  0  0  0  0  0
   -3.8740   -2.3535   14.7166 O   0  0  0  0  0  0  0  0  0  0  0  0
   -2.5261   -2.1057   14.8053 C   0  0  0  0  0  0  0  0  0  0  0  0
   -1.7497   -2.8673   15.6804 C   0  0  0  0  0  0  0  0  0  0  0  0
   -0.3863   -2.6106   15.8150 C   0  0  0  0  0  0  0  0  0  0  0  0
    0.2220   -1.5829   15.0890 C   0  0  0  0  0  0  0  0  0  0  0  0
    1.5930   -1.3491   15.3060 N   0  0  0  0  0  0  0  0  0  0  0  0
    2.5452   -0.4689   14.7536 C   0  0  0  0  0  0  0  0  0  0  0  0
    2.2178    0.3551   13.7190 N   0  0  0  0  0  0  0  0  0  0  0  0
    3.1227    1.2406   13.2181 C   0  0  0  0  0  0  0  0  0  0  0  0
    4.4207    1.3039   13.7175 C   0  0  0  0  0  0  0  0  0  0  0  0
    4.7482    0.4921   14.7654 N   0  0  0  0  0  0  0  0  0  0  0  0
    5.8898    0.3836   15.5035 C   0  0  0  0  0  0  0  0  0  0  0  0
    5.5715   -0.5089   16.5177 C   0  0  0  0  0  0  0  0  0  0  0  0
    4.3818   -1.0543   16.3920 N   0  0  0  0  0  0  0  0  0  0  0  0
    3.8330   -0.4170   15.3252 C   0  0  0  0  0  0  0  0  0  0  0  0
    2.6564    2.1560   12.1340 C   0  0  0  0  0  0  0  0  0  0  0  0
    3.5566    2.6280   11.1666 C   0  0  0  0  0  0  0  0  0  0  0  0
    3.1294    3.4499   10.1277 C   0  0  0  0  0  0  0  0  0  0  0  0
    1.7879    3.8078   10.0318 C   0  0  0  0  0  0  0  0  0  0  0  0
    0.8660    3.3707   10.9895 C   0  0  0  0  0  0  0  0  0  0  0  0
    1.3140    2.5576   12.0419 C   0  0  0  0  0  0  0  0  0  0  0  0
   -0.5783    3.7648   10.8956 C   0  0  0  0  0  0  0  0  0  0  0  0
   -1.2780    3.6594    9.8925 O   0  0  0  0  0  0  0  0  0  0  0  0
   -1.0343    4.2553   12.0485 N   0  0  0  0  0  0  0  0  0  0  0  0
   -2.3943    4.7285   12.2897 C   0  0  0  0  0  0  0  0  0  0  0  0
   -2.6544    5.5820   13.3553 C   0  0  0  0  0  0  0  0  0  0  0  0
   -3.9490    6.0325   13.5849 C   0  0  0  0  0  0  0  0  0  0  0  0
   -4.9835    5.6294   12.7489 C   0  0  0  0  0  0  0  0  0  0  0  0
   -4.7235    4.7759   11.6833 C   0  0  0  0  0  0  0  0  0  0  0  0
   -3.4289    4.3254   11.4537 C   0  0  0  0  0  0  0  0  0  0  0  0
   -6.3808    6.1155   12.9967 C   0  0  0  0  0  0  0  0  0  0  0  0
   -7.3335    5.7936   12.2928 O   0  0  0  0  0  0  0  0  0  0  0  0
   -6.3969    6.9226   14.0705 N   0  0  0  0  0  0  0  0  0  0  0  0
   -7.9316    7.5992   14.5333 S   0  0  0  0  0  0  0  0  0  0  0  0
   -8.7871    6.4947   14.9809 O   0  0  0  0  0  0  0  0  0  0  0  0
   -8.3522    8.5161   13.4681 O   0  0  0  0  0  0  0  0  0  0  0  0
   -7.5285    8.5816   15.9619 C   0  0  0  0  0  0  0  0  0  0  0  0
   -0.5664   -0.8256   14.2115 C   0  0  0  0  0  0  0  0  0  0  0  0
   -1.9389   -1.0760   14.0580 C   0  0  0  0  0  0  0  0  0  0  0  0
   -2.6991   -0.3052   13.2021 O   0  0  0  0  0  0  0  0  0  0  0  0
   -2.0020    0.6746   12.5251 C   0  0  0  0  0  0  0  0  0  0  0  0
   -5.3448   -3.2555   13.5777 H   0  0  0  0  0  0  0  0  0  0  0  0
   -3.9681   -2.5543   12.6616 H   0  0  0  0  0  0  0  0  0  0  0  0
   -3.7486   -4.0790   13.5856 H   0  0  0  0  0  0  0  0  0  0  0  0
   -2.2073   -3.6587   16.2555 H   0  0  0  0  0  0  0  0  0  0  0  0
    0.2066   -3.2125   16.4877 H   0  0  0  0  0  0  0  0  0  0  0  0
    1.9791   -1.9422   16.0125 H   0  0  0  0  0  0  0  0  0  0  0  0
    5.1484    1.9765   13.2880 H   0  0  0  0  0  0  0  0  0  0  0  0
    6.8331    0.8820   15.3359 H   0  0  0  0  0  0  0  0  0  0  0  0
    6.2400   -0.7347   17.3354 H   0  0  0  0  0  0  0  0  0  0  0  0
    4.5981    2.3490   11.2292 H   0  0  0  0  0  0  0  0  0  0  0  0
    3.8383    3.8096    9.3966 H   0  0  0  0  0  0  0  0  0  0  0  0
    1.4559    4.4276    9.2120 H   0  0  0  0  0  0  0  0  0  0  0  0
    0.6121    2.2342   12.7963 H   0  0  0  0  0  0  0  0  0  0  0  0
   -1.8505    5.8952   14.0050 H   0  0  0  0  0  0  0  0  0  0  0  0
   -4.1511    6.6958   14.4129 H   0  0  0  0  0  0  0  0  0  0  0  0
   -4.7968    6.4973   12.0993 H   0  0  0  0  0  0  0  0  0  0  0  0
   -5.5274    4.4627   11.0337 H   0  0  0  0  0  0  0  0  0  0  0  0
   -3.2268    3.6621   10.6257 H   0  0  0  0  0  0  0  0  0  0  0  0
   -5.5621    7.1259   14.5822 H   0  0  0  0  0  0  0  0  0  0  0  0
   -8.4399    9.0642   16.3447 H   0  0  0  0  0  0  0  0  0  0  0  0
   -7.1006    7.9352   16.7423 H   0  0  0  0  0  0  0  0  0  0  0  0
   -6.7956    9.3525   15.6817 H   0  0  0  0  0  0  0  0  0  0  0  0
   -0.1075   -0.0318   13.6408 H   0  0  0  0  0  0  0  0  0  0  0  0
   -2.6909    1.2310   11.8726 H   0  0  0  0  0  0  0  0  0  0  0  0
   -1.5443    1.3652   13.2487 H   0  0  0  0  0  0  0  0  0  0  0  0
   -1.2146    0.2087   11.9144 H   0  0  0  0  0  0  0  0  0  0  0  0
  1  2  1  0  0  0  0
  2  3  1  0  0  0  0
  3  4  2  0  0  0  0
  3 40  1  0  0  0  0
  4  5  1  0  0  0  0
  5  6  2  0  0  0  0
  6  7  1  0  0  0  0
  6 39  1  0  0  0  0
  7  8  1  0  0  0  0
  8  9  2  0  0  0  0
  8 16  1  0  0  0  0
  9 10  1  0  0  0  0
 10 11  2  0  0  0  0
 10 17  1  0  0  0  0
 11 12  1  0  0  0  0
 12 13  1  0  0  0  0
 12 16  1  0  0  0  0
 13 14  2  0  0  0  0
 14 15  1  0  0  0  0
 15 16  2  0  0  0  0
 17 18  2  0  0  0  0
 17 22  1  0  0  0  0
 18 19  1  0  0  0  0
 19 20  2  0  0  0  0
 20 21  1  0  0  0  0
 21 22  2  0  0  0  0
 21 23  1  0  0  0  0
 23 24  2  0  0  0  0
 23 25  1  0  0  0  0
 25 26  2  0  0  0  0
 26 27  1  0  0  0  0
 26 31  1  0  0  0  0
 27 28  2  0  0  0  0
 28 29  1  0  0  0  0
 29 30  1  0  0  0  0
 29 32  1  0  0  0  0
 30 31  2  0  0  0  0
 32 33  2  0  0  0  0
 32 34  1  0  0  0  0
 34 35  1  0  0  0  0
 35 36  2  0  0  0  0
 35 37  2  0  0  0  0
 35 38  1  0  0  0  0
 39 40  2  0  0  0  0
 40 41  1  0  0  0  0
 41 42  1  0  0  0  0
  1 43  1  0  0  0  0
  1 44  1  0  0  0  0
  1 45  1  0  0  0  0
  4 46  1  0  0  0  0
  5 47  1  0  0  0  0
  7 48  1  0  0  0  0
 11 49  1  0  0  0  0
 13 50  1  0  0  0  0
 14 51  1  0  0  0  0
 18 52  1  0  0  0  0
 19 53  1  0  0  0  0
 20 54  1  0  0  0  0
 22 55  1  0  0  0  0
 27 56  1  0  0  0  0
 28 57  1  0  0  0  0
 29 58  1  0  0  0  0
 30 59  1  0  0  0  0
 31 60  1  0  0  0  0
 34 61  1  0  0  0  0
 38 62  1  0  0  0  0
 38 63  1  0  0  0  0
 38 64  1  0  0  0  0
 39 65  1  0  0  0  0
 42 66  1  0  0  0  0
 42 67  1  0  0  0  0
 42 68  1  0  0  0  0
M  END
> <IC50[nM]>
2.2

$$$$
CHEMBL3265000
  -OEChem-05192314333D
 Structure written by MMmdl.
 68 72  0     0  0  0  0  0  0999 V2000
   -4.2555   -3.1029   13.5707 C   0  0  0  0  0  0  0  0  0  0  0  0
   -3.8740   -2.3535   14.7166 O   0  0  0  0  0  0  0  0  0  0  0  0
   -2.5261   -2.1057   14.8053 C   0  0  0  0  0  0  0  0  0  0  0  0
   -1.7497   -2.8673   15.6804 C   0  0  0  0  0  0  0  0  0  0  0  0
   -0.3863   -2.6106   15.8150 C   0  0  0  0  0  0  0  0  0  0  0  0
    0.2220   -1.5829   15.0890 C   0  0  0  0  0  0  0  0  0  0  0  0
    1.5930   -1.3491   15.3060 N   0  0  0  0  0  0  0  0  0  0  0  0
    2.5452   -0.4689   14.7536 C   0  0  0  0  0  0  0  0  0  0  0  0
    2.2178    0.3551   13.7190 N   0  0  0  0  0  0  0  0  0  0  0  0
    3.1227    1.2406   13.2181 C   0  0  0  0  0  0  0  0  0  0  0  0
    4.4207    1.3039   13.7175 C   0  0  0  0  0  0  0  0  0  0  0  0
    4.7482    0.4921   14.7654 N   0  0  0  0  0  0  0  0  0  0  0  0
    5.8898    0.3836   15.5035 C   0  0  0  0  0  0  0  0  0  0  0  0
    5.5715   -0.5089   16.5177 C   0  0  0  0  0  0  0  0  0  0  0  0
    4.3818   -1.0543   16.3920 N   0  0  0  0  0  0  0  0  0  0  0  0
    3.8330   -0.4170   15.3252 C   0  0  0  0  0  0  0  0  0  0  0  0
    2.6564    2.1560   12.1340 C   0  0  0  0  0  0  0  0  0  0  0  0
    3.5566    2.6280   11.1666 C   0  0  0  0  0  0  0  0  0  0  0  0
    3.1294    3.4499   10.1277 C   0  0  0  0  0  0  0  0  0  0  0  0
    1.7879    3.8078   10.0318 C   0  0  0  0  0  0  0  0  0  0  0  0
    0.8660    3.3707   10.9895 C   0  0  0  0  0  0  0  0  0  0  0  0
    1.3140    2.5576   12.0419 C   0  0  0  0  0  0  0  0  0  0  0  0
   -0.5783    3.7648   10.8956 C   0  0  0  0  0  0  0  0  0  0  0  0
   -1.2780    3.6594    9.8925 O   0  0  0  0  0  0  0  0  0  0  0  0
   -1.0343    4.2553   12.0485 N   0  0  0  0  0  0  0  0  0  0  0  0
   -2.3943    4.7285   12.2897 C   0  0  0  0  0  0  0  0  0  0  0  0
   -2.6544    5.5820   13.3553 C   0  0  0  0  0  0  0  0  0  0  0  0
   -3.9490    6.0325   13.5849 C   0  0  0  0  0  0  0  0  0  0  0  0
   -4.9835    5.6294   12.7489 C   0  0  0  0  0  0  0  0  0  0  0  0
   -4.7235    4.7759   11.6833 C   0  0  0  0  0  0  0  0  0  0  0  0
   -3.4289    4.3254   11.4537 C   0  0  0  0  0  0  0  0  0  0  0  0
   -6.3808    6.1155   12.9967 C   0  0  0  0  0  0  0  0  0  0  0  0
   -7.3335    5.7936   12.2928 O   0  0  0  0  0  0  0  0  0  0  0  0
   -6.3969    6.9226   14.0705 N   0  0  0  0  0  0  0  0  0  0  0  0
   -7.9316    7.5992   14.5333 S   0  0  0  0  0  0  0  0  0  0  0  0
   -8.7871    6.4947   14.9809 O   0  0  0  0  0  0  0  0  0  0  0  0
   -8.3522    8.5161   13.4681 O   0  0  0  0  0  0  0  0  0  0  0  0
   -7.5285    8.5816   15.9619 C   0  0  0  0  0  0  0  0  0  0  0  0
   -0.5664   -0.8256   14.2115 C   0  0  0  0  0  0  0  0  0  0  0  0
   -1.9389   -1.0760   14.0580 C   0  0  0  0  0  0  0  0  0  0  0  0
   -2.6991   -0.3052   13.2021 O   0  0  0  0  0  0  0  0  0  0  0  0
   -2.0020    0.6746   12.5251 C   0  0  0  0  0  0  0  0  0  0  0  0
   -5.3448   -3.2555   13.5777 H   0  0  0  0  0  0  0  0  0  0  0  0
   -3.9681   -2.5543   12.6616 H   0  0  0  0  0  0  0  0  0  0  0  0
   -3.7486   -4.0790   13.5856 H   0  0  0  0  0  0  0  0  0  0  0  0
   -2.2073   -3.6587   16.2555 H   0  0  0  0  0  0  0  0  0  0  0  0
    0.2066   -3.2125   16.4877 H   0  0  0  0  0  0  0  0  0  0  0  0
    1.9791   -1.9422   16.0125 H   0  0  0  0  0  0  0  0  0  0  0  0
    5.1484    1.9765   13.2880 H   0  0  0  0  0  0  0  0  0  0  0  0
    6.8331    0.8820   15.3359 H   0  0  0  0  0  0  0  0  0  0  0  0
    6.2400   -0.7347   17.3354 H   0  0  0  0  0  0  0  0  0  0  0  0
    4.5981    2.3490   11.2292 H   0  0  0  0  0  0  0  0  0  0  0  0
    3.8383    3.8096    9.3966 H   0  0  0  0  0  0  0  0  0  0  0  0
    1.4559    4.4276    9.2120 H   0  0  0  0  0  0  0  0  0  0  0  0
    0.6121    2.2342   12.7963 H   0  0  0  0  0  0  0  0  0  0  0  0
   -2.3342    5.0575   14.2677 H   0  0  0  0  0  0  0  0  0  0  0  0
   -2.0291    6.4748   13.2070 H   0  0  0  0  0  0  0  0  0  0  0  0
   -4.1511    6.6958   14.4129 H   0  0  0  0  0  0  0  0  0  0  0  0
   -5.5274    4.4627   11.0337 H   0  0  0  0  0  0  0  0  0  0  0  0
   -3.2268    3.6621   10.6257 H   0  0  0  0  0  0  0  0  0  0  0  0
   -5.5621    7.1259   14.5822 H   0  0  0  0  0  0  0  0  0  0  0  0
   -8.4399    9.0642   16.3447 H   0  0  0  0  0  0  0  0  0  0  0  0
   -7.1006    7.9352   16.7423 H   0  0  0  0  0  0  0  0  0  0  0  0
   -6.7956    9.3525   15.6817 H   0  0  0  0  0  0  0  0  0  0  0  0
   -0.1075   -0.0318   13.6408 H   0  0  0  0  0  0  0  0  0  0  0  0
   -2.6909    1.2310   11.8726 H   0  0  0  0  0  0  0  0  0  0  0  0
   -1.5443    1.3652   13.2487 H   0  0  0  0  0  0  0  0  0  0  0  0
   -1.2146    0.2087   11.9144 H   0  0  0  0  0  0  0  0  0  0  0  0
  1  2  1  0  0  0  0
  2  3  1  0  0  0  0
  3  4  2  0  0  0  0
  3 40  1  0  0  0  0
  4  5  1  0  0  0  0
  5  6  2  0  0  0  0
  6  7  1  0  0  0  0
  6 39  1  0  0  0  0
  7  8  1  0  0  0  0
  8  9  2  0  0  0  0
  8 16  1  0  0  0  0
  9 10  1  0  0  0  0
 10 11  2  0  0  0  0
 10 17  1  0  0  0  0
 11 12  1  0  0  0  0
 12 13  1  0  0  0  0
 12 16  1  0  0  0  0
 13 14  2  0  0  0  0
 14 15  1  0  0  0  0
 15 16  2  0  0  0  0
 17 18  2  0  0  0  0
 17 22  1  0  0  0  0
 18 19  1  0  0  0  0
 19 20  2  0  0  0  0
 20 21  1  0  0  0  0
 21 22  2  0  0  0  0
 21 23  1  0  0  0  0
 23 24  2  0  0  0  0
 23 25  1  0  0  0  0
 25 26  2  0  0  0  0
 26 27  1  0  0  0  0
 26 31  1  0  0  0  0
 27 28  1  0  0  0  0
 28 29  2  0  0  0  0
 29 30  1  0  0  0  0
 29 32  1  0  0  0  0
 30 31  2  0  0  0  0
 32 33  2  0  0  0  0
 32 34  1  0  0  0  0
 34 35  1  0  0  0  0
 35 36  2  0  0  0  0
 35 37  2  0  0  0  0
 35 38  1  0  0  0  0
 39 40  2  0  0  0  0
 40 41  1  0  0  0  0
 41 42  1  0  0  0  0
  1 43  1  0  0  0  0
  1 44  1  0  0  0  0
  1 45  1  0  0  0  0
  4 46  1  0  0  0  0
  5 47  1  0  0  0  0
  7 48  1  0  0  0  0
 11 49  1  0  0  0  0
 13 50  1  0  0  0  0
 14 51  1  0  0  0  0
 18 52  1  0  0  0  0
 19 53  1  0  0  0  0
 20 54  1  0  0  0  0
 22 55  1  0  0  0  0
 27 56  1  0  0  0  0
 27 57  1  0  0  0  0
 28 58  1  0  0  0  0
 30 59  1  0  0  0  0
 31 60  1  0  0  0  0
 34 61  1  0  0  0  0
 38 62  1  0  0  0  0
 38 63  1  0  0  0  0
 38 64  1  0  0  0  0
 39 65  1  0  0  0  0
 42 66  1  0  0  0  0
 42 67  1  0  0  0  0
 42 68  1  0  0  0  0
M  END
> <IC50[nM]>
2.2

$$$$
CHEMBL3265000
  -OEChem-05192314333D
 Structure written by MMmdl.
 68 72  0     1  0  0  0  0  0999 V2000
   -4.2555   -3.1029   13.5707 C   0  0  0  0  0  0  0  0  0  0  0  0
   -3.8740   -2.3535   14.7166 O   0  0  0  0  0  0  0  0  0  0  0  0
   -2.5261   -2.1057   14.8053 C   0  0  3  0  0  0  0  0  0  0  0  0
   -1.7497   -2.8673   15.6804 C   0  0  0  0  0  0  0  0  0  0  0  0
   -0.3863   -2.6106   15.8150 C   0  0  0  0  0  0  0  0  0  0  0  0
    0.2220   -1.5829   15.0890 C   0  0  0  0  0  0  0  0  0  0  0  0
    1.5930   -1.3491   15.3060 N   0  0  0  0  0  0  0  0  0  0  0  0
    2.5452   -0.4689   14.7536 C   0  0  0  0  0  0  0  0  0  0  0  0
    2.2178    0.3551   13.7190 N   0  0  0  0  0  0  0  0  0  0  0  0
    3.1227    1.2406   13.2181 C   0  0  0  0  0  0  0  0  0  0  0  0
    4.4207    1.3039   13.7175 C   0  0  0  0  0  0  0  0  0  0  0  0
    4.7482    0.4921   14.7654 N   0  0  0  0  0  0  0  0  0  0  0  0
    5.8898    0.3836   15.5035 C   0  0  0  0  0  0  0  0  0  0  0  0
    5.5715   -0.5089   16.5177 C   0  0  0  0  0  0  0  0  0  0  0  0
    4.3818   -1.0543   16.3920 N   0  0  0  0  0  0  0  0  0  0  0  0
    3.8330   -0.4170   15.3252 C   0  0  0  0  0  0  0  0  0  0  0  0
    2.6564    2.1560   12.1340 C   0  0  0  0  0  0  0  0  0  0  0  0
    3.5566    2.6280   11.1666 C   0  0  0  0  0  0  0  0  0  0  0  0
    3.1294    3.4499   10.1277 C   0  0  0  0  0  0  0  0  0  0  0  0
    1.7879    3.8078   10.0318 C   0  0  0  0  0  0  0  0  0  0  0  0
    0.8660    3.3707   10.9895 C   0  0  0  0  0  0  0  0  0  0  0  0
    1.3140    2.5576   12.0419 C   0  0  0  0  0  0  0  0  0  0  0  0
   -0.5783    3.7648   10.8956 C   0  0  0  0  0  0  0  0  0  0  0  0
   -1.2780    3.6594    9.8925 O   0  0  0  0  0  0  0  0  0  0  0  0
   -1.0343    4.2553   12.0485 N   0  0  0  0  0  0  0  0  0  0  0  0
   -2.3943    4.7285   12.2897 C   0  0  0  0  0  0  0  0  0  0  0  0
   -2.6544    5.5820   13.3553 C   0  0  0  0  0  0  0  0  0  0  0  0
   -3.9490    6.0325   13.5849 C   0  0  0  0  0  0  0  0  0  0  0  0
   -4.9835    5.6294   12.7489 C   0  0  0  0  0  0  0  0  0  0  0  0
   -4.7235    4.7759   11.6833 C   0  0  0  0  0  0  0  0  0  0  0  0
   -3.4289    4.3254   11.4537 C   0  0  0  0  0  0  0  0  0  0  0  0
   -6.3808    6.1155   12.9967 C   0  0  0  0  0  0  0  0  0  0  0  0
   -7.3335    5.7936   12.2928 O   0  0  0  0  0  0  0  0  0  0  0  0
   -6.3969    6.9226   14.0705 N   0  0  0  0  0  0  0  0  0  0  0  0
   -7.9316    7.5992   14.5333 S   0  0  0  0  0  0  0  0  0  0  0  0
   -8.7871    6.4947   14.9809 O   0  0  0  0  0  0  0  0  0  0  0  0
   -8.3522    8.5161   13.4681 O   0  0  0  0  0  0  0  0  0  0  0  0
   -7.5285    8.5816   15.9619 C   0  0  0  0  0  0  0  0  0  0  0  0
   -0.5664   -0.8256   14.2115 C   0  0  0  0  0  0  0  0  0  0  0  0
   -1.9389   -1.0760   14.0580 C   0  0  0  0  0  0  0  0  0  0  0  0
   -2.6991   -0.3052   13.2021 O   0  0  0  0  0  0  0  0  0  0  0  0
   -2.0020    0.6746   12.5251 C   0  0  0  0  0  0  0  0  0  0  0  0
   -5.3448   -3.2555   13.5777 H   0  0  0  0  0  0  0  0  0  0  0  0
   -3.9681   -2.5543   12.6616 H   0  0  0  0  0  0  0  0  0  0  0  0
   -3.7486   -4.0790   13.5856 H   0  0  0  0  0  0  0  0  0  0  0  0
   -2.3305   -2.8209   13.9928 H   0  0  0  0  0  0  0  0  0  0  0  0
   -2.2073   -3.6587   16.2555 H   0  0  0  0  0  0  0  0  0  0  0  0
    0.2066   -3.2125   16.4877 H   0  0  0  0  0  0  0  0  0  0  0  0
    5.1484    1.9765   13.2880 H   0  0  0  0  0  0  0  0  0  0  0  0
    6.8331    0.8820   15.3359 H   0  0  0  0  0  0  0  0  0  0  0  0
    6.2400   -0.7347   17.3354 H   0  0  0  0  0  0  0  0  0  0  0  0
    4.5981    2.3490   11.2292 H   0  0  0  0  0  0  0  0  0  0  0  0
    3.8383    3.8096    9.3966 H   0  0  0  0  0  0  0  0  0  0  0  0
    1.4559    4.4276    9.2120 H   0  0  0  0  0  0  0  0  0  0  0  0
    0.6121    2.2342   12.7963 H   0  0  0  0  0  0  0  0  0  0  0  0
   -0.3906    4.3031   12.8123 H   0  0  0  0  0  0  0  0  0  0  0  0
   -1.8505    5.8952   14.0050 H   0  0  0  0  0  0  0  0  0  0  0  0
   -4.1511    6.6958   14.4129 H   0  0  0  0  0  0  0  0  0  0  0  0
   -5.5274    4.4627   11.0337 H   0  0  0  0  0  0  0  0  0  0  0  0
   -3.2268    3.6621   10.6257 H   0  0  0  0  0  0  0  0  0  0  0  0
   -8.1235    6.2080   12.6194 H   0  0  0  0  0  0  0  0  0  0  0  0
   -8.4399    9.0642   16.3447 H   0  0  0  0  0  0  0  0  0  0  0  0
   -7.1006    7.9352   16.7423 H   0  0  0  0  0  0  0  0  0  0  0  0
   -6.7956    9.3525   15.6817 H   0  0  0  0  0  0  0  0  0  0  0  0
   -0.1075   -0.0318   13.6408 H   0  0  0  0  0  0  0  0  0  0  0  0
   -2.6909    1.2310   11.8726 H   0  0  0  0  0  0  0  0  0  0  0  0
   -1.5443    1.3652   13.2487 H   0  0  0  0  0  0  0  0  0  0  0  0
   -1.2146    0.2087   11.9144 H   0  0  0  0  0  0  0  0  0  0  0  0
  1  2  1  0  0  0  0
  2  3  1  0  0  0  0
  3  4  1  0  0  0  0
  3 40  1  0  0  0  0
  4  5  2  0  0  0  0
  5  6  1  0  0  0  0
  6  7  2  0  0  0  0
  6 39  1  0  0  0  0
  7  8  1  0  0  0  0
  8  9  2  0  0  0  0
  8 16  1  0  0  0  0
  9 10  1  0  0  0  0
 10 11  2  0  0  0  0
 10 17  1  0  0  0  0
 11 12  1  0  0  0  0
 12 13  1  0  0  0  0
 12 16  1  0  0  0  0
 13 14  2  0  0  0  0
 14 15  1  0  0  0  0
 15 16  2  0  0  0  0
 17 18  2  0  0  0  0
 17 22  1  0  0  0  0
 18 19  1  0  0  0  0
 19 20  2  0  0  0  0
 20 21  1  0  0  0  0
 21 22  2  0  0  0  0
 21 23  1  0  0  0  0
 23 24  2  0  0  0  0
 23 25  1  0  0  0  0
 25 26  1  0  0  0  0
 26 27  2  0  0  0  0
 26 31  1  0  0  0  0
 27 28  1  0  0  0  0
 28 29  2  0  0  0  0
 29 30  1  0  0  0  0
 29 32  1  0  0  0  0
 30 31  2  0  0  0  0
 32 33  1  0  0  0  0
 32 34  2  0  0  0  0
 34 35  1  0  0  0  0
 35 36  2  0  0  0  0
 35 37  2  0  0  0  0
 35 38  1  0  0  0  0
 39 40  2  0  0  0  0
 40 41  1  0  0  0  0
 41 42  1  0  0  0  0
  1 43  1  0  0  0  0
  1 44  1  0  0  0  0
  1 45  1  0  0  0  0
  3 46  1  0  0  0  0
  4 47  1  0  0  0  0
  5 48  1  0  0  0  0
 11 49  1  0  0  0  0
 13 50  1  0  0  0  0
 14 51  1  0  0  0  0
 18 52  1  0  0  0  0
 19 53  1  0  0  0  0
 20 54  1  0  0  0  0
 22 55  1  0  0  0  0
 25 56  1  0  0  0  0
 27 57  1  0  0  0  0
 28 58  1  0  0  0  0
 30 59  1  0  0  0  0
 31 60  1  0  0  0  0
 33 61  1  0  0  0  0
 38 62  1  0  0  0  0
 38 63  1  0  0  0  0
 38 64  1  0  0  0  0
 39 65  1  0  0  0  0
 42 66  1  0  0  0  0
 42 67  1  0  0  0  0
 42 68  1  0  0  0  0
M  END
> <IC50[nM]>
2.2

$$$$
CHEMBL3265000
  -OEChem-05192314333D
 Structure written by MMmdl.
 68 72  0     1  0  0  0  0  0999 V2000
   -4.2555   -3.1029   13.5707 C   0  0  0  0  0  0  0  0  0  0  0  0
   -3.8740   -2.3535   14.7166 O   0  0  0  0  0  0  0  0  0  0  0  0
   -2.5261   -2.1057   14.8053 C   0  0  3  0  0  0  0  0  0  0  0  0
   -1.7497   -2.8673   15.6804 C   0  0  0  0  0  0  0  0  0  0  0  0
   -0.3863   -2.6106   15.8150 C   0  0  0  0  0  0  0  0  0  0  0  0
    0.2220   -1.5829   15.0890 C   0  0  0  0  0  0  0  0  0  0  0  0
    1.5930   -1.3491   15.3060 N   0  0  0  0  0  0  0  0  0  0  0  0
    2.5452   -0.4689   14.7536 C   0  0  0  0  0  0  0  0  0  0  0  0
    2.2178    0.3551   13.7190 N   0  0  0  0  0  0  0  0  0  0  0  0
    3.1227    1.2406   13.2181 C   0  0  0  0  0  0  0  0  0  0  0  0
    4.4207    1.3039   13.7175 C   0  0  0  0  0  0  0  0  0  0  0  0
    4.7482    0.4921   14.7654 N   0  0  0  0  0  0  0  0  0  0  0  0
    5.8898    0.3836   15.5035 C   0  0  0  0  0  0  0  0  0  0  0  0
    5.5715   -0.5089   16.5177 C   0  0  0  0  0  0  0  0  0  0  0  0
    4.3818   -1.0543   16.3920 N   0  0  0  0  0  0  0  0  0  0  0  0
    3.8330   -0.4170   15.3252 C   0  0  0  0  0  0  0  0  0  0  0  0
    2.6564    2.1560   12.1340 C   0  0  0  0  0  0  0  0  0  0  0  0
    3.5566    2.6280   11.1666 C   0  0  0  0  0  0  0  0  0  0  0  0
    3.1294    3.4499   10.1277 C   0  0  0  0  0  0  0  0  0  0  0  0
    1.7879    3.8078   10.0318 C   0  0  0  0  0  0  0  0  0  0  0  0
    0.8660    3.3707   10.9895 C   0  0  0  0  0  0  0  0  0  0  0  0
    1.3140    2.5576   12.0419 C   0  0  0  0  0  0  0  0  0  0  0  0
   -0.5783    3.7648   10.8956 C   0  0  0  0  0  0  0  0  0  0  0  0
   -1.2780    3.6594    9.8925 O   0  0  0  0  0  0  0  0  0  0  0  0
   -1.0343    4.2553   12.0485 N   0  0  0  0  0  0  0  0  0  0  0  0
   -2.3943    4.7285   12.2897 C   0  0  0  0  0  0  0  0  0  0  0  0
   -2.6544    5.5820   13.3553 C   0  0  0  0  0  0  0  0  0  0  0  0
   -3.9490    6.0325   13.5849 C   0  0  0  0  0  0  0  0  0  0  0  0
   -4.9835    5.6294   12.7489 C   0  0  0  0  0  0  0  0  0  0  0  0
   -4.7235    4.7759   11.6833 C   0  0  0  0  0  0  0  0  0  0  0  0
   -3.4289    4.3254   11.4537 C   0  0  0  0  0  0  0  0  0  0  0  0
   -6.3808    6.1155   12.9967 C   0  0  0  0  0  0  0  0  0  0  0  0
   -7.3335    5.7936   12.2928 O   0  0  0  0  0  0  0  0  0  0  0  0
   -6.3969    6.9226   14.0705 N   0  0  0  0  0  0  0  0  0  0  0  0
   -7.9316    7.5992   14.5333 S   0  0  0  0  0  0  0  0  0  0  0  0
   -8.7871    6.4947   14.9809 O   0  0  0  0  0  0  0  0  0  0  0  0
   -8.3522    8.5161   13.4681 O   0  0  0  0  0  0  0  0  0  0  0  0
   -7.5285    8.5816   15.9619 C   0  0  0  0  0  0  0  0  0  0  0  0
   -0.5664   -0.8256   14.2115 C   0  0  0  0  0  0  0  0  0  0  0  0
   -1.9389   -1.0760   14.0580 C   0  0  0  0  0  0  0  0  0  0  0  0
   -2.6991   -0.3052   13.2021 O   0  0  0  0  0  0  0  0  0  0  0  0
   -2.0020    0.6746   12.5251 C   0  0  0  0  0  0  0  0  0  0  0  0
   -5.3448   -3.2555   13.5777 H   0  0  0  0  0  0  0  0  0  0  0  0
   -3.9681   -2.5543   12.6616 H   0  0  0  0  0  0  0  0  0  0  0  0
   -3.7486   -4.0790   13.5856 H   0  0  0  0  0  0  0  0  0  0  0  0
   -2.3305   -2.8209   13.9928 H   0  0  0  0  0  0  0  0  0  0  0  0
   -2.2073   -3.6587   16.2555 H   0  0  0  0  0  0  0  0  0  0  0  0
    0.2066   -3.2125   16.4877 H   0  0  0  0  0  0  0  0  0  0  0  0
    5.1484    1.9765   13.2880 H   0  0  0  0  0  0  0  0  0  0  0  0
    6.8331    0.8820   15.3359 H   0  0  0  0  0  0  0  0  0  0  0  0
    6.2400   -0.7347   17.3354 H   0  0  0  0  0  0  0  0  0  0  0  0
    4.5981    2.3490   11.2292 H   0  0  0  0  0  0  0  0  0  0  0  0
    3.8383    3.8096    9.3966 H   0  0  0  0  0  0  0  0  0  0  0  0
    1.4559    4.4276    9.2120 H   0  0  0  0  0  0  0  0  0  0  0  0
    0.6121    2.2342   12.7963 H   0  0  0  0  0  0  0  0  0  0  0  0
   -2.1538    3.9747   10.0822 H   0  0  0  0  0  0  0  0  0  0  0  0
   -1.8505    5.8952   14.0050 H   0  0  0  0  0  0  0  0  0  0  0  0
   -4.1511    6.6958   14.4129 H   0  0  0  0  0  0  0  0  0  0  0  0
   -5.5274    4.4627   11.0337 H   0  0  0  0  0  0  0  0  0  0  0  0
   -3.2268    3.6621   10.6257 H   0  0  0  0  0  0  0  0  0  0  0  0
   -5.5621    7.1259   14.5822 H   0  0  0  0  0  0  0  0  0  0  0  0
   -8.4399    9.0642   16.3447 H   0  0  0  0  0  0  0  0  0  0  0  0
   -7.1006    7.9352   16.7423 H   0  0  0  0  0  0  0  0  0  0  0  0
   -6.7956    9.3525   15.6817 H   0  0  0  0  0  0  0  0  0  0  0  0
   -0.1075   -0.0318   13.6408 H   0  0  0  0  0  0  0  0  0  0  0  0
   -2.6909    1.2310   11.8726 H   0  0  0  0  0  0  0  0  0  0  0  0
   -1.5443    1.3652   13.2487 H   0  0  0  0  0  0  0  0  0  0  0  0
   -1.2146    0.2087   11.9144 H   0  0  0  0  0  0  0  0  0  0  0  0
  1  2  1  0  0  0  0
  2  3  1  0  0  0  0
  3  4  1  0  0  0  0
  3 40  1  0  0  0  0
  4  5  2  0  0  0  0
  5  6  1  0  0  0  0
  6  7  2  0  0  0  0
  6 39  1  0  0  0  0
  7  8  1  0  0  0  0
  8  9  2  0  0  0  0
  8 16  1  0  0  0  0
  9 10  1  0  0  0  0
 10 11  2  0  0  0  0
 10 17  1  0  0  0  0
 11 12  1  0  0  0  0
 12 13  1  0  0  0  0
 12 16  1  0  0  0  0
 13 14  2  0  0  0  0
 14 15  1  0  0  0  0
 15 16  2  0  0  0  0
 17 18  2  0  0  0  0
 17 22  1  0  0  0  0
 18 19  1  0  0  0  0
 19 20  2  0  0  0  0
 20 21  1  0  0  0  0
 21 22  2  0  0  0  0
 21 23  1  0  0  0  0
 23 24  1  0  0  0  0
 23 25  2  0  0  0  0
 25 26  1  0  0  0  0
 26 27  2  0  0  0  0
 26 31  1  0  0  0  0
 27 28  1  0  0  0  0
 28 29  2  0  0  0  0
 29 30  1  0  0  0  0
 29 32  1  0  0  0  0
 30 31  2  0  0  0  0
 32 33  2  0  0  0  0
 32 34  1  0  0  0  0
 34 35  1  0  0  0  0
 35 36  2  0  0  0  0
 35 37  2  0  0  0  0
 35 38  1  0  0  0  0
 39 40  2  0  0  0  0
 40 41  1  0  0  0  0
 41 42  1  0  0  0  0
  1 43  1  0  0  0  0
  1 44  1  0  0  0  0
  1 45  1  0  0  0  0
  3 46  1  0  0  0  0
  4 47  1  0  0  0  0
  5 48  1  0  0  0  0
 11 49  1  0  0  0  0
 13 50  1  0  0  0  0
 14 51  1  0  0  0  0
 18 52  1  0  0  0  0
 19 53  1  0  0  0  0
 20 54  1  0  0  0  0
 22 55  1  0  0  0  0
 24 56  1  0  0  0  0
 27 57  1  0  0  0  0
 28 58  1  0  0  0  0
 30 59  1  0  0  0  0
 31 60  1  0  0  0  0
 34 61  1  0  0  0  0
 38 62  1  0  0  0  0
 38 63  1  0  0  0  0
 38 64  1  0  0  0  0
 39 65  1  0  0  0  0
 42 66  1  0  0  0  0
 42 67  1  0  0  0  0
 42 68  1  0  0  0  0
M  END
> <IC50[nM]>
2.2

$$$$
CHEMBL3265000
  -OEChem-05192314333D
 Structure written by MMmdl.
 68 72  0     0  0  0  0  0  0999 V2000
   -4.2555   -3.1029   13.5707 C   0  0  0  0  0  0  0  0  0  0  0  0
   -3.8740   -2.3535   14.7166 O   0  0  0  0  0  0  0  0  0  0  0  0
   -2.5261   -2.1057   14.8053 C   0  0  0  0  0  0  0  0  0  0  0  0
   -1.7497   -2.8673   15.6804 C   0  0  0  0  0  0  0  0  0  0  0  0
   -0.3863   -2.6106   15.8150 C   0  0  0  0  0  0  0  0  0  0  0  0
    0.2220   -1.5829   15.0890 C   0  0  0  0  0  0  0  0  0  0  0  0
    1.5930   -1.3491   15.3060 N   0  0  0  0  0  0  0  0  0  0  0  0
    2.5452   -0.4689   14.7536 C   0  0  0  0  0  0  0  0  0  0  0  0
    2.2178    0.3551   13.7190 N   0  0  0  0  0  0  0  0  0  0  0  0
    3.1227    1.2406   13.2181 C   0  0  0  0  0  0  0  0  0  0  0  0
    4.4207    1.3039   13.7175 C   0  0  0  0  0  0  0  0  0  0  0  0
    4.7482    0.4921   14.7654 N   0  0  0  0  0  0  0  0  0  0  0  0
    5.8898    0.3836   15.5035 C   0  0  0  0  0  0  0  0  0  0  0  0
    5.5715   -0.5089   16.5177 C   0  0  0  0  0  0  0  0  0  0  0  0
    4.3818   -1.0543   16.3920 N   0  0  0  0  0  0  0  0  0  0  0  0
    3.8330   -0.4170   15.3252 C   0  0  0  0  0  0  0  0  0  0  0  0
    2.6564    2.1560   12.1340 C   0  0  0  0  0  0  0  0  0  0  0  0
    3.5566    2.6280   11.1666 C   0  0  0  0  0  0  0  0  0  0  0  0
    3.1294    3.4499   10.1277 C   0  0  0  0  0  0  0  0  0  0  0  0
    1.7879    3.8078   10.0318 C   0  0  0  0  0  0  0  0  0  0  0  0
    0.8660    3.3707   10.9895 C   0  0  0  0  0  0  0  0  0  0  0  0
    1.3140    2.5576   12.0419 C   0  0  0  0  0  0  0  0  0  0  0  0
   -0.5783    3.7648   10.8956 C   0  0  0  0  0  0  0  0  0  0  0  0
   -1.2780    3.6594    9.8925 O   0  0  0  0  0  0  0  0  0  0  0  0
   -1.0343    4.2553   12.0485 N   0  0  0  0  0  0  0  0  0  0  0  0
   -2.3943    4.7285   12.2897 C   0  0  0  0  0  0  0  0  0  0  0  0
   -2.6544    5.5820   13.3553 C   0  0  0  0  0  0  0  0  0  0  0  0
   -3.9490    6.0325   13.5849 C   0  0  0  0  0  0  0  0  0  0  0  0
   -4.9835    5.6294   12.7489 C   0  0  0  0  0  0  0  0  0  0  0  0
   -4.7235    4.7759   11.6833 C   0  0  0  0  0  0  0  0  0  0  0  0
   -3.4289    4.3254   11.4537 C   0  0  0  0  0  0  0  0  0  0  0  0
   -6.3808    6.1155   12.9967 C   0  0  0  0  0  0  0  0  0  0  0  0
   -7.3335    5.7936   12.2928 O   0  0  0  0  0  0  0  0  0  0  0  0
   -6.3969    6.9226   14.0705 N   0  0  0  0  0  0  0  0  0  0  0  0
   -7.9316    7.5992   14.5333 S   0  0  0  0  0  0  0  0  0  0  0  0
   -8.7871    6.4947   14.9809 O   0  0  0  0  0  0  0  0  0  0  0  0
   -8.3522    8.5161   13.4681 O   0  0  0  0  0  0  0  0  0  0  0  0
   -7.5285    8.5816   15.9619 C   0  0  0  0  0  0  0  0  0  0  0  0
   -0.5664   -0.8256   14.2115 C   0  0  0  0  0  0  0  0  0  0  0  0
   -1.9389   -1.0760   14.0580 C   0  0  0  0  0  0  0  0  0  0  0  0
   -2.6991   -0.3052   13.2021 O   0  0  0  0  0  0  0  0  0  0  0  0
   -2.0020    0.6746   12.5251 C   0  0  0  0  0  0  0  0  0  0  0  0
   -5.3448   -3.2555   13.5777 H   0  0  0  0  0  0  0  0  0  0  0  0
   -3.9681   -2.5543   12.6616 H   0  0  0  0  0  0  0  0  0  0  0  0
   -3.7486   -4.0790   13.5856 H   0  0  0  0  0  0  0  0  0  0  0  0
   -2.2073   -3.6587   16.2555 H   0  0  0  0  0  0  0  0  0  0  0  0
   -0.2118   -2.3897   16.8784 H   0  0  0  0  0  0  0  0  0  0  0  0
    0.1365   -3.5394   15.5428 H   0  0  0  0  0  0  0  0  0  0  0  0
    5.1484    1.9765   13.2880 H   0  0  0  0  0  0  0  0  0  0  0  0
    6.8331    0.8820   15.3359 H   0  0  0  0  0  0  0  0  0  0  0  0
    6.2400   -0.7347   17.3354 H   0  0  0  0  0  0  0  0  0  0  0  0
    4.5981    2.3490   11.2292 H   0  0  0  0  0  0  0  0  0  0  0  0
    3.8383    3.8096    9.3966 H   0  0  0  0  0  0  0  0  0  0  0  0
    1.4559    4.4276    9.2120 H   0  0  0  0  0  0  0  0  0  0  0  0
    0.6121    2.2342   12.7963 H   0  0  0  0  0  0  0  0  0  0  0  0
   -0.3906    4.3031   12.8123 H   0  0  0  0  0  0  0  0  0  0  0  0
   -1.8505    5.8952   14.0050 H   0  0  0  0  0  0  0  0  0  0  0  0
   -4.1511    6.6958   14.4129 H   0  0  0  0  0  0  0  0  0  0  0  0
   -5.5274    4.4627   11.0337 H   0  0  0  0  0  0  0  0  0  0  0  0
   -3.2268    3.6621   10.6257 H   0  0  0  0  0  0  0  0  0  0  0  0
   -8.1235    6.2080   12.6194 H   0  0  0  0  0  0  0  0  0  0  0  0
   -8.4399    9.0642   16.3447 H   0  0  0  0  0  0  0  0  0  0  0  0
   -7.1006    7.9352   16.7423 H   0  0  0  0  0  0  0  0  0  0  0  0
   -6.7956    9.3525   15.6817 H   0  0  0  0  0  0  0  0  0  0  0  0
   -0.1075   -0.0318   13.6408 H   0  0  0  0  0  0  0  0  0  0  0  0
   -2.6909    1.2310   11.8726 H   0  0  0  0  0  0  0  0  0  0  0  0
   -1.5443    1.3652   13.2487 H   0  0  0  0  0  0  0  0  0  0  0  0
   -1.2146    0.2087   11.9144 H   0  0  0  0  0  0  0  0  0  0  0  0
  1  2  1  0  0  0  0
  2  3  1  0  0  0  0
  3  4  2  0  0  0  0
  3 40  1  0  0  0  0
  4  5  1  0  0  0  0
  5  6  1  0  0  0  0
  6  7  2  0  0  0  0
  6 39  1  0  0  0  0
  7  8  1  0  0  0  0
  8  9  2  0  0  0  0
  8 16  1  0  0  0  0
  9 10  1  0  0  0  0
 10 11  2  0  0  0  0
 10 17  1  0  0  0  0
 11 12  1  0  0  0  0
 12 13  1  0  0  0  0
 12 16  1  0  0  0  0
 13 14  2  0  0  0  0
 14 15  1  0  0  0  0
 15 16  2  0  0  0  0
 17 18  2  0  0  0  0
 17 22  1  0  0  0  0
 18 19  1  0  0  0  0
 19 20  2  0  0  0  0
 20 21  1  0  0  0  0
 21 22  2  0  0  0  0
 21 23  1  0  0  0  0
 23 24  2  0  0  0  0
 23 25  1  0  0  0  0
 25 26  1  0  0  0  0
 26 27  2  0  0  0  0
 26 31  1  0  0  0  0
 27 28  1  0  0  0  0
 28 29  2  0  0  0  0
 29 30  1  0  0  0  0
 29 32  1  0  0  0  0
 30 31  2  0  0  0  0
 32 33  1  0  0  0  0
 32 34  2  0  0  0  0
 34 35  1  0  0  0  0
 35 36  2  0  0  0  0
 35 37  2  0  0  0  0
 35 38  1  0  0  0  0
 39 40  2  0  0  0  0
 40 41  1  0  0  0  0
 41 42  1  0  0  0  0
  1 43  1  0  0  0  0
  1 44  1  0  0  0  0
  1 45  1  0  0  0  0
  4 46  1  0  0  0  0
  5 47  1  0  0  0  0
  5 48  1  0  0  0  0
 11 49  1  0  0  0  0
 13 50  1  0  0  0  0
 14 51  1  0  0  0  0
 18 52  1  0  0  0  0
 19 53  1  0  0  0  0
 20 54  1  0  0  0  0
 22 55  1  0  0  0  0
 25 56  1  0  0  0  0
 27 57  1  0  0  0  0
 28 58  1  0  0  0  0
 30 59  1  0  0  0  0
 31 60  1  0  0  0  0
 33 61  1  0  0  0  0
 38 62  1  0  0  0  0
 38 63  1  0  0  0  0
 38 64  1  0  0  0  0
 39 65  1  0  0  0  0
 42 66  1  0  0  0  0
 42 67  1  0  0  0  0
 42 68  1  0  0  0  0
M  END
> <IC50[nM]>
2.2

$$$$
CHEMBL3265000
  -OEChem-05192314333D
 Structure written by MMmdl.
 68 72  0     0  0  0  0  0  0999 V2000
   -4.2555   -3.1029   13.5707 C   0  0  0  0  0  0  0  0  0  0  0  0
   -3.8740   -2.3535   14.7166 O   0  0  0  0  0  0  0  0  0  0  0  0
   -2.5261   -2.1057   14.8053 C   0  0  0  0  0  0  0  0  0  0  0  0
   -1.7497   -2.8673   15.6804 C   0  0  0  0  0  0  0  0  0  0  0  0
   -0.3863   -2.6106   15.8150 C   0  0  0  0  0  0  0  0  0  0  0  0
    0.2220   -1.5829   15.0890 C   0  0  0  0  0  0  0  0  0  0  0  0
    1.5930   -1.3491   15.3060 N   0  0  0  0  0  0  0  0  0  0  0  0
    2.5452   -0.4689   14.7536 C   0  0  0  0  0  0  0  0  0  0  0  0
    2.2178    0.3551   13.7190 N   0  0  0  0  0  0  0  0  0  0  0  0
    3.1227    1.2406   13.2181 C   0  0  0  0  0  0  0  0  0  0  0  0
    4.4207    1.3039   13.7175 C   0  0  0  0  0  0  0  0  0  0  0  0
    4.7482    0.4921   14.7654 N   0  0  0  0  0  0  0  0  0  0  0  0
    5.8898    0.3836   15.5035 C   0  0  0  0  0  0  0  0  0  0  0  0
    5.5715   -0.5089   16.5177 C   0  0  0  0  0  0  0  0  0  0  0  0
    4.3818   -1.0543   16.3920 N   0  0  0  0  0  0  0  0  0  0  0  0
    3.8330   -0.4170   15.3252 C   0  0  0  0  0  0  0  0  0  0  0  0
    2.6564    2.1560   12.1340 C   0  0  0  0  0  0  0  0  0  0  0  0
    3.5566    2.6280   11.1666 C   0  0  0  0  0  0  0  0  0  0  0  0
    3.1294    3.4499   10.1277 C   0  0  0  0  0  0  0  0  0  0  0  0
    1.7879    3.8078   10.0318 C   0  0  0  0  0  0  0  0  0  0  0  0
    0.8660    3.3707   10.9895 C   0  0  0  0  0  0  0  0  0  0  0  0
    1.3140    2.5576   12.0419 C   0  0  0  0  0  0  0  0  0  0  0  0
   -0.5783    3.7648   10.8956 C   0  0  0  0  0  0  0  0  0  0  0  0
   -1.2780    3.6594    9.8925 O   0  0  0  0  0  0  0  0  0  0  0  0
   -1.0343    4.2553   12.0485 N   0  0  0  0  0  0  0  0  0  0  0  0
   -2.3943    4.7285   12.2897 C   0  0  0  0  0  0  0  0  0  0  0  0
   -2.6544    5.5820   13.3553 C   0  0  0  0  0  0  0  0  0  0  0  0
   -3.9490    6.0325   13.5849 C   0  0  0  0  0  0  0  0  0  0  0  0
   -4.9835    5.6294   12.7489 C   0  0  0  0  0  0  0  0  0  0  0  0
   -4.7235    4.7759   11.6833 C   0  0  0  0  0  0  0  0  0  0  0  0
   -3.4289    4.3254   11.4537 C   0  0  0  0  0  0  0  0  0  0  0  0
   -6.3808    6.1155   12.9967 C   0  0  0  0  0  0  0  0  0  0  0  0
   -7.3335    5.7936   12.2928 O   0  0  0  0  0  0  0  0  0  0  0  0
   -6.3969    6.9226   14.0705 N   0  0  0  0  0  0  0  0  0  0  0  0
   -7.9316    7.5992   14.5333 S   0  0  0  0  0  0  0  0  0  0  0  0
   -8.7871    6.4947   14.9809 O   0  0  0  0  0  0  0  0  0  0  0  0
   -8.3522    8.5161   13.4681 O   0  0  0  0  0  0  0  0  0  0  0  0
   -7.5285    8.5816   15.9619 C   0  0  0  0  0  0  0  0  0  0  0  0
   -0.5664   -0.8256   14.2115 C   0  0  0  0  0  0  0  0  0  0  0  0
   -1.9389   -1.0760   14.0580 C   0  0  0  0  0  0  0  0  0  0  0  0
   -2.6991   -0.3052   13.2021 O   0  0  0  0  0  0  0  0  0  0  0  0
   -2.0020    0.6746   12.5251 C   0  0  0  0  0  0  0  0  0  0  0  0
   -5.3448   -3.2555   13.5777 H   0  0  0  0  0  0  0  0  0  0  0  0
   -3.9681   -2.5543   12.6616 H   0  0  0  0  0  0  0  0  0  0  0  0
   -3.7486   -4.0790   13.5856 H   0  0  0  0  0  0  0  0  0  0  0  0
   -2.2073   -3.6587   16.2555 H   0  0  0  0  0  0  0  0  0  0  0  0
   -0.2118   -2.3897   16.8784 H   0  0  0  0  0  0  0  0  0  0  0  0
    0.1365   -3.5394   15.5428 H   0  0  0  0  0  0  0  0  0  0  0  0
    5.1484    1.9765   13.2880 H   0  0  0  0  0  0  0  0  0  0  0  0
    6.8331    0.8820   15.3359 H   0  0  0  0  0  0  0  0  0  0  0  0
    6.2400   -0.7347   17.3354 H   0  0  0  0  0  0  0  0  0  0  0  0
    4.5981    2.3490   11.2292 H   0  0  0  0  0  0  0  0  0  0  0  0
    3.8383    3.8096    9.3966 H   0  0  0  0  0  0  0  0  0  0  0  0
    1.4559    4.4276    9.2120 H   0  0  0  0  0  0  0  0  0  0  0  0
    0.6121    2.2342   12.7963 H   0  0  0  0  0  0  0  0  0  0  0  0
   -2.1538    3.9747   10.0822 H   0  0  0  0  0  0  0  0  0  0  0  0
   -1.8505    5.8952   14.0050 H   0  0  0  0  0  0  0  0  0  0  0  0
   -4.1511    6.6958   14.4129 H   0  0  0  0  0  0  0  0  0  0  0  0
   -5.5274    4.4627   11.0337 H   0  0  0  0  0  0  0  0  0  0  0  0
   -3.2268    3.6621   10.6257 H   0  0  0  0  0  0  0  0  0  0  0  0
   -5.5621    7.1259   14.5822 H   0  0  0  0  0  0  0  0  0  0  0  0
   -8.4399    9.0642   16.3447 H   0  0  0  0  0  0  0  0  0  0  0  0
   -7.1006    7.9352   16.7423 H   0  0  0  0  0  0  0  0  0  0  0  0
   -6.7956    9.3525   15.6817 H   0  0  0  0  0  0  0  0  0  0  0  0
   -0.1075   -0.0318   13.6408 H   0  0  0  0  0  0  0  0  0  0  0  0
   -2.6909    1.2310   11.8726 H   0  0  0  0  0  0  0  0  0  0  0  0
   -1.5443    1.3652   13.2487 H   0  0  0  0  0  0  0  0  0  0  0  0
   -1.2146    0.2087   11.9144 H   0  0  0  0  0  0  0  0  0  0  0  0
  1  2  1  0  0  0  0
  2  3  1  0  0  0  0
  3  4  2  0  0  0  0
  3 40  1  0  0  0  0
  4  5  1  0  0  0  0
  5  6  1  0  0  0  0
  6  7  2  0  0  0  0
  6 39  1  0  0  0  0
  7  8  1  0  0  0  0
  8  9  2  0  0  0  0
  8 16  1  0  0  0  0
  9 10  1  0  0  0  0
 10 11  2  0  0  0  0
 10 17  1  0  0  0  0
 11 12  1  0  0  0  0
 12 13  1  0  0  0  0
 12 16  1  0  0  0  0
 13 14  2  0  0  0  0
 14 15  1  0  0  0  0
 15 16  2  0  0  0  0
 17 18  2  0  0  0  0
 17 22  1  0  0  0  0
 18 19  1  0  0  0  0
 19 20  2  0  0  0  0
 20 21  1  0  0  0  0
 21 22  2  0  0  0  0
 21 23  1  0  0  0  0
 23 24  1  0  0  0  0
 23 25  2  0  0  0  0
 25 26  1  0  0  0  0
 26 27  2  0  0  0  0
 26 31  1  0  0  0  0
 27 28  1  0  0  0  0
 28 29  2  0  0  0  0
 29 30  1  0  0  0  0
 29 32  1  0  0  0  0
 30 31  2  0  0  0  0
 32 33  2  0  0  0  0
 32 34  1  0  0  0  0
 34 35  1  0  0  0  0
 35 36  2  0  0  0  0
 35 37  2  0  0  0  0
 35 38  1  0  0  0  0
 39 40  2  0  0  0  0
 40 41  1  0  0  0  0
 41 42  1  0  0  0  0
  1 43  1  0  0  0  0
  1 44  1  0  0  0  0
  1 45  1  0  0  0  0
  4 46  1  0  0  0  0
  5 47  1  0  0  0  0
  5 48  1  0  0  0  0
 11 49  1  0  0  0  0
 13 50  1  0  0  0  0
 14 51  1  0  0  0  0
 18 52  1  0  0  0  0
 19 53  1  0  0  0  0
 20 54  1  0  0  0  0
 22 55  1  0  0  0  0
 24 56  1  0  0  0  0
 27 57  1  0  0  0  0
 28 58  1  0  0  0  0
 30 59  1  0  0  0  0
 31 60  1  0  0  0  0
 34 61  1  0  0  0  0
 38 62  1  0  0  0  0
 38 63  1  0  0  0  0
 38 64  1  0  0  0  0
 39 65  1  0  0  0  0
 42 66  1  0  0  0  0
 42 67  1  0  0  0  0
 42 68  1  0  0  0  0
M  END
> <IC50[nM]>
2.2

$$$$
CHEMBL3265000
  -OEChem-05192314333D
 Structure written by MMmdl.
 68 72  0     0  0  0  0  0  0999 V2000
   -4.2555   -3.1029   13.5707 C   0  0  0  0  0  0  0  0  0  0  0  0
   -3.8740   -2.3535   14.7166 O   0  0  0  0  0  0  0  0  0  0  0  0
   -2.5261   -2.1057   14.8053 C   0  0  0  0  0  0  0  0  0  0  0  0
   -1.7497   -2.8673   15.6804 C   0  0  0  0  0  0  0  0  0  0  0  0
   -0.3863   -2.6106   15.8150 C   0  0  0  0  0  0  0  0  0  0  0  0
    0.2220   -1.5829   15.0890 C   0  0  0  0  0  0  0  0  0  0  0  0
    1.5930   -1.3491   15.3060 N   0  0  0  0  0  0  0  0  0  0  0  0
    2.5452   -0.4689   14.7536 C   0  0  0  0  0  0  0  0  0  0  0  0
    2.2178    0.3551   13.7190 N   0  0  0  0  0  0  0  0  0  0  0  0
    3.1227    1.2406   13.2181 C   0  0  0  0  0  0  0  0  0  0  0  0
    4.4207    1.3039   13.7175 C   0  0  0  0  0  0  0  0  0  0  0  0
    4.7482    0.4921   14.7654 N   0  0  0  0  0  0  0  0  0  0  0  0
    5.8898    0.3836   15.5035 C   0  0  0  0  0  0  0  0  0  0  0  0
    5.5715   -0.5089   16.5177 C   0  0  0  0  0  0  0  0  0  0  0  0
    4.3818   -1.0543   16.3920 N   0  0  0  0  0  0  0  0  0  0  0  0
    3.8330   -0.4170   15.3252 C   0  0  0  0  0  0  0  0  0  0  0  0
    2.6564    2.1560   12.1340 C   0  0  0  0  0  0  0  0  0  0  0  0
    3.5566    2.6280   11.1666 C   0  0  0  0  0  0  0  0  0  0  0  0
    3.1294    3.4499   10.1277 C   0  0  0  0  0  0  0  0  0  0  0  0
    1.7879    3.8078   10.0318 C   0  0  0  0  0  0  0  0  0  0  0  0
    0.8660    3.3707   10.9895 C   0  0  0  0  0  0  0  0  0  0  0  0
    1.3140    2.5576   12.0419 C   0  0  0  0  0  0  0  0  0  0  0  0
   -0.5783    3.7648   10.8956 C   0  0  0  0  0  0  0  0  0  0  0  0
   -1.2780    3.6594    9.8925 O   0  0  0  0  0  0  0  0  0  0  0  0
   -1.0343    4.2553   12.0485 N   0  0  0  0  0  0  0  0  0  0  0  0
   -2.3943    4.7285   12.2897 C   0  0  0  0  0  0  0  0  0  0  0  0
   -2.6544    5.5820   13.3553 C   0  0  0  0  0  0  0  0  0  0  0  0
   -3.9490    6.0325   13.5849 C   0  0  0  0  0  0  0  0  0  0  0  0
   -4.9835    5.6294   12.7489 C   0  0  0  0  0  0  0  0  0  0  0  0
   -4.7235    4.7759   11.6833 C   0  0  0  0  0  0  0  0  0  0  0  0
   -3.4289    4.3254   11.4537 C   0  0  0  0  0  0  0  0  0  0  0  0
   -6.3808    6.1155   12.9967 C   0  0  0  0  0  0  0  0  0  0  0  0
   -7.3335    5.7936   12.2928 O   0  0  0  0  0  0  0  0  0  0  0  0
   -6.3969    6.9226   14.0705 N   0  0  0  0  0  0  0  0  0  0  0  0
   -7.9316    7.5992   14.5333 S   0  0  0  0  0  0  0  0  0  0  0  0
   -8.7871    6.4947   14.9809 O   0  0  0  0  0  0  0  0  0  0  0  0
   -8.3522    8.5161   13.4681 O   0  0  0  0  0  0  0  0  0  0  0  0
   -7.5285    8.5816   15.9619 C   0  0  0  0  0  0  0  0  0  0  0  0
   -0.5664   -0.8256   14.2115 C   0  0  0  0  0  0  0  0  0  0  0  0
   -1.9389   -1.0760   14.0580 C   0  0  0  0  0  0  0  0  0  0  0  0
   -2.6991   -0.3052   13.2021 O   0  0  0  0  0  0  0  0  0  0  0  0
   -2.0020    0.6746   12.5251 C   0  0  0  0  0  0  0  0  0  0  0  0
   -5.3448   -3.2555   13.5777 H   0  0  0  0  0  0  0  0  0  0  0  0
   -3.9681   -2.5543   12.6616 H   0  0  0  0  0  0  0  0  0  0  0  0
   -3.7486   -4.0790   13.5856 H   0  0  0  0  0  0  0  0  0  0  0  0
   -2.2073   -3.6587   16.2555 H   0  0  0  0  0  0  0  0  0  0  0  0
    0.2066   -3.2125   16.4877 H   0  0  0  0  0  0  0  0  0  0  0  0
    5.1484    1.9765   13.2880 H   0  0  0  0  0  0  0  0  0  0  0  0
    6.8331    0.8820   15.3359 H   0  0  0  0  0  0  0  0  0  0  0  0
    6.2400   -0.7347   17.3354 H   0  0  0  0  0  0  0  0  0  0  0  0
    4.5981    2.3490   11.2292 H   0  0  0  0  0  0  0  0  0  0  0  0
    3.8383    3.8096    9.3966 H   0  0  0  0  0  0  0  0  0  0  0  0
    1.4559    4.4276    9.2120 H   0  0  0  0  0  0  0  0  0  0  0  0
    0.6121    2.2342   12.7963 H   0  0  0  0  0  0  0  0  0  0  0  0
   -0.3906    4.3031   12.8123 H   0  0  0  0  0  0  0  0  0  0  0  0
   -1.8505    5.8952   14.0050 H   0  0  0  0  0  0  0  0  0  0  0  0
   -4.1511    6.6958   14.4129 H   0  0  0  0  0  0  0  0  0  0  0  0
   -5.5274    4.4627   11.0337 H   0  0  0  0  0  0  0  0  0  0  0  0
   -3.2268    3.6621   10.6257 H   0  0  0  0  0  0  0  0  0  0  0  0
   -8.1235    6.2080   12.6194 H   0  0  0  0  0  0  0  0  0  0  0  0
   -8.4399    9.0642   16.3447 H   0  0  0  0  0  0  0  0  0  0  0  0
   -7.1006    7.9352   16.7423 H   0  0  0  0  0  0  0  0  0  0  0  0
   -6.7956    9.3525   15.6817 H   0  0  0  0  0  0  0  0  0  0  0  0
   -0.4764    0.2210   14.5379 H   0  0  0  0  0  0  0  0  0  0  0  0
   -0.1167   -0.9386   13.2140 H   0  0  0  0  0  0  0  0  0  0  0  0
   -2.6909    1.2310   11.8726 H   0  0  0  0  0  0  0  0  0  0  0  0
   -1.5443    1.3652   13.2487 H   0  0  0  0  0  0  0  0  0  0  0  0
   -1.2146    0.2087   11.9144 H   0  0  0  0  0  0  0  0  0  0  0  0
  1  2  1  0  0  0  0
  2  3  1  0  0  0  0
  3  4  1  0  0  0  0
  3 40  2  0  0  0  0
  4  5  2  0  0  0  0
  5  6  1  0  0  0  0
  6  7  2  0  0  0  0
  6 39  1  0  0  0  0
  7  8  1  0  0  0  0
  8  9  2  0  0  0  0
  8 16  1  0  0  0  0
  9 10  1  0  0  0  0
 10 11  2  0  0  0  0
 10 17  1  0  0  0  0
 11 12  1  0  0  0  0
 12 13  1  0  0  0  0
 12 16  1  0  0  0  0
 13 14  2  0  0  0  0
 14 15  1  0  0  0  0
 15 16  2  0  0  0  0
 17 18  2  0  0  0  0
 17 22  1  0  0  0  0
 18 19  1  0  0  0  0
 19 20  2  0  0  0  0
 20 21  1  0  0  0  0
 21 22  2  0  0  0  0
 21 23  1  0  0  0  0
 23 24  2  0  0  0  0
 23 25  1  0  0  0  0
 25 26  1  0  0  0  0
 26 27  2  0  0  0  0
 26 31  1  0  0  0  0
 27 28  1  0  0  0  0
 28 29  2  0  0  0  0
 29 30  1  0  0  0  0
 29 32  1  0  0  0  0
 30 31  2  0  0  0  0
 32 33  1  0  0  0  0
 32 34  2  0  0  0  0
 34 35  1  0  0  0  0
 35 36  2  0  0  0  0
 35 37  2  0  0  0  0
 35 38  1  0  0  0  0
 39 40  1  0  0  0  0
 40 41  1  0  0  0  0
 41 42  1  0  0  0  0
  1 43  1  0  0  0  0
  1 44  1  0  0  0  0
  1 45  1  0  0  0  0
  4 46  1  0  0  0  0
  5 47  1  0  0  0  0
 11 48  1  0  0  0  0
 13 49  1  0  0  0  0
 14 50  1  0  0  0  0
 18 51  1  0  0  0  0
 19 52  1  0  0  0  0
 20 53  1  0  0  0  0
 22 54  1  0  0  0  0
 25 55  1  0  0  0  0
 27 56  1  0  0  0  0
 28 57  1  0  0  0  0
 30 58  1  0  0  0  0
 31 59  1  0  0  0  0
 33 60  1  0  0  0  0
 38 61  1  0  0  0  0
 38 62  1  0  0  0  0
 38 63  1  0  0  0  0
 39 64  1  0  0  0  0
 39 65  1  0  0  0  0
 42 66  1  0  0  0  0
 42 67  1  0  0  0  0
 42 68  1  0  0  0  0
M  END
> <IC50[nM]>
2.2

$$$$
CHEMBL3265000
  -OEChem-05192314333D
 Structure written by MMmdl.
 68 72  0     0  0  0  0  0  0999 V2000
   -4.2555   -3.1029   13.5707 C   0  0  0  0  0  0  0  0  0  0  0  0
   -3.8740   -2.3535   14.7166 O   0  0  0  0  0  0  0  0  0  0  0  0
   -2.5261   -2.1057   14.8053 C   0  0  0  0  0  0  0  0  0  0  0  0
   -1.7497   -2.8673   15.6804 C   0  0  0  0  0  0  0  0  0  0  0  0
   -0.3863   -2.6106   15.8150 C   0  0  0  0  0  0  0  0  0  0  0  0
    0.2220   -1.5829   15.0890 C   0  0  0  0  0  0  0  0  0  0  0  0
    1.5930   -1.3491   15.3060 N   0  0  0  0  0  0  0  0  0  0  0  0
    2.5452   -0.4689   14.7536 C   0  0  0  0  0  0  0  0  0  0  0  0
    2.2178    0.3551   13.7190 N   0  0  0  0  0  0  0  0  0  0  0  0
    3.1227    1.2406   13.2181 C   0  0  0  0  0  0  0  0  0  0  0  0
    4.4207    1.3039   13.7175 C   0  0  0  0  0  0  0  0  0  0  0  0
    4.7482    0.4921   14.7654 N   0  0  0  0  0  0  0  0  0  0  0  0
    5.8898    0.3836   15.5035 C   0  0  0  0  0  0  0  0  0  0  0  0
    5.5715   -0.5089   16.5177 C   0  0  0  0  0  0  0  0  0  0  0  0
    4.3818   -1.0543   16.3920 N   0  0  0  0  0  0  0  0  0  0  0  0
    3.8330   -0.4170   15.3252 C   0  0  0  0  0  0  0  0  0  0  0  0
    2.6564    2.1560   12.1340 C   0  0  0  0  0  0  0  0  0  0  0  0
    3.5566    2.6280   11.1666 C   0  0  0  0  0  0  0  0  0  0  0  0
    3.1294    3.4499   10.1277 C   0  0  0  0  0  0  0  0  0  0  0  0
    1.7879    3.8078   10.0318 C   0  0  0  0  0  0  0  0  0  0  0  0
    0.8660    3.3707   10.9895 C   0  0  0  0  0  0  0  0  0  0  0  0
    1.3140    2.5576   12.0419 C   0  0  0  0  0  0  0  0  0  0  0  0
   -0.5783    3.7648   10.8956 C   0  0  0  0  0  0  0  0  0  0  0  0
   -1.2780    3.6594    9.8925 O   0  0  0  0  0  0  0  0  0  0  0  0
   -1.0343    4.2553   12.0485 N   0  0  0  0  0  0  0  0  0  0  0  0
   -2.3943    4.7285   12.2897 C   0  0  0  0  0  0  0  0  0  0  0  0
   -2.6544    5.5820   13.3553 C   0  0  0  0  0  0  0  0  0  0  0  0
   -3.9490    6.0325   13.5849 C   0  0  0  0  0  0  0  0  0  0  0  0
   -4.9835    5.6294   12.7489 C   0  0  0  0  0  0  0  0  0  0  0  0
   -4.7235    4.7759   11.6833 C   0  0  0  0  0  0  0  0  0  0  0  0
   -3.4289    4.3254   11.4537 C   0  0  0  0  0  0  0  0  0  0  0  0
   -6.3808    6.1155   12.9967 C   0  0  0  0  0  0  0  0  0  0  0  0
   -7.3335    5.7936   12.2928 O   0  0  0  0  0  0  0  0  0  0  0  0
   -6.3969    6.9226   14.0705 N   0  0  0  0  0  0  0  0  0  0  0  0
   -7.9316    7.5992   14.5333 S   0  0  0  0  0  0  0  0  0  0  0  0
   -8.7871    6.4947   14.9809 O   0  0  0  0  0  0  0  0  0  0  0  0
   -8.3522    8.5161   13.4681 O   0  0  0  0  0  0  0  0  0  0  0  0
   -7.5285    8.5816   15.9619 C   0  0  0  0  0  0  0  0  0  0  0  0
   -0.5664   -0.8256   14.2115 C   0  0  0  0  0  0  0  0  0  0  0  0
   -1.9389   -1.0760   14.0580 C   0  0  0  0  0  0  0  0  0  0  0  0
   -2.6991   -0.3052   13.2021 O   0  0  0  0  0  0  0  0  0  0  0  0
   -2.0020    0.6746   12.5251 C   0  0  0  0  0  0  0  0  0  0  0  0
   -5.3448   -3.2555   13.5777 H   0  0  0  0  0  0  0  0  0  0  0  0
   -3.9681   -2.5543   12.6616 H   0  0  0  0  0  0  0  0  0  0  0  0
   -3.7486   -4.0790   13.5856 H   0  0  0  0  0  0  0  0  0  0  0  0
   -2.2073   -3.6587   16.2555 H   0  0  0  0  0  0  0  0  0  0  0  0
    0.2066   -3.2125   16.4877 H   0  0  0  0  0  0  0  0  0  0  0  0
    5.1484    1.9765   13.2880 H   0  0  0  0  0  0  0  0  0  0  0  0
    6.8331    0.8820   15.3359 H   0  0  0  0  0  0  0  0  0  0  0  0
    6.2400   -0.7347   17.3354 H   0  0  0  0  0  0  0  0  0  0  0  0
    4.5981    2.3490   11.2292 H   0  0  0  0  0  0  0  0  0  0  0  0
    3.8383    3.8096    9.3966 H   0  0  0  0  0  0  0  0  0  0  0  0
    1.4559    4.4276    9.2120 H   0  0  0  0  0  0  0  0  0  0  0  0
    0.6121    2.2342   12.7963 H   0  0  0  0  0  0  0  0  0  0  0  0
   -2.1538    3.9747   10.0822 H   0  0  0  0  0  0  0  0  0  0  0  0
   -1.8505    5.8952   14.0050 H   0  0  0  0  0  0  0  0  0  0  0  0
   -4.1511    6.6958   14.4129 H   0  0  0  0  0  0  0  0  0  0  0  0
   -5.5274    4.4627   11.0337 H   0  0  0  0  0  0  0  0  0  0  0  0
   -3.2268    3.6621   10.6257 H   0  0  0  0  0  0  0  0  0  0  0  0
   -5.5621    7.1259   14.5822 H   0  0  0  0  0  0  0  0  0  0  0  0
   -8.4399    9.0642   16.3447 H   0  0  0  0  0  0  0  0  0  0  0  0
   -7.1006    7.9352   16.7423 H   0  0  0  0  0  0  0  0  0  0  0  0
   -6.7956    9.3525   15.6817 H   0  0  0  0  0  0  0  0  0  0  0  0
   -0.4764    0.2210   14.5379 H   0  0  0  0  0  0  0  0  0  0  0  0
   -0.1167   -0.9386   13.2140 H   0  0  0  0  0  0  0  0  0  0  0  0
   -2.6909    1.2310   11.8726 H   0  0  0  0  0  0  0  0  0  0  0  0
   -1.5443    1.3652   13.2487 H   0  0  0  0  0  0  0  0  0  0  0  0
   -1.2146    0.2087   11.9144 H   0  0  0  0  0  0  0  0  0  0  0  0
  1  2  1  0  0  0  0
  2  3  1  0  0  0  0
  3  4  1  0  0  0  0
  3 40  2  0  0  0  0
  4  5  2  0  0  0  0
  5  6  1  0  0  0  0
  6  7  2  0  0  0  0
  6 39  1  0  0  0  0
  7  8  1  0  0  0  0
  8  9  2  0  0  0  0
  8 16  1  0  0  0  0
  9 10  1  0  0  0  0
 10 11  2  0  0  0  0
 10 17  1  0  0  0  0
 11 12  1  0  0  0  0
 12 13  1  0  0  0  0
 12 16  1  0  0  0  0
 13 14  2  0  0  0  0
 14 15  1  0  0  0  0
 15 16  2  0  0  0  0
 17 18  2  0  0  0  0
 17 22  1  0  0  0  0
 18 19  1  0  0  0  0
 19 20  2  0  0  0  0
 20 21  1  0  0  0  0
 21 22  2  0  0  0  0
 21 23  1  0  0  0  0
 23 24  1  0  0  0  0
 23 25  2  0  0  0  0
 25 26  1  0  0  0  0
 26 27  2  0  0  0  0
 26 31  1  0  0  0  0
 27 28  1  0  0  0  0
 28 29  2  0  0  0  0
 29 30  1  0  0  0  0
 29 32  1  0  0  0  0
 30 31  2  0  0  0  0
 32 33  2  0  0  0  0
 32 34  1  0  0  0  0
 34 35  1  0  0  0  0
 35 36  2  0  0  0  0
 35 37  2  0  0  0  0
 35 38  1  0  0  0  0
 39 40  1  0  0  0  0
 40 41  1  0  0  0  0
 41 42  1  0  0  0  0
  1 43  1  0  0  0  0
  1 44  1  0  0  0  0
  1 45  1  0  0  0  0
  4 46  1  0  0  0  0
  5 47  1  0  0  0  0
 11 48  1  0  0  0  0
 13 49  1  0  0  0  0
 14 50  1  0  0  0  0
 18 51  1  0  0  0  0
 19 52  1  0  0  0  0
 20 53  1  0  0  0  0
 22 54  1  0  0  0  0
 24 55  1  0  0  0  0
 27 56  1  0  0  0  0
 28 57  1  0  0  0  0
 30 58  1  0  0  0  0
 31 59  1  0  0  0  0
 34 60  1  0  0  0  0
 38 61  1  0  0  0  0
 38 62  1  0  0  0  0
 38 63  1  0  0  0  0
 39 64  1  0  0  0  0
 39 65  1  0  0  0  0
 42 66  1  0  0  0  0
 42 67  1  0  0  0  0
 42 68  1  0  0  0  0
M  END
> <IC50[nM]>
2.2

$$$$
CHEMBL3265000
  -OEChem-05192314333D
 Structure written by MMmdl.
 68 72  0     0  0  0  0  0  0999 V2000
   -4.2555   -3.1029   13.5707 C   0  0  0  0  0  0  0  0  0  0  0  0
   -3.8740   -2.3535   14.7166 O   0  0  0  0  0  0  0  0  0  0  0  0
   -2.5261   -2.1057   14.8053 C   0  0  0  0  0  0  0  0  0  0  0  0
   -1.7497   -2.8673   15.6804 C   0  0  0  0  0  0  0  0  0  0  0  0
   -0.3863   -2.6106   15.8150 C   0  0  0  0  0  0  0  0  0  0  0  0
    0.2220   -1.5829   15.0890 C   0  0  0  0  0  0  0  0  0  0  0  0
    1.5930   -1.3491   15.3060 N   0  0  0  0  0  0  0  0  0  0  0  0
    2.5452   -0.4689   14.7536 C   0  0  0  0  0  0  0  0  0  0  0  0
    2.2178    0.3551   13.7190 N   0  0  0  0  0  0  0  0  0  0  0  0
    3.1227    1.2406   13.2181 C   0  0  0  0  0  0  0  0  0  0  0  0
    4.4207    1.3039   13.7175 C   0  0  0  0  0  0  0  0  0  0  0  0
    4.7482    0.4921   14.7654 N   0  0  0  0  0  0  0  0  0  0  0  0
    5.8898    0.3836   15.5035 C   0  0  0  0  0  0  0  0  0  0  0  0
    5.5715   -0.5089   16.5177 C   0  0  0  0  0  0  0  0  0  0  0  0
    4.3818   -1.0543   16.3920 N   0  0  0  0  0  0  0  0  0  0  0  0
    3.8330   -0.4170   15.3252 C   0  0  0  0  0  0  0  0  0  0  0  0
    2.6564    2.1560   12.1340 C   0  0  0  0  0  0  0  0  0  0  0  0
    3.5566    2.6280   11.1666 C   0  0  0  0  0  0  0  0  0  0  0  0
    3.1294    3.4499   10.1277 C   0  0  0  0  0  0  0  0  0  0  0  0
    1.7879    3.8078   10.0318 C   0  0  0  0  0  0  0  0  0  0  0  0
    0.8660    3.3707   10.9895 C   0  0  0  0  0  0  0  0  0  0  0  0
    1.3140    2.5576   12.0419 C   0  0  0  0  0  0  0  0  0  0  0  0
   -0.5783    3.7648   10.8956 C   0  0  0  0  0  0  0  0  0  0  0  0
   -1.2780    3.6594    9.8925 O   0  0  0  0  0  0  0  0  0  0  0  0
   -1.0343    4.2553   12.0485 N   0  0  0  0  0  0  0  0  0  0  0  0
   -2.3943    4.7285   12.2897 C   0  0  0  0  0  0  0  0  0  0  0  0
   -2.6544    5.5820   13.3553 C   0  0  0  0  0  0  0  0  0  0  0  0
   -3.9490    6.0325   13.5849 C   0  0  0  0  0  0  0  0  0  0  0  0
   -4.9835    5.6294   12.7489 C   0  0  0  0  0  0  0  0  0  0  0  0
   -4.7235    4.7759   11.6833 C   0  0  0  0  0  0  0  0  0  0  0  0
   -3.4289    4.3254   11.4537 C   0  0  0  0  0  0  0  0  0  0  0  0
   -6.3808    6.1155   12.9967 C   0  0  0  0  0  0  0  0  0  0  0  0
   -7.3335    5.7936   12.2928 O   0  0  0  0  0  0  0  0  0  0  0  0
   -6.3969    6.9226   14.0705 N   0  0  0  0  0  0  0  0  0  0  0  0
   -7.9316    7.5992   14.5333 S   0  0  0  0  0  0  0  0  0  0  0  0
   -8.7871    6.4947   14.9809 O   0  0  0  0  0  0  0  0  0  0  0  0
   -8.3522    8.5161   13.4681 O   0  0  0  0  0  0  0  0  0  0  0  0
   -7.5285    8.5816   15.9619 C   0  0  0  0  0  0  0  0  0  0  0  0
   -0.5664   -0.8256   14.2115 C   0  0  0  0  0  0  0  0  0  0  0  0
   -1.9389   -1.0760   14.0580 C   0  0  0  0  0  0  0  0  0  0  0  0
   -2.6991   -0.3052   13.2021 O   0  0  0  0  0  0  0  0  0  0  0  0
   -2.0020    0.6746   12.5251 C   0  0  0  0  0  0  0  0  0  0  0  0
   -5.3448   -3.2555   13.5777 H   0  0  0  0  0  0  0  0  0  0  0  0
   -3.9681   -2.5543   12.6616 H   0  0  0  0  0  0  0  0  0  0  0  0
   -3.7486   -4.0790   13.5856 H   0  0  0  0  0  0  0  0  0  0  0  0
   -2.2073   -3.6587   16.2555 H   0  0  0  0  0  0  0  0  0  0  0  0
    0.2066   -3.2125   16.4877 H   0  0  0  0  0  0  0  0  0  0  0  0
    1.9791   -1.9422   16.0125 H   0  0  0  0  0  0  0  0  0  0  0  0
    5.1484    1.9765   13.2880 H   0  0  0  0  0  0  0  0  0  0  0  0
    6.8331    0.8820   15.3359 H   0  0  0  0  0  0  0  0  0  0  0  0
    6.2400   -0.7347   17.3354 H   0  0  0  0  0  0  0  0  0  0  0  0
    4.5981    2.3490   11.2292 H   0  0  0  0  0  0  0  0  0  0  0  0
    3.8383    3.8096    9.3966 H   0  0  0  0  0  0  0  0  0  0  0  0
    1.4559    4.4276    9.2120 H   0  0  0  0  0  0  0  0  0  0  0  0
    0.6121    2.2342   12.7963 H   0  0  0  0  0  0  0  0  0  0  0  0
   -1.8505    5.8952   14.0050 H   0  0  0  0  0  0  0  0  0  0  0  0
   -4.1511    6.6958   14.4129 H   0  0  0  0  0  0  0  0  0  0  0  0
   -4.7968    6.4973   12.0993 H   0  0  0  0  0  0  0  0  0  0  0  0
   -5.5274    4.4627   11.0337 H   0  0  0  0  0  0  0  0  0  0  0  0
   -3.2268    3.6621   10.6257 H   0  0  0  0  0  0  0  0  0  0  0  0
   -8.1235    6.2080   12.6194 H   0  0  0  0  0  0  0  0  0  0  0  0
   -8.4399    9.0642   16.3447 H   0  0  0  0  0  0  0  0  0  0  0  0
   -7.1006    7.9352   16.7423 H   0  0  0  0  0  0  0  0  0  0  0  0
   -6.7956    9.3525   15.6817 H   0  0  0  0  0  0  0  0  0  0  0  0
   -0.1075   -0.0318   13.6408 H   0  0  0  0  0  0  0  0  0  0  0  0
   -2.6909    1.2310   11.8726 H   0  0  0  0  0  0  0  0  0  0  0  0
   -1.5443    1.3652   13.2487 H   0  0  0  0  0  0  0  0  0  0  0  0
   -1.2146    0.2087   11.9144 H   0  0  0  0  0  0  0  0  0  0  0  0
  1  2  1  0  0  0  0
  2  3  1  0  0  0  0
  3  4  2  0  0  0  0
  3 40  1  0  0  0  0
  4  5  1  0  0  0  0
  5  6  2  0  0  0  0
  6  7  1  0  0  0  0
  6 39  1  0  0  0  0
  7  8  1  0  0  0  0
  8  9  2  0  0  0  0
  8 16  1  0  0  0  0
  9 10  1  0  0  0  0
 10 11  2  0  0  0  0
 10 17  1  0  0  0  0
 11 12  1  0  0  0  0
 12 13  1  0  0  0  0
 12 16  1  0  0  0  0
 13 14  2  0  0  0  0
 14 15  1  0  0  0  0
 15 16  2  0  0  0  0
 17 18  2  0  0  0  0
 17 22  1  0  0  0  0
 18 19  1  0  0  0  0
 19 20  2  0  0  0  0
 20 21  1  0  0  0  0
 21 22  2  0  0  0  0
 21 23  1  0  0  0  0
 23 24  2  0  0  0  0
 23 25  1  0  0  0  0
 25 26  2  0  0  0  0
 26 27  1  0  0  0  0
 26 31  1  0  0  0  0
 27 28  2  0  0  0  0
 28 29  1  0  0  0  0
 29 30  1  0  0  0  0
 29 32  1  0  0  0  0
 30 31  2  0  0  0  0
 32 33  1  0  0  0  0
 32 34  2  0  0  0  0
 34 35  1  0  0  0  0
 35 36  2  0  0  0  0
 35 37  2  0  0  0  0
 35 38  1  0  0  0  0
 39 40  2  0  0  0  0
 40 41  1  0  0  0  0
 41 42  1  0  0  0  0
  1 43  1  0  0  0  0
  1 44  1  0  0  0  0
  1 45  1  0  0  0  0
  4 46  1  0  0  0  0
  5 47  1  0  0  0  0
  7 48  1  0  0  0  0
 11 49  1  0  0  0  0
 13 50  1  0  0  0  0
 14 51  1  0  0  0  0
 18 52  1  0  0  0  0
 19 53  1  0  0  0  0
 20 54  1  0  0  0  0
 22 55  1  0  0  0  0
 27 56  1  0  0  0  0
 28 57  1  0  0  0  0
 29 58  1  0  0  0  0
 30 59  1  0  0  0  0
 31 60  1  0  0  0  0
 33 61  1  0  0  0  0
 38 62  1  0  0  0  0
 38 63  1  0  0  0  0
 38 64  1  0  0  0  0
 39 65  1  0  0  0  0
 42 66  1  0  0  0  0
 42 67  1  0  0  0  0
 42 68  1  0  0  0  0
M  END
> <IC50[nM]>
2.2

$$$$
CHEMBL3265000
  -OEChem-05192314333D
 Structure written by MMmdl.
 68 72  0     0  0  0  0  0  0999 V2000
   -4.2555   -3.1029   13.5707 C   0  0  0  0  0  0  0  0  0  0  0  0
   -3.8740   -2.3535   14.7166 O   0  0  0  0  0  0  0  0  0  0  0  0
   -2.5261   -2.1057   14.8053 C   0  0  0  0  0  0  0  0  0  0  0  0
   -1.7497   -2.8673   15.6804 C   0  0  0  0  0  0  0  0  0  0  0  0
   -0.3863   -2.6106   15.8150 C   0  0  0  0  0  0  0  0  0  0  0  0
    0.2220   -1.5829   15.0890 C   0  0  0  0  0  0  0  0  0  0  0  0
    1.5930   -1.3491   15.3060 N   0  0  0  0  0  0  0  0  0  0  0  0
    2.5452   -0.4689   14.7536 C   0  0  0  0  0  0  0  0  0  0  0  0
    2.2178    0.3551   13.7190 N   0  0  0  0  0  0  0  0  0  0  0  0
    3.1227    1.2406   13.2181 C   0  0  0  0  0  0  0  0  0  0  0  0
    4.4207    1.3039   13.7175 C   0  0  0  0  0  0  0  0  0  0  0  0
    4.7482    0.4921   14.7654 N   0  0  0  0  0  0  0  0  0  0  0  0
    5.8898    0.3836   15.5035 C   0  0  0  0  0  0  0  0  0  0  0  0
    5.5715   -0.5089   16.5177 C   0  0  0  0  0  0  0  0  0  0  0  0
    4.3818   -1.0543   16.3920 N   0  0  0  0  0  0  0  0  0  0  0  0
    3.8330   -0.4170   15.3252 C   0  0  0  0  0  0  0  0  0  0  0  0
    2.6564    2.1560   12.1340 C   0  0  0  0  0  0  0  0  0  0  0  0
    3.5566    2.6280   11.1666 C   0  0  0  0  0  0  0  0  0  0  0  0
    3.1294    3.4499   10.1277 C   0  0  0  0  0  0  0  0  0  0  0  0
    1.7879    3.8078   10.0318 C   0  0  0  0  0  0  0  0  0  0  0  0
    0.8660    3.3707   10.9895 C   0  0  0  0  0  0  0  0  0  0  0  0
    1.3140    2.5576   12.0419 C   0  0  0  0  0  0  0  0  0  0  0  0
   -0.5783    3.7648   10.8956 C   0  0  0  0  0  0  0  0  0  0  0  0
   -1.2780    3.6594    9.8925 O   0  0  0  0  0  0  0  0  0  0  0  0
   -1.0343    4.2553   12.0485 N   0  0  0  0  0  0  0  0  0  0  0  0
   -2.3943    4.7285   12.2897 C   0  0  0  0  0  0  0  0  0  0  0  0
   -2.6544    5.5820   13.3553 C   0  0  0  0  0  0  0  0  0  0  0  0
   -3.9490    6.0325   13.5849 C   0  0  0  0  0  0  0  0  0  0  0  0
   -4.9835    5.6294   12.7489 C   0  0  0  0  0  0  0  0  0  0  0  0
   -4.7235    4.7759   11.6833 C   0  0  0  0  0  0  0  0  0  0  0  0
   -3.4289    4.3254   11.4537 C   0  0  0  0  0  0  0  0  0  0  0  0
   -6.3808    6.1155   12.9967 C   0  0  0  0  0  0  0  0  0  0  0  0
   -7.3335    5.7936   12.2928 O   0  0  0  0  0  0  0  0  0  0  0  0
   -6.3969    6.9226   14.0705 N   0  0  0  0  0  0  0  0  0  0  0  0
   -7.9316    7.5992   14.5333 S   0  0  0  0  0  0  0  0  0  0  0  0
   -8.7871    6.4947   14.9809 O   0  0  0  0  0  0  0  0  0  0  0  0
   -8.3522    8.5161   13.4681 O   0  0  0  0  0  0  0  0  0  0  0  0
   -7.5285    8.5816   15.9619 C   0  0  0  0  0  0  0  0  0  0  0  0
   -0.5664   -0.8256   14.2115 C   0  0  0  0  0  0  0  0  0  0  0  0
   -1.9389   -1.0760   14.0580 C   0  0  0  0  0  0  0  0  0  0  0  0
   -2.6991   -0.3052   13.2021 O   0  0  0  0  0  0  0  0  0  0  0  0
   -2.0020    0.6746   12.5251 C   0  0  0  0  0  0  0  0  0  0  0  0
   -5.3448   -3.2555   13.5777 H   0  0  0  0  0  0  0  0  0  0  0  0
   -3.9681   -2.5543   12.6616 H   0  0  0  0  0  0  0  0  0  0  0  0
   -3.7486   -4.0790   13.5856 H   0  0  0  0  0  0  0  0  0  0  0  0
   -2.2073   -3.6587   16.2555 H   0  0  0  0  0  0  0  0  0  0  0  0
    0.2066   -3.2125   16.4877 H   0  0  0  0  0  0  0  0  0  0  0  0
    1.9791   -1.9422   16.0125 H   0  0  0  0  0  0  0  0  0  0  0  0
    5.1484    1.9765   13.2880 H   0  0  0  0  0  0  0  0  0  0  0  0
    6.8331    0.8820   15.3359 H   0  0  0  0  0  0  0  0  0  0  0  0
    6.2400   -0.7347   17.3354 H   0  0  0  0  0  0  0  0  0  0  0  0
    4.5981    2.3490   11.2292 H   0  0  0  0  0  0  0  0  0  0  0  0
    3.8383    3.8096    9.3966 H   0  0  0  0  0  0  0  0  0  0  0  0
    1.4559    4.4276    9.2120 H   0  0  0  0  0  0  0  0  0  0  0  0
    0.6121    2.2342   12.7963 H   0  0  0  0  0  0  0  0  0  0  0  0
   -2.3342    5.0575   14.2677 H   0  0  0  0  0  0  0  0  0  0  0  0
   -2.0291    6.4748   13.2070 H   0  0  0  0  0  0  0  0  0  0  0  0
   -4.1511    6.6958   14.4129 H   0  0  0  0  0  0  0  0  0  0  0  0
   -5.5274    4.4627   11.0337 H   0  0  0  0  0  0  0  0  0  0  0  0
   -3.2268    3.6621   10.6257 H   0  0  0  0  0  0  0  0  0  0  0  0
   -8.1235    6.2080   12.6194 H   0  0  0  0  0  0  0  0  0  0  0  0
   -8.4399    9.0642   16.3447 H   0  0  0  0  0  0  0  0  0  0  0  0
   -7.1006    7.9352   16.7423 H   0  0  0  0  0  0  0  0  0  0  0  0
   -6.7956    9.3525   15.6817 H   0  0  0  0  0  0  0  0  0  0  0  0
   -0.1075   -0.0318   13.6408 H   0  0  0  0  0  0  0  0  0  0  0  0
   -2.6909    1.2310   11.8726 H   0  0  0  0  0  0  0  0  0  0  0  0
   -1.5443    1.3652   13.2487 H   0  0  0  0  0  0  0  0  0  0  0  0
   -1.2146    0.2087   11.9144 H   0  0  0  0  0  0  0  0  0  0  0  0
  1  2  1  0  0  0  0
  2  3  1  0  0  0  0
  3  4  2  0  0  0  0
  3 40  1  0  0  0  0
  4  5  1  0  0  0  0
  5  6  2  0  0  0  0
  6  7  1  0  0  0  0
  6 39  1  0  0  0  0
  7  8  1  0  0  0  0
  8  9  2  0  0  0  0
  8 16  1  0  0  0  0
  9 10  1  0  0  0  0
 10 11  2  0  0  0  0
 10 17  1  0  0  0  0
 11 12  1  0  0  0  0
 12 13  1  0  0  0  0
 12 16  1  0  0  0  0
 13 14  2  0  0  0  0
 14 15  1  0  0  0  0
 15 16  2  0  0  0  0
 17 18  2  0  0  0  0
 17 22  1  0  0  0  0
 18 19  1  0  0  0  0
 19 20  2  0  0  0  0
 20 21  1  0  0  0  0
 21 22  2  0  0  0  0
 21 23  1  0  0  0  0
 23 24  2  0  0  0  0
 23 25  1  0  0  0  0
 25 26  2  0  0  0  0
 26 27  1  0  0  0  0
 26 31  1  0  0  0  0
 27 28  1  0  0  0  0
 28 29  2  0  0  0  0
 29 30  1  0  0  0  0
 29 32  1  0  0  0  0
 30 31  2  0  0  0  0
 32 33  1  0  0  0  0
 32 34  2  0  0  0  0
 34 35  1  0  0  0  0
 35 36  2  0  0  0  0
 35 37  2  0  0  0  0
 35 38  1  0  0  0  0
 39 40  2  0  0  0  0
 40 41  1  0  0  0  0
 41 42  1  0  0  0  0
  1 43  1  0  0  0  0
  1 44  1  0  0  0  0
  1 45  1  0  0  0  0
  4 46  1  0  0  0  0
  5 47  1  0  0  0  0
  7 48  1  0  0  0  0
 11 49  1  0  0  0  0
 13 50  1  0  0  0  0
 14 51  1  0  0  0  0
 18 52  1  0  0  0  0
 19 53  1  0  0  0  0
 20 54  1  0  0  0  0
 22 55  1  0  0  0  0
 27 56  1  0  0  0  0
 27 57  1  0  0  0  0
 28 58  1  0  0  0  0
 30 59  1  0  0  0  0
 31 60  1  0  0  0  0
 33 61  1  0  0  0  0
 38 62  1  0  0  0  0
 38 63  1  0  0  0  0
 38 64  1  0  0  0  0
 39 65  1  0  0  0  0
 42 66  1  0  0  0  0
 42 67  1  0  0  0  0
 42 68  1  0  0  0  0
M  END
> <IC50[nM]>
2.2

$$$$
CHEMBL3265000
  -OEChem-05192314333D
 Structure written by MMmdl.
 68 72  0     1  0  0  0  0  0999 V2000
   -4.2555   -3.1029   13.5707 C   0  0  0  0  0  0  0  0  0  0  0  0
   -3.8740   -2.3535   14.7166 O   0  0  0  0  0  0  0  0  0  0  0  0
   -2.5261   -2.1057   14.8053 C   0  0  3  0  0  0  0  0  0  0  0  0
   -1.7497   -2.8673   15.6804 C   0  0  0  0  0  0  0  0  0  0  0  0
   -0.3863   -2.6106   15.8150 C   0  0  0  0  0  0  0  0  0  0  0  0
    0.2220   -1.5829   15.0890 C   0  0  0  0  0  0  0  0  0  0  0  0
    1.5930   -1.3491   15.3060 N   0  0  0  0  0  0  0  0  0  0  0  0
    2.5452   -0.4689   14.7536 C   0  0  0  0  0  0  0  0  0  0  0  0
    2.2178    0.3551   13.7190 N   0  0  0  0  0  0  0  0  0  0  0  0
    3.1227    1.2406   13.2181 C   0  0  0  0  0  0  0  0  0  0  0  0
    4.4207    1.3039   13.7175 C   0  0  0  0  0  0  0  0  0  0  0  0
    4.7482    0.4921   14.7654 N   0  0  0  0  0  0  0  0  0  0  0  0
    5.8898    0.3836   15.5035 C   0  0  0  0  0  0  0  0  0  0  0  0
    5.5715   -0.5089   16.5177 C   0  0  0  0  0  0  0  0  0  0  0  0
    4.3818   -1.0543   16.3920 N   0  0  0  0  0  0  0  0  0  0  0  0
    3.8330   -0.4170   15.3252 C   0  0  0  0  0  0  0  0  0  0  0  0
    2.6564    2.1560   12.1340 C   0  0  0  0  0  0  0  0  0  0  0  0
    3.5566    2.6280   11.1666 C   0  0  0  0  0  0  0  0  0  0  0  0
    3.1294    3.4499   10.1277 C   0  0  0  0  0  0  0  0  0  0  0  0
    1.7879    3.8078   10.0318 C   0  0  0  0  0  0  0  0  0  0  0  0
    0.8660    3.3707   10.9895 C   0  0  0  0  0  0  0  0  0  0  0  0
    1.3140    2.5576   12.0419 C   0  0  0  0  0  0  0  0  0  0  0  0
   -0.5783    3.7648   10.8956 C   0  0  0  0  0  0  0  0  0  0  0  0
   -1.2780    3.6594    9.8925 O   0  0  0  0  0  0  0  0  0  0  0  0
   -1.0343    4.2553   12.0485 N   0  0  0  0  0  0  0  0  0  0  0  0
   -2.3943    4.7285   12.2897 C   0  0  0  0  0  0  0  0  0  0  0  0
   -2.6544    5.5820   13.3553 C   0  0  0  0  0  0  0  0  0  0  0  0
   -3.9490    6.0325   13.5849 C   0  0  0  0  0  0  0  0  0  0  0  0
   -4.9835    5.6294   12.7489 C   0  0  0  0  0  0  0  0  0  0  0  0
   -4.7235    4.7759   11.6833 C   0  0  0  0  0  0  0  0  0  0  0  0
   -3.4289    4.3254   11.4537 C   0  0  0  0  0  0  0  0  0  0  0  0
   -6.3808    6.1155   12.9967 C   0  0  0  0  0  0  0  0  0  0  0  0
   -7.3335    5.7936   12.2928 O   0  0  0  0  0  0  0  0  0  0  0  0
   -6.3969    6.9226   14.0705 N   0  0  0  0  0  0  0  0  0  0  0  0
   -7.9316    7.5992   14.5333 S   0  0  0  0  0  0  0  0  0  0  0  0
   -8.7871    6.4947   14.9809 O   0  0  0  0  0  0  0  0  0  0  0  0
   -8.3522    8.5161   13.4681 O   0  0  0  0  0  0  0  0  0  0  0  0
   -7.5285    8.5816   15.9619 C   0  0  0  0  0  0  0  0  0  0  0  0
   -0.5664   -0.8256   14.2115 C   0  0  0  0  0  0  0  0  0  0  0  0
   -1.9389   -1.0760   14.0580 C   0  0  0  0  0  0  0  0  0  0  0  0
   -2.6991   -0.3052   13.2021 O   0  0  0  0  0  0  0  0  0  0  0  0
   -2.0020    0.6746   12.5251 C   0  0  0  0  0  0  0  0  0  0  0  0
   -5.3448   -3.2555   13.5777 H   0  0  0  0  0  0  0  0  0  0  0  0
   -3.9681   -2.5543   12.6616 H   0  0  0  0  0  0  0  0  0  0  0  0
   -3.7486   -4.0790   13.5856 H   0  0  0  0  0  0  0  0  0  0  0  0
   -2.3305   -2.8209   13.9928 H   0  0  0  0  0  0  0  0  0  0  0  0
   -2.2073   -3.6587   16.2555 H   0  0  0  0  0  0  0  0  0  0  0  0
    0.2066   -3.2125   16.4877 H   0  0  0  0  0  0  0  0  0  0  0  0
    5.1484    1.9765   13.2880 H   0  0  0  0  0  0  0  0  0  0  0  0
    6.8331    0.8820   15.3359 H   0  0  0  0  0  0  0  0  0  0  0  0
    6.2400   -0.7347   17.3354 H   0  0  0  0  0  0  0  0  0  0  0  0
    4.5981    2.3490   11.2292 H   0  0  0  0  0  0  0  0  0  0  0  0
    3.8383    3.8096    9.3966 H   0  0  0  0  0  0  0  0  0  0  0  0
    1.4559    4.4276    9.2120 H   0  0  0  0  0  0  0  0  0  0  0  0
    0.6121    2.2342   12.7963 H   0  0  0  0  0  0  0  0  0  0  0  0
   -2.1538    3.9747   10.0822 H   0  0  0  0  0  0  0  0  0  0  0  0
   -1.8505    5.8952   14.0050 H   0  0  0  0  0  0  0  0  0  0  0  0
   -4.1511    6.6958   14.4129 H   0  0  0  0  0  0  0  0  0  0  0  0
   -5.5274    4.4627   11.0337 H   0  0  0  0  0  0  0  0  0  0  0  0
   -3.2268    3.6621   10.6257 H   0  0  0  0  0  0  0  0  0  0  0  0
   -8.1235    6.2080   12.6194 H   0  0  0  0  0  0  0  0  0  0  0  0
   -8.4399    9.0642   16.3447 H   0  0  0  0  0  0  0  0  0  0  0  0
   -7.1006    7.9352   16.7423 H   0  0  0  0  0  0  0  0  0  0  0  0
   -6.7956    9.3525   15.6817 H   0  0  0  0  0  0  0  0  0  0  0  0
   -0.1075   -0.0318   13.6408 H   0  0  0  0  0  0  0  0  0  0  0  0
   -2.6909    1.2310   11.8726 H   0  0  0  0  0  0  0  0  0  0  0  0
   -1.5443    1.3652   13.2487 H   0  0  0  0  0  0  0  0  0  0  0  0
   -1.2146    0.2087   11.9144 H   0  0  0  0  0  0  0  0  0  0  0  0
  1  2  1  0  0  0  0
  2  3  1  0  0  0  0
  3  4  1  0  0  0  0
  3 40  1  0  0  0  0
  4  5  2  0  0  0  0
  5  6  1  0  0  0  0
  6  7  2  0  0  0  0
  6 39  1  0  0  0  0
  7  8  1  0  0  0  0
  8  9  2  0  0  0  0
  8 16  1  0  0  0  0
  9 10  1  0  0  0  0
 10 11  2  0  0  0  0
 10 17  1  0  0  0  0
 11 12  1  0  0  0  0
 12 13  1  0  0  0  0
 12 16  1  0  0  0  0
 13 14  2  0  0  0  0
 14 15  1  0  0  0  0
 15 16  2  0  0  0  0
 17 18  2  0  0  0  0
 17 22  1  0  0  0  0
 18 19  1  0  0  0  0
 19 20  2  0  0  0  0
 20 21  1  0  0  0  0
 21 22  2  0  0  0  0
 21 23  1  0  0  0  0
 23 24  1  0  0  0  0
 23 25  2  0  0  0  0
 25 26  1  0  0  0  0
 26 27  2  0  0  0  0
 26 31  1  0  0  0  0
 27 28  1  0  0  0  0
 28 29  2  0  0  0  0
 29 30  1  0  0  0  0
 29 32  1  0  0  0  0
 30 31  2  0  0  0  0
 32 33  1  0  0  0  0
 32 34  2  0  0  0  0
 34 35  1  0  0  0  0
 35 36  2  0  0  0  0
 35 37  2  0  0  0  0
 35 38  1  0  0  0  0
 39 40  2  0  0  0  0
 40 41  1  0  0  0  0
 41 42  1  0  0  0  0
  1 43  1  0  0  0  0
  1 44  1  0  0  0  0
  1 45  1  0  0  0  0
  3 46  1  0  0  0  0
  4 47  1  0  0  0  0
  5 48  1  0  0  0  0
 11 49  1  0  0  0  0
 13 50  1  0  0  0  0
 14 51  1  0  0  0  0
 18 52  1  0  0  0  0
 19 53  1  0  0  0  0
 20 54  1  0  0  0  0
 22 55  1  0  0  0  0
 24 56  1  0  0  0  0
 27 57  1  0  0  0  0
 28 58  1  0  0  0  0
 30 59  1  0  0  0  0
 31 60  1  0  0  0  0
 33 61  1  0  0  0  0
 38 62  1  0  0  0  0
 38 63  1  0  0  0  0
 38 64  1  0  0  0  0
 39 65  1  0  0  0  0
 42 66  1  0  0  0  0
 42 67  1  0  0  0  0
 42 68  1  0  0  0  0
M  END
> <IC50[nM]>
2.2

$$$$
CHEMBL3265000
  -OEChem-05192314333D
 Structure written by MMmdl.
 68 72  0     0  0  0  0  0  0999 V2000
   -4.2555   -3.1029   13.5707 C   0  0  0  0  0  0  0  0  0  0  0  0
   -3.8740   -2.3535   14.7166 O   0  0  0  0  0  0  0  0  0  0  0  0
   -2.5261   -2.1057   14.8053 C   0  0  0  0  0  0  0  0  0  0  0  0
   -1.7497   -2.8673   15.6804 C   0  0  0  0  0  0  0  0  0  0  0  0
   -0.3863   -2.6106   15.8150 C   0  0  0  0  0  0  0  0  0  0  0  0
    0.2220   -1.5829   15.0890 C   0  0  0  0  0  0  0  0  0  0  0  0
    1.5930   -1.3491   15.3060 N   0  0  0  0  0  0  0  0  0  0  0  0
    2.5452   -0.4689   14.7536 C   0  0  0  0  0  0  0  0  0  0  0  0
    2.2178    0.3551   13.7190 N   0  0  0  0  0  0  0  0  0  0  0  0
    3.1227    1.2406   13.2181 C   0  0  0  0  0  0  0  0  0  0  0  0
    4.4207    1.3039   13.7175 C   0  0  0  0  0  0  0  0  0  0  0  0
    4.7482    0.4921   14.7654 N   0  0  0  0  0  0  0  0  0  0  0  0
    5.8898    0.3836   15.5035 C   0  0  0  0  0  0  0  0  0  0  0  0
    5.5715   -0.5089   16.5177 C   0  0  0  0  0  0  0  0  0  0  0  0
    4.3818   -1.0543   16.3920 N   0  0  0  0  0  0  0  0  0  0  0  0
    3.8330   -0.4170   15.3252 C   0  0  0  0  0  0  0  0  0  0  0  0
    2.6564    2.1560   12.1340 C   0  0  0  0  0  0  0  0  0  0  0  0
    3.5566    2.6280   11.1666 C   0  0  0  0  0  0  0  0  0  0  0  0
    3.1294    3.4499   10.1277 C   0  0  0  0  0  0  0  0  0  0  0  0
    1.7879    3.8078   10.0318 C   0  0  0  0  0  0  0  0  0  0  0  0
    0.8660    3.3707   10.9895 C   0  0  0  0  0  0  0  0  0  0  0  0
    1.3140    2.5576   12.0419 C   0  0  0  0  0  0  0  0  0  0  0  0
   -0.5783    3.7648   10.8956 C   0  0  0  0  0  0  0  0  0  0  0  0
   -1.2780    3.6594    9.8925 O   0  0  0  0  0  0  0  0  0  0  0  0
   -1.0343    4.2553   12.0485 N   0  0  0  0  0  0  0  0  0  0  0  0
   -2.3943    4.7285   12.2897 C   0  0  0  0  0  0  0  0  0  0  0  0
   -2.6544    5.5820   13.3553 C   0  0  0  0  0  0  0  0  0  0  0  0
   -3.9490    6.0325   13.5849 C   0  0  0  0  0  0  0  0  0  0  0  0
   -4.9835    5.6294   12.7489 C   0  0  0  0  0  0  0  0  0  0  0  0
   -4.7235    4.7759   11.6833 C   0  0  0  0  0  0  0  0  0  0  0  0
   -3.4289    4.3254   11.4537 C   0  0  0  0  0  0  0  0  0  0  0  0
   -6.3808    6.1155   12.9967 C   0  0  0  0  0  0  0  0  0  0  0  0
   -7.3335    5.7936   12.2928 O   0  0  0  0  0  0  0  0  0  0  0  0
   -6.3969    6.9226   14.0705 N   0  0  0  0  0  0  0  0  0  0  0  0
   -7.9316    7.5992   14.5333 S   0  0  0  0  0  0  0  0  0  0  0  0
   -8.7871    6.4947   14.9809 O   0  0  0  0  0  0  0  0  0  0  0  0
   -8.3522    8.5161   13.4681 O   0  0  0  0  0  0  0  0  0  0  0  0
   -7.5285    8.5816   15.9619 C   0  0  0  0  0  0  0  0  0  0  0  0
   -0.5664   -0.8256   14.2115 C   0  0  0  0  0  0  0  0  0  0  0  0
   -1.9389   -1.0760   14.0580 C   0  0  0  0  0  0  0  0  0  0  0  0
   -2.6991   -0.3052   13.2021 O   0  0  0  0  0  0  0  0  0  0  0  0
   -2.0020    0.6746   12.5251 C   0  0  0  0  0  0  0  0  0  0  0  0
   -5.3448   -3.2555   13.5777 H   0  0  0  0  0  0  0  0  0  0  0  0
   -3.9681   -2.5543   12.6616 H   0  0  0  0  0  0  0  0  0  0  0  0
   -3.7486   -4.0790   13.5856 H   0  0  0  0  0  0  0  0  0  0  0  0
   -2.2073   -3.6587   16.2555 H   0  0  0  0  0  0  0  0  0  0  0  0
   -0.2118   -2.3897   16.8784 H   0  0  0  0  0  0  0  0  0  0  0  0
    0.1365   -3.5394   15.5428 H   0  0  0  0  0  0  0  0  0  0  0  0
    5.1484    1.9765   13.2880 H   0  0  0  0  0  0  0  0  0  0  0  0
    6.8331    0.8820   15.3359 H   0  0  0  0  0  0  0  0  0  0  0  0
    6.2400   -0.7347   17.3354 H   0  0  0  0  0  0  0  0  0  0  0  0
    4.5981    2.3490   11.2292 H   0  0  0  0  0  0  0  0  0  0  0  0
    3.8383    3.8096    9.3966 H   0  0  0  0  0  0  0  0  0  0  0  0
    1.4559    4.4276    9.2120 H   0  0  0  0  0  0  0  0  0  0  0  0
    0.6121    2.2342   12.7963 H   0  0  0  0  0  0  0  0  0  0  0  0
   -2.1538    3.9747   10.0822 H   0  0  0  0  0  0  0  0  0  0  0  0
   -1.8505    5.8952   14.0050 H   0  0  0  0  0  0  0  0  0  0  0  0
   -4.1511    6.6958   14.4129 H   0  0  0  0  0  0  0  0  0  0  0  0
   -5.5274    4.4627   11.0337 H   0  0  0  0  0  0  0  0  0  0  0  0
   -3.2268    3.6621   10.6257 H   0  0  0  0  0  0  0  0  0  0  0  0
   -8.1235    6.2080   12.6194 H   0  0  0  0  0  0  0  0  0  0  0  0
   -8.4399    9.0642   16.3447 H   0  0  0  0  0  0  0  0  0  0  0  0
   -7.1006    7.9352   16.7423 H   0  0  0  0  0  0  0  0  0  0  0  0
   -6.7956    9.3525   15.6817 H   0  0  0  0  0  0  0  0  0  0  0  0
   -0.1075   -0.0318   13.6408 H   0  0  0  0  0  0  0  0  0  0  0  0
   -2.6909    1.2310   11.8726 H   0  0  0  0  0  0  0  0  0  0  0  0
   -1.5443    1.3652   13.2487 H   0  0  0  0  0  0  0  0  0  0  0  0
   -1.2146    0.2087   11.9144 H   0  0  0  0  0  0  0  0  0  0  0  0
  1  2  1  0  0  0  0
  2  3  1  0  0  0  0
  3  4  2  0  0  0  0
  3 40  1  0  0  0  0
  4  5  1  0  0  0  0
  5  6  1  0  0  0  0
  6  7  2  0  0  0  0
  6 39  1  0  0  0  0
  7  8  1  0  0  0  0
  8  9  2  0  0  0  0
  8 16  1  0  0  0  0
  9 10  1  0  0  0  0
 10 11  2  0  0  0  0
 10 17  1  0  0  0  0
 11 12  1  0  0  0  0
 12 13  1  0  0  0  0
 12 16  1  0  0  0  0
 13 14  2  0  0  0  0
 14 15  1  0  0  0  0
 15 16  2  0  0  0  0
 17 18  2  0  0  0  0
 17 22  1  0  0  0  0
 18 19  1  0  0  0  0
 19 20  2  0  0  0  0
 20 21  1  0  0  0  0
 21 22  2  0  0  0  0
 21 23  1  0  0  0  0
 23 24  1  0  0  0  0
 23 25  2  0  0  0  0
 25 26  1  0  0  0  0
 26 27  2  0  0  0  0
 26 31  1  0  0  0  0
 27 28  1  0  0  0  0
 28 29  2  0  0  0  0
 29 30  1  0  0  0  0
 29 32  1  0  0  0  0
 30 31  2  0  0  0  0
 32 33  1  0  0  0  0
 32 34  2  0  0  0  0
 34 35  1  0  0  0  0
 35 36  2  0  0  0  0
 35 37  2  0  0  0  0
 35 38  1  0  0  0  0
 39 40  2  0  0  0  0
 40 41  1  0  0  0  0
 41 42  1  0  0  0  0
  1 43  1  0  0  0  0
  1 44  1  0  0  0  0
  1 45  1  0  0  0  0
  4 46  1  0  0  0  0
  5 47  1  0  0  0  0
  5 48  1  0  0  0  0
 11 49  1  0  0  0  0
 13 50  1  0  0  0  0
 14 51  1  0  0  0  0
 18 52  1  0  0  0  0
 19 53  1  0  0  0  0
 20 54  1  0  0  0  0
 22 55  1  0  0  0  0
 24 56  1  0  0  0  0
 27 57  1  0  0  0  0
 28 58  1  0  0  0  0
 30 59  1  0  0  0  0
 31 60  1  0  0  0  0
 33 61  1  0  0  0  0
 38 62  1  0  0  0  0
 38 63  1  0  0  0  0
 38 64  1  0  0  0  0
 39 65  1  0  0  0  0
 42 66  1  0  0  0  0
 42 67  1  0  0  0  0
 42 68  1  0  0  0  0
M  END
> <IC50[nM]>
2.2

$$$$
CHEMBL3265000
  -OEChem-05192314333D
 Structure written by MMmdl.
 68 72  0     0  0  0  0  0  0999 V2000
   -4.2555   -3.1029   13.5707 C   0  0  0  0  0  0  0  0  0  0  0  0
   -3.8740   -2.3535   14.7166 O   0  0  0  0  0  0  0  0  0  0  0  0
   -2.5261   -2.1057   14.8053 C   0  0  0  0  0  0  0  0  0  0  0  0
   -1.7497   -2.8673   15.6804 C   0  0  0  0  0  0  0  0  0  0  0  0
   -0.3863   -2.6106   15.8150 C   0  0  0  0  0  0  0  0  0  0  0  0
    0.2220   -1.5829   15.0890 C   0  0  0  0  0  0  0  0  0  0  0  0
    1.5930   -1.3491   15.3060 N   0  0  0  0  0  0  0  0  0  0  0  0
    2.5452   -0.4689   14.7536 C   0  0  0  0  0  0  0  0  0  0  0  0
    2.2178    0.3551   13.7190 N   0  0  0  0  0  0  0  0  0  0  0  0
    3.1227    1.2406   13.2181 C   0  0  0  0  0  0  0  0  0  0  0  0
    4.4207    1.3039   13.7175 C   0  0  0  0  0  0  0  0  0  0  0  0
    4.7482    0.4921   14.7654 N   0  0  0  0  0  0  0  0  0  0  0  0
    5.8898    0.3836   15.5035 C   0  0  0  0  0  0  0  0  0  0  0  0
    5.5715   -0.5089   16.5177 C   0  0  0  0  0  0  0  0  0  0  0  0
    4.3818   -1.0543   16.3920 N   0  0  0  0  0  0  0  0  0  0  0  0
    3.8330   -0.4170   15.3252 C   0  0  0  0  0  0  0  0  0  0  0  0
    2.6564    2.1560   12.1340 C   0  0  0  0  0  0  0  0  0  0  0  0
    3.5566    2.6280   11.1666 C   0  0  0  0  0  0  0  0  0  0  0  0
    3.1294    3.4499   10.1277 C   0  0  0  0  0  0  0  0  0  0  0  0
    1.7879    3.8078   10.0318 C   0  0  0  0  0  0  0  0  0  0  0  0
    0.8660    3.3707   10.9895 C   0  0  0  0  0  0  0  0  0  0  0  0
    1.3140    2.5576   12.0419 C   0  0  0  0  0  0  0  0  0  0  0  0
   -0.5783    3.7648   10.8956 C   0  0  0  0  0  0  0  0  0  0  0  0
   -1.2780    3.6594    9.8925 O   0  0  0  0  0  0  0  0  0  0  0  0
   -1.0343    4.2553   12.0485 N   0  0  0  0  0  0  0  0  0  0  0  0
   -2.3943    4.7285   12.2897 C   0  0  0  0  0  0  0  0  0  0  0  0
   -2.6544    5.5820   13.3553 C   0  0  0  0  0  0  0  0  0  0  0  0
   -3.9490    6.0325   13.5849 C   0  0  0  0  0  0  0  0  0  0  0  0
   -4.9835    5.6294   12.7489 C   0  0  0  0  0  0  0  0  0  0  0  0
   -4.7235    4.7759   11.6833 C   0  0  0  0  0  0  0  0  0  0  0  0
   -3.4289    4.3254   11.4537 C   0  0  0  0  0  0  0  0  0  0  0  0
   -6.3808    6.1155   12.9967 C   0  0  0  0  0  0  0  0  0  0  0  0
   -7.3335    5.7936   12.2928 O   0  0  0  0  0  0  0  0  0  0  0  0
   -6.3969    6.9226   14.0705 N   0  0  0  0  0  0  0  0  0  0  0  0
   -7.9316    7.5992   14.5333 S   0  0  0  0  0  0  0  0  0  0  0  0
   -8.7871    6.4947   14.9809 O   0  0  0  0  0  0  0  0  0  0  0  0
   -8.3522    8.5161   13.4681 O   0  0  0  0  0  0  0  0  0  0  0  0
   -7.5285    8.5816   15.9619 C   0  0  0  0  0  0  0  0  0  0  0  0
   -0.5664   -0.8256   14.2115 C   0  0  0  0  0  0  0  0  0  0  0  0
   -1.9389   -1.0760   14.0580 C   0  0  0  0  0  0  0  0  0  0  0  0
   -2.6991   -0.3052   13.2021 O   0  0  0  0  0  0  0  0  0  0  0  0
   -2.0020    0.6746   12.5251 C   0  0  0  0  0  0  0  0  0  0  0  0
   -5.3448   -3.2555   13.5777 H   0  0  0  0  0  0  0  0  0  0  0  0
   -3.9681   -2.5543   12.6616 H   0  0  0  0  0  0  0  0  0  0  0  0
   -3.7486   -4.0790   13.5856 H   0  0  0  0  0  0  0  0  0  0  0  0
   -2.2073   -3.6587   16.2555 H   0  0  0  0  0  0  0  0  0  0  0  0
    0.2066   -3.2125   16.4877 H   0  0  0  0  0  0  0  0  0  0  0  0
    5.1484    1.9765   13.2880 H   0  0  0  0  0  0  0  0  0  0  0  0
    6.8331    0.8820   15.3359 H   0  0  0  0  0  0  0  0  0  0  0  0
    6.2400   -0.7347   17.3354 H   0  0  0  0  0  0  0  0  0  0  0  0
    4.5981    2.3490   11.2292 H   0  0  0  0  0  0  0  0  0  0  0  0
    3.8383    3.8096    9.3966 H   0  0  0  0  0  0  0  0  0  0  0  0
    1.4559    4.4276    9.2120 H   0  0  0  0  0  0  0  0  0  0  0  0
    0.6121    2.2342   12.7963 H   0  0  0  0  0  0  0  0  0  0  0  0
   -2.1538    3.9747   10.0822 H   0  0  0  0  0  0  0  0  0  0  0  0
   -1.8505    5.8952   14.0050 H   0  0  0  0  0  0  0  0  0  0  0  0
   -4.1511    6.6958   14.4129 H   0  0  0  0  0  0  0  0  0  0  0  0
   -5.5274    4.4627   11.0337 H   0  0  0  0  0  0  0  0  0  0  0  0
   -3.2268    3.6621   10.6257 H   0  0  0  0  0  0  0  0  0  0  0  0
   -8.1235    6.2080   12.6194 H   0  0  0  0  0  0  0  0  0  0  0  0
   -8.4399    9.0642   16.3447 H   0  0  0  0  0  0  0  0  0  0  0  0
   -7.1006    7.9352   16.7423 H   0  0  0  0  0  0  0  0  0  0  0  0
   -6.7956    9.3525   15.6817 H   0  0  0  0  0  0  0  0  0  0  0  0
   -0.4764    0.2210   14.5379 H   0  0  0  0  0  0  0  0  0  0  0  0
   -0.1167   -0.9386   13.2140 H   0  0  0  0  0  0  0  0  0  0  0  0
   -2.6909    1.2310   11.8726 H   0  0  0  0  0  0  0  0  0  0  0  0
   -1.5443    1.3652   13.2487 H   0  0  0  0  0  0  0  0  0  0  0  0
   -1.2146    0.2087   11.9144 H   0  0  0  0  0  0  0  0  0  0  0  0
  1  2  1  0  0  0  0
  2  3  1  0  0  0  0
  3  4  1  0  0  0  0
  3 40  2  0  0  0  0
  4  5  2  0  0  0  0
  5  6  1  0  0  0  0
  6  7  2  0  0  0  0
  6 39  1  0  0  0  0
  7  8  1  0  0  0  0
  8  9  2  0  0  0  0
  8 16  1  0  0  0  0
  9 10  1  0  0  0  0
 10 11  2  0  0  0  0
 10 17  1  0  0  0  0
 11 12  1  0  0  0  0
 12 13  1  0  0  0  0
 12 16  1  0  0  0  0
 13 14  2  0  0  0  0
 14 15  1  0  0  0  0
 15 16  2  0  0  0  0
 17 18  2  0  0  0  0
 17 22  1  0  0  0  0
 18 19  1  0  0  0  0
 19 20  2  0  0  0  0
 20 21  1  0  0  0  0
 21 22  2  0  0  0  0
 21 23  1  0  0  0  0
 23 24  1  0  0  0  0
 23 25  2  0  0  0  0
 25 26  1  0  0  0  0
 26 27  2  0  0  0  0
 26 31  1  0  0  0  0
 27 28  1  0  0  0  0
 28 29  2  0  0  0  0
 29 30  1  0  0  0  0
 29 32  1  0  0  0  0
 30 31  2  0  0  0  0
 32 33  1  0  0  0  0
 32 34  2  0  0  0  0
 34 35  1  0  0  0  0
 35 36  2  0  0  0  0
 35 37  2  0  0  0  0
 35 38  1  0  0  0  0
 39 40  1  0  0  0  0
 40 41  1  0  0  0  0
 41 42  1  0  0  0  0
  1 43  1  0  0  0  0
  1 44  1  0  0  0  0
  1 45  1  0  0  0  0
  4 46  1  0  0  0  0
  5 47  1  0  0  0  0
 11 48  1  0  0  0  0
 13 49  1  0  0  0  0
 14 50  1  0  0  0  0
 18 51  1  0  0  0  0
 19 52  1  0  0  0  0
 20 53  1  0  0  0  0
 22 54  1  0  0  0  0
 24 55  1  0  0  0  0
 27 56  1  0  0  0  0
 28 57  1  0  0  0  0
 30 58  1  0  0  0  0
 31 59  1  0  0  0  0
 33 60  1  0  0  0  0
 38 61  1  0  0  0  0
 38 62  1  0  0  0  0
 38 63  1  0  0  0  0
 39 64  1  0  0  0  0
 39 65  1  0  0  0  0
 42 66  1  0  0  0  0
 42 67  1  0  0  0  0
 42 68  1  0  0  0  0
M  END
> <IC50[nM]>
2.2

$$$$
CHEMBL3265000
  -OEChem-05192314333D
 Structure written by MMmdl.
 68 72  0     0  0  0  0  0  0999 V2000
   -4.2555   -3.1029   13.5707 C   0  0  0  0  0  0  0  0  0  0  0  0
   -3.8740   -2.3535   14.7166 O   0  0  0  0  0  0  0  0  0  0  0  0
   -2.5261   -2.1057   14.8053 C   0  0  0  0  0  0  0  0  0  0  0  0
   -1.7497   -2.8673   15.6804 C   0  0  0  0  0  0  0  0  0  0  0  0
   -0.3863   -2.6106   15.8150 C   0  0  0  0  0  0  0  0  0  0  0  0
    0.2220   -1.5829   15.0890 C   0  0  0  0  0  0  0  0  0  0  0  0
    1.5930   -1.3491   15.3060 N   0  0  0  0  0  0  0  0  0  0  0  0
    2.5452   -0.4689   14.7536 C   0  0  0  0  0  0  0  0  0  0  0  0
    2.2178    0.3551   13.7190 N   0  0  0  0  0  0  0  0  0  0  0  0
    3.1227    1.2406   13.2181 C   0  0  0  0  0  0  0  0  0  0  0  0
    4.4207    1.3039   13.7175 C   0  0  0  0  0  0  0  0  0  0  0  0
    4.7482    0.4921   14.7654 N   0  0  0  0  0  0  0  0  0  0  0  0
    5.8898    0.3836   15.5035 C   0  0  0  0  0  0  0  0  0  0  0  0
    5.5715   -0.5089   16.5177 C   0  0  0  0  0  0  0  0  0  0  0  0
    4.3818   -1.0543   16.3920 N   0  0  0  0  0  0  0  0  0  0  0  0
    3.8330   -0.4170   15.3252 C   0  0  0  0  0  0  0  0  0  0  0  0
    2.6564    2.1560   12.1340 C   0  0  0  0  0  0  0  0  0  0  0  0
    3.5566    2.6280   11.1666 C   0  0  0  0  0  0  0  0  0  0  0  0
    3.1294    3.4499   10.1277 C   0  0  0  0  0  0  0  0  0  0  0  0
    1.7879    3.8078   10.0318 C   0  0  0  0  0  0  0  0  0  0  0  0
    0.8660    3.3707   10.9895 C   0  0  0  0  0  0  0  0  0  0  0  0
    1.3140    2.5576   12.0419 C   0  0  0  0  0  0  0  0  0  0  0  0
   -0.5783    3.7648   10.8956 C   0  0  0  0  0  0  0  0  0  0  0  0
   -1.2780    3.6594    9.8925 O   0  0  0  0  0  0  0  0  0  0  0  0
   -1.0343    4.2553   12.0485 N   0  0  0  0  0  0  0  0  0  0  0  0
   -2.3943    4.7285   12.2897 C   0  0  0  0  0  0  0  0  0  0  0  0
   -2.6544    5.5820   13.3553 C   0  0  0  0  0  0  0  0  0  0  0  0
   -3.9490    6.0325   13.5849 C   0  0  0  0  0  0  0  0  0  0  0  0
   -4.9835    5.6294   12.7489 C   0  0  0  0  0  0  0  0  0  0  0  0
   -4.7235    4.7759   11.6833 C   0  0  0  0  0  0  0  0  0  0  0  0
   -3.4289    4.3254   11.4537 C   0  0  0  0  0  0  0  0  0  0  0  0
   -6.3808    6.1155   12.9967 C   0  0  0  0  0  0  0  0  0  0  0  0
   -7.3335    5.7936   12.2928 O   0  0  0  0  0  0  0  0  0  0  0  0
   -6.3969    6.9226   14.0705 N   0  0  0  0  0  0  0  0  0  0  0  0
   -7.9316    7.5992   14.5333 S   0  0  0  0  0  0  0  0  0  0  0  0
   -8.7871    6.4947   14.9809 O   0  0  0  0  0  0  0  0  0  0  0  0
   -8.3522    8.5161   13.4681 O   0  0  0  0  0  0  0  0  0  0  0  0
   -7.5285    8.5816   15.9619 C   0  0  0  0  0  0  0  0  0  0  0  0
   -0.5664   -0.8256   14.2115 C   0  0  0  0  0  0  0  0  0  0  0  0
   -1.9389   -1.0760   14.0580 C   0  0  0  0  0  0  0  0  0  0  0  0
   -2.6991   -0.3052   13.2021 O   0  0  0  0  0  0  0  0  0  0  0  0
   -2.0020    0.6746   12.5251 C   0  0  0  0  0  0  0  0  0  0  0  0
   -5.3448   -3.2555   13.5777 H   0  0  0  0  0  0  0  0  0  0  0  0
   -3.9681   -2.5543   12.6616 H   0  0  0  0  0  0  0  0  0  0  0  0
   -3.7486   -4.0790   13.5856 H   0  0  0  0  0  0  0  0  0  0  0  0
   -2.2073   -3.6587   16.2555 H   0  0  0  0  0  0  0  0  0  0  0  0
    0.2066   -3.2125   16.4877 H   0  0  0  0  0  0  0  0  0  0  0  0
    1.3010    0.3089   13.3224 H   0  0  0  0  0  0  0  0  0  0  0  0
    5.1484    1.9765   13.2880 H   0  0  0  0  0  0  0  0  0  0  0  0
    6.8331    0.8820   15.3359 H   0  0  0  0  0  0  0  0  0  0  0  0
    6.2400   -0.7347   17.3354 H   0  0  0  0  0  0  0  0  0  0  0  0
    4.5981    2.3490   11.2292 H   0  0  0  0  0  0  0  0  0  0  0  0
    3.8383    3.8096    9.3966 H   0  0  0  0  0  0  0  0  0  0  0  0
    1.4559    4.4276    9.2120 H   0  0  0  0  0  0  0  0  0  0  0  0
    0.6121    2.2342   12.7963 H   0  0  0  0  0  0  0  0  0  0  0  0
   -1.8505    5.8952   14.0050 H   0  0  0  0  0  0  0  0  0  0  0  0
   -4.1511    6.6958   14.4129 H   0  0  0  0  0  0  0  0  0  0  0  0
   -4.7968    6.4973   12.0993 H   0  0  0  0  0  0  0  0  0  0  0  0
   -5.5274    4.4627   11.0337 H   0  0  0  0  0  0  0  0  0  0  0  0
   -3.2268    3.6621   10.6257 H   0  0  0  0  0  0  0  0  0  0  0  0
   -5.5621    7.1259   14.5822 H   0  0  0  0  0  0  0  0  0  0  0  0
   -8.4399    9.0642   16.3447 H   0  0  0  0  0  0  0  0  0  0  0  0
   -7.1006    7.9352   16.7423 H   0  0  0  0  0  0  0  0  0  0  0  0
   -6.7956    9.3525   15.6817 H   0  0  0  0  0  0  0  0  0  0  0  0
   -0.1075   -0.0318   13.6408 H   0  0  0  0  0  0  0  0  0  0  0  0
   -2.6909    1.2310   11.8726 H   0  0  0  0  0  0  0  0  0  0  0  0
   -1.5443    1.3652   13.2487 H   0  0  0  0  0  0  0  0  0  0  0  0
   -1.2146    0.2087   11.9144 H   0  0  0  0  0  0  0  0  0  0  0  0
  1  2  1  0  0  0  0
  2  3  1  0  0  0  0
  3  4  2  0  0  0  0
  3 40  1  0  0  0  0
  4  5  1  0  0  0  0
  5  6  2  0  0  0  0
  6  7  1  0  0  0  0
  6 39  1  0  0  0  0
  7  8  2  0  0  0  0
  8  9  1  0  0  0  0
  8 16  1  0  0  0  0
  9 10  1  0  0  0  0
 10 11  2  0  0  0  0
 10 17  1  0  0  0  0
 11 12  1  0  0  0  0
 12 13  1  0  0  0  0
 12 16  1  0  0  0  0
 13 14  2  0  0  0  0
 14 15  1  0  0  0  0
 15 16  2  0  0  0  0
 17 18  2  0  0  0  0
 17 22  1  0  0  0  0
 18 19  1  0  0  0  0
 19 20  2  0  0  0  0
 20 21  1  0  0  0  0
 21 22  2  0  0  0  0
 21 23  1  0  0  0  0
 23 24  2  0  0  0  0
 23 25  1  0  0  0  0
 25 26  2  0  0  0  0
 26 27  1  0  0  0  0
 26 31  1  0  0  0  0
 27 28  2  0  0  0  0
 28 29  1  0  0  0  0
 29 30  1  0  0  0  0
 29 32  1  0  0  0  0
 30 31  2  0  0  0  0
 32 33  2  0  0  0  0
 32 34  1  0  0  0  0
 34 35  1  0  0  0  0
 35 36  2  0  0  0  0
 35 37  2  0  0  0  0
 35 38  1  0  0  0  0
 39 40  2  0  0  0  0
 40 41  1  0  0  0  0
 41 42  1  0  0  0  0
  1 43  1  0  0  0  0
  1 44  1  0  0  0  0
  1 45  1  0  0  0  0
  4 46  1  0  0  0  0
  5 47  1  0  0  0  0
  9 48  1  0  0  0  0
 11 49  1  0  0  0  0
 13 50  1  0  0  0  0
 14 51  1  0  0  0  0
 18 52  1  0  0  0  0
 19 53  1  0  0  0  0
 20 54  1  0  0  0  0
 22 55  1  0  0  0  0
 27 56  1  0  0  0  0
 28 57  1  0  0  0  0
 29 58  1  0  0  0  0
 30 59  1  0  0  0  0
 31 60  1  0  0  0  0
 34 61  1  0  0  0  0
 38 62  1  0  0  0  0
 38 63  1  0  0  0  0
 38 64  1  0  0  0  0
 39 65  1  0  0  0  0
 42 66  1  0  0  0  0
 42 67  1  0  0  0  0
 42 68  1  0  0  0  0
M  END
> <IC50[nM]>
2.2

$$$$
CHEMBL3265000
  -OEChem-05192314333D
 Structure written by MMmdl.
 68 72  0     0  0  0  0  0  0999 V2000
   -4.2555   -3.1029   13.5707 C   0  0  0  0  0  0  0  0  0  0  0  0
   -3.8740   -2.3535   14.7166 O   0  0  0  0  0  0  0  0  0  0  0  0
   -2.5261   -2.1057   14.8053 C   0  0  0  0  0  0  0  0  0  0  0  0
   -1.7497   -2.8673   15.6804 C   0  0  0  0  0  0  0  0  0  0  0  0
   -0.3863   -2.6106   15.8150 C   0  0  0  0  0  0  0  0  0  0  0  0
    0.2220   -1.5829   15.0890 C   0  0  0  0  0  0  0  0  0  0  0  0
    1.5930   -1.3491   15.3060 N   0  0  0  0  0  0  0  0  0  0  0  0
    2.5452   -0.4689   14.7536 C   0  0  0  0  0  0  0  0  0  0  0  0
    2.2178    0.3551   13.7190 N   0  0  0  0  0  0  0  0  0  0  0  0
    3.1227    1.2406   13.2181 C   0  0  0  0  0  0  0  0  0  0  0  0
    4.4207    1.3039   13.7175 C   0  0  0  0  0  0  0  0  0  0  0  0
    4.7482    0.4921   14.7654 N   0  0  0  0  0  0  0  0  0  0  0  0
    5.8898    0.3836   15.5035 C   0  0  0  0  0  0  0  0  0  0  0  0
    5.5715   -0.5089   16.5177 C   0  0  0  0  0  0  0  0  0  0  0  0
    4.3818   -1.0543   16.3920 N   0  0  0  0  0  0  0  0  0  0  0  0
    3.8330   -0.4170   15.3252 C   0  0  0  0  0  0  0  0  0  0  0  0
    2.6564    2.1560   12.1340 C   0  0  0  0  0  0  0  0  0  0  0  0
    3.5566    2.6280   11.1666 C   0  0  0  0  0  0  0  0  0  0  0  0
    3.1294    3.4499   10.1277 C   0  0  0  0  0  0  0  0  0  0  0  0
    1.7879    3.8078   10.0318 C   0  0  0  0  0  0  0  0  0  0  0  0
    0.8660    3.3707   10.9895 C   0  0  0  0  0  0  0  0  0  0  0  0
    1.3140    2.5576   12.0419 C   0  0  0  0  0  0  0  0  0  0  0  0
   -0.5783    3.7648   10.8956 C   0  0  0  0  0  0  0  0  0  0  0  0
   -1.2780    3.6594    9.8925 O   0  0  0  0  0  0  0  0  0  0  0  0
   -1.0343    4.2553   12.0485 N   0  0  0  0  0  0  0  0  0  0  0  0
   -2.3943    4.7285   12.2897 C   0  0  0  0  0  0  0  0  0  0  0  0
   -2.6544    5.5820   13.3553 C   0  0  0  0  0  0  0  0  0  0  0  0
   -3.9490    6.0325   13.5849 C   0  0  0  0  0  0  0  0  0  0  0  0
   -4.9835    5.6294   12.7489 C   0  0  0  0  0  0  0  0  0  0  0  0
   -4.7235    4.7759   11.6833 C   0  0  0  0  0  0  0  0  0  0  0  0
   -3.4289    4.3254   11.4537 C   0  0  0  0  0  0  0  0  0  0  0  0
   -6.3808    6.1155   12.9967 C   0  0  0  0  0  0  0  0  0  0  0  0
   -7.3335    5.7936   12.2928 O   0  0  0  0  0  0  0  0  0  0  0  0
   -6.3969    6.9226   14.0705 N   0  0  0  0  0  0  0  0  0  0  0  0
   -7.9316    7.5992   14.5333 S   0  0  0  0  0  0  0  0  0  0  0  0
   -8.7871    6.4947   14.9809 O   0  0  0  0  0  0  0  0  0  0  0  0
   -8.3522    8.5161   13.4681 O   0  0  0  0  0  0  0  0  0  0  0  0
   -7.5285    8.5816   15.9619 C   0  0  0  0  0  0  0  0  0  0  0  0
   -0.5664   -0.8256   14.2115 C   0  0  0  0  0  0  0  0  0  0  0  0
   -1.9389   -1.0760   14.0580 C   0  0  0  0  0  0  0  0  0  0  0  0
   -2.6991   -0.3052   13.2021 O   0  0  0  0  0  0  0  0  0  0  0  0
   -2.0020    0.6746   12.5251 C   0  0  0  0  0  0  0  0  0  0  0  0
   -5.3448   -3.2555   13.5777 H   0  0  0  0  0  0  0  0  0  0  0  0
   -3.9681   -2.5543   12.6616 H   0  0  0  0  0  0  0  0  0  0  0  0
   -3.7486   -4.0790   13.5856 H   0  0  0  0  0  0  0  0  0  0  0  0
   -2.2073   -3.6587   16.2555 H   0  0  0  0  0  0  0  0  0  0  0  0
    0.2066   -3.2125   16.4877 H   0  0  0  0  0  0  0  0  0  0  0  0
    1.3010    0.3089   13.3224 H   0  0  0  0  0  0  0  0  0  0  0  0
    5.1484    1.9765   13.2880 H   0  0  0  0  0  0  0  0  0  0  0  0
    6.8331    0.8820   15.3359 H   0  0  0  0  0  0  0  0  0  0  0  0
    6.2400   -0.7347   17.3354 H   0  0  0  0  0  0  0  0  0  0  0  0
    4.5981    2.3490   11.2292 H   0  0  0  0  0  0  0  0  0  0  0  0
    3.8383    3.8096    9.3966 H   0  0  0  0  0  0  0  0  0  0  0  0
    1.4559    4.4276    9.2120 H   0  0  0  0  0  0  0  0  0  0  0  0
    0.6121    2.2342   12.7963 H   0  0  0  0  0  0  0  0  0  0  0  0
   -2.3342    5.0575   14.2677 H   0  0  0  0  0  0  0  0  0  0  0  0
   -2.0291    6.4748   13.2070 H   0  0  0  0  0  0  0  0  0  0  0  0
   -4.1511    6.6958   14.4129 H   0  0  0  0  0  0  0  0  0  0  0  0
   -5.5274    4.4627   11.0337 H   0  0  0  0  0  0  0  0  0  0  0  0
   -3.2268    3.6621   10.6257 H   0  0  0  0  0  0  0  0  0  0  0  0
   -5.5621    7.1259   14.5822 H   0  0  0  0  0  0  0  0  0  0  0  0
   -8.4399    9.0642   16.3447 H   0  0  0  0  0  0  0  0  0  0  0  0
   -7.1006    7.9352   16.7423 H   0  0  0  0  0  0  0  0  0  0  0  0
   -6.7956    9.3525   15.6817 H   0  0  0  0  0  0  0  0  0  0  0  0
   -0.1075   -0.0318   13.6408 H   0  0  0  0  0  0  0  0  0  0  0  0
   -2.6909    1.2310   11.8726 H   0  0  0  0  0  0  0  0  0  0  0  0
   -1.5443    1.3652   13.2487 H   0  0  0  0  0  0  0  0  0  0  0  0
   -1.2146    0.2087   11.9144 H   0  0  0  0  0  0  0  0  0  0  0  0
  1  2  1  0  0  0  0
  2  3  1  0  0  0  0
  3  4  2  0  0  0  0
  3 40  1  0  0  0  0
  4  5  1  0  0  0  0
  5  6  2  0  0  0  0
  6  7  1  0  0  0  0
  6 39  1  0  0  0  0
  7  8  2  0  0  0  0
  8  9  1  0  0  0  0
  8 16  1  0  0  0  0
  9 10  1  0  0  0  0
 10 11  2  0  0  0  0
 10 17  1  0  0  0  0
 11 12  1  0  0  0  0
 12 13  1  0  0  0  0
 12 16  1  0  0  0  0
 13 14  2  0  0  0  0
 14 15  1  0  0  0  0
 15 16  2  0  0  0  0
 17 18  2  0  0  0  0
 17 22  1  0  0  0  0
 18 19  1  0  0  0  0
 19 20  2  0  0  0  0
 20 21  1  0  0  0  0
 21 22  2  0  0  0  0
 21 23  1  0  0  0  0
 23 24  2  0  0  0  0
 23 25  1  0  0  0  0
 25 26  2  0  0  0  0
 26 27  1  0  0  0  0
 26 31  1  0  0  0  0
 27 28  1  0  0  0  0
 28 29  2  0  0  0  0
 29 30  1  0  0  0  0
 29 32  1  0  0  0  0
 30 31  2  0  0  0  0
 32 33  2  0  0  0  0
 32 34  1  0  0  0  0
 34 35  1  0  0  0  0
 35 36  2  0  0  0  0
 35 37  2  0  0  0  0
 35 38  1  0  0  0  0
 39 40  2  0  0  0  0
 40 41  1  0  0  0  0
 41 42  1  0  0  0  0
  1 43  1  0  0  0  0
  1 44  1  0  0  0  0
  1 45  1  0  0  0  0
  4 46  1  0  0  0  0
  5 47  1  0  0  0  0
  9 48  1  0  0  0  0
 11 49  1  0  0  0  0
 13 50  1  0  0  0  0
 14 51  1  0  0  0  0
 18 52  1  0  0  0  0
 19 53  1  0  0  0  0
 20 54  1  0  0  0  0
 22 55  1  0  0  0  0
 27 56  1  0  0  0  0
 27 57  1  0  0  0  0
 28 58  1  0  0  0  0
 30 59  1  0  0  0  0
 31 60  1  0  0  0  0
 34 61  1  0  0  0  0
 38 62  1  0  0  0  0
 38 63  1  0  0  0  0
 38 64  1  0  0  0  0
 39 65  1  0  0  0  0
 42 66  1  0  0  0  0
 42 67  1  0  0  0  0
 42 68  1  0  0  0  0
M  END
> <IC50[nM]>
2.2

$$$$
CHEMBL3265000
  -OEChem-05192314333D
 Structure written by MMmdl.
 68 72  0     0  0  0  0  0  0999 V2000
   -4.2555   -3.1029   13.5707 C   0  0  0  0  0  0  0  0  0  0  0  0
   -3.8740   -2.3535   14.7166 O   0  0  0  0  0  0  0  0  0  0  0  0
   -2.5261   -2.1057   14.8053 C   0  0  0  0  0  0  0  0  0  0  0  0
   -1.7497   -2.8673   15.6804 C   0  0  0  0  0  0  0  0  0  0  0  0
   -0.3863   -2.6106   15.8150 C   0  0  0  0  0  0  0  0  0  0  0  0
    0.2220   -1.5829   15.0890 C   0  0  0  0  0  0  0  0  0  0  0  0
    1.5930   -1.3491   15.3060 N   0  0  0  0  0  0  0  0  0  0  0  0
    2.5452   -0.4689   14.7536 C   0  0  0  0  0  0  0  0  0  0  0  0
    2.2178    0.3551   13.7190 N   0  0  0  0  0  0  0  0  0  0  0  0
    3.1227    1.2406   13.2181 C   0  0  0  0  0  0  0  0  0  0  0  0
    4.4207    1.3039   13.7175 C   0  0  0  0  0  0  0  0  0  0  0  0
    4.7482    0.4921   14.7654 N   0  0  0  0  0  0  0  0  0  0  0  0
    5.8898    0.3836   15.5035 C   0  0  0  0  0  0  0  0  0  0  0  0
    5.5715   -0.5089   16.5177 C   0  0  0  0  0  0  0  0  0  0  0  0
    4.3818   -1.0543   16.3920 N   0  0  0  0  0  0  0  0  0  0  0  0
    3.8330   -0.4170   15.3252 C   0  0  0  0  0  0  0  0  0  0  0  0
    2.6564    2.1560   12.1340 C   0  0  0  0  0  0  0  0  0  0  0  0
    3.5566    2.6280   11.1666 C   0  0  0  0  0  0  0  0  0  0  0  0
    3.1294    3.4499   10.1277 C   0  0  0  0  0  0  0  0  0  0  0  0
    1.7879    3.8078   10.0318 C   0  0  0  0  0  0  0  0  0  0  0  0
    0.8660    3.3707   10.9895 C   0  0  0  0  0  0  0  0  0  0  0  0
    1.3140    2.5576   12.0419 C   0  0  0  0  0  0  0  0  0  0  0  0
   -0.5783    3.7648   10.8956 C   0  0  0  0  0  0  0  0  0  0  0  0
   -1.2780    3.6594    9.8925 O   0  0  0  0  0  0  0  0  0  0  0  0
   -1.0343    4.2553   12.0485 N   0  0  0  0  0  0  0  0  0  0  0  0
   -2.3943    4.7285   12.2897 C   0  0  0  0  0  0  0  0  0  0  0  0
   -2.6544    5.5820   13.3553 C   0  0  0  0  0  0  0  0  0  0  0  0
   -3.9490    6.0325   13.5849 C   0  0  0  0  0  0  0  0  0  0  0  0
   -4.9835    5.6294   12.7489 C   0  0  0  0  0  0  0  0  0  0  0  0
   -4.7235    4.7759   11.6833 C   0  0  0  0  0  0  0  0  0  0  0  0
   -3.4289    4.3254   11.4537 C   0  0  0  0  0  0  0  0  0  0  0  0
   -6.3808    6.1155   12.9967 C   0  0  0  0  0  0  0  0  0  0  0  0
   -7.3335    5.7936   12.2928 O   0  0  0  0  0  0  0  0  0  0  0  0
   -6.3969    6.9226   14.0705 N   0  0  0  0  0  0  0  0  0  0  0  0
   -7.9316    7.5992   14.5333 S   0  0  0  0  0  0  0  0  0  0  0  0
   -8.7871    6.4947   14.9809 O   0  0  0  0  0  0  0  0  0  0  0  0
   -8.3522    8.5161   13.4681 O   0  0  0  0  0  0  0  0  0  0  0  0
   -7.5285    8.5816   15.9619 C   0  0  0  0  0  0  0  0  0  0  0  0
   -0.5664   -0.8256   14.2115 C   0  0  0  0  0  0  0  0  0  0  0  0
   -1.9389   -1.0760   14.0580 C   0  0  0  0  0  0  0  0  0  0  0  0
   -2.6991   -0.3052   13.2021 O   0  0  0  0  0  0  0  0  0  0  0  0
   -2.0020    0.6746   12.5251 C   0  0  0  0  0  0  0  0  0  0  0  0
   -5.3448   -3.2555   13.5777 H   0  0  0  0  0  0  0  0  0  0  0  0
   -3.9681   -2.5543   12.6616 H   0  0  0  0  0  0  0  0  0  0  0  0
   -3.7486   -4.0790   13.5856 H   0  0  0  0  0  0  0  0  0  0  0  0
   -2.2073   -3.6587   16.2555 H   0  0  0  0  0  0  0  0  0  0  0  0
    0.2066   -3.2125   16.4877 H   0  0  0  0  0  0  0  0  0  0  0  0
    1.3010    0.3089   13.3224 H   0  0  0  0  0  0  0  0  0  0  0  0
    5.1484    1.9765   13.2880 H   0  0  0  0  0  0  0  0  0  0  0  0
    6.8331    0.8820   15.3359 H   0  0  0  0  0  0  0  0  0  0  0  0
    6.2400   -0.7347   17.3354 H   0  0  0  0  0  0  0  0  0  0  0  0
    4.5981    2.3490   11.2292 H   0  0  0  0  0  0  0  0  0  0  0  0
    3.8383    3.8096    9.3966 H   0  0  0  0  0  0  0  0  0  0  0  0
    1.4559    4.4276    9.2120 H   0  0  0  0  0  0  0  0  0  0  0  0
    0.6121    2.2342   12.7963 H   0  0  0  0  0  0  0  0  0  0  0  0
   -1.8505    5.8952   14.0050 H   0  0  0  0  0  0  0  0  0  0  0  0
   -4.1511    6.6958   14.4129 H   0  0  0  0  0  0  0  0  0  0  0  0
   -4.7968    6.4973   12.0993 H   0  0  0  0  0  0  0  0  0  0  0  0
   -5.5274    4.4627   11.0337 H   0  0  0  0  0  0  0  0  0  0  0  0
   -3.2268    3.6621   10.6257 H   0  0  0  0  0  0  0  0  0  0  0  0
   -8.1235    6.2080   12.6194 H   0  0  0  0  0  0  0  0  0  0  0  0
   -8.4399    9.0642   16.3447 H   0  0  0  0  0  0  0  0  0  0  0  0
   -7.1006    7.9352   16.7423 H   0  0  0  0  0  0  0  0  0  0  0  0
   -6.7956    9.3525   15.6817 H   0  0  0  0  0  0  0  0  0  0  0  0
   -0.1075   -0.0318   13.6408 H   0  0  0  0  0  0  0  0  0  0  0  0
   -2.6909    1.2310   11.8726 H   0  0  0  0  0  0  0  0  0  0  0  0
   -1.5443    1.3652   13.2487 H   0  0  0  0  0  0  0  0  0  0  0  0
   -1.2146    0.2087   11.9144 H   0  0  0  0  0  0  0  0  0  0  0  0
  1  2  1  0  0  0  0
  2  3  1  0  0  0  0
  3  4  2  0  0  0  0
  3 40  1  0  0  0  0
  4  5  1  0  0  0  0
  5  6  2  0  0  0  0
  6  7  1  0  0  0  0
  6 39  1  0  0  0  0
  7  8  2  0  0  0  0
  8  9  1  0  0  0  0
  8 16  1  0  0  0  0
  9 10  1  0  0  0  0
 10 11  2  0  0  0  0
 10 17  1  0  0  0  0
 11 12  1  0  0  0  0
 12 13  1  0  0  0  0
 12 16  1  0  0  0  0
 13 14  2  0  0  0  0
 14 15  1  0  0  0  0
 15 16  2  0  0  0  0
 17 18  2  0  0  0  0
 17 22  1  0  0  0  0
 18 19  1  0  0  0  0
 19 20  2  0  0  0  0
 20 21  1  0  0  0  0
 21 22  2  0  0  0  0
 21 23  1  0  0  0  0
 23 24  2  0  0  0  0
 23 25  1  0  0  0  0
 25 26  2  0  0  0  0
 26 27  1  0  0  0  0
 26 31  1  0  0  0  0
 27 28  2  0  0  0  0
 28 29  1  0  0  0  0
 29 30  1  0  0  0  0
 29 32  1  0  0  0  0
 30 31  2  0  0  0  0
 32 33  1  0  0  0  0
 32 34  2  0  0  0  0
 34 35  1  0  0  0  0
 35 36  2  0  0  0  0
 35 37  2  0  0  0  0
 35 38  1  0  0  0  0
 39 40  2  0  0  0  0
 40 41  1  0  0  0  0
 41 42  1  0  0  0  0
  1 43  1  0  0  0  0
  1 44  1  0  0  0  0
  1 45  1  0  0  0  0
  4 46  1  0  0  0  0
  5 47  1  0  0  0  0
  9 48  1  0  0  0  0
 11 49  1  0  0  0  0
 13 50  1  0  0  0  0
 14 51  1  0  0  0  0
 18 52  1  0  0  0  0
 19 53  1  0  0  0  0
 20 54  1  0  0  0  0
 22 55  1  0  0  0  0
 27 56  1  0  0  0  0
 28 57  1  0  0  0  0
 29 58  1  0  0  0  0
 30 59  1  0  0  0  0
 31 60  1  0  0  0  0
 33 61  1  0  0  0  0
 38 62  1  0  0  0  0
 38 63  1  0  0  0  0
 38 64  1  0  0  0  0
 39 65  1  0  0  0  0
 42 66  1  0  0  0  0
 42 67  1  0  0  0  0
 42 68  1  0  0  0  0
M  END
> <IC50[nM]>
2.2

$$$$
CHEMBL3265000
  -OEChem-05192314333D
 Structure written by MMmdl.
 68 72  0     0  0  0  0  0  0999 V2000
   -4.2555   -3.1029   13.5707 C   0  0  0  0  0  0  0  0  0  0  0  0
   -3.8740   -2.3535   14.7166 O   0  0  0  0  0  0  0  0  0  0  0  0
   -2.5261   -2.1057   14.8053 C   0  0  0  0  0  0  0  0  0  0  0  0
   -1.7497   -2.8673   15.6804 C   0  0  0  0  0  0  0  0  0  0  0  0
   -0.3863   -2.6106   15.8150 C   0  0  0  0  0  0  0  0  0  0  0  0
    0.2220   -1.5829   15.0890 C   0  0  0  0  0  0  0  0  0  0  0  0
    1.5930   -1.3491   15.3060 N   0  0  0  0  0  0  0  0  0  0  0  0
    2.5452   -0.4689   14.7536 C   0  0  0  0  0  0  0  0  0  0  0  0
    2.2178    0.3551   13.7190 N   0  0  0  0  0  0  0  0  0  0  0  0
    3.1227    1.2406   13.2181 C   0  0  0  0  0  0  0  0  0  0  0  0
    4.4207    1.3039   13.7175 C   0  0  0  0  0  0  0  0  0  0  0  0
    4.7482    0.4921   14.7654 N   0  0  0  0  0  0  0  0  0  0  0  0
    5.8898    0.3836   15.5035 C   0  0  0  0  0  0  0  0  0  0  0  0
    5.5715   -0.5089   16.5177 C   0  0  0  0  0  0  0  0  0  0  0  0
    4.3818   -1.0543   16.3920 N   0  0  0  0  0  0  0  0  0  0  0  0
    3.8330   -0.4170   15.3252 C   0  0  0  0  0  0  0  0  0  0  0  0
    2.6564    2.1560   12.1340 C   0  0  0  0  0  0  0  0  0  0  0  0
    3.5566    2.6280   11.1666 C   0  0  0  0  0  0  0  0  0  0  0  0
    3.1294    3.4499   10.1277 C   0  0  0  0  0  0  0  0  0  0  0  0
    1.7879    3.8078   10.0318 C   0  0  0  0  0  0  0  0  0  0  0  0
    0.8660    3.3707   10.9895 C   0  0  0  0  0  0  0  0  0  0  0  0
    1.3140    2.5576   12.0419 C   0  0  0  0  0  0  0  0  0  0  0  0
   -0.5783    3.7648   10.8956 C   0  0  0  0  0  0  0  0  0  0  0  0
   -1.2780    3.6594    9.8925 O   0  0  0  0  0  0  0  0  0  0  0  0
   -1.0343    4.2553   12.0485 N   0  0  0  0  0  0  0  0  0  0  0  0
   -2.3943    4.7285   12.2897 C   0  0  0  0  0  0  0  0  0  0  0  0
   -2.6544    5.5820   13.3553 C   0  0  0  0  0  0  0  0  0  0  0  0
   -3.9490    6.0325   13.5849 C   0  0  0  0  0  0  0  0  0  0  0  0
   -4.9835    5.6294   12.7489 C   0  0  0  0  0  0  0  0  0  0  0  0
   -4.7235    4.7759   11.6833 C   0  0  0  0  0  0  0  0  0  0  0  0
   -3.4289    4.3254   11.4537 C   0  0  0  0  0  0  0  0  0  0  0  0
   -6.3808    6.1155   12.9967 C   0  0  0  0  0  0  0  0  0  0  0  0
   -7.3335    5.7936   12.2928 O   0  0  0  0  0  0  0  0  0  0  0  0
   -6.3969    6.9226   14.0705 N   0  0  0  0  0  0  0  0  0  0  0  0
   -7.9316    7.5992   14.5333 S   0  0  0  0  0  0  0  0  0  0  0  0
   -8.7871    6.4947   14.9809 O   0  0  0  0  0  0  0  0  0  0  0  0
   -8.3522    8.5161   13.4681 O   0  0  0  0  0  0  0  0  0  0  0  0
   -7.5285    8.5816   15.9619 C   0  0  0  0  0  0  0  0  0  0  0  0
   -0.5664   -0.8256   14.2115 C   0  0  0  0  0  0  0  0  0  0  0  0
   -1.9389   -1.0760   14.0580 C   0  0  0  0  0  0  0  0  0  0  0  0
   -2.6991   -0.3052   13.2021 O   0  0  0  0  0  0  0  0  0  0  0  0
   -2.0020    0.6746   12.5251 C   0  0  0  0  0  0  0  0  0  0  0  0
   -5.3448   -3.2555   13.5777 H   0  0  0  0  0  0  0  0  0  0  0  0
   -3.9681   -2.5543   12.6616 H   0  0  0  0  0  0  0  0  0  0  0  0
   -3.7486   -4.0790   13.5856 H   0  0  0  0  0  0  0  0  0  0  0  0
   -2.2073   -3.6587   16.2555 H   0  0  0  0  0  0  0  0  0  0  0  0
    0.2066   -3.2125   16.4877 H   0  0  0  0  0  0  0  0  0  0  0  0
    1.3010    0.3089   13.3224 H   0  0  0  0  0  0  0  0  0  0  0  0
    5.1484    1.9765   13.2880 H   0  0  0  0  0  0  0  0  0  0  0  0
    6.8331    0.8820   15.3359 H   0  0  0  0  0  0  0  0  0  0  0  0
    6.2400   -0.7347   17.3354 H   0  0  0  0  0  0  0  0  0  0  0  0
    4.5981    2.3490   11.2292 H   0  0  0  0  0  0  0  0  0  0  0  0
    3.8383    3.8096    9.3966 H   0  0  0  0  0  0  0  0  0  0  0  0
    1.4559    4.4276    9.2120 H   0  0  0  0  0  0  0  0  0  0  0  0
    0.6121    2.2342   12.7963 H   0  0  0  0  0  0  0  0  0  0  0  0
   -2.3342    5.0575   14.2677 H   0  0  0  0  0  0  0  0  0  0  0  0
   -2.0291    6.4748   13.2070 H   0  0  0  0  0  0  0  0  0  0  0  0
   -4.1511    6.6958   14.4129 H   0  0  0  0  0  0  0  0  0  0  0  0
   -5.5274    4.4627   11.0337 H   0  0  0  0  0  0  0  0  0  0  0  0
   -3.2268    3.6621   10.6257 H   0  0  0  0  0  0  0  0  0  0  0  0
   -8.1235    6.2080   12.6194 H   0  0  0  0  0  0  0  0  0  0  0  0
   -8.4399    9.0642   16.3447 H   0  0  0  0  0  0  0  0  0  0  0  0
   -7.1006    7.9352   16.7423 H   0  0  0  0  0  0  0  0  0  0  0  0
   -6.7956    9.3525   15.6817 H   0  0  0  0  0  0  0  0  0  0  0  0
   -0.1075   -0.0318   13.6408 H   0  0  0  0  0  0  0  0  0  0  0  0
   -2.6909    1.2310   11.8726 H   0  0  0  0  0  0  0  0  0  0  0  0
   -1.5443    1.3652   13.2487 H   0  0  0  0  0  0  0  0  0  0  0  0
   -1.2146    0.2087   11.9144 H   0  0  0  0  0  0  0  0  0  0  0  0
  1  2  1  0  0  0  0
  2  3  1  0  0  0  0
  3  4  2  0  0  0  0
  3 40  1  0  0  0  0
  4  5  1  0  0  0  0
  5  6  2  0  0  0  0
  6  7  1  0  0  0  0
  6 39  1  0  0  0  0
  7  8  2  0  0  0  0
  8  9  1  0  0  0  0
  8 16  1  0  0  0  0
  9 10  1  0  0  0  0
 10 11  2  0  0  0  0
 10 17  1  0  0  0  0
 11 12  1  0  0  0  0
 12 13  1  0  0  0  0
 12 16  1  0  0  0  0
 13 14  2  0  0  0  0
 14 15  1  0  0  0  0
 15 16  2  0  0  0  0
 17 18  2  0  0  0  0
 17 22  1  0  0  0  0
 18 19  1  0  0  0  0
 19 20  2  0  0  0  0
 20 21  1  0  0  0  0
 21 22  2  0  0  0  0
 21 23  1  0  0  0  0
 23 24  2  0  0  0  0
 23 25  1  0  0  0  0
 25 26  2  0  0  0  0
 26 27  1  0  0  0  0
 26 31  1  0  0  0  0
 27 28  1  0  0  0  0
 28 29  2  0  0  0  0
 29 30  1  0  0  0  0
 29 32  1  0  0  0  0
 30 31  2  0  0  0  0
 32 33  1  0  0  0  0
 32 34  2  0  0  0  0
 34 35  1  0  0  0  0
 35 36  2  0  0  0  0
 35 37  2  0  0  0  0
 35 38  1  0  0  0  0
 39 40  2  0  0  0  0
 40 41  1  0  0  0  0
 41 42  1  0  0  0  0
  1 43  1  0  0  0  0
  1 44  1  0  0  0  0
  1 45  1  0  0  0  0
  4 46  1  0  0  0  0
  5 47  1  0  0  0  0
  9 48  1  0  0  0  0
 11 49  1  0  0  0  0
 13 50  1  0  0  0  0
 14 51  1  0  0  0  0
 18 52  1  0  0  0  0
 19 53  1  0  0  0  0
 20 54  1  0  0  0  0
 22 55  1  0  0  0  0
 27 56  1  0  0  0  0
 27 57  1  0  0  0  0
 28 58  1  0  0  0  0
 30 59  1  0  0  0  0
 31 60  1  0  0  0  0
 33 61  1  0  0  0  0
 38 62  1  0  0  0  0
 38 63  1  0  0  0  0
 38 64  1  0  0  0  0
 39 65  1  0  0  0  0
 42 66  1  0  0  0  0
 42 67  1  0  0  0  0
 42 68  1  0  0  0  0
M  END
> <IC50[nM]>
2.2

$$$$
CHEMBL3265000
  -OEChem-05192314333D
 Structure written by MMmdl.
 68 72  0     0  0  0  0  0  0999 V2000
   -4.2555   -3.1029   13.5707 C   0  0  0  0  0  0  0  0  0  0  0  0
   -3.8740   -2.3535   14.7166 O   0  0  0  0  0  0  0  0  0  0  0  0
   -2.5261   -2.1057   14.8053 C   0  0  0  0  0  0  0  0  0  0  0  0
   -1.7497   -2.8673   15.6804 C   0  0  0  0  0  0  0  0  0  0  0  0
   -0.3863   -2.6106   15.8150 C   0  0  0  0  0  0  0  0  0  0  0  0
    0.2220   -1.5829   15.0890 C   0  0  0  0  0  0  0  0  0  0  0  0
    1.5930   -1.3491   15.3060 N   0  0  0  0  0  0  0  0  0  0  0  0
    2.5452   -0.4689   14.7536 C   0  0  0  0  0  0  0  0  0  0  0  0
    2.2178    0.3551   13.7190 N   0  0  0  0  0  0  0  0  0  0  0  0
    3.1227    1.2406   13.2181 C   0  0  0  0  0  0  0  0  0  0  0  0
    4.4207    1.3039   13.7175 C   0  0  0  0  0  0  0  0  0  0  0  0
    4.7482    0.4921   14.7654 N   0  0  0  0  0  0  0  0  0  0  0  0
    5.8898    0.3836   15.5035 C   0  0  0  0  0  0  0  0  0  0  0  0
    5.5715   -0.5089   16.5177 C   0  0  0  0  0  0  0  0  0  0  0  0
    4.3818   -1.0543   16.3920 N   0  0  0  0  0  0  0  0  0  0  0  0
    3.8330   -0.4170   15.3252 C   0  0  0  0  0  0  0  0  0  0  0  0
    2.6564    2.1560   12.1340 C   0  0  0  0  0  0  0  0  0  0  0  0
    3.5566    2.6280   11.1666 C   0  0  0  0  0  0  0  0  0  0  0  0
    3.1294    3.4499   10.1277 C   0  0  0  0  0  0  0  0  0  0  0  0
    1.7879    3.8078   10.0318 C   0  0  0  0  0  0  0  0  0  0  0  0
    0.8660    3.3707   10.9895 C   0  0  0  0  0  0  0  0  0  0  0  0
    1.3140    2.5576   12.0419 C   0  0  0  0  0  0  0  0  0  0  0  0
   -0.5783    3.7648   10.8956 C   0  0  0  0  0  0  0  0  0  0  0  0
   -1.2780    3.6594    9.8925 O   0  0  0  0  0  0  0  0  0  0  0  0
   -1.0343    4.2553   12.0485 N   0  0  0  0  0  0  0  0  0  0  0  0
   -2.3943    4.7285   12.2897 C   0  0  0  0  0  0  0  0  0  0  0  0
   -2.6544    5.5820   13.3553 C   0  0  0  0  0  0  0  0  0  0  0  0
   -3.9490    6.0325   13.5849 C   0  0  0  0  0  0  0  0  0  0  0  0
   -4.9835    5.6294   12.7489 C   0  0  0  0  0  0  0  0  0  0  0  0
   -4.7235    4.7759   11.6833 C   0  0  0  0  0  0  0  0  0  0  0  0
   -3.4289    4.3254   11.4537 C   0  0  0  0  0  0  0  0  0  0  0  0
   -6.3808    6.1155   12.9967 C   0  0  0  0  0  0  0  0  0  0  0  0
   -7.3335    5.7936   12.2928 O   0  0  0  0  0  0  0  0  0  0  0  0
   -6.3969    6.9226   14.0705 N   0  0  0  0  0  0  0  0  0  0  0  0
   -7.9316    7.5992   14.5333 S   0  0  0  0  0  0  0  0  0  0  0  0
   -8.7871    6.4947   14.9809 O   0  0  0  0  0  0  0  0  0  0  0  0
   -8.3522    8.5161   13.4681 O   0  0  0  0  0  0  0  0  0  0  0  0
   -7.5285    8.5816   15.9619 C   0  0  0  0  0  0  0  0  0  0  0  0
   -0.5664   -0.8256   14.2115 C   0  0  0  0  0  0  0  0  0  0  0  0
   -1.9389   -1.0760   14.0580 C   0  0  0  0  0  0  0  0  0  0  0  0
   -2.6991   -0.3052   13.2021 O   0  0  0  0  0  0  0  0  0  0  0  0
   -2.0020    0.6746   12.5251 C   0  0  0  0  0  0  0  0  0  0  0  0
   -5.3448   -3.2555   13.5777 H   0  0  0  0  0  0  0  0  0  0  0  0
   -3.9681   -2.5543   12.6616 H   0  0  0  0  0  0  0  0  0  0  0  0
   -3.7486   -4.0790   13.5856 H   0  0  0  0  0  0  0  0  0  0  0  0
   -2.2073   -3.6587   16.2555 H   0  0  0  0  0  0  0  0  0  0  0  0
    0.2066   -3.2125   16.4877 H   0  0  0  0  0  0  0  0  0  0  0  0
    5.1014    1.0581   12.8891 H   0  0  0  0  0  0  0  0  0  0  0  0
    4.5958    2.3407   14.0407 H   0  0  0  0  0  0  0  0  0  0  0  0
    6.8331    0.8820   15.3359 H   0  0  0  0  0  0  0  0  0  0  0  0
    6.2400   -0.7347   17.3354 H   0  0  0  0  0  0  0  0  0  0  0  0
    4.5981    2.3490   11.2292 H   0  0  0  0  0  0  0  0  0  0  0  0
    3.8383    3.8096    9.3966 H   0  0  0  0  0  0  0  0  0  0  0  0
    1.4559    4.4276    9.2120 H   0  0  0  0  0  0  0  0  0  0  0  0
    0.6121    2.2342   12.7963 H   0  0  0  0  0  0  0  0  0  0  0  0
   -1.8505    5.8952   14.0050 H   0  0  0  0  0  0  0  0  0  0  0  0
   -4.1511    6.6958   14.4129 H   0  0  0  0  0  0  0  0  0  0  0  0
   -4.7968    6.4973   12.0993 H   0  0  0  0  0  0  0  0  0  0  0  0
   -5.5274    4.4627   11.0337 H   0  0  0  0  0  0  0  0  0  0  0  0
   -3.2268    3.6621   10.6257 H   0  0  0  0  0  0  0  0  0  0  0  0
   -5.5621    7.1259   14.5822 H   0  0  0  0  0  0  0  0  0  0  0  0
   -8.4399    9.0642   16.3447 H   0  0  0  0  0  0  0  0  0  0  0  0
   -7.1006    7.9352   16.7423 H   0  0  0  0  0  0  0  0  0  0  0  0
   -6.7956    9.3525   15.6817 H   0  0  0  0  0  0  0  0  0  0  0  0
   -0.1075   -0.0318   13.6408 H   0  0  0  0  0  0  0  0  0  0  0  0
   -2.6909    1.2310   11.8726 H   0  0  0  0  0  0  0  0  0  0  0  0
   -1.5443    1.3652   13.2487 H   0  0  0  0  0  0  0  0  0  0  0  0
   -1.2146    0.2087   11.9144 H   0  0  0  0  0  0  0  0  0  0  0  0
  1  2  1  0  0  0  0
  2  3  1  0  0  0  0
  3  4  2  0  0  0  0
  3 40  1  0  0  0  0
  4  5  1  0  0  0  0
  5  6  2  0  0  0  0
  6  7  1  0  0  0  0
  6 39  1  0  0  0  0
  7  8  2  0  0  0  0
  8  9  1  0  0  0  0
  8 16  1  0  0  0  0
  9 10  2  0  0  0  0
 10 11  1  0  0  0  0
 10 17  1  0  0  0  0
 11 12  1  0  0  0  0
 12 13  1  0  0  0  0
 12 16  1  0  0  0  0
 13 14  2  0  0  0  0
 14 15  1  0  0  0  0
 15 16  2  0  0  0  0
 17 18  2  0  0  0  0
 17 22  1  0  0  0  0
 18 19  1  0  0  0  0
 19 20  2  0  0  0  0
 20 21  1  0  0  0  0
 21 22  2  0  0  0  0
 21 23  1  0  0  0  0
 23 24  2  0  0  0  0
 23 25  1  0  0  0  0
 25 26  2  0  0  0  0
 26 27  1  0  0  0  0
 26 31  1  0  0  0  0
 27 28  2  0  0  0  0
 28 29  1  0  0  0  0
 29 30  1  0  0  0  0
 29 32  1  0  0  0  0
 30 31  2  0  0  0  0
 32 33  2  0  0  0  0
 32 34  1  0  0  0  0
 34 35  1  0  0  0  0
 35 36  2  0  0  0  0
 35 37  2  0  0  0  0
 35 38  1  0  0  0  0
 39 40  2  0  0  0  0
 40 41  1  0  0  0  0
 41 42  1  0  0  0  0
  1 43  1  0  0  0  0
  1 44  1  0  0  0  0
  1 45  1  0  0  0  0
  4 46  1  0  0  0  0
  5 47  1  0  0  0  0
 11 48  1  0  0  0  0
 11 49  1  0  0  0  0
 13 50  1  0  0  0  0
 14 51  1  0  0  0  0
 18 52  1  0  0  0  0
 19 53  1  0  0  0  0
 20 54  1  0  0  0  0
 22 55  1  0  0  0  0
 27 56  1  0  0  0  0
 28 57  1  0  0  0  0
 29 58  1  0  0  0  0
 30 59  1  0  0  0  0
 31 60  1  0  0  0  0
 34 61  1  0  0  0  0
 38 62  1  0  0  0  0
 38 63  1  0  0  0  0
 38 64  1  0  0  0  0
 39 65  1  0  0  0  0
 42 66  1  0  0  0  0
 42 67  1  0  0  0  0
 42 68  1  0  0  0  0
M  END
> <IC50[nM]>
2.2

$$$$
CHEMBL3265000
  -OEChem-05192314333D
 Structure written by MMmdl.
 68 72  0     0  0  0  0  0  0999 V2000
   -4.2555   -3.1029   13.5707 C   0  0  0  0  0  0  0  0  0  0  0  0
   -3.8740   -2.3535   14.7166 O   0  0  0  0  0  0  0  0  0  0  0  0
   -2.5261   -2.1057   14.8053 C   0  0  0  0  0  0  0  0  0  0  0  0
   -1.7497   -2.8673   15.6804 C   0  0  0  0  0  0  0  0  0  0  0  0
   -0.3863   -2.6106   15.8150 C   0  0  0  0  0  0  0  0  0  0  0  0
    0.2220   -1.5829   15.0890 C   0  0  0  0  0  0  0  0  0  0  0  0
    1.5930   -1.3491   15.3060 N   0  0  0  0  0  0  0  0  0  0  0  0
    2.5452   -0.4689   14.7536 C   0  0  0  0  0  0  0  0  0  0  0  0
    2.2178    0.3551   13.7190 N   0  0  0  0  0  0  0  0  0  0  0  0
    3.1227    1.2406   13.2181 C   0  0  0  0  0  0  0  0  0  0  0  0
    4.4207    1.3039   13.7175 C   0  0  0  0  0  0  0  0  0  0  0  0
    4.7482    0.4921   14.7654 N   0  0  0  0  0  0  0  0  0  0  0  0
    5.8898    0.3836   15.5035 C   0  0  0  0  0  0  0  0  0  0  0  0
    5.5715   -0.5089   16.5177 C   0  0  0  0  0  0  0  0  0  0  0  0
    4.3818   -1.0543   16.3920 N   0  0  0  0  0  0  0  0  0  0  0  0
    3.8330   -0.4170   15.3252 C   0  0  0  0  0  0  0  0  0  0  0  0
    2.6564    2.1560   12.1340 C   0  0  0  0  0  0  0  0  0  0  0  0
    3.5566    2.6280   11.1666 C   0  0  0  0  0  0  0  0  0  0  0  0
    3.1294    3.4499   10.1277 C   0  0  0  0  0  0  0  0  0  0  0  0
    1.7879    3.8078   10.0318 C   0  0  0  0  0  0  0  0  0  0  0  0
    0.8660    3.3707   10.9895 C   0  0  0  0  0  0  0  0  0  0  0  0
    1.3140    2.5576   12.0419 C   0  0  0  0  0  0  0  0  0  0  0  0
   -0.5783    3.7648   10.8956 C   0  0  0  0  0  0  0  0  0  0  0  0
   -1.2780    3.6594    9.8925 O   0  0  0  0  0  0  0  0  0  0  0  0
   -1.0343    4.2553   12.0485 N   0  0  0  0  0  0  0  0  0  0  0  0
   -2.3943    4.7285   12.2897 C   0  0  0  0  0  0  0  0  0  0  0  0
   -2.6544    5.5820   13.3553 C   0  0  0  0  0  0  0  0  0  0  0  0
   -3.9490    6.0325   13.5849 C   0  0  0  0  0  0  0  0  0  0  0  0
   -4.9835    5.6294   12.7489 C   0  0  0  0  0  0  0  0  0  0  0  0
   -4.7235    4.7759   11.6833 C   0  0  0  0  0  0  0  0  0  0  0  0
   -3.4289    4.3254   11.4537 C   0  0  0  0  0  0  0  0  0  0  0  0
   -6.3808    6.1155   12.9967 C   0  0  0  0  0  0  0  0  0  0  0  0
   -7.3335    5.7936   12.2928 O   0  0  0  0  0  0  0  0  0  0  0  0
   -6.3969    6.9226   14.0705 N   0  0  0  0  0  0  0  0  0  0  0  0
   -7.9316    7.5992   14.5333 S   0  0  0  0  0  0  0  0  0  0  0  0
   -8.7871    6.4947   14.9809 O   0  0  0  0  0  0  0  0  0  0  0  0
   -8.3522    8.5161   13.4681 O   0  0  0  0  0  0  0  0  0  0  0  0
   -7.5285    8.5816   15.9619 C   0  0  0  0  0  0  0  0  0  0  0  0
   -0.5664   -0.8256   14.2115 C   0  0  0  0  0  0  0  0  0  0  0  0
   -1.9389   -1.0760   14.0580 C   0  0  0  0  0  0  0  0  0  0  0  0
   -2.6991   -0.3052   13.2021 O   0  0  0  0  0  0  0  0  0  0  0  0
   -2.0020    0.6746   12.5251 C   0  0  0  0  0  0  0  0  0  0  0  0
   -5.3448   -3.2555   13.5777 H   0  0  0  0  0  0  0  0  0  0  0  0
   -3.9681   -2.5543   12.6616 H   0  0  0  0  0  0  0  0  0  0  0  0
   -3.7486   -4.0790   13.5856 H   0  0  0  0  0  0  0  0  0  0  0  0
   -2.2073   -3.6587   16.2555 H   0  0  0  0  0  0  0  0  0  0  0  0
    0.2066   -3.2125   16.4877 H   0  0  0  0  0  0  0  0  0  0  0  0
    5.1014    1.0581   12.8891 H   0  0  0  0  0  0  0  0  0  0  0  0
    4.5958    2.3407   14.0407 H   0  0  0  0  0  0  0  0  0  0  0  0
    6.8331    0.8820   15.3359 H   0  0  0  0  0  0  0  0  0  0  0  0
    6.2400   -0.7347   17.3354 H   0  0  0  0  0  0  0  0  0  0  0  0
    4.5981    2.3490   11.2292 H   0  0  0  0  0  0  0  0  0  0  0  0
    3.8383    3.8096    9.3966 H   0  0  0  0  0  0  0  0  0  0  0  0
    1.4559    4.4276    9.2120 H   0  0  0  0  0  0  0  0  0  0  0  0
    0.6121    2.2342   12.7963 H   0  0  0  0  0  0  0  0  0  0  0  0
   -2.3342    5.0575   14.2677 H   0  0  0  0  0  0  0  0  0  0  0  0
   -2.0291    6.4748   13.2070 H   0  0  0  0  0  0  0  0  0  0  0  0
   -4.1511    6.6958   14.4129 H   0  0  0  0  0  0  0  0  0  0  0  0
   -5.5274    4.4627   11.0337 H   0  0  0  0  0  0  0  0  0  0  0  0
   -3.2268    3.6621   10.6257 H   0  0  0  0  0  0  0  0  0  0  0  0
   -5.5621    7.1259   14.5822 H   0  0  0  0  0  0  0  0  0  0  0  0
   -8.4399    9.0642   16.3447 H   0  0  0  0  0  0  0  0  0  0  0  0
   -7.1006    7.9352   16.7423 H   0  0  0  0  0  0  0  0  0  0  0  0
   -6.7956    9.3525   15.6817 H   0  0  0  0  0  0  0  0  0  0  0  0
   -0.1075   -0.0318   13.6408 H   0  0  0  0  0  0  0  0  0  0  0  0
   -2.6909    1.2310   11.8726 H   0  0  0  0  0  0  0  0  0  0  0  0
   -1.5443    1.3652   13.2487 H   0  0  0  0  0  0  0  0  0  0  0  0
   -1.2146    0.2087   11.9144 H   0  0  0  0  0  0  0  0  0  0  0  0
  1  2  1  0  0  0  0
  2  3  1  0  0  0  0
  3  4  2  0  0  0  0
  3 40  1  0  0  0  0
  4  5  1  0  0  0  0
  5  6  2  0  0  0  0
  6  7  1  0  0  0  0
  6 39  1  0  0  0  0
  7  8  2  0  0  0  0
  8  9  1  0  0  0  0
  8 16  1  0  0  0  0
  9 10  2  0  0  0  0
 10 11  1  0  0  0  0
 10 17  1  0  0  0  0
 11 12  1  0  0  0  0
 12 13  1  0  0  0  0
 12 16  1  0  0  0  0
 13 14  2  0  0  0  0
 14 15  1  0  0  0  0
 15 16  2  0  0  0  0
 17 18  2  0  0  0  0
 17 22  1  0  0  0  0
 18 19  1  0  0  0  0
 19 20  2  0  0  0  0
 20 21  1  0  0  0  0
 21 22  2  0  0  0  0
 21 23  1  0  0  0  0
 23 24  2  0  0  0  0
 23 25  1  0  0  0  0
 25 26  2  0  0  0  0
 26 27  1  0  0  0  0
 26 31  1  0  0  0  0
 27 28  1  0  0  0  0
 28 29  2  0  0  0  0
 29 30  1  0  0  0  0
 29 32  1  0  0  0  0
 30 31  2  0  0  0  0
 32 33  2  0  0  0  0
 32 34  1  0  0  0  0
 34 35  1  0  0  0  0
 35 36  2  0  0  0  0
 35 37  2  0  0  0  0
 35 38  1  0  0  0  0
 39 40  2  0  0  0  0
 40 41  1  0  0  0  0
 41 42  1  0  0  0  0
  1 43  1  0  0  0  0
  1 44  1  0  0  0  0
  1 45  1  0  0  0  0
  4 46  1  0  0  0  0
  5 47  1  0  0  0  0
 11 48  1  0  0  0  0
 11 49  1  0  0  0  0
 13 50  1  0  0  0  0
 14 51  1  0  0  0  0
 18 52  1  0  0  0  0
 19 53  1  0  0  0  0
 20 54  1  0  0  0  0
 22 55  1  0  0  0  0
 27 56  1  0  0  0  0
 27 57  1  0  0  0  0
 28 58  1  0  0  0  0
 30 59  1  0  0  0  0
 31 60  1  0  0  0  0
 34 61  1  0  0  0  0
 38 62  1  0  0  0  0
 38 63  1  0  0  0  0
 38 64  1  0  0  0  0
 39 65  1  0  0  0  0
 42 66  1  0  0  0  0
 42 67  1  0  0  0  0
 42 68  1  0  0  0  0
M  END
> <IC50[nM]>
2.2

$$$$
CHEMBL3265000
  -OEChem-05192314333D
 Structure written by MMmdl.
 68 72  0     0  0  0  0  0  0999 V2000
   -4.2555   -3.1029   13.5707 C   0  0  0  0  0  0  0  0  0  0  0  0
   -3.8740   -2.3535   14.7166 O   0  0  0  0  0  0  0  0  0  0  0  0
   -2.5261   -2.1057   14.8053 C   0  0  0  0  0  0  0  0  0  0  0  0
   -1.7497   -2.8673   15.6804 C   0  0  0  0  0  0  0  0  0  0  0  0
   -0.3863   -2.6106   15.8150 C   0  0  0  0  0  0  0  0  0  0  0  0
    0.2220   -1.5829   15.0890 C   0  0  0  0  0  0  0  0  0  0  0  0
    1.5930   -1.3491   15.3060 N   0  0  0  0  0  0  0  0  0  0  0  0
    2.5452   -0.4689   14.7536 C   0  0  0  0  0  0  0  0  0  0  0  0
    2.2178    0.3551   13.7190 N   0  0  0  0  0  0  0  0  0  0  0  0
    3.1227    1.2406   13.2181 C   0  0  0  0  0  0  0  0  0  0  0  0
    4.4207    1.3039   13.7175 C   0  0  0  0  0  0  0  0  0  0  0  0
    4.7482    0.4921   14.7654 N   0  0  0  0  0  0  0  0  0  0  0  0
    5.8898    0.3836   15.5035 C   0  0  0  0  0  0  0  0  0  0  0  0
    5.5715   -0.5089   16.5177 C   0  0  0  0  0  0  0  0  0  0  0  0
    4.3818   -1.0543   16.3920 N   0  0  0  0  0  0  0  0  0  0  0  0
    3.8330   -0.4170   15.3252 C   0  0  0  0  0  0  0  0  0  0  0  0
    2.6564    2.1560   12.1340 C   0  0  0  0  0  0  0  0  0  0  0  0
    3.5566    2.6280   11.1666 C   0  0  0  0  0  0  0  0  0  0  0  0
    3.1294    3.4499   10.1277 C   0  0  0  0  0  0  0  0  0  0  0  0
    1.7879    3.8078   10.0318 C   0  0  0  0  0  0  0  0  0  0  0  0
    0.8660    3.3707   10.9895 C   0  0  0  0  0  0  0  0  0  0  0  0
    1.3140    2.5576   12.0419 C   0  0  0  0  0  0  0  0  0  0  0  0
   -0.5783    3.7648   10.8956 C   0  0  0  0  0  0  0  0  0  0  0  0
   -1.2780    3.6594    9.8925 O   0  0  0  0  0  0  0  0  0  0  0  0
   -1.0343    4.2553   12.0485 N   0  0  0  0  0  0  0  0  0  0  0  0
   -2.3943    4.7285   12.2897 C   0  0  0  0  0  0  0  0  0  0  0  0
   -2.6544    5.5820   13.3553 C   0  0  0  0  0  0  0  0  0  0  0  0
   -3.9490    6.0325   13.5849 C   0  0  0  0  0  0  0  0  0  0  0  0
   -4.9835    5.6294   12.7489 C   0  0  0  0  0  0  0  0  0  0  0  0
   -4.7235    4.7759   11.6833 C   0  0  0  0  0  0  0  0  0  0  0  0
   -3.4289    4.3254   11.4537 C   0  0  0  0  0  0  0  0  0  0  0  0
   -6.3808    6.1155   12.9967 C   0  0  0  0  0  0  0  0  0  0  0  0
   -7.3335    5.7936   12.2928 O   0  0  0  0  0  0  0  0  0  0  0  0
   -6.3969    6.9226   14.0705 N   0  0  0  0  0  0  0  0  0  0  0  0
   -7.9316    7.5992   14.5333 S   0  0  0  0  0  0  0  0  0  0  0  0
   -8.7871    6.4947   14.9809 O   0  0  0  0  0  0  0  0  0  0  0  0
   -8.3522    8.5161   13.4681 O   0  0  0  0  0  0  0  0  0  0  0  0
   -7.5285    8.5816   15.9619 C   0  0  0  0  0  0  0  0  0  0  0  0
   -0.5664   -0.8256   14.2115 C   0  0  0  0  0  0  0  0  0  0  0  0
   -1.9389   -1.0760   14.0580 C   0  0  0  0  0  0  0  0  0  0  0  0
   -2.6991   -0.3052   13.2021 O   0  0  0  0  0  0  0  0  0  0  0  0
   -2.0020    0.6746   12.5251 C   0  0  0  0  0  0  0  0  0  0  0  0
   -5.3448   -3.2555   13.5777 H   0  0  0  0  0  0  0  0  0  0  0  0
   -3.9681   -2.5543   12.6616 H   0  0  0  0  0  0  0  0  0  0  0  0
   -3.7486   -4.0790   13.5856 H   0  0  0  0  0  0  0  0  0  0  0  0
   -2.2073   -3.6587   16.2555 H   0  0  0  0  0  0  0  0  0  0  0  0
    0.2066   -3.2125   16.4877 H   0  0  0  0  0  0  0  0  0  0  0  0
    5.1014    1.0581   12.8891 H   0  0  0  0  0  0  0  0  0  0  0  0
    4.5958    2.3407   14.0407 H   0  0  0  0  0  0  0  0  0  0  0  0
    6.8331    0.8820   15.3359 H   0  0  0  0  0  0  0  0  0  0  0  0
    6.2400   -0.7347   17.3354 H   0  0  0  0  0  0  0  0  0  0  0  0
    4.5981    2.3490   11.2292 H   0  0  0  0  0  0  0  0  0  0  0  0
    3.8383    3.8096    9.3966 H   0  0  0  0  0  0  0  0  0  0  0  0
    1.4559    4.4276    9.2120 H   0  0  0  0  0  0  0  0  0  0  0  0
    0.6121    2.2342   12.7963 H   0  0  0  0  0  0  0  0  0  0  0  0
   -1.8505    5.8952   14.0050 H   0  0  0  0  0  0  0  0  0  0  0  0
   -4.1511    6.6958   14.4129 H   0  0  0  0  0  0  0  0  0  0  0  0
   -4.7968    6.4973   12.0993 H   0  0  0  0  0  0  0  0  0  0  0  0
   -5.5274    4.4627   11.0337 H   0  0  0  0  0  0  0  0  0  0  0  0
   -3.2268    3.6621   10.6257 H   0  0  0  0  0  0  0  0  0  0  0  0
   -8.1235    6.2080   12.6194 H   0  0  0  0  0  0  0  0  0  0  0  0
   -8.4399    9.0642   16.3447 H   0  0  0  0  0  0  0  0  0  0  0  0
   -7.1006    7.9352   16.7423 H   0  0  0  0  0  0  0  0  0  0  0  0
   -6.7956    9.3525   15.6817 H   0  0  0  0  0  0  0  0  0  0  0  0
   -0.1075   -0.0318   13.6408 H   0  0  0  0  0  0  0  0  0  0  0  0
   -2.6909    1.2310   11.8726 H   0  0  0  0  0  0  0  0  0  0  0  0
   -1.5443    1.3652   13.2487 H   0  0  0  0  0  0  0  0  0  0  0  0
   -1.2146    0.2087   11.9144 H   0  0  0  0  0  0  0  0  0  0  0  0
  1  2  1  0  0  0  0
  2  3  1  0  0  0  0
  3  4  2  0  0  0  0
  3 40  1  0  0  0  0
  4  5  1  0  0  0  0
  5  6  2  0  0  0  0
  6  7  1  0  0  0  0
  6 39  1  0  0  0  0
  7  8  2  0  0  0  0
  8  9  1  0  0  0  0
  8 16  1  0  0  0  0
  9 10  2  0  0  0  0
 10 11  1  0  0  0  0
 10 17  1  0  0  0  0
 11 12  1  0  0  0  0
 12 13  1  0  0  0  0
 12 16  1  0  0  0  0
 13 14  2  0  0  0  0
 14 15  1  0  0  0  0
 15 16  2  0  0  0  0
 17 18  2  0  0  0  0
 17 22  1  0  0  0  0
 18 19  1  0  0  0  0
 19 20  2  0  0  0  0
 20 21  1  0  0  0  0
 21 22  2  0  0  0  0
 21 23  1  0  0  0  0
 23 24  2  0  0  0  0
 23 25  1  0  0  0  0
 25 26  2  0  0  0  0
 26 27  1  0  0  0  0
 26 31  1  0  0  0  0
 27 28  2  0  0  0  0
 28 29  1  0  0  0  0
 29 30  1  0  0  0  0
 29 32  1  0  0  0  0
 30 31  2  0  0  0  0
 32 33  1  0  0  0  0
 32 34  2  0  0  0  0
 34 35  1  0  0  0  0
 35 36  2  0  0  0  0
 35 37  2  0  0  0  0
 35 38  1  0  0  0  0
 39 40  2  0  0  0  0
 40 41  1  0  0  0  0
 41 42  1  0  0  0  0
  1 43  1  0  0  0  0
  1 44  1  0  0  0  0
  1 45  1  0  0  0  0
  4 46  1  0  0  0  0
  5 47  1  0  0  0  0
 11 48  1  0  0  0  0
 11 49  1  0  0  0  0
 13 50  1  0  0  0  0
 14 51  1  0  0  0  0
 18 52  1  0  0  0  0
 19 53  1  0  0  0  0
 20 54  1  0  0  0  0
 22 55  1  0  0  0  0
 27 56  1  0  0  0  0
 28 57  1  0  0  0  0
 29 58  1  0  0  0  0
 30 59  1  0  0  0  0
 31 60  1  0  0  0  0
 33 61  1  0  0  0  0
 38 62  1  0  0  0  0
 38 63  1  0  0  0  0
 38 64  1  0  0  0  0
 39 65  1  0  0  0  0
 42 66  1  0  0  0  0
 42 67  1  0  0  0  0
 42 68  1  0  0  0  0
M  END
> <IC50[nM]>
2.2

$$$$
CHEMBL3265000
  -OEChem-05192314333D
 Structure written by MMmdl.
 68 72  0     0  0  0  0  0  0999 V2000
   -4.2555   -3.1029   13.5707 C   0  0  0  0  0  0  0  0  0  0  0  0
   -3.8740   -2.3535   14.7166 O   0  0  0  0  0  0  0  0  0  0  0  0
   -2.5261   -2.1057   14.8053 C   0  0  0  0  0  0  0  0  0  0  0  0
   -1.7497   -2.8673   15.6804 C   0  0  0  0  0  0  0  0  0  0  0  0
   -0.3863   -2.6106   15.8150 C   0  0  0  0  0  0  0  0  0  0  0  0
    0.2220   -1.5829   15.0890 C   0  0  0  0  0  0  0  0  0  0  0  0
    1.5930   -1.3491   15.3060 N   0  0  0  0  0  0  0  0  0  0  0  0
    2.5452   -0.4689   14.7536 C   0  0  0  0  0  0  0  0  0  0  0  0
    2.2178    0.3551   13.7190 N   0  0  0  0  0  0  0  0  0  0  0  0
    3.1227    1.2406   13.2181 C   0  0  0  0  0  0  0  0  0  0  0  0
    4.4207    1.3039   13.7175 C   0  0  0  0  0  0  0  0  0  0  0  0
    4.7482    0.4921   14.7654 N   0  0  0  0  0  0  0  0  0  0  0  0
    5.8898    0.3836   15.5035 C   0  0  0  0  0  0  0  0  0  0  0  0
    5.5715   -0.5089   16.5177 C   0  0  0  0  0  0  0  0  0  0  0  0
    4.3818   -1.0543   16.3920 N   0  0  0  0  0  0  0  0  0  0  0  0
    3.8330   -0.4170   15.3252 C   0  0  0  0  0  0  0  0  0  0  0  0
    2.6564    2.1560   12.1340 C   0  0  0  0  0  0  0  0  0  0  0  0
    3.5566    2.6280   11.1666 C   0  0  0  0  0  0  0  0  0  0  0  0
    3.1294    3.4499   10.1277 C   0  0  0  0  0  0  0  0  0  0  0  0
    1.7879    3.8078   10.0318 C   0  0  0  0  0  0  0  0  0  0  0  0
    0.8660    3.3707   10.9895 C   0  0  0  0  0  0  0  0  0  0  0  0
    1.3140    2.5576   12.0419 C   0  0  0  0  0  0  0  0  0  0  0  0
   -0.5783    3.7648   10.8956 C   0  0  0  0  0  0  0  0  0  0  0  0
   -1.2780    3.6594    9.8925 O   0  0  0  0  0  0  0  0  0  0  0  0
   -1.0343    4.2553   12.0485 N   0  0  0  0  0  0  0  0  0  0  0  0
   -2.3943    4.7285   12.2897 C   0  0  0  0  0  0  0  0  0  0  0  0
   -2.6544    5.5820   13.3553 C   0  0  0  0  0  0  0  0  0  0  0  0
   -3.9490    6.0325   13.5849 C   0  0  0  0  0  0  0  0  0  0  0  0
   -4.9835    5.6294   12.7489 C   0  0  0  0  0  0  0  0  0  0  0  0
   -4.7235    4.7759   11.6833 C   0  0  0  0  0  0  0  0  0  0  0  0
   -3.4289    4.3254   11.4537 C   0  0  0  0  0  0  0  0  0  0  0  0
   -6.3808    6.1155   12.9967 C   0  0  0  0  0  0  0  0  0  0  0  0
   -7.3335    5.7936   12.2928 O   0  0  0  0  0  0  0  0  0  0  0  0
   -6.3969    6.9226   14.0705 N   0  0  0  0  0  0  0  0  0  0  0  0
   -7.9316    7.5992   14.5333 S   0  0  0  0  0  0  0  0  0  0  0  0
   -8.7871    6.4947   14.9809 O   0  0  0  0  0  0  0  0  0  0  0  0
   -8.3522    8.5161   13.4681 O   0  0  0  0  0  0  0  0  0  0  0  0
   -7.5285    8.5816   15.9619 C   0  0  0  0  0  0  0  0  0  0  0  0
   -0.5664   -0.8256   14.2115 C   0  0  0  0  0  0  0  0  0  0  0  0
   -1.9389   -1.0760   14.0580 C   0  0  0  0  0  0  0  0  0  0  0  0
   -2.6991   -0.3052   13.2021 O   0  0  0  0  0  0  0  0  0  0  0  0
   -2.0020    0.6746   12.5251 C   0  0  0  0  0  0  0  0  0  0  0  0
   -5.3448   -3.2555   13.5777 H   0  0  0  0  0  0  0  0  0  0  0  0
   -3.9681   -2.5543   12.6616 H   0  0  0  0  0  0  0  0  0  0  0  0
   -3.7486   -4.0790   13.5856 H   0  0  0  0  0  0  0  0  0  0  0  0
   -2.2073   -3.6587   16.2555 H   0  0  0  0  0  0  0  0  0  0  0  0
    0.2066   -3.2125   16.4877 H   0  0  0  0  0  0  0  0  0  0  0  0
    5.1014    1.0581   12.8891 H   0  0  0  0  0  0  0  0  0  0  0  0
    4.5958    2.3407   14.0407 H   0  0  0  0  0  0  0  0  0  0  0  0
    6.8331    0.8820   15.3359 H   0  0  0  0  0  0  0  0  0  0  0  0
    6.2400   -0.7347   17.3354 H   0  0  0  0  0  0  0  0  0  0  0  0
    4.5981    2.3490   11.2292 H   0  0  0  0  0  0  0  0  0  0  0  0
    3.8383    3.8096    9.3966 H   0  0  0  0  0  0  0  0  0  0  0  0
    1.4559    4.4276    9.2120 H   0  0  0  0  0  0  0  0  0  0  0  0
    0.6121    2.2342   12.7963 H   0  0  0  0  0  0  0  0  0  0  0  0
   -2.3342    5.0575   14.2677 H   0  0  0  0  0  0  0  0  0  0  0  0
   -2.0291    6.4748   13.2070 H   0  0  0  0  0  0  0  0  0  0  0  0
   -4.1511    6.6958   14.4129 H   0  0  0  0  0  0  0  0  0  0  0  0
   -5.5274    4.4627   11.0337 H   0  0  0  0  0  0  0  0  0  0  0  0
   -3.2268    3.6621   10.6257 H   0  0  0  0  0  0  0  0  0  0  0  0
   -8.1235    6.2080   12.6194 H   0  0  0  0  0  0  0  0  0  0  0  0
   -8.4399    9.0642   16.3447 H   0  0  0  0  0  0  0  0  0  0  0  0
   -7.1006    7.9352   16.7423 H   0  0  0  0  0  0  0  0  0  0  0  0
   -6.7956    9.3525   15.6817 H   0  0  0  0  0  0  0  0  0  0  0  0
   -0.1075   -0.0318   13.6408 H   0  0  0  0  0  0  0  0  0  0  0  0
   -2.6909    1.2310   11.8726 H   0  0  0  0  0  0  0  0  0  0  0  0
   -1.5443    1.3652   13.2487 H   0  0  0  0  0  0  0  0  0  0  0  0
   -1.2146    0.2087   11.9144 H   0  0  0  0  0  0  0  0  0  0  0  0
  1  2  1  0  0  0  0
  2  3  1  0  0  0  0
  3  4  2  0  0  0  0
  3 40  1  0  0  0  0
  4  5  1  0  0  0  0
  5  6  2  0  0  0  0
  6  7  1  0  0  0  0
  6 39  1  0  0  0  0
  7  8  2  0  0  0  0
  8  9  1  0  0  0  0
  8 16  1  0  0  0  0
  9 10  2  0  0  0  0
 10 11  1  0  0  0  0
 10 17  1  0  0  0  0
 11 12  1  0  0  0  0
 12 13  1  0  0  0  0
 12 16  1  0  0  0  0
 13 14  2  0  0  0  0
 14 15  1  0  0  0  0
 15 16  2  0  0  0  0
 17 18  2  0  0  0  0
 17 22  1  0  0  0  0
 18 19  1  0  0  0  0
 19 20  2  0  0  0  0
 20 21  1  0  0  0  0
 21 22  2  0  0  0  0
 21 23  1  0  0  0  0
 23 24  2  0  0  0  0
 23 25  1  0  0  0  0
 25 26  2  0  0  0  0
 26 27  1  0  0  0  0
 26 31  1  0  0  0  0
 27 28  1  0  0  0  0
 28 29  2  0  0  0  0
 29 30  1  0  0  0  0
 29 32  1  0  0  0  0
 30 31  2  0  0  0  0
 32 33  1  0  0  0  0
 32 34  2  0  0  0  0
 34 35  1  0  0  0  0
 35 36  2  0  0  0  0
 35 37  2  0  0  0  0
 35 38  1  0  0  0  0
 39 40  2  0  0  0  0
 40 41  1  0  0  0  0
 41 42  1  0  0  0  0
  1 43  1  0  0  0  0
  1 44  1  0  0  0  0
  1 45  1  0  0  0  0
  4 46  1  0  0  0  0
  5 47  1  0  0  0  0
 11 48  1  0  0  0  0
 11 49  1  0  0  0  0
 13 50  1  0  0  0  0
 14 51  1  0  0  0  0
 18 52  1  0  0  0  0
 19 53  1  0  0  0  0
 20 54  1  0  0  0  0
 22 55  1  0  0  0  0
 27 56  1  0  0  0  0
 27 57  1  0  0  0  0
 28 58  1  0  0  0  0
 30 59  1  0  0  0  0
 31 60  1  0  0  0  0
 33 61  1  0  0  0  0
 38 62  1  0  0  0  0
 38 63  1  0  0  0  0
 38 64  1  0  0  0  0
 39 65  1  0  0  0  0
 42 66  1  0  0  0  0
 42 67  1  0  0  0  0
 42 68  1  0  0  0  0
M  END
> <IC50[nM]>
2.2

$$$$
CHEMBL3265000
  -OEChem-05192314333D
 Structure written by MMmdl.
 68 72  0     1  0  0  0  0  0999 V2000
   -4.2555   -3.1029   13.5707 C   0  0  0  0  0  0  0  0  0  0  0  0
   -3.8740   -2.3535   14.7166 O   0  0  0  0  0  0  0  0  0  0  0  0
   -2.5261   -2.1057   14.8053 C   0  0  3  0  0  0  0  0  0  0  0  0
   -1.7497   -2.8673   15.6804 C   0  0  0  0  0  0  0  0  0  0  0  0
   -0.3863   -2.6106   15.8150 C   0  0  0  0  0  0  0  0  0  0  0  0
    0.2220   -1.5829   15.0890 C   0  0  0  0  0  0  0  0  0  0  0  0
    1.5930   -1.3491   15.3060 N   0  0  0  0  0  0  0  0  0  0  0  0
    2.5452   -0.4689   14.7536 C   0  0  0  0  0  0  0  0  0  0  0  0
    2.2178    0.3551   13.7190 N   0  0  0  0  0  0  0  0  0  0  0  0
    3.1227    1.2406   13.2181 C   0  0  0  0  0  0  0  0  0  0  0  0
    4.4207    1.3039   13.7175 C   0  0  0  0  0  0  0  0  0  0  0  0
    4.7482    0.4921   14.7654 N   0  0  0  0  0  0  0  0  0  0  0  0
    5.8898    0.3836   15.5035 C   0  0  0  0  0  0  0  0  0  0  0  0
    5.5715   -0.5089   16.5177 C   0  0  0  0  0  0  0  0  0  0  0  0
    4.3818   -1.0543   16.3920 N   0  0  0  0  0  0  0  0  0  0  0  0
    3.8330   -0.4170   15.3252 C   0  0  0  0  0  0  0  0  0  0  0  0
    2.6564    2.1560   12.1340 C   0  0  0  0  0  0  0  0  0  0  0  0
    3.5566    2.6280   11.1666 C   0  0  0  0  0  0  0  0  0  0  0  0
    3.1294    3.4499   10.1277 C   0  0  0  0  0  0  0  0  0  0  0  0
    1.7879    3.8078   10.0318 C   0  0  0  0  0  0  0  0  0  0  0  0
    0.8660    3.3707   10.9895 C   0  0  0  0  0  0  0  0  0  0  0  0
    1.3140    2.5576   12.0419 C   0  0  0  0  0  0  0  0  0  0  0  0
   -0.5783    3.7648   10.8956 C   0  0  0  0  0  0  0  0  0  0  0  0
   -1.2780    3.6594    9.8925 O   0  0  0  0  0  0  0  0  0  0  0  0
   -1.0343    4.2553   12.0485 N   0  0  0  0  0  0  0  0  0  0  0  0
   -2.3943    4.7285   12.2897 C   0  0  0  0  0  0  0  0  0  0  0  0
   -2.6544    5.5820   13.3553 C   0  0  0  0  0  0  0  0  0  0  0  0
   -3.9490    6.0325   13.5849 C   0  0  0  0  0  0  0  0  0  0  0  0
   -4.9835    5.6294   12.7489 C   0  0  0  0  0  0  0  0  0  0  0  0
   -4.7235    4.7759   11.6833 C   0  0  0  0  0  0  0  0  0  0  0  0
   -3.4289    4.3254   11.4537 C   0  0  0  0  0  0  0  0  0  0  0  0
   -6.3808    6.1155   12.9967 C   0  0  0  0  0  0  0  0  0  0  0  0
   -7.3335    5.7936   12.2928 O   0  0  0  0  0  0  0  0  0  0  0  0
   -6.3969    6.9226   14.0705 N   0  0  0  0  0  0  0  0  0  0  0  0
   -7.9316    7.5992   14.5333 S   0  0  0  0  0  0  0  0  0  0  0  0
   -8.7871    6.4947   14.9809 O   0  0  0  0  0  0  0  0  0  0  0  0
   -8.3522    8.5161   13.4681 O   0  0  0  0  0  0  0  0  0  0  0  0
   -7.5285    8.5816   15.9619 C   0  0  0  0  0  0  0  0  0  0  0  0
   -0.5664   -0.8256   14.2115 C   0  0  0  0  0  0  0  0  0  0  0  0
   -1.9389   -1.0760   14.0580 C   0  0  0  0  0  0  0  0  0  0  0  0
   -2.6991   -0.3052   13.2021 O   0  0  0  0  0  0  0  0  0  0  0  0
   -2.0020    0.6746   12.5251 C   0  0  0  0  0  0  0  0  0  0  0  0
   -5.3448   -3.2555   13.5777 H   0  0  0  0  0  0  0  0  0  0  0  0
   -3.9681   -2.5543   12.6616 H   0  0  0  0  0  0  0  0  0  0  0  0
   -3.7486   -4.0790   13.5856 H   0  0  0  0  0  0  0  0  0  0  0  0
   -2.3305   -2.8209   13.9928 H   0  0  0  0  0  0  0  0  0  0  0  0
   -2.2073   -3.6587   16.2555 H   0  0  0  0  0  0  0  0  0  0  0  0
    0.2066   -3.2125   16.4877 H   0  0  0  0  0  0  0  0  0  0  0  0
    5.1484    1.9765   13.2880 H   0  0  0  0  0  0  0  0  0  0  0  0
    6.8331    0.8820   15.3359 H   0  0  0  0  0  0  0  0  0  0  0  0
    6.2400   -0.7347   17.3354 H   0  0  0  0  0  0  0  0  0  0  0  0
    4.5981    2.3490   11.2292 H   0  0  0  0  0  0  0  0  0  0  0  0
    3.8383    3.8096    9.3966 H   0  0  0  0  0  0  0  0  0  0  0  0
    1.4559    4.4276    9.2120 H   0  0  0  0  0  0  0  0  0  0  0  0
    0.6121    2.2342   12.7963 H   0  0  0  0  0  0  0  0  0  0  0  0
   -1.8505    5.8952   14.0050 H   0  0  0  0  0  0  0  0  0  0  0  0
   -4.1511    6.6958   14.4129 H   0  0  0  0  0  0  0  0  0  0  0  0
   -4.7968    6.4973   12.0993 H   0  0  0  0  0  0  0  0  0  0  0  0
   -5.5274    4.4627   11.0337 H   0  0  0  0  0  0  0  0  0  0  0  0
   -3.2268    3.6621   10.6257 H   0  0  0  0  0  0  0  0  0  0  0  0
   -5.5621    7.1259   14.5822 H   0  0  0  0  0  0  0  0  0  0  0  0
   -8.4399    9.0642   16.3447 H   0  0  0  0  0  0  0  0  0  0  0  0
   -7.1006    7.9352   16.7423 H   0  0  0  0  0  0  0  0  0  0  0  0
   -6.7956    9.3525   15.6817 H   0  0  0  0  0  0  0  0  0  0  0  0
   -0.1075   -0.0318   13.6408 H   0  0  0  0  0  0  0  0  0  0  0  0
   -2.6909    1.2310   11.8726 H   0  0  0  0  0  0  0  0  0  0  0  0
   -1.5443    1.3652   13.2487 H   0  0  0  0  0  0  0  0  0  0  0  0
   -1.2146    0.2087   11.9144 H   0  0  0  0  0  0  0  0  0  0  0  0
  1  2  1  0  0  0  0
  2  3  1  0  0  0  0
  3  4  1  0  0  0  0
  3 40  1  0  0  0  0
  4  5  2  0  0  0  0
  5  6  1  0  0  0  0
  6  7  2  0  0  0  0
  6 39  1  0  0  0  0
  7  8  1  0  0  0  0
  8  9  2  0  0  0  0
  8 16  1  0  0  0  0
  9 10  1  0  0  0  0
 10 11  2  0  0  0  0
 10 17  1  0  0  0  0
 11 12  1  0  0  0  0
 12 13  1  0  0  0  0
 12 16  1  0  0  0  0
 13 14  2  0  0  0  0
 14 15  1  0  0  0  0
 15 16  2  0  0  0  0
 17 18  2  0  0  0  0
 17 22  1  0  0  0  0
 18 19  1  0  0  0  0
 19 20  2  0  0  0  0
 20 21  1  0  0  0  0
 21 22  2  0  0  0  0
 21 23  1  0  0  0  0
 23 24  2  0  0  0  0
 23 25  1  0  0  0  0
 25 26  2  0  0  0  0
 26 27  1  0  0  0  0
 26 31  1  0  0  0  0
 27 28  2  0  0  0  0
 28 29  1  0  0  0  0
 29 30  1  0  0  0  0
 29 32  1  0  0  0  0
 30 31  2  0  0  0  0
 32 33  2  0  0  0  0
 32 34  1  0  0  0  0
 34 35  1  0  0  0  0
 35 36  2  0  0  0  0
 35 37  2  0  0  0  0
 35 38  1  0  0  0  0
 39 40  2  0  0  0  0
 40 41  1  0  0  0  0
 41 42  1  0  0  0  0
  1 43  1  0  0  0  0
  1 44  1  0  0  0  0
  1 45  1  0  0  0  0
  3 46  1  0  0  0  0
  4 47  1  0  0  0  0
  5 48  1  0  0  0  0
 11 49  1  0  0  0  0
 13 50  1  0  0  0  0
 14 51  1  0  0  0  0
 18 52  1  0  0  0  0
 19 53  1  0  0  0  0
 20 54  1  0  0  0  0
 22 55  1  0  0  0  0
 27 56  1  0  0  0  0
 28 57  1  0  0  0  0
 29 58  1  0  0  0  0
 30 59  1  0  0  0  0
 31 60  1  0  0  0  0
 34 61  1  0  0  0  0
 38 62  1  0  0  0  0
 38 63  1  0  0  0  0
 38 64  1  0  0  0  0
 39 65  1  0  0  0  0
 42 66  1  0  0  0  0
 42 67  1  0  0  0  0
 42 68  1  0  0  0  0
M  END
> <IC50[nM]>
2.2

$$$$
CHEMBL3265000
  -OEChem-05192314333D
 Structure written by MMmdl.
 68 72  0     1  0  0  0  0  0999 V2000
   -4.2555   -3.1029   13.5707 C   0  0  0  0  0  0  0  0  0  0  0  0
   -3.8740   -2.3535   14.7166 O   0  0  0  0  0  0  0  0  0  0  0  0
   -2.5261   -2.1057   14.8053 C   0  0  3  0  0  0  0  0  0  0  0  0
   -1.7497   -2.8673   15.6804 C   0  0  0  0  0  0  0  0  0  0  0  0
   -0.3863   -2.6106   15.8150 C   0  0  0  0  0  0  0  0  0  0  0  0
    0.2220   -1.5829   15.0890 C   0  0  0  0  0  0  0  0  0  0  0  0
    1.5930   -1.3491   15.3060 N   0  0  0  0  0  0  0  0  0  0  0  0
    2.5452   -0.4689   14.7536 C   0  0  0  0  0  0  0  0  0  0  0  0
    2.2178    0.3551   13.7190 N   0  0  0  0  0  0  0  0  0  0  0  0
    3.1227    1.2406   13.2181 C   0  0  0  0  0  0  0  0  0  0  0  0
    4.4207    1.3039   13.7175 C   0  0  0  0  0  0  0  0  0  0  0  0
    4.7482    0.4921   14.7654 N   0  0  0  0  0  0  0  0  0  0  0  0
    5.8898    0.3836   15.5035 C   0  0  0  0  0  0  0  0  0  0  0  0
    5.5715   -0.5089   16.5177 C   0  0  0  0  0  0  0  0  0  0  0  0
    4.3818   -1.0543   16.3920 N   0  0  0  0  0  0  0  0  0  0  0  0
    3.8330   -0.4170   15.3252 C   0  0  0  0  0  0  0  0  0  0  0  0
    2.6564    2.1560   12.1340 C   0  0  0  0  0  0  0  0  0  0  0  0
    3.5566    2.6280   11.1666 C   0  0  0  0  0  0  0  0  0  0  0  0
    3.1294    3.4499   10.1277 C   0  0  0  0  0  0  0  0  0  0  0  0
    1.7879    3.8078   10.0318 C   0  0  0  0  0  0  0  0  0  0  0  0
    0.8660    3.3707   10.9895 C   0  0  0  0  0  0  0  0  0  0  0  0
    1.3140    2.5576   12.0419 C   0  0  0  0  0  0  0  0  0  0  0  0
   -0.5783    3.7648   10.8956 C   0  0  0  0  0  0  0  0  0  0  0  0
   -1.2780    3.6594    9.8925 O   0  0  0  0  0  0  0  0  0  0  0  0
   -1.0343    4.2553   12.0485 N   0  0  0  0  0  0  0  0  0  0  0  0
   -2.3943    4.7285   12.2897 C   0  0  0  0  0  0  0  0  0  0  0  0
   -2.6544    5.5820   13.3553 C   0  0  0  0  0  0  0  0  0  0  0  0
   -3.9490    6.0325   13.5849 C   0  0  0  0  0  0  0  0  0  0  0  0
   -4.9835    5.6294   12.7489 C   0  0  0  0  0  0  0  0  0  0  0  0
   -4.7235    4.7759   11.6833 C   0  0  0  0  0  0  0  0  0  0  0  0
   -3.4289    4.3254   11.4537 C   0  0  0  0  0  0  0  0  0  0  0  0
   -6.3808    6.1155   12.9967 C   0  0  0  0  0  0  0  0  0  0  0  0
   -7.3335    5.7936   12.2928 O   0  0  0  0  0  0  0  0  0  0  0  0
   -6.3969    6.9226   14.0705 N   0  0  0  0  0  0  0  0  0  0  0  0
   -7.9316    7.5992   14.5333 S   0  0  0  0  0  0  0  0  0  0  0  0
   -8.7871    6.4947   14.9809 O   0  0  0  0  0  0  0  0  0  0  0  0
   -8.3522    8.5161   13.4681 O   0  0  0  0  0  0  0  0  0  0  0  0
   -7.5285    8.5816   15.9619 C   0  0  0  0  0  0  0  0  0  0  0  0
   -0.5664   -0.8256   14.2115 C   0  0  0  0  0  0  0  0  0  0  0  0
   -1.9389   -1.0760   14.0580 C   0  0  0  0  0  0  0  0  0  0  0  0
   -2.6991   -0.3052   13.2021 O   0  0  0  0  0  0  0  0  0  0  0  0
   -2.0020    0.6746   12.5251 C   0  0  0  0  0  0  0  0  0  0  0  0
   -5.3448   -3.2555   13.5777 H   0  0  0  0  0  0  0  0  0  0  0  0
   -3.9681   -2.5543   12.6616 H   0  0  0  0  0  0  0  0  0  0  0  0
   -3.7486   -4.0790   13.5856 H   0  0  0  0  0  0  0  0  0  0  0  0
   -2.3305   -2.8209   13.9928 H   0  0  0  0  0  0  0  0  0  0  0  0
   -2.2073   -3.6587   16.2555 H   0  0  0  0  0  0  0  0  0  0  0  0
    0.2066   -3.2125   16.4877 H   0  0  0  0  0  0  0  0  0  0  0  0
    5.1484    1.9765   13.2880 H   0  0  0  0  0  0  0  0  0  0  0  0
    6.8331    0.8820   15.3359 H   0  0  0  0  0  0  0  0  0  0  0  0
    6.2400   -0.7347   17.3354 H   0  0  0  0  0  0  0  0  0  0  0  0
    4.5981    2.3490   11.2292 H   0  0  0  0  0  0  0  0  0  0  0  0
    3.8383    3.8096    9.3966 H   0  0  0  0  0  0  0  0  0  0  0  0
    1.4559    4.4276    9.2120 H   0  0  0  0  0  0  0  0  0  0  0  0
    0.6121    2.2342   12.7963 H   0  0  0  0  0  0  0  0  0  0  0  0
   -2.3342    5.0575   14.2677 H   0  0  0  0  0  0  0  0  0  0  0  0
   -2.0291    6.4748   13.2070 H   0  0  0  0  0  0  0  0  0  0  0  0
   -4.1511    6.6958   14.4129 H   0  0  0  0  0  0  0  0  0  0  0  0
   -5.5274    4.4627   11.0337 H   0  0  0  0  0  0  0  0  0  0  0  0
   -3.2268    3.6621   10.6257 H   0  0  0  0  0  0  0  0  0  0  0  0
   -5.5621    7.1259   14.5822 H   0  0  0  0  0  0  0  0  0  0  0  0
   -8.4399    9.0642   16.3447 H   0  0  0  0  0  0  0  0  0  0  0  0
   -7.1006    7.9352   16.7423 H   0  0  0  0  0  0  0  0  0  0  0  0
   -6.7956    9.3525   15.6817 H   0  0  0  0  0  0  0  0  0  0  0  0
   -0.1075   -0.0318   13.6408 H   0  0  0  0  0  0  0  0  0  0  0  0
   -2.6909    1.2310   11.8726 H   0  0  0  0  0  0  0  0  0  0  0  0
   -1.5443    1.3652   13.2487 H   0  0  0  0  0  0  0  0  0  0  0  0
   -1.2146    0.2087   11.9144 H   0  0  0  0  0  0  0  0  0  0  0  0
  1  2  1  0  0  0  0
  2  3  1  0  0  0  0
  3  4  1  0  0  0  0
  3 40  1  0  0  0  0
  4  5  2  0  0  0  0
  5  6  1  0  0  0  0
  6  7  2  0  0  0  0
  6 39  1  0  0  0  0
  7  8  1  0  0  0  0
  8  9  2  0  0  0  0
  8 16  1  0  0  0  0
  9 10  1  0  0  0  0
 10 11  2  0  0  0  0
 10 17  1  0  0  0  0
 11 12  1  0  0  0  0
 12 13  1  0  0  0  0
 12 16  1  0  0  0  0
 13 14  2  0  0  0  0
 14 15  1  0  0  0  0
 15 16  2  0  0  0  0
 17 18  2  0  0  0  0
 17 22  1  0  0  0  0
 18 19  1  0  0  0  0
 19 20  2  0  0  0  0
 20 21  1  0  0  0  0
 21 22  2  0  0  0  0
 21 23  1  0  0  0  0
 23 24  2  0  0  0  0
 23 25  1  0  0  0  0
 25 26  2  0  0  0  0
 26 27  1  0  0  0  0
 26 31  1  0  0  0  0
 27 28  1  0  0  0  0
 28 29  2  0  0  0  0
 29 30  1  0  0  0  0
 29 32  1  0  0  0  0
 30 31  2  0  0  0  0
 32 33  2  0  0  0  0
 32 34  1  0  0  0  0
 34 35  1  0  0  0  0
 35 36  2  0  0  0  0
 35 37  2  0  0  0  0
 35 38  1  0  0  0  0
 39 40  2  0  0  0  0
 40 41  1  0  0  0  0
 41 42  1  0  0  0  0
  1 43  1  0  0  0  0
  1 44  1  0  0  0  0
  1 45  1  0  0  0  0
  3 46  1  0  0  0  0
  4 47  1  0  0  0  0
  5 48  1  0  0  0  0
 11 49  1  0  0  0  0
 13 50  1  0  0  0  0
 14 51  1  0  0  0  0
 18 52  1  0  0  0  0
 19 53  1  0  0  0  0
 20 54  1  0  0  0  0
 22 55  1  0  0  0  0
 27 56  1  0  0  0  0
 27 57  1  0  0  0  0
 28 58  1  0  0  0  0
 30 59  1  0  0  0  0
 31 60  1  0  0  0  0
 34 61  1  0  0  0  0
 38 62  1  0  0  0  0
 38 63  1  0  0  0  0
 38 64  1  0  0  0  0
 39 65  1  0  0  0  0
 42 66  1  0  0  0  0
 42 67  1  0  0  0  0
 42 68  1  0  0  0  0
M  END
> <IC50[nM]>
2.2

$$$$
CHEMBL3265000
  -OEChem-05192314333D
 Structure written by MMmdl.
 68 72  0     0  0  0  0  0  0999 V2000
   -4.2555   -3.1029   13.5707 C   0  0  0  0  0  0  0  0  0  0  0  0
   -3.8740   -2.3535   14.7166 O   0  0  0  0  0  0  0  0  0  0  0  0
   -2.5261   -2.1057   14.8053 C   0  0  0  0  0  0  0  0  0  0  0  0
   -1.7497   -2.8673   15.6804 C   0  0  0  0  0  0  0  0  0  0  0  0
   -0.3863   -2.6106   15.8150 C   0  0  0  0  0  0  0  0  0  0  0  0
    0.2220   -1.5829   15.0890 C   0  0  0  0  0  0  0  0  0  0  0  0
    1.5930   -1.3491   15.3060 N   0  0  0  0  0  0  0  0  0  0  0  0
    2.5452   -0.4689   14.7536 C   0  0  0  0  0  0  0  0  0  0  0  0
    2.2178    0.3551   13.7190 N   0  0  0  0  0  0  0  0  0  0  0  0
    3.1227    1.2406   13.2181 C   0  0  0  0  0  0  0  0  0  0  0  0
    4.4207    1.3039   13.7175 C   0  0  0  0  0  0  0  0  0  0  0  0
    4.7482    0.4921   14.7654 N   0  0  0  0  0  0  0  0  0  0  0  0
    5.8898    0.3836   15.5035 C   0  0  0  0  0  0  0  0  0  0  0  0
    5.5715   -0.5089   16.5177 C   0  0  0  0  0  0  0  0  0  0  0  0
    4.3818   -1.0543   16.3920 N   0  0  0  0  0  0  0  0  0  0  0  0
    3.8330   -0.4170   15.3252 C   0  0  0  0  0  0  0  0  0  0  0  0
    2.6564    2.1560   12.1340 C   0  0  0  0  0  0  0  0  0  0  0  0
    3.5566    2.6280   11.1666 C   0  0  0  0  0  0  0  0  0  0  0  0
    3.1294    3.4499   10.1277 C   0  0  0  0  0  0  0  0  0  0  0  0
    1.7879    3.8078   10.0318 C   0  0  0  0  0  0  0  0  0  0  0  0
    0.8660    3.3707   10.9895 C   0  0  0  0  0  0  0  0  0  0  0  0
    1.3140    2.5576   12.0419 C   0  0  0  0  0  0  0  0  0  0  0  0
   -0.5783    3.7648   10.8956 C   0  0  0  0  0  0  0  0  0  0  0  0
   -1.2780    3.6594    9.8925 O   0  0  0  0  0  0  0  0  0  0  0  0
   -1.0343    4.2553   12.0485 N   0  0  0  0  0  0  0  0  0  0  0  0
   -2.3943    4.7285   12.2897 C   0  0  0  0  0  0  0  0  0  0  0  0
   -2.6544    5.5820   13.3553 C   0  0  0  0  0  0  0  0  0  0  0  0
   -3.9490    6.0325   13.5849 C   0  0  0  0  0  0  0  0  0  0  0  0
   -4.9835    5.6294   12.7489 C   0  0  0  0  0  0  0  0  0  0  0  0
   -4.7235    4.7759   11.6833 C   0  0  0  0  0  0  0  0  0  0  0  0
   -3.4289    4.3254   11.4537 C   0  0  0  0  0  0  0  0  0  0  0  0
   -6.3808    6.1155   12.9967 C   0  0  0  0  0  0  0  0  0  0  0  0
   -7.3335    5.7936   12.2928 O   0  0  0  0  0  0  0  0  0  0  0  0
   -6.3969    6.9226   14.0705 N   0  0  0  0  0  0  0  0  0  0  0  0
   -7.9316    7.5992   14.5333 S   0  0  0  0  0  0  0  0  0  0  0  0
   -8.7871    6.4947   14.9809 O   0  0  0  0  0  0  0  0  0  0  0  0
   -8.3522    8.5161   13.4681 O   0  0  0  0  0  0  0  0  0  0  0  0
   -7.5285    8.5816   15.9619 C   0  0  0  0  0  0  0  0  0  0  0  0
   -0.5664   -0.8256   14.2115 C   0  0  0  0  0  0  0  0  0  0  0  0
   -1.9389   -1.0760   14.0580 C   0  0  0  0  0  0  0  0  0  0  0  0
   -2.6991   -0.3052   13.2021 O   0  0  0  0  0  0  0  0  0  0  0  0
   -2.0020    0.6746   12.5251 C   0  0  0  0  0  0  0  0  0  0  0  0
   -5.3448   -3.2555   13.5777 H   0  0  0  0  0  0  0  0  0  0  0  0
   -3.9681   -2.5543   12.6616 H   0  0  0  0  0  0  0  0  0  0  0  0
   -3.7486   -4.0790   13.5856 H   0  0  0  0  0  0  0  0  0  0  0  0
   -2.2073   -3.6587   16.2555 H   0  0  0  0  0  0  0  0  0  0  0  0
   -0.2118   -2.3897   16.8784 H   0  0  0  0  0  0  0  0  0  0  0  0
    0.1365   -3.5394   15.5428 H   0  0  0  0  0  0  0  0  0  0  0  0
    5.1484    1.9765   13.2880 H   0  0  0  0  0  0  0  0  0  0  0  0
    6.8331    0.8820   15.3359 H   0  0  0  0  0  0  0  0  0  0  0  0
    6.2400   -0.7347   17.3354 H   0  0  0  0  0  0  0  0  0  0  0  0
    4.5981    2.3490   11.2292 H   0  0  0  0  0  0  0  0  0  0  0  0
    3.8383    3.8096    9.3966 H   0  0  0  0  0  0  0  0  0  0  0  0
    1.4559    4.4276    9.2120 H   0  0  0  0  0  0  0  0  0  0  0  0
    0.6121    2.2342   12.7963 H   0  0  0  0  0  0  0  0  0  0  0  0
   -1.8505    5.8952   14.0050 H   0  0  0  0  0  0  0  0  0  0  0  0
   -4.1511    6.6958   14.4129 H   0  0  0  0  0  0  0  0  0  0  0  0
   -4.7968    6.4973   12.0993 H   0  0  0  0  0  0  0  0  0  0  0  0
   -5.5274    4.4627   11.0337 H   0  0  0  0  0  0  0  0  0  0  0  0
   -3.2268    3.6621   10.6257 H   0  0  0  0  0  0  0  0  0  0  0  0
   -5.5621    7.1259   14.5822 H   0  0  0  0  0  0  0  0  0  0  0  0
   -8.4399    9.0642   16.3447 H   0  0  0  0  0  0  0  0  0  0  0  0
   -7.1006    7.9352   16.7423 H   0  0  0  0  0  0  0  0  0  0  0  0
   -6.7956    9.3525   15.6817 H   0  0  0  0  0  0  0  0  0  0  0  0
   -0.1075   -0.0318   13.6408 H   0  0  0  0  0  0  0  0  0  0  0  0
   -2.6909    1.2310   11.8726 H   0  0  0  0  0  0  0  0  0  0  0  0
   -1.5443    1.3652   13.2487 H   0  0  0  0  0  0  0  0  0  0  0  0
   -1.2146    0.2087   11.9144 H   0  0  0  0  0  0  0  0  0  0  0  0
  1  2  1  0  0  0  0
  2  3  1  0  0  0  0
  3  4  2  0  0  0  0
  3 40  1  0  0  0  0
  4  5  1  0  0  0  0
  5  6  1  0  0  0  0
  6  7  2  0  0  0  0
  6 39  1  0  0  0  0
  7  8  1  0  0  0  0
  8  9  2  0  0  0  0
  8 16  1  0  0  0  0
  9 10  1  0  0  0  0
 10 11  2  0  0  0  0
 10 17  1  0  0  0  0
 11 12  1  0  0  0  0
 12 13  1  0  0  0  0
 12 16  1  0  0  0  0
 13 14  2  0  0  0  0
 14 15  1  0  0  0  0
 15 16  2  0  0  0  0
 17 18  2  0  0  0  0
 17 22  1  0  0  0  0
 18 19  1  0  0  0  0
 19 20  2  0  0  0  0
 20 21  1  0  0  0  0
 21 22  2  0  0  0  0
 21 23  1  0  0  0  0
 23 24  2  0  0  0  0
 23 25  1  0  0  0  0
 25 26  2  0  0  0  0
 26 27  1  0  0  0  0
 26 31  1  0  0  0  0
 27 28  2  0  0  0  0
 28 29  1  0  0  0  0
 29 30  1  0  0  0  0
 29 32  1  0  0  0  0
 30 31  2  0  0  0  0
 32 33  2  0  0  0  0
 32 34  1  0  0  0  0
 34 35  1  0  0  0  0
 35 36  2  0  0  0  0
 35 37  2  0  0  0  0
 35 38  1  0  0  0  0
 39 40  2  0  0  0  0
 40 41  1  0  0  0  0
 41 42  1  0  0  0  0
  1 43  1  0  0  0  0
  1 44  1  0  0  0  0
  1 45  1  0  0  0  0
  4 46  1  0  0  0  0
  5 47  1  0  0  0  0
  5 48  1  0  0  0  0
 11 49  1  0  0  0  0
 13 50  1  0  0  0  0
 14 51  1  0  0  0  0
 18 52  1  0  0  0  0
 19 53  1  0  0  0  0
 20 54  1  0  0  0  0
 22 55  1  0  0  0  0
 27 56  1  0  0  0  0
 28 57  1  0  0  0  0
 29 58  1  0  0  0  0
 30 59  1  0  0  0  0
 31 60  1  0  0  0  0
 34 61  1  0  0  0  0
 38 62  1  0  0  0  0
 38 63  1  0  0  0  0
 38 64  1  0  0  0  0
 39 65  1  0  0  0  0
 42 66  1  0  0  0  0
 42 67  1  0  0  0  0
 42 68  1  0  0  0  0
M  END
> <IC50[nM]>
2.2

$$$$
CHEMBL3265000
  -OEChem-05192314333D
 Structure written by MMmdl.
 68 72  0     0  0  0  0  0  0999 V2000
   -4.2555   -3.1029   13.5707 C   0  0  0  0  0  0  0  0  0  0  0  0
   -3.8740   -2.3535   14.7166 O   0  0  0  0  0  0  0  0  0  0  0  0
   -2.5261   -2.1057   14.8053 C   0  0  0  0  0  0  0  0  0  0  0  0
   -1.7497   -2.8673   15.6804 C   0  0  0  0  0  0  0  0  0  0  0  0
   -0.3863   -2.6106   15.8150 C   0  0  0  0  0  0  0  0  0  0  0  0
    0.2220   -1.5829   15.0890 C   0  0  0  0  0  0  0  0  0  0  0  0
    1.5930   -1.3491   15.3060 N   0  0  0  0  0  0  0  0  0  0  0  0
    2.5452   -0.4689   14.7536 C   0  0  0  0  0  0  0  0  0  0  0  0
    2.2178    0.3551   13.7190 N   0  0  0  0  0  0  0  0  0  0  0  0
    3.1227    1.2406   13.2181 C   0  0  0  0  0  0  0  0  0  0  0  0
    4.4207    1.3039   13.7175 C   0  0  0  0  0  0  0  0  0  0  0  0
    4.7482    0.4921   14.7654 N   0  0  0  0  0  0  0  0  0  0  0  0
    5.8898    0.3836   15.5035 C   0  0  0  0  0  0  0  0  0  0  0  0
    5.5715   -0.5089   16.5177 C   0  0  0  0  0  0  0  0  0  0  0  0
    4.3818   -1.0543   16.3920 N   0  0  0  0  0  0  0  0  0  0  0  0
    3.8330   -0.4170   15.3252 C   0  0  0  0  0  0  0  0  0  0  0  0
    2.6564    2.1560   12.1340 C   0  0  0  0  0  0  0  0  0  0  0  0
    3.5566    2.6280   11.1666 C   0  0  0  0  0  0  0  0  0  0  0  0
    3.1294    3.4499   10.1277 C   0  0  0  0  0  0  0  0  0  0  0  0
    1.7879    3.8078   10.0318 C   0  0  0  0  0  0  0  0  0  0  0  0
    0.8660    3.3707   10.9895 C   0  0  0  0  0  0  0  0  0  0  0  0
    1.3140    2.5576   12.0419 C   0  0  0  0  0  0  0  0  0  0  0  0
   -0.5783    3.7648   10.8956 C   0  0  0  0  0  0  0  0  0  0  0  0
   -1.2780    3.6594    9.8925 O   0  0  0  0  0  0  0  0  0  0  0  0
   -1.0343    4.2553   12.0485 N   0  0  0  0  0  0  0  0  0  0  0  0
   -2.3943    4.7285   12.2897 C   0  0  0  0  0  0  0  0  0  0  0  0
   -2.6544    5.5820   13.3553 C   0  0  0  0  0  0  0  0  0  0  0  0
   -3.9490    6.0325   13.5849 C   0  0  0  0  0  0  0  0  0  0  0  0
   -4.9835    5.6294   12.7489 C   0  0  0  0  0  0  0  0  0  0  0  0
   -4.7235    4.7759   11.6833 C   0  0  0  0  0  0  0  0  0  0  0  0
   -3.4289    4.3254   11.4537 C   0  0  0  0  0  0  0  0  0  0  0  0
   -6.3808    6.1155   12.9967 C   0  0  0  0  0  0  0  0  0  0  0  0
   -7.3335    5.7936   12.2928 O   0  0  0  0  0  0  0  0  0  0  0  0
   -6.3969    6.9226   14.0705 N   0  0  0  0  0  0  0  0  0  0  0  0
   -7.9316    7.5992   14.5333 S   0  0  0  0  0  0  0  0  0  0  0  0
   -8.7871    6.4947   14.9809 O   0  0  0  0  0  0  0  0  0  0  0  0
   -8.3522    8.5161   13.4681 O   0  0  0  0  0  0  0  0  0  0  0  0
   -7.5285    8.5816   15.9619 C   0  0  0  0  0  0  0  0  0  0  0  0
   -0.5664   -0.8256   14.2115 C   0  0  0  0  0  0  0  0  0  0  0  0
   -1.9389   -1.0760   14.0580 C   0  0  0  0  0  0  0  0  0  0  0  0
   -2.6991   -0.3052   13.2021 O   0  0  0  0  0  0  0  0  0  0  0  0
   -2.0020    0.6746   12.5251 C   0  0  0  0  0  0  0  0  0  0  0  0
   -5.3448   -3.2555   13.5777 H   0  0  0  0  0  0  0  0  0  0  0  0
   -3.9681   -2.5543   12.6616 H   0  0  0  0  0  0  0  0  0  0  0  0
   -3.7486   -4.0790   13.5856 H   0  0  0  0  0  0  0  0  0  0  0  0
   -2.2073   -3.6587   16.2555 H   0  0  0  0  0  0  0  0  0  0  0  0
   -0.2118   -2.3897   16.8784 H   0  0  0  0  0  0  0  0  0  0  0  0
    0.1365   -3.5394   15.5428 H   0  0  0  0  0  0  0  0  0  0  0  0
    5.1484    1.9765   13.2880 H   0  0  0  0  0  0  0  0  0  0  0  0
    6.8331    0.8820   15.3359 H   0  0  0  0  0  0  0  0  0  0  0  0
    6.2400   -0.7347   17.3354 H   0  0  0  0  0  0  0  0  0  0  0  0
    4.5981    2.3490   11.2292 H   0  0  0  0  0  0  0  0  0  0  0  0
    3.8383    3.8096    9.3966 H   0  0  0  0  0  0  0  0  0  0  0  0
    1.4559    4.4276    9.2120 H   0  0  0  0  0  0  0  0  0  0  0  0
    0.6121    2.2342   12.7963 H   0  0  0  0  0  0  0  0  0  0  0  0
   -2.3342    5.0575   14.2677 H   0  0  0  0  0  0  0  0  0  0  0  0
   -2.0291    6.4748   13.2070 H   0  0  0  0  0  0  0  0  0  0  0  0
   -4.1511    6.6958   14.4129 H   0  0  0  0  0  0  0  0  0  0  0  0
   -5.5274    4.4627   11.0337 H   0  0  0  0  0  0  0  0  0  0  0  0
   -3.2268    3.6621   10.6257 H   0  0  0  0  0  0  0  0  0  0  0  0
   -5.5621    7.1259   14.5822 H   0  0  0  0  0  0  0  0  0  0  0  0
   -8.4399    9.0642   16.3447 H   0  0  0  0  0  0  0  0  0  0  0  0
   -7.1006    7.9352   16.7423 H   0  0  0  0  0  0  0  0  0  0  0  0
   -6.7956    9.3525   15.6817 H   0  0  0  0  0  0  0  0  0  0  0  0
   -0.1075   -0.0318   13.6408 H   0  0  0  0  0  0  0  0  0  0  0  0
   -2.6909    1.2310   11.8726 H   0  0  0  0  0  0  0  0  0  0  0  0
   -1.5443    1.3652   13.2487 H   0  0  0  0  0  0  0  0  0  0  0  0
   -1.2146    0.2087   11.9144 H   0  0  0  0  0  0  0  0  0  0  0  0
  1  2  1  0  0  0  0
  2  3  1  0  0  0  0
  3  4  2  0  0  0  0
  3 40  1  0  0  0  0
  4  5  1  0  0  0  0
  5  6  1  0  0  0  0
  6  7  2  0  0  0  0
  6 39  1  0  0  0  0
  7  8  1  0  0  0  0
  8  9  2  0  0  0  0
  8 16  1  0  0  0  0
  9 10  1  0  0  0  0
 10 11  2  0  0  0  0
 10 17  1  0  0  0  0
 11 12  1  0  0  0  0
 12 13  1  0  0  0  0
 12 16  1  0  0  0  0
 13 14  2  0  0  0  0
 14 15  1  0  0  0  0
 15 16  2  0  0  0  0
 17 18  2  0  0  0  0
 17 22  1  0  0  0  0
 18 19  1  0  0  0  0
 19 20  2  0  0  0  0
 20 21  1  0  0  0  0
 21 22  2  0  0  0  0
 21 23  1  0  0  0  0
 23 24  2  0  0  0  0
 23 25  1  0  0  0  0
 25 26  2  0  0  0  0
 26 27  1  0  0  0  0
 26 31  1  0  0  0  0
 27 28  1  0  0  0  0
 28 29  2  0  0  0  0
 29 30  1  0  0  0  0
 29 32  1  0  0  0  0
 30 31  2  0  0  0  0
 32 33  2  0  0  0  0
 32 34  1  0  0  0  0
 34 35  1  0  0  0  0
 35 36  2  0  0  0  0
 35 37  2  0  0  0  0
 35 38  1  0  0  0  0
 39 40  2  0  0  0  0
 40 41  1  0  0  0  0
 41 42  1  0  0  0  0
  1 43  1  0  0  0  0
  1 44  1  0  0  0  0
  1 45  1  0  0  0  0
  4 46  1  0  0  0  0
  5 47  1  0  0  0  0
  5 48  1  0  0  0  0
 11 49  1  0  0  0  0
 13 50  1  0  0  0  0
 14 51  1  0  0  0  0
 18 52  1  0  0  0  0
 19 53  1  0  0  0  0
 20 54  1  0  0  0  0
 22 55  1  0  0  0  0
 27 56  1  0  0  0  0
 27 57  1  0  0  0  0
 28 58  1  0  0  0  0
 30 59  1  0  0  0  0
 31 60  1  0  0  0  0
 34 61  1  0  0  0  0
 38 62  1  0  0  0  0
 38 63  1  0  0  0  0
 38 64  1  0  0  0  0
 39 65  1  0  0  0  0
 42 66  1  0  0  0  0
 42 67  1  0  0  0  0
 42 68  1  0  0  0  0
M  END
> <IC50[nM]>
2.2

$$$$
CHEMBL3265000
  -OEChem-05192314333D
 Structure written by MMmdl.
 68 72  0     0  0  0  0  0  0999 V2000
   -4.2555   -3.1029   13.5707 C   0  0  0  0  0  0  0  0  0  0  0  0
   -3.8740   -2.3535   14.7166 O   0  0  0  0  0  0  0  0  0  0  0  0
   -2.5261   -2.1057   14.8053 C   0  0  0  0  0  0  0  0  0  0  0  0
   -1.7497   -2.8673   15.6804 C   0  0  0  0  0  0  0  0  0  0  0  0
   -0.3863   -2.6106   15.8150 C   0  0  0  0  0  0  0  0  0  0  0  0
    0.2220   -1.5829   15.0890 C   0  0  0  0  0  0  0  0  0  0  0  0
    1.5930   -1.3491   15.3060 N   0  0  0  0  0  0  0  0  0  0  0  0
    2.5452   -0.4689   14.7536 C   0  0  0  0  0  0  0  0  0  0  0  0
    2.2178    0.3551   13.7190 N   0  0  0  0  0  0  0  0  0  0  0  0
    3.1227    1.2406   13.2181 C   0  0  0  0  0  0  0  0  0  0  0  0
    4.4207    1.3039   13.7175 C   0  0  0  0  0  0  0  0  0  0  0  0
    4.7482    0.4921   14.7654 N   0  0  0  0  0  0  0  0  0  0  0  0
    5.8898    0.3836   15.5035 C   0  0  0  0  0  0  0  0  0  0  0  0
    5.5715   -0.5089   16.5177 C   0  0  0  0  0  0  0  0  0  0  0  0
    4.3818   -1.0543   16.3920 N   0  0  0  0  0  0  0  0  0  0  0  0
    3.8330   -0.4170   15.3252 C   0  0  0  0  0  0  0  0  0  0  0  0
    2.6564    2.1560   12.1340 C   0  0  0  0  0  0  0  0  0  0  0  0
    3.5566    2.6280   11.1666 C   0  0  0  0  0  0  0  0  0  0  0  0
    3.1294    3.4499   10.1277 C   0  0  0  0  0  0  0  0  0  0  0  0
    1.7879    3.8078   10.0318 C   0  0  0  0  0  0  0  0  0  0  0  0
    0.8660    3.3707   10.9895 C   0  0  0  0  0  0  0  0  0  0  0  0
    1.3140    2.5576   12.0419 C   0  0  0  0  0  0  0  0  0  0  0  0
   -0.5783    3.7648   10.8956 C   0  0  0  0  0  0  0  0  0  0  0  0
   -1.2780    3.6594    9.8925 O   0  0  0  0  0  0  0  0  0  0  0  0
   -1.0343    4.2553   12.0485 N   0  0  0  0  0  0  0  0  0  0  0  0
   -2.3943    4.7285   12.2897 C   0  0  0  0  0  0  0  0  0  0  0  0
   -2.6544    5.5820   13.3553 C   0  0  0  0  0  0  0  0  0  0  0  0
   -3.9490    6.0325   13.5849 C   0  0  0  0  0  0  0  0  0  0  0  0
   -4.9835    5.6294   12.7489 C   0  0  0  0  0  0  0  0  0  0  0  0
   -4.7235    4.7759   11.6833 C   0  0  0  0  0  0  0  0  0  0  0  0
   -3.4289    4.3254   11.4537 C   0  0  0  0  0  0  0  0  0  0  0  0
   -6.3808    6.1155   12.9967 C   0  0  0  0  0  0  0  0  0  0  0  0
   -7.3335    5.7936   12.2928 O   0  0  0  0  0  0  0  0  0  0  0  0
   -6.3969    6.9226   14.0705 N   0  0  0  0  0  0  0  0  0  0  0  0
   -7.9316    7.5992   14.5333 S   0  0  0  0  0  0  0  0  0  0  0  0
   -8.7871    6.4947   14.9809 O   0  0  0  0  0  0  0  0  0  0  0  0
   -8.3522    8.5161   13.4681 O   0  0  0  0  0  0  0  0  0  0  0  0
   -7.5285    8.5816   15.9619 C   0  0  0  0  0  0  0  0  0  0  0  0
   -0.5664   -0.8256   14.2115 C   0  0  0  0  0  0  0  0  0  0  0  0
   -1.9389   -1.0760   14.0580 C   0  0  0  0  0  0  0  0  0  0  0  0
   -2.6991   -0.3052   13.2021 O   0  0  0  0  0  0  0  0  0  0  0  0
   -2.0020    0.6746   12.5251 C   0  0  0  0  0  0  0  0  0  0  0  0
   -5.3448   -3.2555   13.5777 H   0  0  0  0  0  0  0  0  0  0  0  0
   -3.9681   -2.5543   12.6616 H   0  0  0  0  0  0  0  0  0  0  0  0
   -3.7486   -4.0790   13.5856 H   0  0  0  0  0  0  0  0  0  0  0  0
   -2.2073   -3.6587   16.2555 H   0  0  0  0  0  0  0  0  0  0  0  0
    0.2066   -3.2125   16.4877 H   0  0  0  0  0  0  0  0  0  0  0  0
    5.1484    1.9765   13.2880 H   0  0  0  0  0  0  0  0  0  0  0  0
    6.8331    0.8820   15.3359 H   0  0  0  0  0  0  0  0  0  0  0  0
    6.2400   -0.7347   17.3354 H   0  0  0  0  0  0  0  0  0  0  0  0
    4.5981    2.3490   11.2292 H   0  0  0  0  0  0  0  0  0  0  0  0
    3.8383    3.8096    9.3966 H   0  0  0  0  0  0  0  0  0  0  0  0
    1.4559    4.4276    9.2120 H   0  0  0  0  0  0  0  0  0  0  0  0
    0.6121    2.2342   12.7963 H   0  0  0  0  0  0  0  0  0  0  0  0
   -1.8505    5.8952   14.0050 H   0  0  0  0  0  0  0  0  0  0  0  0
   -4.1511    6.6958   14.4129 H   0  0  0  0  0  0  0  0  0  0  0  0
   -4.7968    6.4973   12.0993 H   0  0  0  0  0  0  0  0  0  0  0  0
   -5.5274    4.4627   11.0337 H   0  0  0  0  0  0  0  0  0  0  0  0
   -3.2268    3.6621   10.6257 H   0  0  0  0  0  0  0  0  0  0  0  0
   -5.5621    7.1259   14.5822 H   0  0  0  0  0  0  0  0  0  0  0  0
   -8.4399    9.0642   16.3447 H   0  0  0  0  0  0  0  0  0  0  0  0
   -7.1006    7.9352   16.7423 H   0  0  0  0  0  0  0  0  0  0  0  0
   -6.7956    9.3525   15.6817 H   0  0  0  0  0  0  0  0  0  0  0  0
   -0.4764    0.2210   14.5379 H   0  0  0  0  0  0  0  0  0  0  0  0
   -0.1167   -0.9386   13.2140 H   0  0  0  0  0  0  0  0  0  0  0  0
   -2.6909    1.2310   11.8726 H   0  0  0  0  0  0  0  0  0  0  0  0
   -1.5443    1.3652   13.2487 H   0  0  0  0  0  0  0  0  0  0  0  0
   -1.2146    0.2087   11.9144 H   0  0  0  0  0  0  0  0  0  0  0  0
  1  2  1  0  0  0  0
  2  3  1  0  0  0  0
  3  4  1  0  0  0  0
  3 40  2  0  0  0  0
  4  5  2  0  0  0  0
  5  6  1  0  0  0  0
  6  7  2  0  0  0  0
  6 39  1  0  0  0  0
  7  8  1  0  0  0  0
  8  9  2  0  0  0  0
  8 16  1  0  0  0  0
  9 10  1  0  0  0  0
 10 11  2  0  0  0  0
 10 17  1  0  0  0  0
 11 12  1  0  0  0  0
 12 13  1  0  0  0  0
 12 16  1  0  0  0  0
 13 14  2  0  0  0  0
 14 15  1  0  0  0  0
 15 16  2  0  0  0  0
 17 18  2  0  0  0  0
 17 22  1  0  0  0  0
 18 19  1  0  0  0  0
 19 20  2  0  0  0  0
 20 21  1  0  0  0  0
 21 22  2  0  0  0  0
 21 23  1  0  0  0  0
 23 24  2  0  0  0  0
 23 25  1  0  0  0  0
 25 26  2  0  0  0  0
 26 27  1  0  0  0  0
 26 31  1  0  0  0  0
 27 28  2  0  0  0  0
 28 29  1  0  0  0  0
 29 30  1  0  0  0  0
 29 32  1  0  0  0  0
 30 31  2  0  0  0  0
 32 33  2  0  0  0  0
 32 34  1  0  0  0  0
 34 35  1  0  0  0  0
 35 36  2  0  0  0  0
 35 37  2  0  0  0  0
 35 38  1  0  0  0  0
 39 40  1  0  0  0  0
 40 41  1  0  0  0  0
 41 42  1  0  0  0  0
  1 43  1  0  0  0  0
  1 44  1  0  0  0  0
  1 45  1  0  0  0  0
  4 46  1  0  0  0  0
  5 47  1  0  0  0  0
 11 48  1  0  0  0  0
 13 49  1  0  0  0  0
 14 50  1  0  0  0  0
 18 51  1  0  0  0  0
 19 52  1  0  0  0  0
 20 53  1  0  0  0  0
 22 54  1  0  0  0  0
 27 55  1  0  0  0  0
 28 56  1  0  0  0  0
 29 57  1  0  0  0  0
 30 58  1  0  0  0  0
 31 59  1  0  0  0  0
 34 60  1  0  0  0  0
 38 61  1  0  0  0  0
 38 62  1  0  0  0  0
 38 63  1  0  0  0  0
 39 64  1  0  0  0  0
 39 65  1  0  0  0  0
 42 66  1  0  0  0  0
 42 67  1  0  0  0  0
 42 68  1  0  0  0  0
M  END
> <IC50[nM]>
2.2

$$$$
CHEMBL3265000
  -OEChem-05192314333D
 Structure written by MMmdl.
 68 72  0     0  0  0  0  0  0999 V2000
   -4.2555   -3.1029   13.5707 C   0  0  0  0  0  0  0  0  0  0  0  0
   -3.8740   -2.3535   14.7166 O   0  0  0  0  0  0  0  0  0  0  0  0
   -2.5261   -2.1057   14.8053 C   0  0  0  0  0  0  0  0  0  0  0  0
   -1.7497   -2.8673   15.6804 C   0  0  0  0  0  0  0  0  0  0  0  0
   -0.3863   -2.6106   15.8150 C   0  0  0  0  0  0  0  0  0  0  0  0
    0.2220   -1.5829   15.0890 C   0  0  0  0  0  0  0  0  0  0  0  0
    1.5930   -1.3491   15.3060 N   0  0  0  0  0  0  0  0  0  0  0  0
    2.5452   -0.4689   14.7536 C   0  0  0  0  0  0  0  0  0  0  0  0
    2.2178    0.3551   13.7190 N   0  0  0  0  0  0  0  0  0  0  0  0
    3.1227    1.2406   13.2181 C   0  0  0  0  0  0  0  0  0  0  0  0
    4.4207    1.3039   13.7175 C   0  0  0  0  0  0  0  0  0  0  0  0
    4.7482    0.4921   14.7654 N   0  0  0  0  0  0  0  0  0  0  0  0
    5.8898    0.3836   15.5035 C   0  0  0  0  0  0  0  0  0  0  0  0
    5.5715   -0.5089   16.5177 C   0  0  0  0  0  0  0  0  0  0  0  0
    4.3818   -1.0543   16.3920 N   0  0  0  0  0  0  0  0  0  0  0  0
    3.8330   -0.4170   15.3252 C   0  0  0  0  0  0  0  0  0  0  0  0
    2.6564    2.1560   12.1340 C   0  0  0  0  0  0  0  0  0  0  0  0
    3.5566    2.6280   11.1666 C   0  0  0  0  0  0  0  0  0  0  0  0
    3.1294    3.4499   10.1277 C   0  0  0  0  0  0  0  0  0  0  0  0
    1.7879    3.8078   10.0318 C   0  0  0  0  0  0  0  0  0  0  0  0
    0.8660    3.3707   10.9895 C   0  0  0  0  0  0  0  0  0  0  0  0
    1.3140    2.5576   12.0419 C   0  0  0  0  0  0  0  0  0  0  0  0
   -0.5783    3.7648   10.8956 C   0  0  0  0  0  0  0  0  0  0  0  0
   -1.2780    3.6594    9.8925 O   0  0  0  0  0  0  0  0  0  0  0  0
   -1.0343    4.2553   12.0485 N   0  0  0  0  0  0  0  0  0  0  0  0
   -2.3943    4.7285   12.2897 C   0  0  0  0  0  0  0  0  0  0  0  0
   -2.6544    5.5820   13.3553 C   0  0  0  0  0  0  0  0  0  0  0  0
   -3.9490    6.0325   13.5849 C   0  0  0  0  0  0  0  0  0  0  0  0
   -4.9835    5.6294   12.7489 C   0  0  0  0  0  0  0  0  0  0  0  0
   -4.7235    4.7759   11.6833 C   0  0  0  0  0  0  0  0  0  0  0  0
   -3.4289    4.3254   11.4537 C   0  0  0  0  0  0  0  0  0  0  0  0
   -6.3808    6.1155   12.9967 C   0  0  0  0  0  0  0  0  0  0  0  0
   -7.3335    5.7936   12.2928 O   0  0  0  0  0  0  0  0  0  0  0  0
   -6.3969    6.9226   14.0705 N   0  0  0  0  0  0  0  0  0  0  0  0
   -7.9316    7.5992   14.5333 S   0  0  0  0  0  0  0  0  0  0  0  0
   -8.7871    6.4947   14.9809 O   0  0  0  0  0  0  0  0  0  0  0  0
   -8.3522    8.5161   13.4681 O   0  0  0  0  0  0  0  0  0  0  0  0
   -7.5285    8.5816   15.9619 C   0  0  0  0  0  0  0  0  0  0  0  0
   -0.5664   -0.8256   14.2115 C   0  0  0  0  0  0  0  0  0  0  0  0
   -1.9389   -1.0760   14.0580 C   0  0  0  0  0  0  0  0  0  0  0  0
   -2.6991   -0.3052   13.2021 O   0  0  0  0  0  0  0  0  0  0  0  0
   -2.0020    0.6746   12.5251 C   0  0  0  0  0  0  0  0  0  0  0  0
   -5.3448   -3.2555   13.5777 H   0  0  0  0  0  0  0  0  0  0  0  0
   -3.9681   -2.5543   12.6616 H   0  0  0  0  0  0  0  0  0  0  0  0
   -3.7486   -4.0790   13.5856 H   0  0  0  0  0  0  0  0  0  0  0  0
   -2.2073   -3.6587   16.2555 H   0  0  0  0  0  0  0  0  0  0  0  0
    0.2066   -3.2125   16.4877 H   0  0  0  0  0  0  0  0  0  0  0  0
    5.1484    1.9765   13.2880 H   0  0  0  0  0  0  0  0  0  0  0  0
    6.8331    0.8820   15.3359 H   0  0  0  0  0  0  0  0  0  0  0  0
    6.2400   -0.7347   17.3354 H   0  0  0  0  0  0  0  0  0  0  0  0
    4.5981    2.3490   11.2292 H   0  0  0  0  0  0  0  0  0  0  0  0
    3.8383    3.8096    9.3966 H   0  0  0  0  0  0  0  0  0  0  0  0
    1.4559    4.4276    9.2120 H   0  0  0  0  0  0  0  0  0  0  0  0
    0.6121    2.2342   12.7963 H   0  0  0  0  0  0  0  0  0  0  0  0
   -2.3342    5.0575   14.2677 H   0  0  0  0  0  0  0  0  0  0  0  0
   -2.0291    6.4748   13.2070 H   0  0  0  0  0  0  0  0  0  0  0  0
   -4.1511    6.6958   14.4129 H   0  0  0  0  0  0  0  0  0  0  0  0
   -5.5274    4.4627   11.0337 H   0  0  0  0  0  0  0  0  0  0  0  0
   -3.2268    3.6621   10.6257 H   0  0  0  0  0  0  0  0  0  0  0  0
   -5.5621    7.1259   14.5822 H   0  0  0  0  0  0  0  0  0  0  0  0
   -8.4399    9.0642   16.3447 H   0  0  0  0  0  0  0  0  0  0  0  0
   -7.1006    7.9352   16.7423 H   0  0  0  0  0  0  0  0  0  0  0  0
   -6.7956    9.3525   15.6817 H   0  0  0  0  0  0  0  0  0  0  0  0
   -0.4764    0.2210   14.5379 H   0  0  0  0  0  0  0  0  0  0  0  0
   -0.1167   -0.9386   13.2140 H   0  0  0  0  0  0  0  0  0  0  0  0
   -2.6909    1.2310   11.8726 H   0  0  0  0  0  0  0  0  0  0  0  0
   -1.5443    1.3652   13.2487 H   0  0  0  0  0  0  0  0  0  0  0  0
   -1.2146    0.2087   11.9144 H   0  0  0  0  0  0  0  0  0  0  0  0
  1  2  1  0  0  0  0
  2  3  1  0  0  0  0
  3  4  1  0  0  0  0
  3 40  2  0  0  0  0
  4  5  2  0  0  0  0
  5  6  1  0  0  0  0
  6  7  2  0  0  0  0
  6 39  1  0  0  0  0
  7  8  1  0  0  0  0
  8  9  2  0  0  0  0
  8 16  1  0  0  0  0
  9 10  1  0  0  0  0
 10 11  2  0  0  0  0
 10 17  1  0  0  0  0
 11 12  1  0  0  0  0
 12 13  1  0  0  0  0
 12 16  1  0  0  0  0
 13 14  2  0  0  0  0
 14 15  1  0  0  0  0
 15 16  2  0  0  0  0
 17 18  2  0  0  0  0
 17 22  1  0  0  0  0
 18 19  1  0  0  0  0
 19 20  2  0  0  0  0
 20 21  1  0  0  0  0
 21 22  2  0  0  0  0
 21 23  1  0  0  0  0
 23 24  2  0  0  0  0
 23 25  1  0  0  0  0
 25 26  2  0  0  0  0
 26 27  1  0  0  0  0
 26 31  1  0  0  0  0
 27 28  1  0  0  0  0
 28 29  2  0  0  0  0
 29 30  1  0  0  0  0
 29 32  1  0  0  0  0
 30 31  2  0  0  0  0
 32 33  2  0  0  0  0
 32 34  1  0  0  0  0
 34 35  1  0  0  0  0
 35 36  2  0  0  0  0
 35 37  2  0  0  0  0
 35 38  1  0  0  0  0
 39 40  1  0  0  0  0
 40 41  1  0  0  0  0
 41 42  1  0  0  0  0
  1 43  1  0  0  0  0
  1 44  1  0  0  0  0
  1 45  1  0  0  0  0
  4 46  1  0  0  0  0
  5 47  1  0  0  0  0
 11 48  1  0  0  0  0
 13 49  1  0  0  0  0
 14 50  1  0  0  0  0
 18 51  1  0  0  0  0
 19 52  1  0  0  0  0
 20 53  1  0  0  0  0
 22 54  1  0  0  0  0
 27 55  1  0  0  0  0
 27 56  1  0  0  0  0
 28 57  1  0  0  0  0
 30 58  1  0  0  0  0
 31 59  1  0  0  0  0
 34 60  1  0  0  0  0
 38 61  1  0  0  0  0
 38 62  1  0  0  0  0
 38 63  1  0  0  0  0
 39 64  1  0  0  0  0
 39 65  1  0  0  0  0
 42 66  1  0  0  0  0
 42 67  1  0  0  0  0
 42 68  1  0  0  0  0
M  END
> <IC50[nM]>
2.2

$$$$
CHEMBL3265000
  -OEChem-05192314333D
 Structure written by MMmdl.
 68 72  0     1  0  0  0  0  0999 V2000
   -4.2555   -3.1029   13.5707 C   0  0  0  0  0  0  0  0  0  0  0  0
   -3.8740   -2.3535   14.7166 O   0  0  0  0  0  0  0  0  0  0  0  0
   -2.5261   -2.1057   14.8053 C   0  0  3  0  0  0  0  0  0  0  0  0
   -1.7497   -2.8673   15.6804 C   0  0  0  0  0  0  0  0  0  0  0  0
   -0.3863   -2.6106   15.8150 C   0  0  0  0  0  0  0  0  0  0  0  0
    0.2220   -1.5829   15.0890 C   0  0  0  0  0  0  0  0  0  0  0  0
    1.5930   -1.3491   15.3060 N   0  0  0  0  0  0  0  0  0  0  0  0
    2.5452   -0.4689   14.7536 C   0  0  0  0  0  0  0  0  0  0  0  0
    2.2178    0.3551   13.7190 N   0  0  0  0  0  0  0  0  0  0  0  0
    3.1227    1.2406   13.2181 C   0  0  0  0  0  0  0  0  0  0  0  0
    4.4207    1.3039   13.7175 C   0  0  0  0  0  0  0  0  0  0  0  0
    4.7482    0.4921   14.7654 N   0  0  0  0  0  0  0  0  0  0  0  0
    5.8898    0.3836   15.5035 C   0  0  0  0  0  0  0  0  0  0  0  0
    5.5715   -0.5089   16.5177 C   0  0  0  0  0  0  0  0  0  0  0  0
    4.3818   -1.0543   16.3920 N   0  0  0  0  0  0  0  0  0  0  0  0
    3.8330   -0.4170   15.3252 C   0  0  0  0  0  0  0  0  0  0  0  0
    2.6564    2.1560   12.1340 C   0  0  0  0  0  0  0  0  0  0  0  0
    3.5566    2.6280   11.1666 C   0  0  0  0  0  0  0  0  0  0  0  0
    3.1294    3.4499   10.1277 C   0  0  0  0  0  0  0  0  0  0  0  0
    1.7879    3.8078   10.0318 C   0  0  0  0  0  0  0  0  0  0  0  0
    0.8660    3.3707   10.9895 C   0  0  0  0  0  0  0  0  0  0  0  0
    1.3140    2.5576   12.0419 C   0  0  0  0  0  0  0  0  0  0  0  0
   -0.5783    3.7648   10.8956 C   0  0  0  0  0  0  0  0  0  0  0  0
   -1.2780    3.6594    9.8925 O   0  0  0  0  0  0  0  0  0  0  0  0
   -1.0343    4.2553   12.0485 N   0  0  0  0  0  0  0  0  0  0  0  0
   -2.3943    4.7285   12.2897 C   0  0  0  0  0  0  0  0  0  0  0  0
   -2.6544    5.5820   13.3553 C   0  0  0  0  0  0  0  0  0  0  0  0
   -3.9490    6.0325   13.5849 C   0  0  0  0  0  0  0  0  0  0  0  0
   -4.9835    5.6294   12.7489 C   0  0  0  0  0  0  0  0  0  0  0  0
   -4.7235    4.7759   11.6833 C   0  0  0  0  0  0  0  0  0  0  0  0
   -3.4289    4.3254   11.4537 C   0  0  0  0  0  0  0  0  0  0  0  0
   -6.3808    6.1155   12.9967 C   0  0  0  0  0  0  0  0  0  0  0  0
   -7.3335    5.7936   12.2928 O   0  0  0  0  0  0  0  0  0  0  0  0
   -6.3969    6.9226   14.0705 N   0  0  0  0  0  0  0  0  0  0  0  0
   -7.9316    7.5992   14.5333 S   0  0  0  0  0  0  0  0  0  0  0  0
   -8.7871    6.4947   14.9809 O   0  0  0  0  0  0  0  0  0  0  0  0
   -8.3522    8.5161   13.4681 O   0  0  0  0  0  0  0  0  0  0  0  0
   -7.5285    8.5816   15.9619 C   0  0  0  0  0  0  0  0  0  0  0  0
   -0.5664   -0.8256   14.2115 C   0  0  0  0  0  0  0  0  0  0  0  0
   -1.9389   -1.0760   14.0580 C   0  0  0  0  0  0  0  0  0  0  0  0
   -2.6991   -0.3052   13.2021 O   0  0  0  0  0  0  0  0  0  0  0  0
   -2.0020    0.6746   12.5251 C   0  0  0  0  0  0  0  0  0  0  0  0
   -5.3448   -3.2555   13.5777 H   0  0  0  0  0  0  0  0  0  0  0  0
   -3.9681   -2.5543   12.6616 H   0  0  0  0  0  0  0  0  0  0  0  0
   -3.7486   -4.0790   13.5856 H   0  0  0  0  0  0  0  0  0  0  0  0
   -2.3305   -2.8209   13.9928 H   0  0  0  0  0  0  0  0  0  0  0  0
   -2.2073   -3.6587   16.2555 H   0  0  0  0  0  0  0  0  0  0  0  0
    0.2066   -3.2125   16.4877 H   0  0  0  0  0  0  0  0  0  0  0  0
    5.1484    1.9765   13.2880 H   0  0  0  0  0  0  0  0  0  0  0  0
    6.8331    0.8820   15.3359 H   0  0  0  0  0  0  0  0  0  0  0  0
    6.2400   -0.7347   17.3354 H   0  0  0  0  0  0  0  0  0  0  0  0
    4.5981    2.3490   11.2292 H   0  0  0  0  0  0  0  0  0  0  0  0
    3.8383    3.8096    9.3966 H   0  0  0  0  0  0  0  0  0  0  0  0
    1.4559    4.4276    9.2120 H   0  0  0  0  0  0  0  0  0  0  0  0
    0.6121    2.2342   12.7963 H   0  0  0  0  0  0  0  0  0  0  0  0
   -1.8505    5.8952   14.0050 H   0  0  0  0  0  0  0  0  0  0  0  0
   -4.1511    6.6958   14.4129 H   0  0  0  0  0  0  0  0  0  0  0  0
   -4.7968    6.4973   12.0993 H   0  0  0  0  0  0  0  0  0  0  0  0
   -5.5274    4.4627   11.0337 H   0  0  0  0  0  0  0  0  0  0  0  0
   -3.2268    3.6621   10.6257 H   0  0  0  0  0  0  0  0  0  0  0  0
   -8.1235    6.2080   12.6194 H   0  0  0  0  0  0  0  0  0  0  0  0
   -8.4399    9.0642   16.3447 H   0  0  0  0  0  0  0  0  0  0  0  0
   -7.1006    7.9352   16.7423 H   0  0  0  0  0  0  0  0  0  0  0  0
   -6.7956    9.3525   15.6817 H   0  0  0  0  0  0  0  0  0  0  0  0
   -0.1075   -0.0318   13.6408 H   0  0  0  0  0  0  0  0  0  0  0  0
   -2.6909    1.2310   11.8726 H   0  0  0  0  0  0  0  0  0  0  0  0
   -1.5443    1.3652   13.2487 H   0  0  0  0  0  0  0  0  0  0  0  0
   -1.2146    0.2087   11.9144 H   0  0  0  0  0  0  0  0  0  0  0  0
  1  2  1  0  0  0  0
  2  3  1  0  0  0  0
  3  4  1  0  0  0  0
  3 40  1  0  0  0  0
  4  5  2  0  0  0  0
  5  6  1  0  0  0  0
  6  7  2  0  0  0  0
  6 39  1  0  0  0  0
  7  8  1  0  0  0  0
  8  9  2  0  0  0  0
  8 16  1  0  0  0  0
  9 10  1  0  0  0  0
 10 11  2  0  0  0  0
 10 17  1  0  0  0  0
 11 12  1  0  0  0  0
 12 13  1  0  0  0  0
 12 16  1  0  0  0  0
 13 14  2  0  0  0  0
 14 15  1  0  0  0  0
 15 16  2  0  0  0  0
 17 18  2  0  0  0  0
 17 22  1  0  0  0  0
 18 19  1  0  0  0  0
 19 20  2  0  0  0  0
 20 21  1  0  0  0  0
 21 22  2  0  0  0  0
 21 23  1  0  0  0  0
 23 24  2  0  0  0  0
 23 25  1  0  0  0  0
 25 26  2  0  0  0  0
 26 27  1  0  0  0  0
 26 31  1  0  0  0  0
 27 28  2  0  0  0  0
 28 29  1  0  0  0  0
 29 30  1  0  0  0  0
 29 32  1  0  0  0  0
 30 31  2  0  0  0  0
 32 33  1  0  0  0  0
 32 34  2  0  0  0  0
 34 35  1  0  0  0  0
 35 36  2  0  0  0  0
 35 37  2  0  0  0  0
 35 38  1  0  0  0  0
 39 40  2  0  0  0  0
 40 41  1  0  0  0  0
 41 42  1  0  0  0  0
  1 43  1  0  0  0  0
  1 44  1  0  0  0  0
  1 45  1  0  0  0  0
  3 46  1  0  0  0  0
  4 47  1  0  0  0  0
  5 48  1  0  0  0  0
 11 49  1  0  0  0  0
 13 50  1  0  0  0  0
 14 51  1  0  0  0  0
 18 52  1  0  0  0  0
 19 53  1  0  0  0  0
 20 54  1  0  0  0  0
 22 55  1  0  0  0  0
 27 56  1  0  0  0  0
 28 57  1  0  0  0  0
 29 58  1  0  0  0  0
 30 59  1  0  0  0  0
 31 60  1  0  0  0  0
 33 61  1  0  0  0  0
 38 62  1  0  0  0  0
 38 63  1  0  0  0  0
 38 64  1  0  0  0  0
 39 65  1  0  0  0  0
 42 66  1  0  0  0  0
 42 67  1  0  0  0  0
 42 68  1  0  0  0  0
M  END
> <IC50[nM]>
2.2

$$$$
CHEMBL3265000
  -OEChem-05192314333D
 Structure written by MMmdl.
 68 72  0     1  0  0  0  0  0999 V2000
   -4.2555   -3.1029   13.5707 C   0  0  0  0  0  0  0  0  0  0  0  0
   -3.8740   -2.3535   14.7166 O   0  0  0  0  0  0  0  0  0  0  0  0
   -2.5261   -2.1057   14.8053 C   0  0  3  0  0  0  0  0  0  0  0  0
   -1.7497   -2.8673   15.6804 C   0  0  0  0  0  0  0  0  0  0  0  0
   -0.3863   -2.6106   15.8150 C   0  0  0  0  0  0  0  0  0  0  0  0
    0.2220   -1.5829   15.0890 C   0  0  0  0  0  0  0  0  0  0  0  0
    1.5930   -1.3491   15.3060 N   0  0  0  0  0  0  0  0  0  0  0  0
    2.5452   -0.4689   14.7536 C   0  0  0  0  0  0  0  0  0  0  0  0
    2.2178    0.3551   13.7190 N   0  0  0  0  0  0  0  0  0  0  0  0
    3.1227    1.2406   13.2181 C   0  0  0  0  0  0  0  0  0  0  0  0
    4.4207    1.3039   13.7175 C   0  0  0  0  0  0  0  0  0  0  0  0
    4.7482    0.4921   14.7654 N   0  0  0  0  0  0  0  0  0  0  0  0
    5.8898    0.3836   15.5035 C   0  0  0  0  0  0  0  0  0  0  0  0
    5.5715   -0.5089   16.5177 C   0  0  0  0  0  0  0  0  0  0  0  0
    4.3818   -1.0543   16.3920 N   0  0  0  0  0  0  0  0  0  0  0  0
    3.8330   -0.4170   15.3252 C   0  0  0  0  0  0  0  0  0  0  0  0
    2.6564    2.1560   12.1340 C   0  0  0  0  0  0  0  0  0  0  0  0
    3.5566    2.6280   11.1666 C   0  0  0  0  0  0  0  0  0  0  0  0
    3.1294    3.4499   10.1277 C   0  0  0  0  0  0  0  0  0  0  0  0
    1.7879    3.8078   10.0318 C   0  0  0  0  0  0  0  0  0  0  0  0
    0.8660    3.3707   10.9895 C   0  0  0  0  0  0  0  0  0  0  0  0
    1.3140    2.5576   12.0419 C   0  0  0  0  0  0  0  0  0  0  0  0
   -0.5783    3.7648   10.8956 C   0  0  0  0  0  0  0  0  0  0  0  0
   -1.2780    3.6594    9.8925 O   0  0  0  0  0  0  0  0  0  0  0  0
   -1.0343    4.2553   12.0485 N   0  0  0  0  0  0  0  0  0  0  0  0
   -2.3943    4.7285   12.2897 C   0  0  0  0  0  0  0  0  0  0  0  0
   -2.6544    5.5820   13.3553 C   0  0  0  0  0  0  0  0  0  0  0  0
   -3.9490    6.0325   13.5849 C   0  0  0  0  0  0  0  0  0  0  0  0
   -4.9835    5.6294   12.7489 C   0  0  0  0  0  0  0  0  0  0  0  0
   -4.7235    4.7759   11.6833 C   0  0  0  0  0  0  0  0  0  0  0  0
   -3.4289    4.3254   11.4537 C   0  0  0  0  0  0  0  0  0  0  0  0
   -6.3808    6.1155   12.9967 C   0  0  0  0  0  0  0  0  0  0  0  0
   -7.3335    5.7936   12.2928 O   0  0  0  0  0  0  0  0  0  0  0  0
   -6.3969    6.9226   14.0705 N   0  0  0  0  0  0  0  0  0  0  0  0
   -7.9316    7.5992   14.5333 S   0  0  0  0  0  0  0  0  0  0  0  0
   -8.7871    6.4947   14.9809 O   0  0  0  0  0  0  0  0  0  0  0  0
   -8.3522    8.5161   13.4681 O   0  0  0  0  0  0  0  0  0  0  0  0
   -7.5285    8.5816   15.9619 C   0  0  0  0  0  0  0  0  0  0  0  0
   -0.5664   -0.8256   14.2115 C   0  0  0  0  0  0  0  0  0  0  0  0
   -1.9389   -1.0760   14.0580 C   0  0  0  0  0  0  0  0  0  0  0  0
   -2.6991   -0.3052   13.2021 O   0  0  0  0  0  0  0  0  0  0  0  0
   -2.0020    0.6746   12.5251 C   0  0  0  0  0  0  0  0  0  0  0  0
   -5.3448   -3.2555   13.5777 H   0  0  0  0  0  0  0  0  0  0  0  0
   -3.9681   -2.5543   12.6616 H   0  0  0  0  0  0  0  0  0  0  0  0
   -3.7486   -4.0790   13.5856 H   0  0  0  0  0  0  0  0  0  0  0  0
   -2.3305   -2.8209   13.9928 H   0  0  0  0  0  0  0  0  0  0  0  0
   -2.2073   -3.6587   16.2555 H   0  0  0  0  0  0  0  0  0  0  0  0
    0.2066   -3.2125   16.4877 H   0  0  0  0  0  0  0  0  0  0  0  0
    5.1484    1.9765   13.2880 H   0  0  0  0  0  0  0  0  0  0  0  0
    6.8331    0.8820   15.3359 H   0  0  0  0  0  0  0  0  0  0  0  0
    6.2400   -0.7347   17.3354 H   0  0  0  0  0  0  0  0  0  0  0  0
    4.5981    2.3490   11.2292 H   0  0  0  0  0  0  0  0  0  0  0  0
    3.8383    3.8096    9.3966 H   0  0  0  0  0  0  0  0  0  0  0  0
    1.4559    4.4276    9.2120 H   0  0  0  0  0  0  0  0  0  0  0  0
    0.6121    2.2342   12.7963 H   0  0  0  0  0  0  0  0  0  0  0  0
   -2.3342    5.0575   14.2677 H   0  0  0  0  0  0  0  0  0  0  0  0
   -2.0291    6.4748   13.2070 H   0  0  0  0  0  0  0  0  0  0  0  0
   -4.1511    6.6958   14.4129 H   0  0  0  0  0  0  0  0  0  0  0  0
   -5.5274    4.4627   11.0337 H   0  0  0  0  0  0  0  0  0  0  0  0
   -3.2268    3.6621   10.6257 H   0  0  0  0  0  0  0  0  0  0  0  0
   -8.1235    6.2080   12.6194 H   0  0  0  0  0  0  0  0  0  0  0  0
   -8.4399    9.0642   16.3447 H   0  0  0  0  0  0  0  0  0  0  0  0
   -7.1006    7.9352   16.7423 H   0  0  0  0  0  0  0  0  0  0  0  0
   -6.7956    9.3525   15.6817 H   0  0  0  0  0  0  0  0  0  0  0  0
   -0.1075   -0.0318   13.6408 H   0  0  0  0  0  0  0  0  0  0  0  0
   -2.6909    1.2310   11.8726 H   0  0  0  0  0  0  0  0  0  0  0  0
   -1.5443    1.3652   13.2487 H   0  0  0  0  0  0  0  0  0  0  0  0
   -1.2146    0.2087   11.9144 H   0  0  0  0  0  0  0  0  0  0  0  0
  1  2  1  0  0  0  0
  2  3  1  0  0  0  0
  3  4  1  0  0  0  0
  3 40  1  0  0  0  0
  4  5  2  0  0  0  0
  5  6  1  0  0  0  0
  6  7  2  0  0  0  0
  6 39  1  0  0  0  0
  7  8  1  0  0  0  0
  8  9  2  0  0  0  0
  8 16  1  0  0  0  0
  9 10  1  0  0  0  0
 10 11  2  0  0  0  0
 10 17  1  0  0  0  0
 11 12  1  0  0  0  0
 12 13  1  0  0  0  0
 12 16  1  0  0  0  0
 13 14  2  0  0  0  0
 14 15  1  0  0  0  0
 15 16  2  0  0  0  0
 17 18  2  0  0  0  0
 17 22  1  0  0  0  0
 18 19  1  0  0  0  0
 19 20  2  0  0  0  0
 20 21  1  0  0  0  0
 21 22  2  0  0  0  0
 21 23  1  0  0  0  0
 23 24  2  0  0  0  0
 23 25  1  0  0  0  0
 25 26  2  0  0  0  0
 26 27  1  0  0  0  0
 26 31  1  0  0  0  0
 27 28  1  0  0  0  0
 28 29  2  0  0  0  0
 29 30  1  0  0  0  0
 29 32  1  0  0  0  0
 30 31  2  0  0  0  0
 32 33  1  0  0  0  0
 32 34  2  0  0  0  0
 34 35  1  0  0  0  0
 35 36  2  0  0  0  0
 35 37  2  0  0  0  0
 35 38  1  0  0  0  0
 39 40  2  0  0  0  0
 40 41  1  0  0  0  0
 41 42  1  0  0  0  0
  1 43  1  0  0  0  0
  1 44  1  0  0  0  0
  1 45  1  0  0  0  0
  3 46  1  0  0  0  0
  4 47  1  0  0  0  0
  5 48  1  0  0  0  0
 11 49  1  0  0  0  0
 13 50  1  0  0  0  0
 14 51  1  0  0  0  0
 18 52  1  0  0  0  0
 19 53  1  0  0  0  0
 20 54  1  0  0  0  0
 22 55  1  0  0  0  0
 27 56  1  0  0  0  0
 27 57  1  0  0  0  0
 28 58  1  0  0  0  0
 30 59  1  0  0  0  0
 31 60  1  0  0  0  0
 33 61  1  0  0  0  0
 38 62  1  0  0  0  0
 38 63  1  0  0  0  0
 38 64  1  0  0  0  0
 39 65  1  0  0  0  0
 42 66  1  0  0  0  0
 42 67  1  0  0  0  0
 42 68  1  0  0  0  0
M  END
> <IC50[nM]>
2.2

$$$$
CHEMBL3265000
  -OEChem-05192314333D
 Structure written by MMmdl.
 68 72  0     0  0  0  0  0  0999 V2000
   -4.2555   -3.1029   13.5707 C   0  0  0  0  0  0  0  0  0  0  0  0
   -3.8740   -2.3535   14.7166 O   0  0  0  0  0  0  0  0  0  0  0  0
   -2.5261   -2.1057   14.8053 C   0  0  0  0  0  0  0  0  0  0  0  0
   -1.7497   -2.8673   15.6804 C   0  0  0  0  0  0  0  0  0  0  0  0
   -0.3863   -2.6106   15.8150 C   0  0  0  0  0  0  0  0  0  0  0  0
    0.2220   -1.5829   15.0890 C   0  0  0  0  0  0  0  0  0  0  0  0
    1.5930   -1.3491   15.3060 N   0  0  0  0  0  0  0  0  0  0  0  0
    2.5452   -0.4689   14.7536 C   0  0  0  0  0  0  0  0  0  0  0  0
    2.2178    0.3551   13.7190 N   0  0  0  0  0  0  0  0  0  0  0  0
    3.1227    1.2406   13.2181 C   0  0  0  0  0  0  0  0  0  0  0  0
    4.4207    1.3039   13.7175 C   0  0  0  0  0  0  0  0  0  0  0  0
    4.7482    0.4921   14.7654 N   0  0  0  0  0  0  0  0  0  0  0  0
    5.8898    0.3836   15.5035 C   0  0  0  0  0  0  0  0  0  0  0  0
    5.5715   -0.5089   16.5177 C   0  0  0  0  0  0  0  0  0  0  0  0
    4.3818   -1.0543   16.3920 N   0  0  0  0  0  0  0  0  0  0  0  0
    3.8330   -0.4170   15.3252 C   0  0  0  0  0  0  0  0  0  0  0  0
    2.6564    2.1560   12.1340 C   0  0  0  0  0  0  0  0  0  0  0  0
    3.5566    2.6280   11.1666 C   0  0  0  0  0  0  0  0  0  0  0  0
    3.1294    3.4499   10.1277 C   0  0  0  0  0  0  0  0  0  0  0  0
    1.7879    3.8078   10.0318 C   0  0  0  0  0  0  0  0  0  0  0  0
    0.8660    3.3707   10.9895 C   0  0  0  0  0  0  0  0  0  0  0  0
    1.3140    2.5576   12.0419 C   0  0  0  0  0  0  0  0  0  0  0  0
   -0.5783    3.7648   10.8956 C   0  0  0  0  0  0  0  0  0  0  0  0
   -1.2780    3.6594    9.8925 O   0  0  0  0  0  0  0  0  0  0  0  0
   -1.0343    4.2553   12.0485 N   0  0  0  0  0  0  0  0  0  0  0  0
   -2.3943    4.7285   12.2897 C   0  0  0  0  0  0  0  0  0  0  0  0
   -2.6544    5.5820   13.3553 C   0  0  0  0  0  0  0  0  0  0  0  0
   -3.9490    6.0325   13.5849 C   0  0  0  0  0  0  0  0  0  0  0  0
   -4.9835    5.6294   12.7489 C   0  0  0  0  0  0  0  0  0  0  0  0
   -4.7235    4.7759   11.6833 C   0  0  0  0  0  0  0  0  0  0  0  0
   -3.4289    4.3254   11.4537 C   0  0  0  0  0  0  0  0  0  0  0  0
   -6.3808    6.1155   12.9967 C   0  0  0  0  0  0  0  0  0  0  0  0
   -7.3335    5.7936   12.2928 O   0  0  0  0  0  0  0  0  0  0  0  0
   -6.3969    6.9226   14.0705 N   0  0  0  0  0  0  0  0  0  0  0  0
   -7.9316    7.5992   14.5333 S   0  0  0  0  0  0  0  0  0  0  0  0
   -8.7871    6.4947   14.9809 O   0  0  0  0  0  0  0  0  0  0  0  0
   -8.3522    8.5161   13.4681 O   0  0  0  0  0  0  0  0  0  0  0  0
   -7.5285    8.5816   15.9619 C   0  0  0  0  0  0  0  0  0  0  0  0
   -0.5664   -0.8256   14.2115 C   0  0  0  0  0  0  0  0  0  0  0  0
   -1.9389   -1.0760   14.0580 C   0  0  0  0  0  0  0  0  0  0  0  0
   -2.6991   -0.3052   13.2021 O   0  0  0  0  0  0  0  0  0  0  0  0
   -2.0020    0.6746   12.5251 C   0  0  0  0  0  0  0  0  0  0  0  0
   -5.3448   -3.2555   13.5777 H   0  0  0  0  0  0  0  0  0  0  0  0
   -3.9681   -2.5543   12.6616 H   0  0  0  0  0  0  0  0  0  0  0  0
   -3.7486   -4.0790   13.5856 H   0  0  0  0  0  0  0  0  0  0  0  0
   -2.2073   -3.6587   16.2555 H   0  0  0  0  0  0  0  0  0  0  0  0
   -0.2118   -2.3897   16.8784 H   0  0  0  0  0  0  0  0  0  0  0  0
    0.1365   -3.5394   15.5428 H   0  0  0  0  0  0  0  0  0  0  0  0
    5.1484    1.9765   13.2880 H   0  0  0  0  0  0  0  0  0  0  0  0
    6.8331    0.8820   15.3359 H   0  0  0  0  0  0  0  0  0  0  0  0
    6.2400   -0.7347   17.3354 H   0  0  0  0  0  0  0  0  0  0  0  0
    4.5981    2.3490   11.2292 H   0  0  0  0  0  0  0  0  0  0  0  0
    3.8383    3.8096    9.3966 H   0  0  0  0  0  0  0  0  0  0  0  0
    1.4559    4.4276    9.2120 H   0  0  0  0  0  0  0  0  0  0  0  0
    0.6121    2.2342   12.7963 H   0  0  0  0  0  0  0  0  0  0  0  0
   -1.8505    5.8952   14.0050 H   0  0  0  0  0  0  0  0  0  0  0  0
   -4.1511    6.6958   14.4129 H   0  0  0  0  0  0  0  0  0  0  0  0
   -4.7968    6.4973   12.0993 H   0  0  0  0  0  0  0  0  0  0  0  0
   -5.5274    4.4627   11.0337 H   0  0  0  0  0  0  0  0  0  0  0  0
   -3.2268    3.6621   10.6257 H   0  0  0  0  0  0  0  0  0  0  0  0
   -8.1235    6.2080   12.6194 H   0  0  0  0  0  0  0  0  0  0  0  0
   -8.4399    9.0642   16.3447 H   0  0  0  0  0  0  0  0  0  0  0  0
   -7.1006    7.9352   16.7423 H   0  0  0  0  0  0  0  0  0  0  0  0
   -6.7956    9.3525   15.6817 H   0  0  0  0  0  0  0  0  0  0  0  0
   -0.1075   -0.0318   13.6408 H   0  0  0  0  0  0  0  0  0  0  0  0
   -2.6909    1.2310   11.8726 H   0  0  0  0  0  0  0  0  0  0  0  0
   -1.5443    1.3652   13.2487 H   0  0  0  0  0  0  0  0  0  0  0  0
   -1.2146    0.2087   11.9144 H   0  0  0  0  0  0  0  0  0  0  0  0
  1  2  1  0  0  0  0
  2  3  1  0  0  0  0
  3  4  2  0  0  0  0
  3 40  1  0  0  0  0
  4  5  1  0  0  0  0
  5  6  1  0  0  0  0
  6  7  2  0  0  0  0
  6 39  1  0  0  0  0
  7  8  1  0  0  0  0
  8  9  2  0  0  0  0
  8 16  1  0  0  0  0
  9 10  1  0  0  0  0
 10 11  2  0  0  0  0
 10 17  1  0  0  0  0
 11 12  1  0  0  0  0
 12 13  1  0  0  0  0
 12 16  1  0  0  0  0
 13 14  2  0  0  0  0
 14 15  1  0  0  0  0
 15 16  2  0  0  0  0
 17 18  2  0  0  0  0
 17 22  1  0  0  0  0
 18 19  1  0  0  0  0
 19 20  2  0  0  0  0
 20 21  1  0  0  0  0
 21 22  2  0  0  0  0
 21 23  1  0  0  0  0
 23 24  2  0  0  0  0
 23 25  1  0  0  0  0
 25 26  2  0  0  0  0
 26 27  1  0  0  0  0
 26 31  1  0  0  0  0
 27 28  2  0  0  0  0
 28 29  1  0  0  0  0
 29 30  1  0  0  0  0
 29 32  1  0  0  0  0
 30 31  2  0  0  0  0
 32 33  1  0  0  0  0
 32 34  2  0  0  0  0
 34 35  1  0  0  0  0
 35 36  2  0  0  0  0
 35 37  2  0  0  0  0
 35 38  1  0  0  0  0
 39 40  2  0  0  0  0
 40 41  1  0  0  0  0
 41 42  1  0  0  0  0
  1 43  1  0  0  0  0
  1 44  1  0  0  0  0
  1 45  1  0  0  0  0
  4 46  1  0  0  0  0
  5 47  1  0  0  0  0
  5 48  1  0  0  0  0
 11 49  1  0  0  0  0
 13 50  1  0  0  0  0
 14 51  1  0  0  0  0
 18 52  1  0  0  0  0
 19 53  1  0  0  0  0
 20 54  1  0  0  0  0
 22 55  1  0  0  0  0
 27 56  1  0  0  0  0
 28 57  1  0  0  0  0
 29 58  1  0  0  0  0
 30 59  1  0  0  0  0
 31 60  1  0  0  0  0
 33 61  1  0  0  0  0
 38 62  1  0  0  0  0
 38 63  1  0  0  0  0
 38 64  1  0  0  0  0
 39 65  1  0  0  0  0
 42 66  1  0  0  0  0
 42 67  1  0  0  0  0
 42 68  1  0  0  0  0
M  END
> <IC50[nM]>
2.2

$$$$
CHEMBL3265000
  -OEChem-05192314333D
 Structure written by MMmdl.
 68 72  0     0  0  0  0  0  0999 V2000
   -4.2555   -3.1029   13.5707 C   0  0  0  0  0  0  0  0  0  0  0  0
   -3.8740   -2.3535   14.7166 O   0  0  0  0  0  0  0  0  0  0  0  0
   -2.5261   -2.1057   14.8053 C   0  0  0  0  0  0  0  0  0  0  0  0
   -1.7497   -2.8673   15.6804 C   0  0  0  0  0  0  0  0  0  0  0  0
   -0.3863   -2.6106   15.8150 C   0  0  0  0  0  0  0  0  0  0  0  0
    0.2220   -1.5829   15.0890 C   0  0  0  0  0  0  0  0  0  0  0  0
    1.5930   -1.3491   15.3060 N   0  0  0  0  0  0  0  0  0  0  0  0
    2.5452   -0.4689   14.7536 C   0  0  0  0  0  0  0  0  0  0  0  0
    2.2178    0.3551   13.7190 N   0  0  0  0  0  0  0  0  0  0  0  0
    3.1227    1.2406   13.2181 C   0  0  0  0  0  0  0  0  0  0  0  0
    4.4207    1.3039   13.7175 C   0  0  0  0  0  0  0  0  0  0  0  0
    4.7482    0.4921   14.7654 N   0  0  0  0  0  0  0  0  0  0  0  0
    5.8898    0.3836   15.5035 C   0  0  0  0  0  0  0  0  0  0  0  0
    5.5715   -0.5089   16.5177 C   0  0  0  0  0  0  0  0  0  0  0  0
    4.3818   -1.0543   16.3920 N   0  0  0  0  0  0  0  0  0  0  0  0
    3.8330   -0.4170   15.3252 C   0  0  0  0  0  0  0  0  0  0  0  0
    2.6564    2.1560   12.1340 C   0  0  0  0  0  0  0  0  0  0  0  0
    3.5566    2.6280   11.1666 C   0  0  0  0  0  0  0  0  0  0  0  0
    3.1294    3.4499   10.1277 C   0  0  0  0  0  0  0  0  0  0  0  0
    1.7879    3.8078   10.0318 C   0  0  0  0  0  0  0  0  0  0  0  0
    0.8660    3.3707   10.9895 C   0  0  0  0  0  0  0  0  0  0  0  0
    1.3140    2.5576   12.0419 C   0  0  0  0  0  0  0  0  0  0  0  0
   -0.5783    3.7648   10.8956 C   0  0  0  0  0  0  0  0  0  0  0  0
   -1.2780    3.6594    9.8925 O   0  0  0  0  0  0  0  0  0  0  0  0
   -1.0343    4.2553   12.0485 N   0  0  0  0  0  0  0  0  0  0  0  0
   -2.3943    4.7285   12.2897 C   0  0  0  0  0  0  0  0  0  0  0  0
   -2.6544    5.5820   13.3553 C   0  0  0  0  0  0  0  0  0  0  0  0
   -3.9490    6.0325   13.5849 C   0  0  0  0  0  0  0  0  0  0  0  0
   -4.9835    5.6294   12.7489 C   0  0  0  0  0  0  0  0  0  0  0  0
   -4.7235    4.7759   11.6833 C   0  0  0  0  0  0  0  0  0  0  0  0
   -3.4289    4.3254   11.4537 C   0  0  0  0  0  0  0  0  0  0  0  0
   -6.3808    6.1155   12.9967 C   0  0  0  0  0  0  0  0  0  0  0  0
   -7.3335    5.7936   12.2928 O   0  0  0  0  0  0  0  0  0  0  0  0
   -6.3969    6.9226   14.0705 N   0  0  0  0  0  0  0  0  0  0  0  0
   -7.9316    7.5992   14.5333 S   0  0  0  0  0  0  0  0  0  0  0  0
   -8.7871    6.4947   14.9809 O   0  0  0  0  0  0  0  0  0  0  0  0
   -8.3522    8.5161   13.4681 O   0  0  0  0  0  0  0  0  0  0  0  0
   -7.5285    8.5816   15.9619 C   0  0  0  0  0  0  0  0  0  0  0  0
   -0.5664   -0.8256   14.2115 C   0  0  0  0  0  0  0  0  0  0  0  0
   -1.9389   -1.0760   14.0580 C   0  0  0  0  0  0  0  0  0  0  0  0
   -2.6991   -0.3052   13.2021 O   0  0  0  0  0  0  0  0  0  0  0  0
   -2.0020    0.6746   12.5251 C   0  0  0  0  0  0  0  0  0  0  0  0
   -5.3448   -3.2555   13.5777 H   0  0  0  0  0  0  0  0  0  0  0  0
   -3.9681   -2.5543   12.6616 H   0  0  0  0  0  0  0  0  0  0  0  0
   -3.7486   -4.0790   13.5856 H   0  0  0  0  0  0  0  0  0  0  0  0
   -2.2073   -3.6587   16.2555 H   0  0  0  0  0  0  0  0  0  0  0  0
   -0.2118   -2.3897   16.8784 H   0  0  0  0  0  0  0  0  0  0  0  0
    0.1365   -3.5394   15.5428 H   0  0  0  0  0  0  0  0  0  0  0  0
    5.1484    1.9765   13.2880 H   0  0  0  0  0  0  0  0  0  0  0  0
    6.8331    0.8820   15.3359 H   0  0  0  0  0  0  0  0  0  0  0  0
    6.2400   -0.7347   17.3354 H   0  0  0  0  0  0  0  0  0  0  0  0
    4.5981    2.3490   11.2292 H   0  0  0  0  0  0  0  0  0  0  0  0
    3.8383    3.8096    9.3966 H   0  0  0  0  0  0  0  0  0  0  0  0
    1.4559    4.4276    9.2120 H   0  0  0  0  0  0  0  0  0  0  0  0
    0.6121    2.2342   12.7963 H   0  0  0  0  0  0  0  0  0  0  0  0
   -2.3342    5.0575   14.2677 H   0  0  0  0  0  0  0  0  0  0  0  0
   -2.0291    6.4748   13.2070 H   0  0  0  0  0  0  0  0  0  0  0  0
   -4.1511    6.6958   14.4129 H   0  0  0  0  0  0  0  0  0  0  0  0
   -5.5274    4.4627   11.0337 H   0  0  0  0  0  0  0  0  0  0  0  0
   -3.2268    3.6621   10.6257 H   0  0  0  0  0  0  0  0  0  0  0  0
   -8.1235    6.2080   12.6194 H   0  0  0  0  0  0  0  0  0  0  0  0
   -8.4399    9.0642   16.3447 H   0  0  0  0  0  0  0  0  0  0  0  0
   -7.1006    7.9352   16.7423 H   0  0  0  0  0  0  0  0  0  0  0  0
   -6.7956    9.3525   15.6817 H   0  0  0  0  0  0  0  0  0  0  0  0
   -0.1075   -0.0318   13.6408 H   0  0  0  0  0  0  0  0  0  0  0  0
   -2.6909    1.2310   11.8726 H   0  0  0  0  0  0  0  0  0  0  0  0
   -1.5443    1.3652   13.2487 H   0  0  0  0  0  0  0  0  0  0  0  0
   -1.2146    0.2087   11.9144 H   0  0  0  0  0  0  0  0  0  0  0  0
  1  2  1  0  0  0  0
  2  3  1  0  0  0  0
  3  4  2  0  0  0  0
  3 40  1  0  0  0  0
  4  5  1  0  0  0  0
  5  6  1  0  0  0  0
  6  7  2  0  0  0  0
  6 39  1  0  0  0  0
  7  8  1  0  0  0  0
  8  9  2  0  0  0  0
  8 16  1  0  0  0  0
  9 10  1  0  0  0  0
 10 11  2  0  0  0  0
 10 17  1  0  0  0  0
 11 12  1  0  0  0  0
 12 13  1  0  0  0  0
 12 16  1  0  0  0  0
 13 14  2  0  0  0  0
 14 15  1  0  0  0  0
 15 16  2  0  0  0  0
 17 18  2  0  0  0  0
 17 22  1  0  0  0  0
 18 19  1  0  0  0  0
 19 20  2  0  0  0  0
 20 21  1  0  0  0  0
 21 22  2  0  0  0  0
 21 23  1  0  0  0  0
 23 24  2  0  0  0  0
 23 25  1  0  0  0  0
 25 26  2  0  0  0  0
 26 27  1  0  0  0  0
 26 31  1  0  0  0  0
 27 28  1  0  0  0  0
 28 29  2  0  0  0  0
 29 30  1  0  0  0  0
 29 32  1  0  0  0  0
 30 31  2  0  0  0  0
 32 33  1  0  0  0  0
 32 34  2  0  0  0  0
 34 35  1  0  0  0  0
 35 36  2  0  0  0  0
 35 37  2  0  0  0  0
 35 38  1  0  0  0  0
 39 40  2  0  0  0  0
 40 41  1  0  0  0  0
 41 42  1  0  0  0  0
  1 43  1  0  0  0  0
  1 44  1  0  0  0  0
  1 45  1  0  0  0  0
  4 46  1  0  0  0  0
  5 47  1  0  0  0  0
  5 48  1  0  0  0  0
 11 49  1  0  0  0  0
 13 50  1  0  0  0  0
 14 51  1  0  0  0  0
 18 52  1  0  0  0  0
 19 53  1  0  0  0  0
 20 54  1  0  0  0  0
 22 55  1  0  0  0  0
 27 56  1  0  0  0  0
 27 57  1  0  0  0  0
 28 58  1  0  0  0  0
 30 59  1  0  0  0  0
 31 60  1  0  0  0  0
 33 61  1  0  0  0  0
 38 62  1  0  0  0  0
 38 63  1  0  0  0  0
 38 64  1  0  0  0  0
 39 65  1  0  0  0  0
 42 66  1  0  0  0  0
 42 67  1  0  0  0  0
 42 68  1  0  0  0  0
M  END
> <IC50[nM]>
2.2

$$$$
CHEMBL3265000
  -OEChem-05192314333D
 Structure written by MMmdl.
 68 72  0     0  0  0  0  0  0999 V2000
   -4.2555   -3.1029   13.5707 C   0  0  0  0  0  0  0  0  0  0  0  0
   -3.8740   -2.3535   14.7166 O   0  0  0  0  0  0  0  0  0  0  0  0
   -2.5261   -2.1057   14.8053 C   0  0  0  0  0  0  0  0  0  0  0  0
   -1.7497   -2.8673   15.6804 C   0  0  0  0  0  0  0  0  0  0  0  0
   -0.3863   -2.6106   15.8150 C   0  0  0  0  0  0  0  0  0  0  0  0
    0.2220   -1.5829   15.0890 C   0  0  0  0  0  0  0  0  0  0  0  0
    1.5930   -1.3491   15.3060 N   0  0  0  0  0  0  0  0  0  0  0  0
    2.5452   -0.4689   14.7536 C   0  0  0  0  0  0  0  0  0  0  0  0
    2.2178    0.3551   13.7190 N   0  0  0  0  0  0  0  0  0  0  0  0
    3.1227    1.2406   13.2181 C   0  0  0  0  0  0  0  0  0  0  0  0
    4.4207    1.3039   13.7175 C   0  0  0  0  0  0  0  0  0  0  0  0
    4.7482    0.4921   14.7654 N   0  0  0  0  0  0  0  0  0  0  0  0
    5.8898    0.3836   15.5035 C   0  0  0  0  0  0  0  0  0  0  0  0
    5.5715   -0.5089   16.5177 C   0  0  0  0  0  0  0  0  0  0  0  0
    4.3818   -1.0543   16.3920 N   0  0  0  0  0  0  0  0  0  0  0  0
    3.8330   -0.4170   15.3252 C   0  0  0  0  0  0  0  0  0  0  0  0
    2.6564    2.1560   12.1340 C   0  0  0  0  0  0  0  0  0  0  0  0
    3.5566    2.6280   11.1666 C   0  0  0  0  0  0  0  0  0  0  0  0
    3.1294    3.4499   10.1277 C   0  0  0  0  0  0  0  0  0  0  0  0
    1.7879    3.8078   10.0318 C   0  0  0  0  0  0  0  0  0  0  0  0
    0.8660    3.3707   10.9895 C   0  0  0  0  0  0  0  0  0  0  0  0
    1.3140    2.5576   12.0419 C   0  0  0  0  0  0  0  0  0  0  0  0
   -0.5783    3.7648   10.8956 C   0  0  0  0  0  0  0  0  0  0  0  0
   -1.2780    3.6594    9.8925 O   0  0  0  0  0  0  0  0  0  0  0  0
   -1.0343    4.2553   12.0485 N   0  0  0  0  0  0  0  0  0  0  0  0
   -2.3943    4.7285   12.2897 C   0  0  0  0  0  0  0  0  0  0  0  0
   -2.6544    5.5820   13.3553 C   0  0  0  0  0  0  0  0  0  0  0  0
   -3.9490    6.0325   13.5849 C   0  0  0  0  0  0  0  0  0  0  0  0
   -4.9835    5.6294   12.7489 C   0  0  0  0  0  0  0  0  0  0  0  0
   -4.7235    4.7759   11.6833 C   0  0  0  0  0  0  0  0  0  0  0  0
   -3.4289    4.3254   11.4537 C   0  0  0  0  0  0  0  0  0  0  0  0
   -6.3808    6.1155   12.9967 C   0  0  0  0  0  0  0  0  0  0  0  0
   -7.3335    5.7936   12.2928 O   0  0  0  0  0  0  0  0  0  0  0  0
   -6.3969    6.9226   14.0705 N   0  0  0  0  0  0  0  0  0  0  0  0
   -7.9316    7.5992   14.5333 S   0  0  0  0  0  0  0  0  0  0  0  0
   -8.7871    6.4947   14.9809 O   0  0  0  0  0  0  0  0  0  0  0  0
   -8.3522    8.5161   13.4681 O   0  0  0  0  0  0  0  0  0  0  0  0
   -7.5285    8.5816   15.9619 C   0  0  0  0  0  0  0  0  0  0  0  0
   -0.5664   -0.8256   14.2115 C   0  0  0  0  0  0  0  0  0  0  0  0
   -1.9389   -1.0760   14.0580 C   0  0  0  0  0  0  0  0  0  0  0  0
   -2.6991   -0.3052   13.2021 O   0  0  0  0  0  0  0  0  0  0  0  0
   -2.0020    0.6746   12.5251 C   0  0  0  0  0  0  0  0  0  0  0  0
   -5.3448   -3.2555   13.5777 H   0  0  0  0  0  0  0  0  0  0  0  0
   -3.9681   -2.5543   12.6616 H   0  0  0  0  0  0  0  0  0  0  0  0
   -3.7486   -4.0790   13.5856 H   0  0  0  0  0  0  0  0  0  0  0  0
   -2.2073   -3.6587   16.2555 H   0  0  0  0  0  0  0  0  0  0  0  0
    0.2066   -3.2125   16.4877 H   0  0  0  0  0  0  0  0  0  0  0  0
    5.1484    1.9765   13.2880 H   0  0  0  0  0  0  0  0  0  0  0  0
    6.8331    0.8820   15.3359 H   0  0  0  0  0  0  0  0  0  0  0  0
    6.2400   -0.7347   17.3354 H   0  0  0  0  0  0  0  0  0  0  0  0
    4.5981    2.3490   11.2292 H   0  0  0  0  0  0  0  0  0  0  0  0
    3.8383    3.8096    9.3966 H   0  0  0  0  0  0  0  0  0  0  0  0
    1.4559    4.4276    9.2120 H   0  0  0  0  0  0  0  0  0  0  0  0
    0.6121    2.2342   12.7963 H   0  0  0  0  0  0  0  0  0  0  0  0
   -1.8505    5.8952   14.0050 H   0  0  0  0  0  0  0  0  0  0  0  0
   -4.1511    6.6958   14.4129 H   0  0  0  0  0  0  0  0  0  0  0  0
   -4.7968    6.4973   12.0993 H   0  0  0  0  0  0  0  0  0  0  0  0
   -5.5274    4.4627   11.0337 H   0  0  0  0  0  0  0  0  0  0  0  0
   -3.2268    3.6621   10.6257 H   0  0  0  0  0  0  0  0  0  0  0  0
   -8.1235    6.2080   12.6194 H   0  0  0  0  0  0  0  0  0  0  0  0
   -8.4399    9.0642   16.3447 H   0  0  0  0  0  0  0  0  0  0  0  0
   -7.1006    7.9352   16.7423 H   0  0  0  0  0  0  0  0  0  0  0  0
   -6.7956    9.3525   15.6817 H   0  0  0  0  0  0  0  0  0  0  0  0
   -0.4764    0.2210   14.5379 H   0  0  0  0  0  0  0  0  0  0  0  0
   -0.1167   -0.9386   13.2140 H   0  0  0  0  0  0  0  0  0  0  0  0
   -2.6909    1.2310   11.8726 H   0  0  0  0  0  0  0  0  0  0  0  0
   -1.5443    1.3652   13.2487 H   0  0  0  0  0  0  0  0  0  0  0  0
   -1.2146    0.2087   11.9144 H   0  0  0  0  0  0  0  0  0  0  0  0
  1  2  1  0  0  0  0
  2  3  1  0  0  0  0
  3  4  1  0  0  0  0
  3 40  2  0  0  0  0
  4  5  2  0  0  0  0
  5  6  1  0  0  0  0
  6  7  2  0  0  0  0
  6 39  1  0  0  0  0
  7  8  1  0  0  0  0
  8  9  2  0  0  0  0
  8 16  1  0  0  0  0
  9 10  1  0  0  0  0
 10 11  2  0  0  0  0
 10 17  1  0  0  0  0
 11 12  1  0  0  0  0
 12 13  1  0  0  0  0
 12 16  1  0  0  0  0
 13 14  2  0  0  0  0
 14 15  1  0  0  0  0
 15 16  2  0  0  0  0
 17 18  2  0  0  0  0
 17 22  1  0  0  0  0
 18 19  1  0  0  0  0
 19 20  2  0  0  0  0
 20 21  1  0  0  0  0
 21 22  2  0  0  0  0
 21 23  1  0  0  0  0
 23 24  2  0  0  0  0
 23 25  1  0  0  0  0
 25 26  2  0  0  0  0
 26 27  1  0  0  0  0
 26 31  1  0  0  0  0
 27 28  2  0  0  0  0
 28 29  1  0  0  0  0
 29 30  1  0  0  0  0
 29 32  1  0  0  0  0
 30 31  2  0  0  0  0
 32 33  1  0  0  0  0
 32 34  2  0  0  0  0
 34 35  1  0  0  0  0
 35 36  2  0  0  0  0
 35 37  2  0  0  0  0
 35 38  1  0  0  0  0
 39 40  1  0  0  0  0
 40 41  1  0  0  0  0
 41 42  1  0  0  0  0
  1 43  1  0  0  0  0
  1 44  1  0  0  0  0
  1 45  1  0  0  0  0
  4 46  1  0  0  0  0
  5 47  1  0  0  0  0
 11 48  1  0  0  0  0
 13 49  1  0  0  0  0
 14 50  1  0  0  0  0
 18 51  1  0  0  0  0
 19 52  1  0  0  0  0
 20 53  1  0  0  0  0
 22 54  1  0  0  0  0
 27 55  1  0  0  0  0
 28 56  1  0  0  0  0
 29 57  1  0  0  0  0
 30 58  1  0  0  0  0
 31 59  1  0  0  0  0
 33 60  1  0  0  0  0
 38 61  1  0  0  0  0
 38 62  1  0  0  0  0
 38 63  1  0  0  0  0
 39 64  1  0  0  0  0
 39 65  1  0  0  0  0
 42 66  1  0  0  0  0
 42 67  1  0  0  0  0
 42 68  1  0  0  0  0
M  END
> <IC50[nM]>
2.2

$$$$
CHEMBL3265000
  -OEChem-05192314333D
 Structure written by MMmdl.
 68 72  0     0  0  0  0  0  0999 V2000
   -4.2555   -3.1029   13.5707 C   0  0  0  0  0  0  0  0  0  0  0  0
   -3.8740   -2.3535   14.7166 O   0  0  0  0  0  0  0  0  0  0  0  0
   -2.5261   -2.1057   14.8053 C   0  0  0  0  0  0  0  0  0  0  0  0
   -1.7497   -2.8673   15.6804 C   0  0  0  0  0  0  0  0  0  0  0  0
   -0.3863   -2.6106   15.8150 C   0  0  0  0  0  0  0  0  0  0  0  0
    0.2220   -1.5829   15.0890 C   0  0  0  0  0  0  0  0  0  0  0  0
    1.5930   -1.3491   15.3060 N   0  0  0  0  0  0  0  0  0  0  0  0
    2.5452   -0.4689   14.7536 C   0  0  0  0  0  0  0  0  0  0  0  0
    2.2178    0.3551   13.7190 N   0  0  0  0  0  0  0  0  0  0  0  0
    3.1227    1.2406   13.2181 C   0  0  0  0  0  0  0  0  0  0  0  0
    4.4207    1.3039   13.7175 C   0  0  0  0  0  0  0  0  0  0  0  0
    4.7482    0.4921   14.7654 N   0  0  0  0  0  0  0  0  0  0  0  0
    5.8898    0.3836   15.5035 C   0  0  0  0  0  0  0  0  0  0  0  0
    5.5715   -0.5089   16.5177 C   0  0  0  0  0  0  0  0  0  0  0  0
    4.3818   -1.0543   16.3920 N   0  0  0  0  0  0  0  0  0  0  0  0
    3.8330   -0.4170   15.3252 C   0  0  0  0  0  0  0  0  0  0  0  0
    2.6564    2.1560   12.1340 C   0  0  0  0  0  0  0  0  0  0  0  0
    3.5566    2.6280   11.1666 C   0  0  0  0  0  0  0  0  0  0  0  0
    3.1294    3.4499   10.1277 C   0  0  0  0  0  0  0  0  0  0  0  0
    1.7879    3.8078   10.0318 C   0  0  0  0  0  0  0  0  0  0  0  0
    0.8660    3.3707   10.9895 C   0  0  0  0  0  0  0  0  0  0  0  0
    1.3140    2.5576   12.0419 C   0  0  0  0  0  0  0  0  0  0  0  0
   -0.5783    3.7648   10.8956 C   0  0  0  0  0  0  0  0  0  0  0  0
   -1.2780    3.6594    9.8925 O   0  0  0  0  0  0  0  0  0  0  0  0
   -1.0343    4.2553   12.0485 N   0  0  0  0  0  0  0  0  0  0  0  0
   -2.3943    4.7285   12.2897 C   0  0  0  0  0  0  0  0  0  0  0  0
   -2.6544    5.5820   13.3553 C   0  0  0  0  0  0  0  0  0  0  0  0
   -3.9490    6.0325   13.5849 C   0  0  0  0  0  0  0  0  0  0  0  0
   -4.9835    5.6294   12.7489 C   0  0  0  0  0  0  0  0  0  0  0  0
   -4.7235    4.7759   11.6833 C   0  0  0  0  0  0  0  0  0  0  0  0
   -3.4289    4.3254   11.4537 C   0  0  0  0  0  0  0  0  0  0  0  0
   -6.3808    6.1155   12.9967 C   0  0  0  0  0  0  0  0  0  0  0  0
   -7.3335    5.7936   12.2928 O   0  0  0  0  0  0  0  0  0  0  0  0
   -6.3969    6.9226   14.0705 N   0  0  0  0  0  0  0  0  0  0  0  0
   -7.9316    7.5992   14.5333 S   0  0  0  0  0  0  0  0  0  0  0  0
   -8.7871    6.4947   14.9809 O   0  0  0  0  0  0  0  0  0  0  0  0
   -8.3522    8.5161   13.4681 O   0  0  0  0  0  0  0  0  0  0  0  0
   -7.5285    8.5816   15.9619 C   0  0  0  0  0  0  0  0  0  0  0  0
   -0.5664   -0.8256   14.2115 C   0  0  0  0  0  0  0  0  0  0  0  0
   -1.9389   -1.0760   14.0580 C   0  0  0  0  0  0  0  0  0  0  0  0
   -2.6991   -0.3052   13.2021 O   0  0  0  0  0  0  0  0  0  0  0  0
   -2.0020    0.6746   12.5251 C   0  0  0  0  0  0  0  0  0  0  0  0
   -5.3448   -3.2555   13.5777 H   0  0  0  0  0  0  0  0  0  0  0  0
   -3.9681   -2.5543   12.6616 H   0  0  0  0  0  0  0  0  0  0  0  0
   -3.7486   -4.0790   13.5856 H   0  0  0  0  0  0  0  0  0  0  0  0
   -2.2073   -3.6587   16.2555 H   0  0  0  0  0  0  0  0  0  0  0  0
    0.2066   -3.2125   16.4877 H   0  0  0  0  0  0  0  0  0  0  0  0
    5.1484    1.9765   13.2880 H   0  0  0  0  0  0  0  0  0  0  0  0
    6.8331    0.8820   15.3359 H   0  0  0  0  0  0  0  0  0  0  0  0
    6.2400   -0.7347   17.3354 H   0  0  0  0  0  0  0  0  0  0  0  0
    4.5981    2.3490   11.2292 H   0  0  0  0  0  0  0  0  0  0  0  0
    3.8383    3.8096    9.3966 H   0  0  0  0  0  0  0  0  0  0  0  0
    1.4559    4.4276    9.2120 H   0  0  0  0  0  0  0  0  0  0  0  0
    0.6121    2.2342   12.7963 H   0  0  0  0  0  0  0  0  0  0  0  0
   -2.3342    5.0575   14.2677 H   0  0  0  0  0  0  0  0  0  0  0  0
   -2.0291    6.4748   13.2070 H   0  0  0  0  0  0  0  0  0  0  0  0
   -4.1511    6.6958   14.4129 H   0  0  0  0  0  0  0  0  0  0  0  0
   -5.5274    4.4627   11.0337 H   0  0  0  0  0  0  0  0  0  0  0  0
   -3.2268    3.6621   10.6257 H   0  0  0  0  0  0  0  0  0  0  0  0
   -8.1235    6.2080   12.6194 H   0  0  0  0  0  0  0  0  0  0  0  0
   -8.4399    9.0642   16.3447 H   0  0  0  0  0  0  0  0  0  0  0  0
   -7.1006    7.9352   16.7423 H   0  0  0  0  0  0  0  0  0  0  0  0
   -6.7956    9.3525   15.6817 H   0  0  0  0  0  0  0  0  0  0  0  0
   -0.4764    0.2210   14.5379 H   0  0  0  0  0  0  0  0  0  0  0  0
   -0.1167   -0.9386   13.2140 H   0  0  0  0  0  0  0  0  0  0  0  0
   -2.6909    1.2310   11.8726 H   0  0  0  0  0  0  0  0  0  0  0  0
   -1.5443    1.3652   13.2487 H   0  0  0  0  0  0  0  0  0  0  0  0
   -1.2146    0.2087   11.9144 H   0  0  0  0  0  0  0  0  0  0  0  0
  1  2  1  0  0  0  0
  2  3  1  0  0  0  0
  3  4  1  0  0  0  0
  3 40  2  0  0  0  0
  4  5  2  0  0  0  0
  5  6  1  0  0  0  0
  6  7  2  0  0  0  0
  6 39  1  0  0  0  0
  7  8  1  0  0  0  0
  8  9  2  0  0  0  0
  8 16  1  0  0  0  0
  9 10  1  0  0  0  0
 10 11  2  0  0  0  0
 10 17  1  0  0  0  0
 11 12  1  0  0  0  0
 12 13  1  0  0  0  0
 12 16  1  0  0  0  0
 13 14  2  0  0  0  0
 14 15  1  0  0  0  0
 15 16  2  0  0  0  0
 17 18  2  0  0  0  0
 17 22  1  0  0  0  0
 18 19  1  0  0  0  0
 19 20  2  0  0  0  0
 20 21  1  0  0  0  0
 21 22  2  0  0  0  0
 21 23  1  0  0  0  0
 23 24  2  0  0  0  0
 23 25  1  0  0  0  0
 25 26  2  0  0  0  0
 26 27  1  0  0  0  0
 26 31  1  0  0  0  0
 27 28  1  0  0  0  0
 28 29  2  0  0  0  0
 29 30  1  0  0  0  0
 29 32  1  0  0  0  0
 30 31  2  0  0  0  0
 32 33  1  0  0  0  0
 32 34  2  0  0  0  0
 34 35  1  0  0  0  0
 35 36  2  0  0  0  0
 35 37  2  0  0  0  0
 35 38  1  0  0  0  0
 39 40  1  0  0  0  0
 40 41  1  0  0  0  0
 41 42  1  0  0  0  0
  1 43  1  0  0  0  0
  1 44  1  0  0  0  0
  1 45  1  0  0  0  0
  4 46  1  0  0  0  0
  5 47  1  0  0  0  0
 11 48  1  0  0  0  0
 13 49  1  0  0  0  0
 14 50  1  0  0  0  0
 18 51  1  0  0  0  0
 19 52  1  0  0  0  0
 20 53  1  0  0  0  0
 22 54  1  0  0  0  0
 27 55  1  0  0  0  0
 27 56  1  0  0  0  0
 28 57  1  0  0  0  0
 30 58  1  0  0  0  0
 31 59  1  0  0  0  0
 33 60  1  0  0  0  0
 38 61  1  0  0  0  0
 38 62  1  0  0  0  0
 38 63  1  0  0  0  0
 39 64  1  0  0  0  0
 39 65  1  0  0  0  0
 42 66  1  0  0  0  0
 42 67  1  0  0  0  0
 42 68  1  0  0  0  0
M  END
> <IC50[nM]>
2.2

$$$$
CHEMBL3265000
  -OEChem-05192314333D
 Structure written by MMmdl.
 68 72  0     0  0  0  0  0  0999 V2000
   -4.2555   -3.1029   13.5707 C   0  0  0  0  0  0  0  0  0  0  0  0
   -3.8740   -2.3535   14.7166 O   0  0  0  0  0  0  0  0  0  0  0  0
   -2.5261   -2.1057   14.8053 C   0  0  0  0  0  0  0  0  0  0  0  0
   -1.7497   -2.8673   15.6804 C   0  0  0  0  0  0  0  0  0  0  0  0
   -0.3863   -2.6106   15.8150 C   0  0  0  0  0  0  0  0  0  0  0  0
    0.2220   -1.5829   15.0890 C   0  0  0  0  0  0  0  0  0  0  0  0
    1.5930   -1.3491   15.3060 N   0  0  0  0  0  0  0  0  0  0  0  0
    2.5452   -0.4689   14.7536 C   0  0  0  0  0  0  0  0  0  0  0  0
    2.2178    0.3551   13.7190 N   0  0  0  0  0  0  0  0  0  0  0  0
    3.1227    1.2406   13.2181 C   0  0  0  0  0  0  0  0  0  0  0  0
    4.4207    1.3039   13.7175 C   0  0  0  0  0  0  0  0  0  0  0  0
    4.7482    0.4921   14.7654 N   0  0  0  0  0  0  0  0  0  0  0  0
    5.8898    0.3836   15.5035 C   0  0  0  0  0  0  0  0  0  0  0  0
    5.5715   -0.5089   16.5177 C   0  0  0  0  0  0  0  0  0  0  0  0
    4.3818   -1.0543   16.3920 N   0  0  0  0  0  0  0  0  0  0  0  0
    3.8330   -0.4170   15.3252 C   0  0  0  0  0  0  0  0  0  0  0  0
    2.6564    2.1560   12.1340 C   0  0  0  0  0  0  0  0  0  0  0  0
    3.5566    2.6280   11.1666 C   0  0  0  0  0  0  0  0  0  0  0  0
    3.1294    3.4499   10.1277 C   0  0  0  0  0  0  0  0  0  0  0  0
    1.7879    3.8078   10.0318 C   0  0  0  0  0  0  0  0  0  0  0  0
    0.8660    3.3707   10.9895 C   0  0  0  0  0  0  0  0  0  0  0  0
    1.3140    2.5576   12.0419 C   0  0  0  0  0  0  0  0  0  0  0  0
   -0.5783    3.7648   10.8956 C   0  0  0  0  0  0  0  0  0  0  0  0
   -1.2780    3.6594    9.8925 O   0  0  0  0  0  0  0  0  0  0  0  0
   -1.0343    4.2553   12.0485 N   0  0  0  0  0  0  0  0  0  0  0  0
   -2.3943    4.7285   12.2897 C   0  0  0  0  0  0  0  0  0  0  0  0
   -2.6544    5.5820   13.3553 C   0  0  0  0  0  0  0  0  0  0  0  0
   -3.9490    6.0325   13.5849 C   0  0  0  0  0  0  0  0  0  0  0  0
   -4.9835    5.6294   12.7489 C   0  0  0  0  0  0  0  0  0  0  0  0
   -4.7235    4.7759   11.6833 C   0  0  0  0  0  0  0  0  0  0  0  0
   -3.4289    4.3254   11.4537 C   0  0  0  0  0  0  0  0  0  0  0  0
   -6.3808    6.1155   12.9967 C   0  0  0  0  0  0  0  0  0  0  0  0
   -7.3335    5.7936   12.2928 O   0  0  0  0  0  0  0  0  0  0  0  0
   -6.3969    6.9226   14.0705 N   0  0  0  0  0  0  0  0  0  0  0  0
   -7.9316    7.5992   14.5333 S   0  0  0  0  0  0  0  0  0  0  0  0
   -8.7871    6.4947   14.9809 O   0  0  0  0  0  0  0  0  0  0  0  0
   -8.3522    8.5161   13.4681 O   0  0  0  0  0  0  0  0  0  0  0  0
   -7.5285    8.5816   15.9619 C   0  0  0  0  0  0  0  0  0  0  0  0
   -0.5664   -0.8256   14.2115 C   0  0  0  0  0  0  0  0  0  0  0  0
   -1.9389   -1.0760   14.0580 C   0  0  0  0  0  0  0  0  0  0  0  0
   -2.6991   -0.3052   13.2021 O   0  0  0  0  0  0  0  0  0  0  0  0
   -2.0020    0.6746   12.5251 C   0  0  0  0  0  0  0  0  0  0  0  0
   -5.3448   -3.2555   13.5777 H   0  0  0  0  0  0  0  0  0  0  0  0
   -3.9681   -2.5543   12.6616 H   0  0  0  0  0  0  0  0  0  0  0  0
   -3.7486   -4.0790   13.5856 H   0  0  0  0  0  0  0  0  0  0  0  0
   -2.2073   -3.6587   16.2555 H   0  0  0  0  0  0  0  0  0  0  0  0
    0.2066   -3.2125   16.4877 H   0  0  0  0  0  0  0  0  0  0  0  0
    1.9791   -1.9422   16.0125 H   0  0  0  0  0  0  0  0  0  0  0  0
    5.1484    1.9765   13.2880 H   0  0  0  0  0  0  0  0  0  0  0  0
    6.8331    0.8820   15.3359 H   0  0  0  0  0  0  0  0  0  0  0  0
    6.2400   -0.7347   17.3354 H   0  0  0  0  0  0  0  0  0  0  0  0
    4.5981    2.3490   11.2292 H   0  0  0  0  0  0  0  0  0  0  0  0
    3.8383    3.8096    9.3966 H   0  0  0  0  0  0  0  0  0  0  0  0
    1.4559    4.4276    9.2120 H   0  0  0  0  0  0  0  0  0  0  0  0
    0.6121    2.2342   12.7963 H   0  0  0  0  0  0  0  0  0  0  0  0
   -1.8505    5.8952   14.0050 H   0  0  0  0  0  0  0  0  0  0  0  0
   -4.1511    6.6958   14.4129 H   0  0  0  0  0  0  0  0  0  0  0  0
   -5.5274    4.4627   11.0337 H   0  0  0  0  0  0  0  0  0  0  0  0
   -3.2268    3.6621   10.6257 H   0  0  0  0  0  0  0  0  0  0  0  0
   -8.1235    6.2080   12.6194 H   0  0  0  0  0  0  0  0  0  0  0  0
   -6.0536    6.3958   14.8480 H   0  0  0  0  0  0  0  0  0  0  0  0
   -8.4399    9.0642   16.3447 H   0  0  0  0  0  0  0  0  0  0  0  0
   -7.1006    7.9352   16.7423 H   0  0  0  0  0  0  0  0  0  0  0  0
   -6.7956    9.3525   15.6817 H   0  0  0  0  0  0  0  0  0  0  0  0
   -0.1075   -0.0318   13.6408 H   0  0  0  0  0  0  0  0  0  0  0  0
   -2.6909    1.2310   11.8726 H   0  0  0  0  0  0  0  0  0  0  0  0
   -1.5443    1.3652   13.2487 H   0  0  0  0  0  0  0  0  0  0  0  0
   -1.2146    0.2087   11.9144 H   0  0  0  0  0  0  0  0  0  0  0  0
  1  2  1  0  0  0  0
  2  3  1  0  0  0  0
  3  4  2  0  0  0  0
  3 40  1  0  0  0  0
  4  5  1  0  0  0  0
  5  6  2  0  0  0  0
  6  7  1  0  0  0  0
  6 39  1  0  0  0  0
  7  8  1  0  0  0  0
  8  9  2  0  0  0  0
  8 16  1  0  0  0  0
  9 10  1  0  0  0  0
 10 11  2  0  0  0  0
 10 17  1  0  0  0  0
 11 12  1  0  0  0  0
 12 13  1  0  0  0  0
 12 16  1  0  0  0  0
 13 14  2  0  0  0  0
 14 15  1  0  0  0  0
 15 16  2  0  0  0  0
 17 18  2  0  0  0  0
 17 22  1  0  0  0  0
 18 19  1  0  0  0  0
 19 20  2  0  0  0  0
 20 21  1  0  0  0  0
 21 22  2  0  0  0  0
 21 23  1  0  0  0  0
 23 24  2  0  0  0  0
 23 25  1  0  0  0  0
 25 26  2  0  0  0  0
 26 27  1  0  0  0  0
 26 31  1  0  0  0  0
 27 28  2  0  0  0  0
 28 29  1  0  0  0  0
 29 30  1  0  0  0  0
 29 32  2  0  0  0  0
 30 31  2  0  0  0  0
 32 33  1  0  0  0  0
 32 34  1  0  0  0  0
 34 35  1  0  0  0  0
 35 36  2  0  0  0  0
 35 37  2  0  0  0  0
 35 38  1  0  0  0  0
 39 40  2  0  0  0  0
 40 41  1  0  0  0  0
 41 42  1  0  0  0  0
  1 43  1  0  0  0  0
  1 44  1  0  0  0  0
  1 45  1  0  0  0  0
  4 46  1  0  0  0  0
  5 47  1  0  0  0  0
  7 48  1  0  0  0  0
 11 49  1  0  0  0  0
 13 50  1  0  0  0  0
 14 51  1  0  0  0  0
 18 52  1  0  0  0  0
 19 53  1  0  0  0  0
 20 54  1  0  0  0  0
 22 55  1  0  0  0  0
 27 56  1  0  0  0  0
 28 57  1  0  0  0  0
 30 58  1  0  0  0  0
 31 59  1  0  0  0  0
 33 60  1  0  0  0  0
 34 61  1  0  0  0  0
 38 62  1  0  0  0  0
 38 63  1  0  0  0  0
 38 64  1  0  0  0  0
 39 65  1  0  0  0  0
 42 66  1  0  0  0  0
 42 67  1  0  0  0  0
 42 68  1  0  0  0  0
M  END
> <IC50[nM]>
2.2

$$$$
CHEMBL3265000
  -OEChem-05192314333D
 Structure written by MMmdl.
 68 72  0     0  0  0  0  0  0999 V2000
   -4.2555   -3.1029   13.5707 C   0  0  0  0  0  0  0  0  0  0  0  0
   -3.8740   -2.3535   14.7166 O   0  0  0  0  0  0  0  0  0  0  0  0
   -2.5261   -2.1057   14.8053 C   0  0  0  0  0  0  0  0  0  0  0  0
   -1.7497   -2.8673   15.6804 C   0  0  0  0  0  0  0  0  0  0  0  0
   -0.3863   -2.6106   15.8150 C   0  0  0  0  0  0  0  0  0  0  0  0
    0.2220   -1.5829   15.0890 C   0  0  0  0  0  0  0  0  0  0  0  0
    1.5930   -1.3491   15.3060 N   0  0  0  0  0  0  0  0  0  0  0  0
    2.5452   -0.4689   14.7536 C   0  0  0  0  0  0  0  0  0  0  0  0
    2.2178    0.3551   13.7190 N   0  0  0  0  0  0  0  0  0  0  0  0
    3.1227    1.2406   13.2181 C   0  0  0  0  0  0  0  0  0  0  0  0
    4.4207    1.3039   13.7175 C   0  0  0  0  0  0  0  0  0  0  0  0
    4.7482    0.4921   14.7654 N   0  0  0  0  0  0  0  0  0  0  0  0
    5.8898    0.3836   15.5035 C   0  0  0  0  0  0  0  0  0  0  0  0
    5.5715   -0.5089   16.5177 C   0  0  0  0  0  0  0  0  0  0  0  0
    4.3818   -1.0543   16.3920 N   0  0  0  0  0  0  0  0  0  0  0  0
    3.8330   -0.4170   15.3252 C   0  0  0  0  0  0  0  0  0  0  0  0
    2.6564    2.1560   12.1340 C   0  0  0  0  0  0  0  0  0  0  0  0
    3.5566    2.6280   11.1666 C   0  0  0  0  0  0  0  0  0  0  0  0
    3.1294    3.4499   10.1277 C   0  0  0  0  0  0  0  0  0  0  0  0
    1.7879    3.8078   10.0318 C   0  0  0  0  0  0  0  0  0  0  0  0
    0.8660    3.3707   10.9895 C   0  0  0  0  0  0  0  0  0  0  0  0
    1.3140    2.5576   12.0419 C   0  0  0  0  0  0  0  0  0  0  0  0
   -0.5783    3.7648   10.8956 C   0  0  0  0  0  0  0  0  0  0  0  0
   -1.2780    3.6594    9.8925 O   0  0  0  0  0  0  0  0  0  0  0  0
   -1.0343    4.2553   12.0485 N   0  0  0  0  0  0  0  0  0  0  0  0
   -2.3943    4.7285   12.2897 C   0  0  0  0  0  0  0  0  0  0  0  0
   -2.6544    5.5820   13.3553 C   0  0  0  0  0  0  0  0  0  0  0  0
   -3.9490    6.0325   13.5849 C   0  0  0  0  0  0  0  0  0  0  0  0
   -4.9835    5.6294   12.7489 C   0  0  0  0  0  0  0  0  0  0  0  0
   -4.7235    4.7759   11.6833 C   0  0  0  0  0  0  0  0  0  0  0  0
   -3.4289    4.3254   11.4537 C   0  0  0  0  0  0  0  0  0  0  0  0
   -6.3808    6.1155   12.9967 C   0  0  0  0  0  0  0  0  0  0  0  0
   -7.3335    5.7936   12.2928 O   0  0  0  0  0  0  0  0  0  0  0  0
   -6.3969    6.9226   14.0705 N   0  0  0  0  0  0  0  0  0  0  0  0
   -7.9316    7.5992   14.5333 S   0  0  0  0  0  0  0  0  0  0  0  0
   -8.7871    6.4947   14.9809 O   0  0  0  0  0  0  0  0  0  0  0  0
   -8.3522    8.5161   13.4681 O   0  0  0  0  0  0  0  0  0  0  0  0
   -7.5285    8.5816   15.9619 C   0  0  0  0  0  0  0  0  0  0  0  0
   -0.5664   -0.8256   14.2115 C   0  0  0  0  0  0  0  0  0  0  0  0
   -1.9389   -1.0760   14.0580 C   0  0  0  0  0  0  0  0  0  0  0  0
   -2.6991   -0.3052   13.2021 O   0  0  0  0  0  0  0  0  0  0  0  0
   -2.0020    0.6746   12.5251 C   0  0  0  0  0  0  0  0  0  0  0  0
   -5.3448   -3.2555   13.5777 H   0  0  0  0  0  0  0  0  0  0  0  0
   -3.9681   -2.5543   12.6616 H   0  0  0  0  0  0  0  0  0  0  0  0
   -3.7486   -4.0790   13.5856 H   0  0  0  0  0  0  0  0  0  0  0  0
   -2.2073   -3.6587   16.2555 H   0  0  0  0  0  0  0  0  0  0  0  0
    0.2066   -3.2125   16.4877 H   0  0  0  0  0  0  0  0  0  0  0  0
    1.3010    0.3089   13.3224 H   0  0  0  0  0  0  0  0  0  0  0  0
    5.1484    1.9765   13.2880 H   0  0  0  0  0  0  0  0  0  0  0  0
    6.8331    0.8820   15.3359 H   0  0  0  0  0  0  0  0  0  0  0  0
    6.2400   -0.7347   17.3354 H   0  0  0  0  0  0  0  0  0  0  0  0
    4.5981    2.3490   11.2292 H   0  0  0  0  0  0  0  0  0  0  0  0
    3.8383    3.8096    9.3966 H   0  0  0  0  0  0  0  0  0  0  0  0
    1.4559    4.4276    9.2120 H   0  0  0  0  0  0  0  0  0  0  0  0
    0.6121    2.2342   12.7963 H   0  0  0  0  0  0  0  0  0  0  0  0
   -1.8505    5.8952   14.0050 H   0  0  0  0  0  0  0  0  0  0  0  0
   -4.1511    6.6958   14.4129 H   0  0  0  0  0  0  0  0  0  0  0  0
   -5.5274    4.4627   11.0337 H   0  0  0  0  0  0  0  0  0  0  0  0
   -3.2268    3.6621   10.6257 H   0  0  0  0  0  0  0  0  0  0  0  0
   -8.1235    6.2080   12.6194 H   0  0  0  0  0  0  0  0  0  0  0  0
   -6.0536    6.3958   14.8480 H   0  0  0  0  0  0  0  0  0  0  0  0
   -8.4399    9.0642   16.3447 H   0  0  0  0  0  0  0  0  0  0  0  0
   -7.1006    7.9352   16.7423 H   0  0  0  0  0  0  0  0  0  0  0  0
   -6.7956    9.3525   15.6817 H   0  0  0  0  0  0  0  0  0  0  0  0
   -0.1075   -0.0318   13.6408 H   0  0  0  0  0  0  0  0  0  0  0  0
   -2.6909    1.2310   11.8726 H   0  0  0  0  0  0  0  0  0  0  0  0
   -1.5443    1.3652   13.2487 H   0  0  0  0  0  0  0  0  0  0  0  0
   -1.2146    0.2087   11.9144 H   0  0  0  0  0  0  0  0  0  0  0  0
  1  2  1  0  0  0  0
  2  3  1  0  0  0  0
  3  4  2  0  0  0  0
  3 40  1  0  0  0  0
  4  5  1  0  0  0  0
  5  6  2  0  0  0  0
  6  7  1  0  0  0  0
  6 39  1  0  0  0  0
  7  8  2  0  0  0  0
  8  9  1  0  0  0  0
  8 16  1  0  0  0  0
  9 10  1  0  0  0  0
 10 11  2  0  0  0  0
 10 17  1  0  0  0  0
 11 12  1  0  0  0  0
 12 13  1  0  0  0  0
 12 16  1  0  0  0  0
 13 14  2  0  0  0  0
 14 15  1  0  0  0  0
 15 16  2  0  0  0  0
 17 18  2  0  0  0  0
 17 22  1  0  0  0  0
 18 19  1  0  0  0  0
 19 20  2  0  0  0  0
 20 21  1  0  0  0  0
 21 22  2  0  0  0  0
 21 23  1  0  0  0  0
 23 24  2  0  0  0  0
 23 25  1  0  0  0  0
 25 26  2  0  0  0  0
 26 27  1  0  0  0  0
 26 31  1  0  0  0  0
 27 28  2  0  0  0  0
 28 29  1  0  0  0  0
 29 30  1  0  0  0  0
 29 32  2  0  0  0  0
 30 31  2  0  0  0  0
 32 33  1  0  0  0  0
 32 34  1  0  0  0  0
 34 35  1  0  0  0  0
 35 36  2  0  0  0  0
 35 37  2  0  0  0  0
 35 38  1  0  0  0  0
 39 40  2  0  0  0  0
 40 41  1  0  0  0  0
 41 42  1  0  0  0  0
  1 43  1  0  0  0  0
  1 44  1  0  0  0  0
  1 45  1  0  0  0  0
  4 46  1  0  0  0  0
  5 47  1  0  0  0  0
  9 48  1  0  0  0  0
 11 49  1  0  0  0  0
 13 50  1  0  0  0  0
 14 51  1  0  0  0  0
 18 52  1  0  0  0  0
 19 53  1  0  0  0  0
 20 54  1  0  0  0  0
 22 55  1  0  0  0  0
 27 56  1  0  0  0  0
 28 57  1  0  0  0  0
 30 58  1  0  0  0  0
 31 59  1  0  0  0  0
 33 60  1  0  0  0  0
 34 61  1  0  0  0  0
 38 62  1  0  0  0  0
 38 63  1  0  0  0  0
 38 64  1  0  0  0  0
 39 65  1  0  0  0  0
 42 66  1  0  0  0  0
 42 67  1  0  0  0  0
 42 68  1  0  0  0  0
M  END
> <IC50[nM]>
2.2

$$$$
CHEMBL3265000
  -OEChem-05192314333D
 Structure written by MMmdl.
 68 72  0     0  0  0  0  0  0999 V2000
   -4.2555   -3.1029   13.5707 C   0  0  0  0  0  0  0  0  0  0  0  0
   -3.8740   -2.3535   14.7166 O   0  0  0  0  0  0  0  0  0  0  0  0
   -2.5261   -2.1057   14.8053 C   0  0  0  0  0  0  0  0  0  0  0  0
   -1.7497   -2.8673   15.6804 C   0  0  0  0  0  0  0  0  0  0  0  0
   -0.3863   -2.6106   15.8150 C   0  0  0  0  0  0  0  0  0  0  0  0
    0.2220   -1.5829   15.0890 C   0  0  0  0  0  0  0  0  0  0  0  0
    1.5930   -1.3491   15.3060 N   0  0  0  0  0  0  0  0  0  0  0  0
    2.5452   -0.4689   14.7536 C   0  0  0  0  0  0  0  0  0  0  0  0
    2.2178    0.3551   13.7190 N   0  0  0  0  0  0  0  0  0  0  0  0
    3.1227    1.2406   13.2181 C   0  0  0  0  0  0  0  0  0  0  0  0
    4.4207    1.3039   13.7175 C   0  0  0  0  0  0  0  0  0  0  0  0
    4.7482    0.4921   14.7654 N   0  0  0  0  0  0  0  0  0  0  0  0
    5.8898    0.3836   15.5035 C   0  0  0  0  0  0  0  0  0  0  0  0
    5.5715   -0.5089   16.5177 C   0  0  0  0  0  0  0  0  0  0  0  0
    4.3818   -1.0543   16.3920 N   0  0  0  0  0  0  0  0  0  0  0  0
    3.8330   -0.4170   15.3252 C   0  0  0  0  0  0  0  0  0  0  0  0
    2.6564    2.1560   12.1340 C   0  0  0  0  0  0  0  0  0  0  0  0
    3.5566    2.6280   11.1666 C   0  0  0  0  0  0  0  0  0  0  0  0
    3.1294    3.4499   10.1277 C   0  0  0  0  0  0  0  0  0  0  0  0
    1.7879    3.8078   10.0318 C   0  0  0  0  0  0  0  0  0  0  0  0
    0.8660    3.3707   10.9895 C   0  0  0  0  0  0  0  0  0  0  0  0
    1.3140    2.5576   12.0419 C   0  0  0  0  0  0  0  0  0  0  0  0
   -0.5783    3.7648   10.8956 C   0  0  0  0  0  0  0  0  0  0  0  0
   -1.2780    3.6594    9.8925 O   0  0  0  0  0  0  0  0  0  0  0  0
   -1.0343    4.2553   12.0485 N   0  0  0  0  0  0  0  0  0  0  0  0
   -2.3943    4.7285   12.2897 C   0  0  0  0  0  0  0  0  0  0  0  0
   -2.6544    5.5820   13.3553 C   0  0  0  0  0  0  0  0  0  0  0  0
   -3.9490    6.0325   13.5849 C   0  0  0  0  0  0  0  0  0  0  0  0
   -4.9835    5.6294   12.7489 C   0  0  0  0  0  0  0  0  0  0  0  0
   -4.7235    4.7759   11.6833 C   0  0  0  0  0  0  0  0  0  0  0  0
   -3.4289    4.3254   11.4537 C   0  0  0  0  0  0  0  0  0  0  0  0
   -6.3808    6.1155   12.9967 C   0  0  0  0  0  0  0  0  0  0  0  0
   -7.3335    5.7936   12.2928 O   0  0  0  0  0  0  0  0  0  0  0  0
   -6.3969    6.9226   14.0705 N   0  0  0  0  0  0  0  0  0  0  0  0
   -7.9316    7.5992   14.5333 S   0  0  0  0  0  0  0  0  0  0  0  0
   -8.7871    6.4947   14.9809 O   0  0  0  0  0  0  0  0  0  0  0  0
   -8.3522    8.5161   13.4681 O   0  0  0  0  0  0  0  0  0  0  0  0
   -7.5285    8.5816   15.9619 C   0  0  0  0  0  0  0  0  0  0  0  0
   -0.5664   -0.8256   14.2115 C   0  0  0  0  0  0  0  0  0  0  0  0
   -1.9389   -1.0760   14.0580 C   0  0  0  0  0  0  0  0  0  0  0  0
   -2.6991   -0.3052   13.2021 O   0  0  0  0  0  0  0  0  0  0  0  0
   -2.0020    0.6746   12.5251 C   0  0  0  0  0  0  0  0  0  0  0  0
   -5.3448   -3.2555   13.5777 H   0  0  0  0  0  0  0  0  0  0  0  0
   -3.9681   -2.5543   12.6616 H   0  0  0  0  0  0  0  0  0  0  0  0
   -3.7486   -4.0790   13.5856 H   0  0  0  0  0  0  0  0  0  0  0  0
   -2.2073   -3.6587   16.2555 H   0  0  0  0  0  0  0  0  0  0  0  0
    0.2066   -3.2125   16.4877 H   0  0  0  0  0  0  0  0  0  0  0  0
    5.1014    1.0581   12.8891 H   0  0  0  0  0  0  0  0  0  0  0  0
    4.5958    2.3407   14.0407 H   0  0  0  0  0  0  0  0  0  0  0  0
    6.8331    0.8820   15.3359 H   0  0  0  0  0  0  0  0  0  0  0  0
    6.2400   -0.7347   17.3354 H   0  0  0  0  0  0  0  0  0  0  0  0
    4.5981    2.3490   11.2292 H   0  0  0  0  0  0  0  0  0  0  0  0
    3.8383    3.8096    9.3966 H   0  0  0  0  0  0  0  0  0  0  0  0
    1.4559    4.4276    9.2120 H   0  0  0  0  0  0  0  0  0  0  0  0
    0.6121    2.2342   12.7963 H   0  0  0  0  0  0  0  0  0  0  0  0
   -1.8505    5.8952   14.0050 H   0  0  0  0  0  0  0  0  0  0  0  0
   -4.1511    6.6958   14.4129 H   0  0  0  0  0  0  0  0  0  0  0  0
   -5.5274    4.4627   11.0337 H   0  0  0  0  0  0  0  0  0  0  0  0
   -3.2268    3.6621   10.6257 H   0  0  0  0  0  0  0  0  0  0  0  0
   -8.1235    6.2080   12.6194 H   0  0  0  0  0  0  0  0  0  0  0  0
   -6.0536    6.3958   14.8480 H   0  0  0  0  0  0  0  0  0  0  0  0
   -8.4399    9.0642   16.3447 H   0  0  0  0  0  0  0  0  0  0  0  0
   -7.1006    7.9352   16.7423 H   0  0  0  0  0  0  0  0  0  0  0  0
   -6.7956    9.3525   15.6817 H   0  0  0  0  0  0  0  0  0  0  0  0
   -0.1075   -0.0318   13.6408 H   0  0  0  0  0  0  0  0  0  0  0  0
   -2.6909    1.2310   11.8726 H   0  0  0  0  0  0  0  0  0  0  0  0
   -1.5443    1.3652   13.2487 H   0  0  0  0  0  0  0  0  0  0  0  0
   -1.2146    0.2087   11.9144 H   0  0  0  0  0  0  0  0  0  0  0  0
  1  2  1  0  0  0  0
  2  3  1  0  0  0  0
  3  4  2  0  0  0  0
  3 40  1  0  0  0  0
  4  5  1  0  0  0  0
  5  6  2  0  0  0  0
  6  7  1  0  0  0  0
  6 39  1  0  0  0  0
  7  8  2  0  0  0  0
  8  9  1  0  0  0  0
  8 16  1  0  0  0  0
  9 10  2  0  0  0  0
 10 11  1  0  0  0  0
 10 17  1  0  0  0  0
 11 12  1  0  0  0  0
 12 13  1  0  0  0  0
 12 16  1  0  0  0  0
 13 14  2  0  0  0  0
 14 15  1  0  0  0  0
 15 16  2  0  0  0  0
 17 18  2  0  0  0  0
 17 22  1  0  0  0  0
 18 19  1  0  0  0  0
 19 20  2  0  0  0  0
 20 21  1  0  0  0  0
 21 22  2  0  0  0  0
 21 23  1  0  0  0  0
 23 24  2  0  0  0  0
 23 25  1  0  0  0  0
 25 26  2  0  0  0  0
 26 27  1  0  0  0  0
 26 31  1  0  0  0  0
 27 28  2  0  0  0  0
 28 29  1  0  0  0  0
 29 30  1  0  0  0  0
 29 32  2  0  0  0  0
 30 31  2  0  0  0  0
 32 33  1  0  0  0  0
 32 34  1  0  0  0  0
 34 35  1  0  0  0  0
 35 36  2  0  0  0  0
 35 37  2  0  0  0  0
 35 38  1  0  0  0  0
 39 40  2  0  0  0  0
 40 41  1  0  0  0  0
 41 42  1  0  0  0  0
  1 43  1  0  0  0  0
  1 44  1  0  0  0  0
  1 45  1  0  0  0  0
  4 46  1  0  0  0  0
  5 47  1  0  0  0  0
 11 48  1  0  0  0  0
 11 49  1  0  0  0  0
 13 50  1  0  0  0  0
 14 51  1  0  0  0  0
 18 52  1  0  0  0  0
 19 53  1  0  0  0  0
 20 54  1  0  0  0  0
 22 55  1  0  0  0  0
 27 56  1  0  0  0  0
 28 57  1  0  0  0  0
 30 58  1  0  0  0  0
 31 59  1  0  0  0  0
 33 60  1  0  0  0  0
 34 61  1  0  0  0  0
 38 62  1  0  0  0  0
 38 63  1  0  0  0  0
 38 64  1  0  0  0  0
 39 65  1  0  0  0  0
 42 66  1  0  0  0  0
 42 67  1  0  0  0  0
 42 68  1  0  0  0  0
M  END
> <IC50[nM]>
2.2

$$$$
CHEMBL3265000
  -OEChem-05192314333D
 Structure written by MMmdl.
 68 72  0     1  0  0  0  0  0999 V2000
   -4.2555   -3.1029   13.5707 C   0  0  0  0  0  0  0  0  0  0  0  0
   -3.8740   -2.3535   14.7166 O   0  0  0  0  0  0  0  0  0  0  0  0
   -2.5261   -2.1057   14.8053 C   0  0  3  0  0  0  0  0  0  0  0  0
   -1.7497   -2.8673   15.6804 C   0  0  0  0  0  0  0  0  0  0  0  0
   -0.3863   -2.6106   15.8150 C   0  0  0  0  0  0  0  0  0  0  0  0
    0.2220   -1.5829   15.0890 C   0  0  0  0  0  0  0  0  0  0  0  0
    1.5930   -1.3491   15.3060 N   0  0  0  0  0  0  0  0  0  0  0  0
    2.5452   -0.4689   14.7536 C   0  0  0  0  0  0  0  0  0  0  0  0
    2.2178    0.3551   13.7190 N   0  0  0  0  0  0  0  0  0  0  0  0
    3.1227    1.2406   13.2181 C   0  0  0  0  0  0  0  0  0  0  0  0
    4.4207    1.3039   13.7175 C   0  0  0  0  0  0  0  0  0  0  0  0
    4.7482    0.4921   14.7654 N   0  0  0  0  0  0  0  0  0  0  0  0
    5.8898    0.3836   15.5035 C   0  0  0  0  0  0  0  0  0  0  0  0
    5.5715   -0.5089   16.5177 C   0  0  0  0  0  0  0  0  0  0  0  0
    4.3818   -1.0543   16.3920 N   0  0  0  0  0  0  0  0  0  0  0  0
    3.8330   -0.4170   15.3252 C   0  0  0  0  0  0  0  0  0  0  0  0
    2.6564    2.1560   12.1340 C   0  0  0  0  0  0  0  0  0  0  0  0
    3.5566    2.6280   11.1666 C   0  0  0  0  0  0  0  0  0  0  0  0
    3.1294    3.4499   10.1277 C   0  0  0  0  0  0  0  0  0  0  0  0
    1.7879    3.8078   10.0318 C   0  0  0  0  0  0  0  0  0  0  0  0
    0.8660    3.3707   10.9895 C   0  0  0  0  0  0  0  0  0  0  0  0
    1.3140    2.5576   12.0419 C   0  0  0  0  0  0  0  0  0  0  0  0
   -0.5783    3.7648   10.8956 C   0  0  0  0  0  0  0  0  0  0  0  0
   -1.2780    3.6594    9.8925 O   0  0  0  0  0  0  0  0  0  0  0  0
   -1.0343    4.2553   12.0485 N   0  0  0  0  0  0  0  0  0  0  0  0
   -2.3943    4.7285   12.2897 C   0  0  0  0  0  0  0  0  0  0  0  0
   -2.6544    5.5820   13.3553 C   0  0  0  0  0  0  0  0  0  0  0  0
   -3.9490    6.0325   13.5849 C   0  0  0  0  0  0  0  0  0  0  0  0
   -4.9835    5.6294   12.7489 C   0  0  0  0  0  0  0  0  0  0  0  0
   -4.7235    4.7759   11.6833 C   0  0  0  0  0  0  0  0  0  0  0  0
   -3.4289    4.3254   11.4537 C   0  0  0  0  0  0  0  0  0  0  0  0
   -6.3808    6.1155   12.9967 C   0  0  0  0  0  0  0  0  0  0  0  0
   -7.3335    5.7936   12.2928 O   0  0  0  0  0  0  0  0  0  0  0  0
   -6.3969    6.9226   14.0705 N   0  0  0  0  0  0  0  0  0  0  0  0
   -7.9316    7.5992   14.5333 S   0  0  0  0  0  0  0  0  0  0  0  0
   -8.7871    6.4947   14.9809 O   0  0  0  0  0  0  0  0  0  0  0  0
   -8.3522    8.5161   13.4681 O   0  0  0  0  0  0  0  0  0  0  0  0
   -7.5285    8.5816   15.9619 C   0  0  0  0  0  0  0  0  0  0  0  0
   -0.5664   -0.8256   14.2115 C   0  0  0  0  0  0  0  0  0  0  0  0
   -1.9389   -1.0760   14.0580 C   0  0  0  0  0  0  0  0  0  0  0  0
   -2.6991   -0.3052   13.2021 O   0  0  0  0  0  0  0  0  0  0  0  0
   -2.0020    0.6746   12.5251 C   0  0  0  0  0  0  0  0  0  0  0  0
   -5.3448   -3.2555   13.5777 H   0  0  0  0  0  0  0  0  0  0  0  0
   -3.9681   -2.5543   12.6616 H   0  0  0  0  0  0  0  0  0  0  0  0
   -3.7486   -4.0790   13.5856 H   0  0  0  0  0  0  0  0  0  0  0  0
   -2.3305   -2.8209   13.9928 H   0  0  0  0  0  0  0  0  0  0  0  0
   -2.2073   -3.6587   16.2555 H   0  0  0  0  0  0  0  0  0  0  0  0
    0.2066   -3.2125   16.4877 H   0  0  0  0  0  0  0  0  0  0  0  0
    5.1484    1.9765   13.2880 H   0  0  0  0  0  0  0  0  0  0  0  0
    6.8331    0.8820   15.3359 H   0  0  0  0  0  0  0  0  0  0  0  0
    6.2400   -0.7347   17.3354 H   0  0  0  0  0  0  0  0  0  0  0  0
    4.5981    2.3490   11.2292 H   0  0  0  0  0  0  0  0  0  0  0  0
    3.8383    3.8096    9.3966 H   0  0  0  0  0  0  0  0  0  0  0  0
    1.4559    4.4276    9.2120 H   0  0  0  0  0  0  0  0  0  0  0  0
    0.6121    2.2342   12.7963 H   0  0  0  0  0  0  0  0  0  0  0  0
   -1.8505    5.8952   14.0050 H   0  0  0  0  0  0  0  0  0  0  0  0
   -4.1511    6.6958   14.4129 H   0  0  0  0  0  0  0  0  0  0  0  0
   -5.5274    4.4627   11.0337 H   0  0  0  0  0  0  0  0  0  0  0  0
   -3.2268    3.6621   10.6257 H   0  0  0  0  0  0  0  0  0  0  0  0
   -8.1235    6.2080   12.6194 H   0  0  0  0  0  0  0  0  0  0  0  0
   -6.0536    6.3958   14.8480 H   0  0  0  0  0  0  0  0  0  0  0  0
   -8.4399    9.0642   16.3447 H   0  0  0  0  0  0  0  0  0  0  0  0
   -7.1006    7.9352   16.7423 H   0  0  0  0  0  0  0  0  0  0  0  0
   -6.7956    9.3525   15.6817 H   0  0  0  0  0  0  0  0  0  0  0  0
   -0.1075   -0.0318   13.6408 H   0  0  0  0  0  0  0  0  0  0  0  0
   -2.6909    1.2310   11.8726 H   0  0  0  0  0  0  0  0  0  0  0  0
   -1.5443    1.3652   13.2487 H   0  0  0  0  0  0  0  0  0  0  0  0
   -1.2146    0.2087   11.9144 H   0  0  0  0  0  0  0  0  0  0  0  0
  1  2  1  0  0  0  0
  2  3  1  0  0  0  0
  3  4  1  0  0  0  0
  3 40  1  0  0  0  0
  4  5  2  0  0  0  0
  5  6  1  0  0  0  0
  6  7  2  0  0  0  0
  6 39  1  0  0  0  0
  7  8  1  0  0  0  0
  8  9  2  0  0  0  0
  8 16  1  0  0  0  0
  9 10  1  0  0  0  0
 10 11  2  0  0  0  0
 10 17  1  0  0  0  0
 11 12  1  0  0  0  0
 12 13  1  0  0  0  0
 12 16  1  0  0  0  0
 13 14  2  0  0  0  0
 14 15  1  0  0  0  0
 15 16  2  0  0  0  0
 17 18  2  0  0  0  0
 17 22  1  0  0  0  0
 18 19  1  0  0  0  0
 19 20  2  0  0  0  0
 20 21  1  0  0  0  0
 21 22  2  0  0  0  0
 21 23  1  0  0  0  0
 23 24  2  0  0  0  0
 23 25  1  0  0  0  0
 25 26  2  0  0  0  0
 26 27  1  0  0  0  0
 26 31  1  0  0  0  0
 27 28  2  0  0  0  0
 28 29  1  0  0  0  0
 29 30  1  0  0  0  0
 29 32  2  0  0  0  0
 30 31  2  0  0  0  0
 32 33  1  0  0  0  0
 32 34  1  0  0  0  0
 34 35  1  0  0  0  0
 35 36  2  0  0  0  0
 35 37  2  0  0  0  0
 35 38  1  0  0  0  0
 39 40  2  0  0  0  0
 40 41  1  0  0  0  0
 41 42  1  0  0  0  0
  1 43  1  0  0  0  0
  1 44  1  0  0  0  0
  1 45  1  0  0  0  0
  3 46  1  0  0  0  0
  4 47  1  0  0  0  0
  5 48  1  0  0  0  0
 11 49  1  0  0  0  0
 13 50  1  0  0  0  0
 14 51  1  0  0  0  0
 18 52  1  0  0  0  0
 19 53  1  0  0  0  0
 20 54  1  0  0  0  0
 22 55  1  0  0  0  0
 27 56  1  0  0  0  0
 28 57  1  0  0  0  0
 30 58  1  0  0  0  0
 31 59  1  0  0  0  0
 33 60  1  0  0  0  0
 34 61  1  0  0  0  0
 38 62  1  0  0  0  0
 38 63  1  0  0  0  0
 38 64  1  0  0  0  0
 39 65  1  0  0  0  0
 42 66  1  0  0  0  0
 42 67  1  0  0  0  0
 42 68  1  0  0  0  0
M  END
> <IC50[nM]>
2.2

$$$$
CHEMBL3265000
  -OEChem-05192314333D
 Structure written by MMmdl.
 68 72  0     0  0  0  0  0  0999 V2000
   -4.2555   -3.1029   13.5707 C   0  0  0  0  0  0  0  0  0  0  0  0
   -3.8740   -2.3535   14.7166 O   0  0  0  0  0  0  0  0  0  0  0  0
   -2.5261   -2.1057   14.8053 C   0  0  0  0  0  0  0  0  0  0  0  0
   -1.7497   -2.8673   15.6804 C   0  0  0  0  0  0  0  0  0  0  0  0
   -0.3863   -2.6106   15.8150 C   0  0  0  0  0  0  0  0  0  0  0  0
    0.2220   -1.5829   15.0890 C   0  0  0  0  0  0  0  0  0  0  0  0
    1.5930   -1.3491   15.3060 N   0  0  0  0  0  0  0  0  0  0  0  0
    2.5452   -0.4689   14.7536 C   0  0  0  0  0  0  0  0  0  0  0  0
    2.2178    0.3551   13.7190 N   0  0  0  0  0  0  0  0  0  0  0  0
    3.1227    1.2406   13.2181 C   0  0  0  0  0  0  0  0  0  0  0  0
    4.4207    1.3039   13.7175 C   0  0  0  0  0  0  0  0  0  0  0  0
    4.7482    0.4921   14.7654 N   0  0  0  0  0  0  0  0  0  0  0  0
    5.8898    0.3836   15.5035 C   0  0  0  0  0  0  0  0  0  0  0  0
    5.5715   -0.5089   16.5177 C   0  0  0  0  0  0  0  0  0  0  0  0
    4.3818   -1.0543   16.3920 N   0  0  0  0  0  0  0  0  0  0  0  0
    3.8330   -0.4170   15.3252 C   0  0  0  0  0  0  0  0  0  0  0  0
    2.6564    2.1560   12.1340 C   0  0  0  0  0  0  0  0  0  0  0  0
    3.5566    2.6280   11.1666 C   0  0  0  0  0  0  0  0  0  0  0  0
    3.1294    3.4499   10.1277 C   0  0  0  0  0  0  0  0  0  0  0  0
    1.7879    3.8078   10.0318 C   0  0  0  0  0  0  0  0  0  0  0  0
    0.8660    3.3707   10.9895 C   0  0  0  0  0  0  0  0  0  0  0  0
    1.3140    2.5576   12.0419 C   0  0  0  0  0  0  0  0  0  0  0  0
   -0.5783    3.7648   10.8956 C   0  0  0  0  0  0  0  0  0  0  0  0
   -1.2780    3.6594    9.8925 O   0  0  0  0  0  0  0  0  0  0  0  0
   -1.0343    4.2553   12.0485 N   0  0  0  0  0  0  0  0  0  0  0  0
   -2.3943    4.7285   12.2897 C   0  0  0  0  0  0  0  0  0  0  0  0
   -2.6544    5.5820   13.3553 C   0  0  0  0  0  0  0  0  0  0  0  0
   -3.9490    6.0325   13.5849 C   0  0  0  0  0  0  0  0  0  0  0  0
   -4.9835    5.6294   12.7489 C   0  0  0  0  0  0  0  0  0  0  0  0
   -4.7235    4.7759   11.6833 C   0  0  0  0  0  0  0  0  0  0  0  0
   -3.4289    4.3254   11.4537 C   0  0  0  0  0  0  0  0  0  0  0  0
   -6.3808    6.1155   12.9967 C   0  0  0  0  0  0  0  0  0  0  0  0
   -7.3335    5.7936   12.2928 O   0  0  0  0  0  0  0  0  0  0  0  0
   -6.3969    6.9226   14.0705 N   0  0  0  0  0  0  0  0  0  0  0  0
   -7.9316    7.5992   14.5333 S   0  0  0  0  0  0  0  0  0  0  0  0
   -8.7871    6.4947   14.9809 O   0  0  0  0  0  0  0  0  0  0  0  0
   -8.3522    8.5161   13.4681 O   0  0  0  0  0  0  0  0  0  0  0  0
   -7.5285    8.5816   15.9619 C   0  0  0  0  0  0  0  0  0  0  0  0
   -0.5664   -0.8256   14.2115 C   0  0  0  0  0  0  0  0  0  0  0  0
   -1.9389   -1.0760   14.0580 C   0  0  0  0  0  0  0  0  0  0  0  0
   -2.6991   -0.3052   13.2021 O   0  0  0  0  0  0  0  0  0  0  0  0
   -2.0020    0.6746   12.5251 C   0  0  0  0  0  0  0  0  0  0  0  0
   -5.3448   -3.2555   13.5777 H   0  0  0  0  0  0  0  0  0  0  0  0
   -3.9681   -2.5543   12.6616 H   0  0  0  0  0  0  0  0  0  0  0  0
   -3.7486   -4.0790   13.5856 H   0  0  0  0  0  0  0  0  0  0  0  0
   -2.2073   -3.6587   16.2555 H   0  0  0  0  0  0  0  0  0  0  0  0
   -0.2118   -2.3897   16.8784 H   0  0  0  0  0  0  0  0  0  0  0  0
    0.1365   -3.5394   15.5428 H   0  0  0  0  0  0  0  0  0  0  0  0
    5.1484    1.9765   13.2880 H   0  0  0  0  0  0  0  0  0  0  0  0
    6.8331    0.8820   15.3359 H   0  0  0  0  0  0  0  0  0  0  0  0
    6.2400   -0.7347   17.3354 H   0  0  0  0  0  0  0  0  0  0  0  0
    4.5981    2.3490   11.2292 H   0  0  0  0  0  0  0  0  0  0  0  0
    3.8383    3.8096    9.3966 H   0  0  0  0  0  0  0  0  0  0  0  0
    1.4559    4.4276    9.2120 H   0  0  0  0  0  0  0  0  0  0  0  0
    0.6121    2.2342   12.7963 H   0  0  0  0  0  0  0  0  0  0  0  0
   -1.8505    5.8952   14.0050 H   0  0  0  0  0  0  0  0  0  0  0  0
   -4.1511    6.6958   14.4129 H   0  0  0  0  0  0  0  0  0  0  0  0
   -5.5274    4.4627   11.0337 H   0  0  0  0  0  0  0  0  0  0  0  0
   -3.2268    3.6621   10.6257 H   0  0  0  0  0  0  0  0  0  0  0  0
   -8.1235    6.2080   12.6194 H   0  0  0  0  0  0  0  0  0  0  0  0
   -6.0536    6.3958   14.8480 H   0  0  0  0  0  0  0  0  0  0  0  0
   -8.4399    9.0642   16.3447 H   0  0  0  0  0  0  0  0  0  0  0  0
   -7.1006    7.9352   16.7423 H   0  0  0  0  0  0  0  0  0  0  0  0
   -6.7956    9.3525   15.6817 H   0  0  0  0  0  0  0  0  0  0  0  0
   -0.1075   -0.0318   13.6408 H   0  0  0  0  0  0  0  0  0  0  0  0
   -2.6909    1.2310   11.8726 H   0  0  0  0  0  0  0  0  0  0  0  0
   -1.5443    1.3652   13.2487 H   0  0  0  0  0  0  0  0  0  0  0  0
   -1.2146    0.2087   11.9144 H   0  0  0  0  0  0  0  0  0  0  0  0
  1  2  1  0  0  0  0
  2  3  1  0  0  0  0
  3  4  2  0  0  0  0
  3 40  1  0  0  0  0
  4  5  1  0  0  0  0
  5  6  1  0  0  0  0
  6  7  2  0  0  0  0
  6 39  1  0  0  0  0
  7  8  1  0  0  0  0
  8  9  2  0  0  0  0
  8 16  1  0  0  0  0
  9 10  1  0  0  0  0
 10 11  2  0  0  0  0
 10 17  1  0  0  0  0
 11 12  1  0  0  0  0
 12 13  1  0  0  0  0
 12 16  1  0  0  0  0
 13 14  2  0  0  0  0
 14 15  1  0  0  0  0
 15 16  2  0  0  0  0
 17 18  2  0  0  0  0
 17 22  1  0  0  0  0
 18 19  1  0  0  0  0
 19 20  2  0  0  0  0
 20 21  1  0  0  0  0
 21 22  2  0  0  0  0
 21 23  1  0  0  0  0
 23 24  2  0  0  0  0
 23 25  1  0  0  0  0
 25 26  2  0  0  0  0
 26 27  1  0  0  0  0
 26 31  1  0  0  0  0
 27 28  2  0  0  0  0
 28 29  1  0  0  0  0
 29 30  1  0  0  0  0
 29 32  2  0  0  0  0
 30 31  2  0  0  0  0
 32 33  1  0  0  0  0
 32 34  1  0  0  0  0
 34 35  1  0  0  0  0
 35 36  2  0  0  0  0
 35 37  2  0  0  0  0
 35 38  1  0  0  0  0
 39 40  2  0  0  0  0
 40 41  1  0  0  0  0
 41 42  1  0  0  0  0
  1 43  1  0  0  0  0
  1 44  1  0  0  0  0
  1 45  1  0  0  0  0
  4 46  1  0  0  0  0
  5 47  1  0  0  0  0
  5 48  1  0  0  0  0
 11 49  1  0  0  0  0
 13 50  1  0  0  0  0
 14 51  1  0  0  0  0
 18 52  1  0  0  0  0
 19 53  1  0  0  0  0
 20 54  1  0  0  0  0
 22 55  1  0  0  0  0
 27 56  1  0  0  0  0
 28 57  1  0  0  0  0
 30 58  1  0  0  0  0
 31 59  1  0  0  0  0
 33 60  1  0  0  0  0
 34 61  1  0  0  0  0
 38 62  1  0  0  0  0
 38 63  1  0  0  0  0
 38 64  1  0  0  0  0
 39 65  1  0  0  0  0
 42 66  1  0  0  0  0
 42 67  1  0  0  0  0
 42 68  1  0  0  0  0
M  END
> <IC50[nM]>
2.2

$$$$
CHEMBL3265000
  -OEChem-05192314333D
 Structure written by MMmdl.
 68 72  0     0  0  0  0  0  0999 V2000
   -4.2555   -3.1029   13.5707 C   0  0  0  0  0  0  0  0  0  0  0  0
   -3.8740   -2.3535   14.7166 O   0  0  0  0  0  0  0  0  0  0  0  0
   -2.5261   -2.1057   14.8053 C   0  0  0  0  0  0  0  0  0  0  0  0
   -1.7497   -2.8673   15.6804 C   0  0  0  0  0  0  0  0  0  0  0  0
   -0.3863   -2.6106   15.8150 C   0  0  0  0  0  0  0  0  0  0  0  0
    0.2220   -1.5829   15.0890 C   0  0  0  0  0  0  0  0  0  0  0  0
    1.5930   -1.3491   15.3060 N   0  0  0  0  0  0  0  0  0  0  0  0
    2.5452   -0.4689   14.7536 C   0  0  0  0  0  0  0  0  0  0  0  0
    2.2178    0.3551   13.7190 N   0  0  0  0  0  0  0  0  0  0  0  0
    3.1227    1.2406   13.2181 C   0  0  0  0  0  0  0  0  0  0  0  0
    4.4207    1.3039   13.7175 C   0  0  0  0  0  0  0  0  0  0  0  0
    4.7482    0.4921   14.7654 N   0  0  0  0  0  0  0  0  0  0  0  0
    5.8898    0.3836   15.5035 C   0  0  0  0  0  0  0  0  0  0  0  0
    5.5715   -0.5089   16.5177 C   0  0  0  0  0  0  0  0  0  0  0  0
    4.3818   -1.0543   16.3920 N   0  0  0  0  0  0  0  0  0  0  0  0
    3.8330   -0.4170   15.3252 C   0  0  0  0  0  0  0  0  0  0  0  0
    2.6564    2.1560   12.1340 C   0  0  0  0  0  0  0  0  0  0  0  0
    3.5566    2.6280   11.1666 C   0  0  0  0  0  0  0  0  0  0  0  0
    3.1294    3.4499   10.1277 C   0  0  0  0  0  0  0  0  0  0  0  0
    1.7879    3.8078   10.0318 C   0  0  0  0  0  0  0  0  0  0  0  0
    0.8660    3.3707   10.9895 C   0  0  0  0  0  0  0  0  0  0  0  0
    1.3140    2.5576   12.0419 C   0  0  0  0  0  0  0  0  0  0  0  0
   -0.5783    3.7648   10.8956 C   0  0  0  0  0  0  0  0  0  0  0  0
   -1.2780    3.6594    9.8925 O   0  0  0  0  0  0  0  0  0  0  0  0
   -1.0343    4.2553   12.0485 N   0  0  0  0  0  0  0  0  0  0  0  0
   -2.3943    4.7285   12.2897 C   0  0  0  0  0  0  0  0  0  0  0  0
   -2.6544    5.5820   13.3553 C   0  0  0  0  0  0  0  0  0  0  0  0
   -3.9490    6.0325   13.5849 C   0  0  0  0  0  0  0  0  0  0  0  0
   -4.9835    5.6294   12.7489 C   0  0  0  0  0  0  0  0  0  0  0  0
   -4.7235    4.7759   11.6833 C   0  0  0  0  0  0  0  0  0  0  0  0
   -3.4289    4.3254   11.4537 C   0  0  0  0  0  0  0  0  0  0  0  0
   -6.3808    6.1155   12.9967 C   0  0  0  0  0  0  0  0  0  0  0  0
   -7.3335    5.7936   12.2928 O   0  0  0  0  0  0  0  0  0  0  0  0
   -6.3969    6.9226   14.0705 N   0  0  0  0  0  0  0  0  0  0  0  0
   -7.9316    7.5992   14.5333 S   0  0  0  0  0  0  0  0  0  0  0  0
   -8.7871    6.4947   14.9809 O   0  0  0  0  0  0  0  0  0  0  0  0
   -8.3522    8.5161   13.4681 O   0  0  0  0  0  0  0  0  0  0  0  0
   -7.5285    8.5816   15.9619 C   0  0  0  0  0  0  0  0  0  0  0  0
   -0.5664   -0.8256   14.2115 C   0  0  0  0  0  0  0  0  0  0  0  0
   -1.9389   -1.0760   14.0580 C   0  0  0  0  0  0  0  0  0  0  0  0
   -2.6991   -0.3052   13.2021 O   0  0  0  0  0  0  0  0  0  0  0  0
   -2.0020    0.6746   12.5251 C   0  0  0  0  0  0  0  0  0  0  0  0
   -5.3448   -3.2555   13.5777 H   0  0  0  0  0  0  0  0  0  0  0  0
   -3.9681   -2.5543   12.6616 H   0  0  0  0  0  0  0  0  0  0  0  0
   -3.7486   -4.0790   13.5856 H   0  0  0  0  0  0  0  0  0  0  0  0
   -2.2073   -3.6587   16.2555 H   0  0  0  0  0  0  0  0  0  0  0  0
    0.2066   -3.2125   16.4877 H   0  0  0  0  0  0  0  0  0  0  0  0
    5.1484    1.9765   13.2880 H   0  0  0  0  0  0  0  0  0  0  0  0
    6.8331    0.8820   15.3359 H   0  0  0  0  0  0  0  0  0  0  0  0
    6.2400   -0.7347   17.3354 H   0  0  0  0  0  0  0  0  0  0  0  0
    4.5981    2.3490   11.2292 H   0  0  0  0  0  0  0  0  0  0  0  0
    3.8383    3.8096    9.3966 H   0  0  0  0  0  0  0  0  0  0  0  0
    1.4559    4.4276    9.2120 H   0  0  0  0  0  0  0  0  0  0  0  0
    0.6121    2.2342   12.7963 H   0  0  0  0  0  0  0  0  0  0  0  0
   -1.8505    5.8952   14.0050 H   0  0  0  0  0  0  0  0  0  0  0  0
   -4.1511    6.6958   14.4129 H   0  0  0  0  0  0  0  0  0  0  0  0
   -5.5274    4.4627   11.0337 H   0  0  0  0  0  0  0  0  0  0  0  0
   -3.2268    3.6621   10.6257 H   0  0  0  0  0  0  0  0  0  0  0  0
   -8.1235    6.2080   12.6194 H   0  0  0  0  0  0  0  0  0  0  0  0
   -6.0536    6.3958   14.8480 H   0  0  0  0  0  0  0  0  0  0  0  0
   -8.4399    9.0642   16.3447 H   0  0  0  0  0  0  0  0  0  0  0  0
   -7.1006    7.9352   16.7423 H   0  0  0  0  0  0  0  0  0  0  0  0
   -6.7956    9.3525   15.6817 H   0  0  0  0  0  0  0  0  0  0  0  0
   -0.4764    0.2210   14.5379 H   0  0  0  0  0  0  0  0  0  0  0  0
   -0.1167   -0.9386   13.2140 H   0  0  0  0  0  0  0  0  0  0  0  0
   -2.6909    1.2310   11.8726 H   0  0  0  0  0  0  0  0  0  0  0  0
   -1.5443    1.3652   13.2487 H   0  0  0  0  0  0  0  0  0  0  0  0
   -1.2146    0.2087   11.9144 H   0  0  0  0  0  0  0  0  0  0  0  0
  1  2  1  0  0  0  0
  2  3  1  0  0  0  0
  3  4  1  0  0  0  0
  3 40  2  0  0  0  0
  4  5  2  0  0  0  0
  5  6  1  0  0  0  0
  6  7  2  0  0  0  0
  6 39  1  0  0  0  0
  7  8  1  0  0  0  0
  8  9  2  0  0  0  0
  8 16  1  0  0  0  0
  9 10  1  0  0  0  0
 10 11  2  0  0  0  0
 10 17  1  0  0  0  0
 11 12  1  0  0  0  0
 12 13  1  0  0  0  0
 12 16  1  0  0  0  0
 13 14  2  0  0  0  0
 14 15  1  0  0  0  0
 15 16  2  0  0  0  0
 17 18  2  0  0  0  0
 17 22  1  0  0  0  0
 18 19  1  0  0  0  0
 19 20  2  0  0  0  0
 20 21  1  0  0  0  0
 21 22  2  0  0  0  0
 21 23  1  0  0  0  0
 23 24  2  0  0  0  0
 23 25  1  0  0  0  0
 25 26  2  0  0  0  0
 26 27  1  0  0  0  0
 26 31  1  0  0  0  0
 27 28  2  0  0  0  0
 28 29  1  0  0  0  0
 29 30  1  0  0  0  0
 29 32  2  0  0  0  0
 30 31  2  0  0  0  0
 32 33  1  0  0  0  0
 32 34  1  0  0  0  0
 34 35  1  0  0  0  0
 35 36  2  0  0  0  0
 35 37  2  0  0  0  0
 35 38  1  0  0  0  0
 39 40  1  0  0  0  0
 40 41  1  0  0  0  0
 41 42  1  0  0  0  0
  1 43  1  0  0  0  0
  1 44  1  0  0  0  0
  1 45  1  0  0  0  0
  4 46  1  0  0  0  0
  5 47  1  0  0  0  0
 11 48  1  0  0  0  0
 13 49  1  0  0  0  0
 14 50  1  0  0  0  0
 18 51  1  0  0  0  0
 19 52  1  0  0  0  0
 20 53  1  0  0  0  0
 22 54  1  0  0  0  0
 27 55  1  0  0  0  0
 28 56  1  0  0  0  0
 30 57  1  0  0  0  0
 31 58  1  0  0  0  0
 33 59  1  0  0  0  0
 34 60  1  0  0  0  0
 38 61  1  0  0  0  0
 38 62  1  0  0  0  0
 38 63  1  0  0  0  0
 39 64  1  0  0  0  0
 39 65  1  0  0  0  0
 42 66  1  0  0  0  0
 42 67  1  0  0  0  0
 42 68  1  0  0  0  0
M  END
> <IC50[nM]>
2.2

$$$$
