CHEMBL3265037
  -OEChem-05192314333D
 Structure written by MMmdl.
 56 61  0     0  0  0  0  0  0999 V2000
   -2.1744    0.6943   12.3856 C   0  0  0  0  0  0  0  0  0  0  0  0
   -2.7023   -0.3474   13.1823 O   0  0  0  0  0  0  0  0  0  0  0  0
   -1.9098   -1.0981   14.0384 C   0  0  0  0  0  0  0  0  0  0  0  0
   -0.5310   -0.8294   14.1803 C   0  0  0  0  0  0  0  0  0  0  0  0
    0.2355   -1.5834   15.0946 C   0  0  0  0  0  0  0  0  0  0  0  0
    1.6117   -1.3596   15.3361 N   0  0  0  0  0  0  0  0  0  0  0  0
    2.5319   -0.4372   14.7774 C   0  0  0  0  0  0  0  0  0  0  0  0
    2.1598    0.3941   13.7549 N   0  0  0  0  0  0  0  0  0  0  0  0
    3.0944    1.2396   13.2243 C   0  0  0  0  0  0  0  0  0  0  0  0
    4.4043    1.2833   13.6944 C   0  0  0  0  0  0  0  0  0  0  0  0
    4.7385    0.4947   14.7556 N   0  0  0  0  0  0  0  0  0  0  0  0
    5.8973    0.3913   15.4817 C   0  0  0  0  0  0  0  0  0  0  0  0
    5.5996   -0.5416   16.5121 C   0  0  0  0  0  0  0  0  0  0  0  0
    4.3864   -1.0493   16.3602 N   0  0  0  0  0  0  0  0  0  0  0  0
    3.8356   -0.3858   15.3271 C   0  0  0  0  0  0  0  0  0  0  0  0
    2.6225    2.1542   12.1213 C   0  0  0  0  0  0  0  0  0  0  0  0
    3.5396    2.6409   11.1644 C   0  0  0  0  0  0  0  0  0  0  0  0
    3.1535    3.4630   10.1051 C   0  0  0  0  0  0  0  0  0  0  0  0
    1.8086    3.8199   10.0132 C   0  0  0  0  0  0  0  0  0  0  0  0
    0.9978    4.6054    9.1182 C   0  0  0  0  0  0  0  0  0  0  0  0
   -0.2423    4.6093    9.5224 N   0  0  0  0  0  0  0  0  0  0  0  0
   -0.3299    3.8832   10.6368 N   0  0  0  0  0  0  0  0  0  0  0  0
    0.8842    3.3496   10.9964 C   0  0  0  0  0  0  0  0  0  0  0  0
    1.2618    2.5164   12.0586 C   0  0  0  0  0  0  0  0  0  0  0  0
   -0.3784   -2.5892   15.8339 C   0  0  0  0  0  0  0  0  0  0  0  0
   -1.7343   -2.8306   15.7168 C   0  0  0  0  0  0  0  0  0  0  0  0
   -2.5117   -2.0982   14.8261 C   0  0  0  0  0  0  0  0  0  0  0  0
   -3.8736   -2.3467   14.7445 N   0  0  0  0  0  0  0  0  0  0  0  0
   -4.6489   -2.3804   13.4950 C   0  0  0  0  0  0  0  0  0  0  0  0
   -5.4028   -3.7252   13.3613 C   0  0  0  0  0  0  0  0  0  0  0  0
   -6.2201   -3.9495   14.5061 O   0  0  0  0  0  0  0  0  0  0  0  0
   -5.4732   -4.0046   15.7182 C   0  0  0  0  0  0  0  0  0  0  0  0
   -4.7007   -2.7060   15.8980 C   0  0  0  0  0  0  0  0  0  0  0  0
   -2.9815    1.1466   11.7906 H   0  0  0  0  0  0  0  0  0  0  0  0
   -1.7242    1.4599   13.0346 H   0  0  0  0  0  0  0  0  0  0  0  0
   -1.4063    0.2871   11.7117 H   0  0  0  0  0  0  0  0  0  0  0  0
   -0.0657   -0.0517   13.5928 H   0  0  0  0  0  0  0  0  0  0  0  0
    2.0080   -1.9630   16.0281 H   0  0  0  0  0  0  0  0  0  0  0  0
    5.1376    1.9259   13.2300 H   0  0  0  0  0  0  0  0  0  0  0  0
    6.8310    0.9057   15.3087 H   0  0  0  0  0  0  0  0  0  0  0  0
    6.2747   -0.8021   17.3139 H   0  0  0  0  0  0  0  0  0  0  0  0
    4.5801    2.3663   11.2559 H   0  0  0  0  0  0  0  0  0  0  0  0
    3.8734    3.8118    9.3795 H   0  0  0  0  0  0  0  0  0  0  0  0
    1.3637    5.1168    8.2401 H   0  0  0  0  0  0  0  0  0  0  0  0
   -1.1771    3.7436   11.1494 H   0  0  0  0  0  0  0  0  0  0  0  0
    0.5473    2.1701   12.7907 H   0  0  0  0  0  0  0  0  0  0  0  0
    0.2129   -3.1900   16.5090 H   0  0  0  0  0  0  0  0  0  0  0  0
   -2.1950   -3.5962   16.3235 H   0  0  0  0  0  0  0  0  0  0  0  0
   -5.3771   -1.5559   13.4984 H   0  0  0  0  0  0  0  0  0  0  0  0
   -3.9652   -2.2622   12.6414 H   0  0  0  0  0  0  0  0  0  0  0  0
   -6.0365   -3.6982   12.4626 H   0  0  0  0  0  0  0  0  0  0  0  0
   -4.6728   -4.5430   13.2707 H   0  0  0  0  0  0  0  0  0  0  0  0
   -6.1601   -4.1429   16.5661 H   0  0  0  0  0  0  0  0  0  0  0  0
   -4.7681   -4.8478   15.6763 H   0  0  0  0  0  0  0  0  0  0  0  0
   -4.0457   -2.8106   16.7755 H   0  0  0  0  0  0  0  0  0  0  0  0
   -5.4223   -1.8946   16.0737 H   0  0  0  0  0  0  0  0  0  0  0  0
  1  2  1  0  0  0  0
  2  3  1  0  0  0  0
  3  4  2  0  0  0  0
  3 27  1  0  0  0  0
  4  5  1  0  0  0  0
  5  6  1  0  0  0  0
  5 25  2  0  0  0  0
  6  7  1  0  0  0  0
  7  8  2  0  0  0  0
  7 15  1  0  0  0  0
  8  9  1  0  0  0  0
  9 10  2  0  0  0  0
  9 16  1  0  0  0  0
 10 11  1  0  0  0  0
 11 12  1  0  0  0  0
 11 15  1  0  0  0  0
 12 13  2  0  0  0  0
 13 14  1  0  0  0  0
 14 15  2  0  0  0  0
 16 17  2  0  0  0  0
 16 24  1  0  0  0  0
 17 18  1  0  0  0  0
 18 19  2  0  0  0  0
 19 20  1  0  0  0  0
 19 23  1  0  0  0  0
 20 21  2  0  0  0  0
 21 22  1  0  0  0  0
 22 23  1  0  0  0  0
 23 24  2  0  0  0  0
 25 26  1  0  0  0  0
 26 27  2  0  0  0  0
 27 28  1  0  0  0  0
 28 29  1  0  0  0  0
 28 33  1  0  0  0  0
 29 30  1  0  0  0  0
 30 31  1  0  0  0  0
 31 32  1  0  0  0  0
 32 33  1  0  0  0  0
  1 34  1  0  0  0  0
  1 35  1  0  0  0  0
  1 36  1  0  0  0  0
  4 37  1  0  0  0  0
  6 38  1  0  0  0  0
 10 39  1  0  0  0  0
 12 40  1  0  0  0  0
 13 41  1  0  0  0  0
 17 42  1  0  0  0  0
 18 43  1  0  0  0  0
 20 44  1  0  0  0  0
 22 45  1  0  0  0  0
 24 46  1  0  0  0  0
 25 47  1  0  0  0  0
 26 48  1  0  0  0  0
 29 49  1  0  0  0  0
 29 50  1  0  0  0  0
 30 51  1  0  0  0  0
 30 52  1  0  0  0  0
 32 53  1  0  0  0  0
 32 54  1  0  0  0  0
 33 55  1  0  0  0  0
 33 56  1  0  0  0  0
M  END
> <IC50[nM]>
0.44

$$$$
CHEMBL3265037
  -OEChem-05192314333D
 Structure written by MMmdl.
 56 61  0     0  0  0  0  0  0999 V2000
   -2.1744    0.6943   12.3856 C   0  0  0  0  0  0  0  0  0  0  0  0
   -2.7023   -0.3474   13.1823 O   0  0  0  0  0  0  0  0  0  0  0  0
   -1.9098   -1.0981   14.0384 C   0  0  0  0  0  0  0  0  0  0  0  0
   -0.5310   -0.8294   14.1803 C   0  0  0  0  0  0  0  0  0  0  0  0
    0.2355   -1.5834   15.0946 C   0  0  0  0  0  0  0  0  0  0  0  0
    1.6117   -1.3596   15.3361 N   0  0  0  0  0  0  0  0  0  0  0  0
    2.5319   -0.4372   14.7774 C   0  0  0  0  0  0  0  0  0  0  0  0
    2.1598    0.3941   13.7549 N   0  0  0  0  0  0  0  0  0  0  0  0
    3.0944    1.2396   13.2243 C   0  0  0  0  0  0  0  0  0  0  0  0
    4.4043    1.2833   13.6944 C   0  0  0  0  0  0  0  0  0  0  0  0
    4.7385    0.4947   14.7556 N   0  0  0  0  0  0  0  0  0  0  0  0
    5.8973    0.3913   15.4817 C   0  0  0  0  0  0  0  0  0  0  0  0
    5.5996   -0.5416   16.5121 C   0  0  0  0  0  0  0  0  0  0  0  0
    4.3864   -1.0493   16.3602 N   0  0  0  0  0  0  0  0  0  0  0  0
    3.8356   -0.3858   15.3271 C   0  0  0  0  0  0  0  0  0  0  0  0
    2.6225    2.1542   12.1213 C   0  0  0  0  0  0  0  0  0  0  0  0
    3.5396    2.6409   11.1644 C   0  0  0  0  0  0  0  0  0  0  0  0
    3.1535    3.4630   10.1051 C   0  0  0  0  0  0  0  0  0  0  0  0
    1.8086    3.8199   10.0132 C   0  0  0  0  0  0  0  0  0  0  0  0
    0.9978    4.6054    9.1182 C   0  0  0  0  0  0  0  0  0  0  0  0
   -0.2423    4.6093    9.5224 N   0  0  0  0  0  0  0  0  0  0  0  0
   -0.3299    3.8832   10.6368 N   0  0  0  0  0  0  0  0  0  0  0  0
    0.8842    3.3496   10.9964 C   0  0  0  0  0  0  0  0  0  0  0  0
    1.2618    2.5164   12.0586 C   0  0  0  0  0  0  0  0  0  0  0  0
   -0.3784   -2.5892   15.8339 C   0  0  0  0  0  0  0  0  0  0  0  0
   -1.7343   -2.8306   15.7168 C   0  0  0  0  0  0  0  0  0  0  0  0
   -2.5117   -2.0982   14.8261 C   0  0  0  0  0  0  0  0  0  0  0  0
   -3.8736   -2.3467   14.7445 N   0  0  0  0  0  0  0  0  0  0  0  0
   -4.6489   -2.3804   13.4950 C   0  0  0  0  0  0  0  0  0  0  0  0
   -5.4028   -3.7252   13.3613 C   0  0  0  0  0  0  0  0  0  0  0  0
   -6.2201   -3.9495   14.5061 O   0  0  0  0  0  0  0  0  0  0  0  0
   -5.4732   -4.0046   15.7182 C   0  0  0  0  0  0  0  0  0  0  0  0
   -4.7007   -2.7060   15.8980 C   0  0  0  0  0  0  0  0  0  0  0  0
   -2.9815    1.1466   11.7906 H   0  0  0  0  0  0  0  0  0  0  0  0
   -1.7242    1.4599   13.0346 H   0  0  0  0  0  0  0  0  0  0  0  0
   -1.4063    0.2871   11.7117 H   0  0  0  0  0  0  0  0  0  0  0  0
   -0.0657   -0.0517   13.5928 H   0  0  0  0  0  0  0  0  0  0  0  0
    2.0080   -1.9630   16.0281 H   0  0  0  0  0  0  0  0  0  0  0  0
    5.1376    1.9259   13.2300 H   0  0  0  0  0  0  0  0  0  0  0  0
    6.8310    0.9057   15.3087 H   0  0  0  0  0  0  0  0  0  0  0  0
    6.2747   -0.8021   17.3139 H   0  0  0  0  0  0  0  0  0  0  0  0
    4.5801    2.3663   11.2559 H   0  0  0  0  0  0  0  0  0  0  0  0
    3.8734    3.8118    9.3795 H   0  0  0  0  0  0  0  0  0  0  0  0
    1.3637    5.1168    8.2401 H   0  0  0  0  0  0  0  0  0  0  0  0
   -1.0012    5.0789    9.0713 H   0  0  0  0  0  0  0  0  0  0  0  0
    0.5473    2.1701   12.7907 H   0  0  0  0  0  0  0  0  0  0  0  0
    0.2129   -3.1900   16.5090 H   0  0  0  0  0  0  0  0  0  0  0  0
   -2.1950   -3.5962   16.3235 H   0  0  0  0  0  0  0  0  0  0  0  0
   -5.3771   -1.5559   13.4984 H   0  0  0  0  0  0  0  0  0  0  0  0
   -3.9652   -2.2622   12.6414 H   0  0  0  0  0  0  0  0  0  0  0  0
   -6.0365   -3.6982   12.4626 H   0  0  0  0  0  0  0  0  0  0  0  0
   -4.6728   -4.5430   13.2707 H   0  0  0  0  0  0  0  0  0  0  0  0
   -6.1601   -4.1429   16.5661 H   0  0  0  0  0  0  0  0  0  0  0  0
   -4.7681   -4.8478   15.6763 H   0  0  0  0  0  0  0  0  0  0  0  0
   -4.0457   -2.8106   16.7755 H   0  0  0  0  0  0  0  0  0  0  0  0
   -5.4223   -1.8946   16.0737 H   0  0  0  0  0  0  0  0  0  0  0  0
  1  2  1  0  0  0  0
  2  3  1  0  0  0  0
  3  4  2  0  0  0  0
  3 27  1  0  0  0  0
  4  5  1  0  0  0  0
  5  6  1  0  0  0  0
  5 25  2  0  0  0  0
  6  7  1  0  0  0  0
  7  8  2  0  0  0  0
  7 15  1  0  0  0  0
  8  9  1  0  0  0  0
  9 10  2  0  0  0  0
  9 16  1  0  0  0  0
 10 11  1  0  0  0  0
 11 12  1  0  0  0  0
 11 15  1  0  0  0  0
 12 13  2  0  0  0  0
 13 14  1  0  0  0  0
 14 15  2  0  0  0  0
 16 17  1  0  0  0  0
 16 24  2  0  0  0  0
 17 18  2  0  0  0  0
 18 19  1  0  0  0  0
 19 20  2  0  0  0  0
 19 23  1  0  0  0  0
 20 21  1  0  0  0  0
 21 22  1  0  0  0  0
 22 23  2  0  0  0  0
 23 24  1  0  0  0  0
 25 26  1  0  0  0  0
 26 27  2  0  0  0  0
 27 28  1  0  0  0  0
 28 29  1  0  0  0  0
 28 33  1  0  0  0  0
 29 30  1  0  0  0  0
 30 31  1  0  0  0  0
 31 32  1  0  0  0  0
 32 33  1  0  0  0  0
  1 34  1  0  0  0  0
  1 35  1  0  0  0  0
  1 36  1  0  0  0  0
  4 37  1  0  0  0  0
  6 38  1  0  0  0  0
 10 39  1  0  0  0  0
 12 40  1  0  0  0  0
 13 41  1  0  0  0  0
 17 42  1  0  0  0  0
 18 43  1  0  0  0  0
 20 44  1  0  0  0  0
 21 45  1  0  0  0  0
 24 46  1  0  0  0  0
 25 47  1  0  0  0  0
 26 48  1  0  0  0  0
 29 49  1  0  0  0  0
 29 50  1  0  0  0  0
 30 51  1  0  0  0  0
 30 52  1  0  0  0  0
 32 53  1  0  0  0  0
 32 54  1  0  0  0  0
 33 55  1  0  0  0  0
 33 56  1  0  0  0  0
M  END
> <IC50[nM]>
0.44

$$$$
CHEMBL3265037
  -OEChem-05192314333D
 Structure written by MMmdl.
 56 61  0     0  0  0  0  0  0999 V2000
   -2.1744    0.6943   12.3856 C   0  0  0  0  0  0  0  0  0  0  0  0
   -2.7023   -0.3474   13.1823 O   0  0  0  0  0  0  0  0  0  0  0  0
   -1.9098   -1.0981   14.0384 C   0  0  0  0  0  0  0  0  0  0  0  0
   -0.5310   -0.8294   14.1803 C   0  0  0  0  0  0  0  0  0  0  0  0
    0.2355   -1.5834   15.0946 C   0  0  0  0  0  0  0  0  0  0  0  0
    1.6117   -1.3596   15.3361 N   0  0  0  0  0  0  0  0  0  0  0  0
    2.5319   -0.4372   14.7774 C   0  0  0  0  0  0  0  0  0  0  0  0
    2.1598    0.3941   13.7549 N   0  0  0  0  0  0  0  0  0  0  0  0
    3.0944    1.2396   13.2243 C   0  0  0  0  0  0  0  0  0  0  0  0
    4.4043    1.2833   13.6944 C   0  0  0  0  0  0  0  0  0  0  0  0
    4.7385    0.4947   14.7556 N   0  0  0  0  0  0  0  0  0  0  0  0
    5.8973    0.3913   15.4817 C   0  0  0  0  0  0  0  0  0  0  0  0
    5.5996   -0.5416   16.5121 C   0  0  0  0  0  0  0  0  0  0  0  0
    4.3864   -1.0493   16.3602 N   0  0  0  0  0  0  0  0  0  0  0  0
    3.8356   -0.3858   15.3271 C   0  0  0  0  0  0  0  0  0  0  0  0
    2.6225    2.1542   12.1213 C   0  0  0  0  0  0  0  0  0  0  0  0
    3.5396    2.6409   11.1644 C   0  0  0  0  0  0  0  0  0  0  0  0
    3.1535    3.4630   10.1051 C   0  0  0  0  0  0  0  0  0  0  0  0
    1.8086    3.8199   10.0132 C   0  0  0  0  0  0  0  0  0  0  0  0
    0.9978    4.6054    9.1182 C   0  0  0  0  0  0  0  0  0  0  0  0
   -0.2423    4.6093    9.5224 N   0  0  0  0  0  0  0  0  0  0  0  0
   -0.3299    3.8832   10.6368 N   0  0  0  0  0  0  0  0  0  0  0  0
    0.8842    3.3496   10.9964 C   0  0  0  0  0  0  0  0  0  0  0  0
    1.2618    2.5164   12.0586 C   0  0  0  0  0  0  0  0  0  0  0  0
   -0.3784   -2.5892   15.8339 C   0  0  0  0  0  0  0  0  0  0  0  0
   -1.7343   -2.8306   15.7168 C   0  0  0  0  0  0  0  0  0  0  0  0
   -2.5117   -2.0982   14.8261 C   0  0  0  0  0  0  0  0  0  0  0  0
   -3.8736   -2.3467   14.7445 N   0  0  0  0  0  0  0  0  0  0  0  0
   -4.6489   -2.3804   13.4950 C   0  0  0  0  0  0  0  0  0  0  0  0
   -5.4028   -3.7252   13.3613 C   0  0  0  0  0  0  0  0  0  0  0  0
   -6.2201   -3.9495   14.5061 O   0  0  0  0  0  0  0  0  0  0  0  0
   -5.4732   -4.0046   15.7182 C   0  0  0  0  0  0  0  0  0  0  0  0
   -4.7007   -2.7060   15.8980 C   0  0  0  0  0  0  0  0  0  0  0  0
   -2.9815    1.1466   11.7906 H   0  0  0  0  0  0  0  0  0  0  0  0
   -1.7242    1.4599   13.0346 H   0  0  0  0  0  0  0  0  0  0  0  0
   -1.4063    0.2871   11.7117 H   0  0  0  0  0  0  0  0  0  0  0  0
   -0.0657   -0.0517   13.5928 H   0  0  0  0  0  0  0  0  0  0  0  0
    1.2237    0.3831   13.4034 H   0  0  0  0  0  0  0  0  0  0  0  0
    5.1376    1.9259   13.2300 H   0  0  0  0  0  0  0  0  0  0  0  0
    6.8310    0.9057   15.3087 H   0  0  0  0  0  0  0  0  0  0  0  0
    6.2747   -0.8021   17.3139 H   0  0  0  0  0  0  0  0  0  0  0  0
    4.5801    2.3663   11.2559 H   0  0  0  0  0  0  0  0  0  0  0  0
    3.8734    3.8118    9.3795 H   0  0  0  0  0  0  0  0  0  0  0  0
    1.3637    5.1168    8.2401 H   0  0  0  0  0  0  0  0  0  0  0  0
   -1.1771    3.7436   11.1494 H   0  0  0  0  0  0  0  0  0  0  0  0
    0.5473    2.1701   12.7907 H   0  0  0  0  0  0  0  0  0  0  0  0
    0.2129   -3.1900   16.5090 H   0  0  0  0  0  0  0  0  0  0  0  0
   -2.1950   -3.5962   16.3235 H   0  0  0  0  0  0  0  0  0  0  0  0
   -5.3771   -1.5559   13.4984 H   0  0  0  0  0  0  0  0  0  0  0  0
   -3.9652   -2.2622   12.6414 H   0  0  0  0  0  0  0  0  0  0  0  0
   -6.0365   -3.6982   12.4626 H   0  0  0  0  0  0  0  0  0  0  0  0
   -4.6728   -4.5430   13.2707 H   0  0  0  0  0  0  0  0  0  0  0  0
   -6.1601   -4.1429   16.5661 H   0  0  0  0  0  0  0  0  0  0  0  0
   -4.7681   -4.8478   15.6763 H   0  0  0  0  0  0  0  0  0  0  0  0
   -4.0457   -2.8106   16.7755 H   0  0  0  0  0  0  0  0  0  0  0  0
   -5.4223   -1.8946   16.0737 H   0  0  0  0  0  0  0  0  0  0  0  0
  1  2  1  0  0  0  0
  2  3  1  0  0  0  0
  3  4  2  0  0  0  0
  3 27  1  0  0  0  0
  4  5  1  0  0  0  0
  5  6  1  0  0  0  0
  5 25  2  0  0  0  0
  6  7  2  0  0  0  0
  7  8  1  0  0  0  0
  7 15  1  0  0  0  0
  8  9  1  0  0  0  0
  9 10  2  0  0  0  0
  9 16  1  0  0  0  0
 10 11  1  0  0  0  0
 11 12  1  0  0  0  0
 11 15  1  0  0  0  0
 12 13  2  0  0  0  0
 13 14  1  0  0  0  0
 14 15  2  0  0  0  0
 16 17  2  0  0  0  0
 16 24  1  0  0  0  0
 17 18  1  0  0  0  0
 18 19  2  0  0  0  0
 19 20  1  0  0  0  0
 19 23  1  0  0  0  0
 20 21  2  0  0  0  0
 21 22  1  0  0  0  0
 22 23  1  0  0  0  0
 23 24  2  0  0  0  0
 25 26  1  0  0  0  0
 26 27  2  0  0  0  0
 27 28  1  0  0  0  0
 28 29  1  0  0  0  0
 28 33  1  0  0  0  0
 29 30  1  0  0  0  0
 30 31  1  0  0  0  0
 31 32  1  0  0  0  0
 32 33  1  0  0  0  0
  1 34  1  0  0  0  0
  1 35  1  0  0  0  0
  1 36  1  0  0  0  0
  4 37  1  0  0  0  0
  8 38  1  0  0  0  0
 10 39  1  0  0  0  0
 12 40  1  0  0  0  0
 13 41  1  0  0  0  0
 17 42  1  0  0  0  0
 18 43  1  0  0  0  0
 20 44  1  0  0  0  0
 22 45  1  0  0  0  0
 24 46  1  0  0  0  0
 25 47  1  0  0  0  0
 26 48  1  0  0  0  0
 29 49  1  0  0  0  0
 29 50  1  0  0  0  0
 30 51  1  0  0  0  0
 30 52  1  0  0  0  0
 32 53  1  0  0  0  0
 32 54  1  0  0  0  0
 33 55  1  0  0  0  0
 33 56  1  0  0  0  0
M  END
> <IC50[nM]>
0.44

$$$$
CHEMBL3265037
  -OEChem-05192314333D
 Structure written by MMmdl.
 56 61  0     0  0  0  0  0  0999 V2000
   -2.1744    0.6943   12.3856 C   0  0  0  0  0  0  0  0  0  0  0  0
   -2.7023   -0.3474   13.1823 O   0  0  0  0  0  0  0  0  0  0  0  0
   -1.9098   -1.0981   14.0384 C   0  0  0  0  0  0  0  0  0  0  0  0
   -0.5310   -0.8294   14.1803 C   0  0  0  0  0  0  0  0  0  0  0  0
    0.2355   -1.5834   15.0946 C   0  0  0  0  0  0  0  0  0  0  0  0
    1.6117   -1.3596   15.3361 N   0  0  0  0  0  0  0  0  0  0  0  0
    2.5319   -0.4372   14.7774 C   0  0  0  0  0  0  0  0  0  0  0  0
    2.1598    0.3941   13.7549 N   0  0  0  0  0  0  0  0  0  0  0  0
    3.0944    1.2396   13.2243 C   0  0  0  0  0  0  0  0  0  0  0  0
    4.4043    1.2833   13.6944 C   0  0  0  0  0  0  0  0  0  0  0  0
    4.7385    0.4947   14.7556 N   0  0  0  0  0  0  0  0  0  0  0  0
    5.8973    0.3913   15.4817 C   0  0  0  0  0  0  0  0  0  0  0  0
    5.5996   -0.5416   16.5121 C   0  0  0  0  0  0  0  0  0  0  0  0
    4.3864   -1.0493   16.3602 N   0  0  0  0  0  0  0  0  0  0  0  0
    3.8356   -0.3858   15.3271 C   0  0  0  0  0  0  0  0  0  0  0  0
    2.6225    2.1542   12.1213 C   0  0  0  0  0  0  0  0  0  0  0  0
    3.5396    2.6409   11.1644 C   0  0  0  0  0  0  0  0  0  0  0  0
    3.1535    3.4630   10.1051 C   0  0  0  0  0  0  0  0  0  0  0  0
    1.8086    3.8199   10.0132 C   0  0  0  0  0  0  0  0  0  0  0  0
    0.9978    4.6054    9.1182 C   0  0  0  0  0  0  0  0  0  0  0  0
   -0.2423    4.6093    9.5224 N   0  0  0  0  0  0  0  0  0  0  0  0
   -0.3299    3.8832   10.6368 N   0  0  0  0  0  0  0  0  0  0  0  0
    0.8842    3.3496   10.9964 C   0  0  0  0  0  0  0  0  0  0  0  0
    1.2618    2.5164   12.0586 C   0  0  0  0  0  0  0  0  0  0  0  0
   -0.3784   -2.5892   15.8339 C   0  0  0  0  0  0  0  0  0  0  0  0
   -1.7343   -2.8306   15.7168 C   0  0  0  0  0  0  0  0  0  0  0  0
   -2.5117   -2.0982   14.8261 C   0  0  0  0  0  0  0  0  0  0  0  0
   -3.8736   -2.3467   14.7445 N   0  0  0  0  0  0  0  0  0  0  0  0
   -4.6489   -2.3804   13.4950 C   0  0  0  0  0  0  0  0  0  0  0  0
   -5.4028   -3.7252   13.3613 C   0  0  0  0  0  0  0  0  0  0  0  0
   -6.2201   -3.9495   14.5061 O   0  0  0  0  0  0  0  0  0  0  0  0
   -5.4732   -4.0046   15.7182 C   0  0  0  0  0  0  0  0  0  0  0  0
   -4.7007   -2.7060   15.8980 C   0  0  0  0  0  0  0  0  0  0  0  0
   -2.9815    1.1466   11.7906 H   0  0  0  0  0  0  0  0  0  0  0  0
   -1.7242    1.4599   13.0346 H   0  0  0  0  0  0  0  0  0  0  0  0
   -1.4063    0.2871   11.7117 H   0  0  0  0  0  0  0  0  0  0  0  0
   -0.0657   -0.0517   13.5928 H   0  0  0  0  0  0  0  0  0  0  0  0
    1.2237    0.3831   13.4034 H   0  0  0  0  0  0  0  0  0  0  0  0
    5.1376    1.9259   13.2300 H   0  0  0  0  0  0  0  0  0  0  0  0
    6.8310    0.9057   15.3087 H   0  0  0  0  0  0  0  0  0  0  0  0
    6.2747   -0.8021   17.3139 H   0  0  0  0  0  0  0  0  0  0  0  0
    4.5801    2.3663   11.2559 H   0  0  0  0  0  0  0  0  0  0  0  0
    3.8734    3.8118    9.3795 H   0  0  0  0  0  0  0  0  0  0  0  0
    1.3637    5.1168    8.2401 H   0  0  0  0  0  0  0  0  0  0  0  0
   -1.0012    5.0789    9.0713 H   0  0  0  0  0  0  0  0  0  0  0  0
    0.5473    2.1701   12.7907 H   0  0  0  0  0  0  0  0  0  0  0  0
    0.2129   -3.1900   16.5090 H   0  0  0  0  0  0  0  0  0  0  0  0
   -2.1950   -3.5962   16.3235 H   0  0  0  0  0  0  0  0  0  0  0  0
   -5.3771   -1.5559   13.4984 H   0  0  0  0  0  0  0  0  0  0  0  0
   -3.9652   -2.2622   12.6414 H   0  0  0  0  0  0  0  0  0  0  0  0
   -6.0365   -3.6982   12.4626 H   0  0  0  0  0  0  0  0  0  0  0  0
   -4.6728   -4.5430   13.2707 H   0  0  0  0  0  0  0  0  0  0  0  0
   -6.1601   -4.1429   16.5661 H   0  0  0  0  0  0  0  0  0  0  0  0
   -4.7681   -4.8478   15.6763 H   0  0  0  0  0  0  0  0  0  0  0  0
   -4.0457   -2.8106   16.7755 H   0  0  0  0  0  0  0  0  0  0  0  0
   -5.4223   -1.8946   16.0737 H   0  0  0  0  0  0  0  0  0  0  0  0
  1  2  1  0  0  0  0
  2  3  1  0  0  0  0
  3  4  2  0  0  0  0
  3 27  1  0  0  0  0
  4  5  1  0  0  0  0
  5  6  1  0  0  0  0
  5 25  2  0  0  0  0
  6  7  2  0  0  0  0
  7  8  1  0  0  0  0
  7 15  1  0  0  0  0
  8  9  1  0  0  0  0
  9 10  2  0  0  0  0
  9 16  1  0  0  0  0
 10 11  1  0  0  0  0
 11 12  1  0  0  0  0
 11 15  1  0  0  0  0
 12 13  2  0  0  0  0
 13 14  1  0  0  0  0
 14 15  2  0  0  0  0
 16 17  1  0  0  0  0
 16 24  2  0  0  0  0
 17 18  2  0  0  0  0
 18 19  1  0  0  0  0
 19 20  2  0  0  0  0
 19 23  1  0  0  0  0
 20 21  1  0  0  0  0
 21 22  1  0  0  0  0
 22 23  2  0  0  0  0
 23 24  1  0  0  0  0
 25 26  1  0  0  0  0
 26 27  2  0  0  0  0
 27 28  1  0  0  0  0
 28 29  1  0  0  0  0
 28 33  1  0  0  0  0
 29 30  1  0  0  0  0
 30 31  1  0  0  0  0
 31 32  1  0  0  0  0
 32 33  1  0  0  0  0
  1 34  1  0  0  0  0
  1 35  1  0  0  0  0
  1 36  1  0  0  0  0
  4 37  1  0  0  0  0
  8 38  1  0  0  0  0
 10 39  1  0  0  0  0
 12 40  1  0  0  0  0
 13 41  1  0  0  0  0
 17 42  1  0  0  0  0
 18 43  1  0  0  0  0
 20 44  1  0  0  0  0
 21 45  1  0  0  0  0
 24 46  1  0  0  0  0
 25 47  1  0  0  0  0
 26 48  1  0  0  0  0
 29 49  1  0  0  0  0
 29 50  1  0  0  0  0
 30 51  1  0  0  0  0
 30 52  1  0  0  0  0
 32 53  1  0  0  0  0
 32 54  1  0  0  0  0
 33 55  1  0  0  0  0
 33 56  1  0  0  0  0
M  END
> <IC50[nM]>
0.44

$$$$
CHEMBL3265037
  -OEChem-05192314333D
 Structure written by MMmdl.
 56 61  0     0  0  0  0  0  0999 V2000
   -2.1744    0.6943   12.3856 C   0  0  0  0  0  0  0  0  0  0  0  0
   -2.7023   -0.3474   13.1823 O   0  0  0  0  0  0  0  0  0  0  0  0
   -1.9098   -1.0981   14.0384 C   0  0  0  0  0  0  0  0  0  0  0  0
   -0.5310   -0.8294   14.1803 C   0  0  0  0  0  0  0  0  0  0  0  0
    0.2355   -1.5834   15.0946 C   0  0  0  0  0  0  0  0  0  0  0  0
    1.6117   -1.3596   15.3361 N   0  0  0  0  0  0  0  0  0  0  0  0
    2.5319   -0.4372   14.7774 C   0  0  0  0  0  0  0  0  0  0  0  0
    2.1598    0.3941   13.7549 N   0  0  0  0  0  0  0  0  0  0  0  0
    3.0944    1.2396   13.2243 C   0  0  0  0  0  0  0  0  0  0  0  0
    4.4043    1.2833   13.6944 C   0  0  0  0  0  0  0  0  0  0  0  0
    4.7385    0.4947   14.7556 N   0  0  0  0  0  0  0  0  0  0  0  0
    5.8973    0.3913   15.4817 C   0  0  0  0  0  0  0  0  0  0  0  0
    5.5996   -0.5416   16.5121 C   0  0  0  0  0  0  0  0  0  0  0  0
    4.3864   -1.0493   16.3602 N   0  0  0  0  0  0  0  0  0  0  0  0
    3.8356   -0.3858   15.3271 C   0  0  0  0  0  0  0  0  0  0  0  0
    2.6225    2.1542   12.1213 C   0  0  0  0  0  0  0  0  0  0  0  0
    3.5396    2.6409   11.1644 C   0  0  0  0  0  0  0  0  0  0  0  0
    3.1535    3.4630   10.1051 C   0  0  0  0  0  0  0  0  0  0  0  0
    1.8086    3.8199   10.0132 C   0  0  0  0  0  0  0  0  0  0  0  0
    0.9978    4.6054    9.1182 C   0  0  0  0  0  0  0  0  0  0  0  0
   -0.2423    4.6093    9.5224 N   0  0  0  0  0  0  0  0  0  0  0  0
   -0.3299    3.8832   10.6368 N   0  0  0  0  0  0  0  0  0  0  0  0
    0.8842    3.3496   10.9964 C   0  0  0  0  0  0  0  0  0  0  0  0
    1.2618    2.5164   12.0586 C   0  0  0  0  0  0  0  0  0  0  0  0
   -0.3784   -2.5892   15.8339 C   0  0  0  0  0  0  0  0  0  0  0  0
   -1.7343   -2.8306   15.7168 C   0  0  0  0  0  0  0  0  0  0  0  0
   -2.5117   -2.0982   14.8261 C   0  0  0  0  0  0  0  0  0  0  0  0
   -3.8736   -2.3467   14.7445 N   0  0  0  0  0  0  0  0  0  0  0  0
   -4.6489   -2.3804   13.4950 C   0  0  0  0  0  0  0  0  0  0  0  0
   -5.4028   -3.7252   13.3613 C   0  0  0  0  0  0  0  0  0  0  0  0
   -6.2201   -3.9495   14.5061 O   0  0  0  0  0  0  0  0  0  0  0  0
   -5.4732   -4.0046   15.7182 C   0  0  0  0  0  0  0  0  0  0  0  0
   -4.7007   -2.7060   15.8980 C   0  0  0  0  0  0  0  0  0  0  0  0
   -2.9815    1.1466   11.7906 H   0  0  0  0  0  0  0  0  0  0  0  0
   -1.7242    1.4599   13.0346 H   0  0  0  0  0  0  0  0  0  0  0  0
   -1.4063    0.2871   11.7117 H   0  0  0  0  0  0  0  0  0  0  0  0
   -0.0657   -0.0517   13.5928 H   0  0  0  0  0  0  0  0  0  0  0  0
    2.0080   -1.9630   16.0281 H   0  0  0  0  0  0  0  0  0  0  0  0
    5.1376    1.9259   13.2300 H   0  0  0  0  0  0  0  0  0  0  0  0
    6.8310    0.9057   15.3087 H   0  0  0  0  0  0  0  0  0  0  0  0
    6.2747   -0.8021   17.3139 H   0  0  0  0  0  0  0  0  0  0  0  0
    4.5801    2.3663   11.2559 H   0  0  0  0  0  0  0  0  0  0  0  0
    3.8734    3.8118    9.3795 H   0  0  0  0  0  0  0  0  0  0  0  0
    1.3764    5.6380    9.0961 H   0  0  0  0  0  0  0  0  0  0  0  0
    1.0495    4.1742    8.1075 H   0  0  0  0  0  0  0  0  0  0  0  0
    0.5473    2.1701   12.7907 H   0  0  0  0  0  0  0  0  0  0  0  0
    0.2129   -3.1900   16.5090 H   0  0  0  0  0  0  0  0  0  0  0  0
   -2.1950   -3.5962   16.3235 H   0  0  0  0  0  0  0  0  0  0  0  0
   -5.3771   -1.5559   13.4984 H   0  0  0  0  0  0  0  0  0  0  0  0
   -3.9652   -2.2622   12.6414 H   0  0  0  0  0  0  0  0  0  0  0  0
   -6.0365   -3.6982   12.4626 H   0  0  0  0  0  0  0  0  0  0  0  0
   -4.6728   -4.5430   13.2707 H   0  0  0  0  0  0  0  0  0  0  0  0
   -6.1601   -4.1429   16.5661 H   0  0  0  0  0  0  0  0  0  0  0  0
   -4.7681   -4.8478   15.6763 H   0  0  0  0  0  0  0  0  0  0  0  0
   -4.0457   -2.8106   16.7755 H   0  0  0  0  0  0  0  0  0  0  0  0
   -5.4223   -1.8946   16.0737 H   0  0  0  0  0  0  0  0  0  0  0  0
  1  2  1  0  0  0  0
  2  3  1  0  0  0  0
  3  4  2  0  0  0  0
  3 27  1  0  0  0  0
  4  5  1  0  0  0  0
  5  6  1  0  0  0  0
  5 25  2  0  0  0  0
  6  7  1  0  0  0  0
  7  8  2  0  0  0  0
  7 15  1  0  0  0  0
  8  9  1  0  0  0  0
  9 10  2  0  0  0  0
  9 16  1  0  0  0  0
 10 11  1  0  0  0  0
 11 12  1  0  0  0  0
 11 15  1  0  0  0  0
 12 13  2  0  0  0  0
 13 14  1  0  0  0  0
 14 15  2  0  0  0  0
 16 17  2  0  0  0  0
 16 24  1  0  0  0  0
 17 18  1  0  0  0  0
 18 19  2  0  0  0  0
 19 20  1  0  0  0  0
 19 23  1  0  0  0  0
 20 21  1  0  0  0  0
 21 22  2  0  0  0  0
 22 23  1  0  0  0  0
 23 24  2  0  0  0  0
 25 26  1  0  0  0  0
 26 27  2  0  0  0  0
 27 28  1  0  0  0  0
 28 29  1  0  0  0  0
 28 33  1  0  0  0  0
 29 30  1  0  0  0  0
 30 31  1  0  0  0  0
 31 32  1  0  0  0  0
 32 33  1  0  0  0  0
  1 34  1  0  0  0  0
  1 35  1  0  0  0  0
  1 36  1  0  0  0  0
  4 37  1  0  0  0  0
  6 38  1  0  0  0  0
 10 39  1  0  0  0  0
 12 40  1  0  0  0  0
 13 41  1  0  0  0  0
 17 42  1  0  0  0  0
 18 43  1  0  0  0  0
 20 44  1  0  0  0  0
 20 45  1  0  0  0  0
 24 46  1  0  0  0  0
 25 47  1  0  0  0  0
 26 48  1  0  0  0  0
 29 49  1  0  0  0  0
 29 50  1  0  0  0  0
 30 51  1  0  0  0  0
 30 52  1  0  0  0  0
 32 53  1  0  0  0  0
 32 54  1  0  0  0  0
 33 55  1  0  0  0  0
 33 56  1  0  0  0  0
M  END
> <IC50[nM]>
0.44

$$$$
CHEMBL3265037
  -OEChem-05192314333D
 Structure written by MMmdl.
 56 61  0     0  0  0  0  0  0999 V2000
   -2.1744    0.6943   12.3856 C   0  0  0  0  0  0  0  0  0  0  0  0
   -2.7023   -0.3474   13.1823 O   0  0  0  0  0  0  0  0  0  0  0  0
   -1.9098   -1.0981   14.0384 C   0  0  0  0  0  0  0  0  0  0  0  0
   -0.5310   -0.8294   14.1803 C   0  0  0  0  0  0  0  0  0  0  0  0
    0.2355   -1.5834   15.0946 C   0  0  0  0  0  0  0  0  0  0  0  0
    1.6117   -1.3596   15.3361 N   0  0  0  0  0  0  0  0  0  0  0  0
    2.5319   -0.4372   14.7774 C   0  0  0  0  0  0  0  0  0  0  0  0
    2.1598    0.3941   13.7549 N   0  0  0  0  0  0  0  0  0  0  0  0
    3.0944    1.2396   13.2243 C   0  0  0  0  0  0  0  0  0  0  0  0
    4.4043    1.2833   13.6944 C   0  0  0  0  0  0  0  0  0  0  0  0
    4.7385    0.4947   14.7556 N   0  0  0  0  0  0  0  0  0  0  0  0
    5.8973    0.3913   15.4817 C   0  0  0  0  0  0  0  0  0  0  0  0
    5.5996   -0.5416   16.5121 C   0  0  0  0  0  0  0  0  0  0  0  0
    4.3864   -1.0493   16.3602 N   0  0  0  0  0  0  0  0  0  0  0  0
    3.8356   -0.3858   15.3271 C   0  0  0  0  0  0  0  0  0  0  0  0
    2.6225    2.1542   12.1213 C   0  0  0  0  0  0  0  0  0  0  0  0
    3.5396    2.6409   11.1644 C   0  0  0  0  0  0  0  0  0  0  0  0
    3.1535    3.4630   10.1051 C   0  0  0  0  0  0  0  0  0  0  0  0
    1.8086    3.8199   10.0132 C   0  0  0  0  0  0  0  0  0  0  0  0
    0.9978    4.6054    9.1182 C   0  0  0  0  0  0  0  0  0  0  0  0
   -0.2423    4.6093    9.5224 N   0  0  0  0  0  0  0  0  0  0  0  0
   -0.3299    3.8832   10.6368 N   0  0  0  0  0  0  0  0  0  0  0  0
    0.8842    3.3496   10.9964 C   0  0  0  0  0  0  0  0  0  0  0  0
    1.2618    2.5164   12.0586 C   0  0  0  0  0  0  0  0  0  0  0  0
   -0.3784   -2.5892   15.8339 C   0  0  0  0  0  0  0  0  0  0  0  0
   -1.7343   -2.8306   15.7168 C   0  0  0  0  0  0  0  0  0  0  0  0
   -2.5117   -2.0982   14.8261 C   0  0  0  0  0  0  0  0  0  0  0  0
   -3.8736   -2.3467   14.7445 N   0  0  0  0  0  0  0  0  0  0  0  0
   -4.6489   -2.3804   13.4950 C   0  0  0  0  0  0  0  0  0  0  0  0
   -5.4028   -3.7252   13.3613 C   0  0  0  0  0  0  0  0  0  0  0  0
   -6.2201   -3.9495   14.5061 O   0  0  0  0  0  0  0  0  0  0  0  0
   -5.4732   -4.0046   15.7182 C   0  0  0  0  0  0  0  0  0  0  0  0
   -4.7007   -2.7060   15.8980 C   0  0  0  0  0  0  0  0  0  0  0  0
   -2.9815    1.1466   11.7906 H   0  0  0  0  0  0  0  0  0  0  0  0
   -1.7242    1.4599   13.0346 H   0  0  0  0  0  0  0  0  0  0  0  0
   -1.4063    0.2871   11.7117 H   0  0  0  0  0  0  0  0  0  0  0  0
   -0.0657   -0.0517   13.5928 H   0  0  0  0  0  0  0  0  0  0  0  0
    1.2237    0.3831   13.4034 H   0  0  0  0  0  0  0  0  0  0  0  0
    5.1376    1.9259   13.2300 H   0  0  0  0  0  0  0  0  0  0  0  0
    6.8310    0.9057   15.3087 H   0  0  0  0  0  0  0  0  0  0  0  0
    6.2747   -0.8021   17.3139 H   0  0  0  0  0  0  0  0  0  0  0  0
    4.5801    2.3663   11.2559 H   0  0  0  0  0  0  0  0  0  0  0  0
    3.8734    3.8118    9.3795 H   0  0  0  0  0  0  0  0  0  0  0  0
    1.3764    5.6380    9.0961 H   0  0  0  0  0  0  0  0  0  0  0  0
    1.0495    4.1742    8.1075 H   0  0  0  0  0  0  0  0  0  0  0  0
    0.5473    2.1701   12.7907 H   0  0  0  0  0  0  0  0  0  0  0  0
    0.2129   -3.1900   16.5090 H   0  0  0  0  0  0  0  0  0  0  0  0
   -2.1950   -3.5962   16.3235 H   0  0  0  0  0  0  0  0  0  0  0  0
   -5.3771   -1.5559   13.4984 H   0  0  0  0  0  0  0  0  0  0  0  0
   -3.9652   -2.2622   12.6414 H   0  0  0  0  0  0  0  0  0  0  0  0
   -6.0365   -3.6982   12.4626 H   0  0  0  0  0  0  0  0  0  0  0  0
   -4.6728   -4.5430   13.2707 H   0  0  0  0  0  0  0  0  0  0  0  0
   -6.1601   -4.1429   16.5661 H   0  0  0  0  0  0  0  0  0  0  0  0
   -4.7681   -4.8478   15.6763 H   0  0  0  0  0  0  0  0  0  0  0  0
   -4.0457   -2.8106   16.7755 H   0  0  0  0  0  0  0  0  0  0  0  0
   -5.4223   -1.8946   16.0737 H   0  0  0  0  0  0  0  0  0  0  0  0
  1  2  1  0  0  0  0
  2  3  1  0  0  0  0
  3  4  2  0  0  0  0
  3 27  1  0  0  0  0
  4  5  1  0  0  0  0
  5  6  1  0  0  0  0
  5 25  2  0  0  0  0
  6  7  2  0  0  0  0
  7  8  1  0  0  0  0
  7 15  1  0  0  0  0
  8  9  1  0  0  0  0
  9 10  2  0  0  0  0
  9 16  1  0  0  0  0
 10 11  1  0  0  0  0
 11 12  1  0  0  0  0
 11 15  1  0  0  0  0
 12 13  2  0  0  0  0
 13 14  1  0  0  0  0
 14 15  2  0  0  0  0
 16 17  2  0  0  0  0
 16 24  1  0  0  0  0
 17 18  1  0  0  0  0
 18 19  2  0  0  0  0
 19 20  1  0  0  0  0
 19 23  1  0  0  0  0
 20 21  1  0  0  0  0
 21 22  2  0  0  0  0
 22 23  1  0  0  0  0
 23 24  2  0  0  0  0
 25 26  1  0  0  0  0
 26 27  2  0  0  0  0
 27 28  1  0  0  0  0
 28 29  1  0  0  0  0
 28 33  1  0  0  0  0
 29 30  1  0  0  0  0
 30 31  1  0  0  0  0
 31 32  1  0  0  0  0
 32 33  1  0  0  0  0
  1 34  1  0  0  0  0
  1 35  1  0  0  0  0
  1 36  1  0  0  0  0
  4 37  1  0  0  0  0
  8 38  1  0  0  0  0
 10 39  1  0  0  0  0
 12 40  1  0  0  0  0
 13 41  1  0  0  0  0
 17 42  1  0  0  0  0
 18 43  1  0  0  0  0
 20 44  1  0  0  0  0
 20 45  1  0  0  0  0
 24 46  1  0  0  0  0
 25 47  1  0  0  0  0
 26 48  1  0  0  0  0
 29 49  1  0  0  0  0
 29 50  1  0  0  0  0
 30 51  1  0  0  0  0
 30 52  1  0  0  0  0
 32 53  1  0  0  0  0
 32 54  1  0  0  0  0
 33 55  1  0  0  0  0
 33 56  1  0  0  0  0
M  END
> <IC50[nM]>
0.44

$$$$
CHEMBL3265037
  -OEChem-05192314333D
 Structure written by MMmdl.
 56 61  0     0  0  0  0  0  0999 V2000
   -2.1744    0.6943   12.3856 C   0  0  0  0  0  0  0  0  0  0  0  0
   -2.7023   -0.3474   13.1823 O   0  0  0  0  0  0  0  0  0  0  0  0
   -1.9098   -1.0981   14.0384 C   0  0  0  0  0  0  0  0  0  0  0  0
   -0.5310   -0.8294   14.1803 C   0  0  0  0  0  0  0  0  0  0  0  0
    0.2355   -1.5834   15.0946 C   0  0  0  0  0  0  0  0  0  0  0  0
    1.6117   -1.3596   15.3361 N   0  0  0  0  0  0  0  0  0  0  0  0
    2.5319   -0.4372   14.7774 C   0  0  0  0  0  0  0  0  0  0  0  0
    2.1598    0.3941   13.7549 N   0  0  0  0  0  0  0  0  0  0  0  0
    3.0944    1.2396   13.2243 C   0  0  0  0  0  0  0  0  0  0  0  0
    4.4043    1.2833   13.6944 C   0  0  0  0  0  0  0  0  0  0  0  0
    4.7385    0.4947   14.7556 N   0  0  0  0  0  0  0  0  0  0  0  0
    5.8973    0.3913   15.4817 C   0  0  0  0  0  0  0  0  0  0  0  0
    5.5996   -0.5416   16.5121 C   0  0  0  0  0  0  0  0  0  0  0  0
    4.3864   -1.0493   16.3602 N   0  0  0  0  0  0  0  0  0  0  0  0
    3.8356   -0.3858   15.3271 C   0  0  0  0  0  0  0  0  0  0  0  0
    2.6225    2.1542   12.1213 C   0  0  0  0  0  0  0  0  0  0  0  0
    3.5396    2.6409   11.1644 C   0  0  0  0  0  0  0  0  0  0  0  0
    3.1535    3.4630   10.1051 C   0  0  0  0  0  0  0  0  0  0  0  0
    1.8086    3.8199   10.0132 C   0  0  0  0  0  0  0  0  0  0  0  0
    0.9978    4.6054    9.1182 C   0  0  0  0  0  0  0  0  0  0  0  0
   -0.2423    4.6093    9.5224 N   0  0  0  0  0  0  0  0  0  0  0  0
   -0.3299    3.8832   10.6368 N   0  0  0  0  0  0  0  0  0  0  0  0
    0.8842    3.3496   10.9964 C   0  0  0  0  0  0  0  0  0  0  0  0
    1.2618    2.5164   12.0586 C   0  0  0  0  0  0  0  0  0  0  0  0
   -0.3784   -2.5892   15.8339 C   0  0  0  0  0  0  0  0  0  0  0  0
   -1.7343   -2.8306   15.7168 C   0  0  0  0  0  0  0  0  0  0  0  0
   -2.5117   -2.0982   14.8261 C   0  0  0  0  0  0  0  0  0  0  0  0
   -3.8736   -2.3467   14.7445 N   0  0  0  0  0  0  0  0  0  0  0  0
   -4.6489   -2.3804   13.4950 C   0  0  0  0  0  0  0  0  0  0  0  0
   -5.4028   -3.7252   13.3613 C   0  0  0  0  0  0  0  0  0  0  0  0
   -6.2201   -3.9495   14.5061 O   0  0  0  0  0  0  0  0  0  0  0  0
   -5.4732   -4.0046   15.7182 C   0  0  0  0  0  0  0  0  0  0  0  0
   -4.7007   -2.7060   15.8980 C   0  0  0  0  0  0  0  0  0  0  0  0
   -2.9815    1.1466   11.7906 H   0  0  0  0  0  0  0  0  0  0  0  0
   -1.7242    1.4599   13.0346 H   0  0  0  0  0  0  0  0  0  0  0  0
   -1.4063    0.2871   11.7117 H   0  0  0  0  0  0  0  0  0  0  0  0
   -0.0657   -0.0517   13.5928 H   0  0  0  0  0  0  0  0  0  0  0  0
    5.0597    0.9984   12.8582 H   0  0  0  0  0  0  0  0  0  0  0  0
    4.6113    2.3240   13.9845 H   0  0  0  0  0  0  0  0  0  0  0  0
    6.8310    0.9057   15.3087 H   0  0  0  0  0  0  0  0  0  0  0  0
    6.2747   -0.8021   17.3139 H   0  0  0  0  0  0  0  0  0  0  0  0
    4.5801    2.3663   11.2559 H   0  0  0  0  0  0  0  0  0  0  0  0
    3.8734    3.8118    9.3795 H   0  0  0  0  0  0  0  0  0  0  0  0
    1.3637    5.1168    8.2401 H   0  0  0  0  0  0  0  0  0  0  0  0
   -1.1771    3.7436   11.1494 H   0  0  0  0  0  0  0  0  0  0  0  0
    0.5473    2.1701   12.7907 H   0  0  0  0  0  0  0  0  0  0  0  0
    0.2129   -3.1900   16.5090 H   0  0  0  0  0  0  0  0  0  0  0  0
   -2.1950   -3.5962   16.3235 H   0  0  0  0  0  0  0  0  0  0  0  0
   -5.3771   -1.5559   13.4984 H   0  0  0  0  0  0  0  0  0  0  0  0
   -3.9652   -2.2622   12.6414 H   0  0  0  0  0  0  0  0  0  0  0  0
   -6.0365   -3.6982   12.4626 H   0  0  0  0  0  0  0  0  0  0  0  0
   -4.6728   -4.5430   13.2707 H   0  0  0  0  0  0  0  0  0  0  0  0
   -6.1601   -4.1429   16.5661 H   0  0  0  0  0  0  0  0  0  0  0  0
   -4.7681   -4.8478   15.6763 H   0  0  0  0  0  0  0  0  0  0  0  0
   -4.0457   -2.8106   16.7755 H   0  0  0  0  0  0  0  0  0  0  0  0
   -5.4223   -1.8946   16.0737 H   0  0  0  0  0  0  0  0  0  0  0  0
  1  2  1  0  0  0  0
  2  3  1  0  0  0  0
  3  4  2  0  0  0  0
  3 27  1  0  0  0  0
  4  5  1  0  0  0  0
  5  6  1  0  0  0  0
  5 25  2  0  0  0  0
  6  7  2  0  0  0  0
  7  8  1  0  0  0  0
  7 15  1  0  0  0  0
  8  9  2  0  0  0  0
  9 10  1  0  0  0  0
  9 16  1  0  0  0  0
 10 11  1  0  0  0  0
 11 12  1  0  0  0  0
 11 15  1  0  0  0  0
 12 13  2  0  0  0  0
 13 14  1  0  0  0  0
 14 15  2  0  0  0  0
 16 17  2  0  0  0  0
 16 24  1  0  0  0  0
 17 18  1  0  0  0  0
 18 19  2  0  0  0  0
 19 20  1  0  0  0  0
 19 23  1  0  0  0  0
 20 21  2  0  0  0  0
 21 22  1  0  0  0  0
 22 23  1  0  0  0  0
 23 24  2  0  0  0  0
 25 26  1  0  0  0  0
 26 27  2  0  0  0  0
 27 28  1  0  0  0  0
 28 29  1  0  0  0  0
 28 33  1  0  0  0  0
 29 30  1  0  0  0  0
 30 31  1  0  0  0  0
 31 32  1  0  0  0  0
 32 33  1  0  0  0  0
  1 34  1  0  0  0  0
  1 35  1  0  0  0  0
  1 36  1  0  0  0  0
  4 37  1  0  0  0  0
 10 38  1  0  0  0  0
 10 39  1  0  0  0  0
 12 40  1  0  0  0  0
 13 41  1  0  0  0  0
 17 42  1  0  0  0  0
 18 43  1  0  0  0  0
 20 44  1  0  0  0  0
 22 45  1  0  0  0  0
 24 46  1  0  0  0  0
 25 47  1  0  0  0  0
 26 48  1  0  0  0  0
 29 49  1  0  0  0  0
 29 50  1  0  0  0  0
 30 51  1  0  0  0  0
 30 52  1  0  0  0  0
 32 53  1  0  0  0  0
 32 54  1  0  0  0  0
 33 55  1  0  0  0  0
 33 56  1  0  0  0  0
M  END
> <IC50[nM]>
0.44

$$$$
CHEMBL3265037
  -OEChem-05192314333D
 Structure written by MMmdl.
 56 61  0     0  0  0  0  0  0999 V2000
   -2.1744    0.6943   12.3856 C   0  0  0  0  0  0  0  0  0  0  0  0
   -2.7023   -0.3474   13.1823 O   0  0  0  0  0  0  0  0  0  0  0  0
   -1.9098   -1.0981   14.0384 C   0  0  0  0  0  0  0  0  0  0  0  0
   -0.5310   -0.8294   14.1803 C   0  0  0  0  0  0  0  0  0  0  0  0
    0.2355   -1.5834   15.0946 C   0  0  0  0  0  0  0  0  0  0  0  0
    1.6117   -1.3596   15.3361 N   0  0  0  0  0  0  0  0  0  0  0  0
    2.5319   -0.4372   14.7774 C   0  0  0  0  0  0  0  0  0  0  0  0
    2.1598    0.3941   13.7549 N   0  0  0  0  0  0  0  0  0  0  0  0
    3.0944    1.2396   13.2243 C   0  0  0  0  0  0  0  0  0  0  0  0
    4.4043    1.2833   13.6944 C   0  0  0  0  0  0  0  0  0  0  0  0
    4.7385    0.4947   14.7556 N   0  0  0  0  0  0  0  0  0  0  0  0
    5.8973    0.3913   15.4817 C   0  0  0  0  0  0  0  0  0  0  0  0
    5.5996   -0.5416   16.5121 C   0  0  0  0  0  0  0  0  0  0  0  0
    4.3864   -1.0493   16.3602 N   0  0  0  0  0  0  0  0  0  0  0  0
    3.8356   -0.3858   15.3271 C   0  0  0  0  0  0  0  0  0  0  0  0
    2.6225    2.1542   12.1213 C   0  0  0  0  0  0  0  0  0  0  0  0
    3.5396    2.6409   11.1644 C   0  0  0  0  0  0  0  0  0  0  0  0
    3.1535    3.4630   10.1051 C   0  0  0  0  0  0  0  0  0  0  0  0
    1.8086    3.8199   10.0132 C   0  0  0  0  0  0  0  0  0  0  0  0
    0.9978    4.6054    9.1182 C   0  0  0  0  0  0  0  0  0  0  0  0
   -0.2423    4.6093    9.5224 N   0  0  0  0  0  0  0  0  0  0  0  0
   -0.3299    3.8832   10.6368 N   0  0  0  0  0  0  0  0  0  0  0  0
    0.8842    3.3496   10.9964 C   0  0  0  0  0  0  0  0  0  0  0  0
    1.2618    2.5164   12.0586 C   0  0  0  0  0  0  0  0  0  0  0  0
   -0.3784   -2.5892   15.8339 C   0  0  0  0  0  0  0  0  0  0  0  0
   -1.7343   -2.8306   15.7168 C   0  0  0  0  0  0  0  0  0  0  0  0
   -2.5117   -2.0982   14.8261 C   0  0  0  0  0  0  0  0  0  0  0  0
   -3.8736   -2.3467   14.7445 N   0  0  0  0  0  0  0  0  0  0  0  0
   -4.6489   -2.3804   13.4950 C   0  0  0  0  0  0  0  0  0  0  0  0
   -5.4028   -3.7252   13.3613 C   0  0  0  0  0  0  0  0  0  0  0  0
   -6.2201   -3.9495   14.5061 O   0  0  0  0  0  0  0  0  0  0  0  0
   -5.4732   -4.0046   15.7182 C   0  0  0  0  0  0  0  0  0  0  0  0
   -4.7007   -2.7060   15.8980 C   0  0  0  0  0  0  0  0  0  0  0  0
   -2.9815    1.1466   11.7906 H   0  0  0  0  0  0  0  0  0  0  0  0
   -1.7242    1.4599   13.0346 H   0  0  0  0  0  0  0  0  0  0  0  0
   -1.4063    0.2871   11.7117 H   0  0  0  0  0  0  0  0  0  0  0  0
   -0.0657   -0.0517   13.5928 H   0  0  0  0  0  0  0  0  0  0  0  0
    5.0597    0.9984   12.8582 H   0  0  0  0  0  0  0  0  0  0  0  0
    4.6113    2.3240   13.9845 H   0  0  0  0  0  0  0  0  0  0  0  0
    6.8310    0.9057   15.3087 H   0  0  0  0  0  0  0  0  0  0  0  0
    6.2747   -0.8021   17.3139 H   0  0  0  0  0  0  0  0  0  0  0  0
    4.5801    2.3663   11.2559 H   0  0  0  0  0  0  0  0  0  0  0  0
    3.8734    3.8118    9.3795 H   0  0  0  0  0  0  0  0  0  0  0  0
    1.3637    5.1168    8.2401 H   0  0  0  0  0  0  0  0  0  0  0  0
   -1.0012    5.0789    9.0713 H   0  0  0  0  0  0  0  0  0  0  0  0
    0.5473    2.1701   12.7907 H   0  0  0  0  0  0  0  0  0  0  0  0
    0.2129   -3.1900   16.5090 H   0  0  0  0  0  0  0  0  0  0  0  0
   -2.1950   -3.5962   16.3235 H   0  0  0  0  0  0  0  0  0  0  0  0
   -5.3771   -1.5559   13.4984 H   0  0  0  0  0  0  0  0  0  0  0  0
   -3.9652   -2.2622   12.6414 H   0  0  0  0  0  0  0  0  0  0  0  0
   -6.0365   -3.6982   12.4626 H   0  0  0  0  0  0  0  0  0  0  0  0
   -4.6728   -4.5430   13.2707 H   0  0  0  0  0  0  0  0  0  0  0  0
   -6.1601   -4.1429   16.5661 H   0  0  0  0  0  0  0  0  0  0  0  0
   -4.7681   -4.8478   15.6763 H   0  0  0  0  0  0  0  0  0  0  0  0
   -4.0457   -2.8106   16.7755 H   0  0  0  0  0  0  0  0  0  0  0  0
   -5.4223   -1.8946   16.0737 H   0  0  0  0  0  0  0  0  0  0  0  0
  1  2  1  0  0  0  0
  2  3  1  0  0  0  0
  3  4  2  0  0  0  0
  3 27  1  0  0  0  0
  4  5  1  0  0  0  0
  5  6  1  0  0  0  0
  5 25  2  0  0  0  0
  6  7  2  0  0  0  0
  7  8  1  0  0  0  0
  7 15  1  0  0  0  0
  8  9  2  0  0  0  0
  9 10  1  0  0  0  0
  9 16  1  0  0  0  0
 10 11  1  0  0  0  0
 11 12  1  0  0  0  0
 11 15  1  0  0  0  0
 12 13  2  0  0  0  0
 13 14  1  0  0  0  0
 14 15  2  0  0  0  0
 16 17  1  0  0  0  0
 16 24  2  0  0  0  0
 17 18  2  0  0  0  0
 18 19  1  0  0  0  0
 19 20  2  0  0  0  0
 19 23  1  0  0  0  0
 20 21  1  0  0  0  0
 21 22  1  0  0  0  0
 22 23  2  0  0  0  0
 23 24  1  0  0  0  0
 25 26  1  0  0  0  0
 26 27  2  0  0  0  0
 27 28  1  0  0  0  0
 28 29  1  0  0  0  0
 28 33  1  0  0  0  0
 29 30  1  0  0  0  0
 30 31  1  0  0  0  0
 31 32  1  0  0  0  0
 32 33  1  0  0  0  0
  1 34  1  0  0  0  0
  1 35  1  0  0  0  0
  1 36  1  0  0  0  0
  4 37  1  0  0  0  0
 10 38  1  0  0  0  0
 10 39  1  0  0  0  0
 12 40  1  0  0  0  0
 13 41  1  0  0  0  0
 17 42  1  0  0  0  0
 18 43  1  0  0  0  0
 20 44  1  0  0  0  0
 21 45  1  0  0  0  0
 24 46  1  0  0  0  0
 25 47  1  0  0  0  0
 26 48  1  0  0  0  0
 29 49  1  0  0  0  0
 29 50  1  0  0  0  0
 30 51  1  0  0  0  0
 30 52  1  0  0  0  0
 32 53  1  0  0  0  0
 32 54  1  0  0  0  0
 33 55  1  0  0  0  0
 33 56  1  0  0  0  0
M  END
> <IC50[nM]>
0.44

$$$$
CHEMBL3265037
  -OEChem-05192314333D
 Structure written by MMmdl.
 56 61  0     1  0  0  0  0  0999 V2000
   -2.1744    0.6943   12.3856 C   0  0  0  0  0  0  0  0  0  0  0  0
   -2.7023   -0.3474   13.1823 O   0  0  0  0  0  0  0  0  0  0  0  0
   -1.9098   -1.0981   14.0384 C   0  0  0  0  0  0  0  0  0  0  0  0
   -0.5310   -0.8294   14.1803 C   0  0  0  0  0  0  0  0  0  0  0  0
    0.2355   -1.5834   15.0946 C   0  0  0  0  0  0  0  0  0  0  0  0
    1.6117   -1.3596   15.3361 N   0  0  0  0  0  0  0  0  0  0  0  0
    2.5319   -0.4372   14.7774 C   0  0  0  0  0  0  0  0  0  0  0  0
    2.1598    0.3941   13.7549 N   0  0  0  0  0  0  0  0  0  0  0  0
    3.0944    1.2396   13.2243 C   0  0  0  0  0  0  0  0  0  0  0  0
    4.4043    1.2833   13.6944 C   0  0  0  0  0  0  0  0  0  0  0  0
    4.7385    0.4947   14.7556 N   0  0  0  0  0  0  0  0  0  0  0  0
    5.8973    0.3913   15.4817 C   0  0  0  0  0  0  0  0  0  0  0  0
    5.5996   -0.5416   16.5121 C   0  0  0  0  0  0  0  0  0  0  0  0
    4.3864   -1.0493   16.3602 N   0  0  0  0  0  0  0  0  0  0  0  0
    3.8356   -0.3858   15.3271 C   0  0  0  0  0  0  0  0  0  0  0  0
    2.6225    2.1542   12.1213 C   0  0  0  0  0  0  0  0  0  0  0  0
    3.5396    2.6409   11.1644 C   0  0  0  0  0  0  0  0  0  0  0  0
    3.1535    3.4630   10.1051 C   0  0  0  0  0  0  0  0  0  0  0  0
    1.8086    3.8199   10.0132 C   0  0  0  0  0  0  0  0  0  0  0  0
    0.9978    4.6054    9.1182 C   0  0  0  0  0  0  0  0  0  0  0  0
   -0.2423    4.6093    9.5224 N   0  0  0  0  0  0  0  0  0  0  0  0
   -0.3299    3.8832   10.6368 N   0  0  0  0  0  0  0  0  0  0  0  0
    0.8842    3.3496   10.9964 C   0  0  0  0  0  0  0  0  0  0  0  0
    1.2618    2.5164   12.0586 C   0  0  0  0  0  0  0  0  0  0  0  0
   -0.3784   -2.5892   15.8339 C   0  0  0  0  0  0  0  0  0  0  0  0
   -1.7343   -2.8306   15.7168 C   0  0  0  0  0  0  0  0  0  0  0  0
   -2.5117   -2.0982   14.8261 C   0  0  3  0  0  0  0  0  0  0  0  0
   -3.8736   -2.3467   14.7445 N   0  0  0  0  0  0  0  0  0  0  0  0
   -4.6489   -2.3804   13.4950 C   0  0  0  0  0  0  0  0  0  0  0  0
   -5.4028   -3.7252   13.3613 C   0  0  0  0  0  0  0  0  0  0  0  0
   -6.2201   -3.9495   14.5061 O   0  0  0  0  0  0  0  0  0  0  0  0
   -5.4732   -4.0046   15.7182 C   0  0  0  0  0  0  0  0  0  0  0  0
   -4.7007   -2.7060   15.8980 C   0  0  0  0  0  0  0  0  0  0  0  0
   -2.9815    1.1466   11.7906 H   0  0  0  0  0  0  0  0  0  0  0  0
   -1.7242    1.4599   13.0346 H   0  0  0  0  0  0  0  0  0  0  0  0
   -1.4063    0.2871   11.7117 H   0  0  0  0  0  0  0  0  0  0  0  0
   -0.0657   -0.0517   13.5928 H   0  0  0  0  0  0  0  0  0  0  0  0
    5.1376    1.9259   13.2300 H   0  0  0  0  0  0  0  0  0  0  0  0
    6.8310    0.9057   15.3087 H   0  0  0  0  0  0  0  0  0  0  0  0
    6.2747   -0.8021   17.3139 H   0  0  0  0  0  0  0  0  0  0  0  0
    4.5801    2.3663   11.2559 H   0  0  0  0  0  0  0  0  0  0  0  0
    3.8734    3.8118    9.3795 H   0  0  0  0  0  0  0  0  0  0  0  0
    1.3637    5.1168    8.2401 H   0  0  0  0  0  0  0  0  0  0  0  0
   -1.1771    3.7436   11.1494 H   0  0  0  0  0  0  0  0  0  0  0  0
    0.5473    2.1701   12.7907 H   0  0  0  0  0  0  0  0  0  0  0  0
    0.2129   -3.1900   16.5090 H   0  0  0  0  0  0  0  0  0  0  0  0
   -2.1950   -3.5962   16.3235 H   0  0  0  0  0  0  0  0  0  0  0  0
   -2.3219   -2.8421   14.0383 H   0  0  0  0  0  0  0  0  0  0  0  0
   -5.3771   -1.5559   13.4984 H   0  0  0  0  0  0  0  0  0  0  0  0
   -3.9652   -2.2622   12.6414 H   0  0  0  0  0  0  0  0  0  0  0  0
   -6.0365   -3.6982   12.4626 H   0  0  0  0  0  0  0  0  0  0  0  0
   -4.6728   -4.5430   13.2707 H   0  0  0  0  0  0  0  0  0  0  0  0
   -6.1601   -4.1429   16.5661 H   0  0  0  0  0  0  0  0  0  0  0  0
   -4.7681   -4.8478   15.6763 H   0  0  0  0  0  0  0  0  0  0  0  0
   -4.0457   -2.8106   16.7755 H   0  0  0  0  0  0  0  0  0  0  0  0
   -5.4223   -1.8946   16.0737 H   0  0  0  0  0  0  0  0  0  0  0  0
  1  2  1  0  0  0  0
  2  3  1  0  0  0  0
  3  4  2  0  0  0  0
  3 27  1  0  0  0  0
  4  5  1  0  0  0  0
  5  6  2  0  0  0  0
  5 25  1  0  0  0  0
  6  7  1  0  0  0  0
  7  8  2  0  0  0  0
  7 15  1  0  0  0  0
  8  9  1  0  0  0  0
  9 10  2  0  0  0  0
  9 16  1  0  0  0  0
 10 11  1  0  0  0  0
 11 12  1  0  0  0  0
 11 15  1  0  0  0  0
 12 13  2  0  0  0  0
 13 14  1  0  0  0  0
 14 15  2  0  0  0  0
 16 17  2  0  0  0  0
 16 24  1  0  0  0  0
 17 18  1  0  0  0  0
 18 19  2  0  0  0  0
 19 20  1  0  0  0  0
 19 23  1  0  0  0  0
 20 21  2  0  0  0  0
 21 22  1  0  0  0  0
 22 23  1  0  0  0  0
 23 24  2  0  0  0  0
 25 26  2  0  0  0  0
 26 27  1  0  0  0  0
 27 28  1  0  0  0  0
 28 29  1  0  0  0  0
 28 33  1  0  0  0  0
 29 30  1  0  0  0  0
 30 31  1  0  0  0  0
 31 32  1  0  0  0  0
 32 33  1  0  0  0  0
  1 34  1  0  0  0  0
  1 35  1  0  0  0  0
  1 36  1  0  0  0  0
  4 37  1  0  0  0  0
 10 38  1  0  0  0  0
 12 39  1  0  0  0  0
 13 40  1  0  0  0  0
 17 41  1  0  0  0  0
 18 42  1  0  0  0  0
 20 43  1  0  0  0  0
 22 44  1  0  0  0  0
 24 45  1  0  0  0  0
 25 46  1  0  0  0  0
 26 47  1  0  0  0  0
 27 48  1  0  0  0  0
 29 49  1  0  0  0  0
 29 50  1  0  0  0  0
 30 51  1  0  0  0  0
 30 52  1  0  0  0  0
 32 53  1  0  0  0  0
 32 54  1  0  0  0  0
 33 55  1  0  0  0  0
 33 56  1  0  0  0  0
M  END
> <IC50[nM]>
0.44

$$$$
CHEMBL3265037
  -OEChem-05192314333D
 Structure written by MMmdl.
 56 61  0     1  0  0  0  0  0999 V2000
   -2.1744    0.6943   12.3856 C   0  0  0  0  0  0  0  0  0  0  0  0
   -2.7023   -0.3474   13.1823 O   0  0  0  0  0  0  0  0  0  0  0  0
   -1.9098   -1.0981   14.0384 C   0  0  0  0  0  0  0  0  0  0  0  0
   -0.5310   -0.8294   14.1803 C   0  0  0  0  0  0  0  0  0  0  0  0
    0.2355   -1.5834   15.0946 C   0  0  0  0  0  0  0  0  0  0  0  0
    1.6117   -1.3596   15.3361 N   0  0  0  0  0  0  0  0  0  0  0  0
    2.5319   -0.4372   14.7774 C   0  0  0  0  0  0  0  0  0  0  0  0
    2.1598    0.3941   13.7549 N   0  0  0  0  0  0  0  0  0  0  0  0
    3.0944    1.2396   13.2243 C   0  0  0  0  0  0  0  0  0  0  0  0
    4.4043    1.2833   13.6944 C   0  0  0  0  0  0  0  0  0  0  0  0
    4.7385    0.4947   14.7556 N   0  0  0  0  0  0  0  0  0  0  0  0
    5.8973    0.3913   15.4817 C   0  0  0  0  0  0  0  0  0  0  0  0
    5.5996   -0.5416   16.5121 C   0  0  0  0  0  0  0  0  0  0  0  0
    4.3864   -1.0493   16.3602 N   0  0  0  0  0  0  0  0  0  0  0  0
    3.8356   -0.3858   15.3271 C   0  0  0  0  0  0  0  0  0  0  0  0
    2.6225    2.1542   12.1213 C   0  0  0  0  0  0  0  0  0  0  0  0
    3.5396    2.6409   11.1644 C   0  0  0  0  0  0  0  0  0  0  0  0
    3.1535    3.4630   10.1051 C   0  0  0  0  0  0  0  0  0  0  0  0
    1.8086    3.8199   10.0132 C   0  0  0  0  0  0  0  0  0  0  0  0
    0.9978    4.6054    9.1182 C   0  0  0  0  0  0  0  0  0  0  0  0
   -0.2423    4.6093    9.5224 N   0  0  0  0  0  0  0  0  0  0  0  0
   -0.3299    3.8832   10.6368 N   0  0  0  0  0  0  0  0  0  0  0  0
    0.8842    3.3496   10.9964 C   0  0  0  0  0  0  0  0  0  0  0  0
    1.2618    2.5164   12.0586 C   0  0  0  0  0  0  0  0  0  0  0  0
   -0.3784   -2.5892   15.8339 C   0  0  0  0  0  0  0  0  0  0  0  0
   -1.7343   -2.8306   15.7168 C   0  0  0  0  0  0  0  0  0  0  0  0
   -2.5117   -2.0982   14.8261 C   0  0  3  0  0  0  0  0  0  0  0  0
   -3.8736   -2.3467   14.7445 N   0  0  0  0  0  0  0  0  0  0  0  0
   -4.6489   -2.3804   13.4950 C   0  0  0  0  0  0  0  0  0  0  0  0
   -5.4028   -3.7252   13.3613 C   0  0  0  0  0  0  0  0  0  0  0  0
   -6.2201   -3.9495   14.5061 O   0  0  0  0  0  0  0  0  0  0  0  0
   -5.4732   -4.0046   15.7182 C   0  0  0  0  0  0  0  0  0  0  0  0
   -4.7007   -2.7060   15.8980 C   0  0  0  0  0  0  0  0  0  0  0  0
   -2.9815    1.1466   11.7906 H   0  0  0  0  0  0  0  0  0  0  0  0
   -1.7242    1.4599   13.0346 H   0  0  0  0  0  0  0  0  0  0  0  0
   -1.4063    0.2871   11.7117 H   0  0  0  0  0  0  0  0  0  0  0  0
   -0.0657   -0.0517   13.5928 H   0  0  0  0  0  0  0  0  0  0  0  0
    5.1376    1.9259   13.2300 H   0  0  0  0  0  0  0  0  0  0  0  0
    6.8310    0.9057   15.3087 H   0  0  0  0  0  0  0  0  0  0  0  0
    6.2747   -0.8021   17.3139 H   0  0  0  0  0  0  0  0  0  0  0  0
    4.5801    2.3663   11.2559 H   0  0  0  0  0  0  0  0  0  0  0  0
    3.8734    3.8118    9.3795 H   0  0  0  0  0  0  0  0  0  0  0  0
    1.3637    5.1168    8.2401 H   0  0  0  0  0  0  0  0  0  0  0  0
   -1.0012    5.0789    9.0713 H   0  0  0  0  0  0  0  0  0  0  0  0
    0.5473    2.1701   12.7907 H   0  0  0  0  0  0  0  0  0  0  0  0
    0.2129   -3.1900   16.5090 H   0  0  0  0  0  0  0  0  0  0  0  0
   -2.1950   -3.5962   16.3235 H   0  0  0  0  0  0  0  0  0  0  0  0
   -2.3219   -2.8421   14.0383 H   0  0  0  0  0  0  0  0  0  0  0  0
   -5.3771   -1.5559   13.4984 H   0  0  0  0  0  0  0  0  0  0  0  0
   -3.9652   -2.2622   12.6414 H   0  0  0  0  0  0  0  0  0  0  0  0
   -6.0365   -3.6982   12.4626 H   0  0  0  0  0  0  0  0  0  0  0  0
   -4.6728   -4.5430   13.2707 H   0  0  0  0  0  0  0  0  0  0  0  0
   -6.1601   -4.1429   16.5661 H   0  0  0  0  0  0  0  0  0  0  0  0
   -4.7681   -4.8478   15.6763 H   0  0  0  0  0  0  0  0  0  0  0  0
   -4.0457   -2.8106   16.7755 H   0  0  0  0  0  0  0  0  0  0  0  0
   -5.4223   -1.8946   16.0737 H   0  0  0  0  0  0  0  0  0  0  0  0
  1  2  1  0  0  0  0
  2  3  1  0  0  0  0
  3  4  2  0  0  0  0
  3 27  1  0  0  0  0
  4  5  1  0  0  0  0
  5  6  2  0  0  0  0
  5 25  1  0  0  0  0
  6  7  1  0  0  0  0
  7  8  2  0  0  0  0
  7 15  1  0  0  0  0
  8  9  1  0  0  0  0
  9 10  2  0  0  0  0
  9 16  1  0  0  0  0
 10 11  1  0  0  0  0
 11 12  1  0  0  0  0
 11 15  1  0  0  0  0
 12 13  2  0  0  0  0
 13 14  1  0  0  0  0
 14 15  2  0  0  0  0
 16 17  1  0  0  0  0
 16 24  2  0  0  0  0
 17 18  2  0  0  0  0
 18 19  1  0  0  0  0
 19 20  2  0  0  0  0
 19 23  1  0  0  0  0
 20 21  1  0  0  0  0
 21 22  1  0  0  0  0
 22 23  2  0  0  0  0
 23 24  1  0  0  0  0
 25 26  2  0  0  0  0
 26 27  1  0  0  0  0
 27 28  1  0  0  0  0
 28 29  1  0  0  0  0
 28 33  1  0  0  0  0
 29 30  1  0  0  0  0
 30 31  1  0  0  0  0
 31 32  1  0  0  0  0
 32 33  1  0  0  0  0
  1 34  1  0  0  0  0
  1 35  1  0  0  0  0
  1 36  1  0  0  0  0
  4 37  1  0  0  0  0
 10 38  1  0  0  0  0
 12 39  1  0  0  0  0
 13 40  1  0  0  0  0
 17 41  1  0  0  0  0
 18 42  1  0  0  0  0
 20 43  1  0  0  0  0
 21 44  1  0  0  0  0
 24 45  1  0  0  0  0
 25 46  1  0  0  0  0
 26 47  1  0  0  0  0
 27 48  1  0  0  0  0
 29 49  1  0  0  0  0
 29 50  1  0  0  0  0
 30 51  1  0  0  0  0
 30 52  1  0  0  0  0
 32 53  1  0  0  0  0
 32 54  1  0  0  0  0
 33 55  1  0  0  0  0
 33 56  1  0  0  0  0
M  END
> <IC50[nM]>
0.44

$$$$
CHEMBL3265037
  -OEChem-05192314333D
 Structure written by MMmdl.
 56 61  0     0  0  0  0  0  0999 V2000
   -2.1744    0.6943   12.3856 C   0  0  0  0  0  0  0  0  0  0  0  0
   -2.7023   -0.3474   13.1823 O   0  0  0  0  0  0  0  0  0  0  0  0
   -1.9098   -1.0981   14.0384 C   0  0  0  0  0  0  0  0  0  0  0  0
   -0.5310   -0.8294   14.1803 C   0  0  0  0  0  0  0  0  0  0  0  0
    0.2355   -1.5834   15.0946 C   0  0  0  0  0  0  0  0  0  0  0  0
    1.6117   -1.3596   15.3361 N   0  0  0  0  0  0  0  0  0  0  0  0
    2.5319   -0.4372   14.7774 C   0  0  0  0  0  0  0  0  0  0  0  0
    2.1598    0.3941   13.7549 N   0  0  0  0  0  0  0  0  0  0  0  0
    3.0944    1.2396   13.2243 C   0  0  0  0  0  0  0  0  0  0  0  0
    4.4043    1.2833   13.6944 C   0  0  0  0  0  0  0  0  0  0  0  0
    4.7385    0.4947   14.7556 N   0  0  0  0  0  0  0  0  0  0  0  0
    5.8973    0.3913   15.4817 C   0  0  0  0  0  0  0  0  0  0  0  0
    5.5996   -0.5416   16.5121 C   0  0  0  0  0  0  0  0  0  0  0  0
    4.3864   -1.0493   16.3602 N   0  0  0  0  0  0  0  0  0  0  0  0
    3.8356   -0.3858   15.3271 C   0  0  0  0  0  0  0  0  0  0  0  0
    2.6225    2.1542   12.1213 C   0  0  0  0  0  0  0  0  0  0  0  0
    3.5396    2.6409   11.1644 C   0  0  0  0  0  0  0  0  0  0  0  0
    3.1535    3.4630   10.1051 C   0  0  0  0  0  0  0  0  0  0  0  0
    1.8086    3.8199   10.0132 C   0  0  0  0  0  0  0  0  0  0  0  0
    0.9978    4.6054    9.1182 C   0  0  0  0  0  0  0  0  0  0  0  0
   -0.2423    4.6093    9.5224 N   0  0  0  0  0  0  0  0  0  0  0  0
   -0.3299    3.8832   10.6368 N   0  0  0  0  0  0  0  0  0  0  0  0
    0.8842    3.3496   10.9964 C   0  0  0  0  0  0  0  0  0  0  0  0
    1.2618    2.5164   12.0586 C   0  0  0  0  0  0  0  0  0  0  0  0
   -0.3784   -2.5892   15.8339 C   0  0  0  0  0  0  0  0  0  0  0  0
   -1.7343   -2.8306   15.7168 C   0  0  0  0  0  0  0  0  0  0  0  0
   -2.5117   -2.0982   14.8261 C   0  0  0  0  0  0  0  0  0  0  0  0
   -3.8736   -2.3467   14.7445 N   0  0  0  0  0  0  0  0  0  0  0  0
   -4.6489   -2.3804   13.4950 C   0  0  0  0  0  0  0  0  0  0  0  0
   -5.4028   -3.7252   13.3613 C   0  0  0  0  0  0  0  0  0  0  0  0
   -6.2201   -3.9495   14.5061 O   0  0  0  0  0  0  0  0  0  0  0  0
   -5.4732   -4.0046   15.7182 C   0  0  0  0  0  0  0  0  0  0  0  0
   -4.7007   -2.7060   15.8980 C   0  0  0  0  0  0  0  0  0  0  0  0
   -2.9815    1.1466   11.7906 H   0  0  0  0  0  0  0  0  0  0  0  0
   -1.7242    1.4599   13.0346 H   0  0  0  0  0  0  0  0  0  0  0  0
   -1.4063    0.2871   11.7117 H   0  0  0  0  0  0  0  0  0  0  0  0
   -0.0657   -0.0517   13.5928 H   0  0  0  0  0  0  0  0  0  0  0  0
    5.1376    1.9259   13.2300 H   0  0  0  0  0  0  0  0  0  0  0  0
    6.8310    0.9057   15.3087 H   0  0  0  0  0  0  0  0  0  0  0  0
    6.2747   -0.8021   17.3139 H   0  0  0  0  0  0  0  0  0  0  0  0
    4.5801    2.3663   11.2559 H   0  0  0  0  0  0  0  0  0  0  0  0
    3.8734    3.8118    9.3795 H   0  0  0  0  0  0  0  0  0  0  0  0
    1.3637    5.1168    8.2401 H   0  0  0  0  0  0  0  0  0  0  0  0
   -1.1771    3.7436   11.1494 H   0  0  0  0  0  0  0  0  0  0  0  0
    0.5473    2.1701   12.7907 H   0  0  0  0  0  0  0  0  0  0  0  0
    0.1306   -3.5276   15.5689 H   0  0  0  0  0  0  0  0  0  0  0  0
   -0.1920   -2.3574   16.8929 H   0  0  0  0  0  0  0  0  0  0  0  0
   -2.1950   -3.5962   16.3235 H   0  0  0  0  0  0  0  0  0  0  0  0
   -5.3771   -1.5559   13.4984 H   0  0  0  0  0  0  0  0  0  0  0  0
   -3.9652   -2.2622   12.6414 H   0  0  0  0  0  0  0  0  0  0  0  0
   -6.0365   -3.6982   12.4626 H   0  0  0  0  0  0  0  0  0  0  0  0
   -4.6728   -4.5430   13.2707 H   0  0  0  0  0  0  0  0  0  0  0  0
   -6.1601   -4.1429   16.5661 H   0  0  0  0  0  0  0  0  0  0  0  0
   -4.7681   -4.8478   15.6763 H   0  0  0  0  0  0  0  0  0  0  0  0
   -4.0457   -2.8106   16.7755 H   0  0  0  0  0  0  0  0  0  0  0  0
   -5.4223   -1.8946   16.0737 H   0  0  0  0  0  0  0  0  0  0  0  0
  1  2  1  0  0  0  0
  2  3  1  0  0  0  0
  3  4  2  0  0  0  0
  3 27  1  0  0  0  0
  4  5  1  0  0  0  0
  5  6  2  0  0  0  0
  5 25  1  0  0  0  0
  6  7  1  0  0  0  0
  7  8  2  0  0  0  0
  7 15  1  0  0  0  0
  8  9  1  0  0  0  0
  9 10  2  0  0  0  0
  9 16  1  0  0  0  0
 10 11  1  0  0  0  0
 11 12  1  0  0  0  0
 11 15  1  0  0  0  0
 12 13  2  0  0  0  0
 13 14  1  0  0  0  0
 14 15  2  0  0  0  0
 16 17  2  0  0  0  0
 16 24  1  0  0  0  0
 17 18  1  0  0  0  0
 18 19  2  0  0  0  0
 19 20  1  0  0  0  0
 19 23  1  0  0  0  0
 20 21  2  0  0  0  0
 21 22  1  0  0  0  0
 22 23  1  0  0  0  0
 23 24  2  0  0  0  0
 25 26  1  0  0  0  0
 26 27  2  0  0  0  0
 27 28  1  0  0  0  0
 28 29  1  0  0  0  0
 28 33  1  0  0  0  0
 29 30  1  0  0  0  0
 30 31  1  0  0  0  0
 31 32  1  0  0  0  0
 32 33  1  0  0  0  0
  1 34  1  0  0  0  0
  1 35  1  0  0  0  0
  1 36  1  0  0  0  0
  4 37  1  0  0  0  0
 10 38  1  0  0  0  0
 12 39  1  0  0  0  0
 13 40  1  0  0  0  0
 17 41  1  0  0  0  0
 18 42  1  0  0  0  0
 20 43  1  0  0  0  0
 22 44  1  0  0  0  0
 24 45  1  0  0  0  0
 25 46  1  0  0  0  0
 25 47  1  0  0  0  0
 26 48  1  0  0  0  0
 29 49  1  0  0  0  0
 29 50  1  0  0  0  0
 30 51  1  0  0  0  0
 30 52  1  0  0  0  0
 32 53  1  0  0  0  0
 32 54  1  0  0  0  0
 33 55  1  0  0  0  0
 33 56  1  0  0  0  0
M  END
> <IC50[nM]>
0.44

$$$$
CHEMBL3265037
  -OEChem-05192314333D
 Structure written by MMmdl.
 56 61  0     0  0  0  0  0  0999 V2000
   -2.1744    0.6943   12.3856 C   0  0  0  0  0  0  0  0  0  0  0  0
   -2.7023   -0.3474   13.1823 O   0  0  0  0  0  0  0  0  0  0  0  0
   -1.9098   -1.0981   14.0384 C   0  0  0  0  0  0  0  0  0  0  0  0
   -0.5310   -0.8294   14.1803 C   0  0  0  0  0  0  0  0  0  0  0  0
    0.2355   -1.5834   15.0946 C   0  0  0  0  0  0  0  0  0  0  0  0
    1.6117   -1.3596   15.3361 N   0  0  0  0  0  0  0  0  0  0  0  0
    2.5319   -0.4372   14.7774 C   0  0  0  0  0  0  0  0  0  0  0  0
    2.1598    0.3941   13.7549 N   0  0  0  0  0  0  0  0  0  0  0  0
    3.0944    1.2396   13.2243 C   0  0  0  0  0  0  0  0  0  0  0  0
    4.4043    1.2833   13.6944 C   0  0  0  0  0  0  0  0  0  0  0  0
    4.7385    0.4947   14.7556 N   0  0  0  0  0  0  0  0  0  0  0  0
    5.8973    0.3913   15.4817 C   0  0  0  0  0  0  0  0  0  0  0  0
    5.5996   -0.5416   16.5121 C   0  0  0  0  0  0  0  0  0  0  0  0
    4.3864   -1.0493   16.3602 N   0  0  0  0  0  0  0  0  0  0  0  0
    3.8356   -0.3858   15.3271 C   0  0  0  0  0  0  0  0  0  0  0  0
    2.6225    2.1542   12.1213 C   0  0  0  0  0  0  0  0  0  0  0  0
    3.5396    2.6409   11.1644 C   0  0  0  0  0  0  0  0  0  0  0  0
    3.1535    3.4630   10.1051 C   0  0  0  0  0  0  0  0  0  0  0  0
    1.8086    3.8199   10.0132 C   0  0  0  0  0  0  0  0  0  0  0  0
    0.9978    4.6054    9.1182 C   0  0  0  0  0  0  0  0  0  0  0  0
   -0.2423    4.6093    9.5224 N   0  0  0  0  0  0  0  0  0  0  0  0
   -0.3299    3.8832   10.6368 N   0  0  0  0  0  0  0  0  0  0  0  0
    0.8842    3.3496   10.9964 C   0  0  0  0  0  0  0  0  0  0  0  0
    1.2618    2.5164   12.0586 C   0  0  0  0  0  0  0  0  0  0  0  0
   -0.3784   -2.5892   15.8339 C   0  0  0  0  0  0  0  0  0  0  0  0
   -1.7343   -2.8306   15.7168 C   0  0  0  0  0  0  0  0  0  0  0  0
   -2.5117   -2.0982   14.8261 C   0  0  0  0  0  0  0  0  0  0  0  0
   -3.8736   -2.3467   14.7445 N   0  0  0  0  0  0  0  0  0  0  0  0
   -4.6489   -2.3804   13.4950 C   0  0  0  0  0  0  0  0  0  0  0  0
   -5.4028   -3.7252   13.3613 C   0  0  0  0  0  0  0  0  0  0  0  0
   -6.2201   -3.9495   14.5061 O   0  0  0  0  0  0  0  0  0  0  0  0
   -5.4732   -4.0046   15.7182 C   0  0  0  0  0  0  0  0  0  0  0  0
   -4.7007   -2.7060   15.8980 C   0  0  0  0  0  0  0  0  0  0  0  0
   -2.9815    1.1466   11.7906 H   0  0  0  0  0  0  0  0  0  0  0  0
   -1.7242    1.4599   13.0346 H   0  0  0  0  0  0  0  0  0  0  0  0
   -1.4063    0.2871   11.7117 H   0  0  0  0  0  0  0  0  0  0  0  0
   -0.0657   -0.0517   13.5928 H   0  0  0  0  0  0  0  0  0  0  0  0
    5.1376    1.9259   13.2300 H   0  0  0  0  0  0  0  0  0  0  0  0
    6.8310    0.9057   15.3087 H   0  0  0  0  0  0  0  0  0  0  0  0
    6.2747   -0.8021   17.3139 H   0  0  0  0  0  0  0  0  0  0  0  0
    4.5801    2.3663   11.2559 H   0  0  0  0  0  0  0  0  0  0  0  0
    3.8734    3.8118    9.3795 H   0  0  0  0  0  0  0  0  0  0  0  0
    1.3637    5.1168    8.2401 H   0  0  0  0  0  0  0  0  0  0  0  0
   -1.0012    5.0789    9.0713 H   0  0  0  0  0  0  0  0  0  0  0  0
    0.5473    2.1701   12.7907 H   0  0  0  0  0  0  0  0  0  0  0  0
    0.1306   -3.5276   15.5689 H   0  0  0  0  0  0  0  0  0  0  0  0
   -0.1920   -2.3574   16.8929 H   0  0  0  0  0  0  0  0  0  0  0  0
   -2.1950   -3.5962   16.3235 H   0  0  0  0  0  0  0  0  0  0  0  0
   -5.3771   -1.5559   13.4984 H   0  0  0  0  0  0  0  0  0  0  0  0
   -3.9652   -2.2622   12.6414 H   0  0  0  0  0  0  0  0  0  0  0  0
   -6.0365   -3.6982   12.4626 H   0  0  0  0  0  0  0  0  0  0  0  0
   -4.6728   -4.5430   13.2707 H   0  0  0  0  0  0  0  0  0  0  0  0
   -6.1601   -4.1429   16.5661 H   0  0  0  0  0  0  0  0  0  0  0  0
   -4.7681   -4.8478   15.6763 H   0  0  0  0  0  0  0  0  0  0  0  0
   -4.0457   -2.8106   16.7755 H   0  0  0  0  0  0  0  0  0  0  0  0
   -5.4223   -1.8946   16.0737 H   0  0  0  0  0  0  0  0  0  0  0  0
  1  2  1  0  0  0  0
  2  3  1  0  0  0  0
  3  4  2  0  0  0  0
  3 27  1  0  0  0  0
  4  5  1  0  0  0  0
  5  6  2  0  0  0  0
  5 25  1  0  0  0  0
  6  7  1  0  0  0  0
  7  8  2  0  0  0  0
  7 15  1  0  0  0  0
  8  9  1  0  0  0  0
  9 10  2  0  0  0  0
  9 16  1  0  0  0  0
 10 11  1  0  0  0  0
 11 12  1  0  0  0  0
 11 15  1  0  0  0  0
 12 13  2  0  0  0  0
 13 14  1  0  0  0  0
 14 15  2  0  0  0  0
 16 17  1  0  0  0  0
 16 24  2  0  0  0  0
 17 18  2  0  0  0  0
 18 19  1  0  0  0  0
 19 20  2  0  0  0  0
 19 23  1  0  0  0  0
 20 21  1  0  0  0  0
 21 22  1  0  0  0  0
 22 23  2  0  0  0  0
 23 24  1  0  0  0  0
 25 26  1  0  0  0  0
 26 27  2  0  0  0  0
 27 28  1  0  0  0  0
 28 29  1  0  0  0  0
 28 33  1  0  0  0  0
 29 30  1  0  0  0  0
 30 31  1  0  0  0  0
 31 32  1  0  0  0  0
 32 33  1  0  0  0  0
  1 34  1  0  0  0  0
  1 35  1  0  0  0  0
  1 36  1  0  0  0  0
  4 37  1  0  0  0  0
 10 38  1  0  0  0  0
 12 39  1  0  0  0  0
 13 40  1  0  0  0  0
 17 41  1  0  0  0  0
 18 42  1  0  0  0  0
 20 43  1  0  0  0  0
 21 44  1  0  0  0  0
 24 45  1  0  0  0  0
 25 46  1  0  0  0  0
 25 47  1  0  0  0  0
 26 48  1  0  0  0  0
 29 49  1  0  0  0  0
 29 50  1  0  0  0  0
 30 51  1  0  0  0  0
 30 52  1  0  0  0  0
 32 53  1  0  0  0  0
 32 54  1  0  0  0  0
 33 55  1  0  0  0  0
 33 56  1  0  0  0  0
M  END
> <IC50[nM]>
0.44

$$$$
CHEMBL3265037
  -OEChem-05192314333D
 Structure written by MMmdl.
 56 61  0     0  0  0  0  0  0999 V2000
   -2.1744    0.6943   12.3856 C   0  0  0  0  0  0  0  0  0  0  0  0
   -2.7023   -0.3474   13.1823 O   0  0  0  0  0  0  0  0  0  0  0  0
   -1.9098   -1.0981   14.0384 C   0  0  0  0  0  0  0  0  0  0  0  0
   -0.5310   -0.8294   14.1803 C   0  0  0  0  0  0  0  0  0  0  0  0
    0.2355   -1.5834   15.0946 C   0  0  0  0  0  0  0  0  0  0  0  0
    1.6117   -1.3596   15.3361 N   0  0  0  0  0  0  0  0  0  0  0  0
    2.5319   -0.4372   14.7774 C   0  0  0  0  0  0  0  0  0  0  0  0
    2.1598    0.3941   13.7549 N   0  0  0  0  0  0  0  0  0  0  0  0
    3.0944    1.2396   13.2243 C   0  0  0  0  0  0  0  0  0  0  0  0
    4.4043    1.2833   13.6944 C   0  0  0  0  0  0  0  0  0  0  0  0
    4.7385    0.4947   14.7556 N   0  0  0  0  0  0  0  0  0  0  0  0
    5.8973    0.3913   15.4817 C   0  0  0  0  0  0  0  0  0  0  0  0
    5.5996   -0.5416   16.5121 C   0  0  0  0  0  0  0  0  0  0  0  0
    4.3864   -1.0493   16.3602 N   0  0  0  0  0  0  0  0  0  0  0  0
    3.8356   -0.3858   15.3271 C   0  0  0  0  0  0  0  0  0  0  0  0
    2.6225    2.1542   12.1213 C   0  0  0  0  0  0  0  0  0  0  0  0
    3.5396    2.6409   11.1644 C   0  0  0  0  0  0  0  0  0  0  0  0
    3.1535    3.4630   10.1051 C   0  0  0  0  0  0  0  0  0  0  0  0
    1.8086    3.8199   10.0132 C   0  0  0  0  0  0  0  0  0  0  0  0
    0.9978    4.6054    9.1182 C   0  0  0  0  0  0  0  0  0  0  0  0
   -0.2423    4.6093    9.5224 N   0  0  0  0  0  0  0  0  0  0  0  0
   -0.3299    3.8832   10.6368 N   0  0  0  0  0  0  0  0  0  0  0  0
    0.8842    3.3496   10.9964 C   0  0  0  0  0  0  0  0  0  0  0  0
    1.2618    2.5164   12.0586 C   0  0  0  0  0  0  0  0  0  0  0  0
   -0.3784   -2.5892   15.8339 C   0  0  0  0  0  0  0  0  0  0  0  0
   -1.7343   -2.8306   15.7168 C   0  0  0  0  0  0  0  0  0  0  0  0
   -2.5117   -2.0982   14.8261 C   0  0  0  0  0  0  0  0  0  0  0  0
   -3.8736   -2.3467   14.7445 N   0  0  0  0  0  0  0  0  0  0  0  0
   -4.6489   -2.3804   13.4950 C   0  0  0  0  0  0  0  0  0  0  0  0
   -5.4028   -3.7252   13.3613 C   0  0  0  0  0  0  0  0  0  0  0  0
   -6.2201   -3.9495   14.5061 O   0  0  0  0  0  0  0  0  0  0  0  0
   -5.4732   -4.0046   15.7182 C   0  0  0  0  0  0  0  0  0  0  0  0
   -4.7007   -2.7060   15.8980 C   0  0  0  0  0  0  0  0  0  0  0  0
   -2.9815    1.1466   11.7906 H   0  0  0  0  0  0  0  0  0  0  0  0
   -1.7242    1.4599   13.0346 H   0  0  0  0  0  0  0  0  0  0  0  0
   -1.4063    0.2871   11.7117 H   0  0  0  0  0  0  0  0  0  0  0  0
   -0.0746   -0.9691   13.1892 H   0  0  0  0  0  0  0  0  0  0  0  0
   -0.4402    0.2250   14.4805 H   0  0  0  0  0  0  0  0  0  0  0  0
    5.1376    1.9259   13.2300 H   0  0  0  0  0  0  0  0  0  0  0  0
    6.8310    0.9057   15.3087 H   0  0  0  0  0  0  0  0  0  0  0  0
    6.2747   -0.8021   17.3139 H   0  0  0  0  0  0  0  0  0  0  0  0
    4.5801    2.3663   11.2559 H   0  0  0  0  0  0  0  0  0  0  0  0
    3.8734    3.8118    9.3795 H   0  0  0  0  0  0  0  0  0  0  0  0
    1.3637    5.1168    8.2401 H   0  0  0  0  0  0  0  0  0  0  0  0
   -1.1771    3.7436   11.1494 H   0  0  0  0  0  0  0  0  0  0  0  0
    0.5473    2.1701   12.7907 H   0  0  0  0  0  0  0  0  0  0  0  0
    0.2129   -3.1900   16.5090 H   0  0  0  0  0  0  0  0  0  0  0  0
   -2.1950   -3.5962   16.3235 H   0  0  0  0  0  0  0  0  0  0  0  0
   -5.3771   -1.5559   13.4984 H   0  0  0  0  0  0  0  0  0  0  0  0
   -3.9652   -2.2622   12.6414 H   0  0  0  0  0  0  0  0  0  0  0  0
   -6.0365   -3.6982   12.4626 H   0  0  0  0  0  0  0  0  0  0  0  0
   -4.6728   -4.5430   13.2707 H   0  0  0  0  0  0  0  0  0  0  0  0
   -6.1601   -4.1429   16.5661 H   0  0  0  0  0  0  0  0  0  0  0  0
   -4.7681   -4.8478   15.6763 H   0  0  0  0  0  0  0  0  0  0  0  0
   -4.0457   -2.8106   16.7755 H   0  0  0  0  0  0  0  0  0  0  0  0
   -5.4223   -1.8946   16.0737 H   0  0  0  0  0  0  0  0  0  0  0  0
  1  2  1  0  0  0  0
  2  3  1  0  0  0  0
  3  4  1  0  0  0  0
  3 27  2  0  0  0  0
  4  5  1  0  0  0  0
  5  6  2  0  0  0  0
  5 25  1  0  0  0  0
  6  7  1  0  0  0  0
  7  8  2  0  0  0  0
  7 15  1  0  0  0  0
  8  9  1  0  0  0  0
  9 10  2  0  0  0  0
  9 16  1  0  0  0  0
 10 11  1  0  0  0  0
 11 12  1  0  0  0  0
 11 15  1  0  0  0  0
 12 13  2  0  0  0  0
 13 14  1  0  0  0  0
 14 15  2  0  0  0  0
 16 17  2  0  0  0  0
 16 24  1  0  0  0  0
 17 18  1  0  0  0  0
 18 19  2  0  0  0  0
 19 20  1  0  0  0  0
 19 23  1  0  0  0  0
 20 21  2  0  0  0  0
 21 22  1  0  0  0  0
 22 23  1  0  0  0  0
 23 24  2  0  0  0  0
 25 26  2  0  0  0  0
 26 27  1  0  0  0  0
 27 28  1  0  0  0  0
 28 29  1  0  0  0  0
 28 33  1  0  0  0  0
 29 30  1  0  0  0  0
 30 31  1  0  0  0  0
 31 32  1  0  0  0  0
 32 33  1  0  0  0  0
  1 34  1  0  0  0  0
  1 35  1  0  0  0  0
  1 36  1  0  0  0  0
  4 37  1  0  0  0  0
  4 38  1  0  0  0  0
 10 39  1  0  0  0  0
 12 40  1  0  0  0  0
 13 41  1  0  0  0  0
 17 42  1  0  0  0  0
 18 43  1  0  0  0  0
 20 44  1  0  0  0  0
 22 45  1  0  0  0  0
 24 46  1  0  0  0  0
 25 47  1  0  0  0  0
 26 48  1  0  0  0  0
 29 49  1  0  0  0  0
 29 50  1  0  0  0  0
 30 51  1  0  0  0  0
 30 52  1  0  0  0  0
 32 53  1  0  0  0  0
 32 54  1  0  0  0  0
 33 55  1  0  0  0  0
 33 56  1  0  0  0  0
M  END
> <IC50[nM]>
0.44

$$$$
CHEMBL3265037
  -OEChem-05192314333D
 Structure written by MMmdl.
 56 61  0     0  0  0  0  0  0999 V2000
   -2.1744    0.6943   12.3856 C   0  0  0  0  0  0  0  0  0  0  0  0
   -2.7023   -0.3474   13.1823 O   0  0  0  0  0  0  0  0  0  0  0  0
   -1.9098   -1.0981   14.0384 C   0  0  0  0  0  0  0  0  0  0  0  0
   -0.5310   -0.8294   14.1803 C   0  0  0  0  0  0  0  0  0  0  0  0
    0.2355   -1.5834   15.0946 C   0  0  0  0  0  0  0  0  0  0  0  0
    1.6117   -1.3596   15.3361 N   0  0  0  0  0  0  0  0  0  0  0  0
    2.5319   -0.4372   14.7774 C   0  0  0  0  0  0  0  0  0  0  0  0
    2.1598    0.3941   13.7549 N   0  0  0  0  0  0  0  0  0  0  0  0
    3.0944    1.2396   13.2243 C   0  0  0  0  0  0  0  0  0  0  0  0
    4.4043    1.2833   13.6944 C   0  0  0  0  0  0  0  0  0  0  0  0
    4.7385    0.4947   14.7556 N   0  0  0  0  0  0  0  0  0  0  0  0
    5.8973    0.3913   15.4817 C   0  0  0  0  0  0  0  0  0  0  0  0
    5.5996   -0.5416   16.5121 C   0  0  0  0  0  0  0  0  0  0  0  0
    4.3864   -1.0493   16.3602 N   0  0  0  0  0  0  0  0  0  0  0  0
    3.8356   -0.3858   15.3271 C   0  0  0  0  0  0  0  0  0  0  0  0
    2.6225    2.1542   12.1213 C   0  0  0  0  0  0  0  0  0  0  0  0
    3.5396    2.6409   11.1644 C   0  0  0  0  0  0  0  0  0  0  0  0
    3.1535    3.4630   10.1051 C   0  0  0  0  0  0  0  0  0  0  0  0
    1.8086    3.8199   10.0132 C   0  0  0  0  0  0  0  0  0  0  0  0
    0.9978    4.6054    9.1182 C   0  0  0  0  0  0  0  0  0  0  0  0
   -0.2423    4.6093    9.5224 N   0  0  0  0  0  0  0  0  0  0  0  0
   -0.3299    3.8832   10.6368 N   0  0  0  0  0  0  0  0  0  0  0  0
    0.8842    3.3496   10.9964 C   0  0  0  0  0  0  0  0  0  0  0  0
    1.2618    2.5164   12.0586 C   0  0  0  0  0  0  0  0  0  0  0  0
   -0.3784   -2.5892   15.8339 C   0  0  0  0  0  0  0  0  0  0  0  0
   -1.7343   -2.8306   15.7168 C   0  0  0  0  0  0  0  0  0  0  0  0
   -2.5117   -2.0982   14.8261 C   0  0  0  0  0  0  0  0  0  0  0  0
   -3.8736   -2.3467   14.7445 N   0  0  0  0  0  0  0  0  0  0  0  0
   -4.6489   -2.3804   13.4950 C   0  0  0  0  0  0  0  0  0  0  0  0
   -5.4028   -3.7252   13.3613 C   0  0  0  0  0  0  0  0  0  0  0  0
   -6.2201   -3.9495   14.5061 O   0  0  0  0  0  0  0  0  0  0  0  0
   -5.4732   -4.0046   15.7182 C   0  0  0  0  0  0  0  0  0  0  0  0
   -4.7007   -2.7060   15.8980 C   0  0  0  0  0  0  0  0  0  0  0  0
   -2.9815    1.1466   11.7906 H   0  0  0  0  0  0  0  0  0  0  0  0
   -1.7242    1.4599   13.0346 H   0  0  0  0  0  0  0  0  0  0  0  0
   -1.4063    0.2871   11.7117 H   0  0  0  0  0  0  0  0  0  0  0  0
   -0.0746   -0.9691   13.1892 H   0  0  0  0  0  0  0  0  0  0  0  0
   -0.4402    0.2250   14.4805 H   0  0  0  0  0  0  0  0  0  0  0  0
    5.1376    1.9259   13.2300 H   0  0  0  0  0  0  0  0  0  0  0  0
    6.8310    0.9057   15.3087 H   0  0  0  0  0  0  0  0  0  0  0  0
    6.2747   -0.8021   17.3139 H   0  0  0  0  0  0  0  0  0  0  0  0
    4.5801    2.3663   11.2559 H   0  0  0  0  0  0  0  0  0  0  0  0
    3.8734    3.8118    9.3795 H   0  0  0  0  0  0  0  0  0  0  0  0
    1.3637    5.1168    8.2401 H   0  0  0  0  0  0  0  0  0  0  0  0
   -1.0012    5.0789    9.0713 H   0  0  0  0  0  0  0  0  0  0  0  0
    0.5473    2.1701   12.7907 H   0  0  0  0  0  0  0  0  0  0  0  0
    0.2129   -3.1900   16.5090 H   0  0  0  0  0  0  0  0  0  0  0  0
   -2.1950   -3.5962   16.3235 H   0  0  0  0  0  0  0  0  0  0  0  0
   -5.3771   -1.5559   13.4984 H   0  0  0  0  0  0  0  0  0  0  0  0
   -3.9652   -2.2622   12.6414 H   0  0  0  0  0  0  0  0  0  0  0  0
   -6.0365   -3.6982   12.4626 H   0  0  0  0  0  0  0  0  0  0  0  0
   -4.6728   -4.5430   13.2707 H   0  0  0  0  0  0  0  0  0  0  0  0
   -6.1601   -4.1429   16.5661 H   0  0  0  0  0  0  0  0  0  0  0  0
   -4.7681   -4.8478   15.6763 H   0  0  0  0  0  0  0  0  0  0  0  0
   -4.0457   -2.8106   16.7755 H   0  0  0  0  0  0  0  0  0  0  0  0
   -5.4223   -1.8946   16.0737 H   0  0  0  0  0  0  0  0  0  0  0  0
  1  2  1  0  0  0  0
  2  3  1  0  0  0  0
  3  4  1  0  0  0  0
  3 27  2  0  0  0  0
  4  5  1  0  0  0  0
  5  6  2  0  0  0  0
  5 25  1  0  0  0  0
  6  7  1  0  0  0  0
  7  8  2  0  0  0  0
  7 15  1  0  0  0  0
  8  9  1  0  0  0  0
  9 10  2  0  0  0  0
  9 16  1  0  0  0  0
 10 11  1  0  0  0  0
 11 12  1  0  0  0  0
 11 15  1  0  0  0  0
 12 13  2  0  0  0  0
 13 14  1  0  0  0  0
 14 15  2  0  0  0  0
 16 17  1  0  0  0  0
 16 24  2  0  0  0  0
 17 18  2  0  0  0  0
 18 19  1  0  0  0  0
 19 20  2  0  0  0  0
 19 23  1  0  0  0  0
 20 21  1  0  0  0  0
 21 22  1  0  0  0  0
 22 23  2  0  0  0  0
 23 24  1  0  0  0  0
 25 26  2  0  0  0  0
 26 27  1  0  0  0  0
 27 28  1  0  0  0  0
 28 29  1  0  0  0  0
 28 33  1  0  0  0  0
 29 30  1  0  0  0  0
 30 31  1  0  0  0  0
 31 32  1  0  0  0  0
 32 33  1  0  0  0  0
  1 34  1  0  0  0  0
  1 35  1  0  0  0  0
  1 36  1  0  0  0  0
  4 37  1  0  0  0  0
  4 38  1  0  0  0  0
 10 39  1  0  0  0  0
 12 40  1  0  0  0  0
 13 41  1  0  0  0  0
 17 42  1  0  0  0  0
 18 43  1  0  0  0  0
 20 44  1  0  0  0  0
 21 45  1  0  0  0  0
 24 46  1  0  0  0  0
 25 47  1  0  0  0  0
 26 48  1  0  0  0  0
 29 49  1  0  0  0  0
 29 50  1  0  0  0  0
 30 51  1  0  0  0  0
 30 52  1  0  0  0  0
 32 53  1  0  0  0  0
 32 54  1  0  0  0  0
 33 55  1  0  0  0  0
 33 56  1  0  0  0  0
M  END
> <IC50[nM]>
0.44

$$$$
CHEMBL3265037
  -OEChem-05192314333D
 Structure written by MMmdl.
 56 61  0     0  0  0  0  0  0999 V2000
   -2.1744    0.6943   12.3856 C   0  0  0  0  0  0  0  0  0  0  0  0
   -2.7023   -0.3474   13.1823 O   0  0  0  0  0  0  0  0  0  0  0  0
   -1.9098   -1.0981   14.0384 C   0  0  0  0  0  0  0  0  0  0  0  0
   -0.5310   -0.8294   14.1803 C   0  0  0  0  0  0  0  0  0  0  0  0
    0.2355   -1.5834   15.0946 C   0  0  0  0  0  0  0  0  0  0  0  0
    1.6117   -1.3596   15.3361 N   0  0  0  0  0  0  0  0  0  0  0  0
    2.5319   -0.4372   14.7774 C   0  0  0  0  0  0  0  0  0  0  0  0
    2.1598    0.3941   13.7549 N   0  0  0  0  0  0  0  0  0  0  0  0
    3.0944    1.2396   13.2243 C   0  0  0  0  0  0  0  0  0  0  0  0
    4.4043    1.2833   13.6944 C   0  0  0  0  0  0  0  0  0  0  0  0
    4.7385    0.4947   14.7556 N   0  0  0  0  0  0  0  0  0  0  0  0
    5.8973    0.3913   15.4817 C   0  0  0  0  0  0  0  0  0  0  0  0
    5.5996   -0.5416   16.5121 C   0  0  0  0  0  0  0  0  0  0  0  0
    4.3864   -1.0493   16.3602 N   0  0  0  0  0  0  0  0  0  0  0  0
    3.8356   -0.3858   15.3271 C   0  0  0  0  0  0  0  0  0  0  0  0
    2.6225    2.1542   12.1213 C   0  0  0  0  0  0  0  0  0  0  0  0
    3.5396    2.6409   11.1644 C   0  0  0  0  0  0  0  0  0  0  0  0
    3.1535    3.4630   10.1051 C   0  0  0  0  0  0  0  0  0  0  0  0
    1.8086    3.8199   10.0132 C   0  0  0  0  0  0  0  0  0  0  0  0
    0.9978    4.6054    9.1182 C   0  0  0  0  0  0  0  0  0  0  0  0
   -0.2423    4.6093    9.5224 N   0  0  0  0  0  0  0  0  0  0  0  0
   -0.3299    3.8832   10.6368 N   0  0  0  0  0  0  0  0  0  0  0  0
    0.8842    3.3496   10.9964 C   0  0  0  0  0  0  0  0  0  0  0  0
    1.2618    2.5164   12.0586 C   0  0  0  0  0  0  0  0  0  0  0  0
   -0.3784   -2.5892   15.8339 C   0  0  0  0  0  0  0  0  0  0  0  0
   -1.7343   -2.8306   15.7168 C   0  0  0  0  0  0  0  0  0  0  0  0
   -2.5117   -2.0982   14.8261 C   0  0  0  0  0  0  0  0  0  0  0  0
   -3.8736   -2.3467   14.7445 N   0  0  0  0  0  0  0  0  0  0  0  0
   -4.6489   -2.3804   13.4950 C   0  0  0  0  0  0  0  0  0  0  0  0
   -5.4028   -3.7252   13.3613 C   0  0  0  0  0  0  0  0  0  0  0  0
   -6.2201   -3.9495   14.5061 O   0  0  0  0  0  0  0  0  0  0  0  0
   -5.4732   -4.0046   15.7182 C   0  0  0  0  0  0  0  0  0  0  0  0
   -4.7007   -2.7060   15.8980 C   0  0  0  0  0  0  0  0  0  0  0  0
   -2.9815    1.1466   11.7906 H   0  0  0  0  0  0  0  0  0  0  0  0
   -1.7242    1.4599   13.0346 H   0  0  0  0  0  0  0  0  0  0  0  0
   -1.4063    0.2871   11.7117 H   0  0  0  0  0  0  0  0  0  0  0  0
   -0.0657   -0.0517   13.5928 H   0  0  0  0  0  0  0  0  0  0  0  0
    5.0597    0.9984   12.8582 H   0  0  0  0  0  0  0  0  0  0  0  0
    4.6113    2.3240   13.9845 H   0  0  0  0  0  0  0  0  0  0  0  0
    6.8310    0.9057   15.3087 H   0  0  0  0  0  0  0  0  0  0  0  0
    6.2747   -0.8021   17.3139 H   0  0  0  0  0  0  0  0  0  0  0  0
    4.5801    2.3663   11.2559 H   0  0  0  0  0  0  0  0  0  0  0  0
    3.8734    3.8118    9.3795 H   0  0  0  0  0  0  0  0  0  0  0  0
    1.3764    5.6380    9.0961 H   0  0  0  0  0  0  0  0  0  0  0  0
    1.0495    4.1742    8.1075 H   0  0  0  0  0  0  0  0  0  0  0  0
    0.5473    2.1701   12.7907 H   0  0  0  0  0  0  0  0  0  0  0  0
    0.2129   -3.1900   16.5090 H   0  0  0  0  0  0  0  0  0  0  0  0
   -2.1950   -3.5962   16.3235 H   0  0  0  0  0  0  0  0  0  0  0  0
   -5.3771   -1.5559   13.4984 H   0  0  0  0  0  0  0  0  0  0  0  0
   -3.9652   -2.2622   12.6414 H   0  0  0  0  0  0  0  0  0  0  0  0
   -6.0365   -3.6982   12.4626 H   0  0  0  0  0  0  0  0  0  0  0  0
   -4.6728   -4.5430   13.2707 H   0  0  0  0  0  0  0  0  0  0  0  0
   -6.1601   -4.1429   16.5661 H   0  0  0  0  0  0  0  0  0  0  0  0
   -4.7681   -4.8478   15.6763 H   0  0  0  0  0  0  0  0  0  0  0  0
   -4.0457   -2.8106   16.7755 H   0  0  0  0  0  0  0  0  0  0  0  0
   -5.4223   -1.8946   16.0737 H   0  0  0  0  0  0  0  0  0  0  0  0
  1  2  1  0  0  0  0
  2  3  1  0  0  0  0
  3  4  2  0  0  0  0
  3 27  1  0  0  0  0
  4  5  1  0  0  0  0
  5  6  1  0  0  0  0
  5 25  2  0  0  0  0
  6  7  2  0  0  0  0
  7  8  1  0  0  0  0
  7 15  1  0  0  0  0
  8  9  2  0  0  0  0
  9 10  1  0  0  0  0
  9 16  1  0  0  0  0
 10 11  1  0  0  0  0
 11 12  1  0  0  0  0
 11 15  1  0  0  0  0
 12 13  2  0  0  0  0
 13 14  1  0  0  0  0
 14 15  2  0  0  0  0
 16 17  2  0  0  0  0
 16 24  1  0  0  0  0
 17 18  1  0  0  0  0
 18 19  2  0  0  0  0
 19 20  1  0  0  0  0
 19 23  1  0  0  0  0
 20 21  1  0  0  0  0
 21 22  2  0  0  0  0
 22 23  1  0  0  0  0
 23 24  2  0  0  0  0
 25 26  1  0  0  0  0
 26 27  2  0  0  0  0
 27 28  1  0  0  0  0
 28 29  1  0  0  0  0
 28 33  1  0  0  0  0
 29 30  1  0  0  0  0
 30 31  1  0  0  0  0
 31 32  1  0  0  0  0
 32 33  1  0  0  0  0
  1 34  1  0  0  0  0
  1 35  1  0  0  0  0
  1 36  1  0  0  0  0
  4 37  1  0  0  0  0
 10 38  1  0  0  0  0
 10 39  1  0  0  0  0
 12 40  1  0  0  0  0
 13 41  1  0  0  0  0
 17 42  1  0  0  0  0
 18 43  1  0  0  0  0
 20 44  1  0  0  0  0
 20 45  1  0  0  0  0
 24 46  1  0  0  0  0
 25 47  1  0  0  0  0
 26 48  1  0  0  0  0
 29 49  1  0  0  0  0
 29 50  1  0  0  0  0
 30 51  1  0  0  0  0
 30 52  1  0  0  0  0
 32 53  1  0  0  0  0
 32 54  1  0  0  0  0
 33 55  1  0  0  0  0
 33 56  1  0  0  0  0
M  END
> <IC50[nM]>
0.44

$$$$
CHEMBL3265037
  -OEChem-05192314333D
 Structure written by MMmdl.
 56 61  0     0  0  0  0  0  0999 V2000
   -2.1744    0.6943   12.3856 C   0  0  0  0  0  0  0  0  0  0  0  0
   -2.7023   -0.3474   13.1823 O   0  0  0  0  0  0  0  0  0  0  0  0
   -1.9098   -1.0981   14.0384 C   0  0  0  0  0  0  0  0  0  0  0  0
   -0.5310   -0.8294   14.1803 C   0  0  0  0  0  0  0  0  0  0  0  0
    0.2355   -1.5834   15.0946 C   0  0  0  0  0  0  0  0  0  0  0  0
    1.6117   -1.3596   15.3361 N   0  0  0  0  0  0  0  0  0  0  0  0
    2.5319   -0.4372   14.7774 C   0  0  0  0  0  0  0  0  0  0  0  0
    2.1598    0.3941   13.7549 N   0  0  0  0  0  0  0  0  0  0  0  0
    3.0944    1.2396   13.2243 C   0  0  0  0  0  0  0  0  0  0  0  0
    4.4043    1.2833   13.6944 C   0  0  0  0  0  0  0  0  0  0  0  0
    4.7385    0.4947   14.7556 N   0  0  0  0  0  0  0  0  0  0  0  0
    5.8973    0.3913   15.4817 C   0  0  0  0  0  0  0  0  0  0  0  0
    5.5996   -0.5416   16.5121 C   0  0  0  0  0  0  0  0  0  0  0  0
    4.3864   -1.0493   16.3602 N   0  0  0  0  0  0  0  0  0  0  0  0
    3.8356   -0.3858   15.3271 C   0  0  0  0  0  0  0  0  0  0  0  0
    2.6225    2.1542   12.1213 C   0  0  0  0  0  0  0  0  0  0  0  0
    3.5396    2.6409   11.1644 C   0  0  0  0  0  0  0  0  0  0  0  0
    3.1535    3.4630   10.1051 C   0  0  0  0  0  0  0  0  0  0  0  0
    1.8086    3.8199   10.0132 C   0  0  0  0  0  0  0  0  0  0  0  0
    0.9978    4.6054    9.1182 C   0  0  0  0  0  0  0  0  0  0  0  0
   -0.2423    4.6093    9.5224 N   0  0  0  0  0  0  0  0  0  0  0  0
   -0.3299    3.8832   10.6368 N   0  0  0  0  0  0  0  0  0  0  0  0
    0.8842    3.3496   10.9964 C   0  0  0  0  0  0  0  0  0  0  0  0
    1.2618    2.5164   12.0586 C   0  0  0  0  0  0  0  0  0  0  0  0
   -0.3784   -2.5892   15.8339 C   0  0  0  0  0  0  0  0  0  0  0  0
   -1.7343   -2.8306   15.7168 C   0  0  0  0  0  0  0  0  0  0  0  0
   -2.5117   -2.0982   14.8261 C   0  0  0  0  0  0  0  0  0  0  0  0
   -3.8736   -2.3467   14.7445 N   0  0  0  0  0  0  0  0  0  0  0  0
   -4.6489   -2.3804   13.4950 C   0  0  0  0  0  0  0  0  0  0  0  0
   -5.4028   -3.7252   13.3613 C   0  0  0  0  0  0  0  0  0  0  0  0
   -6.2201   -3.9495   14.5061 O   0  0  0  0  0  0  0  0  0  0  0  0
   -5.4732   -4.0046   15.7182 C   0  0  0  0  0  0  0  0  0  0  0  0
   -4.7007   -2.7060   15.8980 C   0  0  0  0  0  0  0  0  0  0  0  0
   -2.9815    1.1466   11.7906 H   0  0  0  0  0  0  0  0  0  0  0  0
   -1.7242    1.4599   13.0346 H   0  0  0  0  0  0  0  0  0  0  0  0
   -1.4063    0.2871   11.7117 H   0  0  0  0  0  0  0  0  0  0  0  0
   -0.0657   -0.0517   13.5928 H   0  0  0  0  0  0  0  0  0  0  0  0
    2.0080   -1.9630   16.0281 H   0  0  0  0  0  0  0  0  0  0  0  0
    5.0597    0.9984   12.8582 H   0  0  0  0  0  0  0  0  0  0  0  0
    4.6113    2.3240   13.9845 H   0  0  0  0  0  0  0  0  0  0  0  0
    6.8310    0.9057   15.3087 H   0  0  0  0  0  0  0  0  0  0  0  0
    6.2747   -0.8021   17.3139 H   0  0  0  0  0  0  0  0  0  0  0  0
    4.5801    2.3663   11.2559 H   0  0  0  0  0  0  0  0  0  0  0  0
    3.8734    3.8118    9.3795 H   0  0  0  0  0  0  0  0  0  0  0  0
    1.3637    5.1168    8.2401 H   0  0  0  0  0  0  0  0  0  0  0  0
    0.5473    2.1701   12.7907 H   0  0  0  0  0  0  0  0  0  0  0  0
    0.2129   -3.1900   16.5090 H   0  0  0  0  0  0  0  0  0  0  0  0
   -2.1950   -3.5962   16.3235 H   0  0  0  0  0  0  0  0  0  0  0  0
   -5.3771   -1.5559   13.4984 H   0  0  0  0  0  0  0  0  0  0  0  0
   -3.9652   -2.2622   12.6414 H   0  0  0  0  0  0  0  0  0  0  0  0
   -6.0365   -3.6982   12.4626 H   0  0  0  0  0  0  0  0  0  0  0  0
   -4.6728   -4.5430   13.2707 H   0  0  0  0  0  0  0  0  0  0  0  0
   -6.1601   -4.1429   16.5661 H   0  0  0  0  0  0  0  0  0  0  0  0
   -4.7681   -4.8478   15.6763 H   0  0  0  0  0  0  0  0  0  0  0  0
   -4.0457   -2.8106   16.7755 H   0  0  0  0  0  0  0  0  0  0  0  0
   -5.4223   -1.8946   16.0737 H   0  0  0  0  0  0  0  0  0  0  0  0
  1  2  1  0  0  0  0
  2  3  1  0  0  0  0
  3  4  2  0  0  0  0
  3 27  1  0  0  0  0
  4  5  1  0  0  0  0
  5  6  1  0  0  0  0
  5 25  2  0  0  0  0
  6  7  1  0  0  0  0
  7  8  2  0  0  0  0
  7 15  1  0  0  0  0
  8  9  1  0  0  0  0
  9 10  1  0  0  0  0
  9 16  2  0  0  0  0
 10 11  1  0  0  0  0
 11 12  1  0  0  0  0
 11 15  1  0  0  0  0
 12 13  2  0  0  0  0
 13 14  1  0  0  0  0
 14 15  2  0  0  0  0
 16 17  1  0  0  0  0
 16 24  1  0  0  0  0
 17 18  2  0  0  0  0
 18 19  1  0  0  0  0
 19 20  2  0  0  0  0
 19 23  1  0  0  0  0
 20 21  1  0  0  0  0
 21 22  2  0  0  0  0
 22 23  1  0  0  0  0
 23 24  2  0  0  0  0
 25 26  1  0  0  0  0
 26 27  2  0  0  0  0
 27 28  1  0  0  0  0
 28 29  1  0  0  0  0
 28 33  1  0  0  0  0
 29 30  1  0  0  0  0
 30 31  1  0  0  0  0
 31 32  1  0  0  0  0
 32 33  1  0  0  0  0
  1 34  1  0  0  0  0
  1 35  1  0  0  0  0
  1 36  1  0  0  0  0
  4 37  1  0  0  0  0
  6 38  1  0  0  0  0
 10 39  1  0  0  0  0
 10 40  1  0  0  0  0
 12 41  1  0  0  0  0
 13 42  1  0  0  0  0
 17 43  1  0  0  0  0
 18 44  1  0  0  0  0
 20 45  1  0  0  0  0
 24 46  1  0  0  0  0
 25 47  1  0  0  0  0
 26 48  1  0  0  0  0
 29 49  1  0  0  0  0
 29 50  1  0  0  0  0
 30 51  1  0  0  0  0
 30 52  1  0  0  0  0
 32 53  1  0  0  0  0
 32 54  1  0  0  0  0
 33 55  1  0  0  0  0
 33 56  1  0  0  0  0
M  END
> <IC50[nM]>
0.44

$$$$
CHEMBL3265037
  -OEChem-05192314333D
 Structure written by MMmdl.
 56 61  0     0  0  0  0  0  0999 V2000
   -2.1744    0.6943   12.3856 C   0  0  0  0  0  0  0  0  0  0  0  0
   -2.7023   -0.3474   13.1823 O   0  0  0  0  0  0  0  0  0  0  0  0
   -1.9098   -1.0981   14.0384 C   0  0  0  0  0  0  0  0  0  0  0  0
   -0.5310   -0.8294   14.1803 C   0  0  0  0  0  0  0  0  0  0  0  0
    0.2355   -1.5834   15.0946 C   0  0  0  0  0  0  0  0  0  0  0  0
    1.6117   -1.3596   15.3361 N   0  0  0  0  0  0  0  0  0  0  0  0
    2.5319   -0.4372   14.7774 C   0  0  0  0  0  0  0  0  0  0  0  0
    2.1598    0.3941   13.7549 N   0  0  0  0  0  0  0  0  0  0  0  0
    3.0944    1.2396   13.2243 C   0  0  0  0  0  0  0  0  0  0  0  0
    4.4043    1.2833   13.6944 C   0  0  0  0  0  0  0  0  0  0  0  0
    4.7385    0.4947   14.7556 N   0  0  0  0  0  0  0  0  0  0  0  0
    5.8973    0.3913   15.4817 C   0  0  0  0  0  0  0  0  0  0  0  0
    5.5996   -0.5416   16.5121 C   0  0  0  0  0  0  0  0  0  0  0  0
    4.3864   -1.0493   16.3602 N   0  0  0  0  0  0  0  0  0  0  0  0
    3.8356   -0.3858   15.3271 C   0  0  0  0  0  0  0  0  0  0  0  0
    2.6225    2.1542   12.1213 C   0  0  0  0  0  0  0  0  0  0  0  0
    3.5396    2.6409   11.1644 C   0  0  0  0  0  0  0  0  0  0  0  0
    3.1535    3.4630   10.1051 C   0  0  0  0  0  0  0  0  0  0  0  0
    1.8086    3.8199   10.0132 C   0  0  0  0  0  0  0  0  0  0  0  0
    0.9978    4.6054    9.1182 C   0  0  0  0  0  0  0  0  0  0  0  0
   -0.2423    4.6093    9.5224 N   0  0  0  0  0  0  0  0  0  0  0  0
   -0.3299    3.8832   10.6368 N   0  0  0  0  0  0  0  0  0  0  0  0
    0.8842    3.3496   10.9964 C   0  0  0  0  0  0  0  0  0  0  0  0
    1.2618    2.5164   12.0586 C   0  0  0  0  0  0  0  0  0  0  0  0
   -0.3784   -2.5892   15.8339 C   0  0  0  0  0  0  0  0  0  0  0  0
   -1.7343   -2.8306   15.7168 C   0  0  0  0  0  0  0  0  0  0  0  0
   -2.5117   -2.0982   14.8261 C   0  0  0  0  0  0  0  0  0  0  0  0
   -3.8736   -2.3467   14.7445 N   0  0  0  0  0  0  0  0  0  0  0  0
   -4.6489   -2.3804   13.4950 C   0  0  0  0  0  0  0  0  0  0  0  0
   -5.4028   -3.7252   13.3613 C   0  0  0  0  0  0  0  0  0  0  0  0
   -6.2201   -3.9495   14.5061 O   0  0  0  0  0  0  0  0  0  0  0  0
   -5.4732   -4.0046   15.7182 C   0  0  0  0  0  0  0  0  0  0  0  0
   -4.7007   -2.7060   15.8980 C   0  0  0  0  0  0  0  0  0  0  0  0
   -2.9815    1.1466   11.7906 H   0  0  0  0  0  0  0  0  0  0  0  0
   -1.7242    1.4599   13.0346 H   0  0  0  0  0  0  0  0  0  0  0  0
   -1.4063    0.2871   11.7117 H   0  0  0  0  0  0  0  0  0  0  0  0
   -0.0657   -0.0517   13.5928 H   0  0  0  0  0  0  0  0  0  0  0  0
    1.2237    0.3831   13.4034 H   0  0  0  0  0  0  0  0  0  0  0  0
    5.0597    0.9984   12.8582 H   0  0  0  0  0  0  0  0  0  0  0  0
    4.6113    2.3240   13.9845 H   0  0  0  0  0  0  0  0  0  0  0  0
    6.8310    0.9057   15.3087 H   0  0  0  0  0  0  0  0  0  0  0  0
    6.2747   -0.8021   17.3139 H   0  0  0  0  0  0  0  0  0  0  0  0
    4.5801    2.3663   11.2559 H   0  0  0  0  0  0  0  0  0  0  0  0
    3.8734    3.8118    9.3795 H   0  0  0  0  0  0  0  0  0  0  0  0
    1.3637    5.1168    8.2401 H   0  0  0  0  0  0  0  0  0  0  0  0
    0.5473    2.1701   12.7907 H   0  0  0  0  0  0  0  0  0  0  0  0
    0.2129   -3.1900   16.5090 H   0  0  0  0  0  0  0  0  0  0  0  0
   -2.1950   -3.5962   16.3235 H   0  0  0  0  0  0  0  0  0  0  0  0
   -5.3771   -1.5559   13.4984 H   0  0  0  0  0  0  0  0  0  0  0  0
   -3.9652   -2.2622   12.6414 H   0  0  0  0  0  0  0  0  0  0  0  0
   -6.0365   -3.6982   12.4626 H   0  0  0  0  0  0  0  0  0  0  0  0
   -4.6728   -4.5430   13.2707 H   0  0  0  0  0  0  0  0  0  0  0  0
   -6.1601   -4.1429   16.5661 H   0  0  0  0  0  0  0  0  0  0  0  0
   -4.7681   -4.8478   15.6763 H   0  0  0  0  0  0  0  0  0  0  0  0
   -4.0457   -2.8106   16.7755 H   0  0  0  0  0  0  0  0  0  0  0  0
   -5.4223   -1.8946   16.0737 H   0  0  0  0  0  0  0  0  0  0  0  0
  1  2  1  0  0  0  0
  2  3  1  0  0  0  0
  3  4  2  0  0  0  0
  3 27  1  0  0  0  0
  4  5  1  0  0  0  0
  5  6  1  0  0  0  0
  5 25  2  0  0  0  0
  6  7  2  0  0  0  0
  7  8  1  0  0  0  0
  7 15  1  0  0  0  0
  8  9  1  0  0  0  0
  9 10  1  0  0  0  0
  9 16  2  0  0  0  0
 10 11  1  0  0  0  0
 11 12  1  0  0  0  0
 11 15  1  0  0  0  0
 12 13  2  0  0  0  0
 13 14  1  0  0  0  0
 14 15  2  0  0  0  0
 16 17  1  0  0  0  0
 16 24  1  0  0  0  0
 17 18  2  0  0  0  0
 18 19  1  0  0  0  0
 19 20  2  0  0  0  0
 19 23  1  0  0  0  0
 20 21  1  0  0  0  0
 21 22  2  0  0  0  0
 22 23  1  0  0  0  0
 23 24  2  0  0  0  0
 25 26  1  0  0  0  0
 26 27  2  0  0  0  0
 27 28  1  0  0  0  0
 28 29  1  0  0  0  0
 28 33  1  0  0  0  0
 29 30  1  0  0  0  0
 30 31  1  0  0  0  0
 31 32  1  0  0  0  0
 32 33  1  0  0  0  0
  1 34  1  0  0  0  0
  1 35  1  0  0  0  0
  1 36  1  0  0  0  0
  4 37  1  0  0  0  0
  8 38  1  0  0  0  0
 10 39  1  0  0  0  0
 10 40  1  0  0  0  0
 12 41  1  0  0  0  0
 13 42  1  0  0  0  0
 17 43  1  0  0  0  0
 18 44  1  0  0  0  0
 20 45  1  0  0  0  0
 24 46  1  0  0  0  0
 25 47  1  0  0  0  0
 26 48  1  0  0  0  0
 29 49  1  0  0  0  0
 29 50  1  0  0  0  0
 30 51  1  0  0  0  0
 30 52  1  0  0  0  0
 32 53  1  0  0  0  0
 32 54  1  0  0  0  0
 33 55  1  0  0  0  0
 33 56  1  0  0  0  0
M  END
> <IC50[nM]>
0.44

$$$$
CHEMBL3265037
  -OEChem-05192314333D
 Structure written by MMmdl.
 56 61  0     1  0  0  0  0  0999 V2000
   -2.1744    0.6943   12.3856 C   0  0  0  0  0  0  0  0  0  0  0  0
   -2.7023   -0.3474   13.1823 O   0  0  0  0  0  0  0  0  0  0  0  0
   -1.9098   -1.0981   14.0384 C   0  0  0  0  0  0  0  0  0  0  0  0
   -0.5310   -0.8294   14.1803 C   0  0  0  0  0  0  0  0  0  0  0  0
    0.2355   -1.5834   15.0946 C   0  0  0  0  0  0  0  0  0  0  0  0
    1.6117   -1.3596   15.3361 N   0  0  0  0  0  0  0  0  0  0  0  0
    2.5319   -0.4372   14.7774 C   0  0  0  0  0  0  0  0  0  0  0  0
    2.1598    0.3941   13.7549 N   0  0  0  0  0  0  0  0  0  0  0  0
    3.0944    1.2396   13.2243 C   0  0  0  0  0  0  0  0  0  0  0  0
    4.4043    1.2833   13.6944 C   0  0  0  0  0  0  0  0  0  0  0  0
    4.7385    0.4947   14.7556 N   0  0  0  0  0  0  0  0  0  0  0  0
    5.8973    0.3913   15.4817 C   0  0  0  0  0  0  0  0  0  0  0  0
    5.5996   -0.5416   16.5121 C   0  0  0  0  0  0  0  0  0  0  0  0
    4.3864   -1.0493   16.3602 N   0  0  0  0  0  0  0  0  0  0  0  0
    3.8356   -0.3858   15.3271 C   0  0  0  0  0  0  0  0  0  0  0  0
    2.6225    2.1542   12.1213 C   0  0  0  0  0  0  0  0  0  0  0  0
    3.5396    2.6409   11.1644 C   0  0  0  0  0  0  0  0  0  0  0  0
    3.1535    3.4630   10.1051 C   0  0  0  0  0  0  0  0  0  0  0  0
    1.8086    3.8199   10.0132 C   0  0  0  0  0  0  0  0  0  0  0  0
    0.9978    4.6054    9.1182 C   0  0  0  0  0  0  0  0  0  0  0  0
   -0.2423    4.6093    9.5224 N   0  0  0  0  0  0  0  0  0  0  0  0
   -0.3299    3.8832   10.6368 N   0  0  0  0  0  0  0  0  0  0  0  0
    0.8842    3.3496   10.9964 C   0  0  0  0  0  0  0  0  0  0  0  0
    1.2618    2.5164   12.0586 C   0  0  0  0  0  0  0  0  0  0  0  0
   -0.3784   -2.5892   15.8339 C   0  0  0  0  0  0  0  0  0  0  0  0
   -1.7343   -2.8306   15.7168 C   0  0  0  0  0  0  0  0  0  0  0  0
   -2.5117   -2.0982   14.8261 C   0  0  3  0  0  0  0  0  0  0  0  0
   -3.8736   -2.3467   14.7445 N   0  0  0  0  0  0  0  0  0  0  0  0
   -4.6489   -2.3804   13.4950 C   0  0  0  0  0  0  0  0  0  0  0  0
   -5.4028   -3.7252   13.3613 C   0  0  0  0  0  0  0  0  0  0  0  0
   -6.2201   -3.9495   14.5061 O   0  0  0  0  0  0  0  0  0  0  0  0
   -5.4732   -4.0046   15.7182 C   0  0  0  0  0  0  0  0  0  0  0  0
   -4.7007   -2.7060   15.8980 C   0  0  0  0  0  0  0  0  0  0  0  0
   -2.9815    1.1466   11.7906 H   0  0  0  0  0  0  0  0  0  0  0  0
   -1.7242    1.4599   13.0346 H   0  0  0  0  0  0  0  0  0  0  0  0
   -1.4063    0.2871   11.7117 H   0  0  0  0  0  0  0  0  0  0  0  0
   -0.0657   -0.0517   13.5928 H   0  0  0  0  0  0  0  0  0  0  0  0
    5.1376    1.9259   13.2300 H   0  0  0  0  0  0  0  0  0  0  0  0
    6.8310    0.9057   15.3087 H   0  0  0  0  0  0  0  0  0  0  0  0
    6.2747   -0.8021   17.3139 H   0  0  0  0  0  0  0  0  0  0  0  0
    4.5801    2.3663   11.2559 H   0  0  0  0  0  0  0  0  0  0  0  0
    3.8734    3.8118    9.3795 H   0  0  0  0  0  0  0  0  0  0  0  0
    1.3764    5.6380    9.0961 H   0  0  0  0  0  0  0  0  0  0  0  0
    1.0495    4.1742    8.1075 H   0  0  0  0  0  0  0  0  0  0  0  0
    0.5473    2.1701   12.7907 H   0  0  0  0  0  0  0  0  0  0  0  0
    0.2129   -3.1900   16.5090 H   0  0  0  0  0  0  0  0  0  0  0  0
   -2.1950   -3.5962   16.3235 H   0  0  0  0  0  0  0  0  0  0  0  0
   -2.3219   -2.8421   14.0383 H   0  0  0  0  0  0  0  0  0  0  0  0
   -5.3771   -1.5559   13.4984 H   0  0  0  0  0  0  0  0  0  0  0  0
   -3.9652   -2.2622   12.6414 H   0  0  0  0  0  0  0  0  0  0  0  0
   -6.0365   -3.6982   12.4626 H   0  0  0  0  0  0  0  0  0  0  0  0
   -4.6728   -4.5430   13.2707 H   0  0  0  0  0  0  0  0  0  0  0  0
   -6.1601   -4.1429   16.5661 H   0  0  0  0  0  0  0  0  0  0  0  0
   -4.7681   -4.8478   15.6763 H   0  0  0  0  0  0  0  0  0  0  0  0
   -4.0457   -2.8106   16.7755 H   0  0  0  0  0  0  0  0  0  0  0  0
   -5.4223   -1.8946   16.0737 H   0  0  0  0  0  0  0  0  0  0  0  0
  1  2  1  0  0  0  0
  2  3  1  0  0  0  0
  3  4  2  0  0  0  0
  3 27  1  0  0  0  0
  4  5  1  0  0  0  0
  5  6  2  0  0  0  0
  5 25  1  0  0  0  0
  6  7  1  0  0  0  0
  7  8  2  0  0  0  0
  7 15  1  0  0  0  0
  8  9  1  0  0  0  0
  9 10  2  0  0  0  0
  9 16  1  0  0  0  0
 10 11  1  0  0  0  0
 11 12  1  0  0  0  0
 11 15  1  0  0  0  0
 12 13  2  0  0  0  0
 13 14  1  0  0  0  0
 14 15  2  0  0  0  0
 16 17  2  0  0  0  0
 16 24  1  0  0  0  0
 17 18  1  0  0  0  0
 18 19  2  0  0  0  0
 19 20  1  0  0  0  0
 19 23  1  0  0  0  0
 20 21  1  0  0  0  0
 21 22  2  0  0  0  0
 22 23  1  0  0  0  0
 23 24  2  0  0  0  0
 25 26  2  0  0  0  0
 26 27  1  0  0  0  0
 27 28  1  0  0  0  0
 28 29  1  0  0  0  0
 28 33  1  0  0  0  0
 29 30  1  0  0  0  0
 30 31  1  0  0  0  0
 31 32  1  0  0  0  0
 32 33  1  0  0  0  0
  1 34  1  0  0  0  0
  1 35  1  0  0  0  0
  1 36  1  0  0  0  0
  4 37  1  0  0  0  0
 10 38  1  0  0  0  0
 12 39  1  0  0  0  0
 13 40  1  0  0  0  0
 17 41  1  0  0  0  0
 18 42  1  0  0  0  0
 20 43  1  0  0  0  0
 20 44  1  0  0  0  0
 24 45  1  0  0  0  0
 25 46  1  0  0  0  0
 26 47  1  0  0  0  0
 27 48  1  0  0  0  0
 29 49  1  0  0  0  0
 29 50  1  0  0  0  0
 30 51  1  0  0  0  0
 30 52  1  0  0  0  0
 32 53  1  0  0  0  0
 32 54  1  0  0  0  0
 33 55  1  0  0  0  0
 33 56  1  0  0  0  0
M  END
> <IC50[nM]>
0.44

$$$$
CHEMBL3265037
  -OEChem-05192314333D
 Structure written by MMmdl.
 56 61  0     0  0  0  0  0  0999 V2000
   -2.1744    0.6943   12.3856 C   0  0  0  0  0  0  0  0  0  0  0  0
   -2.7023   -0.3474   13.1823 O   0  0  0  0  0  0  0  0  0  0  0  0
   -1.9098   -1.0981   14.0384 C   0  0  0  0  0  0  0  0  0  0  0  0
   -0.5310   -0.8294   14.1803 C   0  0  0  0  0  0  0  0  0  0  0  0
    0.2355   -1.5834   15.0946 C   0  0  0  0  0  0  0  0  0  0  0  0
    1.6117   -1.3596   15.3361 N   0  0  0  0  0  0  0  0  0  0  0  0
    2.5319   -0.4372   14.7774 C   0  0  0  0  0  0  0  0  0  0  0  0
    2.1598    0.3941   13.7549 N   0  0  0  0  0  0  0  0  0  0  0  0
    3.0944    1.2396   13.2243 C   0  0  0  0  0  0  0  0  0  0  0  0
    4.4043    1.2833   13.6944 C   0  0  0  0  0  0  0  0  0  0  0  0
    4.7385    0.4947   14.7556 N   0  0  0  0  0  0  0  0  0  0  0  0
    5.8973    0.3913   15.4817 C   0  0  0  0  0  0  0  0  0  0  0  0
    5.5996   -0.5416   16.5121 C   0  0  0  0  0  0  0  0  0  0  0  0
    4.3864   -1.0493   16.3602 N   0  0  0  0  0  0  0  0  0  0  0  0
    3.8356   -0.3858   15.3271 C   0  0  0  0  0  0  0  0  0  0  0  0
    2.6225    2.1542   12.1213 C   0  0  0  0  0  0  0  0  0  0  0  0
    3.5396    2.6409   11.1644 C   0  0  0  0  0  0  0  0  0  0  0  0
    3.1535    3.4630   10.1051 C   0  0  0  0  0  0  0  0  0  0  0  0
    1.8086    3.8199   10.0132 C   0  0  0  0  0  0  0  0  0  0  0  0
    0.9978    4.6054    9.1182 C   0  0  0  0  0  0  0  0  0  0  0  0
   -0.2423    4.6093    9.5224 N   0  0  0  0  0  0  0  0  0  0  0  0
   -0.3299    3.8832   10.6368 N   0  0  0  0  0  0  0  0  0  0  0  0
    0.8842    3.3496   10.9964 C   0  0  0  0  0  0  0  0  0  0  0  0
    1.2618    2.5164   12.0586 C   0  0  0  0  0  0  0  0  0  0  0  0
   -0.3784   -2.5892   15.8339 C   0  0  0  0  0  0  0  0  0  0  0  0
   -1.7343   -2.8306   15.7168 C   0  0  0  0  0  0  0  0  0  0  0  0
   -2.5117   -2.0982   14.8261 C   0  0  0  0  0  0  0  0  0  0  0  0
   -3.8736   -2.3467   14.7445 N   0  0  0  0  0  0  0  0  0  0  0  0
   -4.6489   -2.3804   13.4950 C   0  0  0  0  0  0  0  0  0  0  0  0
   -5.4028   -3.7252   13.3613 C   0  0  0  0  0  0  0  0  0  0  0  0
   -6.2201   -3.9495   14.5061 O   0  0  0  0  0  0  0  0  0  0  0  0
   -5.4732   -4.0046   15.7182 C   0  0  0  0  0  0  0  0  0  0  0  0
   -4.7007   -2.7060   15.8980 C   0  0  0  0  0  0  0  0  0  0  0  0
   -2.9815    1.1466   11.7906 H   0  0  0  0  0  0  0  0  0  0  0  0
   -1.7242    1.4599   13.0346 H   0  0  0  0  0  0  0  0  0  0  0  0
   -1.4063    0.2871   11.7117 H   0  0  0  0  0  0  0  0  0  0  0  0
   -0.0657   -0.0517   13.5928 H   0  0  0  0  0  0  0  0  0  0  0  0
    5.1376    1.9259   13.2300 H   0  0  0  0  0  0  0  0  0  0  0  0
    6.8310    0.9057   15.3087 H   0  0  0  0  0  0  0  0  0  0  0  0
    6.2747   -0.8021   17.3139 H   0  0  0  0  0  0  0  0  0  0  0  0
    4.5801    2.3663   11.2559 H   0  0  0  0  0  0  0  0  0  0  0  0
    3.8734    3.8118    9.3795 H   0  0  0  0  0  0  0  0  0  0  0  0
    1.3764    5.6380    9.0961 H   0  0  0  0  0  0  0  0  0  0  0  0
    1.0495    4.1742    8.1075 H   0  0  0  0  0  0  0  0  0  0  0  0
    0.5473    2.1701   12.7907 H   0  0  0  0  0  0  0  0  0  0  0  0
    0.1306   -3.5276   15.5689 H   0  0  0  0  0  0  0  0  0  0  0  0
   -0.1920   -2.3574   16.8929 H   0  0  0  0  0  0  0  0  0  0  0  0
   -2.1950   -3.5962   16.3235 H   0  0  0  0  0  0  0  0  0  0  0  0
   -5.3771   -1.5559   13.4984 H   0  0  0  0  0  0  0  0  0  0  0  0
   -3.9652   -2.2622   12.6414 H   0  0  0  0  0  0  0  0  0  0  0  0
   -6.0365   -3.6982   12.4626 H   0  0  0  0  0  0  0  0  0  0  0  0
   -4.6728   -4.5430   13.2707 H   0  0  0  0  0  0  0  0  0  0  0  0
   -6.1601   -4.1429   16.5661 H   0  0  0  0  0  0  0  0  0  0  0  0
   -4.7681   -4.8478   15.6763 H   0  0  0  0  0  0  0  0  0  0  0  0
   -4.0457   -2.8106   16.7755 H   0  0  0  0  0  0  0  0  0  0  0  0
   -5.4223   -1.8946   16.0737 H   0  0  0  0  0  0  0  0  0  0  0  0
  1  2  1  0  0  0  0
  2  3  1  0  0  0  0
  3  4  2  0  0  0  0
  3 27  1  0  0  0  0
  4  5  1  0  0  0  0
  5  6  2  0  0  0  0
  5 25  1  0  0  0  0
  6  7  1  0  0  0  0
  7  8  2  0  0  0  0
  7 15  1  0  0  0  0
  8  9  1  0  0  0  0
  9 10  2  0  0  0  0
  9 16  1  0  0  0  0
 10 11  1  0  0  0  0
 11 12  1  0  0  0  0
 11 15  1  0  0  0  0
 12 13  2  0  0  0  0
 13 14  1  0  0  0  0
 14 15  2  0  0  0  0
 16 17  2  0  0  0  0
 16 24  1  0  0  0  0
 17 18  1  0  0  0  0
 18 19  2  0  0  0  0
 19 20  1  0  0  0  0
 19 23  1  0  0  0  0
 20 21  1  0  0  0  0
 21 22  2  0  0  0  0
 22 23  1  0  0  0  0
 23 24  2  0  0  0  0
 25 26  1  0  0  0  0
 26 27  2  0  0  0  0
 27 28  1  0  0  0  0
 28 29  1  0  0  0  0
 28 33  1  0  0  0  0
 29 30  1  0  0  0  0
 30 31  1  0  0  0  0
 31 32  1  0  0  0  0
 32 33  1  0  0  0  0
  1 34  1  0  0  0  0
  1 35  1  0  0  0  0
  1 36  1  0  0  0  0
  4 37  1  0  0  0  0
 10 38  1  0  0  0  0
 12 39  1  0  0  0  0
 13 40  1  0  0  0  0
 17 41  1  0  0  0  0
 18 42  1  0  0  0  0
 20 43  1  0  0  0  0
 20 44  1  0  0  0  0
 24 45  1  0  0  0  0
 25 46  1  0  0  0  0
 25 47  1  0  0  0  0
 26 48  1  0  0  0  0
 29 49  1  0  0  0  0
 29 50  1  0  0  0  0
 30 51  1  0  0  0  0
 30 52  1  0  0  0  0
 32 53  1  0  0  0  0
 32 54  1  0  0  0  0
 33 55  1  0  0  0  0
 33 56  1  0  0  0  0
M  END
> <IC50[nM]>
0.44

$$$$
CHEMBL3265037
  -OEChem-05192314333D
 Structure written by MMmdl.
 56 61  0     0  0  0  0  0  0999 V2000
   -2.1744    0.6943   12.3856 C   0  0  0  0  0  0  0  0  0  0  0  0
   -2.7023   -0.3474   13.1823 O   0  0  0  0  0  0  0  0  0  0  0  0
   -1.9098   -1.0981   14.0384 C   0  0  0  0  0  0  0  0  0  0  0  0
   -0.5310   -0.8294   14.1803 C   0  0  0  0  0  0  0  0  0  0  0  0
    0.2355   -1.5834   15.0946 C   0  0  0  0  0  0  0  0  0  0  0  0
    1.6117   -1.3596   15.3361 N   0  0  0  0  0  0  0  0  0  0  0  0
    2.5319   -0.4372   14.7774 C   0  0  0  0  0  0  0  0  0  0  0  0
    2.1598    0.3941   13.7549 N   0  0  0  0  0  0  0  0  0  0  0  0
    3.0944    1.2396   13.2243 C   0  0  0  0  0  0  0  0  0  0  0  0
    4.4043    1.2833   13.6944 C   0  0  0  0  0  0  0  0  0  0  0  0
    4.7385    0.4947   14.7556 N   0  0  0  0  0  0  0  0  0  0  0  0
    5.8973    0.3913   15.4817 C   0  0  0  0  0  0  0  0  0  0  0  0
    5.5996   -0.5416   16.5121 C   0  0  0  0  0  0  0  0  0  0  0  0
    4.3864   -1.0493   16.3602 N   0  0  0  0  0  0  0  0  0  0  0  0
    3.8356   -0.3858   15.3271 C   0  0  0  0  0  0  0  0  0  0  0  0
    2.6225    2.1542   12.1213 C   0  0  0  0  0  0  0  0  0  0  0  0
    3.5396    2.6409   11.1644 C   0  0  0  0  0  0  0  0  0  0  0  0
    3.1535    3.4630   10.1051 C   0  0  0  0  0  0  0  0  0  0  0  0
    1.8086    3.8199   10.0132 C   0  0  0  0  0  0  0  0  0  0  0  0
    0.9978    4.6054    9.1182 C   0  0  0  0  0  0  0  0  0  0  0  0
   -0.2423    4.6093    9.5224 N   0  0  0  0  0  0  0  0  0  0  0  0
   -0.3299    3.8832   10.6368 N   0  0  0  0  0  0  0  0  0  0  0  0
    0.8842    3.3496   10.9964 C   0  0  0  0  0  0  0  0  0  0  0  0
    1.2618    2.5164   12.0586 C   0  0  0  0  0  0  0  0  0  0  0  0
   -0.3784   -2.5892   15.8339 C   0  0  0  0  0  0  0  0  0  0  0  0
   -1.7343   -2.8306   15.7168 C   0  0  0  0  0  0  0  0  0  0  0  0
   -2.5117   -2.0982   14.8261 C   0  0  0  0  0  0  0  0  0  0  0  0
   -3.8736   -2.3467   14.7445 N   0  0  0  0  0  0  0  0  0  0  0  0
   -4.6489   -2.3804   13.4950 C   0  0  0  0  0  0  0  0  0  0  0  0
   -5.4028   -3.7252   13.3613 C   0  0  0  0  0  0  0  0  0  0  0  0
   -6.2201   -3.9495   14.5061 O   0  0  0  0  0  0  0  0  0  0  0  0
   -5.4732   -4.0046   15.7182 C   0  0  0  0  0  0  0  0  0  0  0  0
   -4.7007   -2.7060   15.8980 C   0  0  0  0  0  0  0  0  0  0  0  0
   -2.9815    1.1466   11.7906 H   0  0  0  0  0  0  0  0  0  0  0  0
   -1.7242    1.4599   13.0346 H   0  0  0  0  0  0  0  0  0  0  0  0
   -1.4063    0.2871   11.7117 H   0  0  0  0  0  0  0  0  0  0  0  0
   -0.0746   -0.9691   13.1892 H   0  0  0  0  0  0  0  0  0  0  0  0
   -0.4402    0.2250   14.4805 H   0  0  0  0  0  0  0  0  0  0  0  0
    5.1376    1.9259   13.2300 H   0  0  0  0  0  0  0  0  0  0  0  0
    6.8310    0.9057   15.3087 H   0  0  0  0  0  0  0  0  0  0  0  0
    6.2747   -0.8021   17.3139 H   0  0  0  0  0  0  0  0  0  0  0  0
    4.5801    2.3663   11.2559 H   0  0  0  0  0  0  0  0  0  0  0  0
    3.8734    3.8118    9.3795 H   0  0  0  0  0  0  0  0  0  0  0  0
    1.3764    5.6380    9.0961 H   0  0  0  0  0  0  0  0  0  0  0  0
    1.0495    4.1742    8.1075 H   0  0  0  0  0  0  0  0  0  0  0  0
    0.5473    2.1701   12.7907 H   0  0  0  0  0  0  0  0  0  0  0  0
    0.2129   -3.1900   16.5090 H   0  0  0  0  0  0  0  0  0  0  0  0
   -2.1950   -3.5962   16.3235 H   0  0  0  0  0  0  0  0  0  0  0  0
   -5.3771   -1.5559   13.4984 H   0  0  0  0  0  0  0  0  0  0  0  0
   -3.9652   -2.2622   12.6414 H   0  0  0  0  0  0  0  0  0  0  0  0
   -6.0365   -3.6982   12.4626 H   0  0  0  0  0  0  0  0  0  0  0  0
   -4.6728   -4.5430   13.2707 H   0  0  0  0  0  0  0  0  0  0  0  0
   -6.1601   -4.1429   16.5661 H   0  0  0  0  0  0  0  0  0  0  0  0
   -4.7681   -4.8478   15.6763 H   0  0  0  0  0  0  0  0  0  0  0  0
   -4.0457   -2.8106   16.7755 H   0  0  0  0  0  0  0  0  0  0  0  0
   -5.4223   -1.8946   16.0737 H   0  0  0  0  0  0  0  0  0  0  0  0
  1  2  1  0  0  0  0
  2  3  1  0  0  0  0
  3  4  1  0  0  0  0
  3 27  2  0  0  0  0
  4  5  1  0  0  0  0
  5  6  2  0  0  0  0
  5 25  1  0  0  0  0
  6  7  1  0  0  0  0
  7  8  2  0  0  0  0
  7 15  1  0  0  0  0
  8  9  1  0  0  0  0
  9 10  2  0  0  0  0
  9 16  1  0  0  0  0
 10 11  1  0  0  0  0
 11 12  1  0  0  0  0
 11 15  1  0  0  0  0
 12 13  2  0  0  0  0
 13 14  1  0  0  0  0
 14 15  2  0  0  0  0
 16 17  2  0  0  0  0
 16 24  1  0  0  0  0
 17 18  1  0  0  0  0
 18 19  2  0  0  0  0
 19 20  1  0  0  0  0
 19 23  1  0  0  0  0
 20 21  1  0  0  0  0
 21 22  2  0  0  0  0
 22 23  1  0  0  0  0
 23 24  2  0  0  0  0
 25 26  2  0  0  0  0
 26 27  1  0  0  0  0
 27 28  1  0  0  0  0
 28 29  1  0  0  0  0
 28 33  1  0  0  0  0
 29 30  1  0  0  0  0
 30 31  1  0  0  0  0
 31 32  1  0  0  0  0
 32 33  1  0  0  0  0
  1 34  1  0  0  0  0
  1 35  1  0  0  0  0
  1 36  1  0  0  0  0
  4 37  1  0  0  0  0
  4 38  1  0  0  0  0
 10 39  1  0  0  0  0
 12 40  1  0  0  0  0
 13 41  1  0  0  0  0
 17 42  1  0  0  0  0
 18 43  1  0  0  0  0
 20 44  1  0  0  0  0
 20 45  1  0  0  0  0
 24 46  1  0  0  0  0
 25 47  1  0  0  0  0
 26 48  1  0  0  0  0
 29 49  1  0  0  0  0
 29 50  1  0  0  0  0
 30 51  1  0  0  0  0
 30 52  1  0  0  0  0
 32 53  1  0  0  0  0
 32 54  1  0  0  0  0
 33 55  1  0  0  0  0
 33 56  1  0  0  0  0
M  END
> <IC50[nM]>
0.44

$$$$
CHEMBL3265037
  -OEChem-05192314333D
 Structure written by MMmdl.
 56 61  0     1  0  0  0  0  0999 V2000
   -2.1744    0.6943   12.3856 C   0  0  0  0  0  0  0  0  0  0  0  0
   -2.7023   -0.3474   13.1823 O   0  0  0  0  0  0  0  0  0  0  0  0
   -1.9098   -1.0981   14.0384 C   0  0  0  0  0  0  0  0  0  0  0  0
   -0.5310   -0.8294   14.1803 C   0  0  0  0  0  0  0  0  0  0  0  0
    0.2355   -1.5834   15.0946 C   0  0  0  0  0  0  0  0  0  0  0  0
    1.6117   -1.3596   15.3361 N   0  0  0  0  0  0  0  0  0  0  0  0
    2.5319   -0.4372   14.7774 C   0  0  0  0  0  0  0  0  0  0  0  0
    2.1598    0.3941   13.7549 N   0  0  0  0  0  0  0  0  0  0  0  0
    3.0944    1.2396   13.2243 C   0  0  0  0  0  0  0  0  0  0  0  0
    4.4043    1.2833   13.6944 C   0  0  0  0  0  0  0  0  0  0  0  0
    4.7385    0.4947   14.7556 N   0  0  0  0  0  0  0  0  0  0  0  0
    5.8973    0.3913   15.4817 C   0  0  0  0  0  0  0  0  0  0  0  0
    5.5996   -0.5416   16.5121 C   0  0  0  0  0  0  0  0  0  0  0  0
    4.3864   -1.0493   16.3602 N   0  0  0  0  0  0  0  0  0  0  0  0
    3.8356   -0.3858   15.3271 C   0  0  0  0  0  0  0  0  0  0  0  0
    2.6225    2.1542   12.1213 C   0  0  0  0  0  0  0  0  0  0  0  0
    3.5396    2.6409   11.1644 C   0  0  0  0  0  0  0  0  0  0  0  0
    3.1535    3.4630   10.1051 C   0  0  0  0  0  0  0  0  0  0  0  0
    1.8086    3.8199   10.0132 C   0  0  3  0  0  0  0  0  0  0  0  0
    0.9978    4.6054    9.1182 C   0  0  0  0  0  0  0  0  0  0  0  0
   -0.2423    4.6093    9.5224 N   0  0  0  0  0  0  0  0  0  0  0  0
   -0.3299    3.8832   10.6368 N   0  0  0  0  0  0  0  0  0  0  0  0
    0.8842    3.3496   10.9964 C   0  0  0  0  0  0  0  0  0  0  0  0
    1.2618    2.5164   12.0586 C   0  0  0  0  0  0  0  0  0  0  0  0
   -0.3784   -2.5892   15.8339 C   0  0  0  0  0  0  0  0  0  0  0  0
   -1.7343   -2.8306   15.7168 C   0  0  0  0  0  0  0  0  0  0  0  0
   -2.5117   -2.0982   14.8261 C   0  0  0  0  0  0  0  0  0  0  0  0
   -3.8736   -2.3467   14.7445 N   0  0  0  0  0  0  0  0  0  0  0  0
   -4.6489   -2.3804   13.4950 C   0  0  0  0  0  0  0  0  0  0  0  0
   -5.4028   -3.7252   13.3613 C   0  0  0  0  0  0  0  0  0  0  0  0
   -6.2201   -3.9495   14.5061 O   0  0  0  0  0  0  0  0  0  0  0  0
   -5.4732   -4.0046   15.7182 C   0  0  0  0  0  0  0  0  0  0  0  0
   -4.7007   -2.7060   15.8980 C   0  0  0  0  0  0  0  0  0  0  0  0
   -2.9815    1.1466   11.7906 H   0  0  0  0  0  0  0  0  0  0  0  0
   -1.7242    1.4599   13.0346 H   0  0  0  0  0  0  0  0  0  0  0  0
   -1.4063    0.2871   11.7117 H   0  0  0  0  0  0  0  0  0  0  0  0
   -0.0657   -0.0517   13.5928 H   0  0  0  0  0  0  0  0  0  0  0  0
    2.0080   -1.9630   16.0281 H   0  0  0  0  0  0  0  0  0  0  0  0
    5.1376    1.9259   13.2300 H   0  0  0  0  0  0  0  0  0  0  0  0
    6.8310    0.9057   15.3087 H   0  0  0  0  0  0  0  0  0  0  0  0
    6.2747   -0.8021   17.3139 H   0  0  0  0  0  0  0  0  0  0  0  0
    4.5801    2.3663   11.2559 H   0  0  0  0  0  0  0  0  0  0  0  0
    3.8734    3.8118    9.3795 H   0  0  0  0  0  0  0  0  0  0  0  0
    2.0034    4.7144   10.6231 H   0  0  0  0  0  0  0  0  0  0  0  0
    1.3637    5.1168    8.2401 H   0  0  0  0  0  0  0  0  0  0  0  0
    0.5473    2.1701   12.7907 H   0  0  0  0  0  0  0  0  0  0  0  0
    0.2129   -3.1900   16.5090 H   0  0  0  0  0  0  0  0  0  0  0  0
   -2.1950   -3.5962   16.3235 H   0  0  0  0  0  0  0  0  0  0  0  0
   -5.3771   -1.5559   13.4984 H   0  0  0  0  0  0  0  0  0  0  0  0
   -3.9652   -2.2622   12.6414 H   0  0  0  0  0  0  0  0  0  0  0  0
   -6.0365   -3.6982   12.4626 H   0  0  0  0  0  0  0  0  0  0  0  0
   -4.6728   -4.5430   13.2707 H   0  0  0  0  0  0  0  0  0  0  0  0
   -6.1601   -4.1429   16.5661 H   0  0  0  0  0  0  0  0  0  0  0  0
   -4.7681   -4.8478   15.6763 H   0  0  0  0  0  0  0  0  0  0  0  0
   -4.0457   -2.8106   16.7755 H   0  0  0  0  0  0  0  0  0  0  0  0
   -5.4223   -1.8946   16.0737 H   0  0  0  0  0  0  0  0  0  0  0  0
  1  2  1  0  0  0  0
  2  3  1  0  0  0  0
  3  4  2  0  0  0  0
  3 27  1  0  0  0  0
  4  5  1  0  0  0  0
  5  6  1  0  0  0  0
  5 25  2  0  0  0  0
  6  7  1  0  0  0  0
  7  8  2  0  0  0  0
  7 15  1  0  0  0  0
  8  9  1  0  0  0  0
  9 10  2  0  0  0  0
  9 16  1  0  0  0  0
 10 11  1  0  0  0  0
 11 12  1  0  0  0  0
 11 15  1  0  0  0  0
 12 13  2  0  0  0  0
 13 14  1  0  0  0  0
 14 15  2  0  0  0  0
 16 17  1  0  0  0  0
 16 24  2  0  0  0  0
 17 18  2  0  0  0  0
 18 19  1  0  0  0  0
 19 20  1  0  0  0  0
 19 23  1  0  0  0  0
 20 21  2  0  0  0  0
 21 22  1  0  0  0  0
 22 23  2  0  0  0  0
 23 24  1  0  0  0  0
 25 26  1  0  0  0  0
 26 27  2  0  0  0  0
 27 28  1  0  0  0  0
 28 29  1  0  0  0  0
 28 33  1  0  0  0  0
 29 30  1  0  0  0  0
 30 31  1  0  0  0  0
 31 32  1  0  0  0  0
 32 33  1  0  0  0  0
  1 34  1  0  0  0  0
  1 35  1  0  0  0  0
  1 36  1  0  0  0  0
  4 37  1  0  0  0  0
  6 38  1  0  0  0  0
 10 39  1  0  0  0  0
 12 40  1  0  0  0  0
 13 41  1  0  0  0  0
 17 42  1  0  0  0  0
 18 43  1  0  0  0  0
 19 44  1  0  0  0  0
 20 45  1  0  0  0  0
 24 46  1  0  0  0  0
 25 47  1  0  0  0  0
 26 48  1  0  0  0  0
 29 49  1  0  0  0  0
 29 50  1  0  0  0  0
 30 51  1  0  0  0  0
 30 52  1  0  0  0  0
 32 53  1  0  0  0  0
 32 54  1  0  0  0  0
 33 55  1  0  0  0  0
 33 56  1  0  0  0  0
M  END
> <IC50[nM]>
0.44

$$$$
CHEMBL3265037
  -OEChem-05192314333D
 Structure written by MMmdl.
 56 61  0     0  0  0  0  0  0999 V2000
   -2.1744    0.6943   12.3856 C   0  0  0  0  0  0  0  0  0  0  0  0
   -2.7023   -0.3474   13.1823 O   0  0  0  0  0  0  0  0  0  0  0  0
   -1.9098   -1.0981   14.0384 C   0  0  0  0  0  0  0  0  0  0  0  0
   -0.5310   -0.8294   14.1803 C   0  0  0  0  0  0  0  0  0  0  0  0
    0.2355   -1.5834   15.0946 C   0  0  0  0  0  0  0  0  0  0  0  0
    1.6117   -1.3596   15.3361 N   0  0  0  0  0  0  0  0  0  0  0  0
    2.5319   -0.4372   14.7774 C   0  0  0  0  0  0  0  0  0  0  0  0
    2.1598    0.3941   13.7549 N   0  0  0  0  0  0  0  0  0  0  0  0
    3.0944    1.2396   13.2243 C   0  0  0  0  0  0  0  0  0  0  0  0
    4.4043    1.2833   13.6944 C   0  0  0  0  0  0  0  0  0  0  0  0
    4.7385    0.4947   14.7556 N   0  0  0  0  0  0  0  0  0  0  0  0
    5.8973    0.3913   15.4817 C   0  0  0  0  0  0  0  0  0  0  0  0
    5.5996   -0.5416   16.5121 C   0  0  0  0  0  0  0  0  0  0  0  0
    4.3864   -1.0493   16.3602 N   0  0  0  0  0  0  0  0  0  0  0  0
    3.8356   -0.3858   15.3271 C   0  0  0  0  0  0  0  0  0  0  0  0
    2.6225    2.1542   12.1213 C   0  0  0  0  0  0  0  0  0  0  0  0
    3.5396    2.6409   11.1644 C   0  0  0  0  0  0  0  0  0  0  0  0
    3.1535    3.4630   10.1051 C   0  0  0  0  0  0  0  0  0  0  0  0
    1.8086    3.8199   10.0132 C   0  0  0  0  0  0  0  0  0  0  0  0
    0.9978    4.6054    9.1182 C   0  0  0  0  0  0  0  0  0  0  0  0
   -0.2423    4.6093    9.5224 N   0  0  0  0  0  0  0  0  0  0  0  0
   -0.3299    3.8832   10.6368 N   0  0  0  0  0  0  0  0  0  0  0  0
    0.8842    3.3496   10.9964 C   0  0  0  0  0  0  0  0  0  0  0  0
    1.2618    2.5164   12.0586 C   0  0  0  0  0  0  0  0  0  0  0  0
   -0.3784   -2.5892   15.8339 C   0  0  0  0  0  0  0  0  0  0  0  0
   -1.7343   -2.8306   15.7168 C   0  0  0  0  0  0  0  0  0  0  0  0
   -2.5117   -2.0982   14.8261 C   0  0  0  0  0  0  0  0  0  0  0  0
   -3.8736   -2.3467   14.7445 N   0  0  0  0  0  0  0  0  0  0  0  0
   -4.6489   -2.3804   13.4950 C   0  0  0  0  0  0  0  0  0  0  0  0
   -5.4028   -3.7252   13.3613 C   0  0  0  0  0  0  0  0  0  0  0  0
   -6.2201   -3.9495   14.5061 O   0  0  0  0  0  0  0  0  0  0  0  0
   -5.4732   -4.0046   15.7182 C   0  0  0  0  0  0  0  0  0  0  0  0
   -4.7007   -2.7060   15.8980 C   0  0  0  0  0  0  0  0  0  0  0  0
   -2.9815    1.1466   11.7906 H   0  0  0  0  0  0  0  0  0  0  0  0
   -1.7242    1.4599   13.0346 H   0  0  0  0  0  0  0  0  0  0  0  0
   -1.4063    0.2871   11.7117 H   0  0  0  0  0  0  0  0  0  0  0  0
   -0.0657   -0.0517   13.5928 H   0  0  0  0  0  0  0  0  0  0  0  0
    2.0080   -1.9630   16.0281 H   0  0  0  0  0  0  0  0  0  0  0  0
    5.1376    1.9259   13.2300 H   0  0  0  0  0  0  0  0  0  0  0  0
    6.8310    0.9057   15.3087 H   0  0  0  0  0  0  0  0  0  0  0  0
    6.2747   -0.8021   17.3139 H   0  0  0  0  0  0  0  0  0  0  0  0
    4.2980    3.2045   11.7275 H   0  0  0  0  0  0  0  0  0  0  0  0
    4.0049    1.7543   10.7089 H   0  0  0  0  0  0  0  0  0  0  0  0
    3.8734    3.8118    9.3795 H   0  0  0  0  0  0  0  0  0  0  0  0
    1.3637    5.1168    8.2401 H   0  0  0  0  0  0  0  0  0  0  0  0
    0.5473    2.1701   12.7907 H   0  0  0  0  0  0  0  0  0  0  0  0
    0.2129   -3.1900   16.5090 H   0  0  0  0  0  0  0  0  0  0  0  0
   -2.1950   -3.5962   16.3235 H   0  0  0  0  0  0  0  0  0  0  0  0
   -5.3771   -1.5559   13.4984 H   0  0  0  0  0  0  0  0  0  0  0  0
   -3.9652   -2.2622   12.6414 H   0  0  0  0  0  0  0  0  0  0  0  0
   -6.0365   -3.6982   12.4626 H   0  0  0  0  0  0  0  0  0  0  0  0
   -4.6728   -4.5430   13.2707 H   0  0  0  0  0  0  0  0  0  0  0  0
   -6.1601   -4.1429   16.5661 H   0  0  0  0  0  0  0  0  0  0  0  0
   -4.7681   -4.8478   15.6763 H   0  0  0  0  0  0  0  0  0  0  0  0
   -4.0457   -2.8106   16.7755 H   0  0  0  0  0  0  0  0  0  0  0  0
   -5.4223   -1.8946   16.0737 H   0  0  0  0  0  0  0  0  0  0  0  0
  1  2  1  0  0  0  0
  2  3  1  0  0  0  0
  3  4  2  0  0  0  0
  3 27  1  0  0  0  0
  4  5  1  0  0  0  0
  5  6  1  0  0  0  0
  5 25  2  0  0  0  0
  6  7  1  0  0  0  0
  7  8  2  0  0  0  0
  7 15  1  0  0  0  0
  8  9  1  0  0  0  0
  9 10  2  0  0  0  0
  9 16  1  0  0  0  0
 10 11  1  0  0  0  0
 11 12  1  0  0  0  0
 11 15  1  0  0  0  0
 12 13  2  0  0  0  0
 13 14  1  0  0  0  0
 14 15  2  0  0  0  0
 16 17  1  0  0  0  0
 16 24  2  0  0  0  0
 17 18  1  0  0  0  0
 18 19  2  0  0  0  0
 19 20  1  0  0  0  0
 19 23  1  0  0  0  0
 20 21  2  0  0  0  0
 21 22  1  0  0  0  0
 22 23  2  0  0  0  0
 23 24  1  0  0  0  0
 25 26  1  0  0  0  0
 26 27  2  0  0  0  0
 27 28  1  0  0  0  0
 28 29  1  0  0  0  0
 28 33  1  0  0  0  0
 29 30  1  0  0  0  0
 30 31  1  0  0  0  0
 31 32  1  0  0  0  0
 32 33  1  0  0  0  0
  1 34  1  0  0  0  0
  1 35  1  0  0  0  0
  1 36  1  0  0  0  0
  4 37  1  0  0  0  0
  6 38  1  0  0  0  0
 10 39  1  0  0  0  0
 12 40  1  0  0  0  0
 13 41  1  0  0  0  0
 17 42  1  0  0  0  0
 17 43  1  0  0  0  0
 18 44  1  0  0  0  0
 20 45  1  0  0  0  0
 24 46  1  0  0  0  0
 25 47  1  0  0  0  0
 26 48  1  0  0  0  0
 29 49  1  0  0  0  0
 29 50  1  0  0  0  0
 30 51  1  0  0  0  0
 30 52  1  0  0  0  0
 32 53  1  0  0  0  0
 32 54  1  0  0  0  0
 33 55  1  0  0  0  0
 33 56  1  0  0  0  0
M  END
> <IC50[nM]>
0.44

$$$$
CHEMBL3265037
  -OEChem-05192314333D
 Structure written by MMmdl.
 56 61  0     0  0  0  0  0  0999 V2000
   -2.1744    0.6943   12.3856 C   0  0  0  0  0  0  0  0  0  0  0  0
   -2.7023   -0.3474   13.1823 O   0  0  0  0  0  0  0  0  0  0  0  0
   -1.9098   -1.0981   14.0384 C   0  0  0  0  0  0  0  0  0  0  0  0
   -0.5310   -0.8294   14.1803 C   0  0  0  0  0  0  0  0  0  0  0  0
    0.2355   -1.5834   15.0946 C   0  0  0  0  0  0  0  0  0  0  0  0
    1.6117   -1.3596   15.3361 N   0  0  0  0  0  0  0  0  0  0  0  0
    2.5319   -0.4372   14.7774 C   0  0  0  0  0  0  0  0  0  0  0  0
    2.1598    0.3941   13.7549 N   0  0  0  0  0  0  0  0  0  0  0  0
    3.0944    1.2396   13.2243 C   0  0  0  0  0  0  0  0  0  0  0  0
    4.4043    1.2833   13.6944 C   0  0  0  0  0  0  0  0  0  0  0  0
    4.7385    0.4947   14.7556 N   0  0  0  0  0  0  0  0  0  0  0  0
    5.8973    0.3913   15.4817 C   0  0  0  0  0  0  0  0  0  0  0  0
    5.5996   -0.5416   16.5121 C   0  0  0  0  0  0  0  0  0  0  0  0
    4.3864   -1.0493   16.3602 N   0  0  0  0  0  0  0  0  0  0  0  0
    3.8356   -0.3858   15.3271 C   0  0  0  0  0  0  0  0  0  0  0  0
    2.6225    2.1542   12.1213 C   0  0  0  0  0  0  0  0  0  0  0  0
    3.5396    2.6409   11.1644 C   0  0  0  0  0  0  0  0  0  0  0  0
    3.1535    3.4630   10.1051 C   0  0  0  0  0  0  0  0  0  0  0  0
    1.8086    3.8199   10.0132 C   0  0  0  0  0  0  0  0  0  0  0  0
    0.9978    4.6054    9.1182 C   0  0  0  0  0  0  0  0  0  0  0  0
   -0.2423    4.6093    9.5224 N   0  0  0  0  0  0  0  0  0  0  0  0
   -0.3299    3.8832   10.6368 N   0  0  0  0  0  0  0  0  0  0  0  0
    0.8842    3.3496   10.9964 C   0  0  0  0  0  0  0  0  0  0  0  0
    1.2618    2.5164   12.0586 C   0  0  0  0  0  0  0  0  0  0  0  0
   -0.3784   -2.5892   15.8339 C   0  0  0  0  0  0  0  0  0  0  0  0
   -1.7343   -2.8306   15.7168 C   0  0  0  0  0  0  0  0  0  0  0  0
   -2.5117   -2.0982   14.8261 C   0  0  0  0  0  0  0  0  0  0  0  0
   -3.8736   -2.3467   14.7445 N   0  0  0  0  0  0  0  0  0  0  0  0
   -4.6489   -2.3804   13.4950 C   0  0  0  0  0  0  0  0  0  0  0  0
   -5.4028   -3.7252   13.3613 C   0  0  0  0  0  0  0  0  0  0  0  0
   -6.2201   -3.9495   14.5061 O   0  0  0  0  0  0  0  0  0  0  0  0
   -5.4732   -4.0046   15.7182 C   0  0  0  0  0  0  0  0  0  0  0  0
   -4.7007   -2.7060   15.8980 C   0  0  0  0  0  0  0  0  0  0  0  0
   -2.9815    1.1466   11.7906 H   0  0  0  0  0  0  0  0  0  0  0  0
   -1.7242    1.4599   13.0346 H   0  0  0  0  0  0  0  0  0  0  0  0
   -1.4063    0.2871   11.7117 H   0  0  0  0  0  0  0  0  0  0  0  0
   -0.0657   -0.0517   13.5928 H   0  0  0  0  0  0  0  0  0  0  0  0
    2.0080   -1.9630   16.0281 H   0  0  0  0  0  0  0  0  0  0  0  0
    5.1376    1.9259   13.2300 H   0  0  0  0  0  0  0  0  0  0  0  0
    6.8310    0.9057   15.3087 H   0  0  0  0  0  0  0  0  0  0  0  0
    6.2747   -0.8021   17.3139 H   0  0  0  0  0  0  0  0  0  0  0  0
    4.5801    2.3663   11.2559 H   0  0  0  0  0  0  0  0  0  0  0  0
    3.8734    3.8118    9.3795 H   0  0  0  0  0  0  0  0  0  0  0  0
    1.3637    5.1168    8.2401 H   0  0  0  0  0  0  0  0  0  0  0  0
    0.6728    1.5905   11.9826 H   0  0  0  0  0  0  0  0  0  0  0  0
    1.0106    3.0350   12.9956 H   0  0  0  0  0  0  0  0  0  0  0  0
    0.2129   -3.1900   16.5090 H   0  0  0  0  0  0  0  0  0  0  0  0
   -2.1950   -3.5962   16.3235 H   0  0  0  0  0  0  0  0  0  0  0  0
   -5.3771   -1.5559   13.4984 H   0  0  0  0  0  0  0  0  0  0  0  0
   -3.9652   -2.2622   12.6414 H   0  0  0  0  0  0  0  0  0  0  0  0
   -6.0365   -3.6982   12.4626 H   0  0  0  0  0  0  0  0  0  0  0  0
   -4.6728   -4.5430   13.2707 H   0  0  0  0  0  0  0  0  0  0  0  0
   -6.1601   -4.1429   16.5661 H   0  0  0  0  0  0  0  0  0  0  0  0
   -4.7681   -4.8478   15.6763 H   0  0  0  0  0  0  0  0  0  0  0  0
   -4.0457   -2.8106   16.7755 H   0  0  0  0  0  0  0  0  0  0  0  0
   -5.4223   -1.8946   16.0737 H   0  0  0  0  0  0  0  0  0  0  0  0
  1  2  1  0  0  0  0
  2  3  1  0  0  0  0
  3  4  2  0  0  0  0
  3 27  1  0  0  0  0
  4  5  1  0  0  0  0
  5  6  1  0  0  0  0
  5 25  2  0  0  0  0
  6  7  1  0  0  0  0
  7  8  2  0  0  0  0
  7 15  1  0  0  0  0
  8  9  1  0  0  0  0
  9 10  2  0  0  0  0
  9 16  1  0  0  0  0
 10 11  1  0  0  0  0
 11 12  1  0  0  0  0
 11 15  1  0  0  0  0
 12 13  2  0  0  0  0
 13 14  1  0  0  0  0
 14 15  2  0  0  0  0
 16 17  2  0  0  0  0
 16 24  1  0  0  0  0
 17 18  1  0  0  0  0
 18 19  2  0  0  0  0
 19 20  1  0  0  0  0
 19 23  1  0  0  0  0
 20 21  2  0  0  0  0
 21 22  1  0  0  0  0
 22 23  2  0  0  0  0
 23 24  1  0  0  0  0
 25 26  1  0  0  0  0
 26 27  2  0  0  0  0
 27 28  1  0  0  0  0
 28 29  1  0  0  0  0
 28 33  1  0  0  0  0
 29 30  1  0  0  0  0
 30 31  1  0  0  0  0
 31 32  1  0  0  0  0
 32 33  1  0  0  0  0
  1 34  1  0  0  0  0
  1 35  1  0  0  0  0
  1 36  1  0  0  0  0
  4 37  1  0  0  0  0
  6 38  1  0  0  0  0
 10 39  1  0  0  0  0
 12 40  1  0  0  0  0
 13 41  1  0  0  0  0
 17 42  1  0  0  0  0
 18 43  1  0  0  0  0
 20 44  1  0  0  0  0
 24 45  1  0  0  0  0
 24 46  1  0  0  0  0
 25 47  1  0  0  0  0
 26 48  1  0  0  0  0
 29 49  1  0  0  0  0
 29 50  1  0  0  0  0
 30 51  1  0  0  0  0
 30 52  1  0  0  0  0
 32 53  1  0  0  0  0
 32 54  1  0  0  0  0
 33 55  1  0  0  0  0
 33 56  1  0  0  0  0
M  END
> <IC50[nM]>
0.44

$$$$
CHEMBL3265037
  -OEChem-05192314333D
 Structure written by MMmdl.
 56 61  0     1  0  0  0  0  0999 V2000
   -2.1744    0.6943   12.3856 C   0  0  0  0  0  0  0  0  0  0  0  0
   -2.7023   -0.3474   13.1823 O   0  0  0  0  0  0  0  0  0  0  0  0
   -1.9098   -1.0981   14.0384 C   0  0  0  0  0  0  0  0  0  0  0  0
   -0.5310   -0.8294   14.1803 C   0  0  0  0  0  0  0  0  0  0  0  0
    0.2355   -1.5834   15.0946 C   0  0  0  0  0  0  0  0  0  0  0  0
    1.6117   -1.3596   15.3361 N   0  0  0  0  0  0  0  0  0  0  0  0
    2.5319   -0.4372   14.7774 C   0  0  0  0  0  0  0  0  0  0  0  0
    2.1598    0.3941   13.7549 N   0  0  0  0  0  0  0  0  0  0  0  0
    3.0944    1.2396   13.2243 C   0  0  0  0  0  0  0  0  0  0  0  0
    4.4043    1.2833   13.6944 C   0  0  0  0  0  0  0  0  0  0  0  0
    4.7385    0.4947   14.7556 N   0  0  0  0  0  0  0  0  0  0  0  0
    5.8973    0.3913   15.4817 C   0  0  0  0  0  0  0  0  0  0  0  0
    5.5996   -0.5416   16.5121 C   0  0  0  0  0  0  0  0  0  0  0  0
    4.3864   -1.0493   16.3602 N   0  0  0  0  0  0  0  0  0  0  0  0
    3.8356   -0.3858   15.3271 C   0  0  0  0  0  0  0  0  0  0  0  0
    2.6225    2.1542   12.1213 C   0  0  3  0  0  0  0  0  0  0  0  0
    3.5396    2.6409   11.1644 C   0  0  0  0  0  0  0  0  0  0  0  0
    3.1535    3.4630   10.1051 C   0  0  0  0  0  0  0  0  0  0  0  0
    1.8086    3.8199   10.0132 C   0  0  0  0  0  0  0  0  0  0  0  0
    0.9978    4.6054    9.1182 C   0  0  0  0  0  0  0  0  0  0  0  0
   -0.2423    4.6093    9.5224 N   0  0  0  0  0  0  0  0  0  0  0  0
   -0.3299    3.8832   10.6368 N   0  0  0  0  0  0  0  0  0  0  0  0
    0.8842    3.3496   10.9964 C   0  0  0  0  0  0  0  0  0  0  0  0
    1.2618    2.5164   12.0586 C   0  0  0  0  0  0  0  0  0  0  0  0
   -0.3784   -2.5892   15.8339 C   0  0  0  0  0  0  0  0  0  0  0  0
   -1.7343   -2.8306   15.7168 C   0  0  0  0  0  0  0  0  0  0  0  0
   -2.5117   -2.0982   14.8261 C   0  0  0  0  0  0  0  0  0  0  0  0
   -3.8736   -2.3467   14.7445 N   0  0  0  0  0  0  0  0  0  0  0  0
   -4.6489   -2.3804   13.4950 C   0  0  0  0  0  0  0  0  0  0  0  0
   -5.4028   -3.7252   13.3613 C   0  0  0  0  0  0  0  0  0  0  0  0
   -6.2201   -3.9495   14.5061 O   0  0  0  0  0  0  0  0  0  0  0  0
   -5.4732   -4.0046   15.7182 C   0  0  0  0  0  0  0  0  0  0  0  0
   -4.7007   -2.7060   15.8980 C   0  0  0  0  0  0  0  0  0  0  0  0
   -2.9815    1.1466   11.7906 H   0  0  0  0  0  0  0  0  0  0  0  0
   -1.7242    1.4599   13.0346 H   0  0  0  0  0  0  0  0  0  0  0  0
   -1.4063    0.2871   11.7117 H   0  0  0  0  0  0  0  0  0  0  0  0
   -0.0657   -0.0517   13.5928 H   0  0  0  0  0  0  0  0  0  0  0  0
    2.0080   -1.9630   16.0281 H   0  0  0  0  0  0  0  0  0  0  0  0
    5.1376    1.9259   13.2300 H   0  0  0  0  0  0  0  0  0  0  0  0
    6.8310    0.9057   15.3087 H   0  0  0  0  0  0  0  0  0  0  0  0
    6.2747   -0.8021   17.3139 H   0  0  0  0  0  0  0  0  0  0  0  0
    2.4199    1.2811   11.4836 H   0  0  0  0  0  0  0  0  0  0  0  0
    4.5801    2.3663   11.2559 H   0  0  0  0  0  0  0  0  0  0  0  0
    3.8734    3.8118    9.3795 H   0  0  0  0  0  0  0  0  0  0  0  0
    1.3637    5.1168    8.2401 H   0  0  0  0  0  0  0  0  0  0  0  0
    0.5473    2.1701   12.7907 H   0  0  0  0  0  0  0  0  0  0  0  0
    0.2129   -3.1900   16.5090 H   0  0  0  0  0  0  0  0  0  0  0  0
   -2.1950   -3.5962   16.3235 H   0  0  0  0  0  0  0  0  0  0  0  0
   -5.3771   -1.5559   13.4984 H   0  0  0  0  0  0  0  0  0  0  0  0
   -3.9652   -2.2622   12.6414 H   0  0  0  0  0  0  0  0  0  0  0  0
   -6.0365   -3.6982   12.4626 H   0  0  0  0  0  0  0  0  0  0  0  0
   -4.6728   -4.5430   13.2707 H   0  0  0  0  0  0  0  0  0  0  0  0
   -6.1601   -4.1429   16.5661 H   0  0  0  0  0  0  0  0  0  0  0  0
   -4.7681   -4.8478   15.6763 H   0  0  0  0  0  0  0  0  0  0  0  0
   -4.0457   -2.8106   16.7755 H   0  0  0  0  0  0  0  0  0  0  0  0
   -5.4223   -1.8946   16.0737 H   0  0  0  0  0  0  0  0  0  0  0  0
  1  2  1  0  0  0  0
  2  3  1  0  0  0  0
  3  4  2  0  0  0  0
  3 27  1  0  0  0  0
  4  5  1  0  0  0  0
  5  6  1  0  0  0  0
  5 25  2  0  0  0  0
  6  7  1  0  0  0  0
  7  8  2  0  0  0  0
  7 15  1  0  0  0  0
  8  9  1  0  0  0  0
  9 10  2  0  0  0  0
  9 16  1  0  0  0  0
 10 11  1  0  0  0  0
 11 12  1  0  0  0  0
 11 15  1  0  0  0  0
 12 13  2  0  0  0  0
 13 14  1  0  0  0  0
 14 15  2  0  0  0  0
 16 17  1  0  0  0  0
 16 24  1  0  0  0  0
 17 18  2  0  0  0  0
 18 19  1  0  0  0  0
 19 20  2  0  0  0  0
 19 23  1  0  0  0  0
 20 21  1  0  0  0  0
 21 22  2  0  0  0  0
 22 23  1  0  0  0  0
 23 24  2  0  0  0  0
 25 26  1  0  0  0  0
 26 27  2  0  0  0  0
 27 28  1  0  0  0  0
 28 29  1  0  0  0  0
 28 33  1  0  0  0  0
 29 30  1  0  0  0  0
 30 31  1  0  0  0  0
 31 32  1  0  0  0  0
 32 33  1  0  0  0  0
  1 34  1  0  0  0  0
  1 35  1  0  0  0  0
  1 36  1  0  0  0  0
  4 37  1  0  0  0  0
  6 38  1  0  0  0  0
 10 39  1  0  0  0  0
 12 40  1  0  0  0  0
 13 41  1  0  0  0  0
 16 42  1  0  0  0  0
 17 43  1  0  0  0  0
 18 44  1  0  0  0  0
 20 45  1  0  0  0  0
 24 46  1  0  0  0  0
 25 47  1  0  0  0  0
 26 48  1  0  0  0  0
 29 49  1  0  0  0  0
 29 50  1  0  0  0  0
 30 51  1  0  0  0  0
 30 52  1  0  0  0  0
 32 53  1  0  0  0  0
 32 54  1  0  0  0  0
 33 55  1  0  0  0  0
 33 56  1  0  0  0  0
M  END
> <IC50[nM]>
0.44

$$$$
CHEMBL3265037
  -OEChem-05192314333D
 Structure written by MMmdl.
 56 61  0     1  0  0  0  0  0999 V2000
   -2.1744    0.6943   12.3856 C   0  0  0  0  0  0  0  0  0  0  0  0
   -2.7023   -0.3474   13.1823 O   0  0  0  0  0  0  0  0  0  0  0  0
   -1.9098   -1.0981   14.0384 C   0  0  0  0  0  0  0  0  0  0  0  0
   -0.5310   -0.8294   14.1803 C   0  0  0  0  0  0  0  0  0  0  0  0
    0.2355   -1.5834   15.0946 C   0  0  0  0  0  0  0  0  0  0  0  0
    1.6117   -1.3596   15.3361 N   0  0  0  0  0  0  0  0  0  0  0  0
    2.5319   -0.4372   14.7774 C   0  0  0  0  0  0  0  0  0  0  0  0
    2.1598    0.3941   13.7549 N   0  0  0  0  0  0  0  0  0  0  0  0
    3.0944    1.2396   13.2243 C   0  0  0  0  0  0  0  0  0  0  0  0
    4.4043    1.2833   13.6944 C   0  0  0  0  0  0  0  0  0  0  0  0
    4.7385    0.4947   14.7556 N   0  0  0  0  0  0  0  0  0  0  0  0
    5.8973    0.3913   15.4817 C   0  0  0  0  0  0  0  0  0  0  0  0
    5.5996   -0.5416   16.5121 C   0  0  0  0  0  0  0  0  0  0  0  0
    4.3864   -1.0493   16.3602 N   0  0  0  0  0  0  0  0  0  0  0  0
    3.8356   -0.3858   15.3271 C   0  0  0  0  0  0  0  0  0  0  0  0
    2.6225    2.1542   12.1213 C   0  0  0  0  0  0  0  0  0  0  0  0
    3.5396    2.6409   11.1644 C   0  0  0  0  0  0  0  0  0  0  0  0
    3.1535    3.4630   10.1051 C   0  0  0  0  0  0  0  0  0  0  0  0
    1.8086    3.8199   10.0132 C   0  0  0  0  0  0  0  0  0  0  0  0
    0.9978    4.6054    9.1182 C   0  0  0  0  0  0  0  0  0  0  0  0
   -0.2423    4.6093    9.5224 N   0  0  0  0  0  0  0  0  0  0  0  0
   -0.3299    3.8832   10.6368 N   0  0  0  0  0  0  0  0  0  0  0  0
    0.8842    3.3496   10.9964 C   0  0  3  0  0  0  0  0  0  0  0  0
    1.2618    2.5164   12.0586 C   0  0  0  0  0  0  0  0  0  0  0  0
   -0.3784   -2.5892   15.8339 C   0  0  0  0  0  0  0  0  0  0  0  0
   -1.7343   -2.8306   15.7168 C   0  0  0  0  0  0  0  0  0  0  0  0
   -2.5117   -2.0982   14.8261 C   0  0  0  0  0  0  0  0  0  0  0  0
   -3.8736   -2.3467   14.7445 N   0  0  0  0  0  0  0  0  0  0  0  0
   -4.6489   -2.3804   13.4950 C   0  0  0  0  0  0  0  0  0  0  0  0
   -5.4028   -3.7252   13.3613 C   0  0  0  0  0  0  0  0  0  0  0  0
   -6.2201   -3.9495   14.5061 O   0  0  0  0  0  0  0  0  0  0  0  0
   -5.4732   -4.0046   15.7182 C   0  0  0  0  0  0  0  0  0  0  0  0
   -4.7007   -2.7060   15.8980 C   0  0  0  0  0  0  0  0  0  0  0  0
   -2.9815    1.1466   11.7906 H   0  0  0  0  0  0  0  0  0  0  0  0
   -1.7242    1.4599   13.0346 H   0  0  0  0  0  0  0  0  0  0  0  0
   -1.4063    0.2871   11.7117 H   0  0  0  0  0  0  0  0  0  0  0  0
   -0.0657   -0.0517   13.5928 H   0  0  0  0  0  0  0  0  0  0  0  0
    2.0080   -1.9630   16.0281 H   0  0  0  0  0  0  0  0  0  0  0  0
    5.1376    1.9259   13.2300 H   0  0  0  0  0  0  0  0  0  0  0  0
    6.8310    0.9057   15.3087 H   0  0  0  0  0  0  0  0  0  0  0  0
    6.2747   -0.8021   17.3139 H   0  0  0  0  0  0  0  0  0  0  0  0
    4.5801    2.3663   11.2559 H   0  0  0  0  0  0  0  0  0  0  0  0
    3.8734    3.8118    9.3795 H   0  0  0  0  0  0  0  0  0  0  0  0
    1.3637    5.1168    8.2401 H   0  0  0  0  0  0  0  0  0  0  0  0
    1.0910    4.2348   11.6158 H   0  0  0  0  0  0  0  0  0  0  0  0
    0.5473    2.1701   12.7907 H   0  0  0  0  0  0  0  0  0  0  0  0
    0.2129   -3.1900   16.5090 H   0  0  0  0  0  0  0  0  0  0  0  0
   -2.1950   -3.5962   16.3235 H   0  0  0  0  0  0  0  0  0  0  0  0
   -5.3771   -1.5559   13.4984 H   0  0  0  0  0  0  0  0  0  0  0  0
   -3.9652   -2.2622   12.6414 H   0  0  0  0  0  0  0  0  0  0  0  0
   -6.0365   -3.6982   12.4626 H   0  0  0  0  0  0  0  0  0  0  0  0
   -4.6728   -4.5430   13.2707 H   0  0  0  0  0  0  0  0  0  0  0  0
   -6.1601   -4.1429   16.5661 H   0  0  0  0  0  0  0  0  0  0  0  0
   -4.7681   -4.8478   15.6763 H   0  0  0  0  0  0  0  0  0  0  0  0
   -4.0457   -2.8106   16.7755 H   0  0  0  0  0  0  0  0  0  0  0  0
   -5.4223   -1.8946   16.0737 H   0  0  0  0  0  0  0  0  0  0  0  0
  1  2  1  0  0  0  0
  2  3  1  0  0  0  0
  3  4  2  0  0  0  0
  3 27  1  0  0  0  0
  4  5  1  0  0  0  0
  5  6  1  0  0  0  0
  5 25  2  0  0  0  0
  6  7  1  0  0  0  0
  7  8  2  0  0  0  0
  7 15  1  0  0  0  0
  8  9  1  0  0  0  0
  9 10  2  0  0  0  0
  9 16  1  0  0  0  0
 10 11  1  0  0  0  0
 11 12  1  0  0  0  0
 11 15  1  0  0  0  0
 12 13  2  0  0  0  0
 13 14  1  0  0  0  0
 14 15  2  0  0  0  0
 16 17  1  0  0  0  0
 16 24  2  0  0  0  0
 17 18  2  0  0  0  0
 18 19  1  0  0  0  0
 19 20  2  0  0  0  0
 19 23  1  0  0  0  0
 20 21  1  0  0  0  0
 21 22  2  0  0  0  0
 22 23  1  0  0  0  0
 23 24  1  0  0  0  0
 25 26  1  0  0  0  0
 26 27  2  0  0  0  0
 27 28  1  0  0  0  0
 28 29  1  0  0  0  0
 28 33  1  0  0  0  0
 29 30  1  0  0  0  0
 30 31  1  0  0  0  0
 31 32  1  0  0  0  0
 32 33  1  0  0  0  0
  1 34  1  0  0  0  0
  1 35  1  0  0  0  0
  1 36  1  0  0  0  0
  4 37  1  0  0  0  0
  6 38  1  0  0  0  0
 10 39  1  0  0  0  0
 12 40  1  0  0  0  0
 13 41  1  0  0  0  0
 17 42  1  0  0  0  0
 18 43  1  0  0  0  0
 20 44  1  0  0  0  0
 23 45  1  0  0  0  0
 24 46  1  0  0  0  0
 25 47  1  0  0  0  0
 26 48  1  0  0  0  0
 29 49  1  0  0  0  0
 29 50  1  0  0  0  0
 30 51  1  0  0  0  0
 30 52  1  0  0  0  0
 32 53  1  0  0  0  0
 32 54  1  0  0  0  0
 33 55  1  0  0  0  0
 33 56  1  0  0  0  0
M  END
> <IC50[nM]>
0.44

$$$$
CHEMBL3265037
  -OEChem-05192314333D
 Structure written by MMmdl.
 56 61  0     0  0  0  0  0  0999 V2000
   -2.1744    0.6943   12.3856 C   0  0  0  0  0  0  0  0  0  0  0  0
   -2.7023   -0.3474   13.1823 O   0  0  0  0  0  0  0  0  0  0  0  0
   -1.9098   -1.0981   14.0384 C   0  0  0  0  0  0  0  0  0  0  0  0
   -0.5310   -0.8294   14.1803 C   0  0  0  0  0  0  0  0  0  0  0  0
    0.2355   -1.5834   15.0946 C   0  0  0  0  0  0  0  0  0  0  0  0
    1.6117   -1.3596   15.3361 N   0  0  0  0  0  0  0  0  0  0  0  0
    2.5319   -0.4372   14.7774 C   0  0  0  0  0  0  0  0  0  0  0  0
    2.1598    0.3941   13.7549 N   0  0  0  0  0  0  0  0  0  0  0  0
    3.0944    1.2396   13.2243 C   0  0  0  0  0  0  0  0  0  0  0  0
    4.4043    1.2833   13.6944 C   0  0  0  0  0  0  0  0  0  0  0  0
    4.7385    0.4947   14.7556 N   0  0  0  0  0  0  0  0  0  0  0  0
    5.8973    0.3913   15.4817 C   0  0  0  0  0  0  0  0  0  0  0  0
    5.5996   -0.5416   16.5121 C   0  0  0  0  0  0  0  0  0  0  0  0
    4.3864   -1.0493   16.3602 N   0  0  0  0  0  0  0  0  0  0  0  0
    3.8356   -0.3858   15.3271 C   0  0  0  0  0  0  0  0  0  0  0  0
    2.6225    2.1542   12.1213 C   0  0  0  0  0  0  0  0  0  0  0  0
    3.5396    2.6409   11.1644 C   0  0  0  0  0  0  0  0  0  0  0  0
    3.1535    3.4630   10.1051 C   0  0  0  0  0  0  0  0  0  0  0  0
    1.8086    3.8199   10.0132 C   0  0  0  0  0  0  0  0  0  0  0  0
    0.9978    4.6054    9.1182 C   0  0  0  0  0  0  0  0  0  0  0  0
   -0.2423    4.6093    9.5224 N   0  0  0  0  0  0  0  0  0  0  0  0
   -0.3299    3.8832   10.6368 N   0  0  0  0  0  0  0  0  0  0  0  0
    0.8842    3.3496   10.9964 C   0  0  0  0  0  0  0  0  0  0  0  0
    1.2618    2.5164   12.0586 C   0  0  0  0  0  0  0  0  0  0  0  0
   -0.3784   -2.5892   15.8339 C   0  0  0  0  0  0  0  0  0  0  0  0
   -1.7343   -2.8306   15.7168 C   0  0  0  0  0  0  0  0  0  0  0  0
   -2.5117   -2.0982   14.8261 C   0  0  0  0  0  0  0  0  0  0  0  0
   -3.8736   -2.3467   14.7445 N   0  0  0  0  0  0  0  0  0  0  0  0
   -4.6489   -2.3804   13.4950 C   0  0  0  0  0  0  0  0  0  0  0  0
   -5.4028   -3.7252   13.3613 C   0  0  0  0  0  0  0  0  0  0  0  0
   -6.2201   -3.9495   14.5061 O   0  0  0  0  0  0  0  0  0  0  0  0
   -5.4732   -4.0046   15.7182 C   0  0  0  0  0  0  0  0  0  0  0  0
   -4.7007   -2.7060   15.8980 C   0  0  0  0  0  0  0  0  0  0  0  0
   -2.9815    1.1466   11.7906 H   0  0  0  0  0  0  0  0  0  0  0  0
   -1.7242    1.4599   13.0346 H   0  0  0  0  0  0  0  0  0  0  0  0
   -1.4063    0.2871   11.7117 H   0  0  0  0  0  0  0  0  0  0  0  0
   -0.0657   -0.0517   13.5928 H   0  0  0  0  0  0  0  0  0  0  0  0
    2.0080   -1.9630   16.0281 H   0  0  0  0  0  0  0  0  0  0  0  0
    5.1376    1.9259   13.2300 H   0  0  0  0  0  0  0  0  0  0  0  0
    6.8310    0.9057   15.3087 H   0  0  0  0  0  0  0  0  0  0  0  0
    6.2747   -0.8021   17.3139 H   0  0  0  0  0  0  0  0  0  0  0  0
    4.5801    2.3663   11.2559 H   0  0  0  0  0  0  0  0  0  0  0  0
    3.7348    4.3935   10.1838 H   0  0  0  0  0  0  0  0  0  0  0  0
    3.4188    2.9427    9.1730 H   0  0  0  0  0  0  0  0  0  0  0  0
    1.3637    5.1168    8.2401 H   0  0  0  0  0  0  0  0  0  0  0  0
    0.5473    2.1701   12.7907 H   0  0  0  0  0  0  0  0  0  0  0  0
    0.2129   -3.1900   16.5090 H   0  0  0  0  0  0  0  0  0  0  0  0
   -2.1950   -3.5962   16.3235 H   0  0  0  0  0  0  0  0  0  0  0  0
   -5.3771   -1.5559   13.4984 H   0  0  0  0  0  0  0  0  0  0  0  0
   -3.9652   -2.2622   12.6414 H   0  0  0  0  0  0  0  0  0  0  0  0
   -6.0365   -3.6982   12.4626 H   0  0  0  0  0  0  0  0  0  0  0  0
   -4.6728   -4.5430   13.2707 H   0  0  0  0  0  0  0  0  0  0  0  0
   -6.1601   -4.1429   16.5661 H   0  0  0  0  0  0  0  0  0  0  0  0
   -4.7681   -4.8478   15.6763 H   0  0  0  0  0  0  0  0  0  0  0  0
   -4.0457   -2.8106   16.7755 H   0  0  0  0  0  0  0  0  0  0  0  0
   -5.4223   -1.8946   16.0737 H   0  0  0  0  0  0  0  0  0  0  0  0
  1  2  1  0  0  0  0
  2  3  1  0  0  0  0
  3  4  2  0  0  0  0
  3 27  1  0  0  0  0
  4  5  1  0  0  0  0
  5  6  1  0  0  0  0
  5 25  2  0  0  0  0
  6  7  1  0  0  0  0
  7  8  2  0  0  0  0
  7 15  1  0  0  0  0
  8  9  1  0  0  0  0
  9 10  2  0  0  0  0
  9 16  1  0  0  0  0
 10 11  1  0  0  0  0
 11 12  1  0  0  0  0
 11 15  1  0  0  0  0
 12 13  2  0  0  0  0
 13 14  1  0  0  0  0
 14 15  2  0  0  0  0
 16 17  2  0  0  0  0
 16 24  1  0  0  0  0
 17 18  1  0  0  0  0
 18 19  1  0  0  0  0
 19 20  2  0  0  0  0
 19 23  1  0  0  0  0
 20 21  1  0  0  0  0
 21 22  2  0  0  0  0
 22 23  1  0  0  0  0
 23 24  2  0  0  0  0
 25 26  1  0  0  0  0
 26 27  2  0  0  0  0
 27 28  1  0  0  0  0
 28 29  1  0  0  0  0
 28 33  1  0  0  0  0
 29 30  1  0  0  0  0
 30 31  1  0  0  0  0
 31 32  1  0  0  0  0
 32 33  1  0  0  0  0
  1 34  1  0  0  0  0
  1 35  1  0  0  0  0
  1 36  1  0  0  0  0
  4 37  1  0  0  0  0
  6 38  1  0  0  0  0
 10 39  1  0  0  0  0
 12 40  1  0  0  0  0
 13 41  1  0  0  0  0
 17 42  1  0  0  0  0
 18 43  1  0  0  0  0
 18 44  1  0  0  0  0
 20 45  1  0  0  0  0
 24 46  1  0  0  0  0
 25 47  1  0  0  0  0
 26 48  1  0  0  0  0
 29 49  1  0  0  0  0
 29 50  1  0  0  0  0
 30 51  1  0  0  0  0
 30 52  1  0  0  0  0
 32 53  1  0  0  0  0
 32 54  1  0  0  0  0
 33 55  1  0  0  0  0
 33 56  1  0  0  0  0
M  END
> <IC50[nM]>
0.44

$$$$
CHEMBL3265037
  -OEChem-05192314333D
 Structure written by MMmdl.
 56 61  0     1  0  0  0  0  0999 V2000
   -2.1744    0.6943   12.3856 C   0  0  0  0  0  0  0  0  0  0  0  0
   -2.7023   -0.3474   13.1823 O   0  0  0  0  0  0  0  0  0  0  0  0
   -1.9098   -1.0981   14.0384 C   0  0  0  0  0  0  0  0  0  0  0  0
   -0.5310   -0.8294   14.1803 C   0  0  0  0  0  0  0  0  0  0  0  0
    0.2355   -1.5834   15.0946 C   0  0  0  0  0  0  0  0  0  0  0  0
    1.6117   -1.3596   15.3361 N   0  0  0  0  0  0  0  0  0  0  0  0
    2.5319   -0.4372   14.7774 C   0  0  0  0  0  0  0  0  0  0  0  0
    2.1598    0.3941   13.7549 N   0  0  0  0  0  0  0  0  0  0  0  0
    3.0944    1.2396   13.2243 C   0  0  0  0  0  0  0  0  0  0  0  0
    4.4043    1.2833   13.6944 C   0  0  0  0  0  0  0  0  0  0  0  0
    4.7385    0.4947   14.7556 N   0  0  0  0  0  0  0  0  0  0  0  0
    5.8973    0.3913   15.4817 C   0  0  0  0  0  0  0  0  0  0  0  0
    5.5996   -0.5416   16.5121 C   0  0  0  0  0  0  0  0  0  0  0  0
    4.3864   -1.0493   16.3602 N   0  0  0  0  0  0  0  0  0  0  0  0
    3.8356   -0.3858   15.3271 C   0  0  0  0  0  0  0  0  0  0  0  0
    2.6225    2.1542   12.1213 C   0  0  0  0  0  0  0  0  0  0  0  0
    3.5396    2.6409   11.1644 C   0  0  0  0  0  0  0  0  0  0  0  0
    3.1535    3.4630   10.1051 C   0  0  0  0  0  0  0  0  0  0  0  0
    1.8086    3.8199   10.0132 C   0  0  3  0  0  0  0  0  0  0  0  0
    0.9978    4.6054    9.1182 C   0  0  0  0  0  0  0  0  0  0  0  0
   -0.2423    4.6093    9.5224 N   0  0  0  0  0  0  0  0  0  0  0  0
   -0.3299    3.8832   10.6368 N   0  0  0  0  0  0  0  0  0  0  0  0
    0.8842    3.3496   10.9964 C   0  0  0  0  0  0  0  0  0  0  0  0
    1.2618    2.5164   12.0586 C   0  0  0  0  0  0  0  0  0  0  0  0
   -0.3784   -2.5892   15.8339 C   0  0  0  0  0  0  0  0  0  0  0  0
   -1.7343   -2.8306   15.7168 C   0  0  0  0  0  0  0  0  0  0  0  0
   -2.5117   -2.0982   14.8261 C   0  0  0  0  0  0  0  0  0  0  0  0
   -3.8736   -2.3467   14.7445 N   0  0  0  0  0  0  0  0  0  0  0  0
   -4.6489   -2.3804   13.4950 C   0  0  0  0  0  0  0  0  0  0  0  0
   -5.4028   -3.7252   13.3613 C   0  0  0  0  0  0  0  0  0  0  0  0
   -6.2201   -3.9495   14.5061 O   0  0  0  0  0  0  0  0  0  0  0  0
   -5.4732   -4.0046   15.7182 C   0  0  0  0  0  0  0  0  0  0  0  0
   -4.7007   -2.7060   15.8980 C   0  0  0  0  0  0  0  0  0  0  0  0
   -2.9815    1.1466   11.7906 H   0  0  0  0  0  0  0  0  0  0  0  0
   -1.7242    1.4599   13.0346 H   0  0  0  0  0  0  0  0  0  0  0  0
   -1.4063    0.2871   11.7117 H   0  0  0  0  0  0  0  0  0  0  0  0
   -0.0657   -0.0517   13.5928 H   0  0  0  0  0  0  0  0  0  0  0  0
    1.2237    0.3831   13.4034 H   0  0  0  0  0  0  0  0  0  0  0  0
    5.1376    1.9259   13.2300 H   0  0  0  0  0  0  0  0  0  0  0  0
    6.8310    0.9057   15.3087 H   0  0  0  0  0  0  0  0  0  0  0  0
    6.2747   -0.8021   17.3139 H   0  0  0  0  0  0  0  0  0  0  0  0
    4.5801    2.3663   11.2559 H   0  0  0  0  0  0  0  0  0  0  0  0
    3.8734    3.8118    9.3795 H   0  0  0  0  0  0  0  0  0  0  0  0
    2.0034    4.7144   10.6231 H   0  0  0  0  0  0  0  0  0  0  0  0
    1.3637    5.1168    8.2401 H   0  0  0  0  0  0  0  0  0  0  0  0
    0.5473    2.1701   12.7907 H   0  0  0  0  0  0  0  0  0  0  0  0
    0.2129   -3.1900   16.5090 H   0  0  0  0  0  0  0  0  0  0  0  0
   -2.1950   -3.5962   16.3235 H   0  0  0  0  0  0  0  0  0  0  0  0
   -5.3771   -1.5559   13.4984 H   0  0  0  0  0  0  0  0  0  0  0  0
   -3.9652   -2.2622   12.6414 H   0  0  0  0  0  0  0  0  0  0  0  0
   -6.0365   -3.6982   12.4626 H   0  0  0  0  0  0  0  0  0  0  0  0
   -4.6728   -4.5430   13.2707 H   0  0  0  0  0  0  0  0  0  0  0  0
   -6.1601   -4.1429   16.5661 H   0  0  0  0  0  0  0  0  0  0  0  0
   -4.7681   -4.8478   15.6763 H   0  0  0  0  0  0  0  0  0  0  0  0
   -4.0457   -2.8106   16.7755 H   0  0  0  0  0  0  0  0  0  0  0  0
   -5.4223   -1.8946   16.0737 H   0  0  0  0  0  0  0  0  0  0  0  0
  1  2  1  0  0  0  0
  2  3  1  0  0  0  0
  3  4  2  0  0  0  0
  3 27  1  0  0  0  0
  4  5  1  0  0  0  0
  5  6  1  0  0  0  0
  5 25  2  0  0  0  0
  6  7  2  0  0  0  0
  7  8  1  0  0  0  0
  7 15  1  0  0  0  0
  8  9  1  0  0  0  0
  9 10  2  0  0  0  0
  9 16  1  0  0  0  0
 10 11  1  0  0  0  0
 11 12  1  0  0  0  0
 11 15  1  0  0  0  0
 12 13  2  0  0  0  0
 13 14  1  0  0  0  0
 14 15  2  0  0  0  0
 16 17  1  0  0  0  0
 16 24  2  0  0  0  0
 17 18  2  0  0  0  0
 18 19  1  0  0  0  0
 19 20  1  0  0  0  0
 19 23  1  0  0  0  0
 20 21  2  0  0  0  0
 21 22  1  0  0  0  0
 22 23  2  0  0  0  0
 23 24  1  0  0  0  0
 25 26  1  0  0  0  0
 26 27  2  0  0  0  0
 27 28  1  0  0  0  0
 28 29  1  0  0  0  0
 28 33  1  0  0  0  0
 29 30  1  0  0  0  0
 30 31  1  0  0  0  0
 31 32  1  0  0  0  0
 32 33  1  0  0  0  0
  1 34  1  0  0  0  0
  1 35  1  0  0  0  0
  1 36  1  0  0  0  0
  4 37  1  0  0  0  0
  8 38  1  0  0  0  0
 10 39  1  0  0  0  0
 12 40  1  0  0  0  0
 13 41  1  0  0  0  0
 17 42  1  0  0  0  0
 18 43  1  0  0  0  0
 19 44  1  0  0  0  0
 20 45  1  0  0  0  0
 24 46  1  0  0  0  0
 25 47  1  0  0  0  0
 26 48  1  0  0  0  0
 29 49  1  0  0  0  0
 29 50  1  0  0  0  0
 30 51  1  0  0  0  0
 30 52  1  0  0  0  0
 32 53  1  0  0  0  0
 32 54  1  0  0  0  0
 33 55  1  0  0  0  0
 33 56  1  0  0  0  0
M  END
> <IC50[nM]>
0.44

$$$$
CHEMBL3265037
  -OEChem-05192314333D
 Structure written by MMmdl.
 56 61  0     0  0  0  0  0  0999 V2000
   -2.1744    0.6943   12.3856 C   0  0  0  0  0  0  0  0  0  0  0  0
   -2.7023   -0.3474   13.1823 O   0  0  0  0  0  0  0  0  0  0  0  0
   -1.9098   -1.0981   14.0384 C   0  0  0  0  0  0  0  0  0  0  0  0
   -0.5310   -0.8294   14.1803 C   0  0  0  0  0  0  0  0  0  0  0  0
    0.2355   -1.5834   15.0946 C   0  0  0  0  0  0  0  0  0  0  0  0
    1.6117   -1.3596   15.3361 N   0  0  0  0  0  0  0  0  0  0  0  0
    2.5319   -0.4372   14.7774 C   0  0  0  0  0  0  0  0  0  0  0  0
    2.1598    0.3941   13.7549 N   0  0  0  0  0  0  0  0  0  0  0  0
    3.0944    1.2396   13.2243 C   0  0  0  0  0  0  0  0  0  0  0  0
    4.4043    1.2833   13.6944 C   0  0  0  0  0  0  0  0  0  0  0  0
    4.7385    0.4947   14.7556 N   0  0  0  0  0  0  0  0  0  0  0  0
    5.8973    0.3913   15.4817 C   0  0  0  0  0  0  0  0  0  0  0  0
    5.5996   -0.5416   16.5121 C   0  0  0  0  0  0  0  0  0  0  0  0
    4.3864   -1.0493   16.3602 N   0  0  0  0  0  0  0  0  0  0  0  0
    3.8356   -0.3858   15.3271 C   0  0  0  0  0  0  0  0  0  0  0  0
    2.6225    2.1542   12.1213 C   0  0  0  0  0  0  0  0  0  0  0  0
    3.5396    2.6409   11.1644 C   0  0  0  0  0  0  0  0  0  0  0  0
    3.1535    3.4630   10.1051 C   0  0  0  0  0  0  0  0  0  0  0  0
    1.8086    3.8199   10.0132 C   0  0  0  0  0  0  0  0  0  0  0  0
    0.9978    4.6054    9.1182 C   0  0  0  0  0  0  0  0  0  0  0  0
   -0.2423    4.6093    9.5224 N   0  0  0  0  0  0  0  0  0  0  0  0
   -0.3299    3.8832   10.6368 N   0  0  0  0  0  0  0  0  0  0  0  0
    0.8842    3.3496   10.9964 C   0  0  0  0  0  0  0  0  0  0  0  0
    1.2618    2.5164   12.0586 C   0  0  0  0  0  0  0  0  0  0  0  0
   -0.3784   -2.5892   15.8339 C   0  0  0  0  0  0  0  0  0  0  0  0
   -1.7343   -2.8306   15.7168 C   0  0  0  0  0  0  0  0  0  0  0  0
   -2.5117   -2.0982   14.8261 C   0  0  0  0  0  0  0  0  0  0  0  0
   -3.8736   -2.3467   14.7445 N   0  0  0  0  0  0  0  0  0  0  0  0
   -4.6489   -2.3804   13.4950 C   0  0  0  0  0  0  0  0  0  0  0  0
   -5.4028   -3.7252   13.3613 C   0  0  0  0  0  0  0  0  0  0  0  0
   -6.2201   -3.9495   14.5061 O   0  0  0  0  0  0  0  0  0  0  0  0
   -5.4732   -4.0046   15.7182 C   0  0  0  0  0  0  0  0  0  0  0  0
   -4.7007   -2.7060   15.8980 C   0  0  0  0  0  0  0  0  0  0  0  0
   -2.9815    1.1466   11.7906 H   0  0  0  0  0  0  0  0  0  0  0  0
   -1.7242    1.4599   13.0346 H   0  0  0  0  0  0  0  0  0  0  0  0
   -1.4063    0.2871   11.7117 H   0  0  0  0  0  0  0  0  0  0  0  0
   -0.0657   -0.0517   13.5928 H   0  0  0  0  0  0  0  0  0  0  0  0
    1.2237    0.3831   13.4034 H   0  0  0  0  0  0  0  0  0  0  0  0
    5.1376    1.9259   13.2300 H   0  0  0  0  0  0  0  0  0  0  0  0
    6.8310    0.9057   15.3087 H   0  0  0  0  0  0  0  0  0  0  0  0
    6.2747   -0.8021   17.3139 H   0  0  0  0  0  0  0  0  0  0  0  0
    4.2980    3.2045   11.7275 H   0  0  0  0  0  0  0  0  0  0  0  0
    4.0049    1.7543   10.7089 H   0  0  0  0  0  0  0  0  0  0  0  0
    3.8734    3.8118    9.3795 H   0  0  0  0  0  0  0  0  0  0  0  0
    1.3637    5.1168    8.2401 H   0  0  0  0  0  0  0  0  0  0  0  0
    0.5473    2.1701   12.7907 H   0  0  0  0  0  0  0  0  0  0  0  0
    0.2129   -3.1900   16.5090 H   0  0  0  0  0  0  0  0  0  0  0  0
   -2.1950   -3.5962   16.3235 H   0  0  0  0  0  0  0  0  0  0  0  0
   -5.3771   -1.5559   13.4984 H   0  0  0  0  0  0  0  0  0  0  0  0
   -3.9652   -2.2622   12.6414 H   0  0  0  0  0  0  0  0  0  0  0  0
   -6.0365   -3.6982   12.4626 H   0  0  0  0  0  0  0  0  0  0  0  0
   -4.6728   -4.5430   13.2707 H   0  0  0  0  0  0  0  0  0  0  0  0
   -6.1601   -4.1429   16.5661 H   0  0  0  0  0  0  0  0  0  0  0  0
   -4.7681   -4.8478   15.6763 H   0  0  0  0  0  0  0  0  0  0  0  0
   -4.0457   -2.8106   16.7755 H   0  0  0  0  0  0  0  0  0  0  0  0
   -5.4223   -1.8946   16.0737 H   0  0  0  0  0  0  0  0  0  0  0  0
  1  2  1  0  0  0  0
  2  3  1  0  0  0  0
  3  4  2  0  0  0  0
  3 27  1  0  0  0  0
  4  5  1  0  0  0  0
  5  6  1  0  0  0  0
  5 25  2  0  0  0  0
  6  7  2  0  0  0  0
  7  8  1  0  0  0  0
  7 15  1  0  0  0  0
  8  9  1  0  0  0  0
  9 10  2  0  0  0  0
  9 16  1  0  0  0  0
 10 11  1  0  0  0  0
 11 12  1  0  0  0  0
 11 15  1  0  0  0  0
 12 13  2  0  0  0  0
 13 14  1  0  0  0  0
 14 15  2  0  0  0  0
 16 17  1  0  0  0  0
 16 24  2  0  0  0  0
 17 18  1  0  0  0  0
 18 19  2  0  0  0  0
 19 20  1  0  0  0  0
 19 23  1  0  0  0  0
 20 21  2  0  0  0  0
 21 22  1  0  0  0  0
 22 23  2  0  0  0  0
 23 24  1  0  0  0  0
 25 26  1  0  0  0  0
 26 27  2  0  0  0  0
 27 28  1  0  0  0  0
 28 29  1  0  0  0  0
 28 33  1  0  0  0  0
 29 30  1  0  0  0  0
 30 31  1  0  0  0  0
 31 32  1  0  0  0  0
 32 33  1  0  0  0  0
  1 34  1  0  0  0  0
  1 35  1  0  0  0  0
  1 36  1  0  0  0  0
  4 37  1  0  0  0  0
  8 38  1  0  0  0  0
 10 39  1  0  0  0  0
 12 40  1  0  0  0  0
 13 41  1  0  0  0  0
 17 42  1  0  0  0  0
 17 43  1  0  0  0  0
 18 44  1  0  0  0  0
 20 45  1  0  0  0  0
 24 46  1  0  0  0  0
 25 47  1  0  0  0  0
 26 48  1  0  0  0  0
 29 49  1  0  0  0  0
 29 50  1  0  0  0  0
 30 51  1  0  0  0  0
 30 52  1  0  0  0  0
 32 53  1  0  0  0  0
 32 54  1  0  0  0  0
 33 55  1  0  0  0  0
 33 56  1  0  0  0  0
M  END
> <IC50[nM]>
0.44

$$$$
CHEMBL3265037
  -OEChem-05192314333D
 Structure written by MMmdl.
 56 61  0     0  0  0  0  0  0999 V2000
   -2.1744    0.6943   12.3856 C   0  0  0  0  0  0  0  0  0  0  0  0
   -2.7023   -0.3474   13.1823 O   0  0  0  0  0  0  0  0  0  0  0  0
   -1.9098   -1.0981   14.0384 C   0  0  0  0  0  0  0  0  0  0  0  0
   -0.5310   -0.8294   14.1803 C   0  0  0  0  0  0  0  0  0  0  0  0
    0.2355   -1.5834   15.0946 C   0  0  0  0  0  0  0  0  0  0  0  0
    1.6117   -1.3596   15.3361 N   0  0  0  0  0  0  0  0  0  0  0  0
    2.5319   -0.4372   14.7774 C   0  0  0  0  0  0  0  0  0  0  0  0
    2.1598    0.3941   13.7549 N   0  0  0  0  0  0  0  0  0  0  0  0
    3.0944    1.2396   13.2243 C   0  0  0  0  0  0  0  0  0  0  0  0
    4.4043    1.2833   13.6944 C   0  0  0  0  0  0  0  0  0  0  0  0
    4.7385    0.4947   14.7556 N   0  0  0  0  0  0  0  0  0  0  0  0
    5.8973    0.3913   15.4817 C   0  0  0  0  0  0  0  0  0  0  0  0
    5.5996   -0.5416   16.5121 C   0  0  0  0  0  0  0  0  0  0  0  0
    4.3864   -1.0493   16.3602 N   0  0  0  0  0  0  0  0  0  0  0  0
    3.8356   -0.3858   15.3271 C   0  0  0  0  0  0  0  0  0  0  0  0
    2.6225    2.1542   12.1213 C   0  0  0  0  0  0  0  0  0  0  0  0
    3.5396    2.6409   11.1644 C   0  0  0  0  0  0  0  0  0  0  0  0
    3.1535    3.4630   10.1051 C   0  0  0  0  0  0  0  0  0  0  0  0
    1.8086    3.8199   10.0132 C   0  0  0  0  0  0  0  0  0  0  0  0
    0.9978    4.6054    9.1182 C   0  0  0  0  0  0  0  0  0  0  0  0
   -0.2423    4.6093    9.5224 N   0  0  0  0  0  0  0  0  0  0  0  0
   -0.3299    3.8832   10.6368 N   0  0  0  0  0  0  0  0  0  0  0  0
    0.8842    3.3496   10.9964 C   0  0  0  0  0  0  0  0  0  0  0  0
    1.2618    2.5164   12.0586 C   0  0  0  0  0  0  0  0  0  0  0  0
   -0.3784   -2.5892   15.8339 C   0  0  0  0  0  0  0  0  0  0  0  0
   -1.7343   -2.8306   15.7168 C   0  0  0  0  0  0  0  0  0  0  0  0
   -2.5117   -2.0982   14.8261 C   0  0  0  0  0  0  0  0  0  0  0  0
   -3.8736   -2.3467   14.7445 N   0  0  0  0  0  0  0  0  0  0  0  0
   -4.6489   -2.3804   13.4950 C   0  0  0  0  0  0  0  0  0  0  0  0
   -5.4028   -3.7252   13.3613 C   0  0  0  0  0  0  0  0  0  0  0  0
   -6.2201   -3.9495   14.5061 O   0  0  0  0  0  0  0  0  0  0  0  0
   -5.4732   -4.0046   15.7182 C   0  0  0  0  0  0  0  0  0  0  0  0
   -4.7007   -2.7060   15.8980 C   0  0  0  0  0  0  0  0  0  0  0  0
   -2.9815    1.1466   11.7906 H   0  0  0  0  0  0  0  0  0  0  0  0
   -1.7242    1.4599   13.0346 H   0  0  0  0  0  0  0  0  0  0  0  0
   -1.4063    0.2871   11.7117 H   0  0  0  0  0  0  0  0  0  0  0  0
   -0.0657   -0.0517   13.5928 H   0  0  0  0  0  0  0  0  0  0  0  0
    1.2237    0.3831   13.4034 H   0  0  0  0  0  0  0  0  0  0  0  0
    5.1376    1.9259   13.2300 H   0  0  0  0  0  0  0  0  0  0  0  0
    6.8310    0.9057   15.3087 H   0  0  0  0  0  0  0  0  0  0  0  0
    6.2747   -0.8021   17.3139 H   0  0  0  0  0  0  0  0  0  0  0  0
    4.5801    2.3663   11.2559 H   0  0  0  0  0  0  0  0  0  0  0  0
    3.8734    3.8118    9.3795 H   0  0  0  0  0  0  0  0  0  0  0  0
    1.3637    5.1168    8.2401 H   0  0  0  0  0  0  0  0  0  0  0  0
    0.6728    1.5905   11.9826 H   0  0  0  0  0  0  0  0  0  0  0  0
    1.0106    3.0350   12.9956 H   0  0  0  0  0  0  0  0  0  0  0  0
    0.2129   -3.1900   16.5090 H   0  0  0  0  0  0  0  0  0  0  0  0
   -2.1950   -3.5962   16.3235 H   0  0  0  0  0  0  0  0  0  0  0  0
   -5.3771   -1.5559   13.4984 H   0  0  0  0  0  0  0  0  0  0  0  0
   -3.9652   -2.2622   12.6414 H   0  0  0  0  0  0  0  0  0  0  0  0
   -6.0365   -3.6982   12.4626 H   0  0  0  0  0  0  0  0  0  0  0  0
   -4.6728   -4.5430   13.2707 H   0  0  0  0  0  0  0  0  0  0  0  0
   -6.1601   -4.1429   16.5661 H   0  0  0  0  0  0  0  0  0  0  0  0
   -4.7681   -4.8478   15.6763 H   0  0  0  0  0  0  0  0  0  0  0  0
   -4.0457   -2.8106   16.7755 H   0  0  0  0  0  0  0  0  0  0  0  0
   -5.4223   -1.8946   16.0737 H   0  0  0  0  0  0  0  0  0  0  0  0
  1  2  1  0  0  0  0
  2  3  1  0  0  0  0
  3  4  2  0  0  0  0
  3 27  1  0  0  0  0
  4  5  1  0  0  0  0
  5  6  1  0  0  0  0
  5 25  2  0  0  0  0
  6  7  2  0  0  0  0
  7  8  1  0  0  0  0
  7 15  1  0  0  0  0
  8  9  1  0  0  0  0
  9 10  2  0  0  0  0
  9 16  1  0  0  0  0
 10 11  1  0  0  0  0
 11 12  1  0  0  0  0
 11 15  1  0  0  0  0
 12 13  2  0  0  0  0
 13 14  1  0  0  0  0
 14 15  2  0  0  0  0
 16 17  2  0  0  0  0
 16 24  1  0  0  0  0
 17 18  1  0  0  0  0
 18 19  2  0  0  0  0
 19 20  1  0  0  0  0
 19 23  1  0  0  0  0
 20 21  2  0  0  0  0
 21 22  1  0  0  0  0
 22 23  2  0  0  0  0
 23 24  1  0  0  0  0
 25 26  1  0  0  0  0
 26 27  2  0  0  0  0
 27 28  1  0  0  0  0
 28 29  1  0  0  0  0
 28 33  1  0  0  0  0
 29 30  1  0  0  0  0
 30 31  1  0  0  0  0
 31 32  1  0  0  0  0
 32 33  1  0  0  0  0
  1 34  1  0  0  0  0
  1 35  1  0  0  0  0
  1 36  1  0  0  0  0
  4 37  1  0  0  0  0
  8 38  1  0  0  0  0
 10 39  1  0  0  0  0
 12 40  1  0  0  0  0
 13 41  1  0  0  0  0
 17 42  1  0  0  0  0
 18 43  1  0  0  0  0
 20 44  1  0  0  0  0
 24 45  1  0  0  0  0
 24 46  1  0  0  0  0
 25 47  1  0  0  0  0
 26 48  1  0  0  0  0
 29 49  1  0  0  0  0
 29 50  1  0  0  0  0
 30 51  1  0  0  0  0
 30 52  1  0  0  0  0
 32 53  1  0  0  0  0
 32 54  1  0  0  0  0
 33 55  1  0  0  0  0
 33 56  1  0  0  0  0
M  END
> <IC50[nM]>
0.44

$$$$
CHEMBL3265037
  -OEChem-05192314333D
 Structure written by MMmdl.
 56 61  0     1  0  0  0  0  0999 V2000
   -2.1744    0.6943   12.3856 C   0  0  0  0  0  0  0  0  0  0  0  0
   -2.7023   -0.3474   13.1823 O   0  0  0  0  0  0  0  0  0  0  0  0
   -1.9098   -1.0981   14.0384 C   0  0  0  0  0  0  0  0  0  0  0  0
   -0.5310   -0.8294   14.1803 C   0  0  0  0  0  0  0  0  0  0  0  0
    0.2355   -1.5834   15.0946 C   0  0  0  0  0  0  0  0  0  0  0  0
    1.6117   -1.3596   15.3361 N   0  0  0  0  0  0  0  0  0  0  0  0
    2.5319   -0.4372   14.7774 C   0  0  0  0  0  0  0  0  0  0  0  0
    2.1598    0.3941   13.7549 N   0  0  0  0  0  0  0  0  0  0  0  0
    3.0944    1.2396   13.2243 C   0  0  0  0  0  0  0  0  0  0  0  0
    4.4043    1.2833   13.6944 C   0  0  0  0  0  0  0  0  0  0  0  0
    4.7385    0.4947   14.7556 N   0  0  0  0  0  0  0  0  0  0  0  0
    5.8973    0.3913   15.4817 C   0  0  0  0  0  0  0  0  0  0  0  0
    5.5996   -0.5416   16.5121 C   0  0  0  0  0  0  0  0  0  0  0  0
    4.3864   -1.0493   16.3602 N   0  0  0  0  0  0  0  0  0  0  0  0
    3.8356   -0.3858   15.3271 C   0  0  0  0  0  0  0  0  0  0  0  0
    2.6225    2.1542   12.1213 C   0  0  3  0  0  0  0  0  0  0  0  0
    3.5396    2.6409   11.1644 C   0  0  0  0  0  0  0  0  0  0  0  0
    3.1535    3.4630   10.1051 C   0  0  0  0  0  0  0  0  0  0  0  0
    1.8086    3.8199   10.0132 C   0  0  0  0  0  0  0  0  0  0  0  0
    0.9978    4.6054    9.1182 C   0  0  0  0  0  0  0  0  0  0  0  0
   -0.2423    4.6093    9.5224 N   0  0  0  0  0  0  0  0  0  0  0  0
   -0.3299    3.8832   10.6368 N   0  0  0  0  0  0  0  0  0  0  0  0
    0.8842    3.3496   10.9964 C   0  0  0  0  0  0  0  0  0  0  0  0
    1.2618    2.5164   12.0586 C   0  0  0  0  0  0  0  0  0  0  0  0
   -0.3784   -2.5892   15.8339 C   0  0  0  0  0  0  0  0  0  0  0  0
   -1.7343   -2.8306   15.7168 C   0  0  0  0  0  0  0  0  0  0  0  0
   -2.5117   -2.0982   14.8261 C   0  0  0  0  0  0  0  0  0  0  0  0
   -3.8736   -2.3467   14.7445 N   0  0  0  0  0  0  0  0  0  0  0  0
   -4.6489   -2.3804   13.4950 C   0  0  0  0  0  0  0  0  0  0  0  0
   -5.4028   -3.7252   13.3613 C   0  0  0  0  0  0  0  0  0  0  0  0
   -6.2201   -3.9495   14.5061 O   0  0  0  0  0  0  0  0  0  0  0  0
   -5.4732   -4.0046   15.7182 C   0  0  0  0  0  0  0  0  0  0  0  0
   -4.7007   -2.7060   15.8980 C   0  0  0  0  0  0  0  0  0  0  0  0
   -2.9815    1.1466   11.7906 H   0  0  0  0  0  0  0  0  0  0  0  0
   -1.7242    1.4599   13.0346 H   0  0  0  0  0  0  0  0  0  0  0  0
   -1.4063    0.2871   11.7117 H   0  0  0  0  0  0  0  0  0  0  0  0
   -0.0657   -0.0517   13.5928 H   0  0  0  0  0  0  0  0  0  0  0  0
    1.2237    0.3831   13.4034 H   0  0  0  0  0  0  0  0  0  0  0  0
    5.1376    1.9259   13.2300 H   0  0  0  0  0  0  0  0  0  0  0  0
    6.8310    0.9057   15.3087 H   0  0  0  0  0  0  0  0  0  0  0  0
    6.2747   -0.8021   17.3139 H   0  0  0  0  0  0  0  0  0  0  0  0
    2.4199    1.2811   11.4836 H   0  0  0  0  0  0  0  0  0  0  0  0
    4.5801    2.3663   11.2559 H   0  0  0  0  0  0  0  0  0  0  0  0
    3.8734    3.8118    9.3795 H   0  0  0  0  0  0  0  0  0  0  0  0
    1.3637    5.1168    8.2401 H   0  0  0  0  0  0  0  0  0  0  0  0
    0.5473    2.1701   12.7907 H   0  0  0  0  0  0  0  0  0  0  0  0
    0.2129   -3.1900   16.5090 H   0  0  0  0  0  0  0  0  0  0  0  0
   -2.1950   -3.5962   16.3235 H   0  0  0  0  0  0  0  0  0  0  0  0
   -5.3771   -1.5559   13.4984 H   0  0  0  0  0  0  0  0  0  0  0  0
   -3.9652   -2.2622   12.6414 H   0  0  0  0  0  0  0  0  0  0  0  0
   -6.0365   -3.6982   12.4626 H   0  0  0  0  0  0  0  0  0  0  0  0
   -4.6728   -4.5430   13.2707 H   0  0  0  0  0  0  0  0  0  0  0  0
   -6.1601   -4.1429   16.5661 H   0  0  0  0  0  0  0  0  0  0  0  0
   -4.7681   -4.8478   15.6763 H   0  0  0  0  0  0  0  0  0  0  0  0
   -4.0457   -2.8106   16.7755 H   0  0  0  0  0  0  0  0  0  0  0  0
   -5.4223   -1.8946   16.0737 H   0  0  0  0  0  0  0  0  0  0  0  0
  1  2  1  0  0  0  0
  2  3  1  0  0  0  0
  3  4  2  0  0  0  0
  3 27  1  0  0  0  0
  4  5  1  0  0  0  0
  5  6  1  0  0  0  0
  5 25  2  0  0  0  0
  6  7  2  0  0  0  0
  7  8  1  0  0  0  0
  7 15  1  0  0  0  0
  8  9  1  0  0  0  0
  9 10  2  0  0  0  0
  9 16  1  0  0  0  0
 10 11  1  0  0  0  0
 11 12  1  0  0  0  0
 11 15  1  0  0  0  0
 12 13  2  0  0  0  0
 13 14  1  0  0  0  0
 14 15  2  0  0  0  0
 16 17  1  0  0  0  0
 16 24  1  0  0  0  0
 17 18  2  0  0  0  0
 18 19  1  0  0  0  0
 19 20  2  0  0  0  0
 19 23  1  0  0  0  0
 20 21  1  0  0  0  0
 21 22  2  0  0  0  0
 22 23  1  0  0  0  0
 23 24  2  0  0  0  0
 25 26  1  0  0  0  0
 26 27  2  0  0  0  0
 27 28  1  0  0  0  0
 28 29  1  0  0  0  0
 28 33  1  0  0  0  0
 29 30  1  0  0  0  0
 30 31  1  0  0  0  0
 31 32  1  0  0  0  0
 32 33  1  0  0  0  0
  1 34  1  0  0  0  0
  1 35  1  0  0  0  0
  1 36  1  0  0  0  0
  4 37  1  0  0  0  0
  8 38  1  0  0  0  0
 10 39  1  0  0  0  0
 12 40  1  0  0  0  0
 13 41  1  0  0  0  0
 16 42  1  0  0  0  0
 17 43  1  0  0  0  0
 18 44  1  0  0  0  0
 20 45  1  0  0  0  0
 24 46  1  0  0  0  0
 25 47  1  0  0  0  0
 26 48  1  0  0  0  0
 29 49  1  0  0  0  0
 29 50  1  0  0  0  0
 30 51  1  0  0  0  0
 30 52  1  0  0  0  0
 32 53  1  0  0  0  0
 32 54  1  0  0  0  0
 33 55  1  0  0  0  0
 33 56  1  0  0  0  0
M  END
> <IC50[nM]>
0.44

$$$$
CHEMBL3265037
  -OEChem-05192314333D
 Structure written by MMmdl.
 56 61  0     1  0  0  0  0  0999 V2000
   -2.1744    0.6943   12.3856 C   0  0  0  0  0  0  0  0  0  0  0  0
   -2.7023   -0.3474   13.1823 O   0  0  0  0  0  0  0  0  0  0  0  0
   -1.9098   -1.0981   14.0384 C   0  0  0  0  0  0  0  0  0  0  0  0
   -0.5310   -0.8294   14.1803 C   0  0  0  0  0  0  0  0  0  0  0  0
    0.2355   -1.5834   15.0946 C   0  0  0  0  0  0  0  0  0  0  0  0
    1.6117   -1.3596   15.3361 N   0  0  0  0  0  0  0  0  0  0  0  0
    2.5319   -0.4372   14.7774 C   0  0  0  0  0  0  0  0  0  0  0  0
    2.1598    0.3941   13.7549 N   0  0  0  0  0  0  0  0  0  0  0  0
    3.0944    1.2396   13.2243 C   0  0  0  0  0  0  0  0  0  0  0  0
    4.4043    1.2833   13.6944 C   0  0  0  0  0  0  0  0  0  0  0  0
    4.7385    0.4947   14.7556 N   0  0  0  0  0  0  0  0  0  0  0  0
    5.8973    0.3913   15.4817 C   0  0  0  0  0  0  0  0  0  0  0  0
    5.5996   -0.5416   16.5121 C   0  0  0  0  0  0  0  0  0  0  0  0
    4.3864   -1.0493   16.3602 N   0  0  0  0  0  0  0  0  0  0  0  0
    3.8356   -0.3858   15.3271 C   0  0  0  0  0  0  0  0  0  0  0  0
    2.6225    2.1542   12.1213 C   0  0  0  0  0  0  0  0  0  0  0  0
    3.5396    2.6409   11.1644 C   0  0  0  0  0  0  0  0  0  0  0  0
    3.1535    3.4630   10.1051 C   0  0  0  0  0  0  0  0  0  0  0  0
    1.8086    3.8199   10.0132 C   0  0  0  0  0  0  0  0  0  0  0  0
    0.9978    4.6054    9.1182 C   0  0  0  0  0  0  0  0  0  0  0  0
   -0.2423    4.6093    9.5224 N   0  0  0  0  0  0  0  0  0  0  0  0
   -0.3299    3.8832   10.6368 N   0  0  0  0  0  0  0  0  0  0  0  0
    0.8842    3.3496   10.9964 C   0  0  3  0  0  0  0  0  0  0  0  0
    1.2618    2.5164   12.0586 C   0  0  0  0  0  0  0  0  0  0  0  0
   -0.3784   -2.5892   15.8339 C   0  0  0  0  0  0  0  0  0  0  0  0
   -1.7343   -2.8306   15.7168 C   0  0  0  0  0  0  0  0  0  0  0  0
   -2.5117   -2.0982   14.8261 C   0  0  0  0  0  0  0  0  0  0  0  0
   -3.8736   -2.3467   14.7445 N   0  0  0  0  0  0  0  0  0  0  0  0
   -4.6489   -2.3804   13.4950 C   0  0  0  0  0  0  0  0  0  0  0  0
   -5.4028   -3.7252   13.3613 C   0  0  0  0  0  0  0  0  0  0  0  0
   -6.2201   -3.9495   14.5061 O   0  0  0  0  0  0  0  0  0  0  0  0
   -5.4732   -4.0046   15.7182 C   0  0  0  0  0  0  0  0  0  0  0  0
   -4.7007   -2.7060   15.8980 C   0  0  0  0  0  0  0  0  0  0  0  0
   -2.9815    1.1466   11.7906 H   0  0  0  0  0  0  0  0  0  0  0  0
   -1.7242    1.4599   13.0346 H   0  0  0  0  0  0  0  0  0  0  0  0
   -1.4063    0.2871   11.7117 H   0  0  0  0  0  0  0  0  0  0  0  0
   -0.0657   -0.0517   13.5928 H   0  0  0  0  0  0  0  0  0  0  0  0
    1.2237    0.3831   13.4034 H   0  0  0  0  0  0  0  0  0  0  0  0
    5.1376    1.9259   13.2300 H   0  0  0  0  0  0  0  0  0  0  0  0
    6.8310    0.9057   15.3087 H   0  0  0  0  0  0  0  0  0  0  0  0
    6.2747   -0.8021   17.3139 H   0  0  0  0  0  0  0  0  0  0  0  0
    4.5801    2.3663   11.2559 H   0  0  0  0  0  0  0  0  0  0  0  0
    3.8734    3.8118    9.3795 H   0  0  0  0  0  0  0  0  0  0  0  0
    1.3637    5.1168    8.2401 H   0  0  0  0  0  0  0  0  0  0  0  0
    1.0910    4.2348   11.6158 H   0  0  0  0  0  0  0  0  0  0  0  0
    0.5473    2.1701   12.7907 H   0  0  0  0  0  0  0  0  0  0  0  0
    0.2129   -3.1900   16.5090 H   0  0  0  0  0  0  0  0  0  0  0  0
   -2.1950   -3.5962   16.3235 H   0  0  0  0  0  0  0  0  0  0  0  0
   -5.3771   -1.5559   13.4984 H   0  0  0  0  0  0  0  0  0  0  0  0
   -3.9652   -2.2622   12.6414 H   0  0  0  0  0  0  0  0  0  0  0  0
   -6.0365   -3.6982   12.4626 H   0  0  0  0  0  0  0  0  0  0  0  0
   -4.6728   -4.5430   13.2707 H   0  0  0  0  0  0  0  0  0  0  0  0
   -6.1601   -4.1429   16.5661 H   0  0  0  0  0  0  0  0  0  0  0  0
   -4.7681   -4.8478   15.6763 H   0  0  0  0  0  0  0  0  0  0  0  0
   -4.0457   -2.8106   16.7755 H   0  0  0  0  0  0  0  0  0  0  0  0
   -5.4223   -1.8946   16.0737 H   0  0  0  0  0  0  0  0  0  0  0  0
  1  2  1  0  0  0  0
  2  3  1  0  0  0  0
  3  4  2  0  0  0  0
  3 27  1  0  0  0  0
  4  5  1  0  0  0  0
  5  6  1  0  0  0  0
  5 25  2  0  0  0  0
  6  7  2  0  0  0  0
  7  8  1  0  0  0  0
  7 15  1  0  0  0  0
  8  9  1  0  0  0  0
  9 10  2  0  0  0  0
  9 16  1  0  0  0  0
 10 11  1  0  0  0  0
 11 12  1  0  0  0  0
 11 15  1  0  0  0  0
 12 13  2  0  0  0  0
 13 14  1  0  0  0  0
 14 15  2  0  0  0  0
 16 17  1  0  0  0  0
 16 24  2  0  0  0  0
 17 18  2  0  0  0  0
 18 19  1  0  0  0  0
 19 20  2  0  0  0  0
 19 23  1  0  0  0  0
 20 21  1  0  0  0  0
 21 22  2  0  0  0  0
 22 23  1  0  0  0  0
 23 24  1  0  0  0  0
 25 26  1  0  0  0  0
 26 27  2  0  0  0  0
 27 28  1  0  0  0  0
 28 29  1  0  0  0  0
 28 33  1  0  0  0  0
 29 30  1  0  0  0  0
 30 31  1  0  0  0  0
 31 32  1  0  0  0  0
 32 33  1  0  0  0  0
  1 34  1  0  0  0  0
  1 35  1  0  0  0  0
  1 36  1  0  0  0  0
  4 37  1  0  0  0  0
  8 38  1  0  0  0  0
 10 39  1  0  0  0  0
 12 40  1  0  0  0  0
 13 41  1  0  0  0  0
 17 42  1  0  0  0  0
 18 43  1  0  0  0  0
 20 44  1  0  0  0  0
 23 45  1  0  0  0  0
 24 46  1  0  0  0  0
 25 47  1  0  0  0  0
 26 48  1  0  0  0  0
 29 49  1  0  0  0  0
 29 50  1  0  0  0  0
 30 51  1  0  0  0  0
 30 52  1  0  0  0  0
 32 53  1  0  0  0  0
 32 54  1  0  0  0  0
 33 55  1  0  0  0  0
 33 56  1  0  0  0  0
M  END
> <IC50[nM]>
0.44

$$$$
CHEMBL3265037
  -OEChem-05192314333D
 Structure written by MMmdl.
 56 61  0     0  0  0  0  0  0999 V2000
   -2.1744    0.6943   12.3856 C   0  0  0  0  0  0  0  0  0  0  0  0
   -2.7023   -0.3474   13.1823 O   0  0  0  0  0  0  0  0  0  0  0  0
   -1.9098   -1.0981   14.0384 C   0  0  0  0  0  0  0  0  0  0  0  0
   -0.5310   -0.8294   14.1803 C   0  0  0  0  0  0  0  0  0  0  0  0
    0.2355   -1.5834   15.0946 C   0  0  0  0  0  0  0  0  0  0  0  0
    1.6117   -1.3596   15.3361 N   0  0  0  0  0  0  0  0  0  0  0  0
    2.5319   -0.4372   14.7774 C   0  0  0  0  0  0  0  0  0  0  0  0
    2.1598    0.3941   13.7549 N   0  0  0  0  0  0  0  0  0  0  0  0
    3.0944    1.2396   13.2243 C   0  0  0  0  0  0  0  0  0  0  0  0
    4.4043    1.2833   13.6944 C   0  0  0  0  0  0  0  0  0  0  0  0
    4.7385    0.4947   14.7556 N   0  0  0  0  0  0  0  0  0  0  0  0
    5.8973    0.3913   15.4817 C   0  0  0  0  0  0  0  0  0  0  0  0
    5.5996   -0.5416   16.5121 C   0  0  0  0  0  0  0  0  0  0  0  0
    4.3864   -1.0493   16.3602 N   0  0  0  0  0  0  0  0  0  0  0  0
    3.8356   -0.3858   15.3271 C   0  0  0  0  0  0  0  0  0  0  0  0
    2.6225    2.1542   12.1213 C   0  0  0  0  0  0  0  0  0  0  0  0
    3.5396    2.6409   11.1644 C   0  0  0  0  0  0  0  0  0  0  0  0
    3.1535    3.4630   10.1051 C   0  0  0  0  0  0  0  0  0  0  0  0
    1.8086    3.8199   10.0132 C   0  0  0  0  0  0  0  0  0  0  0  0
    0.9978    4.6054    9.1182 C   0  0  0  0  0  0  0  0  0  0  0  0
   -0.2423    4.6093    9.5224 N   0  0  0  0  0  0  0  0  0  0  0  0
   -0.3299    3.8832   10.6368 N   0  0  0  0  0  0  0  0  0  0  0  0
    0.8842    3.3496   10.9964 C   0  0  0  0  0  0  0  0  0  0  0  0
    1.2618    2.5164   12.0586 C   0  0  0  0  0  0  0  0  0  0  0  0
   -0.3784   -2.5892   15.8339 C   0  0  0  0  0  0  0  0  0  0  0  0
   -1.7343   -2.8306   15.7168 C   0  0  0  0  0  0  0  0  0  0  0  0
   -2.5117   -2.0982   14.8261 C   0  0  0  0  0  0  0  0  0  0  0  0
   -3.8736   -2.3467   14.7445 N   0  0  0  0  0  0  0  0  0  0  0  0
   -4.6489   -2.3804   13.4950 C   0  0  0  0  0  0  0  0  0  0  0  0
   -5.4028   -3.7252   13.3613 C   0  0  0  0  0  0  0  0  0  0  0  0
   -6.2201   -3.9495   14.5061 O   0  0  0  0  0  0  0  0  0  0  0  0
   -5.4732   -4.0046   15.7182 C   0  0  0  0  0  0  0  0  0  0  0  0
   -4.7007   -2.7060   15.8980 C   0  0  0  0  0  0  0  0  0  0  0  0
   -2.9815    1.1466   11.7906 H   0  0  0  0  0  0  0  0  0  0  0  0
   -1.7242    1.4599   13.0346 H   0  0  0  0  0  0  0  0  0  0  0  0
   -1.4063    0.2871   11.7117 H   0  0  0  0  0  0  0  0  0  0  0  0
   -0.0657   -0.0517   13.5928 H   0  0  0  0  0  0  0  0  0  0  0  0
    1.2237    0.3831   13.4034 H   0  0  0  0  0  0  0  0  0  0  0  0
    5.1376    1.9259   13.2300 H   0  0  0  0  0  0  0  0  0  0  0  0
    6.8310    0.9057   15.3087 H   0  0  0  0  0  0  0  0  0  0  0  0
    6.2747   -0.8021   17.3139 H   0  0  0  0  0  0  0  0  0  0  0  0
    4.5801    2.3663   11.2559 H   0  0  0  0  0  0  0  0  0  0  0  0
    3.7348    4.3935   10.1838 H   0  0  0  0  0  0  0  0  0  0  0  0
    3.4188    2.9427    9.1730 H   0  0  0  0  0  0  0  0  0  0  0  0
    1.3637    5.1168    8.2401 H   0  0  0  0  0  0  0  0  0  0  0  0
    0.5473    2.1701   12.7907 H   0  0  0  0  0  0  0  0  0  0  0  0
    0.2129   -3.1900   16.5090 H   0  0  0  0  0  0  0  0  0  0  0  0
   -2.1950   -3.5962   16.3235 H   0  0  0  0  0  0  0  0  0  0  0  0
   -5.3771   -1.5559   13.4984 H   0  0  0  0  0  0  0  0  0  0  0  0
   -3.9652   -2.2622   12.6414 H   0  0  0  0  0  0  0  0  0  0  0  0
   -6.0365   -3.6982   12.4626 H   0  0  0  0  0  0  0  0  0  0  0  0
   -4.6728   -4.5430   13.2707 H   0  0  0  0  0  0  0  0  0  0  0  0
   -6.1601   -4.1429   16.5661 H   0  0  0  0  0  0  0  0  0  0  0  0
   -4.7681   -4.8478   15.6763 H   0  0  0  0  0  0  0  0  0  0  0  0
   -4.0457   -2.8106   16.7755 H   0  0  0  0  0  0  0  0  0  0  0  0
   -5.4223   -1.8946   16.0737 H   0  0  0  0  0  0  0  0  0  0  0  0
  1  2  1  0  0  0  0
  2  3  1  0  0  0  0
  3  4  2  0  0  0  0
  3 27  1  0  0  0  0
  4  5  1  0  0  0  0
  5  6  1  0  0  0  0
  5 25  2  0  0  0  0
  6  7  2  0  0  0  0
  7  8  1  0  0  0  0
  7 15  1  0  0  0  0
  8  9  1  0  0  0  0
  9 10  2  0  0  0  0
  9 16  1  0  0  0  0
 10 11  1  0  0  0  0
 11 12  1  0  0  0  0
 11 15  1  0  0  0  0
 12 13  2  0  0  0  0
 13 14  1  0  0  0  0
 14 15  2  0  0  0  0
 16 17  2  0  0  0  0
 16 24  1  0  0  0  0
 17 18  1  0  0  0  0
 18 19  1  0  0  0  0
 19 20  2  0  0  0  0
 19 23  1  0  0  0  0
 20 21  1  0  0  0  0
 21 22  2  0  0  0  0
 22 23  1  0  0  0  0
 23 24  2  0  0  0  0
 25 26  1  0  0  0  0
 26 27  2  0  0  0  0
 27 28  1  0  0  0  0
 28 29  1  0  0  0  0
 28 33  1  0  0  0  0
 29 30  1  0  0  0  0
 30 31  1  0  0  0  0
 31 32  1  0  0  0  0
 32 33  1  0  0  0  0
  1 34  1  0  0  0  0
  1 35  1  0  0  0  0
  1 36  1  0  0  0  0
  4 37  1  0  0  0  0
  8 38  1  0  0  0  0
 10 39  1  0  0  0  0
 12 40  1  0  0  0  0
 13 41  1  0  0  0  0
 17 42  1  0  0  0  0
 18 43  1  0  0  0  0
 18 44  1  0  0  0  0
 20 45  1  0  0  0  0
 24 46  1  0  0  0  0
 25 47  1  0  0  0  0
 26 48  1  0  0  0  0
 29 49  1  0  0  0  0
 29 50  1  0  0  0  0
 30 51  1  0  0  0  0
 30 52  1  0  0  0  0
 32 53  1  0  0  0  0
 32 54  1  0  0  0  0
 33 55  1  0  0  0  0
 33 56  1  0  0  0  0
M  END
> <IC50[nM]>
0.44

$$$$
CHEMBL3265037
  -OEChem-05192314333D
 Structure written by MMmdl.
 56 61  0     1  0  0  0  0  0999 V2000
   -2.1744    0.6943   12.3856 C   0  0  0  0  0  0  0  0  0  0  0  0
   -2.7023   -0.3474   13.1823 O   0  0  0  0  0  0  0  0  0  0  0  0
   -1.9098   -1.0981   14.0384 C   0  0  0  0  0  0  0  0  0  0  0  0
   -0.5310   -0.8294   14.1803 C   0  0  0  0  0  0  0  0  0  0  0  0
    0.2355   -1.5834   15.0946 C   0  0  0  0  0  0  0  0  0  0  0  0
    1.6117   -1.3596   15.3361 N   0  0  0  0  0  0  0  0  0  0  0  0
    2.5319   -0.4372   14.7774 C   0  0  0  0  0  0  0  0  0  0  0  0
    2.1598    0.3941   13.7549 N   0  0  0  0  0  0  0  0  0  0  0  0
    3.0944    1.2396   13.2243 C   0  0  0  0  0  0  0  0  0  0  0  0
    4.4043    1.2833   13.6944 C   0  0  0  0  0  0  0  0  0  0  0  0
    4.7385    0.4947   14.7556 N   0  0  0  0  0  0  0  0  0  0  0  0
    5.8973    0.3913   15.4817 C   0  0  0  0  0  0  0  0  0  0  0  0
    5.5996   -0.5416   16.5121 C   0  0  0  0  0  0  0  0  0  0  0  0
    4.3864   -1.0493   16.3602 N   0  0  0  0  0  0  0  0  0  0  0  0
    3.8356   -0.3858   15.3271 C   0  0  0  0  0  0  0  0  0  0  0  0
    2.6225    2.1542   12.1213 C   0  0  0  0  0  0  0  0  0  0  0  0
    3.5396    2.6409   11.1644 C   0  0  0  0  0  0  0  0  0  0  0  0
    3.1535    3.4630   10.1051 C   0  0  0  0  0  0  0  0  0  0  0  0
    1.8086    3.8199   10.0132 C   0  0  3  0  0  0  0  0  0  0  0  0
    0.9978    4.6054    9.1182 C   0  0  0  0  0  0  0  0  0  0  0  0
   -0.2423    4.6093    9.5224 N   0  0  0  0  0  0  0  0  0  0  0  0
   -0.3299    3.8832   10.6368 N   0  0  0  0  0  0  0  0  0  0  0  0
    0.8842    3.3496   10.9964 C   0  0  0  0  0  0  0  0  0  0  0  0
    1.2618    2.5164   12.0586 C   0  0  0  0  0  0  0  0  0  0  0  0
   -0.3784   -2.5892   15.8339 C   0  0  0  0  0  0  0  0  0  0  0  0
   -1.7343   -2.8306   15.7168 C   0  0  0  0  0  0  0  0  0  0  0  0
   -2.5117   -2.0982   14.8261 C   0  0  0  0  0  0  0  0  0  0  0  0
   -3.8736   -2.3467   14.7445 N   0  0  0  0  0  0  0  0  0  0  0  0
   -4.6489   -2.3804   13.4950 C   0  0  0  0  0  0  0  0  0  0  0  0
   -5.4028   -3.7252   13.3613 C   0  0  0  0  0  0  0  0  0  0  0  0
   -6.2201   -3.9495   14.5061 O   0  0  0  0  0  0  0  0  0  0  0  0
   -5.4732   -4.0046   15.7182 C   0  0  0  0  0  0  0  0  0  0  0  0
   -4.7007   -2.7060   15.8980 C   0  0  0  0  0  0  0  0  0  0  0  0
   -2.9815    1.1466   11.7906 H   0  0  0  0  0  0  0  0  0  0  0  0
   -1.7242    1.4599   13.0346 H   0  0  0  0  0  0  0  0  0  0  0  0
   -1.4063    0.2871   11.7117 H   0  0  0  0  0  0  0  0  0  0  0  0
   -0.0657   -0.0517   13.5928 H   0  0  0  0  0  0  0  0  0  0  0  0
    5.0597    0.9984   12.8582 H   0  0  0  0  0  0  0  0  0  0  0  0
    4.6113    2.3240   13.9845 H   0  0  0  0  0  0  0  0  0  0  0  0
    6.8310    0.9057   15.3087 H   0  0  0  0  0  0  0  0  0  0  0  0
    6.2747   -0.8021   17.3139 H   0  0  0  0  0  0  0  0  0  0  0  0
    4.5801    2.3663   11.2559 H   0  0  0  0  0  0  0  0  0  0  0  0
    3.8734    3.8118    9.3795 H   0  0  0  0  0  0  0  0  0  0  0  0
    2.0034    4.7144   10.6231 H   0  0  0  0  0  0  0  0  0  0  0  0
    1.3637    5.1168    8.2401 H   0  0  0  0  0  0  0  0  0  0  0  0
    0.5473    2.1701   12.7907 H   0  0  0  0  0  0  0  0  0  0  0  0
    0.2129   -3.1900   16.5090 H   0  0  0  0  0  0  0  0  0  0  0  0
   -2.1950   -3.5962   16.3235 H   0  0  0  0  0  0  0  0  0  0  0  0
   -5.3771   -1.5559   13.4984 H   0  0  0  0  0  0  0  0  0  0  0  0
   -3.9652   -2.2622   12.6414 H   0  0  0  0  0  0  0  0  0  0  0  0
   -6.0365   -3.6982   12.4626 H   0  0  0  0  0  0  0  0  0  0  0  0
   -4.6728   -4.5430   13.2707 H   0  0  0  0  0  0  0  0  0  0  0  0
   -6.1601   -4.1429   16.5661 H   0  0  0  0  0  0  0  0  0  0  0  0
   -4.7681   -4.8478   15.6763 H   0  0  0  0  0  0  0  0  0  0  0  0
   -4.0457   -2.8106   16.7755 H   0  0  0  0  0  0  0  0  0  0  0  0
   -5.4223   -1.8946   16.0737 H   0  0  0  0  0  0  0  0  0  0  0  0
  1  2  1  0  0  0  0
  2  3  1  0  0  0  0
  3  4  2  0  0  0  0
  3 27  1  0  0  0  0
  4  5  1  0  0  0  0
  5  6  1  0  0  0  0
  5 25  2  0  0  0  0
  6  7  2  0  0  0  0
  7  8  1  0  0  0  0
  7 15  1  0  0  0  0
  8  9  2  0  0  0  0
  9 10  1  0  0  0  0
  9 16  1  0  0  0  0
 10 11  1  0  0  0  0
 11 12  1  0  0  0  0
 11 15  1  0  0  0  0
 12 13  2  0  0  0  0
 13 14  1  0  0  0  0
 14 15  2  0  0  0  0
 16 17  1  0  0  0  0
 16 24  2  0  0  0  0
 17 18  2  0  0  0  0
 18 19  1  0  0  0  0
 19 20  1  0  0  0  0
 19 23  1  0  0  0  0
 20 21  2  0  0  0  0
 21 22  1  0  0  0  0
 22 23  2  0  0  0  0
 23 24  1  0  0  0  0
 25 26  1  0  0  0  0
 26 27  2  0  0  0  0
 27 28  1  0  0  0  0
 28 29  1  0  0  0  0
 28 33  1  0  0  0  0
 29 30  1  0  0  0  0
 30 31  1  0  0  0  0
 31 32  1  0  0  0  0
 32 33  1  0  0  0  0
  1 34  1  0  0  0  0
  1 35  1  0  0  0  0
  1 36  1  0  0  0  0
  4 37  1  0  0  0  0
 10 38  1  0  0  0  0
 10 39  1  0  0  0  0
 12 40  1  0  0  0  0
 13 41  1  0  0  0  0
 17 42  1  0  0  0  0
 18 43  1  0  0  0  0
 19 44  1  0  0  0  0
 20 45  1  0  0  0  0
 24 46  1  0  0  0  0
 25 47  1  0  0  0  0
 26 48  1  0  0  0  0
 29 49  1  0  0  0  0
 29 50  1  0  0  0  0
 30 51  1  0  0  0  0
 30 52  1  0  0  0  0
 32 53  1  0  0  0  0
 32 54  1  0  0  0  0
 33 55  1  0  0  0  0
 33 56  1  0  0  0  0
M  END
> <IC50[nM]>
0.44

$$$$
CHEMBL3265037
  -OEChem-05192314333D
 Structure written by MMmdl.
 56 61  0     0  0  0  0  0  0999 V2000
   -2.1744    0.6943   12.3856 C   0  0  0  0  0  0  0  0  0  0  0  0
   -2.7023   -0.3474   13.1823 O   0  0  0  0  0  0  0  0  0  0  0  0
   -1.9098   -1.0981   14.0384 C   0  0  0  0  0  0  0  0  0  0  0  0
   -0.5310   -0.8294   14.1803 C   0  0  0  0  0  0  0  0  0  0  0  0
    0.2355   -1.5834   15.0946 C   0  0  0  0  0  0  0  0  0  0  0  0
    1.6117   -1.3596   15.3361 N   0  0  0  0  0  0  0  0  0  0  0  0
    2.5319   -0.4372   14.7774 C   0  0  0  0  0  0  0  0  0  0  0  0
    2.1598    0.3941   13.7549 N   0  0  0  0  0  0  0  0  0  0  0  0
    3.0944    1.2396   13.2243 C   0  0  0  0  0  0  0  0  0  0  0  0
    4.4043    1.2833   13.6944 C   0  0  0  0  0  0  0  0  0  0  0  0
    4.7385    0.4947   14.7556 N   0  0  0  0  0  0  0  0  0  0  0  0
    5.8973    0.3913   15.4817 C   0  0  0  0  0  0  0  0  0  0  0  0
    5.5996   -0.5416   16.5121 C   0  0  0  0  0  0  0  0  0  0  0  0
    4.3864   -1.0493   16.3602 N   0  0  0  0  0  0  0  0  0  0  0  0
    3.8356   -0.3858   15.3271 C   0  0  0  0  0  0  0  0  0  0  0  0
    2.6225    2.1542   12.1213 C   0  0  0  0  0  0  0  0  0  0  0  0
    3.5396    2.6409   11.1644 C   0  0  0  0  0  0  0  0  0  0  0  0
    3.1535    3.4630   10.1051 C   0  0  0  0  0  0  0  0  0  0  0  0
    1.8086    3.8199   10.0132 C   0  0  0  0  0  0  0  0  0  0  0  0
    0.9978    4.6054    9.1182 C   0  0  0  0  0  0  0  0  0  0  0  0
   -0.2423    4.6093    9.5224 N   0  0  0  0  0  0  0  0  0  0  0  0
   -0.3299    3.8832   10.6368 N   0  0  0  0  0  0  0  0  0  0  0  0
    0.8842    3.3496   10.9964 C   0  0  0  0  0  0  0  0  0  0  0  0
    1.2618    2.5164   12.0586 C   0  0  0  0  0  0  0  0  0  0  0  0
   -0.3784   -2.5892   15.8339 C   0  0  0  0  0  0  0  0  0  0  0  0
   -1.7343   -2.8306   15.7168 C   0  0  0  0  0  0  0  0  0  0  0  0
   -2.5117   -2.0982   14.8261 C   0  0  0  0  0  0  0  0  0  0  0  0
   -3.8736   -2.3467   14.7445 N   0  0  0  0  0  0  0  0  0  0  0  0
   -4.6489   -2.3804   13.4950 C   0  0  0  0  0  0  0  0  0  0  0  0
   -5.4028   -3.7252   13.3613 C   0  0  0  0  0  0  0  0  0  0  0  0
   -6.2201   -3.9495   14.5061 O   0  0  0  0  0  0  0  0  0  0  0  0
   -5.4732   -4.0046   15.7182 C   0  0  0  0  0  0  0  0  0  0  0  0
   -4.7007   -2.7060   15.8980 C   0  0  0  0  0  0  0  0  0  0  0  0
   -2.9815    1.1466   11.7906 H   0  0  0  0  0  0  0  0  0  0  0  0
   -1.7242    1.4599   13.0346 H   0  0  0  0  0  0  0  0  0  0  0  0
   -1.4063    0.2871   11.7117 H   0  0  0  0  0  0  0  0  0  0  0  0
   -0.0657   -0.0517   13.5928 H   0  0  0  0  0  0  0  0  0  0  0  0
    5.0597    0.9984   12.8582 H   0  0  0  0  0  0  0  0  0  0  0  0
    4.6113    2.3240   13.9845 H   0  0  0  0  0  0  0  0  0  0  0  0
    6.8310    0.9057   15.3087 H   0  0  0  0  0  0  0  0  0  0  0  0
    6.2747   -0.8021   17.3139 H   0  0  0  0  0  0  0  0  0  0  0  0
    4.2980    3.2045   11.7275 H   0  0  0  0  0  0  0  0  0  0  0  0
    4.0049    1.7543   10.7089 H   0  0  0  0  0  0  0  0  0  0  0  0
    3.8734    3.8118    9.3795 H   0  0  0  0  0  0  0  0  0  0  0  0
    1.3637    5.1168    8.2401 H   0  0  0  0  0  0  0  0  0  0  0  0
    0.5473    2.1701   12.7907 H   0  0  0  0  0  0  0  0  0  0  0  0
    0.2129   -3.1900   16.5090 H   0  0  0  0  0  0  0  0  0  0  0  0
   -2.1950   -3.5962   16.3235 H   0  0  0  0  0  0  0  0  0  0  0  0
   -5.3771   -1.5559   13.4984 H   0  0  0  0  0  0  0  0  0  0  0  0
   -3.9652   -2.2622   12.6414 H   0  0  0  0  0  0  0  0  0  0  0  0
   -6.0365   -3.6982   12.4626 H   0  0  0  0  0  0  0  0  0  0  0  0
   -4.6728   -4.5430   13.2707 H   0  0  0  0  0  0  0  0  0  0  0  0
   -6.1601   -4.1429   16.5661 H   0  0  0  0  0  0  0  0  0  0  0  0
   -4.7681   -4.8478   15.6763 H   0  0  0  0  0  0  0  0  0  0  0  0
   -4.0457   -2.8106   16.7755 H   0  0  0  0  0  0  0  0  0  0  0  0
   -5.4223   -1.8946   16.0737 H   0  0  0  0  0  0  0  0  0  0  0  0
  1  2  1  0  0  0  0
  2  3  1  0  0  0  0
  3  4  2  0  0  0  0
  3 27  1  0  0  0  0
  4  5  1  0  0  0  0
  5  6  1  0  0  0  0
  5 25  2  0  0  0  0
  6  7  2  0  0  0  0
  7  8  1  0  0  0  0
  7 15  1  0  0  0  0
  8  9  2  0  0  0  0
  9 10  1  0  0  0  0
  9 16  1  0  0  0  0
 10 11  1  0  0  0  0
 11 12  1  0  0  0  0
 11 15  1  0  0  0  0
 12 13  2  0  0  0  0
 13 14  1  0  0  0  0
 14 15  2  0  0  0  0
 16 17  1  0  0  0  0
 16 24  2  0  0  0  0
 17 18  1  0  0  0  0
 18 19  2  0  0  0  0
 19 20  1  0  0  0  0
 19 23  1  0  0  0  0
 20 21  2  0  0  0  0
 21 22  1  0  0  0  0
 22 23  2  0  0  0  0
 23 24  1  0  0  0  0
 25 26  1  0  0  0  0
 26 27  2  0  0  0  0
 27 28  1  0  0  0  0
 28 29  1  0  0  0  0
 28 33  1  0  0  0  0
 29 30  1  0  0  0  0
 30 31  1  0  0  0  0
 31 32  1  0  0  0  0
 32 33  1  0  0  0  0
  1 34  1  0  0  0  0
  1 35  1  0  0  0  0
  1 36  1  0  0  0  0
  4 37  1  0  0  0  0
 10 38  1  0  0  0  0
 10 39  1  0  0  0  0
 12 40  1  0  0  0  0
 13 41  1  0  0  0  0
 17 42  1  0  0  0  0
 17 43  1  0  0  0  0
 18 44  1  0  0  0  0
 20 45  1  0  0  0  0
 24 46  1  0  0  0  0
 25 47  1  0  0  0  0
 26 48  1  0  0  0  0
 29 49  1  0  0  0  0
 29 50  1  0  0  0  0
 30 51  1  0  0  0  0
 30 52  1  0  0  0  0
 32 53  1  0  0  0  0
 32 54  1  0  0  0  0
 33 55  1  0  0  0  0
 33 56  1  0  0  0  0
M  END
> <IC50[nM]>
0.44

$$$$
CHEMBL3265037
  -OEChem-05192314333D
 Structure written by MMmdl.
 56 61  0     0  0  0  0  0  0999 V2000
   -2.1744    0.6943   12.3856 C   0  0  0  0  0  0  0  0  0  0  0  0
   -2.7023   -0.3474   13.1823 O   0  0  0  0  0  0  0  0  0  0  0  0
   -1.9098   -1.0981   14.0384 C   0  0  0  0  0  0  0  0  0  0  0  0
   -0.5310   -0.8294   14.1803 C   0  0  0  0  0  0  0  0  0  0  0  0
    0.2355   -1.5834   15.0946 C   0  0  0  0  0  0  0  0  0  0  0  0
    1.6117   -1.3596   15.3361 N   0  0  0  0  0  0  0  0  0  0  0  0
    2.5319   -0.4372   14.7774 C   0  0  0  0  0  0  0  0  0  0  0  0
    2.1598    0.3941   13.7549 N   0  0  0  0  0  0  0  0  0  0  0  0
    3.0944    1.2396   13.2243 C   0  0  0  0  0  0  0  0  0  0  0  0
    4.4043    1.2833   13.6944 C   0  0  0  0  0  0  0  0  0  0  0  0
    4.7385    0.4947   14.7556 N   0  0  0  0  0  0  0  0  0  0  0  0
    5.8973    0.3913   15.4817 C   0  0  0  0  0  0  0  0  0  0  0  0
    5.5996   -0.5416   16.5121 C   0  0  0  0  0  0  0  0  0  0  0  0
    4.3864   -1.0493   16.3602 N   0  0  0  0  0  0  0  0  0  0  0  0
    3.8356   -0.3858   15.3271 C   0  0  0  0  0  0  0  0  0  0  0  0
    2.6225    2.1542   12.1213 C   0  0  0  0  0  0  0  0  0  0  0  0
    3.5396    2.6409   11.1644 C   0  0  0  0  0  0  0  0  0  0  0  0
    3.1535    3.4630   10.1051 C   0  0  0  0  0  0  0  0  0  0  0  0
    1.8086    3.8199   10.0132 C   0  0  0  0  0  0  0  0  0  0  0  0
    0.9978    4.6054    9.1182 C   0  0  0  0  0  0  0  0  0  0  0  0
   -0.2423    4.6093    9.5224 N   0  0  0  0  0  0  0  0  0  0  0  0
   -0.3299    3.8832   10.6368 N   0  0  0  0  0  0  0  0  0  0  0  0
    0.8842    3.3496   10.9964 C   0  0  0  0  0  0  0  0  0  0  0  0
    1.2618    2.5164   12.0586 C   0  0  0  0  0  0  0  0  0  0  0  0
   -0.3784   -2.5892   15.8339 C   0  0  0  0  0  0  0  0  0  0  0  0
   -1.7343   -2.8306   15.7168 C   0  0  0  0  0  0  0  0  0  0  0  0
   -2.5117   -2.0982   14.8261 C   0  0  0  0  0  0  0  0  0  0  0  0
   -3.8736   -2.3467   14.7445 N   0  0  0  0  0  0  0  0  0  0  0  0
   -4.6489   -2.3804   13.4950 C   0  0  0  0  0  0  0  0  0  0  0  0
   -5.4028   -3.7252   13.3613 C   0  0  0  0  0  0  0  0  0  0  0  0
   -6.2201   -3.9495   14.5061 O   0  0  0  0  0  0  0  0  0  0  0  0
   -5.4732   -4.0046   15.7182 C   0  0  0  0  0  0  0  0  0  0  0  0
   -4.7007   -2.7060   15.8980 C   0  0  0  0  0  0  0  0  0  0  0  0
   -2.9815    1.1466   11.7906 H   0  0  0  0  0  0  0  0  0  0  0  0
   -1.7242    1.4599   13.0346 H   0  0  0  0  0  0  0  0  0  0  0  0
   -1.4063    0.2871   11.7117 H   0  0  0  0  0  0  0  0  0  0  0  0
   -0.0657   -0.0517   13.5928 H   0  0  0  0  0  0  0  0  0  0  0  0
    5.0597    0.9984   12.8582 H   0  0  0  0  0  0  0  0  0  0  0  0
    4.6113    2.3240   13.9845 H   0  0  0  0  0  0  0  0  0  0  0  0
    6.8310    0.9057   15.3087 H   0  0  0  0  0  0  0  0  0  0  0  0
    6.2747   -0.8021   17.3139 H   0  0  0  0  0  0  0  0  0  0  0  0
    4.5801    2.3663   11.2559 H   0  0  0  0  0  0  0  0  0  0  0  0
    3.8734    3.8118    9.3795 H   0  0  0  0  0  0  0  0  0  0  0  0
    1.3637    5.1168    8.2401 H   0  0  0  0  0  0  0  0  0  0  0  0
    0.6728    1.5905   11.9826 H   0  0  0  0  0  0  0  0  0  0  0  0
    1.0106    3.0350   12.9956 H   0  0  0  0  0  0  0  0  0  0  0  0
    0.2129   -3.1900   16.5090 H   0  0  0  0  0  0  0  0  0  0  0  0
   -2.1950   -3.5962   16.3235 H   0  0  0  0  0  0  0  0  0  0  0  0
   -5.3771   -1.5559   13.4984 H   0  0  0  0  0  0  0  0  0  0  0  0
   -3.9652   -2.2622   12.6414 H   0  0  0  0  0  0  0  0  0  0  0  0
   -6.0365   -3.6982   12.4626 H   0  0  0  0  0  0  0  0  0  0  0  0
   -4.6728   -4.5430   13.2707 H   0  0  0  0  0  0  0  0  0  0  0  0
   -6.1601   -4.1429   16.5661 H   0  0  0  0  0  0  0  0  0  0  0  0
   -4.7681   -4.8478   15.6763 H   0  0  0  0  0  0  0  0  0  0  0  0
   -4.0457   -2.8106   16.7755 H   0  0  0  0  0  0  0  0  0  0  0  0
   -5.4223   -1.8946   16.0737 H   0  0  0  0  0  0  0  0  0  0  0  0
  1  2  1  0  0  0  0
  2  3  1  0  0  0  0
  3  4  2  0  0  0  0
  3 27  1  0  0  0  0
  4  5  1  0  0  0  0
  5  6  1  0  0  0  0
  5 25  2  0  0  0  0
  6  7  2  0  0  0  0
  7  8  1  0  0  0  0
  7 15  1  0  0  0  0
  8  9  2  0  0  0  0
  9 10  1  0  0  0  0
  9 16  1  0  0  0  0
 10 11  1  0  0  0  0
 11 12  1  0  0  0  0
 11 15  1  0  0  0  0
 12 13  2  0  0  0  0
 13 14  1  0  0  0  0
 14 15  2  0  0  0  0
 16 17  2  0  0  0  0
 16 24  1  0  0  0  0
 17 18  1  0  0  0  0
 18 19  2  0  0  0  0
 19 20  1  0  0  0  0
 19 23  1  0  0  0  0
 20 21  2  0  0  0  0
 21 22  1  0  0  0  0
 22 23  2  0  0  0  0
 23 24  1  0  0  0  0
 25 26  1  0  0  0  0
 26 27  2  0  0  0  0
 27 28  1  0  0  0  0
 28 29  1  0  0  0  0
 28 33  1  0  0  0  0
 29 30  1  0  0  0  0
 30 31  1  0  0  0  0
 31 32  1  0  0  0  0
 32 33  1  0  0  0  0
  1 34  1  0  0  0  0
  1 35  1  0  0  0  0
  1 36  1  0  0  0  0
  4 37  1  0  0  0  0
 10 38  1  0  0  0  0
 10 39  1  0  0  0  0
 12 40  1  0  0  0  0
 13 41  1  0  0  0  0
 17 42  1  0  0  0  0
 18 43  1  0  0  0  0
 20 44  1  0  0  0  0
 24 45  1  0  0  0  0
 24 46  1  0  0  0  0
 25 47  1  0  0  0  0
 26 48  1  0  0  0  0
 29 49  1  0  0  0  0
 29 50  1  0  0  0  0
 30 51  1  0  0  0  0
 30 52  1  0  0  0  0
 32 53  1  0  0  0  0
 32 54  1  0  0  0  0
 33 55  1  0  0  0  0
 33 56  1  0  0  0  0
M  END
> <IC50[nM]>
0.44

$$$$
CHEMBL3265037
  -OEChem-05192314333D
 Structure written by MMmdl.
 56 61  0     1  0  0  0  0  0999 V2000
   -2.1744    0.6943   12.3856 C   0  0  0  0  0  0  0  0  0  0  0  0
   -2.7023   -0.3474   13.1823 O   0  0  0  0  0  0  0  0  0  0  0  0
   -1.9098   -1.0981   14.0384 C   0  0  0  0  0  0  0  0  0  0  0  0
   -0.5310   -0.8294   14.1803 C   0  0  0  0  0  0  0  0  0  0  0  0
    0.2355   -1.5834   15.0946 C   0  0  0  0  0  0  0  0  0  0  0  0
    1.6117   -1.3596   15.3361 N   0  0  0  0  0  0  0  0  0  0  0  0
    2.5319   -0.4372   14.7774 C   0  0  0  0  0  0  0  0  0  0  0  0
    2.1598    0.3941   13.7549 N   0  0  0  0  0  0  0  0  0  0  0  0
    3.0944    1.2396   13.2243 C   0  0  0  0  0  0  0  0  0  0  0  0
    4.4043    1.2833   13.6944 C   0  0  0  0  0  0  0  0  0  0  0  0
    4.7385    0.4947   14.7556 N   0  0  0  0  0  0  0  0  0  0  0  0
    5.8973    0.3913   15.4817 C   0  0  0  0  0  0  0  0  0  0  0  0
    5.5996   -0.5416   16.5121 C   0  0  0  0  0  0  0  0  0  0  0  0
    4.3864   -1.0493   16.3602 N   0  0  0  0  0  0  0  0  0  0  0  0
    3.8356   -0.3858   15.3271 C   0  0  0  0  0  0  0  0  0  0  0  0
    2.6225    2.1542   12.1213 C   0  0  3  0  0  0  0  0  0  0  0  0
    3.5396    2.6409   11.1644 C   0  0  0  0  0  0  0  0  0  0  0  0
    3.1535    3.4630   10.1051 C   0  0  0  0  0  0  0  0  0  0  0  0
    1.8086    3.8199   10.0132 C   0  0  0  0  0  0  0  0  0  0  0  0
    0.9978    4.6054    9.1182 C   0  0  0  0  0  0  0  0  0  0  0  0
   -0.2423    4.6093    9.5224 N   0  0  0  0  0  0  0  0  0  0  0  0
   -0.3299    3.8832   10.6368 N   0  0  0  0  0  0  0  0  0  0  0  0
    0.8842    3.3496   10.9964 C   0  0  0  0  0  0  0  0  0  0  0  0
    1.2618    2.5164   12.0586 C   0  0  0  0  0  0  0  0  0  0  0  0
   -0.3784   -2.5892   15.8339 C   0  0  0  0  0  0  0  0  0  0  0  0
   -1.7343   -2.8306   15.7168 C   0  0  0  0  0  0  0  0  0  0  0  0
   -2.5117   -2.0982   14.8261 C   0  0  0  0  0  0  0  0  0  0  0  0
   -3.8736   -2.3467   14.7445 N   0  0  0  0  0  0  0  0  0  0  0  0
   -4.6489   -2.3804   13.4950 C   0  0  0  0  0  0  0  0  0  0  0  0
   -5.4028   -3.7252   13.3613 C   0  0  0  0  0  0  0  0  0  0  0  0
   -6.2201   -3.9495   14.5061 O   0  0  0  0  0  0  0  0  0  0  0  0
   -5.4732   -4.0046   15.7182 C   0  0  0  0  0  0  0  0  0  0  0  0
   -4.7007   -2.7060   15.8980 C   0  0  0  0  0  0  0  0  0  0  0  0
   -2.9815    1.1466   11.7906 H   0  0  0  0  0  0  0  0  0  0  0  0
   -1.7242    1.4599   13.0346 H   0  0  0  0  0  0  0  0  0  0  0  0
   -1.4063    0.2871   11.7117 H   0  0  0  0  0  0  0  0  0  0  0  0
   -0.0657   -0.0517   13.5928 H   0  0  0  0  0  0  0  0  0  0  0  0
    5.0597    0.9984   12.8582 H   0  0  0  0  0  0  0  0  0  0  0  0
    4.6113    2.3240   13.9845 H   0  0  0  0  0  0  0  0  0  0  0  0
    6.8310    0.9057   15.3087 H   0  0  0  0  0  0  0  0  0  0  0  0
    6.2747   -0.8021   17.3139 H   0  0  0  0  0  0  0  0  0  0  0  0
    2.4199    1.2811   11.4836 H   0  0  0  0  0  0  0  0  0  0  0  0
    4.5801    2.3663   11.2559 H   0  0  0  0  0  0  0  0  0  0  0  0
    3.8734    3.8118    9.3795 H   0  0  0  0  0  0  0  0  0  0  0  0
    1.3637    5.1168    8.2401 H   0  0  0  0  0  0  0  0  0  0  0  0
    0.5473    2.1701   12.7907 H   0  0  0  0  0  0  0  0  0  0  0  0
    0.2129   -3.1900   16.5090 H   0  0  0  0  0  0  0  0  0  0  0  0
   -2.1950   -3.5962   16.3235 H   0  0  0  0  0  0  0  0  0  0  0  0
   -5.3771   -1.5559   13.4984 H   0  0  0  0  0  0  0  0  0  0  0  0
   -3.9652   -2.2622   12.6414 H   0  0  0  0  0  0  0  0  0  0  0  0
   -6.0365   -3.6982   12.4626 H   0  0  0  0  0  0  0  0  0  0  0  0
   -4.6728   -4.5430   13.2707 H   0  0  0  0  0  0  0  0  0  0  0  0
   -6.1601   -4.1429   16.5661 H   0  0  0  0  0  0  0  0  0  0  0  0
   -4.7681   -4.8478   15.6763 H   0  0  0  0  0  0  0  0  0  0  0  0
   -4.0457   -2.8106   16.7755 H   0  0  0  0  0  0  0  0  0  0  0  0
   -5.4223   -1.8946   16.0737 H   0  0  0  0  0  0  0  0  0  0  0  0
  1  2  1  0  0  0  0
  2  3  1  0  0  0  0
  3  4  2  0  0  0  0
  3 27  1  0  0  0  0
  4  5  1  0  0  0  0
  5  6  1  0  0  0  0
  5 25  2  0  0  0  0
  6  7  2  0  0  0  0
  7  8  1  0  0  0  0
  7 15  1  0  0  0  0
  8  9  2  0  0  0  0
  9 10  1  0  0  0  0
  9 16  1  0  0  0  0
 10 11  1  0  0  0  0
 11 12  1  0  0  0  0
 11 15  1  0  0  0  0
 12 13  2  0  0  0  0
 13 14  1  0  0  0  0
 14 15  2  0  0  0  0
 16 17  1  0  0  0  0
 16 24  1  0  0  0  0
 17 18  2  0  0  0  0
 18 19  1  0  0  0  0
 19 20  2  0  0  0  0
 19 23  1  0  0  0  0
 20 21  1  0  0  0  0
 21 22  2  0  0  0  0
 22 23  1  0  0  0  0
 23 24  2  0  0  0  0
 25 26  1  0  0  0  0
 26 27  2  0  0  0  0
 27 28  1  0  0  0  0
 28 29  1  0  0  0  0
 28 33  1  0  0  0  0
 29 30  1  0  0  0  0
 30 31  1  0  0  0  0
 31 32  1  0  0  0  0
 32 33  1  0  0  0  0
  1 34  1  0  0  0  0
  1 35  1  0  0  0  0
  1 36  1  0  0  0  0
  4 37  1  0  0  0  0
 10 38  1  0  0  0  0
 10 39  1  0  0  0  0
 12 40  1  0  0  0  0
 13 41  1  0  0  0  0
 16 42  1  0  0  0  0
 17 43  1  0  0  0  0
 18 44  1  0  0  0  0
 20 45  1  0  0  0  0
 24 46  1  0  0  0  0
 25 47  1  0  0  0  0
 26 48  1  0  0  0  0
 29 49  1  0  0  0  0
 29 50  1  0  0  0  0
 30 51  1  0  0  0  0
 30 52  1  0  0  0  0
 32 53  1  0  0  0  0
 32 54  1  0  0  0  0
 33 55  1  0  0  0  0
 33 56  1  0  0  0  0
M  END
> <IC50[nM]>
0.44

$$$$
CHEMBL3265037
  -OEChem-05192314333D
 Structure written by MMmdl.
 56 61  0     1  0  0  0  0  0999 V2000
   -2.1744    0.6943   12.3856 C   0  0  0  0  0  0  0  0  0  0  0  0
   -2.7023   -0.3474   13.1823 O   0  0  0  0  0  0  0  0  0  0  0  0
   -1.9098   -1.0981   14.0384 C   0  0  0  0  0  0  0  0  0  0  0  0
   -0.5310   -0.8294   14.1803 C   0  0  0  0  0  0  0  0  0  0  0  0
    0.2355   -1.5834   15.0946 C   0  0  0  0  0  0  0  0  0  0  0  0
    1.6117   -1.3596   15.3361 N   0  0  0  0  0  0  0  0  0  0  0  0
    2.5319   -0.4372   14.7774 C   0  0  0  0  0  0  0  0  0  0  0  0
    2.1598    0.3941   13.7549 N   0  0  0  0  0  0  0  0  0  0  0  0
    3.0944    1.2396   13.2243 C   0  0  0  0  0  0  0  0  0  0  0  0
    4.4043    1.2833   13.6944 C   0  0  0  0  0  0  0  0  0  0  0  0
    4.7385    0.4947   14.7556 N   0  0  0  0  0  0  0  0  0  0  0  0
    5.8973    0.3913   15.4817 C   0  0  0  0  0  0  0  0  0  0  0  0
    5.5996   -0.5416   16.5121 C   0  0  0  0  0  0  0  0  0  0  0  0
    4.3864   -1.0493   16.3602 N   0  0  0  0  0  0  0  0  0  0  0  0
    3.8356   -0.3858   15.3271 C   0  0  0  0  0  0  0  0  0  0  0  0
    2.6225    2.1542   12.1213 C   0  0  0  0  0  0  0  0  0  0  0  0
    3.5396    2.6409   11.1644 C   0  0  0  0  0  0  0  0  0  0  0  0
    3.1535    3.4630   10.1051 C   0  0  0  0  0  0  0  0  0  0  0  0
    1.8086    3.8199   10.0132 C   0  0  0  0  0  0  0  0  0  0  0  0
    0.9978    4.6054    9.1182 C   0  0  0  0  0  0  0  0  0  0  0  0
   -0.2423    4.6093    9.5224 N   0  0  0  0  0  0  0  0  0  0  0  0
   -0.3299    3.8832   10.6368 N   0  0  0  0  0  0  0  0  0  0  0  0
    0.8842    3.3496   10.9964 C   0  0  3  0  0  0  0  0  0  0  0  0
    1.2618    2.5164   12.0586 C   0  0  0  0  0  0  0  0  0  0  0  0
   -0.3784   -2.5892   15.8339 C   0  0  0  0  0  0  0  0  0  0  0  0
   -1.7343   -2.8306   15.7168 C   0  0  0  0  0  0  0  0  0  0  0  0
   -2.5117   -2.0982   14.8261 C   0  0  0  0  0  0  0  0  0  0  0  0
   -3.8736   -2.3467   14.7445 N   0  0  0  0  0  0  0  0  0  0  0  0
   -4.6489   -2.3804   13.4950 C   0  0  0  0  0  0  0  0  0  0  0  0
   -5.4028   -3.7252   13.3613 C   0  0  0  0  0  0  0  0  0  0  0  0
   -6.2201   -3.9495   14.5061 O   0  0  0  0  0  0  0  0  0  0  0  0
   -5.4732   -4.0046   15.7182 C   0  0  0  0  0  0  0  0  0  0  0  0
   -4.7007   -2.7060   15.8980 C   0  0  0  0  0  0  0  0  0  0  0  0
   -2.9815    1.1466   11.7906 H   0  0  0  0  0  0  0  0  0  0  0  0
   -1.7242    1.4599   13.0346 H   0  0  0  0  0  0  0  0  0  0  0  0
   -1.4063    0.2871   11.7117 H   0  0  0  0  0  0  0  0  0  0  0  0
   -0.0657   -0.0517   13.5928 H   0  0  0  0  0  0  0  0  0  0  0  0
    5.0597    0.9984   12.8582 H   0  0  0  0  0  0  0  0  0  0  0  0
    4.6113    2.3240   13.9845 H   0  0  0  0  0  0  0  0  0  0  0  0
    6.8310    0.9057   15.3087 H   0  0  0  0  0  0  0  0  0  0  0  0
    6.2747   -0.8021   17.3139 H   0  0  0  0  0  0  0  0  0  0  0  0
    4.5801    2.3663   11.2559 H   0  0  0  0  0  0  0  0  0  0  0  0
    3.8734    3.8118    9.3795 H   0  0  0  0  0  0  0  0  0  0  0  0
    1.3637    5.1168    8.2401 H   0  0  0  0  0  0  0  0  0  0  0  0
    1.0910    4.2348   11.6158 H   0  0  0  0  0  0  0  0  0  0  0  0
    0.5473    2.1701   12.7907 H   0  0  0  0  0  0  0  0  0  0  0  0
    0.2129   -3.1900   16.5090 H   0  0  0  0  0  0  0  0  0  0  0  0
   -2.1950   -3.5962   16.3235 H   0  0  0  0  0  0  0  0  0  0  0  0
   -5.3771   -1.5559   13.4984 H   0  0  0  0  0  0  0  0  0  0  0  0
   -3.9652   -2.2622   12.6414 H   0  0  0  0  0  0  0  0  0  0  0  0
   -6.0365   -3.6982   12.4626 H   0  0  0  0  0  0  0  0  0  0  0  0
   -4.6728   -4.5430   13.2707 H   0  0  0  0  0  0  0  0  0  0  0  0
   -6.1601   -4.1429   16.5661 H   0  0  0  0  0  0  0  0  0  0  0  0
   -4.7681   -4.8478   15.6763 H   0  0  0  0  0  0  0  0  0  0  0  0
   -4.0457   -2.8106   16.7755 H   0  0  0  0  0  0  0  0  0  0  0  0
   -5.4223   -1.8946   16.0737 H   0  0  0  0  0  0  0  0  0  0  0  0
  1  2  1  0  0  0  0
  2  3  1  0  0  0  0
  3  4  2  0  0  0  0
  3 27  1  0  0  0  0
  4  5  1  0  0  0  0
  5  6  1  0  0  0  0
  5 25  2  0  0  0  0
  6  7  2  0  0  0  0
  7  8  1  0  0  0  0
  7 15  1  0  0  0  0
  8  9  2  0  0  0  0
  9 10  1  0  0  0  0
  9 16  1  0  0  0  0
 10 11  1  0  0  0  0
 11 12  1  0  0  0  0
 11 15  1  0  0  0  0
 12 13  2  0  0  0  0
 13 14  1  0  0  0  0
 14 15  2  0  0  0  0
 16 17  1  0  0  0  0
 16 24  2  0  0  0  0
 17 18  2  0  0  0  0
 18 19  1  0  0  0  0
 19 20  2  0  0  0  0
 19 23  1  0  0  0  0
 20 21  1  0  0  0  0
 21 22  2  0  0  0  0
 22 23  1  0  0  0  0
 23 24  1  0  0  0  0
 25 26  1  0  0  0  0
 26 27  2  0  0  0  0
 27 28  1  0  0  0  0
 28 29  1  0  0  0  0
 28 33  1  0  0  0  0
 29 30  1  0  0  0  0
 30 31  1  0  0  0  0
 31 32  1  0  0  0  0
 32 33  1  0  0  0  0
  1 34  1  0  0  0  0
  1 35  1  0  0  0  0
  1 36  1  0  0  0  0
  4 37  1  0  0  0  0
 10 38  1  0  0  0  0
 10 39  1  0  0  0  0
 12 40  1  0  0  0  0
 13 41  1  0  0  0  0
 17 42  1  0  0  0  0
 18 43  1  0  0  0  0
 20 44  1  0  0  0  0
 23 45  1  0  0  0  0
 24 46  1  0  0  0  0
 25 47  1  0  0  0  0
 26 48  1  0  0  0  0
 29 49  1  0  0  0  0
 29 50  1  0  0  0  0
 30 51  1  0  0  0  0
 30 52  1  0  0  0  0
 32 53  1  0  0  0  0
 32 54  1  0  0  0  0
 33 55  1  0  0  0  0
 33 56  1  0  0  0  0
M  END
> <IC50[nM]>
0.44

$$$$
CHEMBL3265037
  -OEChem-05192314333D
 Structure written by MMmdl.
 56 61  0     0  0  0  0  0  0999 V2000
   -2.1744    0.6943   12.3856 C   0  0  0  0  0  0  0  0  0  0  0  0
   -2.7023   -0.3474   13.1823 O   0  0  0  0  0  0  0  0  0  0  0  0
   -1.9098   -1.0981   14.0384 C   0  0  0  0  0  0  0  0  0  0  0  0
   -0.5310   -0.8294   14.1803 C   0  0  0  0  0  0  0  0  0  0  0  0
    0.2355   -1.5834   15.0946 C   0  0  0  0  0  0  0  0  0  0  0  0
    1.6117   -1.3596   15.3361 N   0  0  0  0  0  0  0  0  0  0  0  0
    2.5319   -0.4372   14.7774 C   0  0  0  0  0  0  0  0  0  0  0  0
    2.1598    0.3941   13.7549 N   0  0  0  0  0  0  0  0  0  0  0  0
    3.0944    1.2396   13.2243 C   0  0  0  0  0  0  0  0  0  0  0  0
    4.4043    1.2833   13.6944 C   0  0  0  0  0  0  0  0  0  0  0  0
    4.7385    0.4947   14.7556 N   0  0  0  0  0  0  0  0  0  0  0  0
    5.8973    0.3913   15.4817 C   0  0  0  0  0  0  0  0  0  0  0  0
    5.5996   -0.5416   16.5121 C   0  0  0  0  0  0  0  0  0  0  0  0
    4.3864   -1.0493   16.3602 N   0  0  0  0  0  0  0  0  0  0  0  0
    3.8356   -0.3858   15.3271 C   0  0  0  0  0  0  0  0  0  0  0  0
    2.6225    2.1542   12.1213 C   0  0  0  0  0  0  0  0  0  0  0  0
    3.5396    2.6409   11.1644 C   0  0  0  0  0  0  0  0  0  0  0  0
    3.1535    3.4630   10.1051 C   0  0  0  0  0  0  0  0  0  0  0  0
    1.8086    3.8199   10.0132 C   0  0  0  0  0  0  0  0  0  0  0  0
    0.9978    4.6054    9.1182 C   0  0  0  0  0  0  0  0  0  0  0  0
   -0.2423    4.6093    9.5224 N   0  0  0  0  0  0  0  0  0  0  0  0
   -0.3299    3.8832   10.6368 N   0  0  0  0  0  0  0  0  0  0  0  0
    0.8842    3.3496   10.9964 C   0  0  0  0  0  0  0  0  0  0  0  0
    1.2618    2.5164   12.0586 C   0  0  0  0  0  0  0  0  0  0  0  0
   -0.3784   -2.5892   15.8339 C   0  0  0  0  0  0  0  0  0  0  0  0
   -1.7343   -2.8306   15.7168 C   0  0  0  0  0  0  0  0  0  0  0  0
   -2.5117   -2.0982   14.8261 C   0  0  0  0  0  0  0  0  0  0  0  0
   -3.8736   -2.3467   14.7445 N   0  0  0  0  0  0  0  0  0  0  0  0
   -4.6489   -2.3804   13.4950 C   0  0  0  0  0  0  0  0  0  0  0  0
   -5.4028   -3.7252   13.3613 C   0  0  0  0  0  0  0  0  0  0  0  0
   -6.2201   -3.9495   14.5061 O   0  0  0  0  0  0  0  0  0  0  0  0
   -5.4732   -4.0046   15.7182 C   0  0  0  0  0  0  0  0  0  0  0  0
   -4.7007   -2.7060   15.8980 C   0  0  0  0  0  0  0  0  0  0  0  0
   -2.9815    1.1466   11.7906 H   0  0  0  0  0  0  0  0  0  0  0  0
   -1.7242    1.4599   13.0346 H   0  0  0  0  0  0  0  0  0  0  0  0
   -1.4063    0.2871   11.7117 H   0  0  0  0  0  0  0  0  0  0  0  0
   -0.0657   -0.0517   13.5928 H   0  0  0  0  0  0  0  0  0  0  0  0
    5.0597    0.9984   12.8582 H   0  0  0  0  0  0  0  0  0  0  0  0
    4.6113    2.3240   13.9845 H   0  0  0  0  0  0  0  0  0  0  0  0
    6.8310    0.9057   15.3087 H   0  0  0  0  0  0  0  0  0  0  0  0
    6.2747   -0.8021   17.3139 H   0  0  0  0  0  0  0  0  0  0  0  0
    4.5801    2.3663   11.2559 H   0  0  0  0  0  0  0  0  0  0  0  0
    3.7348    4.3935   10.1838 H   0  0  0  0  0  0  0  0  0  0  0  0
    3.4188    2.9427    9.1730 H   0  0  0  0  0  0  0  0  0  0  0  0
    1.3637    5.1168    8.2401 H   0  0  0  0  0  0  0  0  0  0  0  0
    0.5473    2.1701   12.7907 H   0  0  0  0  0  0  0  0  0  0  0  0
    0.2129   -3.1900   16.5090 H   0  0  0  0  0  0  0  0  0  0  0  0
   -2.1950   -3.5962   16.3235 H   0  0  0  0  0  0  0  0  0  0  0  0
   -5.3771   -1.5559   13.4984 H   0  0  0  0  0  0  0  0  0  0  0  0
   -3.9652   -2.2622   12.6414 H   0  0  0  0  0  0  0  0  0  0  0  0
   -6.0365   -3.6982   12.4626 H   0  0  0  0  0  0  0  0  0  0  0  0
   -4.6728   -4.5430   13.2707 H   0  0  0  0  0  0  0  0  0  0  0  0
   -6.1601   -4.1429   16.5661 H   0  0  0  0  0  0  0  0  0  0  0  0
   -4.7681   -4.8478   15.6763 H   0  0  0  0  0  0  0  0  0  0  0  0
   -4.0457   -2.8106   16.7755 H   0  0  0  0  0  0  0  0  0  0  0  0
   -5.4223   -1.8946   16.0737 H   0  0  0  0  0  0  0  0  0  0  0  0
  1  2  1  0  0  0  0
  2  3  1  0  0  0  0
  3  4  2  0  0  0  0
  3 27  1  0  0  0  0
  4  5  1  0  0  0  0
  5  6  1  0  0  0  0
  5 25  2  0  0  0  0
  6  7  2  0  0  0  0
  7  8  1  0  0  0  0
  7 15  1  0  0  0  0
  8  9  2  0  0  0  0
  9 10  1  0  0  0  0
  9 16  1  0  0  0  0
 10 11  1  0  0  0  0
 11 12  1  0  0  0  0
 11 15  1  0  0  0  0
 12 13  2  0  0  0  0
 13 14  1  0  0  0  0
 14 15  2  0  0  0  0
 16 17  2  0  0  0  0
 16 24  1  0  0  0  0
 17 18  1  0  0  0  0
 18 19  1  0  0  0  0
 19 20  2  0  0  0  0
 19 23  1  0  0  0  0
 20 21  1  0  0  0  0
 21 22  2  0  0  0  0
 22 23  1  0  0  0  0
 23 24  2  0  0  0  0
 25 26  1  0  0  0  0
 26 27  2  0  0  0  0
 27 28  1  0  0  0  0
 28 29  1  0  0  0  0
 28 33  1  0  0  0  0
 29 30  1  0  0  0  0
 30 31  1  0  0  0  0
 31 32  1  0  0  0  0
 32 33  1  0  0  0  0
  1 34  1  0  0  0  0
  1 35  1  0  0  0  0
  1 36  1  0  0  0  0
  4 37  1  0  0  0  0
 10 38  1  0  0  0  0
 10 39  1  0  0  0  0
 12 40  1  0  0  0  0
 13 41  1  0  0  0  0
 17 42  1  0  0  0  0
 18 43  1  0  0  0  0
 18 44  1  0  0  0  0
 20 45  1  0  0  0  0
 24 46  1  0  0  0  0
 25 47  1  0  0  0  0
 26 48  1  0  0  0  0
 29 49  1  0  0  0  0
 29 50  1  0  0  0  0
 30 51  1  0  0  0  0
 30 52  1  0  0  0  0
 32 53  1  0  0  0  0
 32 54  1  0  0  0  0
 33 55  1  0  0  0  0
 33 56  1  0  0  0  0
M  END
> <IC50[nM]>
0.44

$$$$
CHEMBL3265037
  -OEChem-05192314333D
 Structure written by MMmdl.
 56 61  0     1  0  0  0  0  0999 V2000
   -2.1744    0.6943   12.3856 C   0  0  0  0  0  0  0  0  0  0  0  0
   -2.7023   -0.3474   13.1823 O   0  0  0  0  0  0  0  0  0  0  0  0
   -1.9098   -1.0981   14.0384 C   0  0  0  0  0  0  0  0  0  0  0  0
   -0.5310   -0.8294   14.1803 C   0  0  0  0  0  0  0  0  0  0  0  0
    0.2355   -1.5834   15.0946 C   0  0  0  0  0  0  0  0  0  0  0  0
    1.6117   -1.3596   15.3361 N   0  0  0  0  0  0  0  0  0  0  0  0
    2.5319   -0.4372   14.7774 C   0  0  0  0  0  0  0  0  0  0  0  0
    2.1598    0.3941   13.7549 N   0  0  0  0  0  0  0  0  0  0  0  0
    3.0944    1.2396   13.2243 C   0  0  0  0  0  0  0  0  0  0  0  0
    4.4043    1.2833   13.6944 C   0  0  0  0  0  0  0  0  0  0  0  0
    4.7385    0.4947   14.7556 N   0  0  0  0  0  0  0  0  0  0  0  0
    5.8973    0.3913   15.4817 C   0  0  0  0  0  0  0  0  0  0  0  0
    5.5996   -0.5416   16.5121 C   0  0  0  0  0  0  0  0  0  0  0  0
    4.3864   -1.0493   16.3602 N   0  0  0  0  0  0  0  0  0  0  0  0
    3.8356   -0.3858   15.3271 C   0  0  0  0  0  0  0  0  0  0  0  0
    2.6225    2.1542   12.1213 C   0  0  0  0  0  0  0  0  0  0  0  0
    3.5396    2.6409   11.1644 C   0  0  0  0  0  0  0  0  0  0  0  0
    3.1535    3.4630   10.1051 C   0  0  0  0  0  0  0  0  0  0  0  0
    1.8086    3.8199   10.0132 C   0  0  0  0  0  0  0  0  0  0  0  0
    0.9978    4.6054    9.1182 C   0  0  0  0  0  0  0  0  0  0  0  0
   -0.2423    4.6093    9.5224 N   0  0  0  0  0  0  0  0  0  0  0  0
   -0.3299    3.8832   10.6368 N   0  0  0  0  0  0  0  0  0  0  0  0
    0.8842    3.3496   10.9964 C   0  0  0  0  0  0  0  0  0  0  0  0
    1.2618    2.5164   12.0586 C   0  0  0  0  0  0  0  0  0  0  0  0
   -0.3784   -2.5892   15.8339 C   0  0  0  0  0  0  0  0  0  0  0  0
   -1.7343   -2.8306   15.7168 C   0  0  0  0  0  0  0  0  0  0  0  0
   -2.5117   -2.0982   14.8261 C   0  0  3  0  0  0  0  0  0  0  0  0
   -3.8736   -2.3467   14.7445 N   0  0  0  0  0  0  0  0  0  0  0  0
   -4.6489   -2.3804   13.4950 C   0  0  0  0  0  0  0  0  0  0  0  0
   -5.4028   -3.7252   13.3613 C   0  0  0  0  0  0  0  0  0  0  0  0
   -6.2201   -3.9495   14.5061 O   0  0  0  0  0  0  0  0  0  0  0  0
   -5.4732   -4.0046   15.7182 C   0  0  0  0  0  0  0  0  0  0  0  0
   -4.7007   -2.7060   15.8980 C   0  0  0  0  0  0  0  0  0  0  0  0
   -2.9815    1.1466   11.7906 H   0  0  0  0  0  0  0  0  0  0  0  0
   -1.7242    1.4599   13.0346 H   0  0  0  0  0  0  0  0  0  0  0  0
   -1.4063    0.2871   11.7117 H   0  0  0  0  0  0  0  0  0  0  0  0
   -0.0657   -0.0517   13.5928 H   0  0  0  0  0  0  0  0  0  0  0  0
    5.0597    0.9984   12.8582 H   0  0  0  0  0  0  0  0  0  0  0  0
    4.6113    2.3240   13.9845 H   0  0  0  0  0  0  0  0  0  0  0  0
    6.8310    0.9057   15.3087 H   0  0  0  0  0  0  0  0  0  0  0  0
    6.2747   -0.8021   17.3139 H   0  0  0  0  0  0  0  0  0  0  0  0
    4.5801    2.3663   11.2559 H   0  0  0  0  0  0  0  0  0  0  0  0
    3.8734    3.8118    9.3795 H   0  0  0  0  0  0  0  0  0  0  0  0
    1.3637    5.1168    8.2401 H   0  0  0  0  0  0  0  0  0  0  0  0
    0.5473    2.1701   12.7907 H   0  0  0  0  0  0  0  0  0  0  0  0
    0.2129   -3.1900   16.5090 H   0  0  0  0  0  0  0  0  0  0  0  0
   -2.1950   -3.5962   16.3235 H   0  0  0  0  0  0  0  0  0  0  0  0
   -2.3219   -2.8421   14.0383 H   0  0  0  0  0  0  0  0  0  0  0  0
   -5.3771   -1.5559   13.4984 H   0  0  0  0  0  0  0  0  0  0  0  0
   -3.9652   -2.2622   12.6414 H   0  0  0  0  0  0  0  0  0  0  0  0
   -6.0365   -3.6982   12.4626 H   0  0  0  0  0  0  0  0  0  0  0  0
   -4.6728   -4.5430   13.2707 H   0  0  0  0  0  0  0  0  0  0  0  0
   -6.1601   -4.1429   16.5661 H   0  0  0  0  0  0  0  0  0  0  0  0
   -4.7681   -4.8478   15.6763 H   0  0  0  0  0  0  0  0  0  0  0  0
   -4.0457   -2.8106   16.7755 H   0  0  0  0  0  0  0  0  0  0  0  0
   -5.4223   -1.8946   16.0737 H   0  0  0  0  0  0  0  0  0  0  0  0
  1  2  1  0  0  0  0
  2  3  1  0  0  0  0
  3  4  2  0  0  0  0
  3 27  1  0  0  0  0
  4  5  1  0  0  0  0
  5  6  2  0  0  0  0
  5 25  1  0  0  0  0
  6  7  1  0  0  0  0
  7  8  2  0  0  0  0
  7 15  1  0  0  0  0
  8  9  1  0  0  0  0
  9 10  1  0  0  0  0
  9 16  2  0  0  0  0
 10 11  1  0  0  0  0
 11 12  1  0  0  0  0
 11 15  1  0  0  0  0
 12 13  2  0  0  0  0
 13 14  1  0  0  0  0
 14 15  2  0  0  0  0
 16 17  1  0  0  0  0
 16 24  1  0  0  0  0
 17 18  2  0  0  0  0
 18 19  1  0  0  0  0
 19 20  2  0  0  0  0
 19 23  1  0  0  0  0
 20 21  1  0  0  0  0
 21 22  2  0  0  0  0
 22 23  1  0  0  0  0
 23 24  2  0  0  0  0
 25 26  2  0  0  0  0
 26 27  1  0  0  0  0
 27 28  1  0  0  0  0
 28 29  1  0  0  0  0
 28 33  1  0  0  0  0
 29 30  1  0  0  0  0
 30 31  1  0  0  0  0
 31 32  1  0  0  0  0
 32 33  1  0  0  0  0
  1 34  1  0  0  0  0
  1 35  1  0  0  0  0
  1 36  1  0  0  0  0
  4 37  1  0  0  0  0
 10 38  1  0  0  0  0
 10 39  1  0  0  0  0
 12 40  1  0  0  0  0
 13 41  1  0  0  0  0
 17 42  1  0  0  0  0
 18 43  1  0  0  0  0
 20 44  1  0  0  0  0
 24 45  1  0  0  0  0
 25 46  1  0  0  0  0
 26 47  1  0  0  0  0
 27 48  1  0  0  0  0
 29 49  1  0  0  0  0
 29 50  1  0  0  0  0
 30 51  1  0  0  0  0
 30 52  1  0  0  0  0
 32 53  1  0  0  0  0
 32 54  1  0  0  0  0
 33 55  1  0  0  0  0
 33 56  1  0  0  0  0
M  END
> <IC50[nM]>
0.44

$$$$
CHEMBL3265037
  -OEChem-05192314333D
 Structure written by MMmdl.
 56 61  0     0  0  0  0  0  0999 V2000
   -2.1744    0.6943   12.3856 C   0  0  0  0  0  0  0  0  0  0  0  0
   -2.7023   -0.3474   13.1823 O   0  0  0  0  0  0  0  0  0  0  0  0
   -1.9098   -1.0981   14.0384 C   0  0  0  0  0  0  0  0  0  0  0  0
   -0.5310   -0.8294   14.1803 C   0  0  0  0  0  0  0  0  0  0  0  0
    0.2355   -1.5834   15.0946 C   0  0  0  0  0  0  0  0  0  0  0  0
    1.6117   -1.3596   15.3361 N   0  0  0  0  0  0  0  0  0  0  0  0
    2.5319   -0.4372   14.7774 C   0  0  0  0  0  0  0  0  0  0  0  0
    2.1598    0.3941   13.7549 N   0  0  0  0  0  0  0  0  0  0  0  0
    3.0944    1.2396   13.2243 C   0  0  0  0  0  0  0  0  0  0  0  0
    4.4043    1.2833   13.6944 C   0  0  0  0  0  0  0  0  0  0  0  0
    4.7385    0.4947   14.7556 N   0  0  0  0  0  0  0  0  0  0  0  0
    5.8973    0.3913   15.4817 C   0  0  0  0  0  0  0  0  0  0  0  0
    5.5996   -0.5416   16.5121 C   0  0  0  0  0  0  0  0  0  0  0  0
    4.3864   -1.0493   16.3602 N   0  0  0  0  0  0  0  0  0  0  0  0
    3.8356   -0.3858   15.3271 C   0  0  0  0  0  0  0  0  0  0  0  0
    2.6225    2.1542   12.1213 C   0  0  0  0  0  0  0  0  0  0  0  0
    3.5396    2.6409   11.1644 C   0  0  0  0  0  0  0  0  0  0  0  0
    3.1535    3.4630   10.1051 C   0  0  0  0  0  0  0  0  0  0  0  0
    1.8086    3.8199   10.0132 C   0  0  0  0  0  0  0  0  0  0  0  0
    0.9978    4.6054    9.1182 C   0  0  0  0  0  0  0  0  0  0  0  0
   -0.2423    4.6093    9.5224 N   0  0  0  0  0  0  0  0  0  0  0  0
   -0.3299    3.8832   10.6368 N   0  0  0  0  0  0  0  0  0  0  0  0
    0.8842    3.3496   10.9964 C   0  0  0  0  0  0  0  0  0  0  0  0
    1.2618    2.5164   12.0586 C   0  0  0  0  0  0  0  0  0  0  0  0
   -0.3784   -2.5892   15.8339 C   0  0  0  0  0  0  0  0  0  0  0  0
   -1.7343   -2.8306   15.7168 C   0  0  0  0  0  0  0  0  0  0  0  0
   -2.5117   -2.0982   14.8261 C   0  0  0  0  0  0  0  0  0  0  0  0
   -3.8736   -2.3467   14.7445 N   0  0  0  0  0  0  0  0  0  0  0  0
   -4.6489   -2.3804   13.4950 C   0  0  0  0  0  0  0  0  0  0  0  0
   -5.4028   -3.7252   13.3613 C   0  0  0  0  0  0  0  0  0  0  0  0
   -6.2201   -3.9495   14.5061 O   0  0  0  0  0  0  0  0  0  0  0  0
   -5.4732   -4.0046   15.7182 C   0  0  0  0  0  0  0  0  0  0  0  0
   -4.7007   -2.7060   15.8980 C   0  0  0  0  0  0  0  0  0  0  0  0
   -2.9815    1.1466   11.7906 H   0  0  0  0  0  0  0  0  0  0  0  0
   -1.7242    1.4599   13.0346 H   0  0  0  0  0  0  0  0  0  0  0  0
   -1.4063    0.2871   11.7117 H   0  0  0  0  0  0  0  0  0  0  0  0
   -0.0657   -0.0517   13.5928 H   0  0  0  0  0  0  0  0  0  0  0  0
    5.0597    0.9984   12.8582 H   0  0  0  0  0  0  0  0  0  0  0  0
    4.6113    2.3240   13.9845 H   0  0  0  0  0  0  0  0  0  0  0  0
    6.8310    0.9057   15.3087 H   0  0  0  0  0  0  0  0  0  0  0  0
    6.2747   -0.8021   17.3139 H   0  0  0  0  0  0  0  0  0  0  0  0
    4.5801    2.3663   11.2559 H   0  0  0  0  0  0  0  0  0  0  0  0
    3.8734    3.8118    9.3795 H   0  0  0  0  0  0  0  0  0  0  0  0
    1.3637    5.1168    8.2401 H   0  0  0  0  0  0  0  0  0  0  0  0
    0.5473    2.1701   12.7907 H   0  0  0  0  0  0  0  0  0  0  0  0
    0.1306   -3.5276   15.5689 H   0  0  0  0  0  0  0  0  0  0  0  0
   -0.1920   -2.3574   16.8929 H   0  0  0  0  0  0  0  0  0  0  0  0
   -2.1950   -3.5962   16.3235 H   0  0  0  0  0  0  0  0  0  0  0  0
   -5.3771   -1.5559   13.4984 H   0  0  0  0  0  0  0  0  0  0  0  0
   -3.9652   -2.2622   12.6414 H   0  0  0  0  0  0  0  0  0  0  0  0
   -6.0365   -3.6982   12.4626 H   0  0  0  0  0  0  0  0  0  0  0  0
   -4.6728   -4.5430   13.2707 H   0  0  0  0  0  0  0  0  0  0  0  0
   -6.1601   -4.1429   16.5661 H   0  0  0  0  0  0  0  0  0  0  0  0
   -4.7681   -4.8478   15.6763 H   0  0  0  0  0  0  0  0  0  0  0  0
   -4.0457   -2.8106   16.7755 H   0  0  0  0  0  0  0  0  0  0  0  0
   -5.4223   -1.8946   16.0737 H   0  0  0  0  0  0  0  0  0  0  0  0
  1  2  1  0  0  0  0
  2  3  1  0  0  0  0
  3  4  2  0  0  0  0
  3 27  1  0  0  0  0
  4  5  1  0  0  0  0
  5  6  2  0  0  0  0
  5 25  1  0  0  0  0
  6  7  1  0  0  0  0
  7  8  2  0  0  0  0
  7 15  1  0  0  0  0
  8  9  1  0  0  0  0
  9 10  1  0  0  0  0
  9 16  2  0  0  0  0
 10 11  1  0  0  0  0
 11 12  1  0  0  0  0
 11 15  1  0  0  0  0
 12 13  2  0  0  0  0
 13 14  1  0  0  0  0
 14 15  2  0  0  0  0
 16 17  1  0  0  0  0
 16 24  1  0  0  0  0
 17 18  2  0  0  0  0
 18 19  1  0  0  0  0
 19 20  2  0  0  0  0
 19 23  1  0  0  0  0
 20 21  1  0  0  0  0
 21 22  2  0  0  0  0
 22 23  1  0  0  0  0
 23 24  2  0  0  0  0
 25 26  1  0  0  0  0
 26 27  2  0  0  0  0
 27 28  1  0  0  0  0
 28 29  1  0  0  0  0
 28 33  1  0  0  0  0
 29 30  1  0  0  0  0
 30 31  1  0  0  0  0
 31 32  1  0  0  0  0
 32 33  1  0  0  0  0
  1 34  1  0  0  0  0
  1 35  1  0  0  0  0
  1 36  1  0  0  0  0
  4 37  1  0  0  0  0
 10 38  1  0  0  0  0
 10 39  1  0  0  0  0
 12 40  1  0  0  0  0
 13 41  1  0  0  0  0
 17 42  1  0  0  0  0
 18 43  1  0  0  0  0
 20 44  1  0  0  0  0
 24 45  1  0  0  0  0
 25 46  1  0  0  0  0
 25 47  1  0  0  0  0
 26 48  1  0  0  0  0
 29 49  1  0  0  0  0
 29 50  1  0  0  0  0
 30 51  1  0  0  0  0
 30 52  1  0  0  0  0
 32 53  1  0  0  0  0
 32 54  1  0  0  0  0
 33 55  1  0  0  0  0
 33 56  1  0  0  0  0
M  END
> <IC50[nM]>
0.44

$$$$
CHEMBL3265037
  -OEChem-05192314333D
 Structure written by MMmdl.
 56 61  0     0  0  0  0  0  0999 V2000
   -2.1744    0.6943   12.3856 C   0  0  0  0  0  0  0  0  0  0  0  0
   -2.7023   -0.3474   13.1823 O   0  0  0  0  0  0  0  0  0  0  0  0
   -1.9098   -1.0981   14.0384 C   0  0  0  0  0  0  0  0  0  0  0  0
   -0.5310   -0.8294   14.1803 C   0  0  0  0  0  0  0  0  0  0  0  0
    0.2355   -1.5834   15.0946 C   0  0  0  0  0  0  0  0  0  0  0  0
    1.6117   -1.3596   15.3361 N   0  0  0  0  0  0  0  0  0  0  0  0
    2.5319   -0.4372   14.7774 C   0  0  0  0  0  0  0  0  0  0  0  0
    2.1598    0.3941   13.7549 N   0  0  0  0  0  0  0  0  0  0  0  0
    3.0944    1.2396   13.2243 C   0  0  0  0  0  0  0  0  0  0  0  0
    4.4043    1.2833   13.6944 C   0  0  0  0  0  0  0  0  0  0  0  0
    4.7385    0.4947   14.7556 N   0  0  0  0  0  0  0  0  0  0  0  0
    5.8973    0.3913   15.4817 C   0  0  0  0  0  0  0  0  0  0  0  0
    5.5996   -0.5416   16.5121 C   0  0  0  0  0  0  0  0  0  0  0  0
    4.3864   -1.0493   16.3602 N   0  0  0  0  0  0  0  0  0  0  0  0
    3.8356   -0.3858   15.3271 C   0  0  0  0  0  0  0  0  0  0  0  0
    2.6225    2.1542   12.1213 C   0  0  0  0  0  0  0  0  0  0  0  0
    3.5396    2.6409   11.1644 C   0  0  0  0  0  0  0  0  0  0  0  0
    3.1535    3.4630   10.1051 C   0  0  0  0  0  0  0  0  0  0  0  0
    1.8086    3.8199   10.0132 C   0  0  0  0  0  0  0  0  0  0  0  0
    0.9978    4.6054    9.1182 C   0  0  0  0  0  0  0  0  0  0  0  0
   -0.2423    4.6093    9.5224 N   0  0  0  0  0  0  0  0  0  0  0  0
   -0.3299    3.8832   10.6368 N   0  0  0  0  0  0  0  0  0  0  0  0
    0.8842    3.3496   10.9964 C   0  0  0  0  0  0  0  0  0  0  0  0
    1.2618    2.5164   12.0586 C   0  0  0  0  0  0  0  0  0  0  0  0
   -0.3784   -2.5892   15.8339 C   0  0  0  0  0  0  0  0  0  0  0  0
   -1.7343   -2.8306   15.7168 C   0  0  0  0  0  0  0  0  0  0  0  0
   -2.5117   -2.0982   14.8261 C   0  0  0  0  0  0  0  0  0  0  0  0
   -3.8736   -2.3467   14.7445 N   0  0  0  0  0  0  0  0  0  0  0  0
   -4.6489   -2.3804   13.4950 C   0  0  0  0  0  0  0  0  0  0  0  0
   -5.4028   -3.7252   13.3613 C   0  0  0  0  0  0  0  0  0  0  0  0
   -6.2201   -3.9495   14.5061 O   0  0  0  0  0  0  0  0  0  0  0  0
   -5.4732   -4.0046   15.7182 C   0  0  0  0  0  0  0  0  0  0  0  0
   -4.7007   -2.7060   15.8980 C   0  0  0  0  0  0  0  0  0  0  0  0
   -2.9815    1.1466   11.7906 H   0  0  0  0  0  0  0  0  0  0  0  0
   -1.7242    1.4599   13.0346 H   0  0  0  0  0  0  0  0  0  0  0  0
   -1.4063    0.2871   11.7117 H   0  0  0  0  0  0  0  0  0  0  0  0
   -0.0746   -0.9691   13.1892 H   0  0  0  0  0  0  0  0  0  0  0  0
   -0.4402    0.2250   14.4805 H   0  0  0  0  0  0  0  0  0  0  0  0
    5.0597    0.9984   12.8582 H   0  0  0  0  0  0  0  0  0  0  0  0
    4.6113    2.3240   13.9845 H   0  0  0  0  0  0  0  0  0  0  0  0
    6.8310    0.9057   15.3087 H   0  0  0  0  0  0  0  0  0  0  0  0
    6.2747   -0.8021   17.3139 H   0  0  0  0  0  0  0  0  0  0  0  0
    4.5801    2.3663   11.2559 H   0  0  0  0  0  0  0  0  0  0  0  0
    3.8734    3.8118    9.3795 H   0  0  0  0  0  0  0  0  0  0  0  0
    1.3637    5.1168    8.2401 H   0  0  0  0  0  0  0  0  0  0  0  0
    0.5473    2.1701   12.7907 H   0  0  0  0  0  0  0  0  0  0  0  0
    0.2129   -3.1900   16.5090 H   0  0  0  0  0  0  0  0  0  0  0  0
   -2.1950   -3.5962   16.3235 H   0  0  0  0  0  0  0  0  0  0  0  0
   -5.3771   -1.5559   13.4984 H   0  0  0  0  0  0  0  0  0  0  0  0
   -3.9652   -2.2622   12.6414 H   0  0  0  0  0  0  0  0  0  0  0  0
   -6.0365   -3.6982   12.4626 H   0  0  0  0  0  0  0  0  0  0  0  0
   -4.6728   -4.5430   13.2707 H   0  0  0  0  0  0  0  0  0  0  0  0
   -6.1601   -4.1429   16.5661 H   0  0  0  0  0  0  0  0  0  0  0  0
   -4.7681   -4.8478   15.6763 H   0  0  0  0  0  0  0  0  0  0  0  0
   -4.0457   -2.8106   16.7755 H   0  0  0  0  0  0  0  0  0  0  0  0
   -5.4223   -1.8946   16.0737 H   0  0  0  0  0  0  0  0  0  0  0  0
  1  2  1  0  0  0  0
  2  3  1  0  0  0  0
  3  4  1  0  0  0  0
  3 27  2  0  0  0  0
  4  5  1  0  0  0  0
  5  6  2  0  0  0  0
  5 25  1  0  0  0  0
  6  7  1  0  0  0  0
  7  8  2  0  0  0  0
  7 15  1  0  0  0  0
  8  9  1  0  0  0  0
  9 10  1  0  0  0  0
  9 16  2  0  0  0  0
 10 11  1  0  0  0  0
 11 12  1  0  0  0  0
 11 15  1  0  0  0  0
 12 13  2  0  0  0  0
 13 14  1  0  0  0  0
 14 15  2  0  0  0  0
 16 17  1  0  0  0  0
 16 24  1  0  0  0  0
 17 18  2  0  0  0  0
 18 19  1  0  0  0  0
 19 20  2  0  0  0  0
 19 23  1  0  0  0  0
 20 21  1  0  0  0  0
 21 22  2  0  0  0  0
 22 23  1  0  0  0  0
 23 24  2  0  0  0  0
 25 26  2  0  0  0  0
 26 27  1  0  0  0  0
 27 28  1  0  0  0  0
 28 29  1  0  0  0  0
 28 33  1  0  0  0  0
 29 30  1  0  0  0  0
 30 31  1  0  0  0  0
 31 32  1  0  0  0  0
 32 33  1  0  0  0  0
  1 34  1  0  0  0  0
  1 35  1  0  0  0  0
  1 36  1  0  0  0  0
  4 37  1  0  0  0  0
  4 38  1  0  0  0  0
 10 39  1  0  0  0  0
 10 40  1  0  0  0  0
 12 41  1  0  0  0  0
 13 42  1  0  0  0  0
 17 43  1  0  0  0  0
 18 44  1  0  0  0  0
 20 45  1  0  0  0  0
 24 46  1  0  0  0  0
 25 47  1  0  0  0  0
 26 48  1  0  0  0  0
 29 49  1  0  0  0  0
 29 50  1  0  0  0  0
 30 51  1  0  0  0  0
 30 52  1  0  0  0  0
 32 53  1  0  0  0  0
 32 54  1  0  0  0  0
 33 55  1  0  0  0  0
 33 56  1  0  0  0  0
M  END
> <IC50[nM]>
0.44

$$$$
CHEMBL3265037
  -OEChem-05192314333D
 Structure written by MMmdl.
 56 61  0     1  0  0  0  0  0999 V2000
   -2.1744    0.6943   12.3856 C   0  0  0  0  0  0  0  0  0  0  0  0
   -2.7023   -0.3474   13.1823 O   0  0  0  0  0  0  0  0  0  0  0  0
   -1.9098   -1.0981   14.0384 C   0  0  0  0  0  0  0  0  0  0  0  0
   -0.5310   -0.8294   14.1803 C   0  0  0  0  0  0  0  0  0  0  0  0
    0.2355   -1.5834   15.0946 C   0  0  0  0  0  0  0  0  0  0  0  0
    1.6117   -1.3596   15.3361 N   0  0  0  0  0  0  0  0  0  0  0  0
    2.5319   -0.4372   14.7774 C   0  0  0  0  0  0  0  0  0  0  0  0
    2.1598    0.3941   13.7549 N   0  0  0  0  0  0  0  0  0  0  0  0
    3.0944    1.2396   13.2243 C   0  0  0  0  0  0  0  0  0  0  0  0
    4.4043    1.2833   13.6944 C   0  0  0  0  0  0  0  0  0  0  0  0
    4.7385    0.4947   14.7556 N   0  0  0  0  0  0  0  0  0  0  0  0
    5.8973    0.3913   15.4817 C   0  0  0  0  0  0  0  0  0  0  0  0
    5.5996   -0.5416   16.5121 C   0  0  0  0  0  0  0  0  0  0  0  0
    4.3864   -1.0493   16.3602 N   0  0  0  0  0  0  0  0  0  0  0  0
    3.8356   -0.3858   15.3271 C   0  0  0  0  0  0  0  0  0  0  0  0
    2.6225    2.1542   12.1213 C   0  0  0  0  0  0  0  0  0  0  0  0
    3.5396    2.6409   11.1644 C   0  0  0  0  0  0  0  0  0  0  0  0
    3.1535    3.4630   10.1051 C   0  0  0  0  0  0  0  0  0  0  0  0
    1.8086    3.8199   10.0132 C   0  0  3  0  0  0  0  0  0  0  0  0
    0.9978    4.6054    9.1182 C   0  0  0  0  0  0  0  0  0  0  0  0
   -0.2423    4.6093    9.5224 N   0  0  0  0  0  0  0  0  0  0  0  0
   -0.3299    3.8832   10.6368 N   0  0  0  0  0  0  0  0  0  0  0  0
    0.8842    3.3496   10.9964 C   0  0  0  0  0  0  0  0  0  0  0  0
    1.2618    2.5164   12.0586 C   0  0  0  0  0  0  0  0  0  0  0  0
   -0.3784   -2.5892   15.8339 C   0  0  0  0  0  0  0  0  0  0  0  0
   -1.7343   -2.8306   15.7168 C   0  0  0  0  0  0  0  0  0  0  0  0
   -2.5117   -2.0982   14.8261 C   0  0  3  0  0  0  0  0  0  0  0  0
   -3.8736   -2.3467   14.7445 N   0  0  0  0  0  0  0  0  0  0  0  0
   -4.6489   -2.3804   13.4950 C   0  0  0  0  0  0  0  0  0  0  0  0
   -5.4028   -3.7252   13.3613 C   0  0  0  0  0  0  0  0  0  0  0  0
   -6.2201   -3.9495   14.5061 O   0  0  0  0  0  0  0  0  0  0  0  0
   -5.4732   -4.0046   15.7182 C   0  0  0  0  0  0  0  0  0  0  0  0
   -4.7007   -2.7060   15.8980 C   0  0  0  0  0  0  0  0  0  0  0  0
   -2.9815    1.1466   11.7906 H   0  0  0  0  0  0  0  0  0  0  0  0
   -1.7242    1.4599   13.0346 H   0  0  0  0  0  0  0  0  0  0  0  0
   -1.4063    0.2871   11.7117 H   0  0  0  0  0  0  0  0  0  0  0  0
   -0.0657   -0.0517   13.5928 H   0  0  0  0  0  0  0  0  0  0  0  0
    5.1376    1.9259   13.2300 H   0  0  0  0  0  0  0  0  0  0  0  0
    6.8310    0.9057   15.3087 H   0  0  0  0  0  0  0  0  0  0  0  0
    6.2747   -0.8021   17.3139 H   0  0  0  0  0  0  0  0  0  0  0  0
    4.5801    2.3663   11.2559 H   0  0  0  0  0  0  0  0  0  0  0  0
    3.8734    3.8118    9.3795 H   0  0  0  0  0  0  0  0  0  0  0  0
    2.0034    4.7144   10.6231 H   0  0  0  0  0  0  0  0  0  0  0  0
    1.3637    5.1168    8.2401 H   0  0  0  0  0  0  0  0  0  0  0  0
    0.5473    2.1701   12.7907 H   0  0  0  0  0  0  0  0  0  0  0  0
    0.2129   -3.1900   16.5090 H   0  0  0  0  0  0  0  0  0  0  0  0
   -2.1950   -3.5962   16.3235 H   0  0  0  0  0  0  0  0  0  0  0  0
   -2.3219   -2.8421   14.0383 H   0  0  0  0  0  0  0  0  0  0  0  0
   -5.3771   -1.5559   13.4984 H   0  0  0  0  0  0  0  0  0  0  0  0
   -3.9652   -2.2622   12.6414 H   0  0  0  0  0  0  0  0  0  0  0  0
   -6.0365   -3.6982   12.4626 H   0  0  0  0  0  0  0  0  0  0  0  0
   -4.6728   -4.5430   13.2707 H   0  0  0  0  0  0  0  0  0  0  0  0
   -6.1601   -4.1429   16.5661 H   0  0  0  0  0  0  0  0  0  0  0  0
   -4.7681   -4.8478   15.6763 H   0  0  0  0  0  0  0  0  0  0  0  0
   -4.0457   -2.8106   16.7755 H   0  0  0  0  0  0  0  0  0  0  0  0
   -5.4223   -1.8946   16.0737 H   0  0  0  0  0  0  0  0  0  0  0  0
  1  2  1  0  0  0  0
  2  3  1  0  0  0  0
  3  4  2  0  0  0  0
  3 27  1  0  0  0  0
  4  5  1  0  0  0  0
  5  6  2  0  0  0  0
  5 25  1  0  0  0  0
  6  7  1  0  0  0  0
  7  8  2  0  0  0  0
  7 15  1  0  0  0  0
  8  9  1  0  0  0  0
  9 10  2  0  0  0  0
  9 16  1  0  0  0  0
 10 11  1  0  0  0  0
 11 12  1  0  0  0  0
 11 15  1  0  0  0  0
 12 13  2  0  0  0  0
 13 14  1  0  0  0  0
 14 15  2  0  0  0  0
 16 17  1  0  0  0  0
 16 24  2  0  0  0  0
 17 18  2  0  0  0  0
 18 19  1  0  0  0  0
 19 20  1  0  0  0  0
 19 23  1  0  0  0  0
 20 21  2  0  0  0  0
 21 22  1  0  0  0  0
 22 23  2  0  0  0  0
 23 24  1  0  0  0  0
 25 26  2  0  0  0  0
 26 27  1  0  0  0  0
 27 28  1  0  0  0  0
 28 29  1  0  0  0  0
 28 33  1  0  0  0  0
 29 30  1  0  0  0  0
 30 31  1  0  0  0  0
 31 32  1  0  0  0  0
 32 33  1  0  0  0  0
  1 34  1  0  0  0  0
  1 35  1  0  0  0  0
  1 36  1  0  0  0  0
  4 37  1  0  0  0  0
 10 38  1  0  0  0  0
 12 39  1  0  0  0  0
 13 40  1  0  0  0  0
 17 41  1  0  0  0  0
 18 42  1  0  0  0  0
 19 43  1  0  0  0  0
 20 44  1  0  0  0  0
 24 45  1  0  0  0  0
 25 46  1  0  0  0  0
 26 47  1  0  0  0  0
 27 48  1  0  0  0  0
 29 49  1  0  0  0  0
 29 50  1  0  0  0  0
 30 51  1  0  0  0  0
 30 52  1  0  0  0  0
 32 53  1  0  0  0  0
 32 54  1  0  0  0  0
 33 55  1  0  0  0  0
 33 56  1  0  0  0  0
M  END
> <IC50[nM]>
0.44

$$$$
CHEMBL3265037
  -OEChem-05192314333D
 Structure written by MMmdl.
 56 61  0     1  0  0  0  0  0999 V2000
   -2.1744    0.6943   12.3856 C   0  0  0  0  0  0  0  0  0  0  0  0
   -2.7023   -0.3474   13.1823 O   0  0  0  0  0  0  0  0  0  0  0  0
   -1.9098   -1.0981   14.0384 C   0  0  0  0  0  0  0  0  0  0  0  0
   -0.5310   -0.8294   14.1803 C   0  0  0  0  0  0  0  0  0  0  0  0
    0.2355   -1.5834   15.0946 C   0  0  0  0  0  0  0  0  0  0  0  0
    1.6117   -1.3596   15.3361 N   0  0  0  0  0  0  0  0  0  0  0  0
    2.5319   -0.4372   14.7774 C   0  0  0  0  0  0  0  0  0  0  0  0
    2.1598    0.3941   13.7549 N   0  0  0  0  0  0  0  0  0  0  0  0
    3.0944    1.2396   13.2243 C   0  0  0  0  0  0  0  0  0  0  0  0
    4.4043    1.2833   13.6944 C   0  0  0  0  0  0  0  0  0  0  0  0
    4.7385    0.4947   14.7556 N   0  0  0  0  0  0  0  0  0  0  0  0
    5.8973    0.3913   15.4817 C   0  0  0  0  0  0  0  0  0  0  0  0
    5.5996   -0.5416   16.5121 C   0  0  0  0  0  0  0  0  0  0  0  0
    4.3864   -1.0493   16.3602 N   0  0  0  0  0  0  0  0  0  0  0  0
    3.8356   -0.3858   15.3271 C   0  0  0  0  0  0  0  0  0  0  0  0
    2.6225    2.1542   12.1213 C   0  0  0  0  0  0  0  0  0  0  0  0
    3.5396    2.6409   11.1644 C   0  0  0  0  0  0  0  0  0  0  0  0
    3.1535    3.4630   10.1051 C   0  0  0  0  0  0  0  0  0  0  0  0
    1.8086    3.8199   10.0132 C   0  0  3  0  0  0  0  0  0  0  0  0
    0.9978    4.6054    9.1182 C   0  0  0  0  0  0  0  0  0  0  0  0
   -0.2423    4.6093    9.5224 N   0  0  0  0  0  0  0  0  0  0  0  0
   -0.3299    3.8832   10.6368 N   0  0  0  0  0  0  0  0  0  0  0  0
    0.8842    3.3496   10.9964 C   0  0  0  0  0  0  0  0  0  0  0  0
    1.2618    2.5164   12.0586 C   0  0  0  0  0  0  0  0  0  0  0  0
   -0.3784   -2.5892   15.8339 C   0  0  0  0  0  0  0  0  0  0  0  0
   -1.7343   -2.8306   15.7168 C   0  0  0  0  0  0  0  0  0  0  0  0
   -2.5117   -2.0982   14.8261 C   0  0  0  0  0  0  0  0  0  0  0  0
   -3.8736   -2.3467   14.7445 N   0  0  0  0  0  0  0  0  0  0  0  0
   -4.6489   -2.3804   13.4950 C   0  0  0  0  0  0  0  0  0  0  0  0
   -5.4028   -3.7252   13.3613 C   0  0  0  0  0  0  0  0  0  0  0  0
   -6.2201   -3.9495   14.5061 O   0  0  0  0  0  0  0  0  0  0  0  0
   -5.4732   -4.0046   15.7182 C   0  0  0  0  0  0  0  0  0  0  0  0
   -4.7007   -2.7060   15.8980 C   0  0  0  0  0  0  0  0  0  0  0  0
   -2.9815    1.1466   11.7906 H   0  0  0  0  0  0  0  0  0  0  0  0
   -1.7242    1.4599   13.0346 H   0  0  0  0  0  0  0  0  0  0  0  0
   -1.4063    0.2871   11.7117 H   0  0  0  0  0  0  0  0  0  0  0  0
   -0.0657   -0.0517   13.5928 H   0  0  0  0  0  0  0  0  0  0  0  0
    5.1376    1.9259   13.2300 H   0  0  0  0  0  0  0  0  0  0  0  0
    6.8310    0.9057   15.3087 H   0  0  0  0  0  0  0  0  0  0  0  0
    6.2747   -0.8021   17.3139 H   0  0  0  0  0  0  0  0  0  0  0  0
    4.5801    2.3663   11.2559 H   0  0  0  0  0  0  0  0  0  0  0  0
    3.8734    3.8118    9.3795 H   0  0  0  0  0  0  0  0  0  0  0  0
    2.0034    4.7144   10.6231 H   0  0  0  0  0  0  0  0  0  0  0  0
    1.3637    5.1168    8.2401 H   0  0  0  0  0  0  0  0  0  0  0  0
    0.5473    2.1701   12.7907 H   0  0  0  0  0  0  0  0  0  0  0  0
    0.1306   -3.5276   15.5689 H   0  0  0  0  0  0  0  0  0  0  0  0
   -0.1920   -2.3574   16.8929 H   0  0  0  0  0  0  0  0  0  0  0  0
   -2.1950   -3.5962   16.3235 H   0  0  0  0  0  0  0  0  0  0  0  0
   -5.3771   -1.5559   13.4984 H   0  0  0  0  0  0  0  0  0  0  0  0
   -3.9652   -2.2622   12.6414 H   0  0  0  0  0  0  0  0  0  0  0  0
   -6.0365   -3.6982   12.4626 H   0  0  0  0  0  0  0  0  0  0  0  0
   -4.6728   -4.5430   13.2707 H   0  0  0  0  0  0  0  0  0  0  0  0
   -6.1601   -4.1429   16.5661 H   0  0  0  0  0  0  0  0  0  0  0  0
   -4.7681   -4.8478   15.6763 H   0  0  0  0  0  0  0  0  0  0  0  0
   -4.0457   -2.8106   16.7755 H   0  0  0  0  0  0  0  0  0  0  0  0
   -5.4223   -1.8946   16.0737 H   0  0  0  0  0  0  0  0  0  0  0  0
  1  2  1  0  0  0  0
  2  3  1  0  0  0  0
  3  4  2  0  0  0  0
  3 27  1  0  0  0  0
  4  5  1  0  0  0  0
  5  6  2  0  0  0  0
  5 25  1  0  0  0  0
  6  7  1  0  0  0  0
  7  8  2  0  0  0  0
  7 15  1  0  0  0  0
  8  9  1  0  0  0  0
  9 10  2  0  0  0  0
  9 16  1  0  0  0  0
 10 11  1  0  0  0  0
 11 12  1  0  0  0  0
 11 15  1  0  0  0  0
 12 13  2  0  0  0  0
 13 14  1  0  0  0  0
 14 15  2  0  0  0  0
 16 17  1  0  0  0  0
 16 24  2  0  0  0  0
 17 18  2  0  0  0  0
 18 19  1  0  0  0  0
 19 20  1  0  0  0  0
 19 23  1  0  0  0  0
 20 21  2  0  0  0  0
 21 22  1  0  0  0  0
 22 23  2  0  0  0  0
 23 24  1  0  0  0  0
 25 26  1  0  0  0  0
 26 27  2  0  0  0  0
 27 28  1  0  0  0  0
 28 29  1  0  0  0  0
 28 33  1  0  0  0  0
 29 30  1  0  0  0  0
 30 31  1  0  0  0  0
 31 32  1  0  0  0  0
 32 33  1  0  0  0  0
  1 34  1  0  0  0  0
  1 35  1  0  0  0  0
  1 36  1  0  0  0  0
  4 37  1  0  0  0  0
 10 38  1  0  0  0  0
 12 39  1  0  0  0  0
 13 40  1  0  0  0  0
 17 41  1  0  0  0  0
 18 42  1  0  0  0  0
 19 43  1  0  0  0  0
 20 44  1  0  0  0  0
 24 45  1  0  0  0  0
 25 46  1  0  0  0  0
 25 47  1  0  0  0  0
 26 48  1  0  0  0  0
 29 49  1  0  0  0  0
 29 50  1  0  0  0  0
 30 51  1  0  0  0  0
 30 52  1  0  0  0  0
 32 53  1  0  0  0  0
 32 54  1  0  0  0  0
 33 55  1  0  0  0  0
 33 56  1  0  0  0  0
M  END
> <IC50[nM]>
0.44

$$$$
CHEMBL3265037
  -OEChem-05192314333D
 Structure written by MMmdl.
 56 61  0     1  0  0  0  0  0999 V2000
   -2.1744    0.6943   12.3856 C   0  0  0  0  0  0  0  0  0  0  0  0
   -2.7023   -0.3474   13.1823 O   0  0  0  0  0  0  0  0  0  0  0  0
   -1.9098   -1.0981   14.0384 C   0  0  0  0  0  0  0  0  0  0  0  0
   -0.5310   -0.8294   14.1803 C   0  0  0  0  0  0  0  0  0  0  0  0
    0.2355   -1.5834   15.0946 C   0  0  0  0  0  0  0  0  0  0  0  0
    1.6117   -1.3596   15.3361 N   0  0  0  0  0  0  0  0  0  0  0  0
    2.5319   -0.4372   14.7774 C   0  0  0  0  0  0  0  0  0  0  0  0
    2.1598    0.3941   13.7549 N   0  0  0  0  0  0  0  0  0  0  0  0
    3.0944    1.2396   13.2243 C   0  0  0  0  0  0  0  0  0  0  0  0
    4.4043    1.2833   13.6944 C   0  0  0  0  0  0  0  0  0  0  0  0
    4.7385    0.4947   14.7556 N   0  0  0  0  0  0  0  0  0  0  0  0
    5.8973    0.3913   15.4817 C   0  0  0  0  0  0  0  0  0  0  0  0
    5.5996   -0.5416   16.5121 C   0  0  0  0  0  0  0  0  0  0  0  0
    4.3864   -1.0493   16.3602 N   0  0  0  0  0  0  0  0  0  0  0  0
    3.8356   -0.3858   15.3271 C   0  0  0  0  0  0  0  0  0  0  0  0
    2.6225    2.1542   12.1213 C   0  0  0  0  0  0  0  0  0  0  0  0
    3.5396    2.6409   11.1644 C   0  0  0  0  0  0  0  0  0  0  0  0
    3.1535    3.4630   10.1051 C   0  0  0  0  0  0  0  0  0  0  0  0
    1.8086    3.8199   10.0132 C   0  0  0  0  0  0  0  0  0  0  0  0
    0.9978    4.6054    9.1182 C   0  0  0  0  0  0  0  0  0  0  0  0
   -0.2423    4.6093    9.5224 N   0  0  0  0  0  0  0  0  0  0  0  0
   -0.3299    3.8832   10.6368 N   0  0  0  0  0  0  0  0  0  0  0  0
    0.8842    3.3496   10.9964 C   0  0  0  0  0  0  0  0  0  0  0  0
    1.2618    2.5164   12.0586 C   0  0  0  0  0  0  0  0  0  0  0  0
   -0.3784   -2.5892   15.8339 C   0  0  0  0  0  0  0  0  0  0  0  0
   -1.7343   -2.8306   15.7168 C   0  0  0  0  0  0  0  0  0  0  0  0
   -2.5117   -2.0982   14.8261 C   0  0  3  0  0  0  0  0  0  0  0  0
   -3.8736   -2.3467   14.7445 N   0  0  0  0  0  0  0  0  0  0  0  0
   -4.6489   -2.3804   13.4950 C   0  0  0  0  0  0  0  0  0  0  0  0
   -5.4028   -3.7252   13.3613 C   0  0  0  0  0  0  0  0  0  0  0  0
   -6.2201   -3.9495   14.5061 O   0  0  0  0  0  0  0  0  0  0  0  0
   -5.4732   -4.0046   15.7182 C   0  0  0  0  0  0  0  0  0  0  0  0
   -4.7007   -2.7060   15.8980 C   0  0  0  0  0  0  0  0  0  0  0  0
   -2.9815    1.1466   11.7906 H   0  0  0  0  0  0  0  0  0  0  0  0
   -1.7242    1.4599   13.0346 H   0  0  0  0  0  0  0  0  0  0  0  0
   -1.4063    0.2871   11.7117 H   0  0  0  0  0  0  0  0  0  0  0  0
   -0.0657   -0.0517   13.5928 H   0  0  0  0  0  0  0  0  0  0  0  0
    5.1376    1.9259   13.2300 H   0  0  0  0  0  0  0  0  0  0  0  0
    6.8310    0.9057   15.3087 H   0  0  0  0  0  0  0  0  0  0  0  0
    6.2747   -0.8021   17.3139 H   0  0  0  0  0  0  0  0  0  0  0  0
    4.2980    3.2045   11.7275 H   0  0  0  0  0  0  0  0  0  0  0  0
    4.0049    1.7543   10.7089 H   0  0  0  0  0  0  0  0  0  0  0  0
    3.8734    3.8118    9.3795 H   0  0  0  0  0  0  0  0  0  0  0  0
    1.3637    5.1168    8.2401 H   0  0  0  0  0  0  0  0  0  0  0  0
    0.5473    2.1701   12.7907 H   0  0  0  0  0  0  0  0  0  0  0  0
    0.2129   -3.1900   16.5090 H   0  0  0  0  0  0  0  0  0  0  0  0
   -2.1950   -3.5962   16.3235 H   0  0  0  0  0  0  0  0  0  0  0  0
   -2.3219   -2.8421   14.0383 H   0  0  0  0  0  0  0  0  0  0  0  0
   -5.3771   -1.5559   13.4984 H   0  0  0  0  0  0  0  0  0  0  0  0
   -3.9652   -2.2622   12.6414 H   0  0  0  0  0  0  0  0  0  0  0  0
   -6.0365   -3.6982   12.4626 H   0  0  0  0  0  0  0  0  0  0  0  0
   -4.6728   -4.5430   13.2707 H   0  0  0  0  0  0  0  0  0  0  0  0
   -6.1601   -4.1429   16.5661 H   0  0  0  0  0  0  0  0  0  0  0  0
   -4.7681   -4.8478   15.6763 H   0  0  0  0  0  0  0  0  0  0  0  0
   -4.0457   -2.8106   16.7755 H   0  0  0  0  0  0  0  0  0  0  0  0
   -5.4223   -1.8946   16.0737 H   0  0  0  0  0  0  0  0  0  0  0  0
  1  2  1  0  0  0  0
  2  3  1  0  0  0  0
  3  4  2  0  0  0  0
  3 27  1  0  0  0  0
  4  5  1  0  0  0  0
  5  6  2  0  0  0  0
  5 25  1  0  0  0  0
  6  7  1  0  0  0  0
  7  8  2  0  0  0  0
  7 15  1  0  0  0  0
  8  9  1  0  0  0  0
  9 10  2  0  0  0  0
  9 16  1  0  0  0  0
 10 11  1  0  0  0  0
 11 12  1  0  0  0  0
 11 15  1  0  0  0  0
 12 13  2  0  0  0  0
 13 14  1  0  0  0  0
 14 15  2  0  0  0  0
 16 17  1  0  0  0  0
 16 24  2  0  0  0  0
 17 18  1  0  0  0  0
 18 19  2  0  0  0  0
 19 20  1  0  0  0  0
 19 23  1  0  0  0  0
 20 21  2  0  0  0  0
 21 22  1  0  0  0  0
 22 23  2  0  0  0  0
 23 24  1  0  0  0  0
 25 26  2  0  0  0  0
 26 27  1  0  0  0  0
 27 28  1  0  0  0  0
 28 29  1  0  0  0  0
 28 33  1  0  0  0  0
 29 30  1  0  0  0  0
 30 31  1  0  0  0  0
 31 32  1  0  0  0  0
 32 33  1  0  0  0  0
  1 34  1  0  0  0  0
  1 35  1  0  0  0  0
  1 36  1  0  0  0  0
  4 37  1  0  0  0  0
 10 38  1  0  0  0  0
 12 39  1  0  0  0  0
 13 40  1  0  0  0  0
 17 41  1  0  0  0  0
 17 42  1  0  0  0  0
 18 43  1  0  0  0  0
 20 44  1  0  0  0  0
 24 45  1  0  0  0  0
 25 46  1  0  0  0  0
 26 47  1  0  0  0  0
 27 48  1  0  0  0  0
 29 49  1  0  0  0  0
 29 50  1  0  0  0  0
 30 51  1  0  0  0  0
 30 52  1  0  0  0  0
 32 53  1  0  0  0  0
 32 54  1  0  0  0  0
 33 55  1  0  0  0  0
 33 56  1  0  0  0  0
M  END
> <IC50[nM]>
0.44

$$$$
CHEMBL3265037
  -OEChem-05192314333D
 Structure written by MMmdl.
 56 61  0     0  0  0  0  0  0999 V2000
   -2.1744    0.6943   12.3856 C   0  0  0  0  0  0  0  0  0  0  0  0
   -2.7023   -0.3474   13.1823 O   0  0  0  0  0  0  0  0  0  0  0  0
   -1.9098   -1.0981   14.0384 C   0  0  0  0  0  0  0  0  0  0  0  0
   -0.5310   -0.8294   14.1803 C   0  0  0  0  0  0  0  0  0  0  0  0
    0.2355   -1.5834   15.0946 C   0  0  0  0  0  0  0  0  0  0  0  0
    1.6117   -1.3596   15.3361 N   0  0  0  0  0  0  0  0  0  0  0  0
    2.5319   -0.4372   14.7774 C   0  0  0  0  0  0  0  0  0  0  0  0
    2.1598    0.3941   13.7549 N   0  0  0  0  0  0  0  0  0  0  0  0
    3.0944    1.2396   13.2243 C   0  0  0  0  0  0  0  0  0  0  0  0
    4.4043    1.2833   13.6944 C   0  0  0  0  0  0  0  0  0  0  0  0
    4.7385    0.4947   14.7556 N   0  0  0  0  0  0  0  0  0  0  0  0
    5.8973    0.3913   15.4817 C   0  0  0  0  0  0  0  0  0  0  0  0
    5.5996   -0.5416   16.5121 C   0  0  0  0  0  0  0  0  0  0  0  0
    4.3864   -1.0493   16.3602 N   0  0  0  0  0  0  0  0  0  0  0  0
    3.8356   -0.3858   15.3271 C   0  0  0  0  0  0  0  0  0  0  0  0
    2.6225    2.1542   12.1213 C   0  0  0  0  0  0  0  0  0  0  0  0
    3.5396    2.6409   11.1644 C   0  0  0  0  0  0  0  0  0  0  0  0
    3.1535    3.4630   10.1051 C   0  0  0  0  0  0  0  0  0  0  0  0
    1.8086    3.8199   10.0132 C   0  0  0  0  0  0  0  0  0  0  0  0
    0.9978    4.6054    9.1182 C   0  0  0  0  0  0  0  0  0  0  0  0
   -0.2423    4.6093    9.5224 N   0  0  0  0  0  0  0  0  0  0  0  0
   -0.3299    3.8832   10.6368 N   0  0  0  0  0  0  0  0  0  0  0  0
    0.8842    3.3496   10.9964 C   0  0  0  0  0  0  0  0  0  0  0  0
    1.2618    2.5164   12.0586 C   0  0  0  0  0  0  0  0  0  0  0  0
   -0.3784   -2.5892   15.8339 C   0  0  0  0  0  0  0  0  0  0  0  0
   -1.7343   -2.8306   15.7168 C   0  0  0  0  0  0  0  0  0  0  0  0
   -2.5117   -2.0982   14.8261 C   0  0  0  0  0  0  0  0  0  0  0  0
   -3.8736   -2.3467   14.7445 N   0  0  0  0  0  0  0  0  0  0  0  0
   -4.6489   -2.3804   13.4950 C   0  0  0  0  0  0  0  0  0  0  0  0
   -5.4028   -3.7252   13.3613 C   0  0  0  0  0  0  0  0  0  0  0  0
   -6.2201   -3.9495   14.5061 O   0  0  0  0  0  0  0  0  0  0  0  0
   -5.4732   -4.0046   15.7182 C   0  0  0  0  0  0  0  0  0  0  0  0
   -4.7007   -2.7060   15.8980 C   0  0  0  0  0  0  0  0  0  0  0  0
   -2.9815    1.1466   11.7906 H   0  0  0  0  0  0  0  0  0  0  0  0
   -1.7242    1.4599   13.0346 H   0  0  0  0  0  0  0  0  0  0  0  0
   -1.4063    0.2871   11.7117 H   0  0  0  0  0  0  0  0  0  0  0  0
   -0.0657   -0.0517   13.5928 H   0  0  0  0  0  0  0  0  0  0  0  0
    5.1376    1.9259   13.2300 H   0  0  0  0  0  0  0  0  0  0  0  0
    6.8310    0.9057   15.3087 H   0  0  0  0  0  0  0  0  0  0  0  0
    6.2747   -0.8021   17.3139 H   0  0  0  0  0  0  0  0  0  0  0  0
    4.2980    3.2045   11.7275 H   0  0  0  0  0  0  0  0  0  0  0  0
    4.0049    1.7543   10.7089 H   0  0  0  0  0  0  0  0  0  0  0  0
    3.8734    3.8118    9.3795 H   0  0  0  0  0  0  0  0  0  0  0  0
    1.3637    5.1168    8.2401 H   0  0  0  0  0  0  0  0  0  0  0  0
    0.5473    2.1701   12.7907 H   0  0  0  0  0  0  0  0  0  0  0  0
    0.1306   -3.5276   15.5689 H   0  0  0  0  0  0  0  0  0  0  0  0
   -0.1920   -2.3574   16.8929 H   0  0  0  0  0  0  0  0  0  0  0  0
   -2.1950   -3.5962   16.3235 H   0  0  0  0  0  0  0  0  0  0  0  0
   -5.3771   -1.5559   13.4984 H   0  0  0  0  0  0  0  0  0  0  0  0
   -3.9652   -2.2622   12.6414 H   0  0  0  0  0  0  0  0  0  0  0  0
   -6.0365   -3.6982   12.4626 H   0  0  0  0  0  0  0  0  0  0  0  0
   -4.6728   -4.5430   13.2707 H   0  0  0  0  0  0  0  0  0  0  0  0
   -6.1601   -4.1429   16.5661 H   0  0  0  0  0  0  0  0  0  0  0  0
   -4.7681   -4.8478   15.6763 H   0  0  0  0  0  0  0  0  0  0  0  0
   -4.0457   -2.8106   16.7755 H   0  0  0  0  0  0  0  0  0  0  0  0
   -5.4223   -1.8946   16.0737 H   0  0  0  0  0  0  0  0  0  0  0  0
  1  2  1  0  0  0  0
  2  3  1  0  0  0  0
  3  4  2  0  0  0  0
  3 27  1  0  0  0  0
  4  5  1  0  0  0  0
  5  6  2  0  0  0  0
  5 25  1  0  0  0  0
  6  7  1  0  0  0  0
  7  8  2  0  0  0  0
  7 15  1  0  0  0  0
  8  9  1  0  0  0  0
  9 10  2  0  0  0  0
  9 16  1  0  0  0  0
 10 11  1  0  0  0  0
 11 12  1  0  0  0  0
 11 15  1  0  0  0  0
 12 13  2  0  0  0  0
 13 14  1  0  0  0  0
 14 15  2  0  0  0  0
 16 17  1  0  0  0  0
 16 24  2  0  0  0  0
 17 18  1  0  0  0  0
 18 19  2  0  0  0  0
 19 20  1  0  0  0  0
 19 23  1  0  0  0  0
 20 21  2  0  0  0  0
 21 22  1  0  0  0  0
 22 23  2  0  0  0  0
 23 24  1  0  0  0  0
 25 26  1  0  0  0  0
 26 27  2  0  0  0  0
 27 28  1  0  0  0  0
 28 29  1  0  0  0  0
 28 33  1  0  0  0  0
 29 30  1  0  0  0  0
 30 31  1  0  0  0  0
 31 32  1  0  0  0  0
 32 33  1  0  0  0  0
  1 34  1  0  0  0  0
  1 35  1  0  0  0  0
  1 36  1  0  0  0  0
  4 37  1  0  0  0  0
 10 38  1  0  0  0  0
 12 39  1  0  0  0  0
 13 40  1  0  0  0  0
 17 41  1  0  0  0  0
 17 42  1  0  0  0  0
 18 43  1  0  0  0  0
 20 44  1  0  0  0  0
 24 45  1  0  0  0  0
 25 46  1  0  0  0  0
 25 47  1  0  0  0  0
 26 48  1  0  0  0  0
 29 49  1  0  0  0  0
 29 50  1  0  0  0  0
 30 51  1  0  0  0  0
 30 52  1  0  0  0  0
 32 53  1  0  0  0  0
 32 54  1  0  0  0  0
 33 55  1  0  0  0  0
 33 56  1  0  0  0  0
M  END
> <IC50[nM]>
0.44

$$$$
CHEMBL3265037
  -OEChem-05192314333D
 Structure written by MMmdl.
 56 61  0     1  0  0  0  0  0999 V2000
   -2.1744    0.6943   12.3856 C   0  0  0  0  0  0  0  0  0  0  0  0
   -2.7023   -0.3474   13.1823 O   0  0  0  0  0  0  0  0  0  0  0  0
   -1.9098   -1.0981   14.0384 C   0  0  0  0  0  0  0  0  0  0  0  0
   -0.5310   -0.8294   14.1803 C   0  0  0  0  0  0  0  0  0  0  0  0
    0.2355   -1.5834   15.0946 C   0  0  0  0  0  0  0  0  0  0  0  0
    1.6117   -1.3596   15.3361 N   0  0  0  0  0  0  0  0  0  0  0  0
    2.5319   -0.4372   14.7774 C   0  0  0  0  0  0  0  0  0  0  0  0
    2.1598    0.3941   13.7549 N   0  0  0  0  0  0  0  0  0  0  0  0
    3.0944    1.2396   13.2243 C   0  0  0  0  0  0  0  0  0  0  0  0
    4.4043    1.2833   13.6944 C   0  0  0  0  0  0  0  0  0  0  0  0
    4.7385    0.4947   14.7556 N   0  0  0  0  0  0  0  0  0  0  0  0
    5.8973    0.3913   15.4817 C   0  0  0  0  0  0  0  0  0  0  0  0
    5.5996   -0.5416   16.5121 C   0  0  0  0  0  0  0  0  0  0  0  0
    4.3864   -1.0493   16.3602 N   0  0  0  0  0  0  0  0  0  0  0  0
    3.8356   -0.3858   15.3271 C   0  0  0  0  0  0  0  0  0  0  0  0
    2.6225    2.1542   12.1213 C   0  0  0  0  0  0  0  0  0  0  0  0
    3.5396    2.6409   11.1644 C   0  0  0  0  0  0  0  0  0  0  0  0
    3.1535    3.4630   10.1051 C   0  0  0  0  0  0  0  0  0  0  0  0
    1.8086    3.8199   10.0132 C   0  0  3  0  0  0  0  0  0  0  0  0
    0.9978    4.6054    9.1182 C   0  0  0  0  0  0  0  0  0  0  0  0
   -0.2423    4.6093    9.5224 N   0  0  0  0  0  0  0  0  0  0  0  0
   -0.3299    3.8832   10.6368 N   0  0  0  0  0  0  0  0  0  0  0  0
    0.8842    3.3496   10.9964 C   0  0  0  0  0  0  0  0  0  0  0  0
    1.2618    2.5164   12.0586 C   0  0  0  0  0  0  0  0  0  0  0  0
   -0.3784   -2.5892   15.8339 C   0  0  0  0  0  0  0  0  0  0  0  0
   -1.7343   -2.8306   15.7168 C   0  0  0  0  0  0  0  0  0  0  0  0
   -2.5117   -2.0982   14.8261 C   0  0  0  0  0  0  0  0  0  0  0  0
   -3.8736   -2.3467   14.7445 N   0  0  0  0  0  0  0  0  0  0  0  0
   -4.6489   -2.3804   13.4950 C   0  0  0  0  0  0  0  0  0  0  0  0
   -5.4028   -3.7252   13.3613 C   0  0  0  0  0  0  0  0  0  0  0  0
   -6.2201   -3.9495   14.5061 O   0  0  0  0  0  0  0  0  0  0  0  0
   -5.4732   -4.0046   15.7182 C   0  0  0  0  0  0  0  0  0  0  0  0
   -4.7007   -2.7060   15.8980 C   0  0  0  0  0  0  0  0  0  0  0  0
   -2.9815    1.1466   11.7906 H   0  0  0  0  0  0  0  0  0  0  0  0
   -1.7242    1.4599   13.0346 H   0  0  0  0  0  0  0  0  0  0  0  0
   -1.4063    0.2871   11.7117 H   0  0  0  0  0  0  0  0  0  0  0  0
   -0.0746   -0.9691   13.1892 H   0  0  0  0  0  0  0  0  0  0  0  0
   -0.4402    0.2250   14.4805 H   0  0  0  0  0  0  0  0  0  0  0  0
    5.1376    1.9259   13.2300 H   0  0  0  0  0  0  0  0  0  0  0  0
    6.8310    0.9057   15.3087 H   0  0  0  0  0  0  0  0  0  0  0  0
    6.2747   -0.8021   17.3139 H   0  0  0  0  0  0  0  0  0  0  0  0
    4.5801    2.3663   11.2559 H   0  0  0  0  0  0  0  0  0  0  0  0
    3.8734    3.8118    9.3795 H   0  0  0  0  0  0  0  0  0  0  0  0
    2.0034    4.7144   10.6231 H   0  0  0  0  0  0  0  0  0  0  0  0
    1.3637    5.1168    8.2401 H   0  0  0  0  0  0  0  0  0  0  0  0
    0.5473    2.1701   12.7907 H   0  0  0  0  0  0  0  0  0  0  0  0
    0.2129   -3.1900   16.5090 H   0  0  0  0  0  0  0  0  0  0  0  0
   -2.1950   -3.5962   16.3235 H   0  0  0  0  0  0  0  0  0  0  0  0
   -5.3771   -1.5559   13.4984 H   0  0  0  0  0  0  0  0  0  0  0  0
   -3.9652   -2.2622   12.6414 H   0  0  0  0  0  0  0  0  0  0  0  0
   -6.0365   -3.6982   12.4626 H   0  0  0  0  0  0  0  0  0  0  0  0
   -4.6728   -4.5430   13.2707 H   0  0  0  0  0  0  0  0  0  0  0  0
   -6.1601   -4.1429   16.5661 H   0  0  0  0  0  0  0  0  0  0  0  0
   -4.7681   -4.8478   15.6763 H   0  0  0  0  0  0  0  0  0  0  0  0
   -4.0457   -2.8106   16.7755 H   0  0  0  0  0  0  0  0  0  0  0  0
   -5.4223   -1.8946   16.0737 H   0  0  0  0  0  0  0  0  0  0  0  0
  1  2  1  0  0  0  0
  2  3  1  0  0  0  0
  3  4  1  0  0  0  0
  3 27  2  0  0  0  0
  4  5  1  0  0  0  0
  5  6  2  0  0  0  0
  5 25  1  0  0  0  0
  6  7  1  0  0  0  0
  7  8  2  0  0  0  0
  7 15  1  0  0  0  0
  8  9  1  0  0  0  0
  9 10  2  0  0  0  0
  9 16  1  0  0  0  0
 10 11  1  0  0  0  0
 11 12  1  0  0  0  0
 11 15  1  0  0  0  0
 12 13  2  0  0  0  0
 13 14  1  0  0  0  0
 14 15  2  0  0  0  0
 16 17  1  0  0  0  0
 16 24  2  0  0  0  0
 17 18  2  0  0  0  0
 18 19  1  0  0  0  0
 19 20  1  0  0  0  0
 19 23  1  0  0  0  0
 20 21  2  0  0  0  0
 21 22  1  0  0  0  0
 22 23  2  0  0  0  0
 23 24  1  0  0  0  0
 25 26  2  0  0  0  0
 26 27  1  0  0  0  0
 27 28  1  0  0  0  0
 28 29  1  0  0  0  0
 28 33  1  0  0  0  0
 29 30  1  0  0  0  0
 30 31  1  0  0  0  0
 31 32  1  0  0  0  0
 32 33  1  0  0  0  0
  1 34  1  0  0  0  0
  1 35  1  0  0  0  0
  1 36  1  0  0  0  0
  4 37  1  0  0  0  0
  4 38  1  0  0  0  0
 10 39  1  0  0  0  0
 12 40  1  0  0  0  0
 13 41  1  0  0  0  0
 17 42  1  0  0  0  0
 18 43  1  0  0  0  0
 19 44  1  0  0  0  0
 20 45  1  0  0  0  0
 24 46  1  0  0  0  0
 25 47  1  0  0  0  0
 26 48  1  0  0  0  0
 29 49  1  0  0  0  0
 29 50  1  0  0  0  0
 30 51  1  0  0  0  0
 30 52  1  0  0  0  0
 32 53  1  0  0  0  0
 32 54  1  0  0  0  0
 33 55  1  0  0  0  0
 33 56  1  0  0  0  0
M  END
> <IC50[nM]>
0.44

$$$$
CHEMBL3265037
  -OEChem-05192314333D
 Structure written by MMmdl.
 56 61  0     0  0  0  0  0  0999 V2000
   -2.1744    0.6943   12.3856 C   0  0  0  0  0  0  0  0  0  0  0  0
   -2.7023   -0.3474   13.1823 O   0  0  0  0  0  0  0  0  0  0  0  0
   -1.9098   -1.0981   14.0384 C   0  0  0  0  0  0  0  0  0  0  0  0
   -0.5310   -0.8294   14.1803 C   0  0  0  0  0  0  0  0  0  0  0  0
    0.2355   -1.5834   15.0946 C   0  0  0  0  0  0  0  0  0  0  0  0
    1.6117   -1.3596   15.3361 N   0  0  0  0  0  0  0  0  0  0  0  0
    2.5319   -0.4372   14.7774 C   0  0  0  0  0  0  0  0  0  0  0  0
    2.1598    0.3941   13.7549 N   0  0  0  0  0  0  0  0  0  0  0  0
    3.0944    1.2396   13.2243 C   0  0  0  0  0  0  0  0  0  0  0  0
    4.4043    1.2833   13.6944 C   0  0  0  0  0  0  0  0  0  0  0  0
    4.7385    0.4947   14.7556 N   0  0  0  0  0  0  0  0  0  0  0  0
    5.8973    0.3913   15.4817 C   0  0  0  0  0  0  0  0  0  0  0  0
    5.5996   -0.5416   16.5121 C   0  0  0  0  0  0  0  0  0  0  0  0
    4.3864   -1.0493   16.3602 N   0  0  0  0  0  0  0  0  0  0  0  0
    3.8356   -0.3858   15.3271 C   0  0  0  0  0  0  0  0  0  0  0  0
    2.6225    2.1542   12.1213 C   0  0  0  0  0  0  0  0  0  0  0  0
    3.5396    2.6409   11.1644 C   0  0  0  0  0  0  0  0  0  0  0  0
    3.1535    3.4630   10.1051 C   0  0  0  0  0  0  0  0  0  0  0  0
    1.8086    3.8199   10.0132 C   0  0  0  0  0  0  0  0  0  0  0  0
    0.9978    4.6054    9.1182 C   0  0  0  0  0  0  0  0  0  0  0  0
   -0.2423    4.6093    9.5224 N   0  0  0  0  0  0  0  0  0  0  0  0
   -0.3299    3.8832   10.6368 N   0  0  0  0  0  0  0  0  0  0  0  0
    0.8842    3.3496   10.9964 C   0  0  0  0  0  0  0  0  0  0  0  0
    1.2618    2.5164   12.0586 C   0  0  0  0  0  0  0  0  0  0  0  0
   -0.3784   -2.5892   15.8339 C   0  0  0  0  0  0  0  0  0  0  0  0
   -1.7343   -2.8306   15.7168 C   0  0  0  0  0  0  0  0  0  0  0  0
   -2.5117   -2.0982   14.8261 C   0  0  0  0  0  0  0  0  0  0  0  0
   -3.8736   -2.3467   14.7445 N   0  0  0  0  0  0  0  0  0  0  0  0
   -4.6489   -2.3804   13.4950 C   0  0  0  0  0  0  0  0  0  0  0  0
   -5.4028   -3.7252   13.3613 C   0  0  0  0  0  0  0  0  0  0  0  0
   -6.2201   -3.9495   14.5061 O   0  0  0  0  0  0  0  0  0  0  0  0
   -5.4732   -4.0046   15.7182 C   0  0  0  0  0  0  0  0  0  0  0  0
   -4.7007   -2.7060   15.8980 C   0  0  0  0  0  0  0  0  0  0  0  0
   -2.9815    1.1466   11.7906 H   0  0  0  0  0  0  0  0  0  0  0  0
   -1.7242    1.4599   13.0346 H   0  0  0  0  0  0  0  0  0  0  0  0
   -1.4063    0.2871   11.7117 H   0  0  0  0  0  0  0  0  0  0  0  0
   -0.0746   -0.9691   13.1892 H   0  0  0  0  0  0  0  0  0  0  0  0
   -0.4402    0.2250   14.4805 H   0  0  0  0  0  0  0  0  0  0  0  0
    5.1376    1.9259   13.2300 H   0  0  0  0  0  0  0  0  0  0  0  0
    6.8310    0.9057   15.3087 H   0  0  0  0  0  0  0  0  0  0  0  0
    6.2747   -0.8021   17.3139 H   0  0  0  0  0  0  0  0  0  0  0  0
    4.2980    3.2045   11.7275 H   0  0  0  0  0  0  0  0  0  0  0  0
    4.0049    1.7543   10.7089 H   0  0  0  0  0  0  0  0  0  0  0  0
    3.8734    3.8118    9.3795 H   0  0  0  0  0  0  0  0  0  0  0  0
    1.3637    5.1168    8.2401 H   0  0  0  0  0  0  0  0  0  0  0  0
    0.5473    2.1701   12.7907 H   0  0  0  0  0  0  0  0  0  0  0  0
    0.2129   -3.1900   16.5090 H   0  0  0  0  0  0  0  0  0  0  0  0
   -2.1950   -3.5962   16.3235 H   0  0  0  0  0  0  0  0  0  0  0  0
   -5.3771   -1.5559   13.4984 H   0  0  0  0  0  0  0  0  0  0  0  0
   -3.9652   -2.2622   12.6414 H   0  0  0  0  0  0  0  0  0  0  0  0
   -6.0365   -3.6982   12.4626 H   0  0  0  0  0  0  0  0  0  0  0  0
   -4.6728   -4.5430   13.2707 H   0  0  0  0  0  0  0  0  0  0  0  0
   -6.1601   -4.1429   16.5661 H   0  0  0  0  0  0  0  0  0  0  0  0
   -4.7681   -4.8478   15.6763 H   0  0  0  0  0  0  0  0  0  0  0  0
   -4.0457   -2.8106   16.7755 H   0  0  0  0  0  0  0  0  0  0  0  0
   -5.4223   -1.8946   16.0737 H   0  0  0  0  0  0  0  0  0  0  0  0
  1  2  1  0  0  0  0
  2  3  1  0  0  0  0
  3  4  1  0  0  0  0
  3 27  2  0  0  0  0
  4  5  1  0  0  0  0
  5  6  2  0  0  0  0
  5 25  1  0  0  0  0
  6  7  1  0  0  0  0
  7  8  2  0  0  0  0
  7 15  1  0  0  0  0
  8  9  1  0  0  0  0
  9 10  2  0  0  0  0
  9 16  1  0  0  0  0
 10 11  1  0  0  0  0
 11 12  1  0  0  0  0
 11 15  1  0  0  0  0
 12 13  2  0  0  0  0
 13 14  1  0  0  0  0
 14 15  2  0  0  0  0
 16 17  1  0  0  0  0
 16 24  2  0  0  0  0
 17 18  1  0  0  0  0
 18 19  2  0  0  0  0
 19 20  1  0  0  0  0
 19 23  1  0  0  0  0
 20 21  2  0  0  0  0
 21 22  1  0  0  0  0
 22 23  2  0  0  0  0
 23 24  1  0  0  0  0
 25 26  2  0  0  0  0
 26 27  1  0  0  0  0
 27 28  1  0  0  0  0
 28 29  1  0  0  0  0
 28 33  1  0  0  0  0
 29 30  1  0  0  0  0
 30 31  1  0  0  0  0
 31 32  1  0  0  0  0
 32 33  1  0  0  0  0
  1 34  1  0  0  0  0
  1 35  1  0  0  0  0
  1 36  1  0  0  0  0
  4 37  1  0  0  0  0
  4 38  1  0  0  0  0
 10 39  1  0  0  0  0
 12 40  1  0  0  0  0
 13 41  1  0  0  0  0
 17 42  1  0  0  0  0
 17 43  1  0  0  0  0
 18 44  1  0  0  0  0
 20 45  1  0  0  0  0
 24 46  1  0  0  0  0
 25 47  1  0  0  0  0
 26 48  1  0  0  0  0
 29 49  1  0  0  0  0
 29 50  1  0  0  0  0
 30 51  1  0  0  0  0
 30 52  1  0  0  0  0
 32 53  1  0  0  0  0
 32 54  1  0  0  0  0
 33 55  1  0  0  0  0
 33 56  1  0  0  0  0
M  END
> <IC50[nM]>
0.44

$$$$
CHEMBL3265037
  -OEChem-05192314333D
 Structure written by MMmdl.
 56 61  0     1  0  0  0  0  0999 V2000
   -2.1744    0.6943   12.3856 C   0  0  0  0  0  0  0  0  0  0  0  0
   -2.7023   -0.3474   13.1823 O   0  0  0  0  0  0  0  0  0  0  0  0
   -1.9098   -1.0981   14.0384 C   0  0  0  0  0  0  0  0  0  0  0  0
   -0.5310   -0.8294   14.1803 C   0  0  0  0  0  0  0  0  0  0  0  0
    0.2355   -1.5834   15.0946 C   0  0  0  0  0  0  0  0  0  0  0  0
    1.6117   -1.3596   15.3361 N   0  0  0  0  0  0  0  0  0  0  0  0
    2.5319   -0.4372   14.7774 C   0  0  0  0  0  0  0  0  0  0  0  0
    2.1598    0.3941   13.7549 N   0  0  0  0  0  0  0  0  0  0  0  0
    3.0944    1.2396   13.2243 C   0  0  0  0  0  0  0  0  0  0  0  0
    4.4043    1.2833   13.6944 C   0  0  0  0  0  0  0  0  0  0  0  0
    4.7385    0.4947   14.7556 N   0  0  0  0  0  0  0  0  0  0  0  0
    5.8973    0.3913   15.4817 C   0  0  0  0  0  0  0  0  0  0  0  0
    5.5996   -0.5416   16.5121 C   0  0  0  0  0  0  0  0  0  0  0  0
    4.3864   -1.0493   16.3602 N   0  0  0  0  0  0  0  0  0  0  0  0
    3.8356   -0.3858   15.3271 C   0  0  0  0  0  0  0  0  0  0  0  0
    2.6225    2.1542   12.1213 C   0  0  0  0  0  0  0  0  0  0  0  0
    3.5396    2.6409   11.1644 C   0  0  0  0  0  0  0  0  0  0  0  0
    3.1535    3.4630   10.1051 C   0  0  0  0  0  0  0  0  0  0  0  0
    1.8086    3.8199   10.0132 C   0  0  0  0  0  0  0  0  0  0  0  0
    0.9978    4.6054    9.1182 C   0  0  0  0  0  0  0  0  0  0  0  0
   -0.2423    4.6093    9.5224 N   0  0  0  0  0  0  0  0  0  0  0  0
   -0.3299    3.8832   10.6368 N   0  0  0  0  0  0  0  0  0  0  0  0
    0.8842    3.3496   10.9964 C   0  0  0  0  0  0  0  0  0  0  0  0
    1.2618    2.5164   12.0586 C   0  0  0  0  0  0  0  0  0  0  0  0
   -0.3784   -2.5892   15.8339 C   0  0  0  0  0  0  0  0  0  0  0  0
   -1.7343   -2.8306   15.7168 C   0  0  0  0  0  0  0  0  0  0  0  0
   -2.5117   -2.0982   14.8261 C   0  0  3  0  0  0  0  0  0  0  0  0
   -3.8736   -2.3467   14.7445 N   0  0  0  0  0  0  0  0  0  0  0  0
   -4.6489   -2.3804   13.4950 C   0  0  0  0  0  0  0  0  0  0  0  0
   -5.4028   -3.7252   13.3613 C   0  0  0  0  0  0  0  0  0  0  0  0
   -6.2201   -3.9495   14.5061 O   0  0  0  0  0  0  0  0  0  0  0  0
   -5.4732   -4.0046   15.7182 C   0  0  0  0  0  0  0  0  0  0  0  0
   -4.7007   -2.7060   15.8980 C   0  0  0  0  0  0  0  0  0  0  0  0
   -2.9815    1.1466   11.7906 H   0  0  0  0  0  0  0  0  0  0  0  0
   -1.7242    1.4599   13.0346 H   0  0  0  0  0  0  0  0  0  0  0  0
   -1.4063    0.2871   11.7117 H   0  0  0  0  0  0  0  0  0  0  0  0
   -0.0657   -0.0517   13.5928 H   0  0  0  0  0  0  0  0  0  0  0  0
    5.1376    1.9259   13.2300 H   0  0  0  0  0  0  0  0  0  0  0  0
    6.8310    0.9057   15.3087 H   0  0  0  0  0  0  0  0  0  0  0  0
    6.2747   -0.8021   17.3139 H   0  0  0  0  0  0  0  0  0  0  0  0
    4.5801    2.3663   11.2559 H   0  0  0  0  0  0  0  0  0  0  0  0
    3.8734    3.8118    9.3795 H   0  0  0  0  0  0  0  0  0  0  0  0
    1.3637    5.1168    8.2401 H   0  0  0  0  0  0  0  0  0  0  0  0
    0.6728    1.5905   11.9826 H   0  0  0  0  0  0  0  0  0  0  0  0
    1.0106    3.0350   12.9956 H   0  0  0  0  0  0  0  0  0  0  0  0
    0.2129   -3.1900   16.5090 H   0  0  0  0  0  0  0  0  0  0  0  0
   -2.1950   -3.5962   16.3235 H   0  0  0  0  0  0  0  0  0  0  0  0
   -2.3219   -2.8421   14.0383 H   0  0  0  0  0  0  0  0  0  0  0  0
   -5.3771   -1.5559   13.4984 H   0  0  0  0  0  0  0  0  0  0  0  0
   -3.9652   -2.2622   12.6414 H   0  0  0  0  0  0  0  0  0  0  0  0
   -6.0365   -3.6982   12.4626 H   0  0  0  0  0  0  0  0  0  0  0  0
   -4.6728   -4.5430   13.2707 H   0  0  0  0  0  0  0  0  0  0  0  0
   -6.1601   -4.1429   16.5661 H   0  0  0  0  0  0  0  0  0  0  0  0
   -4.7681   -4.8478   15.6763 H   0  0  0  0  0  0  0  0  0  0  0  0
   -4.0457   -2.8106   16.7755 H   0  0  0  0  0  0  0  0  0  0  0  0
   -5.4223   -1.8946   16.0737 H   0  0  0  0  0  0  0  0  0  0  0  0
  1  2  1  0  0  0  0
  2  3  1  0  0  0  0
  3  4  2  0  0  0  0
  3 27  1  0  0  0  0
  4  5  1  0  0  0  0
  5  6  2  0  0  0  0
  5 25  1  0  0  0  0
  6  7  1  0  0  0  0
  7  8  2  0  0  0  0
  7 15  1  0  0  0  0
  8  9  1  0  0  0  0
  9 10  2  0  0  0  0
  9 16  1  0  0  0  0
 10 11  1  0  0  0  0
 11 12  1  0  0  0  0
 11 15  1  0  0  0  0
 12 13  2  0  0  0  0
 13 14  1  0  0  0  0
 14 15  2  0  0  0  0
 16 17  2  0  0  0  0
 16 24  1  0  0  0  0
 17 18  1  0  0  0  0
 18 19  2  0  0  0  0
 19 20  1  0  0  0  0
 19 23  1  0  0  0  0
 20 21  2  0  0  0  0
 21 22  1  0  0  0  0
 22 23  2  0  0  0  0
 23 24  1  0  0  0  0
 25 26  2  0  0  0  0
 26 27  1  0  0  0  0
 27 28  1  0  0  0  0
 28 29  1  0  0  0  0
 28 33  1  0  0  0  0
 29 30  1  0  0  0  0
 30 31  1  0  0  0  0
 31 32  1  0  0  0  0
 32 33  1  0  0  0  0
  1 34  1  0  0  0  0
  1 35  1  0  0  0  0
  1 36  1  0  0  0  0
  4 37  1  0  0  0  0
 10 38  1  0  0  0  0
 12 39  1  0  0  0  0
 13 40  1  0  0  0  0
 17 41  1  0  0  0  0
 18 42  1  0  0  0  0
 20 43  1  0  0  0  0
 24 44  1  0  0  0  0
 24 45  1  0  0  0  0
 25 46  1  0  0  0  0
 26 47  1  0  0  0  0
 27 48  1  0  0  0  0
 29 49  1  0  0  0  0
 29 50  1  0  0  0  0
 30 51  1  0  0  0  0
 30 52  1  0  0  0  0
 32 53  1  0  0  0  0
 32 54  1  0  0  0  0
 33 55  1  0  0  0  0
 33 56  1  0  0  0  0
M  END
> <IC50[nM]>
0.44

$$$$
CHEMBL3265037
  -OEChem-05192314333D
 Structure written by MMmdl.
 56 61  0     0  0  0  0  0  0999 V2000
   -2.1744    0.6943   12.3856 C   0  0  0  0  0  0  0  0  0  0  0  0
   -2.7023   -0.3474   13.1823 O   0  0  0  0  0  0  0  0  0  0  0  0
   -1.9098   -1.0981   14.0384 C   0  0  0  0  0  0  0  0  0  0  0  0
   -0.5310   -0.8294   14.1803 C   0  0  0  0  0  0  0  0  0  0  0  0
    0.2355   -1.5834   15.0946 C   0  0  0  0  0  0  0  0  0  0  0  0
    1.6117   -1.3596   15.3361 N   0  0  0  0  0  0  0  0  0  0  0  0
    2.5319   -0.4372   14.7774 C   0  0  0  0  0  0  0  0  0  0  0  0
    2.1598    0.3941   13.7549 N   0  0  0  0  0  0  0  0  0  0  0  0
    3.0944    1.2396   13.2243 C   0  0  0  0  0  0  0  0  0  0  0  0
    4.4043    1.2833   13.6944 C   0  0  0  0  0  0  0  0  0  0  0  0
    4.7385    0.4947   14.7556 N   0  0  0  0  0  0  0  0  0  0  0  0
    5.8973    0.3913   15.4817 C   0  0  0  0  0  0  0  0  0  0  0  0
    5.5996   -0.5416   16.5121 C   0  0  0  0  0  0  0  0  0  0  0  0
    4.3864   -1.0493   16.3602 N   0  0  0  0  0  0  0  0  0  0  0  0
    3.8356   -0.3858   15.3271 C   0  0  0  0  0  0  0  0  0  0  0  0
    2.6225    2.1542   12.1213 C   0  0  0  0  0  0  0  0  0  0  0  0
    3.5396    2.6409   11.1644 C   0  0  0  0  0  0  0  0  0  0  0  0
    3.1535    3.4630   10.1051 C   0  0  0  0  0  0  0  0  0  0  0  0
    1.8086    3.8199   10.0132 C   0  0  0  0  0  0  0  0  0  0  0  0
    0.9978    4.6054    9.1182 C   0  0  0  0  0  0  0  0  0  0  0  0
   -0.2423    4.6093    9.5224 N   0  0  0  0  0  0  0  0  0  0  0  0
   -0.3299    3.8832   10.6368 N   0  0  0  0  0  0  0  0  0  0  0  0
    0.8842    3.3496   10.9964 C   0  0  0  0  0  0  0  0  0  0  0  0
    1.2618    2.5164   12.0586 C   0  0  0  0  0  0  0  0  0  0  0  0
   -0.3784   -2.5892   15.8339 C   0  0  0  0  0  0  0  0  0  0  0  0
   -1.7343   -2.8306   15.7168 C   0  0  0  0  0  0  0  0  0  0  0  0
   -2.5117   -2.0982   14.8261 C   0  0  0  0  0  0  0  0  0  0  0  0
   -3.8736   -2.3467   14.7445 N   0  0  0  0  0  0  0  0  0  0  0  0
   -4.6489   -2.3804   13.4950 C   0  0  0  0  0  0  0  0  0  0  0  0
   -5.4028   -3.7252   13.3613 C   0  0  0  0  0  0  0  0  0  0  0  0
   -6.2201   -3.9495   14.5061 O   0  0  0  0  0  0  0  0  0  0  0  0
   -5.4732   -4.0046   15.7182 C   0  0  0  0  0  0  0  0  0  0  0  0
   -4.7007   -2.7060   15.8980 C   0  0  0  0  0  0  0  0  0  0  0  0
   -2.9815    1.1466   11.7906 H   0  0  0  0  0  0  0  0  0  0  0  0
   -1.7242    1.4599   13.0346 H   0  0  0  0  0  0  0  0  0  0  0  0
   -1.4063    0.2871   11.7117 H   0  0  0  0  0  0  0  0  0  0  0  0
   -0.0657   -0.0517   13.5928 H   0  0  0  0  0  0  0  0  0  0  0  0
    5.1376    1.9259   13.2300 H   0  0  0  0  0  0  0  0  0  0  0  0
    6.8310    0.9057   15.3087 H   0  0  0  0  0  0  0  0  0  0  0  0
    6.2747   -0.8021   17.3139 H   0  0  0  0  0  0  0  0  0  0  0  0
    4.5801    2.3663   11.2559 H   0  0  0  0  0  0  0  0  0  0  0  0
    3.8734    3.8118    9.3795 H   0  0  0  0  0  0  0  0  0  0  0  0
    1.3637    5.1168    8.2401 H   0  0  0  0  0  0  0  0  0  0  0  0
    0.6728    1.5905   11.9826 H   0  0  0  0  0  0  0  0  0  0  0  0
    1.0106    3.0350   12.9956 H   0  0  0  0  0  0  0  0  0  0  0  0
    0.1306   -3.5276   15.5689 H   0  0  0  0  0  0  0  0  0  0  0  0
   -0.1920   -2.3574   16.8929 H   0  0  0  0  0  0  0  0  0  0  0  0
   -2.1950   -3.5962   16.3235 H   0  0  0  0  0  0  0  0  0  0  0  0
   -5.3771   -1.5559   13.4984 H   0  0  0  0  0  0  0  0  0  0  0  0
   -3.9652   -2.2622   12.6414 H   0  0  0  0  0  0  0  0  0  0  0  0
   -6.0365   -3.6982   12.4626 H   0  0  0  0  0  0  0  0  0  0  0  0
   -4.6728   -4.5430   13.2707 H   0  0  0  0  0  0  0  0  0  0  0  0
   -6.1601   -4.1429   16.5661 H   0  0  0  0  0  0  0  0  0  0  0  0
   -4.7681   -4.8478   15.6763 H   0  0  0  0  0  0  0  0  0  0  0  0
   -4.0457   -2.8106   16.7755 H   0  0  0  0  0  0  0  0  0  0  0  0
   -5.4223   -1.8946   16.0737 H   0  0  0  0  0  0  0  0  0  0  0  0
  1  2  1  0  0  0  0
  2  3  1  0  0  0  0
  3  4  2  0  0  0  0
  3 27  1  0  0  0  0
  4  5  1  0  0  0  0
  5  6  2  0  0  0  0
  5 25  1  0  0  0  0
  6  7  1  0  0  0  0
  7  8  2  0  0  0  0
  7 15  1  0  0  0  0
  8  9  1  0  0  0  0
  9 10  2  0  0  0  0
  9 16  1  0  0  0  0
 10 11  1  0  0  0  0
 11 12  1  0  0  0  0
 11 15  1  0  0  0  0
 12 13  2  0  0  0  0
 13 14  1  0  0  0  0
 14 15  2  0  0  0  0
 16 17  2  0  0  0  0
 16 24  1  0  0  0  0
 17 18  1  0  0  0  0
 18 19  2  0  0  0  0
 19 20  1  0  0  0  0
 19 23  1  0  0  0  0
 20 21  2  0  0  0  0
 21 22  1  0  0  0  0
 22 23  2  0  0  0  0
 23 24  1  0  0  0  0
 25 26  1  0  0  0  0
 26 27  2  0  0  0  0
 27 28  1  0  0  0  0
 28 29  1  0  0  0  0
 28 33  1  0  0  0  0
 29 30  1  0  0  0  0
 30 31  1  0  0  0  0
 31 32  1  0  0  0  0
 32 33  1  0  0  0  0
  1 34  1  0  0  0  0
  1 35  1  0  0  0  0
  1 36  1  0  0  0  0
  4 37  1  0  0  0  0
 10 38  1  0  0  0  0
 12 39  1  0  0  0  0
 13 40  1  0  0  0  0
 17 41  1  0  0  0  0
 18 42  1  0  0  0  0
 20 43  1  0  0  0  0
 24 44  1  0  0  0  0
 24 45  1  0  0  0  0
 25 46  1  0  0  0  0
 25 47  1  0  0  0  0
 26 48  1  0  0  0  0
 29 49  1  0  0  0  0
 29 50  1  0  0  0  0
 30 51  1  0  0  0  0
 30 52  1  0  0  0  0
 32 53  1  0  0  0  0
 32 54  1  0  0  0  0
 33 55  1  0  0  0  0
 33 56  1  0  0  0  0
M  END
> <IC50[nM]>
0.44

$$$$
CHEMBL3265037
  -OEChem-05192314333D
 Structure written by MMmdl.
 56 61  0     0  0  0  0  0  0999 V2000
   -2.1744    0.6943   12.3856 C   0  0  0  0  0  0  0  0  0  0  0  0
   -2.7023   -0.3474   13.1823 O   0  0  0  0  0  0  0  0  0  0  0  0
   -1.9098   -1.0981   14.0384 C   0  0  0  0  0  0  0  0  0  0  0  0
   -0.5310   -0.8294   14.1803 C   0  0  0  0  0  0  0  0  0  0  0  0
    0.2355   -1.5834   15.0946 C   0  0  0  0  0  0  0  0  0  0  0  0
    1.6117   -1.3596   15.3361 N   0  0  0  0  0  0  0  0  0  0  0  0
    2.5319   -0.4372   14.7774 C   0  0  0  0  0  0  0  0  0  0  0  0
    2.1598    0.3941   13.7549 N   0  0  0  0  0  0  0  0  0  0  0  0
    3.0944    1.2396   13.2243 C   0  0  0  0  0  0  0  0  0  0  0  0
    4.4043    1.2833   13.6944 C   0  0  0  0  0  0  0  0  0  0  0  0
    4.7385    0.4947   14.7556 N   0  0  0  0  0  0  0  0  0  0  0  0
    5.8973    0.3913   15.4817 C   0  0  0  0  0  0  0  0  0  0  0  0
    5.5996   -0.5416   16.5121 C   0  0  0  0  0  0  0  0  0  0  0  0
    4.3864   -1.0493   16.3602 N   0  0  0  0  0  0  0  0  0  0  0  0
    3.8356   -0.3858   15.3271 C   0  0  0  0  0  0  0  0  0  0  0  0
    2.6225    2.1542   12.1213 C   0  0  0  0  0  0  0  0  0  0  0  0
    3.5396    2.6409   11.1644 C   0  0  0  0  0  0  0  0  0  0  0  0
    3.1535    3.4630   10.1051 C   0  0  0  0  0  0  0  0  0  0  0  0
    1.8086    3.8199   10.0132 C   0  0  0  0  0  0  0  0  0  0  0  0
    0.9978    4.6054    9.1182 C   0  0  0  0  0  0  0  0  0  0  0  0
   -0.2423    4.6093    9.5224 N   0  0  0  0  0  0  0  0  0  0  0  0
   -0.3299    3.8832   10.6368 N   0  0  0  0  0  0  0  0  0  0  0  0
    0.8842    3.3496   10.9964 C   0  0  0  0  0  0  0  0  0  0  0  0
    1.2618    2.5164   12.0586 C   0  0  0  0  0  0  0  0  0  0  0  0
   -0.3784   -2.5892   15.8339 C   0  0  0  0  0  0  0  0  0  0  0  0
   -1.7343   -2.8306   15.7168 C   0  0  0  0  0  0  0  0  0  0  0  0
   -2.5117   -2.0982   14.8261 C   0  0  0  0  0  0  0  0  0  0  0  0
   -3.8736   -2.3467   14.7445 N   0  0  0  0  0  0  0  0  0  0  0  0
   -4.6489   -2.3804   13.4950 C   0  0  0  0  0  0  0  0  0  0  0  0
   -5.4028   -3.7252   13.3613 C   0  0  0  0  0  0  0  0  0  0  0  0
   -6.2201   -3.9495   14.5061 O   0  0  0  0  0  0  0  0  0  0  0  0
   -5.4732   -4.0046   15.7182 C   0  0  0  0  0  0  0  0  0  0  0  0
   -4.7007   -2.7060   15.8980 C   0  0  0  0  0  0  0  0  0  0  0  0
   -2.9815    1.1466   11.7906 H   0  0  0  0  0  0  0  0  0  0  0  0
   -1.7242    1.4599   13.0346 H   0  0  0  0  0  0  0  0  0  0  0  0
   -1.4063    0.2871   11.7117 H   0  0  0  0  0  0  0  0  0  0  0  0
   -0.0746   -0.9691   13.1892 H   0  0  0  0  0  0  0  0  0  0  0  0
   -0.4402    0.2250   14.4805 H   0  0  0  0  0  0  0  0  0  0  0  0
    5.1376    1.9259   13.2300 H   0  0  0  0  0  0  0  0  0  0  0  0
    6.8310    0.9057   15.3087 H   0  0  0  0  0  0  0  0  0  0  0  0
    6.2747   -0.8021   17.3139 H   0  0  0  0  0  0  0  0  0  0  0  0
    4.5801    2.3663   11.2559 H   0  0  0  0  0  0  0  0  0  0  0  0
    3.8734    3.8118    9.3795 H   0  0  0  0  0  0  0  0  0  0  0  0
    1.3637    5.1168    8.2401 H   0  0  0  0  0  0  0  0  0  0  0  0
    0.6728    1.5905   11.9826 H   0  0  0  0  0  0  0  0  0  0  0  0
    1.0106    3.0350   12.9956 H   0  0  0  0  0  0  0  0  0  0  0  0
    0.2129   -3.1900   16.5090 H   0  0  0  0  0  0  0  0  0  0  0  0
   -2.1950   -3.5962   16.3235 H   0  0  0  0  0  0  0  0  0  0  0  0
   -5.3771   -1.5559   13.4984 H   0  0  0  0  0  0  0  0  0  0  0  0
   -3.9652   -2.2622   12.6414 H   0  0  0  0  0  0  0  0  0  0  0  0
   -6.0365   -3.6982   12.4626 H   0  0  0  0  0  0  0  0  0  0  0  0
   -4.6728   -4.5430   13.2707 H   0  0  0  0  0  0  0  0  0  0  0  0
   -6.1601   -4.1429   16.5661 H   0  0  0  0  0  0  0  0  0  0  0  0
   -4.7681   -4.8478   15.6763 H   0  0  0  0  0  0  0  0  0  0  0  0
   -4.0457   -2.8106   16.7755 H   0  0  0  0  0  0  0  0  0  0  0  0
   -5.4223   -1.8946   16.0737 H   0  0  0  0  0  0  0  0  0  0  0  0
  1  2  1  0  0  0  0
  2  3  1  0  0  0  0
  3  4  1  0  0  0  0
  3 27  2  0  0  0  0
  4  5  1  0  0  0  0
  5  6  2  0  0  0  0
  5 25  1  0  0  0  0
  6  7  1  0  0  0  0
  7  8  2  0  0  0  0
  7 15  1  0  0  0  0
  8  9  1  0  0  0  0
  9 10  2  0  0  0  0
  9 16  1  0  0  0  0
 10 11  1  0  0  0  0
 11 12  1  0  0  0  0
 11 15  1  0  0  0  0
 12 13  2  0  0  0  0
 13 14  1  0  0  0  0
 14 15  2  0  0  0  0
 16 17  2  0  0  0  0
 16 24  1  0  0  0  0
 17 18  1  0  0  0  0
 18 19  2  0  0  0  0
 19 20  1  0  0  0  0
 19 23  1  0  0  0  0
 20 21  2  0  0  0  0
 21 22  1  0  0  0  0
 22 23  2  0  0  0  0
 23 24  1  0  0  0  0
 25 26  2  0  0  0  0
 26 27  1  0  0  0  0
 27 28  1  0  0  0  0
 28 29  1  0  0  0  0
 28 33  1  0  0  0  0
 29 30  1  0  0  0  0
 30 31  1  0  0  0  0
 31 32  1  0  0  0  0
 32 33  1  0  0  0  0
  1 34  1  0  0  0  0
  1 35  1  0  0  0  0
  1 36  1  0  0  0  0
  4 37  1  0  0  0  0
  4 38  1  0  0  0  0
 10 39  1  0  0  0  0
 12 40  1  0  0  0  0
 13 41  1  0  0  0  0
 17 42  1  0  0  0  0
 18 43  1  0  0  0  0
 20 44  1  0  0  0  0
 24 45  1  0  0  0  0
 24 46  1  0  0  0  0
 25 47  1  0  0  0  0
 26 48  1  0  0  0  0
 29 49  1  0  0  0  0
 29 50  1  0  0  0  0
 30 51  1  0  0  0  0
 30 52  1  0  0  0  0
 32 53  1  0  0  0  0
 32 54  1  0  0  0  0
 33 55  1  0  0  0  0
 33 56  1  0  0  0  0
M  END
> <IC50[nM]>
0.44

$$$$
CHEMBL3265037
  -OEChem-05192314333D
 Structure written by MMmdl.
 56 61  0     1  0  0  0  0  0999 V2000
   -2.1744    0.6943   12.3856 C   0  0  0  0  0  0  0  0  0  0  0  0
   -2.7023   -0.3474   13.1823 O   0  0  0  0  0  0  0  0  0  0  0  0
   -1.9098   -1.0981   14.0384 C   0  0  0  0  0  0  0  0  0  0  0  0
   -0.5310   -0.8294   14.1803 C   0  0  0  0  0  0  0  0  0  0  0  0
    0.2355   -1.5834   15.0946 C   0  0  0  0  0  0  0  0  0  0  0  0
    1.6117   -1.3596   15.3361 N   0  0  0  0  0  0  0  0  0  0  0  0
    2.5319   -0.4372   14.7774 C   0  0  0  0  0  0  0  0  0  0  0  0
    2.1598    0.3941   13.7549 N   0  0  0  0  0  0  0  0  0  0  0  0
    3.0944    1.2396   13.2243 C   0  0  0  0  0  0  0  0  0  0  0  0
    4.4043    1.2833   13.6944 C   0  0  0  0  0  0  0  0  0  0  0  0
    4.7385    0.4947   14.7556 N   0  0  0  0  0  0  0  0  0  0  0  0
    5.8973    0.3913   15.4817 C   0  0  0  0  0  0  0  0  0  0  0  0
    5.5996   -0.5416   16.5121 C   0  0  0  0  0  0  0  0  0  0  0  0
    4.3864   -1.0493   16.3602 N   0  0  0  0  0  0  0  0  0  0  0  0
    3.8356   -0.3858   15.3271 C   0  0  0  0  0  0  0  0  0  0  0  0
    2.6225    2.1542   12.1213 C   0  0  3  0  0  0  0  0  0  0  0  0
    3.5396    2.6409   11.1644 C   0  0  0  0  0  0  0  0  0  0  0  0
    3.1535    3.4630   10.1051 C   0  0  0  0  0  0  0  0  0  0  0  0
    1.8086    3.8199   10.0132 C   0  0  0  0  0  0  0  0  0  0  0  0
    0.9978    4.6054    9.1182 C   0  0  0  0  0  0  0  0  0  0  0  0
   -0.2423    4.6093    9.5224 N   0  0  0  0  0  0  0  0  0  0  0  0
   -0.3299    3.8832   10.6368 N   0  0  0  0  0  0  0  0  0  0  0  0
    0.8842    3.3496   10.9964 C   0  0  0  0  0  0  0  0  0  0  0  0
    1.2618    2.5164   12.0586 C   0  0  0  0  0  0  0  0  0  0  0  0
   -0.3784   -2.5892   15.8339 C   0  0  0  0  0  0  0  0  0  0  0  0
   -1.7343   -2.8306   15.7168 C   0  0  0  0  0  0  0  0  0  0  0  0
   -2.5117   -2.0982   14.8261 C   0  0  3  0  0  0  0  0  0  0  0  0
   -3.8736   -2.3467   14.7445 N   0  0  0  0  0  0  0  0  0  0  0  0
   -4.6489   -2.3804   13.4950 C   0  0  0  0  0  0  0  0  0  0  0  0
   -5.4028   -3.7252   13.3613 C   0  0  0  0  0  0  0  0  0  0  0  0
   -6.2201   -3.9495   14.5061 O   0  0  0  0  0  0  0  0  0  0  0  0
   -5.4732   -4.0046   15.7182 C   0  0  0  0  0  0  0  0  0  0  0  0
   -4.7007   -2.7060   15.8980 C   0  0  0  0  0  0  0  0  0  0  0  0
   -2.9815    1.1466   11.7906 H   0  0  0  0  0  0  0  0  0  0  0  0
   -1.7242    1.4599   13.0346 H   0  0  0  0  0  0  0  0  0  0  0  0
   -1.4063    0.2871   11.7117 H   0  0  0  0  0  0  0  0  0  0  0  0
   -0.0657   -0.0517   13.5928 H   0  0  0  0  0  0  0  0  0  0  0  0
    5.1376    1.9259   13.2300 H   0  0  0  0  0  0  0  0  0  0  0  0
    6.8310    0.9057   15.3087 H   0  0  0  0  0  0  0  0  0  0  0  0
    6.2747   -0.8021   17.3139 H   0  0  0  0  0  0  0  0  0  0  0  0
    2.4199    1.2811   11.4836 H   0  0  0  0  0  0  0  0  0  0  0  0
    4.5801    2.3663   11.2559 H   0  0  0  0  0  0  0  0  0  0  0  0
    3.8734    3.8118    9.3795 H   0  0  0  0  0  0  0  0  0  0  0  0
    1.3637    5.1168    8.2401 H   0  0  0  0  0  0  0  0  0  0  0  0
    0.5473    2.1701   12.7907 H   0  0  0  0  0  0  0  0  0  0  0  0
    0.2129   -3.1900   16.5090 H   0  0  0  0  0  0  0  0  0  0  0  0
   -2.1950   -3.5962   16.3235 H   0  0  0  0  0  0  0  0  0  0  0  0
   -2.3219   -2.8421   14.0383 H   0  0  0  0  0  0  0  0  0  0  0  0
   -5.3771   -1.5559   13.4984 H   0  0  0  0  0  0  0  0  0  0  0  0
   -3.9652   -2.2622   12.6414 H   0  0  0  0  0  0  0  0  0  0  0  0
   -6.0365   -3.6982   12.4626 H   0  0  0  0  0  0  0  0  0  0  0  0
   -4.6728   -4.5430   13.2707 H   0  0  0  0  0  0  0  0  0  0  0  0
   -6.1601   -4.1429   16.5661 H   0  0  0  0  0  0  0  0  0  0  0  0
   -4.7681   -4.8478   15.6763 H   0  0  0  0  0  0  0  0  0  0  0  0
   -4.0457   -2.8106   16.7755 H   0  0  0  0  0  0  0  0  0  0  0  0
   -5.4223   -1.8946   16.0737 H   0  0  0  0  0  0  0  0  0  0  0  0
  1  2  1  0  0  0  0
  2  3  1  0  0  0  0
  3  4  2  0  0  0  0
  3 27  1  0  0  0  0
  4  5  1  0  0  0  0
  5  6  2  0  0  0  0
  5 25  1  0  0  0  0
  6  7  1  0  0  0  0
  7  8  2  0  0  0  0
  7 15  1  0  0  0  0
  8  9  1  0  0  0  0
  9 10  2  0  0  0  0
  9 16  1  0  0  0  0
 10 11  1  0  0  0  0
 11 12  1  0  0  0  0
 11 15  1  0  0  0  0
 12 13  2  0  0  0  0
 13 14  1  0  0  0  0
 14 15  2  0  0  0  0
 16 17  1  0  0  0  0
 16 24  1  0  0  0  0
 17 18  2  0  0  0  0
 18 19  1  0  0  0  0
 19 20  2  0  0  0  0
 19 23  1  0  0  0  0
 20 21  1  0  0  0  0
 21 22  2  0  0  0  0
 22 23  1  0  0  0  0
 23 24  2  0  0  0  0
 25 26  2  0  0  0  0
 26 27  1  0  0  0  0
 27 28  1  0  0  0  0
 28 29  1  0  0  0  0
 28 33  1  0  0  0  0
 29 30  1  0  0  0  0
 30 31  1  0  0  0  0
 31 32  1  0  0  0  0
 32 33  1  0  0  0  0
  1 34  1  0  0  0  0
  1 35  1  0  0  0  0
  1 36  1  0  0  0  0
  4 37  1  0  0  0  0
 10 38  1  0  0  0  0
 12 39  1  0  0  0  0
 13 40  1  0  0  0  0
 16 41  1  0  0  0  0
 17 42  1  0  0  0  0
 18 43  1  0  0  0  0
 20 44  1  0  0  0  0
 24 45  1  0  0  0  0
 25 46  1  0  0  0  0
 26 47  1  0  0  0  0
 27 48  1  0  0  0  0
 29 49  1  0  0  0  0
 29 50  1  0  0  0  0
 30 51  1  0  0  0  0
 30 52  1  0  0  0  0
 32 53  1  0  0  0  0
 32 54  1  0  0  0  0
 33 55  1  0  0  0  0
 33 56  1  0  0  0  0
M  END
> <IC50[nM]>
0.44

$$$$
CHEMBL3265037
  -OEChem-05192314333D
 Structure written by MMmdl.
 56 61  0     1  0  0  0  0  0999 V2000
   -2.1744    0.6943   12.3856 C   0  0  0  0  0  0  0  0  0  0  0  0
   -2.7023   -0.3474   13.1823 O   0  0  0  0  0  0  0  0  0  0  0  0
   -1.9098   -1.0981   14.0384 C   0  0  0  0  0  0  0  0  0  0  0  0
   -0.5310   -0.8294   14.1803 C   0  0  0  0  0  0  0  0  0  0  0  0
    0.2355   -1.5834   15.0946 C   0  0  0  0  0  0  0  0  0  0  0  0
    1.6117   -1.3596   15.3361 N   0  0  0  0  0  0  0  0  0  0  0  0
    2.5319   -0.4372   14.7774 C   0  0  0  0  0  0  0  0  0  0  0  0
    2.1598    0.3941   13.7549 N   0  0  0  0  0  0  0  0  0  0  0  0
    3.0944    1.2396   13.2243 C   0  0  0  0  0  0  0  0  0  0  0  0
    4.4043    1.2833   13.6944 C   0  0  0  0  0  0  0  0  0  0  0  0
    4.7385    0.4947   14.7556 N   0  0  0  0  0  0  0  0  0  0  0  0
    5.8973    0.3913   15.4817 C   0  0  0  0  0  0  0  0  0  0  0  0
    5.5996   -0.5416   16.5121 C   0  0  0  0  0  0  0  0  0  0  0  0
    4.3864   -1.0493   16.3602 N   0  0  0  0  0  0  0  0  0  0  0  0
    3.8356   -0.3858   15.3271 C   0  0  0  0  0  0  0  0  0  0  0  0
    2.6225    2.1542   12.1213 C   0  0  0  0  0  0  0  0  0  0  0  0
    3.5396    2.6409   11.1644 C   0  0  0  0  0  0  0  0  0  0  0  0
    3.1535    3.4630   10.1051 C   0  0  0  0  0  0  0  0  0  0  0  0
    1.8086    3.8199   10.0132 C   0  0  0  0  0  0  0  0  0  0  0  0
    0.9978    4.6054    9.1182 C   0  0  0  0  0  0  0  0  0  0  0  0
   -0.2423    4.6093    9.5224 N   0  0  0  0  0  0  0  0  0  0  0  0
   -0.3299    3.8832   10.6368 N   0  0  0  0  0  0  0  0  0  0  0  0
    0.8842    3.3496   10.9964 C   0  0  3  0  0  0  0  0  0  0  0  0
    1.2618    2.5164   12.0586 C   0  0  0  0  0  0  0  0  0  0  0  0
   -0.3784   -2.5892   15.8339 C   0  0  0  0  0  0  0  0  0  0  0  0
   -1.7343   -2.8306   15.7168 C   0  0  0  0  0  0  0  0  0  0  0  0
   -2.5117   -2.0982   14.8261 C   0  0  3  0  0  0  0  0  0  0  0  0
   -3.8736   -2.3467   14.7445 N   0  0  0  0  0  0  0  0  0  0  0  0
   -4.6489   -2.3804   13.4950 C   0  0  0  0  0  0  0  0  0  0  0  0
   -5.4028   -3.7252   13.3613 C   0  0  0  0  0  0  0  0  0  0  0  0
   -6.2201   -3.9495   14.5061 O   0  0  0  0  0  0  0  0  0  0  0  0
   -5.4732   -4.0046   15.7182 C   0  0  0  0  0  0  0  0  0  0  0  0
   -4.7007   -2.7060   15.8980 C   0  0  0  0  0  0  0  0  0  0  0  0
   -2.9815    1.1466   11.7906 H   0  0  0  0  0  0  0  0  0  0  0  0
   -1.7242    1.4599   13.0346 H   0  0  0  0  0  0  0  0  0  0  0  0
   -1.4063    0.2871   11.7117 H   0  0  0  0  0  0  0  0  0  0  0  0
   -0.0657   -0.0517   13.5928 H   0  0  0  0  0  0  0  0  0  0  0  0
    5.1376    1.9259   13.2300 H   0  0  0  0  0  0  0  0  0  0  0  0
    6.8310    0.9057   15.3087 H   0  0  0  0  0  0  0  0  0  0  0  0
    6.2747   -0.8021   17.3139 H   0  0  0  0  0  0  0  0  0  0  0  0
    4.5801    2.3663   11.2559 H   0  0  0  0  0  0  0  0  0  0  0  0
    3.8734    3.8118    9.3795 H   0  0  0  0  0  0  0  0  0  0  0  0
    1.3637    5.1168    8.2401 H   0  0  0  0  0  0  0  0  0  0  0  0
    1.0910    4.2348   11.6158 H   0  0  0  0  0  0  0  0  0  0  0  0
    0.5473    2.1701   12.7907 H   0  0  0  0  0  0  0  0  0  0  0  0
    0.2129   -3.1900   16.5090 H   0  0  0  0  0  0  0  0  0  0  0  0
   -2.1950   -3.5962   16.3235 H   0  0  0  0  0  0  0  0  0  0  0  0
   -2.3219   -2.8421   14.0383 H   0  0  0  0  0  0  0  0  0  0  0  0
   -5.3771   -1.5559   13.4984 H   0  0  0  0  0  0  0  0  0  0  0  0
   -3.9652   -2.2622   12.6414 H   0  0  0  0  0  0  0  0  0  0  0  0
   -6.0365   -3.6982   12.4626 H   0  0  0  0  0  0  0  0  0  0  0  0
   -4.6728   -4.5430   13.2707 H   0  0  0  0  0  0  0  0  0  0  0  0
   -6.1601   -4.1429   16.5661 H   0  0  0  0  0  0  0  0  0  0  0  0
   -4.7681   -4.8478   15.6763 H   0  0  0  0  0  0  0  0  0  0  0  0
   -4.0457   -2.8106   16.7755 H   0  0  0  0  0  0  0  0  0  0  0  0
   -5.4223   -1.8946   16.0737 H   0  0  0  0  0  0  0  0  0  0  0  0
  1  2  1  0  0  0  0
  2  3  1  0  0  0  0
  3  4  2  0  0  0  0
  3 27  1  0  0  0  0
  4  5  1  0  0  0  0
  5  6  2  0  0  0  0
  5 25  1  0  0  0  0
  6  7  1  0  0  0  0
  7  8  2  0  0  0  0
  7 15  1  0  0  0  0
  8  9  1  0  0  0  0
  9 10  2  0  0  0  0
  9 16  1  0  0  0  0
 10 11  1  0  0  0  0
 11 12  1  0  0  0  0
 11 15  1  0  0  0  0
 12 13  2  0  0  0  0
 13 14  1  0  0  0  0
 14 15  2  0  0  0  0
 16 17  1  0  0  0  0
 16 24  2  0  0  0  0
 17 18  2  0  0  0  0
 18 19  1  0  0  0  0
 19 20  2  0  0  0  0
 19 23  1  0  0  0  0
 20 21  1  0  0  0  0
 21 22  2  0  0  0  0
 22 23  1  0  0  0  0
 23 24  1  0  0  0  0
 25 26  2  0  0  0  0
 26 27  1  0  0  0  0
 27 28  1  0  0  0  0
 28 29  1  0  0  0  0
 28 33  1  0  0  0  0
 29 30  1  0  0  0  0
 30 31  1  0  0  0  0
 31 32  1  0  0  0  0
 32 33  1  0  0  0  0
  1 34  1  0  0  0  0
  1 35  1  0  0  0  0
  1 36  1  0  0  0  0
  4 37  1  0  0  0  0
 10 38  1  0  0  0  0
 12 39  1  0  0  0  0
 13 40  1  0  0  0  0
 17 41  1  0  0  0  0
 18 42  1  0  0  0  0
 20 43  1  0  0  0  0
 23 44  1  0  0  0  0
 24 45  1  0  0  0  0
 25 46  1  0  0  0  0
 26 47  1  0  0  0  0
 27 48  1  0  0  0  0
 29 49  1  0  0  0  0
 29 50  1  0  0  0  0
 30 51  1  0  0  0  0
 30 52  1  0  0  0  0
 32 53  1  0  0  0  0
 32 54  1  0  0  0  0
 33 55  1  0  0  0  0
 33 56  1  0  0  0  0
M  END
> <IC50[nM]>
0.44

$$$$
CHEMBL3265037
  -OEChem-05192314333D
 Structure written by MMmdl.
 56 61  0     1  0  0  0  0  0999 V2000
   -2.1744    0.6943   12.3856 C   0  0  0  0  0  0  0  0  0  0  0  0
   -2.7023   -0.3474   13.1823 O   0  0  0  0  0  0  0  0  0  0  0  0
   -1.9098   -1.0981   14.0384 C   0  0  0  0  0  0  0  0  0  0  0  0
   -0.5310   -0.8294   14.1803 C   0  0  0  0  0  0  0  0  0  0  0  0
    0.2355   -1.5834   15.0946 C   0  0  0  0  0  0  0  0  0  0  0  0
    1.6117   -1.3596   15.3361 N   0  0  0  0  0  0  0  0  0  0  0  0
    2.5319   -0.4372   14.7774 C   0  0  0  0  0  0  0  0  0  0  0  0
    2.1598    0.3941   13.7549 N   0  0  0  0  0  0  0  0  0  0  0  0
    3.0944    1.2396   13.2243 C   0  0  0  0  0  0  0  0  0  0  0  0
    4.4043    1.2833   13.6944 C   0  0  0  0  0  0  0  0  0  0  0  0
    4.7385    0.4947   14.7556 N   0  0  0  0  0  0  0  0  0  0  0  0
    5.8973    0.3913   15.4817 C   0  0  0  0  0  0  0  0  0  0  0  0
    5.5996   -0.5416   16.5121 C   0  0  0  0  0  0  0  0  0  0  0  0
    4.3864   -1.0493   16.3602 N   0  0  0  0  0  0  0  0  0  0  0  0
    3.8356   -0.3858   15.3271 C   0  0  0  0  0  0  0  0  0  0  0  0
    2.6225    2.1542   12.1213 C   0  0  3  0  0  0  0  0  0  0  0  0
    3.5396    2.6409   11.1644 C   0  0  0  0  0  0  0  0  0  0  0  0
    3.1535    3.4630   10.1051 C   0  0  0  0  0  0  0  0  0  0  0  0
    1.8086    3.8199   10.0132 C   0  0  0  0  0  0  0  0  0  0  0  0
    0.9978    4.6054    9.1182 C   0  0  0  0  0  0  0  0  0  0  0  0
   -0.2423    4.6093    9.5224 N   0  0  0  0  0  0  0  0  0  0  0  0
   -0.3299    3.8832   10.6368 N   0  0  0  0  0  0  0  0  0  0  0  0
    0.8842    3.3496   10.9964 C   0  0  0  0  0  0  0  0  0  0  0  0
    1.2618    2.5164   12.0586 C   0  0  0  0  0  0  0  0  0  0  0  0
   -0.3784   -2.5892   15.8339 C   0  0  0  0  0  0  0  0  0  0  0  0
   -1.7343   -2.8306   15.7168 C   0  0  0  0  0  0  0  0  0  0  0  0
   -2.5117   -2.0982   14.8261 C   0  0  0  0  0  0  0  0  0  0  0  0
   -3.8736   -2.3467   14.7445 N   0  0  0  0  0  0  0  0  0  0  0  0
   -4.6489   -2.3804   13.4950 C   0  0  0  0  0  0  0  0  0  0  0  0
   -5.4028   -3.7252   13.3613 C   0  0  0  0  0  0  0  0  0  0  0  0
   -6.2201   -3.9495   14.5061 O   0  0  0  0  0  0  0  0  0  0  0  0
   -5.4732   -4.0046   15.7182 C   0  0  0  0  0  0  0  0  0  0  0  0
   -4.7007   -2.7060   15.8980 C   0  0  0  0  0  0  0  0  0  0  0  0
   -2.9815    1.1466   11.7906 H   0  0  0  0  0  0  0  0  0  0  0  0
   -1.7242    1.4599   13.0346 H   0  0  0  0  0  0  0  0  0  0  0  0
   -1.4063    0.2871   11.7117 H   0  0  0  0  0  0  0  0  0  0  0  0
   -0.0657   -0.0517   13.5928 H   0  0  0  0  0  0  0  0  0  0  0  0
    5.1376    1.9259   13.2300 H   0  0  0  0  0  0  0  0  0  0  0  0
    6.8310    0.9057   15.3087 H   0  0  0  0  0  0  0  0  0  0  0  0
    6.2747   -0.8021   17.3139 H   0  0  0  0  0  0  0  0  0  0  0  0
    2.4199    1.2811   11.4836 H   0  0  0  0  0  0  0  0  0  0  0  0
    4.5801    2.3663   11.2559 H   0  0  0  0  0  0  0  0  0  0  0  0
    3.8734    3.8118    9.3795 H   0  0  0  0  0  0  0  0  0  0  0  0
    1.3637    5.1168    8.2401 H   0  0  0  0  0  0  0  0  0  0  0  0
    0.5473    2.1701   12.7907 H   0  0  0  0  0  0  0  0  0  0  0  0
    0.1306   -3.5276   15.5689 H   0  0  0  0  0  0  0  0  0  0  0  0
   -0.1920   -2.3574   16.8929 H   0  0  0  0  0  0  0  0  0  0  0  0
   -2.1950   -3.5962   16.3235 H   0  0  0  0  0  0  0  0  0  0  0  0
   -5.3771   -1.5559   13.4984 H   0  0  0  0  0  0  0  0  0  0  0  0
   -3.9652   -2.2622   12.6414 H   0  0  0  0  0  0  0  0  0  0  0  0
   -6.0365   -3.6982   12.4626 H   0  0  0  0  0  0  0  0  0  0  0  0
   -4.6728   -4.5430   13.2707 H   0  0  0  0  0  0  0  0  0  0  0  0
   -6.1601   -4.1429   16.5661 H   0  0  0  0  0  0  0  0  0  0  0  0
   -4.7681   -4.8478   15.6763 H   0  0  0  0  0  0  0  0  0  0  0  0
   -4.0457   -2.8106   16.7755 H   0  0  0  0  0  0  0  0  0  0  0  0
   -5.4223   -1.8946   16.0737 H   0  0  0  0  0  0  0  0  0  0  0  0
  1  2  1  0  0  0  0
  2  3  1  0  0  0  0
  3  4  2  0  0  0  0
  3 27  1  0  0  0  0
  4  5  1  0  0  0  0
  5  6  2  0  0  0  0
  5 25  1  0  0  0  0
  6  7  1  0  0  0  0
  7  8  2  0  0  0  0
  7 15  1  0  0  0  0
  8  9  1  0  0  0  0
  9 10  2  0  0  0  0
  9 16  1  0  0  0  0
 10 11  1  0  0  0  0
 11 12  1  0  0  0  0
 11 15  1  0  0  0  0
 12 13  2  0  0  0  0
 13 14  1  0  0  0  0
 14 15  2  0  0  0  0
 16 17  1  0  0  0  0
 16 24  1  0  0  0  0
 17 18  2  0  0  0  0
 18 19  1  0  0  0  0
 19 20  2  0  0  0  0
 19 23  1  0  0  0  0
 20 21  1  0  0  0  0
 21 22  2  0  0  0  0
 22 23  1  0  0  0  0
 23 24  2  0  0  0  0
 25 26  1  0  0  0  0
 26 27  2  0  0  0  0
 27 28  1  0  0  0  0
 28 29  1  0  0  0  0
 28 33  1  0  0  0  0
 29 30  1  0  0  0  0
 30 31  1  0  0  0  0
 31 32  1  0  0  0  0
 32 33  1  0  0  0  0
  1 34  1  0  0  0  0
  1 35  1  0  0  0  0
  1 36  1  0  0  0  0
  4 37  1  0  0  0  0
 10 38  1  0  0  0  0
 12 39  1  0  0  0  0
 13 40  1  0  0  0  0
 16 41  1  0  0  0  0
 17 42  1  0  0  0  0
 18 43  1  0  0  0  0
 20 44  1  0  0  0  0
 24 45  1  0  0  0  0
 25 46  1  0  0  0  0
 25 47  1  0  0  0  0
 26 48  1  0  0  0  0
 29 49  1  0  0  0  0
 29 50  1  0  0  0  0
 30 51  1  0  0  0  0
 30 52  1  0  0  0  0
 32 53  1  0  0  0  0
 32 54  1  0  0  0  0
 33 55  1  0  0  0  0
 33 56  1  0  0  0  0
M  END
> <IC50[nM]>
0.44

$$$$
CHEMBL3265037
  -OEChem-05192314333D
 Structure written by MMmdl.
 56 61  0     1  0  0  0  0  0999 V2000
   -2.1744    0.6943   12.3856 C   0  0  0  0  0  0  0  0  0  0  0  0
   -2.7023   -0.3474   13.1823 O   0  0  0  0  0  0  0  0  0  0  0  0
   -1.9098   -1.0981   14.0384 C   0  0  0  0  0  0  0  0  0  0  0  0
   -0.5310   -0.8294   14.1803 C   0  0  0  0  0  0  0  0  0  0  0  0
    0.2355   -1.5834   15.0946 C   0  0  0  0  0  0  0  0  0  0  0  0
    1.6117   -1.3596   15.3361 N   0  0  0  0  0  0  0  0  0  0  0  0
    2.5319   -0.4372   14.7774 C   0  0  0  0  0  0  0  0  0  0  0  0
    2.1598    0.3941   13.7549 N   0  0  0  0  0  0  0  0  0  0  0  0
    3.0944    1.2396   13.2243 C   0  0  0  0  0  0  0  0  0  0  0  0
    4.4043    1.2833   13.6944 C   0  0  0  0  0  0  0  0  0  0  0  0
    4.7385    0.4947   14.7556 N   0  0  0  0  0  0  0  0  0  0  0  0
    5.8973    0.3913   15.4817 C   0  0  0  0  0  0  0  0  0  0  0  0
    5.5996   -0.5416   16.5121 C   0  0  0  0  0  0  0  0  0  0  0  0
    4.3864   -1.0493   16.3602 N   0  0  0  0  0  0  0  0  0  0  0  0
    3.8356   -0.3858   15.3271 C   0  0  0  0  0  0  0  0  0  0  0  0
    2.6225    2.1542   12.1213 C   0  0  0  0  0  0  0  0  0  0  0  0
    3.5396    2.6409   11.1644 C   0  0  0  0  0  0  0  0  0  0  0  0
    3.1535    3.4630   10.1051 C   0  0  0  0  0  0  0  0  0  0  0  0
    1.8086    3.8199   10.0132 C   0  0  0  0  0  0  0  0  0  0  0  0
    0.9978    4.6054    9.1182 C   0  0  0  0  0  0  0  0  0  0  0  0
   -0.2423    4.6093    9.5224 N   0  0  0  0  0  0  0  0  0  0  0  0
   -0.3299    3.8832   10.6368 N   0  0  0  0  0  0  0  0  0  0  0  0
    0.8842    3.3496   10.9964 C   0  0  3  0  0  0  0  0  0  0  0  0
    1.2618    2.5164   12.0586 C   0  0  0  0  0  0  0  0  0  0  0  0
   -0.3784   -2.5892   15.8339 C   0  0  0  0  0  0  0  0  0  0  0  0
   -1.7343   -2.8306   15.7168 C   0  0  0  0  0  0  0  0  0  0  0  0
   -2.5117   -2.0982   14.8261 C   0  0  0  0  0  0  0  0  0  0  0  0
   -3.8736   -2.3467   14.7445 N   0  0  0  0  0  0  0  0  0  0  0  0
   -4.6489   -2.3804   13.4950 C   0  0  0  0  0  0  0  0  0  0  0  0
   -5.4028   -3.7252   13.3613 C   0  0  0  0  0  0  0  0  0  0  0  0
   -6.2201   -3.9495   14.5061 O   0  0  0  0  0  0  0  0  0  0  0  0
   -5.4732   -4.0046   15.7182 C   0  0  0  0  0  0  0  0  0  0  0  0
   -4.7007   -2.7060   15.8980 C   0  0  0  0  0  0  0  0  0  0  0  0
   -2.9815    1.1466   11.7906 H   0  0  0  0  0  0  0  0  0  0  0  0
   -1.7242    1.4599   13.0346 H   0  0  0  0  0  0  0  0  0  0  0  0
   -1.4063    0.2871   11.7117 H   0  0  0  0  0  0  0  0  0  0  0  0
   -0.0657   -0.0517   13.5928 H   0  0  0  0  0  0  0  0  0  0  0  0
    5.1376    1.9259   13.2300 H   0  0  0  0  0  0  0  0  0  0  0  0
    6.8310    0.9057   15.3087 H   0  0  0  0  0  0  0  0  0  0  0  0
    6.2747   -0.8021   17.3139 H   0  0  0  0  0  0  0  0  0  0  0  0
    4.5801    2.3663   11.2559 H   0  0  0  0  0  0  0  0  0  0  0  0
    3.8734    3.8118    9.3795 H   0  0  0  0  0  0  0  0  0  0  0  0
    1.3637    5.1168    8.2401 H   0  0  0  0  0  0  0  0  0  0  0  0
    1.0910    4.2348   11.6158 H   0  0  0  0  0  0  0  0  0  0  0  0
    0.5473    2.1701   12.7907 H   0  0  0  0  0  0  0  0  0  0  0  0
    0.1306   -3.5276   15.5689 H   0  0  0  0  0  0  0  0  0  0  0  0
   -0.1920   -2.3574   16.8929 H   0  0  0  0  0  0  0  0  0  0  0  0
   -2.1950   -3.5962   16.3235 H   0  0  0  0  0  0  0  0  0  0  0  0
   -5.3771   -1.5559   13.4984 H   0  0  0  0  0  0  0  0  0  0  0  0
   -3.9652   -2.2622   12.6414 H   0  0  0  0  0  0  0  0  0  0  0  0
   -6.0365   -3.6982   12.4626 H   0  0  0  0  0  0  0  0  0  0  0  0
   -4.6728   -4.5430   13.2707 H   0  0  0  0  0  0  0  0  0  0  0  0
   -6.1601   -4.1429   16.5661 H   0  0  0  0  0  0  0  0  0  0  0  0
   -4.7681   -4.8478   15.6763 H   0  0  0  0  0  0  0  0  0  0  0  0
   -4.0457   -2.8106   16.7755 H   0  0  0  0  0  0  0  0  0  0  0  0
   -5.4223   -1.8946   16.0737 H   0  0  0  0  0  0  0  0  0  0  0  0
  1  2  1  0  0  0  0
  2  3  1  0  0  0  0
  3  4  2  0  0  0  0
  3 27  1  0  0  0  0
  4  5  1  0  0  0  0
  5  6  2  0  0  0  0
  5 25  1  0  0  0  0
  6  7  1  0  0  0  0
  7  8  2  0  0  0  0
  7 15  1  0  0  0  0
  8  9  1  0  0  0  0
  9 10  2  0  0  0  0
  9 16  1  0  0  0  0
 10 11  1  0  0  0  0
 11 12  1  0  0  0  0
 11 15  1  0  0  0  0
 12 13  2  0  0  0  0
 13 14  1  0  0  0  0
 14 15  2  0  0  0  0
 16 17  1  0  0  0  0
 16 24  2  0  0  0  0
 17 18  2  0  0  0  0
 18 19  1  0  0  0  0
 19 20  2  0  0  0  0
 19 23  1  0  0  0  0
 20 21  1  0  0  0  0
 21 22  2  0  0  0  0
 22 23  1  0  0  0  0
 23 24  1  0  0  0  0
 25 26  1  0  0  0  0
 26 27  2  0  0  0  0
 27 28  1  0  0  0  0
 28 29  1  0  0  0  0
 28 33  1  0  0  0  0
 29 30  1  0  0  0  0
 30 31  1  0  0  0  0
 31 32  1  0  0  0  0
 32 33  1  0  0  0  0
  1 34  1  0  0  0  0
  1 35  1  0  0  0  0
  1 36  1  0  0  0  0
  4 37  1  0  0  0  0
 10 38  1  0  0  0  0
 12 39  1  0  0  0  0
 13 40  1  0  0  0  0
 17 41  1  0  0  0  0
 18 42  1  0  0  0  0
 20 43  1  0  0  0  0
 23 44  1  0  0  0  0
 24 45  1  0  0  0  0
 25 46  1  0  0  0  0
 25 47  1  0  0  0  0
 26 48  1  0  0  0  0
 29 49  1  0  0  0  0
 29 50  1  0  0  0  0
 30 51  1  0  0  0  0
 30 52  1  0  0  0  0
 32 53  1  0  0  0  0
 32 54  1  0  0  0  0
 33 55  1  0  0  0  0
 33 56  1  0  0  0  0
M  END
> <IC50[nM]>
0.44

$$$$
CHEMBL3265037
  -OEChem-05192314333D
 Structure written by MMmdl.
 56 61  0     1  0  0  0  0  0999 V2000
   -2.1744    0.6943   12.3856 C   0  0  0  0  0  0  0  0  0  0  0  0
   -2.7023   -0.3474   13.1823 O   0  0  0  0  0  0  0  0  0  0  0  0
   -1.9098   -1.0981   14.0384 C   0  0  0  0  0  0  0  0  0  0  0  0
   -0.5310   -0.8294   14.1803 C   0  0  0  0  0  0  0  0  0  0  0  0
    0.2355   -1.5834   15.0946 C   0  0  0  0  0  0  0  0  0  0  0  0
    1.6117   -1.3596   15.3361 N   0  0  0  0  0  0  0  0  0  0  0  0
    2.5319   -0.4372   14.7774 C   0  0  0  0  0  0  0  0  0  0  0  0
    2.1598    0.3941   13.7549 N   0  0  0  0  0  0  0  0  0  0  0  0
    3.0944    1.2396   13.2243 C   0  0  0  0  0  0  0  0  0  0  0  0
    4.4043    1.2833   13.6944 C   0  0  0  0  0  0  0  0  0  0  0  0
    4.7385    0.4947   14.7556 N   0  0  0  0  0  0  0  0  0  0  0  0
    5.8973    0.3913   15.4817 C   0  0  0  0  0  0  0  0  0  0  0  0
    5.5996   -0.5416   16.5121 C   0  0  0  0  0  0  0  0  0  0  0  0
    4.3864   -1.0493   16.3602 N   0  0  0  0  0  0  0  0  0  0  0  0
    3.8356   -0.3858   15.3271 C   0  0  0  0  0  0  0  0  0  0  0  0
    2.6225    2.1542   12.1213 C   0  0  0  0  0  0  0  0  0  0  0  0
    3.5396    2.6409   11.1644 C   0  0  0  0  0  0  0  0  0  0  0  0
    3.1535    3.4630   10.1051 C   0  0  0  0  0  0  0  0  0  0  0  0
    1.8086    3.8199   10.0132 C   0  0  0  0  0  0  0  0  0  0  0  0
    0.9978    4.6054    9.1182 C   0  0  0  0  0  0  0  0  0  0  0  0
   -0.2423    4.6093    9.5224 N   0  0  0  0  0  0  0  0  0  0  0  0
   -0.3299    3.8832   10.6368 N   0  0  0  0  0  0  0  0  0  0  0  0
    0.8842    3.3496   10.9964 C   0  0  0  0  0  0  0  0  0  0  0  0
    1.2618    2.5164   12.0586 C   0  0  0  0  0  0  0  0  0  0  0  0
   -0.3784   -2.5892   15.8339 C   0  0  0  0  0  0  0  0  0  0  0  0
   -1.7343   -2.8306   15.7168 C   0  0  0  0  0  0  0  0  0  0  0  0
   -2.5117   -2.0982   14.8261 C   0  0  3  0  0  0  0  0  0  0  0  0
   -3.8736   -2.3467   14.7445 N   0  0  0  0  0  0  0  0  0  0  0  0
   -4.6489   -2.3804   13.4950 C   0  0  0  0  0  0  0  0  0  0  0  0
   -5.4028   -3.7252   13.3613 C   0  0  0  0  0  0  0  0  0  0  0  0
   -6.2201   -3.9495   14.5061 O   0  0  0  0  0  0  0  0  0  0  0  0
   -5.4732   -4.0046   15.7182 C   0  0  0  0  0  0  0  0  0  0  0  0
   -4.7007   -2.7060   15.8980 C   0  0  0  0  0  0  0  0  0  0  0  0
   -2.9815    1.1466   11.7906 H   0  0  0  0  0  0  0  0  0  0  0  0
   -1.7242    1.4599   13.0346 H   0  0  0  0  0  0  0  0  0  0  0  0
   -1.4063    0.2871   11.7117 H   0  0  0  0  0  0  0  0  0  0  0  0
   -0.0657   -0.0517   13.5928 H   0  0  0  0  0  0  0  0  0  0  0  0
    5.1376    1.9259   13.2300 H   0  0  0  0  0  0  0  0  0  0  0  0
    6.8310    0.9057   15.3087 H   0  0  0  0  0  0  0  0  0  0  0  0
    6.2747   -0.8021   17.3139 H   0  0  0  0  0  0  0  0  0  0  0  0
    4.5801    2.3663   11.2559 H   0  0  0  0  0  0  0  0  0  0  0  0
    3.7348    4.3935   10.1838 H   0  0  0  0  0  0  0  0  0  0  0  0
    3.4188    2.9427    9.1730 H   0  0  0  0  0  0  0  0  0  0  0  0
    1.3637    5.1168    8.2401 H   0  0  0  0  0  0  0  0  0  0  0  0
    0.5473    2.1701   12.7907 H   0  0  0  0  0  0  0  0  0  0  0  0
    0.2129   -3.1900   16.5090 H   0  0  0  0  0  0  0  0  0  0  0  0
   -2.1950   -3.5962   16.3235 H   0  0  0  0  0  0  0  0  0  0  0  0
   -2.3219   -2.8421   14.0383 H   0  0  0  0  0  0  0  0  0  0  0  0
   -5.3771   -1.5559   13.4984 H   0  0  0  0  0  0  0  0  0  0  0  0
   -3.9652   -2.2622   12.6414 H   0  0  0  0  0  0  0  0  0  0  0  0
   -6.0365   -3.6982   12.4626 H   0  0  0  0  0  0  0  0  0  0  0  0
   -4.6728   -4.5430   13.2707 H   0  0  0  0  0  0  0  0  0  0  0  0
   -6.1601   -4.1429   16.5661 H   0  0  0  0  0  0  0  0  0  0  0  0
   -4.7681   -4.8478   15.6763 H   0  0  0  0  0  0  0  0  0  0  0  0
   -4.0457   -2.8106   16.7755 H   0  0  0  0  0  0  0  0  0  0  0  0
   -5.4223   -1.8946   16.0737 H   0  0  0  0  0  0  0  0  0  0  0  0
  1  2  1  0  0  0  0
  2  3  1  0  0  0  0
  3  4  2  0  0  0  0
  3 27  1  0  0  0  0
  4  5  1  0  0  0  0
  5  6  2  0  0  0  0
  5 25  1  0  0  0  0
  6  7  1  0  0  0  0
  7  8  2  0  0  0  0
  7 15  1  0  0  0  0
  8  9  1  0  0  0  0
  9 10  2  0  0  0  0
  9 16  1  0  0  0  0
 10 11  1  0  0  0  0
 11 12  1  0  0  0  0
 11 15  1  0  0  0  0
 12 13  2  0  0  0  0
 13 14  1  0  0  0  0
 14 15  2  0  0  0  0
 16 17  2  0  0  0  0
 16 24  1  0  0  0  0
 17 18  1  0  0  0  0
 18 19  1  0  0  0  0
 19 20  2  0  0  0  0
 19 23  1  0  0  0  0
 20 21  1  0  0  0  0
 21 22  2  0  0  0  0
 22 23  1  0  0  0  0
 23 24  2  0  0  0  0
 25 26  2  0  0  0  0
 26 27  1  0  0  0  0
 27 28  1  0  0  0  0
 28 29  1  0  0  0  0
 28 33  1  0  0  0  0
 29 30  1  0  0  0  0
 30 31  1  0  0  0  0
 31 32  1  0  0  0  0
 32 33  1  0  0  0  0
  1 34  1  0  0  0  0
  1 35  1  0  0  0  0
  1 36  1  0  0  0  0
  4 37  1  0  0  0  0
 10 38  1  0  0  0  0
 12 39  1  0  0  0  0
 13 40  1  0  0  0  0
 17 41  1  0  0  0  0
 18 42  1  0  0  0  0
 18 43  1  0  0  0  0
 20 44  1  0  0  0  0
 24 45  1  0  0  0  0
 25 46  1  0  0  0  0
 26 47  1  0  0  0  0
 27 48  1  0  0  0  0
 29 49  1  0  0  0  0
 29 50  1  0  0  0  0
 30 51  1  0  0  0  0
 30 52  1  0  0  0  0
 32 53  1  0  0  0  0
 32 54  1  0  0  0  0
 33 55  1  0  0  0  0
 33 56  1  0  0  0  0
M  END
> <IC50[nM]>
0.44

$$$$
CHEMBL3265037
  -OEChem-05192314333D
 Structure written by MMmdl.
 56 61  0     0  0  0  0  0  0999 V2000
   -2.1744    0.6943   12.3856 C   0  0  0  0  0  0  0  0  0  0  0  0
   -2.7023   -0.3474   13.1823 O   0  0  0  0  0  0  0  0  0  0  0  0
   -1.9098   -1.0981   14.0384 C   0  0  0  0  0  0  0  0  0  0  0  0
   -0.5310   -0.8294   14.1803 C   0  0  0  0  0  0  0  0  0  0  0  0
    0.2355   -1.5834   15.0946 C   0  0  0  0  0  0  0  0  0  0  0  0
    1.6117   -1.3596   15.3361 N   0  0  0  0  0  0  0  0  0  0  0  0
    2.5319   -0.4372   14.7774 C   0  0  0  0  0  0  0  0  0  0  0  0
    2.1598    0.3941   13.7549 N   0  0  0  0  0  0  0  0  0  0  0  0
    3.0944    1.2396   13.2243 C   0  0  0  0  0  0  0  0  0  0  0  0
    4.4043    1.2833   13.6944 C   0  0  0  0  0  0  0  0  0  0  0  0
    4.7385    0.4947   14.7556 N   0  0  0  0  0  0  0  0  0  0  0  0
    5.8973    0.3913   15.4817 C   0  0  0  0  0  0  0  0  0  0  0  0
    5.5996   -0.5416   16.5121 C   0  0  0  0  0  0  0  0  0  0  0  0
    4.3864   -1.0493   16.3602 N   0  0  0  0  0  0  0  0  0  0  0  0
    3.8356   -0.3858   15.3271 C   0  0  0  0  0  0  0  0  0  0  0  0
    2.6225    2.1542   12.1213 C   0  0  0  0  0  0  0  0  0  0  0  0
    3.5396    2.6409   11.1644 C   0  0  0  0  0  0  0  0  0  0  0  0
    3.1535    3.4630   10.1051 C   0  0  0  0  0  0  0  0  0  0  0  0
    1.8086    3.8199   10.0132 C   0  0  0  0  0  0  0  0  0  0  0  0
    0.9978    4.6054    9.1182 C   0  0  0  0  0  0  0  0  0  0  0  0
   -0.2423    4.6093    9.5224 N   0  0  0  0  0  0  0  0  0  0  0  0
   -0.3299    3.8832   10.6368 N   0  0  0  0  0  0  0  0  0  0  0  0
    0.8842    3.3496   10.9964 C   0  0  0  0  0  0  0  0  0  0  0  0
    1.2618    2.5164   12.0586 C   0  0  0  0  0  0  0  0  0  0  0  0
   -0.3784   -2.5892   15.8339 C   0  0  0  0  0  0  0  0  0  0  0  0
   -1.7343   -2.8306   15.7168 C   0  0  0  0  0  0  0  0  0  0  0  0
   -2.5117   -2.0982   14.8261 C   0  0  0  0  0  0  0  0  0  0  0  0
   -3.8736   -2.3467   14.7445 N   0  0  0  0  0  0  0  0  0  0  0  0
   -4.6489   -2.3804   13.4950 C   0  0  0  0  0  0  0  0  0  0  0  0
   -5.4028   -3.7252   13.3613 C   0  0  0  0  0  0  0  0  0  0  0  0
   -6.2201   -3.9495   14.5061 O   0  0  0  0  0  0  0  0  0  0  0  0
   -5.4732   -4.0046   15.7182 C   0  0  0  0  0  0  0  0  0  0  0  0
   -4.7007   -2.7060   15.8980 C   0  0  0  0  0  0  0  0  0  0  0  0
   -2.9815    1.1466   11.7906 H   0  0  0  0  0  0  0  0  0  0  0  0
   -1.7242    1.4599   13.0346 H   0  0  0  0  0  0  0  0  0  0  0  0
   -1.4063    0.2871   11.7117 H   0  0  0  0  0  0  0  0  0  0  0  0
   -0.0657   -0.0517   13.5928 H   0  0  0  0  0  0  0  0  0  0  0  0
    5.1376    1.9259   13.2300 H   0  0  0  0  0  0  0  0  0  0  0  0
    6.8310    0.9057   15.3087 H   0  0  0  0  0  0  0  0  0  0  0  0
    6.2747   -0.8021   17.3139 H   0  0  0  0  0  0  0  0  0  0  0  0
    4.5801    2.3663   11.2559 H   0  0  0  0  0  0  0  0  0  0  0  0
    3.7348    4.3935   10.1838 H   0  0  0  0  0  0  0  0  0  0  0  0
    3.4188    2.9427    9.1730 H   0  0  0  0  0  0  0  0  0  0  0  0
    1.3637    5.1168    8.2401 H   0  0  0  0  0  0  0  0  0  0  0  0
    0.5473    2.1701   12.7907 H   0  0  0  0  0  0  0  0  0  0  0  0
    0.1306   -3.5276   15.5689 H   0  0  0  0  0  0  0  0  0  0  0  0
   -0.1920   -2.3574   16.8929 H   0  0  0  0  0  0  0  0  0  0  0  0
   -2.1950   -3.5962   16.3235 H   0  0  0  0  0  0  0  0  0  0  0  0
   -5.3771   -1.5559   13.4984 H   0  0  0  0  0  0  0  0  0  0  0  0
   -3.9652   -2.2622   12.6414 H   0  0  0  0  0  0  0  0  0  0  0  0
   -6.0365   -3.6982   12.4626 H   0  0  0  0  0  0  0  0  0  0  0  0
   -4.6728   -4.5430   13.2707 H   0  0  0  0  0  0  0  0  0  0  0  0
   -6.1601   -4.1429   16.5661 H   0  0  0  0  0  0  0  0  0  0  0  0
   -4.7681   -4.8478   15.6763 H   0  0  0  0  0  0  0  0  0  0  0  0
   -4.0457   -2.8106   16.7755 H   0  0  0  0  0  0  0  0  0  0  0  0
   -5.4223   -1.8946   16.0737 H   0  0  0  0  0  0  0  0  0  0  0  0
  1  2  1  0  0  0  0
  2  3  1  0  0  0  0
  3  4  2  0  0  0  0
  3 27  1  0  0  0  0
  4  5  1  0  0  0  0
  5  6  2  0  0  0  0
  5 25  1  0  0  0  0
  6  7  1  0  0  0  0
  7  8  2  0  0  0  0
  7 15  1  0  0  0  0
  8  9  1  0  0  0  0
  9 10  2  0  0  0  0
  9 16  1  0  0  0  0
 10 11  1  0  0  0  0
 11 12  1  0  0  0  0
 11 15  1  0  0  0  0
 12 13  2  0  0  0  0
 13 14  1  0  0  0  0
 14 15  2  0  0  0  0
 16 17  2  0  0  0  0
 16 24  1  0  0  0  0
 17 18  1  0  0  0  0
 18 19  1  0  0  0  0
 19 20  2  0  0  0  0
 19 23  1  0  0  0  0
 20 21  1  0  0  0  0
 21 22  2  0  0  0  0
 22 23  1  0  0  0  0
 23 24  2  0  0  0  0
 25 26  1  0  0  0  0
 26 27  2  0  0  0  0
 27 28  1  0  0  0  0
 28 29  1  0  0  0  0
 28 33  1  0  0  0  0
 29 30  1  0  0  0  0
 30 31  1  0  0  0  0
 31 32  1  0  0  0  0
 32 33  1  0  0  0  0
  1 34  1  0  0  0  0
  1 35  1  0  0  0  0
  1 36  1  0  0  0  0
  4 37  1  0  0  0  0
 10 38  1  0  0  0  0
 12 39  1  0  0  0  0
 13 40  1  0  0  0  0
 17 41  1  0  0  0  0
 18 42  1  0  0  0  0
 18 43  1  0  0  0  0
 20 44  1  0  0  0  0
 24 45  1  0  0  0  0
 25 46  1  0  0  0  0
 25 47  1  0  0  0  0
 26 48  1  0  0  0  0
 29 49  1  0  0  0  0
 29 50  1  0  0  0  0
 30 51  1  0  0  0  0
 30 52  1  0  0  0  0
 32 53  1  0  0  0  0
 32 54  1  0  0  0  0
 33 55  1  0  0  0  0
 33 56  1  0  0  0  0
M  END
> <IC50[nM]>
0.44

$$$$
CHEMBL3265037
  -OEChem-05192314333D
 Structure written by MMmdl.
 56 61  0     1  0  0  0  0  0999 V2000
   -2.1744    0.6943   12.3856 C   0  0  0  0  0  0  0  0  0  0  0  0
   -2.7023   -0.3474   13.1823 O   0  0  0  0  0  0  0  0  0  0  0  0
   -1.9098   -1.0981   14.0384 C   0  0  0  0  0  0  0  0  0  0  0  0
   -0.5310   -0.8294   14.1803 C   0  0  0  0  0  0  0  0  0  0  0  0
    0.2355   -1.5834   15.0946 C   0  0  0  0  0  0  0  0  0  0  0  0
    1.6117   -1.3596   15.3361 N   0  0  0  0  0  0  0  0  0  0  0  0
    2.5319   -0.4372   14.7774 C   0  0  0  0  0  0  0  0  0  0  0  0
    2.1598    0.3941   13.7549 N   0  0  0  0  0  0  0  0  0  0  0  0
    3.0944    1.2396   13.2243 C   0  0  0  0  0  0  0  0  0  0  0  0
    4.4043    1.2833   13.6944 C   0  0  0  0  0  0  0  0  0  0  0  0
    4.7385    0.4947   14.7556 N   0  0  0  0  0  0  0  0  0  0  0  0
    5.8973    0.3913   15.4817 C   0  0  0  0  0  0  0  0  0  0  0  0
    5.5996   -0.5416   16.5121 C   0  0  0  0  0  0  0  0  0  0  0  0
    4.3864   -1.0493   16.3602 N   0  0  0  0  0  0  0  0  0  0  0  0
    3.8356   -0.3858   15.3271 C   0  0  0  0  0  0  0  0  0  0  0  0
    2.6225    2.1542   12.1213 C   0  0  3  0  0  0  0  0  0  0  0  0
    3.5396    2.6409   11.1644 C   0  0  0  0  0  0  0  0  0  0  0  0
    3.1535    3.4630   10.1051 C   0  0  0  0  0  0  0  0  0  0  0  0
    1.8086    3.8199   10.0132 C   0  0  0  0  0  0  0  0  0  0  0  0
    0.9978    4.6054    9.1182 C   0  0  0  0  0  0  0  0  0  0  0  0
   -0.2423    4.6093    9.5224 N   0  0  0  0  0  0  0  0  0  0  0  0
   -0.3299    3.8832   10.6368 N   0  0  0  0  0  0  0  0  0  0  0  0
    0.8842    3.3496   10.9964 C   0  0  0  0  0  0  0  0  0  0  0  0
    1.2618    2.5164   12.0586 C   0  0  0  0  0  0  0  0  0  0  0  0
   -0.3784   -2.5892   15.8339 C   0  0  0  0  0  0  0  0  0  0  0  0
   -1.7343   -2.8306   15.7168 C   0  0  0  0  0  0  0  0  0  0  0  0
   -2.5117   -2.0982   14.8261 C   0  0  0  0  0  0  0  0  0  0  0  0
   -3.8736   -2.3467   14.7445 N   0  0  0  0  0  0  0  0  0  0  0  0
   -4.6489   -2.3804   13.4950 C   0  0  0  0  0  0  0  0  0  0  0  0
   -5.4028   -3.7252   13.3613 C   0  0  0  0  0  0  0  0  0  0  0  0
   -6.2201   -3.9495   14.5061 O   0  0  0  0  0  0  0  0  0  0  0  0
   -5.4732   -4.0046   15.7182 C   0  0  0  0  0  0  0  0  0  0  0  0
   -4.7007   -2.7060   15.8980 C   0  0  0  0  0  0  0  0  0  0  0  0
   -2.9815    1.1466   11.7906 H   0  0  0  0  0  0  0  0  0  0  0  0
   -1.7242    1.4599   13.0346 H   0  0  0  0  0  0  0  0  0  0  0  0
   -1.4063    0.2871   11.7117 H   0  0  0  0  0  0  0  0  0  0  0  0
   -0.0746   -0.9691   13.1892 H   0  0  0  0  0  0  0  0  0  0  0  0
   -0.4402    0.2250   14.4805 H   0  0  0  0  0  0  0  0  0  0  0  0
    5.1376    1.9259   13.2300 H   0  0  0  0  0  0  0  0  0  0  0  0
    6.8310    0.9057   15.3087 H   0  0  0  0  0  0  0  0  0  0  0  0
    6.2747   -0.8021   17.3139 H   0  0  0  0  0  0  0  0  0  0  0  0
    2.4199    1.2811   11.4836 H   0  0  0  0  0  0  0  0  0  0  0  0
    4.5801    2.3663   11.2559 H   0  0  0  0  0  0  0  0  0  0  0  0
    3.8734    3.8118    9.3795 H   0  0  0  0  0  0  0  0  0  0  0  0
    1.3637    5.1168    8.2401 H   0  0  0  0  0  0  0  0  0  0  0  0
    0.5473    2.1701   12.7907 H   0  0  0  0  0  0  0  0  0  0  0  0
    0.2129   -3.1900   16.5090 H   0  0  0  0  0  0  0  0  0  0  0  0
   -2.1950   -3.5962   16.3235 H   0  0  0  0  0  0  0  0  0  0  0  0
   -5.3771   -1.5559   13.4984 H   0  0  0  0  0  0  0  0  0  0  0  0
   -3.9652   -2.2622   12.6414 H   0  0  0  0  0  0  0  0  0  0  0  0
   -6.0365   -3.6982   12.4626 H   0  0  0  0  0  0  0  0  0  0  0  0
   -4.6728   -4.5430   13.2707 H   0  0  0  0  0  0  0  0  0  0  0  0
   -6.1601   -4.1429   16.5661 H   0  0  0  0  0  0  0  0  0  0  0  0
   -4.7681   -4.8478   15.6763 H   0  0  0  0  0  0  0  0  0  0  0  0
   -4.0457   -2.8106   16.7755 H   0  0  0  0  0  0  0  0  0  0  0  0
   -5.4223   -1.8946   16.0737 H   0  0  0  0  0  0  0  0  0  0  0  0
  1  2  1  0  0  0  0
  2  3  1  0  0  0  0
  3  4  1  0  0  0  0
  3 27  2  0  0  0  0
  4  5  1  0  0  0  0
  5  6  2  0  0  0  0
  5 25  1  0  0  0  0
  6  7  1  0  0  0  0
  7  8  2  0  0  0  0
  7 15  1  0  0  0  0
  8  9  1  0  0  0  0
  9 10  2  0  0  0  0
  9 16  1  0  0  0  0
 10 11  1  0  0  0  0
 11 12  1  0  0  0  0
 11 15  1  0  0  0  0
 12 13  2  0  0  0  0
 13 14  1  0  0  0  0
 14 15  2  0  0  0  0
 16 17  1  0  0  0  0
 16 24  1  0  0  0  0
 17 18  2  0  0  0  0
 18 19  1  0  0  0  0
 19 20  2  0  0  0  0
 19 23  1  0  0  0  0
 20 21  1  0  0  0  0
 21 22  2  0  0  0  0
 22 23  1  0  0  0  0
 23 24  2  0  0  0  0
 25 26  2  0  0  0  0
 26 27  1  0  0  0  0
 27 28  1  0  0  0  0
 28 29  1  0  0  0  0
 28 33  1  0  0  0  0
 29 30  1  0  0  0  0
 30 31  1  0  0  0  0
 31 32  1  0  0  0  0
 32 33  1  0  0  0  0
  1 34  1  0  0  0  0
  1 35  1  0  0  0  0
  1 36  1  0  0  0  0
  4 37  1  0  0  0  0
  4 38  1  0  0  0  0
 10 39  1  0  0  0  0
 12 40  1  0  0  0  0
 13 41  1  0  0  0  0
 16 42  1  0  0  0  0
 17 43  1  0  0  0  0
 18 44  1  0  0  0  0
 20 45  1  0  0  0  0
 24 46  1  0  0  0  0
 25 47  1  0  0  0  0
 26 48  1  0  0  0  0
 29 49  1  0  0  0  0
 29 50  1  0  0  0  0
 30 51  1  0  0  0  0
 30 52  1  0  0  0  0
 32 53  1  0  0  0  0
 32 54  1  0  0  0  0
 33 55  1  0  0  0  0
 33 56  1  0  0  0  0
M  END
> <IC50[nM]>
0.44

$$$$
CHEMBL3265037
  -OEChem-05192314333D
 Structure written by MMmdl.
 56 61  0     1  0  0  0  0  0999 V2000
   -2.1744    0.6943   12.3856 C   0  0  0  0  0  0  0  0  0  0  0  0
   -2.7023   -0.3474   13.1823 O   0  0  0  0  0  0  0  0  0  0  0  0
   -1.9098   -1.0981   14.0384 C   0  0  0  0  0  0  0  0  0  0  0  0
   -0.5310   -0.8294   14.1803 C   0  0  0  0  0  0  0  0  0  0  0  0
    0.2355   -1.5834   15.0946 C   0  0  0  0  0  0  0  0  0  0  0  0
    1.6117   -1.3596   15.3361 N   0  0  0  0  0  0  0  0  0  0  0  0
    2.5319   -0.4372   14.7774 C   0  0  0  0  0  0  0  0  0  0  0  0
    2.1598    0.3941   13.7549 N   0  0  0  0  0  0  0  0  0  0  0  0
    3.0944    1.2396   13.2243 C   0  0  0  0  0  0  0  0  0  0  0  0
    4.4043    1.2833   13.6944 C   0  0  0  0  0  0  0  0  0  0  0  0
    4.7385    0.4947   14.7556 N   0  0  0  0  0  0  0  0  0  0  0  0
    5.8973    0.3913   15.4817 C   0  0  0  0  0  0  0  0  0  0  0  0
    5.5996   -0.5416   16.5121 C   0  0  0  0  0  0  0  0  0  0  0  0
    4.3864   -1.0493   16.3602 N   0  0  0  0  0  0  0  0  0  0  0  0
    3.8356   -0.3858   15.3271 C   0  0  0  0  0  0  0  0  0  0  0  0
    2.6225    2.1542   12.1213 C   0  0  0  0  0  0  0  0  0  0  0  0
    3.5396    2.6409   11.1644 C   0  0  0  0  0  0  0  0  0  0  0  0
    3.1535    3.4630   10.1051 C   0  0  0  0  0  0  0  0  0  0  0  0
    1.8086    3.8199   10.0132 C   0  0  0  0  0  0  0  0  0  0  0  0
    0.9978    4.6054    9.1182 C   0  0  0  0  0  0  0  0  0  0  0  0
   -0.2423    4.6093    9.5224 N   0  0  0  0  0  0  0  0  0  0  0  0
   -0.3299    3.8832   10.6368 N   0  0  0  0  0  0  0  0  0  0  0  0
    0.8842    3.3496   10.9964 C   0  0  3  0  0  0  0  0  0  0  0  0
    1.2618    2.5164   12.0586 C   0  0  0  0  0  0  0  0  0  0  0  0
   -0.3784   -2.5892   15.8339 C   0  0  0  0  0  0  0  0  0  0  0  0
   -1.7343   -2.8306   15.7168 C   0  0  0  0  0  0  0  0  0  0  0  0
   -2.5117   -2.0982   14.8261 C   0  0  0  0  0  0  0  0  0  0  0  0
   -3.8736   -2.3467   14.7445 N   0  0  0  0  0  0  0  0  0  0  0  0
   -4.6489   -2.3804   13.4950 C   0  0  0  0  0  0  0  0  0  0  0  0
   -5.4028   -3.7252   13.3613 C   0  0  0  0  0  0  0  0  0  0  0  0
   -6.2201   -3.9495   14.5061 O   0  0  0  0  0  0  0  0  0  0  0  0
   -5.4732   -4.0046   15.7182 C   0  0  0  0  0  0  0  0  0  0  0  0
   -4.7007   -2.7060   15.8980 C   0  0  0  0  0  0  0  0  0  0  0  0
   -2.9815    1.1466   11.7906 H   0  0  0  0  0  0  0  0  0  0  0  0
   -1.7242    1.4599   13.0346 H   0  0  0  0  0  0  0  0  0  0  0  0
   -1.4063    0.2871   11.7117 H   0  0  0  0  0  0  0  0  0  0  0  0
   -0.0746   -0.9691   13.1892 H   0  0  0  0  0  0  0  0  0  0  0  0
   -0.4402    0.2250   14.4805 H   0  0  0  0  0  0  0  0  0  0  0  0
    5.1376    1.9259   13.2300 H   0  0  0  0  0  0  0  0  0  0  0  0
    6.8310    0.9057   15.3087 H   0  0  0  0  0  0  0  0  0  0  0  0
    6.2747   -0.8021   17.3139 H   0  0  0  0  0  0  0  0  0  0  0  0
    4.5801    2.3663   11.2559 H   0  0  0  0  0  0  0  0  0  0  0  0
    3.8734    3.8118    9.3795 H   0  0  0  0  0  0  0  0  0  0  0  0
    1.3637    5.1168    8.2401 H   0  0  0  0  0  0  0  0  0  0  0  0
    1.0910    4.2348   11.6158 H   0  0  0  0  0  0  0  0  0  0  0  0
    0.5473    2.1701   12.7907 H   0  0  0  0  0  0  0  0  0  0  0  0
    0.2129   -3.1900   16.5090 H   0  0  0  0  0  0  0  0  0  0  0  0
   -2.1950   -3.5962   16.3235 H   0  0  0  0  0  0  0  0  0  0  0  0
   -5.3771   -1.5559   13.4984 H   0  0  0  0  0  0  0  0  0  0  0  0
   -3.9652   -2.2622   12.6414 H   0  0  0  0  0  0  0  0  0  0  0  0
   -6.0365   -3.6982   12.4626 H   0  0  0  0  0  0  0  0  0  0  0  0
   -4.6728   -4.5430   13.2707 H   0  0  0  0  0  0  0  0  0  0  0  0
   -6.1601   -4.1429   16.5661 H   0  0  0  0  0  0  0  0  0  0  0  0
   -4.7681   -4.8478   15.6763 H   0  0  0  0  0  0  0  0  0  0  0  0
   -4.0457   -2.8106   16.7755 H   0  0  0  0  0  0  0  0  0  0  0  0
   -5.4223   -1.8946   16.0737 H   0  0  0  0  0  0  0  0  0  0  0  0
  1  2  1  0  0  0  0
  2  3  1  0  0  0  0
  3  4  1  0  0  0  0
  3 27  2  0  0  0  0
  4  5  1  0  0  0  0
  5  6  2  0  0  0  0
  5 25  1  0  0  0  0
  6  7  1  0  0  0  0
  7  8  2  0  0  0  0
  7 15  1  0  0  0  0
  8  9  1  0  0  0  0
  9 10  2  0  0  0  0
  9 16  1  0  0  0  0
 10 11  1  0  0  0  0
 11 12  1  0  0  0  0
 11 15  1  0  0  0  0
 12 13  2  0  0  0  0
 13 14  1  0  0  0  0
 14 15  2  0  0  0  0
 16 17  1  0  0  0  0
 16 24  2  0  0  0  0
 17 18  2  0  0  0  0
 18 19  1  0  0  0  0
 19 20  2  0  0  0  0
 19 23  1  0  0  0  0
 20 21  1  0  0  0  0
 21 22  2  0  0  0  0
 22 23  1  0  0  0  0
 23 24  1  0  0  0  0
 25 26  2  0  0  0  0
 26 27  1  0  0  0  0
 27 28  1  0  0  0  0
 28 29  1  0  0  0  0
 28 33  1  0  0  0  0
 29 30  1  0  0  0  0
 30 31  1  0  0  0  0
 31 32  1  0  0  0  0
 32 33  1  0  0  0  0
  1 34  1  0  0  0  0
  1 35  1  0  0  0  0
  1 36  1  0  0  0  0
  4 37  1  0  0  0  0
  4 38  1  0  0  0  0
 10 39  1  0  0  0  0
 12 40  1  0  0  0  0
 13 41  1  0  0  0  0
 17 42  1  0  0  0  0
 18 43  1  0  0  0  0
 20 44  1  0  0  0  0
 23 45  1  0  0  0  0
 24 46  1  0  0  0  0
 25 47  1  0  0  0  0
 26 48  1  0  0  0  0
 29 49  1  0  0  0  0
 29 50  1  0  0  0  0
 30 51  1  0  0  0  0
 30 52  1  0  0  0  0
 32 53  1  0  0  0  0
 32 54  1  0  0  0  0
 33 55  1  0  0  0  0
 33 56  1  0  0  0  0
M  END
> <IC50[nM]>
0.44

$$$$
CHEMBL3265037
  -OEChem-05192314333D
 Structure written by MMmdl.
 56 61  0     0  0  0  0  0  0999 V2000
   -2.1744    0.6943   12.3856 C   0  0  0  0  0  0  0  0  0  0  0  0
   -2.7023   -0.3474   13.1823 O   0  0  0  0  0  0  0  0  0  0  0  0
   -1.9098   -1.0981   14.0384 C   0  0  0  0  0  0  0  0  0  0  0  0
   -0.5310   -0.8294   14.1803 C   0  0  0  0  0  0  0  0  0  0  0  0
    0.2355   -1.5834   15.0946 C   0  0  0  0  0  0  0  0  0  0  0  0
    1.6117   -1.3596   15.3361 N   0  0  0  0  0  0  0  0  0  0  0  0
    2.5319   -0.4372   14.7774 C   0  0  0  0  0  0  0  0  0  0  0  0
    2.1598    0.3941   13.7549 N   0  0  0  0  0  0  0  0  0  0  0  0
    3.0944    1.2396   13.2243 C   0  0  0  0  0  0  0  0  0  0  0  0
    4.4043    1.2833   13.6944 C   0  0  0  0  0  0  0  0  0  0  0  0
    4.7385    0.4947   14.7556 N   0  0  0  0  0  0  0  0  0  0  0  0
    5.8973    0.3913   15.4817 C   0  0  0  0  0  0  0  0  0  0  0  0
    5.5996   -0.5416   16.5121 C   0  0  0  0  0  0  0  0  0  0  0  0
    4.3864   -1.0493   16.3602 N   0  0  0  0  0  0  0  0  0  0  0  0
    3.8356   -0.3858   15.3271 C   0  0  0  0  0  0  0  0  0  0  0  0
    2.6225    2.1542   12.1213 C   0  0  0  0  0  0  0  0  0  0  0  0
    3.5396    2.6409   11.1644 C   0  0  0  0  0  0  0  0  0  0  0  0
    3.1535    3.4630   10.1051 C   0  0  0  0  0  0  0  0  0  0  0  0
    1.8086    3.8199   10.0132 C   0  0  0  0  0  0  0  0  0  0  0  0
    0.9978    4.6054    9.1182 C   0  0  0  0  0  0  0  0  0  0  0  0
   -0.2423    4.6093    9.5224 N   0  0  0  0  0  0  0  0  0  0  0  0
   -0.3299    3.8832   10.6368 N   0  0  0  0  0  0  0  0  0  0  0  0
    0.8842    3.3496   10.9964 C   0  0  0  0  0  0  0  0  0  0  0  0
    1.2618    2.5164   12.0586 C   0  0  0  0  0  0  0  0  0  0  0  0
   -0.3784   -2.5892   15.8339 C   0  0  0  0  0  0  0  0  0  0  0  0
   -1.7343   -2.8306   15.7168 C   0  0  0  0  0  0  0  0  0  0  0  0
   -2.5117   -2.0982   14.8261 C   0  0  0  0  0  0  0  0  0  0  0  0
   -3.8736   -2.3467   14.7445 N   0  0  0  0  0  0  0  0  0  0  0  0
   -4.6489   -2.3804   13.4950 C   0  0  0  0  0  0  0  0  0  0  0  0
   -5.4028   -3.7252   13.3613 C   0  0  0  0  0  0  0  0  0  0  0  0
   -6.2201   -3.9495   14.5061 O   0  0  0  0  0  0  0  0  0  0  0  0
   -5.4732   -4.0046   15.7182 C   0  0  0  0  0  0  0  0  0  0  0  0
   -4.7007   -2.7060   15.8980 C   0  0  0  0  0  0  0  0  0  0  0  0
   -2.9815    1.1466   11.7906 H   0  0  0  0  0  0  0  0  0  0  0  0
   -1.7242    1.4599   13.0346 H   0  0  0  0  0  0  0  0  0  0  0  0
   -1.4063    0.2871   11.7117 H   0  0  0  0  0  0  0  0  0  0  0  0
   -0.0746   -0.9691   13.1892 H   0  0  0  0  0  0  0  0  0  0  0  0
   -0.4402    0.2250   14.4805 H   0  0  0  0  0  0  0  0  0  0  0  0
    5.1376    1.9259   13.2300 H   0  0  0  0  0  0  0  0  0  0  0  0
    6.8310    0.9057   15.3087 H   0  0  0  0  0  0  0  0  0  0  0  0
    6.2747   -0.8021   17.3139 H   0  0  0  0  0  0  0  0  0  0  0  0
    4.5801    2.3663   11.2559 H   0  0  0  0  0  0  0  0  0  0  0  0
    3.7348    4.3935   10.1838 H   0  0  0  0  0  0  0  0  0  0  0  0
    3.4188    2.9427    9.1730 H   0  0  0  0  0  0  0  0  0  0  0  0
    1.3637    5.1168    8.2401 H   0  0  0  0  0  0  0  0  0  0  0  0
    0.5473    2.1701   12.7907 H   0  0  0  0  0  0  0  0  0  0  0  0
    0.2129   -3.1900   16.5090 H   0  0  0  0  0  0  0  0  0  0  0  0
   -2.1950   -3.5962   16.3235 H   0  0  0  0  0  0  0  0  0  0  0  0
   -5.3771   -1.5559   13.4984 H   0  0  0  0  0  0  0  0  0  0  0  0
   -3.9652   -2.2622   12.6414 H   0  0  0  0  0  0  0  0  0  0  0  0
   -6.0365   -3.6982   12.4626 H   0  0  0  0  0  0  0  0  0  0  0  0
   -4.6728   -4.5430   13.2707 H   0  0  0  0  0  0  0  0  0  0  0  0
   -6.1601   -4.1429   16.5661 H   0  0  0  0  0  0  0  0  0  0  0  0
   -4.7681   -4.8478   15.6763 H   0  0  0  0  0  0  0  0  0  0  0  0
   -4.0457   -2.8106   16.7755 H   0  0  0  0  0  0  0  0  0  0  0  0
   -5.4223   -1.8946   16.0737 H   0  0  0  0  0  0  0  0  0  0  0  0
  1  2  1  0  0  0  0
  2  3  1  0  0  0  0
  3  4  1  0  0  0  0
  3 27  2  0  0  0  0
  4  5  1  0  0  0  0
  5  6  2  0  0  0  0
  5 25  1  0  0  0  0
  6  7  1  0  0  0  0
  7  8  2  0  0  0  0
  7 15  1  0  0  0  0
  8  9  1  0  0  0  0
  9 10  2  0  0  0  0
  9 16  1  0  0  0  0
 10 11  1  0  0  0  0
 11 12  1  0  0  0  0
 11 15  1  0  0  0  0
 12 13  2  0  0  0  0
 13 14  1  0  0  0  0
 14 15  2  0  0  0  0
 16 17  2  0  0  0  0
 16 24  1  0  0  0  0
 17 18  1  0  0  0  0
 18 19  1  0  0  0  0
 19 20  2  0  0  0  0
 19 23  1  0  0  0  0
 20 21  1  0  0  0  0
 21 22  2  0  0  0  0
 22 23  1  0  0  0  0
 23 24  2  0  0  0  0
 25 26  2  0  0  0  0
 26 27  1  0  0  0  0
 27 28  1  0  0  0  0
 28 29  1  0  0  0  0
 28 33  1  0  0  0  0
 29 30  1  0  0  0  0
 30 31  1  0  0  0  0
 31 32  1  0  0  0  0
 32 33  1  0  0  0  0
  1 34  1  0  0  0  0
  1 35  1  0  0  0  0
  1 36  1  0  0  0  0
  4 37  1  0  0  0  0
  4 38  1  0  0  0  0
 10 39  1  0  0  0  0
 12 40  1  0  0  0  0
 13 41  1  0  0  0  0
 17 42  1  0  0  0  0
 18 43  1  0  0  0  0
 18 44  1  0  0  0  0
 20 45  1  0  0  0  0
 24 46  1  0  0  0  0
 25 47  1  0  0  0  0
 26 48  1  0  0  0  0
 29 49  1  0  0  0  0
 29 50  1  0  0  0  0
 30 51  1  0  0  0  0
 30 52  1  0  0  0  0
 32 53  1  0  0  0  0
 32 54  1  0  0  0  0
 33 55  1  0  0  0  0
 33 56  1  0  0  0  0
M  END
> <IC50[nM]>
0.44

$$$$
