CHEMBL3265036
  -OEChem-05192314333D
 Structure written by MMmdl.
 55 60  0     1  0  0  0  0  0999 V2000
   -4.7688   -2.7849   12.3431 C   0  0  0  0  0  0  0  0  0  0  0  0
   -5.3846   -4.1377   12.6456 C   0  0  0  0  0  0  0  0  0  0  0  0
   -4.4594   -4.9732   13.3425 O   0  0  0  0  0  0  0  0  0  0  0  0
   -4.3771   -4.8619   14.7737 C   0  0  0  0  0  0  0  0  0  0  0  0
   -4.4823   -3.4746   15.4482 C   0  0  0  0  0  0  0  0  0  0  0  0
   -3.8932   -2.3265   14.7696 N   0  0  2  0  0  0  0  0  0  0  0  0
   -4.5743   -1.9363   13.5651 C   0  0  0  0  0  0  0  0  0  0  0  0
   -2.4838   -2.1095   14.8521 C   0  0  0  0  0  0  0  0  0  0  0  0
   -1.6944   -2.8761   15.7249 C   0  0  0  0  0  0  0  0  0  0  0  0
   -0.3386   -2.6335   15.8473 C   0  0  0  0  0  0  0  0  0  0  0  0
    0.2634   -1.6168   15.1140 C   0  0  0  0  0  0  0  0  0  0  0  0
    1.6446   -1.3934   15.3516 N   0  0  0  0  0  0  0  0  0  0  0  0
    2.5467   -0.4494   14.7774 C   0  0  0  0  0  0  0  0  0  0  0  0
    2.1622    0.3813   13.7703 N   0  0  0  0  0  0  0  0  0  0  0  0
    3.0905    1.2361   13.2368 C   0  0  0  0  0  0  0  0  0  0  0  0
    4.3967    1.2828   13.6973 C   0  0  0  0  0  0  0  0  0  0  0  0
    4.7322    0.4976   14.7555 N   0  0  0  0  0  0  0  0  0  0  0  0
    5.8998    0.3887   15.4576 C   0  0  0  0  0  0  0  0  0  0  0  0
    5.6143   -0.5477   16.4779 C   0  0  0  0  0  0  0  0  0  0  0  0
    4.4157   -1.0782   16.3290 N   0  0  0  0  0  0  0  0  0  0  0  0
    3.8521   -0.4000   15.3224 C   0  0  0  0  0  0  0  0  0  0  0  0
    2.6115    2.1334   12.1178 C   0  0  0  0  0  0  0  0  0  0  0  0
    3.5406    2.6292   11.1800 C   0  0  0  0  0  0  0  0  0  0  0  0
    3.1477    3.4565   10.1243 C   0  0  0  0  0  0  0  0  0  0  0  0
    1.8039    3.8086   10.0214 C   0  0  0  0  0  0  0  0  0  0  0  0
    1.0010    4.6077    9.1343 C   0  0  0  0  0  0  0  0  0  0  0  0
   -0.2411    4.6153    9.5215 N   0  0  0  0  0  0  0  0  0  0  0  0
   -0.3421    3.8665   10.6189 N   0  0  0  0  0  0  0  0  0  0  0  0
    0.8809    3.3298   10.9772 C   0  0  0  0  0  0  0  0  0  0  0  0
    1.2478    2.4836   12.0372 C   0  0  0  0  0  0  0  0  0  0  0  0
   -0.4905   -0.8517   14.2206 C   0  0  0  0  0  0  0  0  0  0  0  0
   -1.8442   -1.1028   14.0951 C   0  0  0  0  0  0  0  0  0  0  0  0
   -3.7890   -2.9450   11.8694 H   0  0  0  0  0  0  0  0  0  0  0  0
   -5.4296   -2.2481   11.6465 H   0  0  0  0  0  0  0  0  0  0  0  0
   -6.2805   -3.9948   13.2677 H   0  0  0  0  0  0  0  0  0  0  0  0
   -5.6682   -4.6240   11.7006 H   0  0  0  0  0  0  0  0  0  0  0  0
   -5.1886   -5.4786   15.1874 H   0  0  0  0  0  0  0  0  0  0  0  0
   -3.4065   -5.2863   15.0700 H   0  0  0  0  0  0  0  0  0  0  0  0
   -5.5525   -3.2588   15.5826 H   0  0  0  0  0  0  0  0  0  0  0  0
   -3.9978   -3.5542   16.4326 H   0  0  0  0  0  0  0  0  0  0  0  0
   -4.0426   -1.0407   13.2114 H   0  0  0  0  0  0  0  0  0  0  0  0
   -5.5889   -1.6576   13.8860 H   0  0  0  0  0  0  0  0  0  0  0  0
   -2.1511   -3.6632   16.3065 H   0  0  0  0  0  0  0  0  0  0  0  0
    0.2564   -3.2373   16.5165 H   0  0  0  0  0  0  0  0  0  0  0  0
    2.0533   -1.9982   16.0351 H   0  0  0  0  0  0  0  0  0  0  0  0
    5.1278    1.9249   13.2288 H   0  0  0  0  0  0  0  0  0  0  0  0
    6.8317    0.9027   15.2742 H   0  0  0  0  0  0  0  0  0  0  0  0
    6.2933   -0.7976   17.2797 H   0  0  0  0  0  0  0  0  0  0  0  0
    4.5824    2.3628   11.2801 H   0  0  0  0  0  0  0  0  0  0  0  0
    3.8693    3.8145    9.4049 H   0  0  0  0  0  0  0  0  0  0  0  0
    1.3774    5.1292    8.2667 H   0  0  0  0  0  0  0  0  0  0  0  0
   -1.1938    3.7123   11.1197 H   0  0  0  0  0  0  0  0  0  0  0  0
    0.5241    2.1207   12.7521 H   0  0  0  0  0  0  0  0  0  0  0  0
   -0.0219   -0.0742   13.6356 H   0  0  0  0  0  0  0  0  0  0  0  0
   -2.4269   -0.5150   13.4014 H   0  0  0  0  0  0  0  0  0  0  0  0
  1  2  1  0  0  0  0
  1  7  1  0  0  0  0
  2  3  1  0  0  0  0
  3  4  1  0  0  0  0
  4  5  1  0  0  0  0
  5  6  1  0  0  0  0
  6  7  1  0  0  0  0
  6  8  1  0  0  0  0
  8  9  2  0  0  0  0
  8 32  1  0  0  0  0
  9 10  1  0  0  0  0
 10 11  2  0  0  0  0
 11 12  1  0  0  0  0
 11 31  1  0  0  0  0
 12 13  1  0  0  0  0
 13 14  2  0  0  0  0
 13 21  1  0  0  0  0
 14 15  1  0  0  0  0
 15 16  2  0  0  0  0
 15 22  1  0  0  0  0
 16 17  1  0  0  0  0
 17 18  1  0  0  0  0
 17 21  1  0  0  0  0
 18 19  2  0  0  0  0
 19 20  1  0  0  0  0
 20 21  2  0  0  0  0
 22 23  2  0  0  0  0
 22 30  1  0  0  0  0
 23 24  1  0  0  0  0
 24 25  2  0  0  0  0
 25 26  1  0  0  0  0
 25 29  1  0  0  0  0
 26 27  2  0  0  0  0
 27 28  1  0  0  0  0
 28 29  1  0  0  0  0
 29 30  2  0  0  0  0
 31 32  2  0  0  0  0
  1 33  1  0  0  0  0
  1 34  1  0  0  0  0
  2 35  1  0  0  0  0
  2 36  1  0  0  0  0
  4 37  1  0  0  0  0
  4 38  1  0  0  0  0
  5 39  1  0  0  0  0
  5 40  1  0  0  0  0
  7 41  1  0  0  0  0
  7 42  1  0  0  0  0
  9 43  1  0  0  0  0
 10 44  1  0  0  0  0
 12 45  1  0  0  0  0
 16 46  1  0  0  0  0
 18 47  1  0  0  0  0
 19 48  1  0  0  0  0
 23 49  1  0  0  0  0
 24 50  1  0  0  0  0
 26 51  1  0  0  0  0
 28 52  1  0  0  0  0
 30 53  1  0  0  0  0
 31 54  1  0  0  0  0
 32 55  1  0  0  0  0
M  END
> <IC50[nM]>
23.1

$$$$
CHEMBL3265036
  -OEChem-05192314333D
 Structure written by MMmdl.
 55 60  0     1  0  0  0  0  0999 V2000
   -4.7688   -2.7849   12.3431 C   0  0  0  0  0  0  0  0  0  0  0  0
   -5.3846   -4.1377   12.6456 C   0  0  0  0  0  0  0  0  0  0  0  0
   -4.4594   -4.9732   13.3425 O   0  0  0  0  0  0  0  0  0  0  0  0
   -4.3771   -4.8619   14.7737 C   0  0  0  0  0  0  0  0  0  0  0  0
   -4.4823   -3.4746   15.4482 C   0  0  0  0  0  0  0  0  0  0  0  0
   -3.8932   -2.3265   14.7696 N   0  0  2  0  0  0  0  0  0  0  0  0
   -4.5743   -1.9363   13.5651 C   0  0  0  0  0  0  0  0  0  0  0  0
   -2.4838   -2.1095   14.8521 C   0  0  0  0  0  0  0  0  0  0  0  0
   -1.6944   -2.8761   15.7249 C   0  0  0  0  0  0  0  0  0  0  0  0
   -0.3386   -2.6335   15.8473 C   0  0  0  0  0  0  0  0  0  0  0  0
    0.2634   -1.6168   15.1140 C   0  0  0  0  0  0  0  0  0  0  0  0
    1.6446   -1.3934   15.3516 N   0  0  0  0  0  0  0  0  0  0  0  0
    2.5467   -0.4494   14.7774 C   0  0  0  0  0  0  0  0  0  0  0  0
    2.1622    0.3813   13.7703 N   0  0  0  0  0  0  0  0  0  0  0  0
    3.0905    1.2361   13.2368 C   0  0  0  0  0  0  0  0  0  0  0  0
    4.3967    1.2828   13.6973 C   0  0  0  0  0  0  0  0  0  0  0  0
    4.7322    0.4976   14.7555 N   0  0  0  0  0  0  0  0  0  0  0  0
    5.8998    0.3887   15.4576 C   0  0  0  0  0  0  0  0  0  0  0  0
    5.6143   -0.5477   16.4779 C   0  0  0  0  0  0  0  0  0  0  0  0
    4.4157   -1.0782   16.3290 N   0  0  0  0  0  0  0  0  0  0  0  0
    3.8521   -0.4000   15.3224 C   0  0  0  0  0  0  0  0  0  0  0  0
    2.6115    2.1334   12.1178 C   0  0  0  0  0  0  0  0  0  0  0  0
    3.5406    2.6292   11.1800 C   0  0  0  0  0  0  0  0  0  0  0  0
    3.1477    3.4565   10.1243 C   0  0  0  0  0  0  0  0  0  0  0  0
    1.8039    3.8086   10.0214 C   0  0  0  0  0  0  0  0  0  0  0  0
    1.0010    4.6077    9.1343 C   0  0  0  0  0  0  0  0  0  0  0  0
   -0.2411    4.6153    9.5215 N   0  0  0  0  0  0  0  0  0  0  0  0
   -0.3421    3.8665   10.6189 N   0  0  0  0  0  0  0  0  0  0  0  0
    0.8809    3.3298   10.9772 C   0  0  0  0  0  0  0  0  0  0  0  0
    1.2478    2.4836   12.0372 C   0  0  0  0  0  0  0  0  0  0  0  0
   -0.4905   -0.8517   14.2206 C   0  0  0  0  0  0  0  0  0  0  0  0
   -1.8442   -1.1028   14.0951 C   0  0  0  0  0  0  0  0  0  0  0  0
   -3.7890   -2.9450   11.8694 H   0  0  0  0  0  0  0  0  0  0  0  0
   -5.4296   -2.2481   11.6465 H   0  0  0  0  0  0  0  0  0  0  0  0
   -6.2805   -3.9948   13.2677 H   0  0  0  0  0  0  0  0  0  0  0  0
   -5.6682   -4.6240   11.7006 H   0  0  0  0  0  0  0  0  0  0  0  0
   -5.1886   -5.4786   15.1874 H   0  0  0  0  0  0  0  0  0  0  0  0
   -3.4065   -5.2863   15.0700 H   0  0  0  0  0  0  0  0  0  0  0  0
   -5.5525   -3.2588   15.5826 H   0  0  0  0  0  0  0  0  0  0  0  0
   -3.9978   -3.5542   16.4326 H   0  0  0  0  0  0  0  0  0  0  0  0
   -4.0426   -1.0407   13.2114 H   0  0  0  0  0  0  0  0  0  0  0  0
   -5.5889   -1.6576   13.8860 H   0  0  0  0  0  0  0  0  0  0  0  0
   -2.1511   -3.6632   16.3065 H   0  0  0  0  0  0  0  0  0  0  0  0
    0.2564   -3.2373   16.5165 H   0  0  0  0  0  0  0  0  0  0  0  0
    2.0533   -1.9982   16.0351 H   0  0  0  0  0  0  0  0  0  0  0  0
    5.1278    1.9249   13.2288 H   0  0  0  0  0  0  0  0  0  0  0  0
    6.8317    0.9027   15.2742 H   0  0  0  0  0  0  0  0  0  0  0  0
    6.2933   -0.7976   17.2797 H   0  0  0  0  0  0  0  0  0  0  0  0
    4.5824    2.3628   11.2801 H   0  0  0  0  0  0  0  0  0  0  0  0
    3.8693    3.8145    9.4049 H   0  0  0  0  0  0  0  0  0  0  0  0
    1.3774    5.1292    8.2667 H   0  0  0  0  0  0  0  0  0  0  0  0
   -0.9915    5.1002    9.0723 H   0  0  0  0  0  0  0  0  0  0  0  0
    0.5241    2.1207   12.7521 H   0  0  0  0  0  0  0  0  0  0  0  0
   -0.0219   -0.0742   13.6356 H   0  0  0  0  0  0  0  0  0  0  0  0
   -2.4269   -0.5150   13.4014 H   0  0  0  0  0  0  0  0  0  0  0  0
  1  2  1  0  0  0  0
  1  7  1  0  0  0  0
  2  3  1  0  0  0  0
  3  4  1  0  0  0  0
  4  5  1  0  0  0  0
  5  6  1  0  0  0  0
  6  7  1  0  0  0  0
  6  8  1  0  0  0  0
  8  9  2  0  0  0  0
  8 32  1  0  0  0  0
  9 10  1  0  0  0  0
 10 11  2  0  0  0  0
 11 12  1  0  0  0  0
 11 31  1  0  0  0  0
 12 13  1  0  0  0  0
 13 14  2  0  0  0  0
 13 21  1  0  0  0  0
 14 15  1  0  0  0  0
 15 16  2  0  0  0  0
 15 22  1  0  0  0  0
 16 17  1  0  0  0  0
 17 18  1  0  0  0  0
 17 21  1  0  0  0  0
 18 19  2  0  0  0  0
 19 20  1  0  0  0  0
 20 21  2  0  0  0  0
 22 23  1  0  0  0  0
 22 30  2  0  0  0  0
 23 24  2  0  0  0  0
 24 25  1  0  0  0  0
 25 26  2  0  0  0  0
 25 29  1  0  0  0  0
 26 27  1  0  0  0  0
 27 28  1  0  0  0  0
 28 29  2  0  0  0  0
 29 30  1  0  0  0  0
 31 32  2  0  0  0  0
  1 33  1  0  0  0  0
  1 34  1  0  0  0  0
  2 35  1  0  0  0  0
  2 36  1  0  0  0  0
  4 37  1  0  0  0  0
  4 38  1  0  0  0  0
  5 39  1  0  0  0  0
  5 40  1  0  0  0  0
  7 41  1  0  0  0  0
  7 42  1  0  0  0  0
  9 43  1  0  0  0  0
 10 44  1  0  0  0  0
 12 45  1  0  0  0  0
 16 46  1  0  0  0  0
 18 47  1  0  0  0  0
 19 48  1  0  0  0  0
 23 49  1  0  0  0  0
 24 50  1  0  0  0  0
 26 51  1  0  0  0  0
 27 52  1  0  0  0  0
 30 53  1  0  0  0  0
 31 54  1  0  0  0  0
 32 55  1  0  0  0  0
M  END
> <IC50[nM]>
23.1

$$$$
CHEMBL3265036
  -OEChem-05192314333D
 Structure written by MMmdl.
 55 60  0     1  0  0  0  0  0999 V2000
   -4.7688   -2.7849   12.3431 C   0  0  0  0  0  0  0  0  0  0  0  0
   -5.3846   -4.1377   12.6456 C   0  0  0  0  0  0  0  0  0  0  0  0
   -4.4594   -4.9732   13.3425 O   0  0  0  0  0  0  0  0  0  0  0  0
   -4.3771   -4.8619   14.7737 C   0  0  0  0  0  0  0  0  0  0  0  0
   -4.4823   -3.4746   15.4482 C   0  0  0  0  0  0  0  0  0  0  0  0
   -3.8932   -2.3265   14.7696 N   0  0  2  0  0  0  0  0  0  0  0  0
   -4.5743   -1.9363   13.5651 C   0  0  0  0  0  0  0  0  0  0  0  0
   -2.4838   -2.1095   14.8521 C   0  0  0  0  0  0  0  0  0  0  0  0
   -1.6944   -2.8761   15.7249 C   0  0  0  0  0  0  0  0  0  0  0  0
   -0.3386   -2.6335   15.8473 C   0  0  0  0  0  0  0  0  0  0  0  0
    0.2634   -1.6168   15.1140 C   0  0  0  0  0  0  0  0  0  0  0  0
    1.6446   -1.3934   15.3516 N   0  0  0  0  0  0  0  0  0  0  0  0
    2.5467   -0.4494   14.7774 C   0  0  0  0  0  0  0  0  0  0  0  0
    2.1622    0.3813   13.7703 N   0  0  0  0  0  0  0  0  0  0  0  0
    3.0905    1.2361   13.2368 C   0  0  0  0  0  0  0  0  0  0  0  0
    4.3967    1.2828   13.6973 C   0  0  0  0  0  0  0  0  0  0  0  0
    4.7322    0.4976   14.7555 N   0  0  0  0  0  0  0  0  0  0  0  0
    5.8998    0.3887   15.4576 C   0  0  0  0  0  0  0  0  0  0  0  0
    5.6143   -0.5477   16.4779 C   0  0  0  0  0  0  0  0  0  0  0  0
    4.4157   -1.0782   16.3290 N   0  0  0  0  0  0  0  0  0  0  0  0
    3.8521   -0.4000   15.3224 C   0  0  0  0  0  0  0  0  0  0  0  0
    2.6115    2.1334   12.1178 C   0  0  0  0  0  0  0  0  0  0  0  0
    3.5406    2.6292   11.1800 C   0  0  0  0  0  0  0  0  0  0  0  0
    3.1477    3.4565   10.1243 C   0  0  0  0  0  0  0  0  0  0  0  0
    1.8039    3.8086   10.0214 C   0  0  0  0  0  0  0  0  0  0  0  0
    1.0010    4.6077    9.1343 C   0  0  0  0  0  0  0  0  0  0  0  0
   -0.2411    4.6153    9.5215 N   0  0  0  0  0  0  0  0  0  0  0  0
   -0.3421    3.8665   10.6189 N   0  0  0  0  0  0  0  0  0  0  0  0
    0.8809    3.3298   10.9772 C   0  0  0  0  0  0  0  0  0  0  0  0
    1.2478    2.4836   12.0372 C   0  0  0  0  0  0  0  0  0  0  0  0
   -0.4905   -0.8517   14.2206 C   0  0  0  0  0  0  0  0  0  0  0  0
   -1.8442   -1.1028   14.0951 C   0  0  0  0  0  0  0  0  0  0  0  0
   -3.7890   -2.9450   11.8694 H   0  0  0  0  0  0  0  0  0  0  0  0
   -5.4296   -2.2481   11.6465 H   0  0  0  0  0  0  0  0  0  0  0  0
   -6.2805   -3.9948   13.2677 H   0  0  0  0  0  0  0  0  0  0  0  0
   -5.6682   -4.6240   11.7006 H   0  0  0  0  0  0  0  0  0  0  0  0
   -5.1886   -5.4786   15.1874 H   0  0  0  0  0  0  0  0  0  0  0  0
   -3.4065   -5.2863   15.0700 H   0  0  0  0  0  0  0  0  0  0  0  0
   -5.5525   -3.2588   15.5826 H   0  0  0  0  0  0  0  0  0  0  0  0
   -3.9978   -3.5542   16.4326 H   0  0  0  0  0  0  0  0  0  0  0  0
   -4.0426   -1.0407   13.2114 H   0  0  0  0  0  0  0  0  0  0  0  0
   -5.5889   -1.6576   13.8860 H   0  0  0  0  0  0  0  0  0  0  0  0
   -2.1511   -3.6632   16.3065 H   0  0  0  0  0  0  0  0  0  0  0  0
    0.2564   -3.2373   16.5165 H   0  0  0  0  0  0  0  0  0  0  0  0
    1.2230    0.3681   13.4273 H   0  0  0  0  0  0  0  0  0  0  0  0
    5.1278    1.9249   13.2288 H   0  0  0  0  0  0  0  0  0  0  0  0
    6.8317    0.9027   15.2742 H   0  0  0  0  0  0  0  0  0  0  0  0
    6.2933   -0.7976   17.2797 H   0  0  0  0  0  0  0  0  0  0  0  0
    4.5824    2.3628   11.2801 H   0  0  0  0  0  0  0  0  0  0  0  0
    3.8693    3.8145    9.4049 H   0  0  0  0  0  0  0  0  0  0  0  0
    1.3774    5.1292    8.2667 H   0  0  0  0  0  0  0  0  0  0  0  0
   -1.1938    3.7123   11.1197 H   0  0  0  0  0  0  0  0  0  0  0  0
    0.5241    2.1207   12.7521 H   0  0  0  0  0  0  0  0  0  0  0  0
   -0.0219   -0.0742   13.6356 H   0  0  0  0  0  0  0  0  0  0  0  0
   -2.4269   -0.5150   13.4014 H   0  0  0  0  0  0  0  0  0  0  0  0
  1  2  1  0  0  0  0
  1  7  1  0  0  0  0
  2  3  1  0  0  0  0
  3  4  1  0  0  0  0
  4  5  1  0  0  0  0
  5  6  1  0  0  0  0
  6  7  1  0  0  0  0
  6  8  1  0  0  0  0
  8  9  2  0  0  0  0
  8 32  1  0  0  0  0
  9 10  1  0  0  0  0
 10 11  2  0  0  0  0
 11 12  1  0  0  0  0
 11 31  1  0  0  0  0
 12 13  2  0  0  0  0
 13 14  1  0  0  0  0
 13 21  1  0  0  0  0
 14 15  1  0  0  0  0
 15 16  2  0  0  0  0
 15 22  1  0  0  0  0
 16 17  1  0  0  0  0
 17 18  1  0  0  0  0
 17 21  1  0  0  0  0
 18 19  2  0  0  0  0
 19 20  1  0  0  0  0
 20 21  2  0  0  0  0
 22 23  2  0  0  0  0
 22 30  1  0  0  0  0
 23 24  1  0  0  0  0
 24 25  2  0  0  0  0
 25 26  1  0  0  0  0
 25 29  1  0  0  0  0
 26 27  2  0  0  0  0
 27 28  1  0  0  0  0
 28 29  1  0  0  0  0
 29 30  2  0  0  0  0
 31 32  2  0  0  0  0
  1 33  1  0  0  0  0
  1 34  1  0  0  0  0
  2 35  1  0  0  0  0
  2 36  1  0  0  0  0
  4 37  1  0  0  0  0
  4 38  1  0  0  0  0
  5 39  1  0  0  0  0
  5 40  1  0  0  0  0
  7 41  1  0  0  0  0
  7 42  1  0  0  0  0
  9 43  1  0  0  0  0
 10 44  1  0  0  0  0
 14 45  1  0  0  0  0
 16 46  1  0  0  0  0
 18 47  1  0  0  0  0
 19 48  1  0  0  0  0
 23 49  1  0  0  0  0
 24 50  1  0  0  0  0
 26 51  1  0  0  0  0
 28 52  1  0  0  0  0
 30 53  1  0  0  0  0
 31 54  1  0  0  0  0
 32 55  1  0  0  0  0
M  END
> <IC50[nM]>
23.1

$$$$
CHEMBL3265036
  -OEChem-05192314333D
 Structure written by MMmdl.
 55 60  0     1  0  0  0  0  0999 V2000
   -4.7688   -2.7849   12.3431 C   0  0  0  0  0  0  0  0  0  0  0  0
   -5.3846   -4.1377   12.6456 C   0  0  0  0  0  0  0  0  0  0  0  0
   -4.4594   -4.9732   13.3425 O   0  0  0  0  0  0  0  0  0  0  0  0
   -4.3771   -4.8619   14.7737 C   0  0  0  0  0  0  0  0  0  0  0  0
   -4.4823   -3.4746   15.4482 C   0  0  0  0  0  0  0  0  0  0  0  0
   -3.8932   -2.3265   14.7696 N   0  0  2  0  0  0  0  0  0  0  0  0
   -4.5743   -1.9363   13.5651 C   0  0  0  0  0  0  0  0  0  0  0  0
   -2.4838   -2.1095   14.8521 C   0  0  0  0  0  0  0  0  0  0  0  0
   -1.6944   -2.8761   15.7249 C   0  0  0  0  0  0  0  0  0  0  0  0
   -0.3386   -2.6335   15.8473 C   0  0  0  0  0  0  0  0  0  0  0  0
    0.2634   -1.6168   15.1140 C   0  0  0  0  0  0  0  0  0  0  0  0
    1.6446   -1.3934   15.3516 N   0  0  0  0  0  0  0  0  0  0  0  0
    2.5467   -0.4494   14.7774 C   0  0  0  0  0  0  0  0  0  0  0  0
    2.1622    0.3813   13.7703 N   0  0  0  0  0  0  0  0  0  0  0  0
    3.0905    1.2361   13.2368 C   0  0  0  0  0  0  0  0  0  0  0  0
    4.3967    1.2828   13.6973 C   0  0  0  0  0  0  0  0  0  0  0  0
    4.7322    0.4976   14.7555 N   0  0  0  0  0  0  0  0  0  0  0  0
    5.8998    0.3887   15.4576 C   0  0  0  0  0  0  0  0  0  0  0  0
    5.6143   -0.5477   16.4779 C   0  0  0  0  0  0  0  0  0  0  0  0
    4.4157   -1.0782   16.3290 N   0  0  0  0  0  0  0  0  0  0  0  0
    3.8521   -0.4000   15.3224 C   0  0  0  0  0  0  0  0  0  0  0  0
    2.6115    2.1334   12.1178 C   0  0  0  0  0  0  0  0  0  0  0  0
    3.5406    2.6292   11.1800 C   0  0  0  0  0  0  0  0  0  0  0  0
    3.1477    3.4565   10.1243 C   0  0  0  0  0  0  0  0  0  0  0  0
    1.8039    3.8086   10.0214 C   0  0  0  0  0  0  0  0  0  0  0  0
    1.0010    4.6077    9.1343 C   0  0  0  0  0  0  0  0  0  0  0  0
   -0.2411    4.6153    9.5215 N   0  0  0  0  0  0  0  0  0  0  0  0
   -0.3421    3.8665   10.6189 N   0  0  0  0  0  0  0  0  0  0  0  0
    0.8809    3.3298   10.9772 C   0  0  0  0  0  0  0  0  0  0  0  0
    1.2478    2.4836   12.0372 C   0  0  0  0  0  0  0  0  0  0  0  0
   -0.4905   -0.8517   14.2206 C   0  0  0  0  0  0  0  0  0  0  0  0
   -1.8442   -1.1028   14.0951 C   0  0  0  0  0  0  0  0  0  0  0  0
   -3.7890   -2.9450   11.8694 H   0  0  0  0  0  0  0  0  0  0  0  0
   -5.4296   -2.2481   11.6465 H   0  0  0  0  0  0  0  0  0  0  0  0
   -6.2805   -3.9948   13.2677 H   0  0  0  0  0  0  0  0  0  0  0  0
   -5.6682   -4.6240   11.7006 H   0  0  0  0  0  0  0  0  0  0  0  0
   -5.1886   -5.4786   15.1874 H   0  0  0  0  0  0  0  0  0  0  0  0
   -3.4065   -5.2863   15.0700 H   0  0  0  0  0  0  0  0  0  0  0  0
   -5.5525   -3.2588   15.5826 H   0  0  0  0  0  0  0  0  0  0  0  0
   -3.9978   -3.5542   16.4326 H   0  0  0  0  0  0  0  0  0  0  0  0
   -4.0426   -1.0407   13.2114 H   0  0  0  0  0  0  0  0  0  0  0  0
   -5.5889   -1.6576   13.8860 H   0  0  0  0  0  0  0  0  0  0  0  0
   -2.1511   -3.6632   16.3065 H   0  0  0  0  0  0  0  0  0  0  0  0
    0.2564   -3.2373   16.5165 H   0  0  0  0  0  0  0  0  0  0  0  0
    1.2230    0.3681   13.4273 H   0  0  0  0  0  0  0  0  0  0  0  0
    5.1278    1.9249   13.2288 H   0  0  0  0  0  0  0  0  0  0  0  0
    6.8317    0.9027   15.2742 H   0  0  0  0  0  0  0  0  0  0  0  0
    6.2933   -0.7976   17.2797 H   0  0  0  0  0  0  0  0  0  0  0  0
    4.5824    2.3628   11.2801 H   0  0  0  0  0  0  0  0  0  0  0  0
    3.8693    3.8145    9.4049 H   0  0  0  0  0  0  0  0  0  0  0  0
    1.3774    5.1292    8.2667 H   0  0  0  0  0  0  0  0  0  0  0  0
   -0.9915    5.1002    9.0723 H   0  0  0  0  0  0  0  0  0  0  0  0
    0.5241    2.1207   12.7521 H   0  0  0  0  0  0  0  0  0  0  0  0
   -0.0219   -0.0742   13.6356 H   0  0  0  0  0  0  0  0  0  0  0  0
   -2.4269   -0.5150   13.4014 H   0  0  0  0  0  0  0  0  0  0  0  0
  1  2  1  0  0  0  0
  1  7  1  0  0  0  0
  2  3  1  0  0  0  0
  3  4  1  0  0  0  0
  4  5  1  0  0  0  0
  5  6  1  0  0  0  0
  6  7  1  0  0  0  0
  6  8  1  0  0  0  0
  8  9  2  0  0  0  0
  8 32  1  0  0  0  0
  9 10  1  0  0  0  0
 10 11  2  0  0  0  0
 11 12  1  0  0  0  0
 11 31  1  0  0  0  0
 12 13  2  0  0  0  0
 13 14  1  0  0  0  0
 13 21  1  0  0  0  0
 14 15  1  0  0  0  0
 15 16  2  0  0  0  0
 15 22  1  0  0  0  0
 16 17  1  0  0  0  0
 17 18  1  0  0  0  0
 17 21  1  0  0  0  0
 18 19  2  0  0  0  0
 19 20  1  0  0  0  0
 20 21  2  0  0  0  0
 22 23  1  0  0  0  0
 22 30  2  0  0  0  0
 23 24  2  0  0  0  0
 24 25  1  0  0  0  0
 25 26  2  0  0  0  0
 25 29  1  0  0  0  0
 26 27  1  0  0  0  0
 27 28  1  0  0  0  0
 28 29  2  0  0  0  0
 29 30  1  0  0  0  0
 31 32  2  0  0  0  0
  1 33  1  0  0  0  0
  1 34  1  0  0  0  0
  2 35  1  0  0  0  0
  2 36  1  0  0  0  0
  4 37  1  0  0  0  0
  4 38  1  0  0  0  0
  5 39  1  0  0  0  0
  5 40  1  0  0  0  0
  7 41  1  0  0  0  0
  7 42  1  0  0  0  0
  9 43  1  0  0  0  0
 10 44  1  0  0  0  0
 14 45  1  0  0  0  0
 16 46  1  0  0  0  0
 18 47  1  0  0  0  0
 19 48  1  0  0  0  0
 23 49  1  0  0  0  0
 24 50  1  0  0  0  0
 26 51  1  0  0  0  0
 27 52  1  0  0  0  0
 30 53  1  0  0  0  0
 31 54  1  0  0  0  0
 32 55  1  0  0  0  0
M  END
> <IC50[nM]>
23.1

$$$$
CHEMBL3265036
  -OEChem-05192314333D
 Structure written by MMmdl.
 55 60  0     1  0  0  0  0  0999 V2000
   -4.7688   -2.7849   12.3431 C   0  0  0  0  0  0  0  0  0  0  0  0
   -5.3846   -4.1377   12.6456 C   0  0  0  0  0  0  0  0  0  0  0  0
   -4.4594   -4.9732   13.3425 O   0  0  0  0  0  0  0  0  0  0  0  0
   -4.3771   -4.8619   14.7737 C   0  0  0  0  0  0  0  0  0  0  0  0
   -4.4823   -3.4746   15.4482 C   0  0  0  0  0  0  0  0  0  0  0  0
   -3.8932   -2.3265   14.7696 N   0  0  2  0  0  0  0  0  0  0  0  0
   -4.5743   -1.9363   13.5651 C   0  0  0  0  0  0  0  0  0  0  0  0
   -2.4838   -2.1095   14.8521 C   0  0  0  0  0  0  0  0  0  0  0  0
   -1.6944   -2.8761   15.7249 C   0  0  0  0  0  0  0  0  0  0  0  0
   -0.3386   -2.6335   15.8473 C   0  0  0  0  0  0  0  0  0  0  0  0
    0.2634   -1.6168   15.1140 C   0  0  0  0  0  0  0  0  0  0  0  0
    1.6446   -1.3934   15.3516 N   0  0  0  0  0  0  0  0  0  0  0  0
    2.5467   -0.4494   14.7774 C   0  0  0  0  0  0  0  0  0  0  0  0
    2.1622    0.3813   13.7703 N   0  0  0  0  0  0  0  0  0  0  0  0
    3.0905    1.2361   13.2368 C   0  0  0  0  0  0  0  0  0  0  0  0
    4.3967    1.2828   13.6973 C   0  0  0  0  0  0  0  0  0  0  0  0
    4.7322    0.4976   14.7555 N   0  0  0  0  0  0  0  0  0  0  0  0
    5.8998    0.3887   15.4576 C   0  0  0  0  0  0  0  0  0  0  0  0
    5.6143   -0.5477   16.4779 C   0  0  0  0  0  0  0  0  0  0  0  0
    4.4157   -1.0782   16.3290 N   0  0  0  0  0  0  0  0  0  0  0  0
    3.8521   -0.4000   15.3224 C   0  0  0  0  0  0  0  0  0  0  0  0
    2.6115    2.1334   12.1178 C   0  0  0  0  0  0  0  0  0  0  0  0
    3.5406    2.6292   11.1800 C   0  0  0  0  0  0  0  0  0  0  0  0
    3.1477    3.4565   10.1243 C   0  0  0  0  0  0  0  0  0  0  0  0
    1.8039    3.8086   10.0214 C   0  0  0  0  0  0  0  0  0  0  0  0
    1.0010    4.6077    9.1343 C   0  0  0  0  0  0  0  0  0  0  0  0
   -0.2411    4.6153    9.5215 N   0  0  0  0  0  0  0  0  0  0  0  0
   -0.3421    3.8665   10.6189 N   0  0  0  0  0  0  0  0  0  0  0  0
    0.8809    3.3298   10.9772 C   0  0  0  0  0  0  0  0  0  0  0  0
    1.2478    2.4836   12.0372 C   0  0  0  0  0  0  0  0  0  0  0  0
   -0.4905   -0.8517   14.2206 C   0  0  0  0  0  0  0  0  0  0  0  0
   -1.8442   -1.1028   14.0951 C   0  0  0  0  0  0  0  0  0  0  0  0
   -3.7890   -2.9450   11.8694 H   0  0  0  0  0  0  0  0  0  0  0  0
   -5.4296   -2.2481   11.6465 H   0  0  0  0  0  0  0  0  0  0  0  0
   -6.2805   -3.9948   13.2677 H   0  0  0  0  0  0  0  0  0  0  0  0
   -5.6682   -4.6240   11.7006 H   0  0  0  0  0  0  0  0  0  0  0  0
   -5.1886   -5.4786   15.1874 H   0  0  0  0  0  0  0  0  0  0  0  0
   -3.4065   -5.2863   15.0700 H   0  0  0  0  0  0  0  0  0  0  0  0
   -5.5525   -3.2588   15.5826 H   0  0  0  0  0  0  0  0  0  0  0  0
   -3.9978   -3.5542   16.4326 H   0  0  0  0  0  0  0  0  0  0  0  0
   -4.0426   -1.0407   13.2114 H   0  0  0  0  0  0  0  0  0  0  0  0
   -5.5889   -1.6576   13.8860 H   0  0  0  0  0  0  0  0  0  0  0  0
   -2.1511   -3.6632   16.3065 H   0  0  0  0  0  0  0  0  0  0  0  0
    0.2564   -3.2373   16.5165 H   0  0  0  0  0  0  0  0  0  0  0  0
    2.0533   -1.9982   16.0351 H   0  0  0  0  0  0  0  0  0  0  0  0
    5.1278    1.9249   13.2288 H   0  0  0  0  0  0  0  0  0  0  0  0
    6.8317    0.9027   15.2742 H   0  0  0  0  0  0  0  0  0  0  0  0
    6.2933   -0.7976   17.2797 H   0  0  0  0  0  0  0  0  0  0  0  0
    4.5824    2.3628   11.2801 H   0  0  0  0  0  0  0  0  0  0  0  0
    3.8693    3.8145    9.4049 H   0  0  0  0  0  0  0  0  0  0  0  0
    1.3844    5.6387    9.1299 H   0  0  0  0  0  0  0  0  0  0  0  0
    1.0603    4.1901    8.1184 H   0  0  0  0  0  0  0  0  0  0  0  0
    0.5241    2.1207   12.7521 H   0  0  0  0  0  0  0  0  0  0  0  0
   -0.0219   -0.0742   13.6356 H   0  0  0  0  0  0  0  0  0  0  0  0
   -2.4269   -0.5150   13.4014 H   0  0  0  0  0  0  0  0  0  0  0  0
  1  2  1  0  0  0  0
  1  7  1  0  0  0  0
  2  3  1  0  0  0  0
  3  4  1  0  0  0  0
  4  5  1  0  0  0  0
  5  6  1  0  0  0  0
  6  7  1  0  0  0  0
  6  8  1  0  0  0  0
  8  9  2  0  0  0  0
  8 32  1  0  0  0  0
  9 10  1  0  0  0  0
 10 11  2  0  0  0  0
 11 12  1  0  0  0  0
 11 31  1  0  0  0  0
 12 13  1  0  0  0  0
 13 14  2  0  0  0  0
 13 21  1  0  0  0  0
 14 15  1  0  0  0  0
 15 16  2  0  0  0  0
 15 22  1  0  0  0  0
 16 17  1  0  0  0  0
 17 18  1  0  0  0  0
 17 21  1  0  0  0  0
 18 19  2  0  0  0  0
 19 20  1  0  0  0  0
 20 21  2  0  0  0  0
 22 23  2  0  0  0  0
 22 30  1  0  0  0  0
 23 24  1  0  0  0  0
 24 25  2  0  0  0  0
 25 26  1  0  0  0  0
 25 29  1  0  0  0  0
 26 27  1  0  0  0  0
 27 28  2  0  0  0  0
 28 29  1  0  0  0  0
 29 30  2  0  0  0  0
 31 32  2  0  0  0  0
  1 33  1  0  0  0  0
  1 34  1  0  0  0  0
  2 35  1  0  0  0  0
  2 36  1  0  0  0  0
  4 37  1  0  0  0  0
  4 38  1  0  0  0  0
  5 39  1  0  0  0  0
  5 40  1  0  0  0  0
  7 41  1  0  0  0  0
  7 42  1  0  0  0  0
  9 43  1  0  0  0  0
 10 44  1  0  0  0  0
 12 45  1  0  0  0  0
 16 46  1  0  0  0  0
 18 47  1  0  0  0  0
 19 48  1  0  0  0  0
 23 49  1  0  0  0  0
 24 50  1  0  0  0  0
 26 51  1  0  0  0  0
 26 52  1  0  0  0  0
 30 53  1  0  0  0  0
 31 54  1  0  0  0  0
 32 55  1  0  0  0  0
M  END
> <IC50[nM]>
23.1

$$$$
CHEMBL3265036
  -OEChem-05192314333D
 Structure written by MMmdl.
 55 60  0     1  0  0  0  0  0999 V2000
   -4.7688   -2.7849   12.3431 C   0  0  0  0  0  0  0  0  0  0  0  0
   -5.3846   -4.1377   12.6456 C   0  0  0  0  0  0  0  0  0  0  0  0
   -4.4594   -4.9732   13.3425 O   0  0  0  0  0  0  0  0  0  0  0  0
   -4.3771   -4.8619   14.7737 C   0  0  0  0  0  0  0  0  0  0  0  0
   -4.4823   -3.4746   15.4482 C   0  0  0  0  0  0  0  0  0  0  0  0
   -3.8932   -2.3265   14.7696 N   0  0  2  0  0  0  0  0  0  0  0  0
   -4.5743   -1.9363   13.5651 C   0  0  0  0  0  0  0  0  0  0  0  0
   -2.4838   -2.1095   14.8521 C   0  0  0  0  0  0  0  0  0  0  0  0
   -1.6944   -2.8761   15.7249 C   0  0  0  0  0  0  0  0  0  0  0  0
   -0.3386   -2.6335   15.8473 C   0  0  0  0  0  0  0  0  0  0  0  0
    0.2634   -1.6168   15.1140 C   0  0  0  0  0  0  0  0  0  0  0  0
    1.6446   -1.3934   15.3516 N   0  0  0  0  0  0  0  0  0  0  0  0
    2.5467   -0.4494   14.7774 C   0  0  0  0  0  0  0  0  0  0  0  0
    2.1622    0.3813   13.7703 N   0  0  0  0  0  0  0  0  0  0  0  0
    3.0905    1.2361   13.2368 C   0  0  0  0  0  0  0  0  0  0  0  0
    4.3967    1.2828   13.6973 C   0  0  0  0  0  0  0  0  0  0  0  0
    4.7322    0.4976   14.7555 N   0  0  0  0  0  0  0  0  0  0  0  0
    5.8998    0.3887   15.4576 C   0  0  0  0  0  0  0  0  0  0  0  0
    5.6143   -0.5477   16.4779 C   0  0  0  0  0  0  0  0  0  0  0  0
    4.4157   -1.0782   16.3290 N   0  0  0  0  0  0  0  0  0  0  0  0
    3.8521   -0.4000   15.3224 C   0  0  0  0  0  0  0  0  0  0  0  0
    2.6115    2.1334   12.1178 C   0  0  0  0  0  0  0  0  0  0  0  0
    3.5406    2.6292   11.1800 C   0  0  0  0  0  0  0  0  0  0  0  0
    3.1477    3.4565   10.1243 C   0  0  0  0  0  0  0  0  0  0  0  0
    1.8039    3.8086   10.0214 C   0  0  0  0  0  0  0  0  0  0  0  0
    1.0010    4.6077    9.1343 C   0  0  0  0  0  0  0  0  0  0  0  0
   -0.2411    4.6153    9.5215 N   0  0  0  0  0  0  0  0  0  0  0  0
   -0.3421    3.8665   10.6189 N   0  0  0  0  0  0  0  0  0  0  0  0
    0.8809    3.3298   10.9772 C   0  0  0  0  0  0  0  0  0  0  0  0
    1.2478    2.4836   12.0372 C   0  0  0  0  0  0  0  0  0  0  0  0
   -0.4905   -0.8517   14.2206 C   0  0  0  0  0  0  0  0  0  0  0  0
   -1.8442   -1.1028   14.0951 C   0  0  0  0  0  0  0  0  0  0  0  0
   -3.7890   -2.9450   11.8694 H   0  0  0  0  0  0  0  0  0  0  0  0
   -5.4296   -2.2481   11.6465 H   0  0  0  0  0  0  0  0  0  0  0  0
   -6.2805   -3.9948   13.2677 H   0  0  0  0  0  0  0  0  0  0  0  0
   -5.6682   -4.6240   11.7006 H   0  0  0  0  0  0  0  0  0  0  0  0
   -5.1886   -5.4786   15.1874 H   0  0  0  0  0  0  0  0  0  0  0  0
   -3.4065   -5.2863   15.0700 H   0  0  0  0  0  0  0  0  0  0  0  0
   -5.5525   -3.2588   15.5826 H   0  0  0  0  0  0  0  0  0  0  0  0
   -3.9978   -3.5542   16.4326 H   0  0  0  0  0  0  0  0  0  0  0  0
   -4.0426   -1.0407   13.2114 H   0  0  0  0  0  0  0  0  0  0  0  0
   -5.5889   -1.6576   13.8860 H   0  0  0  0  0  0  0  0  0  0  0  0
   -2.1511   -3.6632   16.3065 H   0  0  0  0  0  0  0  0  0  0  0  0
    0.2564   -3.2373   16.5165 H   0  0  0  0  0  0  0  0  0  0  0  0
    1.2230    0.3681   13.4273 H   0  0  0  0  0  0  0  0  0  0  0  0
    5.1278    1.9249   13.2288 H   0  0  0  0  0  0  0  0  0  0  0  0
    6.8317    0.9027   15.2742 H   0  0  0  0  0  0  0  0  0  0  0  0
    6.2933   -0.7976   17.2797 H   0  0  0  0  0  0  0  0  0  0  0  0
    4.5824    2.3628   11.2801 H   0  0  0  0  0  0  0  0  0  0  0  0
    3.8693    3.8145    9.4049 H   0  0  0  0  0  0  0  0  0  0  0  0
    1.3844    5.6387    9.1299 H   0  0  0  0  0  0  0  0  0  0  0  0
    1.0603    4.1901    8.1184 H   0  0  0  0  0  0  0  0  0  0  0  0
    0.5241    2.1207   12.7521 H   0  0  0  0  0  0  0  0  0  0  0  0
   -0.0219   -0.0742   13.6356 H   0  0  0  0  0  0  0  0  0  0  0  0
   -2.4269   -0.5150   13.4014 H   0  0  0  0  0  0  0  0  0  0  0  0
  1  2  1  0  0  0  0
  1  7  1  0  0  0  0
  2  3  1  0  0  0  0
  3  4  1  0  0  0  0
  4  5  1  0  0  0  0
  5  6  1  0  0  0  0
  6  7  1  0  0  0  0
  6  8  1  0  0  0  0
  8  9  2  0  0  0  0
  8 32  1  0  0  0  0
  9 10  1  0  0  0  0
 10 11  2  0  0  0  0
 11 12  1  0  0  0  0
 11 31  1  0  0  0  0
 12 13  2  0  0  0  0
 13 14  1  0  0  0  0
 13 21  1  0  0  0  0
 14 15  1  0  0  0  0
 15 16  2  0  0  0  0
 15 22  1  0  0  0  0
 16 17  1  0  0  0  0
 17 18  1  0  0  0  0
 17 21  1  0  0  0  0
 18 19  2  0  0  0  0
 19 20  1  0  0  0  0
 20 21  2  0  0  0  0
 22 23  2  0  0  0  0
 22 30  1  0  0  0  0
 23 24  1  0  0  0  0
 24 25  2  0  0  0  0
 25 26  1  0  0  0  0
 25 29  1  0  0  0  0
 26 27  1  0  0  0  0
 27 28  2  0  0  0  0
 28 29  1  0  0  0  0
 29 30  2  0  0  0  0
 31 32  2  0  0  0  0
  1 33  1  0  0  0  0
  1 34  1  0  0  0  0
  2 35  1  0  0  0  0
  2 36  1  0  0  0  0
  4 37  1  0  0  0  0
  4 38  1  0  0  0  0
  5 39  1  0  0  0  0
  5 40  1  0  0  0  0
  7 41  1  0  0  0  0
  7 42  1  0  0  0  0
  9 43  1  0  0  0  0
 10 44  1  0  0  0  0
 14 45  1  0  0  0  0
 16 46  1  0  0  0  0
 18 47  1  0  0  0  0
 19 48  1  0  0  0  0
 23 49  1  0  0  0  0
 24 50  1  0  0  0  0
 26 51  1  0  0  0  0
 26 52  1  0  0  0  0
 30 53  1  0  0  0  0
 31 54  1  0  0  0  0
 32 55  1  0  0  0  0
M  END
> <IC50[nM]>
23.1

$$$$
CHEMBL3265036
  -OEChem-05192314333D
 Structure written by MMmdl.
 55 60  0     1  0  0  0  0  0999 V2000
   -4.7688   -2.7849   12.3431 C   0  0  0  0  0  0  0  0  0  0  0  0
   -5.3846   -4.1377   12.6456 C   0  0  0  0  0  0  0  0  0  0  0  0
   -4.4594   -4.9732   13.3425 O   0  0  0  0  0  0  0  0  0  0  0  0
   -4.3771   -4.8619   14.7737 C   0  0  0  0  0  0  0  0  0  0  0  0
   -4.4823   -3.4746   15.4482 C   0  0  0  0  0  0  0  0  0  0  0  0
   -3.8932   -2.3265   14.7696 N   0  0  2  0  0  0  0  0  0  0  0  0
   -4.5743   -1.9363   13.5651 C   0  0  0  0  0  0  0  0  0  0  0  0
   -2.4838   -2.1095   14.8521 C   0  0  0  0  0  0  0  0  0  0  0  0
   -1.6944   -2.8761   15.7249 C   0  0  0  0  0  0  0  0  0  0  0  0
   -0.3386   -2.6335   15.8473 C   0  0  0  0  0  0  0  0  0  0  0  0
    0.2634   -1.6168   15.1140 C   0  0  0  0  0  0  0  0  0  0  0  0
    1.6446   -1.3934   15.3516 N   0  0  0  0  0  0  0  0  0  0  0  0
    2.5467   -0.4494   14.7774 C   0  0  0  0  0  0  0  0  0  0  0  0
    2.1622    0.3813   13.7703 N   0  0  0  0  0  0  0  0  0  0  0  0
    3.0905    1.2361   13.2368 C   0  0  0  0  0  0  0  0  0  0  0  0
    4.3967    1.2828   13.6973 C   0  0  0  0  0  0  0  0  0  0  0  0
    4.7322    0.4976   14.7555 N   0  0  0  0  0  0  0  0  0  0  0  0
    5.8998    0.3887   15.4576 C   0  0  0  0  0  0  0  0  0  0  0  0
    5.6143   -0.5477   16.4779 C   0  0  0  0  0  0  0  0  0  0  0  0
    4.4157   -1.0782   16.3290 N   0  0  0  0  0  0  0  0  0  0  0  0
    3.8521   -0.4000   15.3224 C   0  0  0  0  0  0  0  0  0  0  0  0
    2.6115    2.1334   12.1178 C   0  0  0  0  0  0  0  0  0  0  0  0
    3.5406    2.6292   11.1800 C   0  0  0  0  0  0  0  0  0  0  0  0
    3.1477    3.4565   10.1243 C   0  0  0  0  0  0  0  0  0  0  0  0
    1.8039    3.8086   10.0214 C   0  0  0  0  0  0  0  0  0  0  0  0
    1.0010    4.6077    9.1343 C   0  0  0  0  0  0  0  0  0  0  0  0
   -0.2411    4.6153    9.5215 N   0  0  0  0  0  0  0  0  0  0  0  0
   -0.3421    3.8665   10.6189 N   0  0  0  0  0  0  0  0  0  0  0  0
    0.8809    3.3298   10.9772 C   0  0  0  0  0  0  0  0  0  0  0  0
    1.2478    2.4836   12.0372 C   0  0  0  0  0  0  0  0  0  0  0  0
   -0.4905   -0.8517   14.2206 C   0  0  0  0  0  0  0  0  0  0  0  0
   -1.8442   -1.1028   14.0951 C   0  0  0  0  0  0  0  0  0  0  0  0
   -3.7890   -2.9450   11.8694 H   0  0  0  0  0  0  0  0  0  0  0  0
   -5.4296   -2.2481   11.6465 H   0  0  0  0  0  0  0  0  0  0  0  0
   -6.2805   -3.9948   13.2677 H   0  0  0  0  0  0  0  0  0  0  0  0
   -5.6682   -4.6240   11.7006 H   0  0  0  0  0  0  0  0  0  0  0  0
   -5.1886   -5.4786   15.1874 H   0  0  0  0  0  0  0  0  0  0  0  0
   -3.4065   -5.2863   15.0700 H   0  0  0  0  0  0  0  0  0  0  0  0
   -5.5525   -3.2588   15.5826 H   0  0  0  0  0  0  0  0  0  0  0  0
   -3.9978   -3.5542   16.4326 H   0  0  0  0  0  0  0  0  0  0  0  0
   -4.0426   -1.0407   13.2114 H   0  0  0  0  0  0  0  0  0  0  0  0
   -5.5889   -1.6576   13.8860 H   0  0  0  0  0  0  0  0  0  0  0  0
   -2.1511   -3.6632   16.3065 H   0  0  0  0  0  0  0  0  0  0  0  0
    0.2564   -3.2373   16.5165 H   0  0  0  0  0  0  0  0  0  0  0  0
    5.0488    0.9967   12.8589 H   0  0  0  0  0  0  0  0  0  0  0  0
    4.6044    2.3241   13.9847 H   0  0  0  0  0  0  0  0  0  0  0  0
    6.8317    0.9027   15.2742 H   0  0  0  0  0  0  0  0  0  0  0  0
    6.2933   -0.7976   17.2797 H   0  0  0  0  0  0  0  0  0  0  0  0
    4.5824    2.3628   11.2801 H   0  0  0  0  0  0  0  0  0  0  0  0
    3.8693    3.8145    9.4049 H   0  0  0  0  0  0  0  0  0  0  0  0
    1.3774    5.1292    8.2667 H   0  0  0  0  0  0  0  0  0  0  0  0
   -1.1938    3.7123   11.1197 H   0  0  0  0  0  0  0  0  0  0  0  0
    0.5241    2.1207   12.7521 H   0  0  0  0  0  0  0  0  0  0  0  0
   -0.0219   -0.0742   13.6356 H   0  0  0  0  0  0  0  0  0  0  0  0
   -2.4269   -0.5150   13.4014 H   0  0  0  0  0  0  0  0  0  0  0  0
  1  2  1  0  0  0  0
  1  7  1  0  0  0  0
  2  3  1  0  0  0  0
  3  4  1  0  0  0  0
  4  5  1  0  0  0  0
  5  6  1  0  0  0  0
  6  7  1  0  0  0  0
  6  8  1  0  0  0  0
  8  9  2  0  0  0  0
  8 32  1  0  0  0  0
  9 10  1  0  0  0  0
 10 11  2  0  0  0  0
 11 12  1  0  0  0  0
 11 31  1  0  0  0  0
 12 13  2  0  0  0  0
 13 14  1  0  0  0  0
 13 21  1  0  0  0  0
 14 15  2  0  0  0  0
 15 16  1  0  0  0  0
 15 22  1  0  0  0  0
 16 17  1  0  0  0  0
 17 18  1  0  0  0  0
 17 21  1  0  0  0  0
 18 19  2  0  0  0  0
 19 20  1  0  0  0  0
 20 21  2  0  0  0  0
 22 23  2  0  0  0  0
 22 30  1  0  0  0  0
 23 24  1  0  0  0  0
 24 25  2  0  0  0  0
 25 26  1  0  0  0  0
 25 29  1  0  0  0  0
 26 27  2  0  0  0  0
 27 28  1  0  0  0  0
 28 29  1  0  0  0  0
 29 30  2  0  0  0  0
 31 32  2  0  0  0  0
  1 33  1  0  0  0  0
  1 34  1  0  0  0  0
  2 35  1  0  0  0  0
  2 36  1  0  0  0  0
  4 37  1  0  0  0  0
  4 38  1  0  0  0  0
  5 39  1  0  0  0  0
  5 40  1  0  0  0  0
  7 41  1  0  0  0  0
  7 42  1  0  0  0  0
  9 43  1  0  0  0  0
 10 44  1  0  0  0  0
 16 45  1  0  0  0  0
 16 46  1  0  0  0  0
 18 47  1  0  0  0  0
 19 48  1  0  0  0  0
 23 49  1  0  0  0  0
 24 50  1  0  0  0  0
 26 51  1  0  0  0  0
 28 52  1  0  0  0  0
 30 53  1  0  0  0  0
 31 54  1  0  0  0  0
 32 55  1  0  0  0  0
M  END
> <IC50[nM]>
23.1

$$$$
CHEMBL3265036
  -OEChem-05192314333D
 Structure written by MMmdl.
 55 60  0     1  0  0  0  0  0999 V2000
   -4.7688   -2.7849   12.3431 C   0  0  0  0  0  0  0  0  0  0  0  0
   -5.3846   -4.1377   12.6456 C   0  0  0  0  0  0  0  0  0  0  0  0
   -4.4594   -4.9732   13.3425 O   0  0  0  0  0  0  0  0  0  0  0  0
   -4.3771   -4.8619   14.7737 C   0  0  0  0  0  0  0  0  0  0  0  0
   -4.4823   -3.4746   15.4482 C   0  0  0  0  0  0  0  0  0  0  0  0
   -3.8932   -2.3265   14.7696 N   0  0  2  0  0  0  0  0  0  0  0  0
   -4.5743   -1.9363   13.5651 C   0  0  0  0  0  0  0  0  0  0  0  0
   -2.4838   -2.1095   14.8521 C   0  0  0  0  0  0  0  0  0  0  0  0
   -1.6944   -2.8761   15.7249 C   0  0  0  0  0  0  0  0  0  0  0  0
   -0.3386   -2.6335   15.8473 C   0  0  0  0  0  0  0  0  0  0  0  0
    0.2634   -1.6168   15.1140 C   0  0  0  0  0  0  0  0  0  0  0  0
    1.6446   -1.3934   15.3516 N   0  0  0  0  0  0  0  0  0  0  0  0
    2.5467   -0.4494   14.7774 C   0  0  0  0  0  0  0  0  0  0  0  0
    2.1622    0.3813   13.7703 N   0  0  0  0  0  0  0  0  0  0  0  0
    3.0905    1.2361   13.2368 C   0  0  0  0  0  0  0  0  0  0  0  0
    4.3967    1.2828   13.6973 C   0  0  0  0  0  0  0  0  0  0  0  0
    4.7322    0.4976   14.7555 N   0  0  0  0  0  0  0  0  0  0  0  0
    5.8998    0.3887   15.4576 C   0  0  0  0  0  0  0  0  0  0  0  0
    5.6143   -0.5477   16.4779 C   0  0  0  0  0  0  0  0  0  0  0  0
    4.4157   -1.0782   16.3290 N   0  0  0  0  0  0  0  0  0  0  0  0
    3.8521   -0.4000   15.3224 C   0  0  0  0  0  0  0  0  0  0  0  0
    2.6115    2.1334   12.1178 C   0  0  0  0  0  0  0  0  0  0  0  0
    3.5406    2.6292   11.1800 C   0  0  0  0  0  0  0  0  0  0  0  0
    3.1477    3.4565   10.1243 C   0  0  0  0  0  0  0  0  0  0  0  0
    1.8039    3.8086   10.0214 C   0  0  0  0  0  0  0  0  0  0  0  0
    1.0010    4.6077    9.1343 C   0  0  0  0  0  0  0  0  0  0  0  0
   -0.2411    4.6153    9.5215 N   0  0  0  0  0  0  0  0  0  0  0  0
   -0.3421    3.8665   10.6189 N   0  0  0  0  0  0  0  0  0  0  0  0
    0.8809    3.3298   10.9772 C   0  0  0  0  0  0  0  0  0  0  0  0
    1.2478    2.4836   12.0372 C   0  0  0  0  0  0  0  0  0  0  0  0
   -0.4905   -0.8517   14.2206 C   0  0  0  0  0  0  0  0  0  0  0  0
   -1.8442   -1.1028   14.0951 C   0  0  0  0  0  0  0  0  0  0  0  0
   -3.7890   -2.9450   11.8694 H   0  0  0  0  0  0  0  0  0  0  0  0
   -5.4296   -2.2481   11.6465 H   0  0  0  0  0  0  0  0  0  0  0  0
   -6.2805   -3.9948   13.2677 H   0  0  0  0  0  0  0  0  0  0  0  0
   -5.6682   -4.6240   11.7006 H   0  0  0  0  0  0  0  0  0  0  0  0
   -5.1886   -5.4786   15.1874 H   0  0  0  0  0  0  0  0  0  0  0  0
   -3.4065   -5.2863   15.0700 H   0  0  0  0  0  0  0  0  0  0  0  0
   -5.5525   -3.2588   15.5826 H   0  0  0  0  0  0  0  0  0  0  0  0
   -3.9978   -3.5542   16.4326 H   0  0  0  0  0  0  0  0  0  0  0  0
   -4.0426   -1.0407   13.2114 H   0  0  0  0  0  0  0  0  0  0  0  0
   -5.5889   -1.6576   13.8860 H   0  0  0  0  0  0  0  0  0  0  0  0
   -2.1511   -3.6632   16.3065 H   0  0  0  0  0  0  0  0  0  0  0  0
    0.2564   -3.2373   16.5165 H   0  0  0  0  0  0  0  0  0  0  0  0
    5.0488    0.9967   12.8589 H   0  0  0  0  0  0  0  0  0  0  0  0
    4.6044    2.3241   13.9847 H   0  0  0  0  0  0  0  0  0  0  0  0
    6.8317    0.9027   15.2742 H   0  0  0  0  0  0  0  0  0  0  0  0
    6.2933   -0.7976   17.2797 H   0  0  0  0  0  0  0  0  0  0  0  0
    4.5824    2.3628   11.2801 H   0  0  0  0  0  0  0  0  0  0  0  0
    3.8693    3.8145    9.4049 H   0  0  0  0  0  0  0  0  0  0  0  0
    1.3774    5.1292    8.2667 H   0  0  0  0  0  0  0  0  0  0  0  0
   -0.9915    5.1002    9.0723 H   0  0  0  0  0  0  0  0  0  0  0  0
    0.5241    2.1207   12.7521 H   0  0  0  0  0  0  0  0  0  0  0  0
   -0.0219   -0.0742   13.6356 H   0  0  0  0  0  0  0  0  0  0  0  0
   -2.4269   -0.5150   13.4014 H   0  0  0  0  0  0  0  0  0  0  0  0
  1  2  1  0  0  0  0
  1  7  1  0  0  0  0
  2  3  1  0  0  0  0
  3  4  1  0  0  0  0
  4  5  1  0  0  0  0
  5  6  1  0  0  0  0
  6  7  1  0  0  0  0
  6  8  1  0  0  0  0
  8  9  2  0  0  0  0
  8 32  1  0  0  0  0
  9 10  1  0  0  0  0
 10 11  2  0  0  0  0
 11 12  1  0  0  0  0
 11 31  1  0  0  0  0
 12 13  2  0  0  0  0
 13 14  1  0  0  0  0
 13 21  1  0  0  0  0
 14 15  2  0  0  0  0
 15 16  1  0  0  0  0
 15 22  1  0  0  0  0
 16 17  1  0  0  0  0
 17 18  1  0  0  0  0
 17 21  1  0  0  0  0
 18 19  2  0  0  0  0
 19 20  1  0  0  0  0
 20 21  2  0  0  0  0
 22 23  1  0  0  0  0
 22 30  2  0  0  0  0
 23 24  2  0  0  0  0
 24 25  1  0  0  0  0
 25 26  2  0  0  0  0
 25 29  1  0  0  0  0
 26 27  1  0  0  0  0
 27 28  1  0  0  0  0
 28 29  2  0  0  0  0
 29 30  1  0  0  0  0
 31 32  2  0  0  0  0
  1 33  1  0  0  0  0
  1 34  1  0  0  0  0
  2 35  1  0  0  0  0
  2 36  1  0  0  0  0
  4 37  1  0  0  0  0
  4 38  1  0  0  0  0
  5 39  1  0  0  0  0
  5 40  1  0  0  0  0
  7 41  1  0  0  0  0
  7 42  1  0  0  0  0
  9 43  1  0  0  0  0
 10 44  1  0  0  0  0
 16 45  1  0  0  0  0
 16 46  1  0  0  0  0
 18 47  1  0  0  0  0
 19 48  1  0  0  0  0
 23 49  1  0  0  0  0
 24 50  1  0  0  0  0
 26 51  1  0  0  0  0
 27 52  1  0  0  0  0
 30 53  1  0  0  0  0
 31 54  1  0  0  0  0
 32 55  1  0  0  0  0
M  END
> <IC50[nM]>
23.1

$$$$
CHEMBL3265036
  -OEChem-05192314333D
 Structure written by MMmdl.
 55 60  0     1  0  0  0  0  0999 V2000
   -4.7688   -2.7849   12.3431 C   0  0  0  0  0  0  0  0  0  0  0  0
   -5.3846   -4.1377   12.6456 C   0  0  0  0  0  0  0  0  0  0  0  0
   -4.4594   -4.9732   13.3425 O   0  0  0  0  0  0  0  0  0  0  0  0
   -4.3771   -4.8619   14.7737 C   0  0  0  0  0  0  0  0  0  0  0  0
   -4.4823   -3.4746   15.4482 C   0  0  0  0  0  0  0  0  0  0  0  0
   -3.8932   -2.3265   14.7696 N   0  0  2  0  0  0  0  0  0  0  0  0
   -4.5743   -1.9363   13.5651 C   0  0  0  0  0  0  0  0  0  0  0  0
   -2.4838   -2.1095   14.8521 C   0  0  0  0  0  0  0  0  0  0  0  0
   -1.6944   -2.8761   15.7249 C   0  0  0  0  0  0  0  0  0  0  0  0
   -0.3386   -2.6335   15.8473 C   0  0  0  0  0  0  0  0  0  0  0  0
    0.2634   -1.6168   15.1140 C   0  0  0  0  0  0  0  0  0  0  0  0
    1.6446   -1.3934   15.3516 N   0  0  0  0  0  0  0  0  0  0  0  0
    2.5467   -0.4494   14.7774 C   0  0  0  0  0  0  0  0  0  0  0  0
    2.1622    0.3813   13.7703 N   0  0  0  0  0  0  0  0  0  0  0  0
    3.0905    1.2361   13.2368 C   0  0  0  0  0  0  0  0  0  0  0  0
    4.3967    1.2828   13.6973 C   0  0  0  0  0  0  0  0  0  0  0  0
    4.7322    0.4976   14.7555 N   0  0  0  0  0  0  0  0  0  0  0  0
    5.8998    0.3887   15.4576 C   0  0  0  0  0  0  0  0  0  0  0  0
    5.6143   -0.5477   16.4779 C   0  0  0  0  0  0  0  0  0  0  0  0
    4.4157   -1.0782   16.3290 N   0  0  0  0  0  0  0  0  0  0  0  0
    3.8521   -0.4000   15.3224 C   0  0  0  0  0  0  0  0  0  0  0  0
    2.6115    2.1334   12.1178 C   0  0  0  0  0  0  0  0  0  0  0  0
    3.5406    2.6292   11.1800 C   0  0  0  0  0  0  0  0  0  0  0  0
    3.1477    3.4565   10.1243 C   0  0  0  0  0  0  0  0  0  0  0  0
    1.8039    3.8086   10.0214 C   0  0  0  0  0  0  0  0  0  0  0  0
    1.0010    4.6077    9.1343 C   0  0  0  0  0  0  0  0  0  0  0  0
   -0.2411    4.6153    9.5215 N   0  0  0  0  0  0  0  0  0  0  0  0
   -0.3421    3.8665   10.6189 N   0  0  0  0  0  0  0  0  0  0  0  0
    0.8809    3.3298   10.9772 C   0  0  0  0  0  0  0  0  0  0  0  0
    1.2478    2.4836   12.0372 C   0  0  0  0  0  0  0  0  0  0  0  0
   -0.4905   -0.8517   14.2206 C   0  0  0  0  0  0  0  0  0  0  0  0
   -1.8442   -1.1028   14.0951 C   0  0  0  0  0  0  0  0  0  0  0  0
   -3.7890   -2.9450   11.8694 H   0  0  0  0  0  0  0  0  0  0  0  0
   -5.4296   -2.2481   11.6465 H   0  0  0  0  0  0  0  0  0  0  0  0
   -6.2805   -3.9948   13.2677 H   0  0  0  0  0  0  0  0  0  0  0  0
   -5.6682   -4.6240   11.7006 H   0  0  0  0  0  0  0  0  0  0  0  0
   -5.1886   -5.4786   15.1874 H   0  0  0  0  0  0  0  0  0  0  0  0
   -3.4065   -5.2863   15.0700 H   0  0  0  0  0  0  0  0  0  0  0  0
   -5.5525   -3.2588   15.5826 H   0  0  0  0  0  0  0  0  0  0  0  0
   -3.9978   -3.5542   16.4326 H   0  0  0  0  0  0  0  0  0  0  0  0
   -4.0426   -1.0407   13.2114 H   0  0  0  0  0  0  0  0  0  0  0  0
   -5.5889   -1.6576   13.8860 H   0  0  0  0  0  0  0  0  0  0  0  0
   -2.3149   -2.8373   14.0447 H   0  0  0  0  0  0  0  0  0  0  0  0
   -2.1511   -3.6632   16.3065 H   0  0  0  0  0  0  0  0  0  0  0  0
    0.2564   -3.2373   16.5165 H   0  0  0  0  0  0  0  0  0  0  0  0
    5.1278    1.9249   13.2288 H   0  0  0  0  0  0  0  0  0  0  0  0
    6.8317    0.9027   15.2742 H   0  0  0  0  0  0  0  0  0  0  0  0
    6.2933   -0.7976   17.2797 H   0  0  0  0  0  0  0  0  0  0  0  0
    4.5824    2.3628   11.2801 H   0  0  0  0  0  0  0  0  0  0  0  0
    3.8693    3.8145    9.4049 H   0  0  0  0  0  0  0  0  0  0  0  0
    1.3774    5.1292    8.2667 H   0  0  0  0  0  0  0  0  0  0  0  0
   -1.1938    3.7123   11.1197 H   0  0  0  0  0  0  0  0  0  0  0  0
    0.5241    2.1207   12.7521 H   0  0  0  0  0  0  0  0  0  0  0  0
   -0.0219   -0.0742   13.6356 H   0  0  0  0  0  0  0  0  0  0  0  0
   -2.4269   -0.5150   13.4014 H   0  0  0  0  0  0  0  0  0  0  0  0
  1  2  1  0  0  0  0
  1  7  1  0  0  0  0
  2  3  1  0  0  0  0
  3  4  1  0  0  0  0
  4  5  1  0  0  0  0
  5  6  1  0  0  0  0
  6  7  1  0  0  0  0
  6  8  1  0  0  0  0
  8  9  1  0  0  0  0
  8 32  1  0  0  0  0
  9 10  2  0  0  0  0
 10 11  1  0  0  0  0
 11 12  2  0  0  0  0
 11 31  1  0  0  0  0
 12 13  1  0  0  0  0
 13 14  2  0  0  0  0
 13 21  1  0  0  0  0
 14 15  1  0  0  0  0
 15 16  2  0  0  0  0
 15 22  1  0  0  0  0
 16 17  1  0  0  0  0
 17 18  1  0  0  0  0
 17 21  1  0  0  0  0
 18 19  2  0  0  0  0
 19 20  1  0  0  0  0
 20 21  2  0  0  0  0
 22 23  2  0  0  0  0
 22 30  1  0  0  0  0
 23 24  1  0  0  0  0
 24 25  2  0  0  0  0
 25 26  1  0  0  0  0
 25 29  1  0  0  0  0
 26 27  2  0  0  0  0
 27 28  1  0  0  0  0
 28 29  1  0  0  0  0
 29 30  2  0  0  0  0
 31 32  2  0  0  0  0
  1 33  1  0  0  0  0
  1 34  1  0  0  0  0
  2 35  1  0  0  0  0
  2 36  1  0  0  0  0
  4 37  1  0  0  0  0
  4 38  1  0  0  0  0
  5 39  1  0  0  0  0
  5 40  1  0  0  0  0
  7 41  1  0  0  0  0
  7 42  1  0  0  0  0
  8 43  1  0  0  0  0
  9 44  1  0  0  0  0
 10 45  1  0  0  0  0
 16 46  1  0  0  0  0
 18 47  1  0  0  0  0
 19 48  1  0  0  0  0
 23 49  1  0  0  0  0
 24 50  1  0  0  0  0
 26 51  1  0  0  0  0
 28 52  1  0  0  0  0
 30 53  1  0  0  0  0
 31 54  1  0  0  0  0
 32 55  1  0  0  0  0
M  END
> <IC50[nM]>
23.1

$$$$
CHEMBL3265036
  -OEChem-05192314333D
 Structure written by MMmdl.
 55 60  0     1  0  0  0  0  0999 V2000
   -4.7688   -2.7849   12.3431 C   0  0  0  0  0  0  0  0  0  0  0  0
   -5.3846   -4.1377   12.6456 C   0  0  0  0  0  0  0  0  0  0  0  0
   -4.4594   -4.9732   13.3425 O   0  0  0  0  0  0  0  0  0  0  0  0
   -4.3771   -4.8619   14.7737 C   0  0  0  0  0  0  0  0  0  0  0  0
   -4.4823   -3.4746   15.4482 C   0  0  0  0  0  0  0  0  0  0  0  0
   -3.8932   -2.3265   14.7696 N   0  0  2  0  0  0  0  0  0  0  0  0
   -4.5743   -1.9363   13.5651 C   0  0  0  0  0  0  0  0  0  0  0  0
   -2.4838   -2.1095   14.8521 C   0  0  0  0  0  0  0  0  0  0  0  0
   -1.6944   -2.8761   15.7249 C   0  0  0  0  0  0  0  0  0  0  0  0
   -0.3386   -2.6335   15.8473 C   0  0  0  0  0  0  0  0  0  0  0  0
    0.2634   -1.6168   15.1140 C   0  0  0  0  0  0  0  0  0  0  0  0
    1.6446   -1.3934   15.3516 N   0  0  0  0  0  0  0  0  0  0  0  0
    2.5467   -0.4494   14.7774 C   0  0  0  0  0  0  0  0  0  0  0  0
    2.1622    0.3813   13.7703 N   0  0  0  0  0  0  0  0  0  0  0  0
    3.0905    1.2361   13.2368 C   0  0  0  0  0  0  0  0  0  0  0  0
    4.3967    1.2828   13.6973 C   0  0  0  0  0  0  0  0  0  0  0  0
    4.7322    0.4976   14.7555 N   0  0  0  0  0  0  0  0  0  0  0  0
    5.8998    0.3887   15.4576 C   0  0  0  0  0  0  0  0  0  0  0  0
    5.6143   -0.5477   16.4779 C   0  0  0  0  0  0  0  0  0  0  0  0
    4.4157   -1.0782   16.3290 N   0  0  0  0  0  0  0  0  0  0  0  0
    3.8521   -0.4000   15.3224 C   0  0  0  0  0  0  0  0  0  0  0  0
    2.6115    2.1334   12.1178 C   0  0  0  0  0  0  0  0  0  0  0  0
    3.5406    2.6292   11.1800 C   0  0  0  0  0  0  0  0  0  0  0  0
    3.1477    3.4565   10.1243 C   0  0  0  0  0  0  0  0  0  0  0  0
    1.8039    3.8086   10.0214 C   0  0  0  0  0  0  0  0  0  0  0  0
    1.0010    4.6077    9.1343 C   0  0  0  0  0  0  0  0  0  0  0  0
   -0.2411    4.6153    9.5215 N   0  0  0  0  0  0  0  0  0  0  0  0
   -0.3421    3.8665   10.6189 N   0  0  0  0  0  0  0  0  0  0  0  0
    0.8809    3.3298   10.9772 C   0  0  0  0  0  0  0  0  0  0  0  0
    1.2478    2.4836   12.0372 C   0  0  0  0  0  0  0  0  0  0  0  0
   -0.4905   -0.8517   14.2206 C   0  0  0  0  0  0  0  0  0  0  0  0
   -1.8442   -1.1028   14.0951 C   0  0  0  0  0  0  0  0  0  0  0  0
   -3.7890   -2.9450   11.8694 H   0  0  0  0  0  0  0  0  0  0  0  0
   -5.4296   -2.2481   11.6465 H   0  0  0  0  0  0  0  0  0  0  0  0
   -6.2805   -3.9948   13.2677 H   0  0  0  0  0  0  0  0  0  0  0  0
   -5.6682   -4.6240   11.7006 H   0  0  0  0  0  0  0  0  0  0  0  0
   -5.1886   -5.4786   15.1874 H   0  0  0  0  0  0  0  0  0  0  0  0
   -3.4065   -5.2863   15.0700 H   0  0  0  0  0  0  0  0  0  0  0  0
   -5.5525   -3.2588   15.5826 H   0  0  0  0  0  0  0  0  0  0  0  0
   -3.9978   -3.5542   16.4326 H   0  0  0  0  0  0  0  0  0  0  0  0
   -4.0426   -1.0407   13.2114 H   0  0  0  0  0  0  0  0  0  0  0  0
   -5.5889   -1.6576   13.8860 H   0  0  0  0  0  0  0  0  0  0  0  0
   -2.3149   -2.8373   14.0447 H   0  0  0  0  0  0  0  0  0  0  0  0
   -2.1511   -3.6632   16.3065 H   0  0  0  0  0  0  0  0  0  0  0  0
    0.2564   -3.2373   16.5165 H   0  0  0  0  0  0  0  0  0  0  0  0
    5.1278    1.9249   13.2288 H   0  0  0  0  0  0  0  0  0  0  0  0
    6.8317    0.9027   15.2742 H   0  0  0  0  0  0  0  0  0  0  0  0
    6.2933   -0.7976   17.2797 H   0  0  0  0  0  0  0  0  0  0  0  0
    4.5824    2.3628   11.2801 H   0  0  0  0  0  0  0  0  0  0  0  0
    3.8693    3.8145    9.4049 H   0  0  0  0  0  0  0  0  0  0  0  0
    1.3774    5.1292    8.2667 H   0  0  0  0  0  0  0  0  0  0  0  0
   -0.9915    5.1002    9.0723 H   0  0  0  0  0  0  0  0  0  0  0  0
    0.5241    2.1207   12.7521 H   0  0  0  0  0  0  0  0  0  0  0  0
   -0.0219   -0.0742   13.6356 H   0  0  0  0  0  0  0  0  0  0  0  0
   -2.4269   -0.5150   13.4014 H   0  0  0  0  0  0  0  0  0  0  0  0
  1  2  1  0  0  0  0
  1  7  1  0  0  0  0
  2  3  1  0  0  0  0
  3  4  1  0  0  0  0
  4  5  1  0  0  0  0
  5  6  1  0  0  0  0
  6  7  1  0  0  0  0
  6  8  1  0  0  0  0
  8  9  1  0  0  0  0
  8 32  1  0  0  0  0
  9 10  2  0  0  0  0
 10 11  1  0  0  0  0
 11 12  2  0  0  0  0
 11 31  1  0  0  0  0
 12 13  1  0  0  0  0
 13 14  2  0  0  0  0
 13 21  1  0  0  0  0
 14 15  1  0  0  0  0
 15 16  2  0  0  0  0
 15 22  1  0  0  0  0
 16 17  1  0  0  0  0
 17 18  1  0  0  0  0
 17 21  1  0  0  0  0
 18 19  2  0  0  0  0
 19 20  1  0  0  0  0
 20 21  2  0  0  0  0
 22 23  1  0  0  0  0
 22 30  2  0  0  0  0
 23 24  2  0  0  0  0
 24 25  1  0  0  0  0
 25 26  2  0  0  0  0
 25 29  1  0  0  0  0
 26 27  1  0  0  0  0
 27 28  1  0  0  0  0
 28 29  2  0  0  0  0
 29 30  1  0  0  0  0
 31 32  2  0  0  0  0
  1 33  1  0  0  0  0
  1 34  1  0  0  0  0
  2 35  1  0  0  0  0
  2 36  1  0  0  0  0
  4 37  1  0  0  0  0
  4 38  1  0  0  0  0
  5 39  1  0  0  0  0
  5 40  1  0  0  0  0
  7 41  1  0  0  0  0
  7 42  1  0  0  0  0
  8 43  1  0  0  0  0
  9 44  1  0  0  0  0
 10 45  1  0  0  0  0
 16 46  1  0  0  0  0
 18 47  1  0  0  0  0
 19 48  1  0  0  0  0
 23 49  1  0  0  0  0
 24 50  1  0  0  0  0
 26 51  1  0  0  0  0
 27 52  1  0  0  0  0
 30 53  1  0  0  0  0
 31 54  1  0  0  0  0
 32 55  1  0  0  0  0
M  END
> <IC50[nM]>
23.1

$$$$
CHEMBL3265036
  -OEChem-05192314333D
 Structure written by MMmdl.
 55 60  0     1  0  0  0  0  0999 V2000
   -4.7688   -2.7849   12.3431 C   0  0  0  0  0  0  0  0  0  0  0  0
   -5.3846   -4.1377   12.6456 C   0  0  0  0  0  0  0  0  0  0  0  0
   -4.4594   -4.9732   13.3425 O   0  0  0  0  0  0  0  0  0  0  0  0
   -4.3771   -4.8619   14.7737 C   0  0  0  0  0  0  0  0  0  0  0  0
   -4.4823   -3.4746   15.4482 C   0  0  0  0  0  0  0  0  0  0  0  0
   -3.8932   -2.3265   14.7696 N   0  0  2  0  0  0  0  0  0  0  0  0
   -4.5743   -1.9363   13.5651 C   0  0  0  0  0  0  0  0  0  0  0  0
   -2.4838   -2.1095   14.8521 C   0  0  0  0  0  0  0  0  0  0  0  0
   -1.6944   -2.8761   15.7249 C   0  0  0  0  0  0  0  0  0  0  0  0
   -0.3386   -2.6335   15.8473 C   0  0  0  0  0  0  0  0  0  0  0  0
    0.2634   -1.6168   15.1140 C   0  0  0  0  0  0  0  0  0  0  0  0
    1.6446   -1.3934   15.3516 N   0  0  0  0  0  0  0  0  0  0  0  0
    2.5467   -0.4494   14.7774 C   0  0  0  0  0  0  0  0  0  0  0  0
    2.1622    0.3813   13.7703 N   0  0  0  0  0  0  0  0  0  0  0  0
    3.0905    1.2361   13.2368 C   0  0  0  0  0  0  0  0  0  0  0  0
    4.3967    1.2828   13.6973 C   0  0  0  0  0  0  0  0  0  0  0  0
    4.7322    0.4976   14.7555 N   0  0  0  0  0  0  0  0  0  0  0  0
    5.8998    0.3887   15.4576 C   0  0  0  0  0  0  0  0  0  0  0  0
    5.6143   -0.5477   16.4779 C   0  0  0  0  0  0  0  0  0  0  0  0
    4.4157   -1.0782   16.3290 N   0  0  0  0  0  0  0  0  0  0  0  0
    3.8521   -0.4000   15.3224 C   0  0  0  0  0  0  0  0  0  0  0  0
    2.6115    2.1334   12.1178 C   0  0  0  0  0  0  0  0  0  0  0  0
    3.5406    2.6292   11.1800 C   0  0  0  0  0  0  0  0  0  0  0  0
    3.1477    3.4565   10.1243 C   0  0  0  0  0  0  0  0  0  0  0  0
    1.8039    3.8086   10.0214 C   0  0  0  0  0  0  0  0  0  0  0  0
    1.0010    4.6077    9.1343 C   0  0  0  0  0  0  0  0  0  0  0  0
   -0.2411    4.6153    9.5215 N   0  0  0  0  0  0  0  0  0  0  0  0
   -0.3421    3.8665   10.6189 N   0  0  0  0  0  0  0  0  0  0  0  0
    0.8809    3.3298   10.9772 C   0  0  0  0  0  0  0  0  0  0  0  0
    1.2478    2.4836   12.0372 C   0  0  0  0  0  0  0  0  0  0  0  0
   -0.4905   -0.8517   14.2206 C   0  0  0  0  0  0  0  0  0  0  0  0
   -1.8442   -1.1028   14.0951 C   0  0  0  0  0  0  0  0  0  0  0  0
   -3.7890   -2.9450   11.8694 H   0  0  0  0  0  0  0  0  0  0  0  0
   -5.4296   -2.2481   11.6465 H   0  0  0  0  0  0  0  0  0  0  0  0
   -6.2805   -3.9948   13.2677 H   0  0  0  0  0  0  0  0  0  0  0  0
   -5.6682   -4.6240   11.7006 H   0  0  0  0  0  0  0  0  0  0  0  0
   -5.1886   -5.4786   15.1874 H   0  0  0  0  0  0  0  0  0  0  0  0
   -3.4065   -5.2863   15.0700 H   0  0  0  0  0  0  0  0  0  0  0  0
   -5.5525   -3.2588   15.5826 H   0  0  0  0  0  0  0  0  0  0  0  0
   -3.9978   -3.5542   16.4326 H   0  0  0  0  0  0  0  0  0  0  0  0
   -4.0426   -1.0407   13.2114 H   0  0  0  0  0  0  0  0  0  0  0  0
   -5.5889   -1.6576   13.8860 H   0  0  0  0  0  0  0  0  0  0  0  0
   -2.1511   -3.6632   16.3065 H   0  0  0  0  0  0  0  0  0  0  0  0
    0.2564   -3.2373   16.5165 H   0  0  0  0  0  0  0  0  0  0  0  0
    5.1278    1.9249   13.2288 H   0  0  0  0  0  0  0  0  0  0  0  0
    6.8317    0.9027   15.2742 H   0  0  0  0  0  0  0  0  0  0  0  0
    6.2933   -0.7976   17.2797 H   0  0  0  0  0  0  0  0  0  0  0  0
    4.5824    2.3628   11.2801 H   0  0  0  0  0  0  0  0  0  0  0  0
    3.8693    3.8145    9.4049 H   0  0  0  0  0  0  0  0  0  0  0  0
    1.3774    5.1292    8.2667 H   0  0  0  0  0  0  0  0  0  0  0  0
   -1.1938    3.7123   11.1197 H   0  0  0  0  0  0  0  0  0  0  0  0
    0.5241    2.1207   12.7521 H   0  0  0  0  0  0  0  0  0  0  0  0
   -0.3855    0.1990   14.5288 H   0  0  0  0  0  0  0  0  0  0  0  0
   -0.0444   -0.9880   13.2244 H   0  0  0  0  0  0  0  0  0  0  0  0
   -2.4269   -0.5150   13.4014 H   0  0  0  0  0  0  0  0  0  0  0  0
  1  2  1  0  0  0  0
  1  7  1  0  0  0  0
  2  3  1  0  0  0  0
  3  4  1  0  0  0  0
  4  5  1  0  0  0  0
  5  6  1  0  0  0  0
  6  7  1  0  0  0  0
  6  8  1  0  0  0  0
  8  9  1  0  0  0  0
  8 32  2  0  0  0  0
  9 10  2  0  0  0  0
 10 11  1  0  0  0  0
 11 12  2  0  0  0  0
 11 31  1  0  0  0  0
 12 13  1  0  0  0  0
 13 14  2  0  0  0  0
 13 21  1  0  0  0  0
 14 15  1  0  0  0  0
 15 16  2  0  0  0  0
 15 22  1  0  0  0  0
 16 17  1  0  0  0  0
 17 18  1  0  0  0  0
 17 21  1  0  0  0  0
 18 19  2  0  0  0  0
 19 20  1  0  0  0  0
 20 21  2  0  0  0  0
 22 23  2  0  0  0  0
 22 30  1  0  0  0  0
 23 24  1  0  0  0  0
 24 25  2  0  0  0  0
 25 26  1  0  0  0  0
 25 29  1  0  0  0  0
 26 27  2  0  0  0  0
 27 28  1  0  0  0  0
 28 29  1  0  0  0  0
 29 30  2  0  0  0  0
 31 32  1  0  0  0  0
  1 33  1  0  0  0  0
  1 34  1  0  0  0  0
  2 35  1  0  0  0  0
  2 36  1  0  0  0  0
  4 37  1  0  0  0  0
  4 38  1  0  0  0  0
  5 39  1  0  0  0  0
  5 40  1  0  0  0  0
  7 41  1  0  0  0  0
  7 42  1  0  0  0  0
  9 43  1  0  0  0  0
 10 44  1  0  0  0  0
 16 45  1  0  0  0  0
 18 46  1  0  0  0  0
 19 47  1  0  0  0  0
 23 48  1  0  0  0  0
 24 49  1  0  0  0  0
 26 50  1  0  0  0  0
 28 51  1  0  0  0  0
 30 52  1  0  0  0  0
 31 53  1  0  0  0  0
 31 54  1  0  0  0  0
 32 55  1  0  0  0  0
M  END
> <IC50[nM]>
23.1

$$$$
CHEMBL3265036
  -OEChem-05192314333D
 Structure written by MMmdl.
 55 60  0     1  0  0  0  0  0999 V2000
   -4.7688   -2.7849   12.3431 C   0  0  0  0  0  0  0  0  0  0  0  0
   -5.3846   -4.1377   12.6456 C   0  0  0  0  0  0  0  0  0  0  0  0
   -4.4594   -4.9732   13.3425 O   0  0  0  0  0  0  0  0  0  0  0  0
   -4.3771   -4.8619   14.7737 C   0  0  0  0  0  0  0  0  0  0  0  0
   -4.4823   -3.4746   15.4482 C   0  0  0  0  0  0  0  0  0  0  0  0
   -3.8932   -2.3265   14.7696 N   0  0  2  0  0  0  0  0  0  0  0  0
   -4.5743   -1.9363   13.5651 C   0  0  0  0  0  0  0  0  0  0  0  0
   -2.4838   -2.1095   14.8521 C   0  0  0  0  0  0  0  0  0  0  0  0
   -1.6944   -2.8761   15.7249 C   0  0  0  0  0  0  0  0  0  0  0  0
   -0.3386   -2.6335   15.8473 C   0  0  0  0  0  0  0  0  0  0  0  0
    0.2634   -1.6168   15.1140 C   0  0  0  0  0  0  0  0  0  0  0  0
    1.6446   -1.3934   15.3516 N   0  0  0  0  0  0  0  0  0  0  0  0
    2.5467   -0.4494   14.7774 C   0  0  0  0  0  0  0  0  0  0  0  0
    2.1622    0.3813   13.7703 N   0  0  0  0  0  0  0  0  0  0  0  0
    3.0905    1.2361   13.2368 C   0  0  0  0  0  0  0  0  0  0  0  0
    4.3967    1.2828   13.6973 C   0  0  0  0  0  0  0  0  0  0  0  0
    4.7322    0.4976   14.7555 N   0  0  0  0  0  0  0  0  0  0  0  0
    5.8998    0.3887   15.4576 C   0  0  0  0  0  0  0  0  0  0  0  0
    5.6143   -0.5477   16.4779 C   0  0  0  0  0  0  0  0  0  0  0  0
    4.4157   -1.0782   16.3290 N   0  0  0  0  0  0  0  0  0  0  0  0
    3.8521   -0.4000   15.3224 C   0  0  0  0  0  0  0  0  0  0  0  0
    2.6115    2.1334   12.1178 C   0  0  0  0  0  0  0  0  0  0  0  0
    3.5406    2.6292   11.1800 C   0  0  0  0  0  0  0  0  0  0  0  0
    3.1477    3.4565   10.1243 C   0  0  0  0  0  0  0  0  0  0  0  0
    1.8039    3.8086   10.0214 C   0  0  0  0  0  0  0  0  0  0  0  0
    1.0010    4.6077    9.1343 C   0  0  0  0  0  0  0  0  0  0  0  0
   -0.2411    4.6153    9.5215 N   0  0  0  0  0  0  0  0  0  0  0  0
   -0.3421    3.8665   10.6189 N   0  0  0  0  0  0  0  0  0  0  0  0
    0.8809    3.3298   10.9772 C   0  0  0  0  0  0  0  0  0  0  0  0
    1.2478    2.4836   12.0372 C   0  0  0  0  0  0  0  0  0  0  0  0
   -0.4905   -0.8517   14.2206 C   0  0  0  0  0  0  0  0  0  0  0  0
   -1.8442   -1.1028   14.0951 C   0  0  0  0  0  0  0  0  0  0  0  0
   -3.7890   -2.9450   11.8694 H   0  0  0  0  0  0  0  0  0  0  0  0
   -5.4296   -2.2481   11.6465 H   0  0  0  0  0  0  0  0  0  0  0  0
   -6.2805   -3.9948   13.2677 H   0  0  0  0  0  0  0  0  0  0  0  0
   -5.6682   -4.6240   11.7006 H   0  0  0  0  0  0  0  0  0  0  0  0
   -5.1886   -5.4786   15.1874 H   0  0  0  0  0  0  0  0  0  0  0  0
   -3.4065   -5.2863   15.0700 H   0  0  0  0  0  0  0  0  0  0  0  0
   -5.5525   -3.2588   15.5826 H   0  0  0  0  0  0  0  0  0  0  0  0
   -3.9978   -3.5542   16.4326 H   0  0  0  0  0  0  0  0  0  0  0  0
   -4.0426   -1.0407   13.2114 H   0  0  0  0  0  0  0  0  0  0  0  0
   -5.5889   -1.6576   13.8860 H   0  0  0  0  0  0  0  0  0  0  0  0
   -2.1511   -3.6632   16.3065 H   0  0  0  0  0  0  0  0  0  0  0  0
    0.2564   -3.2373   16.5165 H   0  0  0  0  0  0  0  0  0  0  0  0
    5.1278    1.9249   13.2288 H   0  0  0  0  0  0  0  0  0  0  0  0
    6.8317    0.9027   15.2742 H   0  0  0  0  0  0  0  0  0  0  0  0
    6.2933   -0.7976   17.2797 H   0  0  0  0  0  0  0  0  0  0  0  0
    4.5824    2.3628   11.2801 H   0  0  0  0  0  0  0  0  0  0  0  0
    3.8693    3.8145    9.4049 H   0  0  0  0  0  0  0  0  0  0  0  0
    1.3774    5.1292    8.2667 H   0  0  0  0  0  0  0  0  0  0  0  0
   -0.9915    5.1002    9.0723 H   0  0  0  0  0  0  0  0  0  0  0  0
    0.5241    2.1207   12.7521 H   0  0  0  0  0  0  0  0  0  0  0  0
   -0.3855    0.1990   14.5288 H   0  0  0  0  0  0  0  0  0  0  0  0
   -0.0444   -0.9880   13.2244 H   0  0  0  0  0  0  0  0  0  0  0  0
   -2.4269   -0.5150   13.4014 H   0  0  0  0  0  0  0  0  0  0  0  0
  1  2  1  0  0  0  0
  1  7  1  0  0  0  0
  2  3  1  0  0  0  0
  3  4  1  0  0  0  0
  4  5  1  0  0  0  0
  5  6  1  0  0  0  0
  6  7  1  0  0  0  0
  6  8  1  0  0  0  0
  8  9  1  0  0  0  0
  8 32  2  0  0  0  0
  9 10  2  0  0  0  0
 10 11  1  0  0  0  0
 11 12  2  0  0  0  0
 11 31  1  0  0  0  0
 12 13  1  0  0  0  0
 13 14  2  0  0  0  0
 13 21  1  0  0  0  0
 14 15  1  0  0  0  0
 15 16  2  0  0  0  0
 15 22  1  0  0  0  0
 16 17  1  0  0  0  0
 17 18  1  0  0  0  0
 17 21  1  0  0  0  0
 18 19  2  0  0  0  0
 19 20  1  0  0  0  0
 20 21  2  0  0  0  0
 22 23  1  0  0  0  0
 22 30  2  0  0  0  0
 23 24  2  0  0  0  0
 24 25  1  0  0  0  0
 25 26  2  0  0  0  0
 25 29  1  0  0  0  0
 26 27  1  0  0  0  0
 27 28  1  0  0  0  0
 28 29  2  0  0  0  0
 29 30  1  0  0  0  0
 31 32  1  0  0  0  0
  1 33  1  0  0  0  0
  1 34  1  0  0  0  0
  2 35  1  0  0  0  0
  2 36  1  0  0  0  0
  4 37  1  0  0  0  0
  4 38  1  0  0  0  0
  5 39  1  0  0  0  0
  5 40  1  0  0  0  0
  7 41  1  0  0  0  0
  7 42  1  0  0  0  0
  9 43  1  0  0  0  0
 10 44  1  0  0  0  0
 16 45  1  0  0  0  0
 18 46  1  0  0  0  0
 19 47  1  0  0  0  0
 23 48  1  0  0  0  0
 24 49  1  0  0  0  0
 26 50  1  0  0  0  0
 27 51  1  0  0  0  0
 30 52  1  0  0  0  0
 31 53  1  0  0  0  0
 31 54  1  0  0  0  0
 32 55  1  0  0  0  0
M  END
> <IC50[nM]>
23.1

$$$$
CHEMBL3265036
  -OEChem-05192314333D
 Structure written by MMmdl.
 55 60  0     1  0  0  0  0  0999 V2000
   -4.7688   -2.7849   12.3431 C   0  0  0  0  0  0  0  0  0  0  0  0
   -5.3846   -4.1377   12.6456 C   0  0  0  0  0  0  0  0  0  0  0  0
   -4.4594   -4.9732   13.3425 O   0  0  0  0  0  0  0  0  0  0  0  0
   -4.3771   -4.8619   14.7737 C   0  0  0  0  0  0  0  0  0  0  0  0
   -4.4823   -3.4746   15.4482 C   0  0  0  0  0  0  0  0  0  0  0  0
   -3.8932   -2.3265   14.7696 N   0  0  2  0  0  0  0  0  0  0  0  0
   -4.5743   -1.9363   13.5651 C   0  0  0  0  0  0  0  0  0  0  0  0
   -2.4838   -2.1095   14.8521 C   0  0  0  0  0  0  0  0  0  0  0  0
   -1.6944   -2.8761   15.7249 C   0  0  0  0  0  0  0  0  0  0  0  0
   -0.3386   -2.6335   15.8473 C   0  0  0  0  0  0  0  0  0  0  0  0
    0.2634   -1.6168   15.1140 C   0  0  0  0  0  0  0  0  0  0  0  0
    1.6446   -1.3934   15.3516 N   0  0  0  0  0  0  0  0  0  0  0  0
    2.5467   -0.4494   14.7774 C   0  0  0  0  0  0  0  0  0  0  0  0
    2.1622    0.3813   13.7703 N   0  0  0  0  0  0  0  0  0  0  0  0
    3.0905    1.2361   13.2368 C   0  0  0  0  0  0  0  0  0  0  0  0
    4.3967    1.2828   13.6973 C   0  0  0  0  0  0  0  0  0  0  0  0
    4.7322    0.4976   14.7555 N   0  0  0  0  0  0  0  0  0  0  0  0
    5.8998    0.3887   15.4576 C   0  0  0  0  0  0  0  0  0  0  0  0
    5.6143   -0.5477   16.4779 C   0  0  0  0  0  0  0  0  0  0  0  0
    4.4157   -1.0782   16.3290 N   0  0  0  0  0  0  0  0  0  0  0  0
    3.8521   -0.4000   15.3224 C   0  0  0  0  0  0  0  0  0  0  0  0
    2.6115    2.1334   12.1178 C   0  0  0  0  0  0  0  0  0  0  0  0
    3.5406    2.6292   11.1800 C   0  0  0  0  0  0  0  0  0  0  0  0
    3.1477    3.4565   10.1243 C   0  0  0  0  0  0  0  0  0  0  0  0
    1.8039    3.8086   10.0214 C   0  0  0  0  0  0  0  0  0  0  0  0
    1.0010    4.6077    9.1343 C   0  0  0  0  0  0  0  0  0  0  0  0
   -0.2411    4.6153    9.5215 N   0  0  0  0  0  0  0  0  0  0  0  0
   -0.3421    3.8665   10.6189 N   0  0  0  0  0  0  0  0  0  0  0  0
    0.8809    3.3298   10.9772 C   0  0  0  0  0  0  0  0  0  0  0  0
    1.2478    2.4836   12.0372 C   0  0  0  0  0  0  0  0  0  0  0  0
   -0.4905   -0.8517   14.2206 C   0  0  0  0  0  0  0  0  0  0  0  0
   -1.8442   -1.1028   14.0951 C   0  0  0  0  0  0  0  0  0  0  0  0
   -3.7890   -2.9450   11.8694 H   0  0  0  0  0  0  0  0  0  0  0  0
   -5.4296   -2.2481   11.6465 H   0  0  0  0  0  0  0  0  0  0  0  0
   -6.2805   -3.9948   13.2677 H   0  0  0  0  0  0  0  0  0  0  0  0
   -5.6682   -4.6240   11.7006 H   0  0  0  0  0  0  0  0  0  0  0  0
   -5.1886   -5.4786   15.1874 H   0  0  0  0  0  0  0  0  0  0  0  0
   -3.4065   -5.2863   15.0700 H   0  0  0  0  0  0  0  0  0  0  0  0
   -5.5525   -3.2588   15.5826 H   0  0  0  0  0  0  0  0  0  0  0  0
   -3.9978   -3.5542   16.4326 H   0  0  0  0  0  0  0  0  0  0  0  0
   -4.0426   -1.0407   13.2114 H   0  0  0  0  0  0  0  0  0  0  0  0
   -5.5889   -1.6576   13.8860 H   0  0  0  0  0  0  0  0  0  0  0  0
   -2.1511   -3.6632   16.3065 H   0  0  0  0  0  0  0  0  0  0  0  0
    0.2564   -3.2373   16.5165 H   0  0  0  0  0  0  0  0  0  0  0  0
    5.0488    0.9967   12.8589 H   0  0  0  0  0  0  0  0  0  0  0  0
    4.6044    2.3241   13.9847 H   0  0  0  0  0  0  0  0  0  0  0  0
    6.8317    0.9027   15.2742 H   0  0  0  0  0  0  0  0  0  0  0  0
    6.2933   -0.7976   17.2797 H   0  0  0  0  0  0  0  0  0  0  0  0
    4.5824    2.3628   11.2801 H   0  0  0  0  0  0  0  0  0  0  0  0
    3.8693    3.8145    9.4049 H   0  0  0  0  0  0  0  0  0  0  0  0
    1.3844    5.6387    9.1299 H   0  0  0  0  0  0  0  0  0  0  0  0
    1.0603    4.1901    8.1184 H   0  0  0  0  0  0  0  0  0  0  0  0
    0.5241    2.1207   12.7521 H   0  0  0  0  0  0  0  0  0  0  0  0
   -0.0219   -0.0742   13.6356 H   0  0  0  0  0  0  0  0  0  0  0  0
   -2.4269   -0.5150   13.4014 H   0  0  0  0  0  0  0  0  0  0  0  0
  1  2  1  0  0  0  0
  1  7  1  0  0  0  0
  2  3  1  0  0  0  0
  3  4  1  0  0  0  0
  4  5  1  0  0  0  0
  5  6  1  0  0  0  0
  6  7  1  0  0  0  0
  6  8  1  0  0  0  0
  8  9  2  0  0  0  0
  8 32  1  0  0  0  0
  9 10  1  0  0  0  0
 10 11  2  0  0  0  0
 11 12  1  0  0  0  0
 11 31  1  0  0  0  0
 12 13  2  0  0  0  0
 13 14  1  0  0  0  0
 13 21  1  0  0  0  0
 14 15  2  0  0  0  0
 15 16  1  0  0  0  0
 15 22  1  0  0  0  0
 16 17  1  0  0  0  0
 17 18  1  0  0  0  0
 17 21  1  0  0  0  0
 18 19  2  0  0  0  0
 19 20  1  0  0  0  0
 20 21  2  0  0  0  0
 22 23  2  0  0  0  0
 22 30  1  0  0  0  0
 23 24  1  0  0  0  0
 24 25  2  0  0  0  0
 25 26  1  0  0  0  0
 25 29  1  0  0  0  0
 26 27  1  0  0  0  0
 27 28  2  0  0  0  0
 28 29  1  0  0  0  0
 29 30  2  0  0  0  0
 31 32  2  0  0  0  0
  1 33  1  0  0  0  0
  1 34  1  0  0  0  0
  2 35  1  0  0  0  0
  2 36  1  0  0  0  0
  4 37  1  0  0  0  0
  4 38  1  0  0  0  0
  5 39  1  0  0  0  0
  5 40  1  0  0  0  0
  7 41  1  0  0  0  0
  7 42  1  0  0  0  0
  9 43  1  0  0  0  0
 10 44  1  0  0  0  0
 16 45  1  0  0  0  0
 16 46  1  0  0  0  0
 18 47  1  0  0  0  0
 19 48  1  0  0  0  0
 23 49  1  0  0  0  0
 24 50  1  0  0  0  0
 26 51  1  0  0  0  0
 26 52  1  0  0  0  0
 30 53  1  0  0  0  0
 31 54  1  0  0  0  0
 32 55  1  0  0  0  0
M  END
> <IC50[nM]>
23.1

$$$$
CHEMBL3265036
  -OEChem-05192314333D
 Structure written by MMmdl.
 55 60  0     1  0  0  0  0  0999 V2000
   -4.7688   -2.7849   12.3431 C   0  0  0  0  0  0  0  0  0  0  0  0
   -5.3846   -4.1377   12.6456 C   0  0  0  0  0  0  0  0  0  0  0  0
   -4.4594   -4.9732   13.3425 O   0  0  0  0  0  0  0  0  0  0  0  0
   -4.3771   -4.8619   14.7737 C   0  0  0  0  0  0  0  0  0  0  0  0
   -4.4823   -3.4746   15.4482 C   0  0  0  0  0  0  0  0  0  0  0  0
   -3.8932   -2.3265   14.7696 N   0  0  2  0  0  0  0  0  0  0  0  0
   -4.5743   -1.9363   13.5651 C   0  0  0  0  0  0  0  0  0  0  0  0
   -2.4838   -2.1095   14.8521 C   0  0  0  0  0  0  0  0  0  0  0  0
   -1.6944   -2.8761   15.7249 C   0  0  0  0  0  0  0  0  0  0  0  0
   -0.3386   -2.6335   15.8473 C   0  0  0  0  0  0  0  0  0  0  0  0
    0.2634   -1.6168   15.1140 C   0  0  0  0  0  0  0  0  0  0  0  0
    1.6446   -1.3934   15.3516 N   0  0  0  0  0  0  0  0  0  0  0  0
    2.5467   -0.4494   14.7774 C   0  0  0  0  0  0  0  0  0  0  0  0
    2.1622    0.3813   13.7703 N   0  0  0  0  0  0  0  0  0  0  0  0
    3.0905    1.2361   13.2368 C   0  0  0  0  0  0  0  0  0  0  0  0
    4.3967    1.2828   13.6973 C   0  0  0  0  0  0  0  0  0  0  0  0
    4.7322    0.4976   14.7555 N   0  0  0  0  0  0  0  0  0  0  0  0
    5.8998    0.3887   15.4576 C   0  0  0  0  0  0  0  0  0  0  0  0
    5.6143   -0.5477   16.4779 C   0  0  0  0  0  0  0  0  0  0  0  0
    4.4157   -1.0782   16.3290 N   0  0  0  0  0  0  0  0  0  0  0  0
    3.8521   -0.4000   15.3224 C   0  0  0  0  0  0  0  0  0  0  0  0
    2.6115    2.1334   12.1178 C   0  0  0  0  0  0  0  0  0  0  0  0
    3.5406    2.6292   11.1800 C   0  0  0  0  0  0  0  0  0  0  0  0
    3.1477    3.4565   10.1243 C   0  0  0  0  0  0  0  0  0  0  0  0
    1.8039    3.8086   10.0214 C   0  0  0  0  0  0  0  0  0  0  0  0
    1.0010    4.6077    9.1343 C   0  0  0  0  0  0  0  0  0  0  0  0
   -0.2411    4.6153    9.5215 N   0  0  0  0  0  0  0  0  0  0  0  0
   -0.3421    3.8665   10.6189 N   0  0  0  0  0  0  0  0  0  0  0  0
    0.8809    3.3298   10.9772 C   0  0  0  0  0  0  0  0  0  0  0  0
    1.2478    2.4836   12.0372 C   0  0  0  0  0  0  0  0  0  0  0  0
   -0.4905   -0.8517   14.2206 C   0  0  0  0  0  0  0  0  0  0  0  0
   -1.8442   -1.1028   14.0951 C   0  0  0  0  0  0  0  0  0  0  0  0
   -3.7890   -2.9450   11.8694 H   0  0  0  0  0  0  0  0  0  0  0  0
   -5.4296   -2.2481   11.6465 H   0  0  0  0  0  0  0  0  0  0  0  0
   -6.2805   -3.9948   13.2677 H   0  0  0  0  0  0  0  0  0  0  0  0
   -5.6682   -4.6240   11.7006 H   0  0  0  0  0  0  0  0  0  0  0  0
   -5.1886   -5.4786   15.1874 H   0  0  0  0  0  0  0  0  0  0  0  0
   -3.4065   -5.2863   15.0700 H   0  0  0  0  0  0  0  0  0  0  0  0
   -5.5525   -3.2588   15.5826 H   0  0  0  0  0  0  0  0  0  0  0  0
   -3.9978   -3.5542   16.4326 H   0  0  0  0  0  0  0  0  0  0  0  0
   -4.0426   -1.0407   13.2114 H   0  0  0  0  0  0  0  0  0  0  0  0
   -5.5889   -1.6576   13.8860 H   0  0  0  0  0  0  0  0  0  0  0  0
   -2.1511   -3.6632   16.3065 H   0  0  0  0  0  0  0  0  0  0  0  0
    0.2564   -3.2373   16.5165 H   0  0  0  0  0  0  0  0  0  0  0  0
    2.0533   -1.9982   16.0351 H   0  0  0  0  0  0  0  0  0  0  0  0
    5.0488    0.9967   12.8589 H   0  0  0  0  0  0  0  0  0  0  0  0
    4.6044    2.3241   13.9847 H   0  0  0  0  0  0  0  0  0  0  0  0
    6.8317    0.9027   15.2742 H   0  0  0  0  0  0  0  0  0  0  0  0
    6.2933   -0.7976   17.2797 H   0  0  0  0  0  0  0  0  0  0  0  0
    4.5824    2.3628   11.2801 H   0  0  0  0  0  0  0  0  0  0  0  0
    3.8693    3.8145    9.4049 H   0  0  0  0  0  0  0  0  0  0  0  0
    1.3774    5.1292    8.2667 H   0  0  0  0  0  0  0  0  0  0  0  0
    0.5241    2.1207   12.7521 H   0  0  0  0  0  0  0  0  0  0  0  0
   -0.0219   -0.0742   13.6356 H   0  0  0  0  0  0  0  0  0  0  0  0
   -2.4269   -0.5150   13.4014 H   0  0  0  0  0  0  0  0  0  0  0  0
  1  2  1  0  0  0  0
  1  7  1  0  0  0  0
  2  3  1  0  0  0  0
  3  4  1  0  0  0  0
  4  5  1  0  0  0  0
  5  6  1  0  0  0  0
  6  7  1  0  0  0  0
  6  8  1  0  0  0  0
  8  9  2  0  0  0  0
  8 32  1  0  0  0  0
  9 10  1  0  0  0  0
 10 11  2  0  0  0  0
 11 12  1  0  0  0  0
 11 31  1  0  0  0  0
 12 13  1  0  0  0  0
 13 14  2  0  0  0  0
 13 21  1  0  0  0  0
 14 15  1  0  0  0  0
 15 16  1  0  0  0  0
 15 22  2  0  0  0  0
 16 17  1  0  0  0  0
 17 18  1  0  0  0  0
 17 21  1  0  0  0  0
 18 19  2  0  0  0  0
 19 20  1  0  0  0  0
 20 21  2  0  0  0  0
 22 23  1  0  0  0  0
 22 30  1  0  0  0  0
 23 24  2  0  0  0  0
 24 25  1  0  0  0  0
 25 26  2  0  0  0  0
 25 29  1  0  0  0  0
 26 27  1  0  0  0  0
 27 28  2  0  0  0  0
 28 29  1  0  0  0  0
 29 30  2  0  0  0  0
 31 32  2  0  0  0  0
  1 33  1  0  0  0  0
  1 34  1  0  0  0  0
  2 35  1  0  0  0  0
  2 36  1  0  0  0  0
  4 37  1  0  0  0  0
  4 38  1  0  0  0  0
  5 39  1  0  0  0  0
  5 40  1  0  0  0  0
  7 41  1  0  0  0  0
  7 42  1  0  0  0  0
  9 43  1  0  0  0  0
 10 44  1  0  0  0  0
 12 45  1  0  0  0  0
 16 46  1  0  0  0  0
 16 47  1  0  0  0  0
 18 48  1  0  0  0  0
 19 49  1  0  0  0  0
 23 50  1  0  0  0  0
 24 51  1  0  0  0  0
 26 52  1  0  0  0  0
 30 53  1  0  0  0  0
 31 54  1  0  0  0  0
 32 55  1  0  0  0  0
M  END
> <IC50[nM]>
23.1

$$$$
CHEMBL3265036
  -OEChem-05192314333D
 Structure written by MMmdl.
 55 60  0     1  0  0  0  0  0999 V2000
   -4.7688   -2.7849   12.3431 C   0  0  0  0  0  0  0  0  0  0  0  0
   -5.3846   -4.1377   12.6456 C   0  0  0  0  0  0  0  0  0  0  0  0
   -4.4594   -4.9732   13.3425 O   0  0  0  0  0  0  0  0  0  0  0  0
   -4.3771   -4.8619   14.7737 C   0  0  0  0  0  0  0  0  0  0  0  0
   -4.4823   -3.4746   15.4482 C   0  0  0  0  0  0  0  0  0  0  0  0
   -3.8932   -2.3265   14.7696 N   0  0  2  0  0  0  0  0  0  0  0  0
   -4.5743   -1.9363   13.5651 C   0  0  0  0  0  0  0  0  0  0  0  0
   -2.4838   -2.1095   14.8521 C   0  0  0  0  0  0  0  0  0  0  0  0
   -1.6944   -2.8761   15.7249 C   0  0  0  0  0  0  0  0  0  0  0  0
   -0.3386   -2.6335   15.8473 C   0  0  0  0  0  0  0  0  0  0  0  0
    0.2634   -1.6168   15.1140 C   0  0  0  0  0  0  0  0  0  0  0  0
    1.6446   -1.3934   15.3516 N   0  0  0  0  0  0  0  0  0  0  0  0
    2.5467   -0.4494   14.7774 C   0  0  0  0  0  0  0  0  0  0  0  0
    2.1622    0.3813   13.7703 N   0  0  0  0  0  0  0  0  0  0  0  0
    3.0905    1.2361   13.2368 C   0  0  0  0  0  0  0  0  0  0  0  0
    4.3967    1.2828   13.6973 C   0  0  0  0  0  0  0  0  0  0  0  0
    4.7322    0.4976   14.7555 N   0  0  0  0  0  0  0  0  0  0  0  0
    5.8998    0.3887   15.4576 C   0  0  0  0  0  0  0  0  0  0  0  0
    5.6143   -0.5477   16.4779 C   0  0  0  0  0  0  0  0  0  0  0  0
    4.4157   -1.0782   16.3290 N   0  0  0  0  0  0  0  0  0  0  0  0
    3.8521   -0.4000   15.3224 C   0  0  0  0  0  0  0  0  0  0  0  0
    2.6115    2.1334   12.1178 C   0  0  0  0  0  0  0  0  0  0  0  0
    3.5406    2.6292   11.1800 C   0  0  0  0  0  0  0  0  0  0  0  0
    3.1477    3.4565   10.1243 C   0  0  0  0  0  0  0  0  0  0  0  0
    1.8039    3.8086   10.0214 C   0  0  0  0  0  0  0  0  0  0  0  0
    1.0010    4.6077    9.1343 C   0  0  0  0  0  0  0  0  0  0  0  0
   -0.2411    4.6153    9.5215 N   0  0  0  0  0  0  0  0  0  0  0  0
   -0.3421    3.8665   10.6189 N   0  0  0  0  0  0  0  0  0  0  0  0
    0.8809    3.3298   10.9772 C   0  0  0  0  0  0  0  0  0  0  0  0
    1.2478    2.4836   12.0372 C   0  0  0  0  0  0  0  0  0  0  0  0
   -0.4905   -0.8517   14.2206 C   0  0  0  0  0  0  0  0  0  0  0  0
   -1.8442   -1.1028   14.0951 C   0  0  0  0  0  0  0  0  0  0  0  0
   -3.7890   -2.9450   11.8694 H   0  0  0  0  0  0  0  0  0  0  0  0
   -5.4296   -2.2481   11.6465 H   0  0  0  0  0  0  0  0  0  0  0  0
   -6.2805   -3.9948   13.2677 H   0  0  0  0  0  0  0  0  0  0  0  0
   -5.6682   -4.6240   11.7006 H   0  0  0  0  0  0  0  0  0  0  0  0
   -5.1886   -5.4786   15.1874 H   0  0  0  0  0  0  0  0  0  0  0  0
   -3.4065   -5.2863   15.0700 H   0  0  0  0  0  0  0  0  0  0  0  0
   -5.5525   -3.2588   15.5826 H   0  0  0  0  0  0  0  0  0  0  0  0
   -3.9978   -3.5542   16.4326 H   0  0  0  0  0  0  0  0  0  0  0  0
   -4.0426   -1.0407   13.2114 H   0  0  0  0  0  0  0  0  0  0  0  0
   -5.5889   -1.6576   13.8860 H   0  0  0  0  0  0  0  0  0  0  0  0
   -2.1511   -3.6632   16.3065 H   0  0  0  0  0  0  0  0  0  0  0  0
    0.2564   -3.2373   16.5165 H   0  0  0  0  0  0  0  0  0  0  0  0
    1.2230    0.3681   13.4273 H   0  0  0  0  0  0  0  0  0  0  0  0
    5.0488    0.9967   12.8589 H   0  0  0  0  0  0  0  0  0  0  0  0
    4.6044    2.3241   13.9847 H   0  0  0  0  0  0  0  0  0  0  0  0
    6.8317    0.9027   15.2742 H   0  0  0  0  0  0  0  0  0  0  0  0
    6.2933   -0.7976   17.2797 H   0  0  0  0  0  0  0  0  0  0  0  0
    4.5824    2.3628   11.2801 H   0  0  0  0  0  0  0  0  0  0  0  0
    3.8693    3.8145    9.4049 H   0  0  0  0  0  0  0  0  0  0  0  0
    1.3774    5.1292    8.2667 H   0  0  0  0  0  0  0  0  0  0  0  0
    0.5241    2.1207   12.7521 H   0  0  0  0  0  0  0  0  0  0  0  0
   -0.0219   -0.0742   13.6356 H   0  0  0  0  0  0  0  0  0  0  0  0
   -2.4269   -0.5150   13.4014 H   0  0  0  0  0  0  0  0  0  0  0  0
  1  2  1  0  0  0  0
  1  7  1  0  0  0  0
  2  3  1  0  0  0  0
  3  4  1  0  0  0  0
  4  5  1  0  0  0  0
  5  6  1  0  0  0  0
  6  7  1  0  0  0  0
  6  8  1  0  0  0  0
  8  9  2  0  0  0  0
  8 32  1  0  0  0  0
  9 10  1  0  0  0  0
 10 11  2  0  0  0  0
 11 12  1  0  0  0  0
 11 31  1  0  0  0  0
 12 13  2  0  0  0  0
 13 14  1  0  0  0  0
 13 21  1  0  0  0  0
 14 15  1  0  0  0  0
 15 16  1  0  0  0  0
 15 22  2  0  0  0  0
 16 17  1  0  0  0  0
 17 18  1  0  0  0  0
 17 21  1  0  0  0  0
 18 19  2  0  0  0  0
 19 20  1  0  0  0  0
 20 21  2  0  0  0  0
 22 23  1  0  0  0  0
 22 30  1  0  0  0  0
 23 24  2  0  0  0  0
 24 25  1  0  0  0  0
 25 26  2  0  0  0  0
 25 29  1  0  0  0  0
 26 27  1  0  0  0  0
 27 28  2  0  0  0  0
 28 29  1  0  0  0  0
 29 30  2  0  0  0  0
 31 32  2  0  0  0  0
  1 33  1  0  0  0  0
  1 34  1  0  0  0  0
  2 35  1  0  0  0  0
  2 36  1  0  0  0  0
  4 37  1  0  0  0  0
  4 38  1  0  0  0  0
  5 39  1  0  0  0  0
  5 40  1  0  0  0  0
  7 41  1  0  0  0  0
  7 42  1  0  0  0  0
  9 43  1  0  0  0  0
 10 44  1  0  0  0  0
 14 45  1  0  0  0  0
 16 46  1  0  0  0  0
 16 47  1  0  0  0  0
 18 48  1  0  0  0  0
 19 49  1  0  0  0  0
 23 50  1  0  0  0  0
 24 51  1  0  0  0  0
 26 52  1  0  0  0  0
 30 53  1  0  0  0  0
 31 54  1  0  0  0  0
 32 55  1  0  0  0  0
M  END
> <IC50[nM]>
23.1

$$$$
CHEMBL3265036
  -OEChem-05192314333D
 Structure written by MMmdl.
 55 60  0     1  0  0  0  0  0999 V2000
   -4.7688   -2.7849   12.3431 C   0  0  0  0  0  0  0  0  0  0  0  0
   -5.3846   -4.1377   12.6456 C   0  0  0  0  0  0  0  0  0  0  0  0
   -4.4594   -4.9732   13.3425 O   0  0  0  0  0  0  0  0  0  0  0  0
   -4.3771   -4.8619   14.7737 C   0  0  0  0  0  0  0  0  0  0  0  0
   -4.4823   -3.4746   15.4482 C   0  0  0  0  0  0  0  0  0  0  0  0
   -3.8932   -2.3265   14.7696 N   0  0  2  0  0  0  0  0  0  0  0  0
   -4.5743   -1.9363   13.5651 C   0  0  0  0  0  0  0  0  0  0  0  0
   -2.4838   -2.1095   14.8521 C   0  0  0  0  0  0  0  0  0  0  0  0
   -1.6944   -2.8761   15.7249 C   0  0  0  0  0  0  0  0  0  0  0  0
   -0.3386   -2.6335   15.8473 C   0  0  0  0  0  0  0  0  0  0  0  0
    0.2634   -1.6168   15.1140 C   0  0  0  0  0  0  0  0  0  0  0  0
    1.6446   -1.3934   15.3516 N   0  0  0  0  0  0  0  0  0  0  0  0
    2.5467   -0.4494   14.7774 C   0  0  0  0  0  0  0  0  0  0  0  0
    2.1622    0.3813   13.7703 N   0  0  0  0  0  0  0  0  0  0  0  0
    3.0905    1.2361   13.2368 C   0  0  0  0  0  0  0  0  0  0  0  0
    4.3967    1.2828   13.6973 C   0  0  0  0  0  0  0  0  0  0  0  0
    4.7322    0.4976   14.7555 N   0  0  0  0  0  0  0  0  0  0  0  0
    5.8998    0.3887   15.4576 C   0  0  0  0  0  0  0  0  0  0  0  0
    5.6143   -0.5477   16.4779 C   0  0  0  0  0  0  0  0  0  0  0  0
    4.4157   -1.0782   16.3290 N   0  0  0  0  0  0  0  0  0  0  0  0
    3.8521   -0.4000   15.3224 C   0  0  0  0  0  0  0  0  0  0  0  0
    2.6115    2.1334   12.1178 C   0  0  0  0  0  0  0  0  0  0  0  0
    3.5406    2.6292   11.1800 C   0  0  0  0  0  0  0  0  0  0  0  0
    3.1477    3.4565   10.1243 C   0  0  0  0  0  0  0  0  0  0  0  0
    1.8039    3.8086   10.0214 C   0  0  0  0  0  0  0  0  0  0  0  0
    1.0010    4.6077    9.1343 C   0  0  0  0  0  0  0  0  0  0  0  0
   -0.2411    4.6153    9.5215 N   0  0  0  0  0  0  0  0  0  0  0  0
   -0.3421    3.8665   10.6189 N   0  0  0  0  0  0  0  0  0  0  0  0
    0.8809    3.3298   10.9772 C   0  0  0  0  0  0  0  0  0  0  0  0
    1.2478    2.4836   12.0372 C   0  0  0  0  0  0  0  0  0  0  0  0
   -0.4905   -0.8517   14.2206 C   0  0  0  0  0  0  0  0  0  0  0  0
   -1.8442   -1.1028   14.0951 C   0  0  0  0  0  0  0  0  0  0  0  0
   -3.7890   -2.9450   11.8694 H   0  0  0  0  0  0  0  0  0  0  0  0
   -5.4296   -2.2481   11.6465 H   0  0  0  0  0  0  0  0  0  0  0  0
   -6.2805   -3.9948   13.2677 H   0  0  0  0  0  0  0  0  0  0  0  0
   -5.6682   -4.6240   11.7006 H   0  0  0  0  0  0  0  0  0  0  0  0
   -5.1886   -5.4786   15.1874 H   0  0  0  0  0  0  0  0  0  0  0  0
   -3.4065   -5.2863   15.0700 H   0  0  0  0  0  0  0  0  0  0  0  0
   -5.5525   -3.2588   15.5826 H   0  0  0  0  0  0  0  0  0  0  0  0
   -3.9978   -3.5542   16.4326 H   0  0  0  0  0  0  0  0  0  0  0  0
   -4.0426   -1.0407   13.2114 H   0  0  0  0  0  0  0  0  0  0  0  0
   -5.5889   -1.6576   13.8860 H   0  0  0  0  0  0  0  0  0  0  0  0
   -2.3149   -2.8373   14.0447 H   0  0  0  0  0  0  0  0  0  0  0  0
   -2.1511   -3.6632   16.3065 H   0  0  0  0  0  0  0  0  0  0  0  0
    0.2564   -3.2373   16.5165 H   0  0  0  0  0  0  0  0  0  0  0  0
    5.1278    1.9249   13.2288 H   0  0  0  0  0  0  0  0  0  0  0  0
    6.8317    0.9027   15.2742 H   0  0  0  0  0  0  0  0  0  0  0  0
    6.2933   -0.7976   17.2797 H   0  0  0  0  0  0  0  0  0  0  0  0
    4.5824    2.3628   11.2801 H   0  0  0  0  0  0  0  0  0  0  0  0
    3.8693    3.8145    9.4049 H   0  0  0  0  0  0  0  0  0  0  0  0
    1.3844    5.6387    9.1299 H   0  0  0  0  0  0  0  0  0  0  0  0
    1.0603    4.1901    8.1184 H   0  0  0  0  0  0  0  0  0  0  0  0
    0.5241    2.1207   12.7521 H   0  0  0  0  0  0  0  0  0  0  0  0
   -0.0219   -0.0742   13.6356 H   0  0  0  0  0  0  0  0  0  0  0  0
   -2.4269   -0.5150   13.4014 H   0  0  0  0  0  0  0  0  0  0  0  0
  1  2  1  0  0  0  0
  1  7  1  0  0  0  0
  2  3  1  0  0  0  0
  3  4  1  0  0  0  0
  4  5  1  0  0  0  0
  5  6  1  0  0  0  0
  6  7  1  0  0  0  0
  6  8  1  0  0  0  0
  8  9  1  0  0  0  0
  8 32  1  0  0  0  0
  9 10  2  0  0  0  0
 10 11  1  0  0  0  0
 11 12  2  0  0  0  0
 11 31  1  0  0  0  0
 12 13  1  0  0  0  0
 13 14  2  0  0  0  0
 13 21  1  0  0  0  0
 14 15  1  0  0  0  0
 15 16  2  0  0  0  0
 15 22  1  0  0  0  0
 16 17  1  0  0  0  0
 17 18  1  0  0  0  0
 17 21  1  0  0  0  0
 18 19  2  0  0  0  0
 19 20  1  0  0  0  0
 20 21  2  0  0  0  0
 22 23  2  0  0  0  0
 22 30  1  0  0  0  0
 23 24  1  0  0  0  0
 24 25  2  0  0  0  0
 25 26  1  0  0  0  0
 25 29  1  0  0  0  0
 26 27  1  0  0  0  0
 27 28  2  0  0  0  0
 28 29  1  0  0  0  0
 29 30  2  0  0  0  0
 31 32  2  0  0  0  0
  1 33  1  0  0  0  0
  1 34  1  0  0  0  0
  2 35  1  0  0  0  0
  2 36  1  0  0  0  0
  4 37  1  0  0  0  0
  4 38  1  0  0  0  0
  5 39  1  0  0  0  0
  5 40  1  0  0  0  0
  7 41  1  0  0  0  0
  7 42  1  0  0  0  0
  8 43  1  0  0  0  0
  9 44  1  0  0  0  0
 10 45  1  0  0  0  0
 16 46  1  0  0  0  0
 18 47  1  0  0  0  0
 19 48  1  0  0  0  0
 23 49  1  0  0  0  0
 24 50  1  0  0  0  0
 26 51  1  0  0  0  0
 26 52  1  0  0  0  0
 30 53  1  0  0  0  0
 31 54  1  0  0  0  0
 32 55  1  0  0  0  0
M  END
> <IC50[nM]>
23.1

$$$$
CHEMBL3265036
  -OEChem-05192314333D
 Structure written by MMmdl.
 55 60  0     1  0  0  0  0  0999 V2000
   -4.7688   -2.7849   12.3431 C   0  0  0  0  0  0  0  0  0  0  0  0
   -5.3846   -4.1377   12.6456 C   0  0  0  0  0  0  0  0  0  0  0  0
   -4.4594   -4.9732   13.3425 O   0  0  0  0  0  0  0  0  0  0  0  0
   -4.3771   -4.8619   14.7737 C   0  0  0  0  0  0  0  0  0  0  0  0
   -4.4823   -3.4746   15.4482 C   0  0  0  0  0  0  0  0  0  0  0  0
   -3.8932   -2.3265   14.7696 N   0  0  2  0  0  0  0  0  0  0  0  0
   -4.5743   -1.9363   13.5651 C   0  0  0  0  0  0  0  0  0  0  0  0
   -2.4838   -2.1095   14.8521 C   0  0  0  0  0  0  0  0  0  0  0  0
   -1.6944   -2.8761   15.7249 C   0  0  0  0  0  0  0  0  0  0  0  0
   -0.3386   -2.6335   15.8473 C   0  0  0  0  0  0  0  0  0  0  0  0
    0.2634   -1.6168   15.1140 C   0  0  0  0  0  0  0  0  0  0  0  0
    1.6446   -1.3934   15.3516 N   0  0  0  0  0  0  0  0  0  0  0  0
    2.5467   -0.4494   14.7774 C   0  0  0  0  0  0  0  0  0  0  0  0
    2.1622    0.3813   13.7703 N   0  0  0  0  0  0  0  0  0  0  0  0
    3.0905    1.2361   13.2368 C   0  0  0  0  0  0  0  0  0  0  0  0
    4.3967    1.2828   13.6973 C   0  0  0  0  0  0  0  0  0  0  0  0
    4.7322    0.4976   14.7555 N   0  0  0  0  0  0  0  0  0  0  0  0
    5.8998    0.3887   15.4576 C   0  0  0  0  0  0  0  0  0  0  0  0
    5.6143   -0.5477   16.4779 C   0  0  0  0  0  0  0  0  0  0  0  0
    4.4157   -1.0782   16.3290 N   0  0  0  0  0  0  0  0  0  0  0  0
    3.8521   -0.4000   15.3224 C   0  0  0  0  0  0  0  0  0  0  0  0
    2.6115    2.1334   12.1178 C   0  0  0  0  0  0  0  0  0  0  0  0
    3.5406    2.6292   11.1800 C   0  0  0  0  0  0  0  0  0  0  0  0
    3.1477    3.4565   10.1243 C   0  0  0  0  0  0  0  0  0  0  0  0
    1.8039    3.8086   10.0214 C   0  0  0  0  0  0  0  0  0  0  0  0
    1.0010    4.6077    9.1343 C   0  0  0  0  0  0  0  0  0  0  0  0
   -0.2411    4.6153    9.5215 N   0  0  0  0  0  0  0  0  0  0  0  0
   -0.3421    3.8665   10.6189 N   0  0  0  0  0  0  0  0  0  0  0  0
    0.8809    3.3298   10.9772 C   0  0  0  0  0  0  0  0  0  0  0  0
    1.2478    2.4836   12.0372 C   0  0  0  0  0  0  0  0  0  0  0  0
   -0.4905   -0.8517   14.2206 C   0  0  0  0  0  0  0  0  0  0  0  0
   -1.8442   -1.1028   14.0951 C   0  0  0  0  0  0  0  0  0  0  0  0
   -3.7890   -2.9450   11.8694 H   0  0  0  0  0  0  0  0  0  0  0  0
   -5.4296   -2.2481   11.6465 H   0  0  0  0  0  0  0  0  0  0  0  0
   -6.2805   -3.9948   13.2677 H   0  0  0  0  0  0  0  0  0  0  0  0
   -5.6682   -4.6240   11.7006 H   0  0  0  0  0  0  0  0  0  0  0  0
   -5.1886   -5.4786   15.1874 H   0  0  0  0  0  0  0  0  0  0  0  0
   -3.4065   -5.2863   15.0700 H   0  0  0  0  0  0  0  0  0  0  0  0
   -5.5525   -3.2588   15.5826 H   0  0  0  0  0  0  0  0  0  0  0  0
   -3.9978   -3.5542   16.4326 H   0  0  0  0  0  0  0  0  0  0  0  0
   -4.0426   -1.0407   13.2114 H   0  0  0  0  0  0  0  0  0  0  0  0
   -5.5889   -1.6576   13.8860 H   0  0  0  0  0  0  0  0  0  0  0  0
   -2.1511   -3.6632   16.3065 H   0  0  0  0  0  0  0  0  0  0  0  0
    0.2564   -3.2373   16.5165 H   0  0  0  0  0  0  0  0  0  0  0  0
    5.1278    1.9249   13.2288 H   0  0  0  0  0  0  0  0  0  0  0  0
    6.8317    0.9027   15.2742 H   0  0  0  0  0  0  0  0  0  0  0  0
    6.2933   -0.7976   17.2797 H   0  0  0  0  0  0  0  0  0  0  0  0
    4.5824    2.3628   11.2801 H   0  0  0  0  0  0  0  0  0  0  0  0
    3.8693    3.8145    9.4049 H   0  0  0  0  0  0  0  0  0  0  0  0
    1.3844    5.6387    9.1299 H   0  0  0  0  0  0  0  0  0  0  0  0
    1.0603    4.1901    8.1184 H   0  0  0  0  0  0  0  0  0  0  0  0
    0.5241    2.1207   12.7521 H   0  0  0  0  0  0  0  0  0  0  0  0
   -0.3855    0.1990   14.5288 H   0  0  0  0  0  0  0  0  0  0  0  0
   -0.0444   -0.9880   13.2244 H   0  0  0  0  0  0  0  0  0  0  0  0
   -2.4269   -0.5150   13.4014 H   0  0  0  0  0  0  0  0  0  0  0  0
  1  2  1  0  0  0  0
  1  7  1  0  0  0  0
  2  3  1  0  0  0  0
  3  4  1  0  0  0  0
  4  5  1  0  0  0  0
  5  6  1  0  0  0  0
  6  7  1  0  0  0  0
  6  8  1  0  0  0  0
  8  9  1  0  0  0  0
  8 32  2  0  0  0  0
  9 10  2  0  0  0  0
 10 11  1  0  0  0  0
 11 12  2  0  0  0  0
 11 31  1  0  0  0  0
 12 13  1  0  0  0  0
 13 14  2  0  0  0  0
 13 21  1  0  0  0  0
 14 15  1  0  0  0  0
 15 16  2  0  0  0  0
 15 22  1  0  0  0  0
 16 17  1  0  0  0  0
 17 18  1  0  0  0  0
 17 21  1  0  0  0  0
 18 19  2  0  0  0  0
 19 20  1  0  0  0  0
 20 21  2  0  0  0  0
 22 23  2  0  0  0  0
 22 30  1  0  0  0  0
 23 24  1  0  0  0  0
 24 25  2  0  0  0  0
 25 26  1  0  0  0  0
 25 29  1  0  0  0  0
 26 27  1  0  0  0  0
 27 28  2  0  0  0  0
 28 29  1  0  0  0  0
 29 30  2  0  0  0  0
 31 32  1  0  0  0  0
  1 33  1  0  0  0  0
  1 34  1  0  0  0  0
  2 35  1  0  0  0  0
  2 36  1  0  0  0  0
  4 37  1  0  0  0  0
  4 38  1  0  0  0  0
  5 39  1  0  0  0  0
  5 40  1  0  0  0  0
  7 41  1  0  0  0  0
  7 42  1  0  0  0  0
  9 43  1  0  0  0  0
 10 44  1  0  0  0  0
 16 45  1  0  0  0  0
 18 46  1  0  0  0  0
 19 47  1  0  0  0  0
 23 48  1  0  0  0  0
 24 49  1  0  0  0  0
 26 50  1  0  0  0  0
 26 51  1  0  0  0  0
 30 52  1  0  0  0  0
 31 53  1  0  0  0  0
 31 54  1  0  0  0  0
 32 55  1  0  0  0  0
M  END
> <IC50[nM]>
23.1

$$$$
CHEMBL3265036
  -OEChem-05192314333D
 Structure written by MMmdl.
 55 60  0     1  0  0  0  0  0999 V2000
   -4.7688   -2.7849   12.3431 C   0  0  0  0  0  0  0  0  0  0  0  0
   -5.3846   -4.1377   12.6456 C   0  0  0  0  0  0  0  0  0  0  0  0
   -4.4594   -4.9732   13.3425 O   0  0  0  0  0  0  0  0  0  0  0  0
   -4.3771   -4.8619   14.7737 C   0  0  0  0  0  0  0  0  0  0  0  0
   -4.4823   -3.4746   15.4482 C   0  0  0  0  0  0  0  0  0  0  0  0
   -3.8932   -2.3265   14.7696 N   0  0  2  0  0  0  0  0  0  0  0  0
   -4.5743   -1.9363   13.5651 C   0  0  0  0  0  0  0  0  0  0  0  0
   -2.4838   -2.1095   14.8521 C   0  0  0  0  0  0  0  0  0  0  0  0
   -1.6944   -2.8761   15.7249 C   0  0  0  0  0  0  0  0  0  0  0  0
   -0.3386   -2.6335   15.8473 C   0  0  0  0  0  0  0  0  0  0  0  0
    0.2634   -1.6168   15.1140 C   0  0  0  0  0  0  0  0  0  0  0  0
    1.6446   -1.3934   15.3516 N   0  0  0  0  0  0  0  0  0  0  0  0
    2.5467   -0.4494   14.7774 C   0  0  0  0  0  0  0  0  0  0  0  0
    2.1622    0.3813   13.7703 N   0  0  0  0  0  0  0  0  0  0  0  0
    3.0905    1.2361   13.2368 C   0  0  0  0  0  0  0  0  0  0  0  0
    4.3967    1.2828   13.6973 C   0  0  0  0  0  0  0  0  0  0  0  0
    4.7322    0.4976   14.7555 N   0  0  0  0  0  0  0  0  0  0  0  0
    5.8998    0.3887   15.4576 C   0  0  0  0  0  0  0  0  0  0  0  0
    5.6143   -0.5477   16.4779 C   0  0  0  0  0  0  0  0  0  0  0  0
    4.4157   -1.0782   16.3290 N   0  0  0  0  0  0  0  0  0  0  0  0
    3.8521   -0.4000   15.3224 C   0  0  0  0  0  0  0  0  0  0  0  0
    2.6115    2.1334   12.1178 C   0  0  0  0  0  0  0  0  0  0  0  0
    3.5406    2.6292   11.1800 C   0  0  0  0  0  0  0  0  0  0  0  0
    3.1477    3.4565   10.1243 C   0  0  0  0  0  0  0  0  0  0  0  0
    1.8039    3.8086   10.0214 C   0  0  3  0  0  0  0  0  0  0  0  0
    1.0010    4.6077    9.1343 C   0  0  0  0  0  0  0  0  0  0  0  0
   -0.2411    4.6153    9.5215 N   0  0  0  0  0  0  0  0  0  0  0  0
   -0.3421    3.8665   10.6189 N   0  0  0  0  0  0  0  0  0  0  0  0
    0.8809    3.3298   10.9772 C   0  0  0  0  0  0  0  0  0  0  0  0
    1.2478    2.4836   12.0372 C   0  0  0  0  0  0  0  0  0  0  0  0
   -0.4905   -0.8517   14.2206 C   0  0  0  0  0  0  0  0  0  0  0  0
   -1.8442   -1.1028   14.0951 C   0  0  0  0  0  0  0  0  0  0  0  0
   -3.7890   -2.9450   11.8694 H   0  0  0  0  0  0  0  0  0  0  0  0
   -5.4296   -2.2481   11.6465 H   0  0  0  0  0  0  0  0  0  0  0  0
   -6.2805   -3.9948   13.2677 H   0  0  0  0  0  0  0  0  0  0  0  0
   -5.6682   -4.6240   11.7006 H   0  0  0  0  0  0  0  0  0  0  0  0
   -5.1886   -5.4786   15.1874 H   0  0  0  0  0  0  0  0  0  0  0  0
   -3.4065   -5.2863   15.0700 H   0  0  0  0  0  0  0  0  0  0  0  0
   -5.5525   -3.2588   15.5826 H   0  0  0  0  0  0  0  0  0  0  0  0
   -3.9978   -3.5542   16.4326 H   0  0  0  0  0  0  0  0  0  0  0  0
   -4.0426   -1.0407   13.2114 H   0  0  0  0  0  0  0  0  0  0  0  0
   -5.5889   -1.6576   13.8860 H   0  0  0  0  0  0  0  0  0  0  0  0
   -2.1511   -3.6632   16.3065 H   0  0  0  0  0  0  0  0  0  0  0  0
    0.2564   -3.2373   16.5165 H   0  0  0  0  0  0  0  0  0  0  0  0
    2.0533   -1.9982   16.0351 H   0  0  0  0  0  0  0  0  0  0  0  0
    5.1278    1.9249   13.2288 H   0  0  0  0  0  0  0  0  0  0  0  0
    6.8317    0.9027   15.2742 H   0  0  0  0  0  0  0  0  0  0  0  0
    6.2933   -0.7976   17.2797 H   0  0  0  0  0  0  0  0  0  0  0  0
    4.5824    2.3628   11.2801 H   0  0  0  0  0  0  0  0  0  0  0  0
    3.8693    3.8145    9.4049 H   0  0  0  0  0  0  0  0  0  0  0  0
    1.6179    2.9234    9.3955 H   0  0  0  0  0  0  0  0  0  0  0  0
    1.3774    5.1292    8.2667 H   0  0  0  0  0  0  0  0  0  0  0  0
    0.5241    2.1207   12.7521 H   0  0  0  0  0  0  0  0  0  0  0  0
   -0.0219   -0.0742   13.6356 H   0  0  0  0  0  0  0  0  0  0  0  0
   -2.4269   -0.5150   13.4014 H   0  0  0  0  0  0  0  0  0  0  0  0
  1  2  1  0  0  0  0
  1  7  1  0  0  0  0
  2  3  1  0  0  0  0
  3  4  1  0  0  0  0
  4  5  1  0  0  0  0
  5  6  1  0  0  0  0
  6  7  1  0  0  0  0
  6  8  1  0  0  0  0
  8  9  2  0  0  0  0
  8 32  1  0  0  0  0
  9 10  1  0  0  0  0
 10 11  2  0  0  0  0
 11 12  1  0  0  0  0
 11 31  1  0  0  0  0
 12 13  1  0  0  0  0
 13 14  2  0  0  0  0
 13 21  1  0  0  0  0
 14 15  1  0  0  0  0
 15 16  2  0  0  0  0
 15 22  1  0  0  0  0
 16 17  1  0  0  0  0
 17 18  1  0  0  0  0
 17 21  1  0  0  0  0
 18 19  2  0  0  0  0
 19 20  1  0  0  0  0
 20 21  2  0  0  0  0
 22 23  1  0  0  0  0
 22 30  2  0  0  0  0
 23 24  2  0  0  0  0
 24 25  1  0  0  0  0
 25 26  1  0  0  0  0
 25 29  1  0  0  0  0
 26 27  2  0  0  0  0
 27 28  1  0  0  0  0
 28 29  2  0  0  0  0
 29 30  1  0  0  0  0
 31 32  2  0  0  0  0
  1 33  1  0  0  0  0
  1 34  1  0  0  0  0
  2 35  1  0  0  0  0
  2 36  1  0  0  0  0
  4 37  1  0  0  0  0
  4 38  1  0  0  0  0
  5 39  1  0  0  0  0
  5 40  1  0  0  0  0
  7 41  1  0  0  0  0
  7 42  1  0  0  0  0
  9 43  1  0  0  0  0
 10 44  1  0  0  0  0
 12 45  1  0  0  0  0
 16 46  1  0  0  0  0
 18 47  1  0  0  0  0
 19 48  1  0  0  0  0
 23 49  1  0  0  0  0
 24 50  1  0  0  0  0
 25 51  1  0  0  0  0
 26 52  1  0  0  0  0
 30 53  1  0  0  0  0
 31 54  1  0  0  0  0
 32 55  1  0  0  0  0
M  END
> <IC50[nM]>
23.1

$$$$
CHEMBL3265036
  -OEChem-05192314333D
 Structure written by MMmdl.
 55 60  0     1  0  0  0  0  0999 V2000
   -4.7688   -2.7849   12.3431 C   0  0  0  0  0  0  0  0  0  0  0  0
   -5.3846   -4.1377   12.6456 C   0  0  0  0  0  0  0  0  0  0  0  0
   -4.4594   -4.9732   13.3425 O   0  0  0  0  0  0  0  0  0  0  0  0
   -4.3771   -4.8619   14.7737 C   0  0  0  0  0  0  0  0  0  0  0  0
   -4.4823   -3.4746   15.4482 C   0  0  0  0  0  0  0  0  0  0  0  0
   -3.8932   -2.3265   14.7696 N   0  0  2  0  0  0  0  0  0  0  0  0
   -4.5743   -1.9363   13.5651 C   0  0  0  0  0  0  0  0  0  0  0  0
   -2.4838   -2.1095   14.8521 C   0  0  0  0  0  0  0  0  0  0  0  0
   -1.6944   -2.8761   15.7249 C   0  0  0  0  0  0  0  0  0  0  0  0
   -0.3386   -2.6335   15.8473 C   0  0  0  0  0  0  0  0  0  0  0  0
    0.2634   -1.6168   15.1140 C   0  0  0  0  0  0  0  0  0  0  0  0
    1.6446   -1.3934   15.3516 N   0  0  0  0  0  0  0  0  0  0  0  0
    2.5467   -0.4494   14.7774 C   0  0  0  0  0  0  0  0  0  0  0  0
    2.1622    0.3813   13.7703 N   0  0  0  0  0  0  0  0  0  0  0  0
    3.0905    1.2361   13.2368 C   0  0  0  0  0  0  0  0  0  0  0  0
    4.3967    1.2828   13.6973 C   0  0  0  0  0  0  0  0  0  0  0  0
    4.7322    0.4976   14.7555 N   0  0  0  0  0  0  0  0  0  0  0  0
    5.8998    0.3887   15.4576 C   0  0  0  0  0  0  0  0  0  0  0  0
    5.6143   -0.5477   16.4779 C   0  0  0  0  0  0  0  0  0  0  0  0
    4.4157   -1.0782   16.3290 N   0  0  0  0  0  0  0  0  0  0  0  0
    3.8521   -0.4000   15.3224 C   0  0  0  0  0  0  0  0  0  0  0  0
    2.6115    2.1334   12.1178 C   0  0  0  0  0  0  0  0  0  0  0  0
    3.5406    2.6292   11.1800 C   0  0  0  0  0  0  0  0  0  0  0  0
    3.1477    3.4565   10.1243 C   0  0  0  0  0  0  0  0  0  0  0  0
    1.8039    3.8086   10.0214 C   0  0  0  0  0  0  0  0  0  0  0  0
    1.0010    4.6077    9.1343 C   0  0  0  0  0  0  0  0  0  0  0  0
   -0.2411    4.6153    9.5215 N   0  0  0  0  0  0  0  0  0  0  0  0
   -0.3421    3.8665   10.6189 N   0  0  0  0  0  0  0  0  0  0  0  0
    0.8809    3.3298   10.9772 C   0  0  0  0  0  0  0  0  0  0  0  0
    1.2478    2.4836   12.0372 C   0  0  0  0  0  0  0  0  0  0  0  0
   -0.4905   -0.8517   14.2206 C   0  0  0  0  0  0  0  0  0  0  0  0
   -1.8442   -1.1028   14.0951 C   0  0  0  0  0  0  0  0  0  0  0  0
   -3.7890   -2.9450   11.8694 H   0  0  0  0  0  0  0  0  0  0  0  0
   -5.4296   -2.2481   11.6465 H   0  0  0  0  0  0  0  0  0  0  0  0
   -6.2805   -3.9948   13.2677 H   0  0  0  0  0  0  0  0  0  0  0  0
   -5.6682   -4.6240   11.7006 H   0  0  0  0  0  0  0  0  0  0  0  0
   -5.1886   -5.4786   15.1874 H   0  0  0  0  0  0  0  0  0  0  0  0
   -3.4065   -5.2863   15.0700 H   0  0  0  0  0  0  0  0  0  0  0  0
   -5.5525   -3.2588   15.5826 H   0  0  0  0  0  0  0  0  0  0  0  0
   -3.9978   -3.5542   16.4326 H   0  0  0  0  0  0  0  0  0  0  0  0
   -4.0426   -1.0407   13.2114 H   0  0  0  0  0  0  0  0  0  0  0  0
   -5.5889   -1.6576   13.8860 H   0  0  0  0  0  0  0  0  0  0  0  0
   -2.1511   -3.6632   16.3065 H   0  0  0  0  0  0  0  0  0  0  0  0
    0.2564   -3.2373   16.5165 H   0  0  0  0  0  0  0  0  0  0  0  0
    2.0533   -1.9982   16.0351 H   0  0  0  0  0  0  0  0  0  0  0  0
    5.1278    1.9249   13.2288 H   0  0  0  0  0  0  0  0  0  0  0  0
    6.8317    0.9027   15.2742 H   0  0  0  0  0  0  0  0  0  0  0  0
    6.2933   -0.7976   17.2797 H   0  0  0  0  0  0  0  0  0  0  0  0
    4.2884    3.1952   11.7548 H   0  0  0  0  0  0  0  0  0  0  0  0
    4.0181    1.7499   10.7229 H   0  0  0  0  0  0  0  0  0  0  0  0
    3.8693    3.8145    9.4049 H   0  0  0  0  0  0  0  0  0  0  0  0
    1.3774    5.1292    8.2667 H   0  0  0  0  0  0  0  0  0  0  0  0
    0.5241    2.1207   12.7521 H   0  0  0  0  0  0  0  0  0  0  0  0
   -0.0219   -0.0742   13.6356 H   0  0  0  0  0  0  0  0  0  0  0  0
   -2.4269   -0.5150   13.4014 H   0  0  0  0  0  0  0  0  0  0  0  0
  1  2  1  0  0  0  0
  1  7  1  0  0  0  0
  2  3  1  0  0  0  0
  3  4  1  0  0  0  0
  4  5  1  0  0  0  0
  5  6  1  0  0  0  0
  6  7  1  0  0  0  0
  6  8  1  0  0  0  0
  8  9  2  0  0  0  0
  8 32  1  0  0  0  0
  9 10  1  0  0  0  0
 10 11  2  0  0  0  0
 11 12  1  0  0  0  0
 11 31  1  0  0  0  0
 12 13  1  0  0  0  0
 13 14  2  0  0  0  0
 13 21  1  0  0  0  0
 14 15  1  0  0  0  0
 15 16  2  0  0  0  0
 15 22  1  0  0  0  0
 16 17  1  0  0  0  0
 17 18  1  0  0  0  0
 17 21  1  0  0  0  0
 18 19  2  0  0  0  0
 19 20  1  0  0  0  0
 20 21  2  0  0  0  0
 22 23  1  0  0  0  0
 22 30  2  0  0  0  0
 23 24  1  0  0  0  0
 24 25  2  0  0  0  0
 25 26  1  0  0  0  0
 25 29  1  0  0  0  0
 26 27  2  0  0  0  0
 27 28  1  0  0  0  0
 28 29  2  0  0  0  0
 29 30  1  0  0  0  0
 31 32  2  0  0  0  0
  1 33  1  0  0  0  0
  1 34  1  0  0  0  0
  2 35  1  0  0  0  0
  2 36  1  0  0  0  0
  4 37  1  0  0  0  0
  4 38  1  0  0  0  0
  5 39  1  0  0  0  0
  5 40  1  0  0  0  0
  7 41  1  0  0  0  0
  7 42  1  0  0  0  0
  9 43  1  0  0  0  0
 10 44  1  0  0  0  0
 12 45  1  0  0  0  0
 16 46  1  0  0  0  0
 18 47  1  0  0  0  0
 19 48  1  0  0  0  0
 23 49  1  0  0  0  0
 23 50  1  0  0  0  0
 24 51  1  0  0  0  0
 26 52  1  0  0  0  0
 30 53  1  0  0  0  0
 31 54  1  0  0  0  0
 32 55  1  0  0  0  0
M  END
> <IC50[nM]>
23.1

$$$$
CHEMBL3265036
  -OEChem-05192314333D
 Structure written by MMmdl.
 55 60  0     1  0  0  0  0  0999 V2000
   -4.7688   -2.7849   12.3431 C   0  0  0  0  0  0  0  0  0  0  0  0
   -5.3846   -4.1377   12.6456 C   0  0  0  0  0  0  0  0  0  0  0  0
   -4.4594   -4.9732   13.3425 O   0  0  0  0  0  0  0  0  0  0  0  0
   -4.3771   -4.8619   14.7737 C   0  0  0  0  0  0  0  0  0  0  0  0
   -4.4823   -3.4746   15.4482 C   0  0  0  0  0  0  0  0  0  0  0  0
   -3.8932   -2.3265   14.7696 N   0  0  2  0  0  0  0  0  0  0  0  0
   -4.5743   -1.9363   13.5651 C   0  0  0  0  0  0  0  0  0  0  0  0
   -2.4838   -2.1095   14.8521 C   0  0  0  0  0  0  0  0  0  0  0  0
   -1.6944   -2.8761   15.7249 C   0  0  0  0  0  0  0  0  0  0  0  0
   -0.3386   -2.6335   15.8473 C   0  0  0  0  0  0  0  0  0  0  0  0
    0.2634   -1.6168   15.1140 C   0  0  0  0  0  0  0  0  0  0  0  0
    1.6446   -1.3934   15.3516 N   0  0  0  0  0  0  0  0  0  0  0  0
    2.5467   -0.4494   14.7774 C   0  0  0  0  0  0  0  0  0  0  0  0
    2.1622    0.3813   13.7703 N   0  0  0  0  0  0  0  0  0  0  0  0
    3.0905    1.2361   13.2368 C   0  0  0  0  0  0  0  0  0  0  0  0
    4.3967    1.2828   13.6973 C   0  0  0  0  0  0  0  0  0  0  0  0
    4.7322    0.4976   14.7555 N   0  0  0  0  0  0  0  0  0  0  0  0
    5.8998    0.3887   15.4576 C   0  0  0  0  0  0  0  0  0  0  0  0
    5.6143   -0.5477   16.4779 C   0  0  0  0  0  0  0  0  0  0  0  0
    4.4157   -1.0782   16.3290 N   0  0  0  0  0  0  0  0  0  0  0  0
    3.8521   -0.4000   15.3224 C   0  0  0  0  0  0  0  0  0  0  0  0
    2.6115    2.1334   12.1178 C   0  0  0  0  0  0  0  0  0  0  0  0
    3.5406    2.6292   11.1800 C   0  0  0  0  0  0  0  0  0  0  0  0
    3.1477    3.4565   10.1243 C   0  0  0  0  0  0  0  0  0  0  0  0
    1.8039    3.8086   10.0214 C   0  0  0  0  0  0  0  0  0  0  0  0
    1.0010    4.6077    9.1343 C   0  0  0  0  0  0  0  0  0  0  0  0
   -0.2411    4.6153    9.5215 N   0  0  0  0  0  0  0  0  0  0  0  0
   -0.3421    3.8665   10.6189 N   0  0  0  0  0  0  0  0  0  0  0  0
    0.8809    3.3298   10.9772 C   0  0  0  0  0  0  0  0  0  0  0  0
    1.2478    2.4836   12.0372 C   0  0  0  0  0  0  0  0  0  0  0  0
   -0.4905   -0.8517   14.2206 C   0  0  0  0  0  0  0  0  0  0  0  0
   -1.8442   -1.1028   14.0951 C   0  0  0  0  0  0  0  0  0  0  0  0
   -3.7890   -2.9450   11.8694 H   0  0  0  0  0  0  0  0  0  0  0  0
   -5.4296   -2.2481   11.6465 H   0  0  0  0  0  0  0  0  0  0  0  0
   -6.2805   -3.9948   13.2677 H   0  0  0  0  0  0  0  0  0  0  0  0
   -5.6682   -4.6240   11.7006 H   0  0  0  0  0  0  0  0  0  0  0  0
   -5.1886   -5.4786   15.1874 H   0  0  0  0  0  0  0  0  0  0  0  0
   -3.4065   -5.2863   15.0700 H   0  0  0  0  0  0  0  0  0  0  0  0
   -5.5525   -3.2588   15.5826 H   0  0  0  0  0  0  0  0  0  0  0  0
   -3.9978   -3.5542   16.4326 H   0  0  0  0  0  0  0  0  0  0  0  0
   -4.0426   -1.0407   13.2114 H   0  0  0  0  0  0  0  0  0  0  0  0
   -5.5889   -1.6576   13.8860 H   0  0  0  0  0  0  0  0  0  0  0  0
   -2.1511   -3.6632   16.3065 H   0  0  0  0  0  0  0  0  0  0  0  0
    0.2564   -3.2373   16.5165 H   0  0  0  0  0  0  0  0  0  0  0  0
    2.0533   -1.9982   16.0351 H   0  0  0  0  0  0  0  0  0  0  0  0
    5.1278    1.9249   13.2288 H   0  0  0  0  0  0  0  0  0  0  0  0
    6.8317    0.9027   15.2742 H   0  0  0  0  0  0  0  0  0  0  0  0
    6.2933   -0.7976   17.2797 H   0  0  0  0  0  0  0  0  0  0  0  0
    4.5824    2.3628   11.2801 H   0  0  0  0  0  0  0  0  0  0  0  0
    3.8693    3.8145    9.4049 H   0  0  0  0  0  0  0  0  0  0  0  0
    1.3774    5.1292    8.2667 H   0  0  0  0  0  0  0  0  0  0  0  0
    0.6689    1.5535   11.9385 H   0  0  0  0  0  0  0  0  0  0  0  0
    0.9756    2.9870   12.9766 H   0  0  0  0  0  0  0  0  0  0  0  0
   -0.0219   -0.0742   13.6356 H   0  0  0  0  0  0  0  0  0  0  0  0
   -2.4269   -0.5150   13.4014 H   0  0  0  0  0  0  0  0  0  0  0  0
  1  2  1  0  0  0  0
  1  7  1  0  0  0  0
  2  3  1  0  0  0  0
  3  4  1  0  0  0  0
  4  5  1  0  0  0  0
  5  6  1  0  0  0  0
  6  7  1  0  0  0  0
  6  8  1  0  0  0  0
  8  9  2  0  0  0  0
  8 32  1  0  0  0  0
  9 10  1  0  0  0  0
 10 11  2  0  0  0  0
 11 12  1  0  0  0  0
 11 31  1  0  0  0  0
 12 13  1  0  0  0  0
 13 14  2  0  0  0  0
 13 21  1  0  0  0  0
 14 15  1  0  0  0  0
 15 16  2  0  0  0  0
 15 22  1  0  0  0  0
 16 17  1  0  0  0  0
 17 18  1  0  0  0  0
 17 21  1  0  0  0  0
 18 19  2  0  0  0  0
 19 20  1  0  0  0  0
 20 21  2  0  0  0  0
 22 23  2  0  0  0  0
 22 30  1  0  0  0  0
 23 24  1  0  0  0  0
 24 25  2  0  0  0  0
 25 26  1  0  0  0  0
 25 29  1  0  0  0  0
 26 27  2  0  0  0  0
 27 28  1  0  0  0  0
 28 29  2  0  0  0  0
 29 30  1  0  0  0  0
 31 32  2  0  0  0  0
  1 33  1  0  0  0  0
  1 34  1  0  0  0  0
  2 35  1  0  0  0  0
  2 36  1  0  0  0  0
  4 37  1  0  0  0  0
  4 38  1  0  0  0  0
  5 39  1  0  0  0  0
  5 40  1  0  0  0  0
  7 41  1  0  0  0  0
  7 42  1  0  0  0  0
  9 43  1  0  0  0  0
 10 44  1  0  0  0  0
 12 45  1  0  0  0  0
 16 46  1  0  0  0  0
 18 47  1  0  0  0  0
 19 48  1  0  0  0  0
 23 49  1  0  0  0  0
 24 50  1  0  0  0  0
 26 51  1  0  0  0  0
 30 52  1  0  0  0  0
 30 53  1  0  0  0  0
 31 54  1  0  0  0  0
 32 55  1  0  0  0  0
M  END
> <IC50[nM]>
23.1

$$$$
CHEMBL3265036
  -OEChem-05192314333D
 Structure written by MMmdl.
 55 60  0     1  0  0  0  0  0999 V2000
   -4.7688   -2.7849   12.3431 C   0  0  0  0  0  0  0  0  0  0  0  0
   -5.3846   -4.1377   12.6456 C   0  0  0  0  0  0  0  0  0  0  0  0
   -4.4594   -4.9732   13.3425 O   0  0  0  0  0  0  0  0  0  0  0  0
   -4.3771   -4.8619   14.7737 C   0  0  0  0  0  0  0  0  0  0  0  0
   -4.4823   -3.4746   15.4482 C   0  0  0  0  0  0  0  0  0  0  0  0
   -3.8932   -2.3265   14.7696 N   0  0  2  0  0  0  0  0  0  0  0  0
   -4.5743   -1.9363   13.5651 C   0  0  0  0  0  0  0  0  0  0  0  0
   -2.4838   -2.1095   14.8521 C   0  0  0  0  0  0  0  0  0  0  0  0
   -1.6944   -2.8761   15.7249 C   0  0  0  0  0  0  0  0  0  0  0  0
   -0.3386   -2.6335   15.8473 C   0  0  0  0  0  0  0  0  0  0  0  0
    0.2634   -1.6168   15.1140 C   0  0  0  0  0  0  0  0  0  0  0  0
    1.6446   -1.3934   15.3516 N   0  0  0  0  0  0  0  0  0  0  0  0
    2.5467   -0.4494   14.7774 C   0  0  0  0  0  0  0  0  0  0  0  0
    2.1622    0.3813   13.7703 N   0  0  0  0  0  0  0  0  0  0  0  0
    3.0905    1.2361   13.2368 C   0  0  0  0  0  0  0  0  0  0  0  0
    4.3967    1.2828   13.6973 C   0  0  0  0  0  0  0  0  0  0  0  0
    4.7322    0.4976   14.7555 N   0  0  0  0  0  0  0  0  0  0  0  0
    5.8998    0.3887   15.4576 C   0  0  0  0  0  0  0  0  0  0  0  0
    5.6143   -0.5477   16.4779 C   0  0  0  0  0  0  0  0  0  0  0  0
    4.4157   -1.0782   16.3290 N   0  0  0  0  0  0  0  0  0  0  0  0
    3.8521   -0.4000   15.3224 C   0  0  0  0  0  0  0  0  0  0  0  0
    2.6115    2.1334   12.1178 C   0  0  3  0  0  0  0  0  0  0  0  0
    3.5406    2.6292   11.1800 C   0  0  0  0  0  0  0  0  0  0  0  0
    3.1477    3.4565   10.1243 C   0  0  0  0  0  0  0  0  0  0  0  0
    1.8039    3.8086   10.0214 C   0  0  0  0  0  0  0  0  0  0  0  0
    1.0010    4.6077    9.1343 C   0  0  0  0  0  0  0  0  0  0  0  0
   -0.2411    4.6153    9.5215 N   0  0  0  0  0  0  0  0  0  0  0  0
   -0.3421    3.8665   10.6189 N   0  0  0  0  0  0  0  0  0  0  0  0
    0.8809    3.3298   10.9772 C   0  0  0  0  0  0  0  0  0  0  0  0
    1.2478    2.4836   12.0372 C   0  0  0  0  0  0  0  0  0  0  0  0
   -0.4905   -0.8517   14.2206 C   0  0  0  0  0  0  0  0  0  0  0  0
   -1.8442   -1.1028   14.0951 C   0  0  0  0  0  0  0  0  0  0  0  0
   -3.7890   -2.9450   11.8694 H   0  0  0  0  0  0  0  0  0  0  0  0
   -5.4296   -2.2481   11.6465 H   0  0  0  0  0  0  0  0  0  0  0  0
   -6.2805   -3.9948   13.2677 H   0  0  0  0  0  0  0  0  0  0  0  0
   -5.6682   -4.6240   11.7006 H   0  0  0  0  0  0  0  0  0  0  0  0
   -5.1886   -5.4786   15.1874 H   0  0  0  0  0  0  0  0  0  0  0  0
   -3.4065   -5.2863   15.0700 H   0  0  0  0  0  0  0  0  0  0  0  0
   -5.5525   -3.2588   15.5826 H   0  0  0  0  0  0  0  0  0  0  0  0
   -3.9978   -3.5542   16.4326 H   0  0  0  0  0  0  0  0  0  0  0  0
   -4.0426   -1.0407   13.2114 H   0  0  0  0  0  0  0  0  0  0  0  0
   -5.5889   -1.6576   13.8860 H   0  0  0  0  0  0  0  0  0  0  0  0
   -2.1511   -3.6632   16.3065 H   0  0  0  0  0  0  0  0  0  0  0  0
    0.2564   -3.2373   16.5165 H   0  0  0  0  0  0  0  0  0  0  0  0
    2.0533   -1.9982   16.0351 H   0  0  0  0  0  0  0  0  0  0  0  0
    5.1278    1.9249   13.2288 H   0  0  0  0  0  0  0  0  0  0  0  0
    6.8317    0.9027   15.2742 H   0  0  0  0  0  0  0  0  0  0  0  0
    6.2933   -0.7976   17.2797 H   0  0  0  0  0  0  0  0  0  0  0  0
    2.4298    1.2540   11.4824 H   0  0  0  0  0  0  0  0  0  0  0  0
    4.5824    2.3628   11.2801 H   0  0  0  0  0  0  0  0  0  0  0  0
    3.8693    3.8145    9.4049 H   0  0  0  0  0  0  0  0  0  0  0  0
    1.3774    5.1292    8.2667 H   0  0  0  0  0  0  0  0  0  0  0  0
    0.5241    2.1207   12.7521 H   0  0  0  0  0  0  0  0  0  0  0  0
   -0.0219   -0.0742   13.6356 H   0  0  0  0  0  0  0  0  0  0  0  0
   -2.4269   -0.5150   13.4014 H   0  0  0  0  0  0  0  0  0  0  0  0
  1  2  1  0  0  0  0
  1  7  1  0  0  0  0
  2  3  1  0  0  0  0
  3  4  1  0  0  0  0
  4  5  1  0  0  0  0
  5  6  1  0  0  0  0
  6  7  1  0  0  0  0
  6  8  1  0  0  0  0
  8  9  2  0  0  0  0
  8 32  1  0  0  0  0
  9 10  1  0  0  0  0
 10 11  2  0  0  0  0
 11 12  1  0  0  0  0
 11 31  1  0  0  0  0
 12 13  1  0  0  0  0
 13 14  2  0  0  0  0
 13 21  1  0  0  0  0
 14 15  1  0  0  0  0
 15 16  2  0  0  0  0
 15 22  1  0  0  0  0
 16 17  1  0  0  0  0
 17 18  1  0  0  0  0
 17 21  1  0  0  0  0
 18 19  2  0  0  0  0
 19 20  1  0  0  0  0
 20 21  2  0  0  0  0
 22 23  1  0  0  0  0
 22 30  1  0  0  0  0
 23 24  2  0  0  0  0
 24 25  1  0  0  0  0
 25 26  2  0  0  0  0
 25 29  1  0  0  0  0
 26 27  1  0  0  0  0
 27 28  2  0  0  0  0
 28 29  1  0  0  0  0
 29 30  2  0  0  0  0
 31 32  2  0  0  0  0
  1 33  1  0  0  0  0
  1 34  1  0  0  0  0
  2 35  1  0  0  0  0
  2 36  1  0  0  0  0
  4 37  1  0  0  0  0
  4 38  1  0  0  0  0
  5 39  1  0  0  0  0
  5 40  1  0  0  0  0
  7 41  1  0  0  0  0
  7 42  1  0  0  0  0
  9 43  1  0  0  0  0
 10 44  1  0  0  0  0
 12 45  1  0  0  0  0
 16 46  1  0  0  0  0
 18 47  1  0  0  0  0
 19 48  1  0  0  0  0
 22 49  1  0  0  0  0
 23 50  1  0  0  0  0
 24 51  1  0  0  0  0
 26 52  1  0  0  0  0
 30 53  1  0  0  0  0
 31 54  1  0  0  0  0
 32 55  1  0  0  0  0
M  END
> <IC50[nM]>
23.1

$$$$
CHEMBL3265036
  -OEChem-05192314333D
 Structure written by MMmdl.
 55 60  0     1  0  0  0  0  0999 V2000
   -4.7688   -2.7849   12.3431 C   0  0  0  0  0  0  0  0  0  0  0  0
   -5.3846   -4.1377   12.6456 C   0  0  0  0  0  0  0  0  0  0  0  0
   -4.4594   -4.9732   13.3425 O   0  0  0  0  0  0  0  0  0  0  0  0
   -4.3771   -4.8619   14.7737 C   0  0  0  0  0  0  0  0  0  0  0  0
   -4.4823   -3.4746   15.4482 C   0  0  0  0  0  0  0  0  0  0  0  0
   -3.8932   -2.3265   14.7696 N   0  0  2  0  0  0  0  0  0  0  0  0
   -4.5743   -1.9363   13.5651 C   0  0  0  0  0  0  0  0  0  0  0  0
   -2.4838   -2.1095   14.8521 C   0  0  0  0  0  0  0  0  0  0  0  0
   -1.6944   -2.8761   15.7249 C   0  0  0  0  0  0  0  0  0  0  0  0
   -0.3386   -2.6335   15.8473 C   0  0  0  0  0  0  0  0  0  0  0  0
    0.2634   -1.6168   15.1140 C   0  0  0  0  0  0  0  0  0  0  0  0
    1.6446   -1.3934   15.3516 N   0  0  0  0  0  0  0  0  0  0  0  0
    2.5467   -0.4494   14.7774 C   0  0  0  0  0  0  0  0  0  0  0  0
    2.1622    0.3813   13.7703 N   0  0  0  0  0  0  0  0  0  0  0  0
    3.0905    1.2361   13.2368 C   0  0  0  0  0  0  0  0  0  0  0  0
    4.3967    1.2828   13.6973 C   0  0  0  0  0  0  0  0  0  0  0  0
    4.7322    0.4976   14.7555 N   0  0  0  0  0  0  0  0  0  0  0  0
    5.8998    0.3887   15.4576 C   0  0  0  0  0  0  0  0  0  0  0  0
    5.6143   -0.5477   16.4779 C   0  0  0  0  0  0  0  0  0  0  0  0
    4.4157   -1.0782   16.3290 N   0  0  0  0  0  0  0  0  0  0  0  0
    3.8521   -0.4000   15.3224 C   0  0  0  0  0  0  0  0  0  0  0  0
    2.6115    2.1334   12.1178 C   0  0  0  0  0  0  0  0  0  0  0  0
    3.5406    2.6292   11.1800 C   0  0  0  0  0  0  0  0  0  0  0  0
    3.1477    3.4565   10.1243 C   0  0  0  0  0  0  0  0  0  0  0  0
    1.8039    3.8086   10.0214 C   0  0  0  0  0  0  0  0  0  0  0  0
    1.0010    4.6077    9.1343 C   0  0  0  0  0  0  0  0  0  0  0  0
   -0.2411    4.6153    9.5215 N   0  0  0  0  0  0  0  0  0  0  0  0
   -0.3421    3.8665   10.6189 N   0  0  0  0  0  0  0  0  0  0  0  0
    0.8809    3.3298   10.9772 C   0  0  3  0  0  0  0  0  0  0  0  0
    1.2478    2.4836   12.0372 C   0  0  0  0  0  0  0  0  0  0  0  0
   -0.4905   -0.8517   14.2206 C   0  0  0  0  0  0  0  0  0  0  0  0
   -1.8442   -1.1028   14.0951 C   0  0  0  0  0  0  0  0  0  0  0  0
   -3.7890   -2.9450   11.8694 H   0  0  0  0  0  0  0  0  0  0  0  0
   -5.4296   -2.2481   11.6465 H   0  0  0  0  0  0  0  0  0  0  0  0
   -6.2805   -3.9948   13.2677 H   0  0  0  0  0  0  0  0  0  0  0  0
   -5.6682   -4.6240   11.7006 H   0  0  0  0  0  0  0  0  0  0  0  0
   -5.1886   -5.4786   15.1874 H   0  0  0  0  0  0  0  0  0  0  0  0
   -3.4065   -5.2863   15.0700 H   0  0  0  0  0  0  0  0  0  0  0  0
   -5.5525   -3.2588   15.5826 H   0  0  0  0  0  0  0  0  0  0  0  0
   -3.9978   -3.5542   16.4326 H   0  0  0  0  0  0  0  0  0  0  0  0
   -4.0426   -1.0407   13.2114 H   0  0  0  0  0  0  0  0  0  0  0  0
   -5.5889   -1.6576   13.8860 H   0  0  0  0  0  0  0  0  0  0  0  0
   -2.1511   -3.6632   16.3065 H   0  0  0  0  0  0  0  0  0  0  0  0
    0.2564   -3.2373   16.5165 H   0  0  0  0  0  0  0  0  0  0  0  0
    2.0533   -1.9982   16.0351 H   0  0  0  0  0  0  0  0  0  0  0  0
    5.1278    1.9249   13.2288 H   0  0  0  0  0  0  0  0  0  0  0  0
    6.8317    0.9027   15.2742 H   0  0  0  0  0  0  0  0  0  0  0  0
    6.2933   -0.7976   17.2797 H   0  0  0  0  0  0  0  0  0  0  0  0
    4.5824    2.3628   11.2801 H   0  0  0  0  0  0  0  0  0  0  0  0
    3.8693    3.8145    9.4049 H   0  0  0  0  0  0  0  0  0  0  0  0
    1.3774    5.1292    8.2667 H   0  0  0  0  0  0  0  0  0  0  0  0
    0.6812    2.4520   10.3451 H   0  0  0  0  0  0  0  0  0  0  0  0
    0.5241    2.1207   12.7521 H   0  0  0  0  0  0  0  0  0  0  0  0
   -0.0219   -0.0742   13.6356 H   0  0  0  0  0  0  0  0  0  0  0  0
   -2.4269   -0.5150   13.4014 H   0  0  0  0  0  0  0  0  0  0  0  0
  1  2  1  0  0  0  0
  1  7  1  0  0  0  0
  2  3  1  0  0  0  0
  3  4  1  0  0  0  0
  4  5  1  0  0  0  0
  5  6  1  0  0  0  0
  6  7  1  0  0  0  0
  6  8  1  0  0  0  0
  8  9  2  0  0  0  0
  8 32  1  0  0  0  0
  9 10  1  0  0  0  0
 10 11  2  0  0  0  0
 11 12  1  0  0  0  0
 11 31  1  0  0  0  0
 12 13  1  0  0  0  0
 13 14  2  0  0  0  0
 13 21  1  0  0  0  0
 14 15  1  0  0  0  0
 15 16  2  0  0  0  0
 15 22  1  0  0  0  0
 16 17  1  0  0  0  0
 17 18  1  0  0  0  0
 17 21  1  0  0  0  0
 18 19  2  0  0  0  0
 19 20  1  0  0  0  0
 20 21  2  0  0  0  0
 22 23  1  0  0  0  0
 22 30  2  0  0  0  0
 23 24  2  0  0  0  0
 24 25  1  0  0  0  0
 25 26  2  0  0  0  0
 25 29  1  0  0  0  0
 26 27  1  0  0  0  0
 27 28  2  0  0  0  0
 28 29  1  0  0  0  0
 29 30  1  0  0  0  0
 31 32  2  0  0  0  0
  1 33  1  0  0  0  0
  1 34  1  0  0  0  0
  2 35  1  0  0  0  0
  2 36  1  0  0  0  0
  4 37  1  0  0  0  0
  4 38  1  0  0  0  0
  5 39  1  0  0  0  0
  5 40  1  0  0  0  0
  7 41  1  0  0  0  0
  7 42  1  0  0  0  0
  9 43  1  0  0  0  0
 10 44  1  0  0  0  0
 12 45  1  0  0  0  0
 16 46  1  0  0  0  0
 18 47  1  0  0  0  0
 19 48  1  0  0  0  0
 23 49  1  0  0  0  0
 24 50  1  0  0  0  0
 26 51  1  0  0  0  0
 29 52  1  0  0  0  0
 30 53  1  0  0  0  0
 31 54  1  0  0  0  0
 32 55  1  0  0  0  0
M  END
> <IC50[nM]>
23.1

$$$$
CHEMBL3265036
  -OEChem-05192314333D
 Structure written by MMmdl.
 55 60  0     1  0  0  0  0  0999 V2000
   -4.7688   -2.7849   12.3431 C   0  0  0  0  0  0  0  0  0  0  0  0
   -5.3846   -4.1377   12.6456 C   0  0  0  0  0  0  0  0  0  0  0  0
   -4.4594   -4.9732   13.3425 O   0  0  0  0  0  0  0  0  0  0  0  0
   -4.3771   -4.8619   14.7737 C   0  0  0  0  0  0  0  0  0  0  0  0
   -4.4823   -3.4746   15.4482 C   0  0  0  0  0  0  0  0  0  0  0  0
   -3.8932   -2.3265   14.7696 N   0  0  2  0  0  0  0  0  0  0  0  0
   -4.5743   -1.9363   13.5651 C   0  0  0  0  0  0  0  0  0  0  0  0
   -2.4838   -2.1095   14.8521 C   0  0  0  0  0  0  0  0  0  0  0  0
   -1.6944   -2.8761   15.7249 C   0  0  0  0  0  0  0  0  0  0  0  0
   -0.3386   -2.6335   15.8473 C   0  0  0  0  0  0  0  0  0  0  0  0
    0.2634   -1.6168   15.1140 C   0  0  0  0  0  0  0  0  0  0  0  0
    1.6446   -1.3934   15.3516 N   0  0  0  0  0  0  0  0  0  0  0  0
    2.5467   -0.4494   14.7774 C   0  0  0  0  0  0  0  0  0  0  0  0
    2.1622    0.3813   13.7703 N   0  0  0  0  0  0  0  0  0  0  0  0
    3.0905    1.2361   13.2368 C   0  0  0  0  0  0  0  0  0  0  0  0
    4.3967    1.2828   13.6973 C   0  0  0  0  0  0  0  0  0  0  0  0
    4.7322    0.4976   14.7555 N   0  0  0  0  0  0  0  0  0  0  0  0
    5.8998    0.3887   15.4576 C   0  0  0  0  0  0  0  0  0  0  0  0
    5.6143   -0.5477   16.4779 C   0  0  0  0  0  0  0  0  0  0  0  0
    4.4157   -1.0782   16.3290 N   0  0  0  0  0  0  0  0  0  0  0  0
    3.8521   -0.4000   15.3224 C   0  0  0  0  0  0  0  0  0  0  0  0
    2.6115    2.1334   12.1178 C   0  0  0  0  0  0  0  0  0  0  0  0
    3.5406    2.6292   11.1800 C   0  0  0  0  0  0  0  0  0  0  0  0
    3.1477    3.4565   10.1243 C   0  0  0  0  0  0  0  0  0  0  0  0
    1.8039    3.8086   10.0214 C   0  0  0  0  0  0  0  0  0  0  0  0
    1.0010    4.6077    9.1343 C   0  0  0  0  0  0  0  0  0  0  0  0
   -0.2411    4.6153    9.5215 N   0  0  0  0  0  0  0  0  0  0  0  0
   -0.3421    3.8665   10.6189 N   0  0  0  0  0  0  0  0  0  0  0  0
    0.8809    3.3298   10.9772 C   0  0  0  0  0  0  0  0  0  0  0  0
    1.2478    2.4836   12.0372 C   0  0  0  0  0  0  0  0  0  0  0  0
   -0.4905   -0.8517   14.2206 C   0  0  0  0  0  0  0  0  0  0  0  0
   -1.8442   -1.1028   14.0951 C   0  0  0  0  0  0  0  0  0  0  0  0
   -3.7890   -2.9450   11.8694 H   0  0  0  0  0  0  0  0  0  0  0  0
   -5.4296   -2.2481   11.6465 H   0  0  0  0  0  0  0  0  0  0  0  0
   -6.2805   -3.9948   13.2677 H   0  0  0  0  0  0  0  0  0  0  0  0
   -5.6682   -4.6240   11.7006 H   0  0  0  0  0  0  0  0  0  0  0  0
   -5.1886   -5.4786   15.1874 H   0  0  0  0  0  0  0  0  0  0  0  0
   -3.4065   -5.2863   15.0700 H   0  0  0  0  0  0  0  0  0  0  0  0
   -5.5525   -3.2588   15.5826 H   0  0  0  0  0  0  0  0  0  0  0  0
   -3.9978   -3.5542   16.4326 H   0  0  0  0  0  0  0  0  0  0  0  0
   -4.0426   -1.0407   13.2114 H   0  0  0  0  0  0  0  0  0  0  0  0
   -5.5889   -1.6576   13.8860 H   0  0  0  0  0  0  0  0  0  0  0  0
   -2.1511   -3.6632   16.3065 H   0  0  0  0  0  0  0  0  0  0  0  0
    0.2564   -3.2373   16.5165 H   0  0  0  0  0  0  0  0  0  0  0  0
    2.0533   -1.9982   16.0351 H   0  0  0  0  0  0  0  0  0  0  0  0
    5.1278    1.9249   13.2288 H   0  0  0  0  0  0  0  0  0  0  0  0
    6.8317    0.9027   15.2742 H   0  0  0  0  0  0  0  0  0  0  0  0
    6.2933   -0.7976   17.2797 H   0  0  0  0  0  0  0  0  0  0  0  0
    4.5824    2.3628   11.2801 H   0  0  0  0  0  0  0  0  0  0  0  0
    3.7224    4.3903   10.2121 H   0  0  0  0  0  0  0  0  0  0  0  0
    3.4216    2.9438    9.1905 H   0  0  0  0  0  0  0  0  0  0  0  0
    1.3774    5.1292    8.2667 H   0  0  0  0  0  0  0  0  0  0  0  0
    0.5241    2.1207   12.7521 H   0  0  0  0  0  0  0  0  0  0  0  0
   -0.0219   -0.0742   13.6356 H   0  0  0  0  0  0  0  0  0  0  0  0
   -2.4269   -0.5150   13.4014 H   0  0  0  0  0  0  0  0  0  0  0  0
  1  2  1  0  0  0  0
  1  7  1  0  0  0  0
  2  3  1  0  0  0  0
  3  4  1  0  0  0  0
  4  5  1  0  0  0  0
  5  6  1  0  0  0  0
  6  7  1  0  0  0  0
  6  8  1  0  0  0  0
  8  9  2  0  0  0  0
  8 32  1  0  0  0  0
  9 10  1  0  0  0  0
 10 11  2  0  0  0  0
 11 12  1  0  0  0  0
 11 31  1  0  0  0  0
 12 13  1  0  0  0  0
 13 14  2  0  0  0  0
 13 21  1  0  0  0  0
 14 15  1  0  0  0  0
 15 16  2  0  0  0  0
 15 22  1  0  0  0  0
 16 17  1  0  0  0  0
 17 18  1  0  0  0  0
 17 21  1  0  0  0  0
 18 19  2  0  0  0  0
 19 20  1  0  0  0  0
 20 21  2  0  0  0  0
 22 23  2  0  0  0  0
 22 30  1  0  0  0  0
 23 24  1  0  0  0  0
 24 25  1  0  0  0  0
 25 26  2  0  0  0  0
 25 29  1  0  0  0  0
 26 27  1  0  0  0  0
 27 28  2  0  0  0  0
 28 29  1  0  0  0  0
 29 30  2  0  0  0  0
 31 32  2  0  0  0  0
  1 33  1  0  0  0  0
  1 34  1  0  0  0  0
  2 35  1  0  0  0  0
  2 36  1  0  0  0  0
  4 37  1  0  0  0  0
  4 38  1  0  0  0  0
  5 39  1  0  0  0  0
  5 40  1  0  0  0  0
  7 41  1  0  0  0  0
  7 42  1  0  0  0  0
  9 43  1  0  0  0  0
 10 44  1  0  0  0  0
 12 45  1  0  0  0  0
 16 46  1  0  0  0  0
 18 47  1  0  0  0  0
 19 48  1  0  0  0  0
 23 49  1  0  0  0  0
 24 50  1  0  0  0  0
 24 51  1  0  0  0  0
 26 52  1  0  0  0  0
 30 53  1  0  0  0  0
 31 54  1  0  0  0  0
 32 55  1  0  0  0  0
M  END
> <IC50[nM]>
23.1

$$$$
CHEMBL3265036
  -OEChem-05192314333D
 Structure written by MMmdl.
 55 60  0     1  0  0  0  0  0999 V2000
   -4.7688   -2.7849   12.3431 C   0  0  0  0  0  0  0  0  0  0  0  0
   -5.3846   -4.1377   12.6456 C   0  0  0  0  0  0  0  0  0  0  0  0
   -4.4594   -4.9732   13.3425 O   0  0  0  0  0  0  0  0  0  0  0  0
   -4.3771   -4.8619   14.7737 C   0  0  0  0  0  0  0  0  0  0  0  0
   -4.4823   -3.4746   15.4482 C   0  0  0  0  0  0  0  0  0  0  0  0
   -3.8932   -2.3265   14.7696 N   0  0  2  0  0  0  0  0  0  0  0  0
   -4.5743   -1.9363   13.5651 C   0  0  0  0  0  0  0  0  0  0  0  0
   -2.4838   -2.1095   14.8521 C   0  0  0  0  0  0  0  0  0  0  0  0
   -1.6944   -2.8761   15.7249 C   0  0  0  0  0  0  0  0  0  0  0  0
   -0.3386   -2.6335   15.8473 C   0  0  0  0  0  0  0  0  0  0  0  0
    0.2634   -1.6168   15.1140 C   0  0  0  0  0  0  0  0  0  0  0  0
    1.6446   -1.3934   15.3516 N   0  0  0  0  0  0  0  0  0  0  0  0
    2.5467   -0.4494   14.7774 C   0  0  0  0  0  0  0  0  0  0  0  0
    2.1622    0.3813   13.7703 N   0  0  0  0  0  0  0  0  0  0  0  0
    3.0905    1.2361   13.2368 C   0  0  0  0  0  0  0  0  0  0  0  0
    4.3967    1.2828   13.6973 C   0  0  0  0  0  0  0  0  0  0  0  0
    4.7322    0.4976   14.7555 N   0  0  0  0  0  0  0  0  0  0  0  0
    5.8998    0.3887   15.4576 C   0  0  0  0  0  0  0  0  0  0  0  0
    5.6143   -0.5477   16.4779 C   0  0  0  0  0  0  0  0  0  0  0  0
    4.4157   -1.0782   16.3290 N   0  0  0  0  0  0  0  0  0  0  0  0
    3.8521   -0.4000   15.3224 C   0  0  0  0  0  0  0  0  0  0  0  0
    2.6115    2.1334   12.1178 C   0  0  0  0  0  0  0  0  0  0  0  0
    3.5406    2.6292   11.1800 C   0  0  0  0  0  0  0  0  0  0  0  0
    3.1477    3.4565   10.1243 C   0  0  0  0  0  0  0  0  0  0  0  0
    1.8039    3.8086   10.0214 C   0  0  3  0  0  0  0  0  0  0  0  0
    1.0010    4.6077    9.1343 C   0  0  0  0  0  0  0  0  0  0  0  0
   -0.2411    4.6153    9.5215 N   0  0  0  0  0  0  0  0  0  0  0  0
   -0.3421    3.8665   10.6189 N   0  0  0  0  0  0  0  0  0  0  0  0
    0.8809    3.3298   10.9772 C   0  0  0  0  0  0  0  0  0  0  0  0
    1.2478    2.4836   12.0372 C   0  0  0  0  0  0  0  0  0  0  0  0
   -0.4905   -0.8517   14.2206 C   0  0  0  0  0  0  0  0  0  0  0  0
   -1.8442   -1.1028   14.0951 C   0  0  0  0  0  0  0  0  0  0  0  0
   -3.7890   -2.9450   11.8694 H   0  0  0  0  0  0  0  0  0  0  0  0
   -5.4296   -2.2481   11.6465 H   0  0  0  0  0  0  0  0  0  0  0  0
   -6.2805   -3.9948   13.2677 H   0  0  0  0  0  0  0  0  0  0  0  0
   -5.6682   -4.6240   11.7006 H   0  0  0  0  0  0  0  0  0  0  0  0
   -5.1886   -5.4786   15.1874 H   0  0  0  0  0  0  0  0  0  0  0  0
   -3.4065   -5.2863   15.0700 H   0  0  0  0  0  0  0  0  0  0  0  0
   -5.5525   -3.2588   15.5826 H   0  0  0  0  0  0  0  0  0  0  0  0
   -3.9978   -3.5542   16.4326 H   0  0  0  0  0  0  0  0  0  0  0  0
   -4.0426   -1.0407   13.2114 H   0  0  0  0  0  0  0  0  0  0  0  0
   -5.5889   -1.6576   13.8860 H   0  0  0  0  0  0  0  0  0  0  0  0
   -2.1511   -3.6632   16.3065 H   0  0  0  0  0  0  0  0  0  0  0  0
    0.2564   -3.2373   16.5165 H   0  0  0  0  0  0  0  0  0  0  0  0
    1.2230    0.3681   13.4273 H   0  0  0  0  0  0  0  0  0  0  0  0
    5.1278    1.9249   13.2288 H   0  0  0  0  0  0  0  0  0  0  0  0
    6.8317    0.9027   15.2742 H   0  0  0  0  0  0  0  0  0  0  0  0
    6.2933   -0.7976   17.2797 H   0  0  0  0  0  0  0  0  0  0  0  0
    4.5824    2.3628   11.2801 H   0  0  0  0  0  0  0  0  0  0  0  0
    3.8693    3.8145    9.4049 H   0  0  0  0  0  0  0  0  0  0  0  0
    1.6179    2.9234    9.3955 H   0  0  0  0  0  0  0  0  0  0  0  0
    1.3774    5.1292    8.2667 H   0  0  0  0  0  0  0  0  0  0  0  0
    0.5241    2.1207   12.7521 H   0  0  0  0  0  0  0  0  0  0  0  0
   -0.0219   -0.0742   13.6356 H   0  0  0  0  0  0  0  0  0  0  0  0
   -2.4269   -0.5150   13.4014 H   0  0  0  0  0  0  0  0  0  0  0  0
  1  2  1  0  0  0  0
  1  7  1  0  0  0  0
  2  3  1  0  0  0  0
  3  4  1  0  0  0  0
  4  5  1  0  0  0  0
  5  6  1  0  0  0  0
  6  7  1  0  0  0  0
  6  8  1  0  0  0  0
  8  9  2  0  0  0  0
  8 32  1  0  0  0  0
  9 10  1  0  0  0  0
 10 11  2  0  0  0  0
 11 12  1  0  0  0  0
 11 31  1  0  0  0  0
 12 13  2  0  0  0  0
 13 14  1  0  0  0  0
 13 21  1  0  0  0  0
 14 15  1  0  0  0  0
 15 16  2  0  0  0  0
 15 22  1  0  0  0  0
 16 17  1  0  0  0  0
 17 18  1  0  0  0  0
 17 21  1  0  0  0  0
 18 19  2  0  0  0  0
 19 20  1  0  0  0  0
 20 21  2  0  0  0  0
 22 23  1  0  0  0  0
 22 30  2  0  0  0  0
 23 24  2  0  0  0  0
 24 25  1  0  0  0  0
 25 26  1  0  0  0  0
 25 29  1  0  0  0  0
 26 27  2  0  0  0  0
 27 28  1  0  0  0  0
 28 29  2  0  0  0  0
 29 30  1  0  0  0  0
 31 32  2  0  0  0  0
  1 33  1  0  0  0  0
  1 34  1  0  0  0  0
  2 35  1  0  0  0  0
  2 36  1  0  0  0  0
  4 37  1  0  0  0  0
  4 38  1  0  0  0  0
  5 39  1  0  0  0  0
  5 40  1  0  0  0  0
  7 41  1  0  0  0  0
  7 42  1  0  0  0  0
  9 43  1  0  0  0  0
 10 44  1  0  0  0  0
 14 45  1  0  0  0  0
 16 46  1  0  0  0  0
 18 47  1  0  0  0  0
 19 48  1  0  0  0  0
 23 49  1  0  0  0  0
 24 50  1  0  0  0  0
 25 51  1  0  0  0  0
 26 52  1  0  0  0  0
 30 53  1  0  0  0  0
 31 54  1  0  0  0  0
 32 55  1  0  0  0  0
M  END
> <IC50[nM]>
23.1

$$$$
CHEMBL3265036
  -OEChem-05192314333D
 Structure written by MMmdl.
 55 60  0     1  0  0  0  0  0999 V2000
   -4.7688   -2.7849   12.3431 C   0  0  0  0  0  0  0  0  0  0  0  0
   -5.3846   -4.1377   12.6456 C   0  0  0  0  0  0  0  0  0  0  0  0
   -4.4594   -4.9732   13.3425 O   0  0  0  0  0  0  0  0  0  0  0  0
   -4.3771   -4.8619   14.7737 C   0  0  0  0  0  0  0  0  0  0  0  0
   -4.4823   -3.4746   15.4482 C   0  0  0  0  0  0  0  0  0  0  0  0
   -3.8932   -2.3265   14.7696 N   0  0  2  0  0  0  0  0  0  0  0  0
   -4.5743   -1.9363   13.5651 C   0  0  0  0  0  0  0  0  0  0  0  0
   -2.4838   -2.1095   14.8521 C   0  0  0  0  0  0  0  0  0  0  0  0
   -1.6944   -2.8761   15.7249 C   0  0  0  0  0  0  0  0  0  0  0  0
   -0.3386   -2.6335   15.8473 C   0  0  0  0  0  0  0  0  0  0  0  0
    0.2634   -1.6168   15.1140 C   0  0  0  0  0  0  0  0  0  0  0  0
    1.6446   -1.3934   15.3516 N   0  0  0  0  0  0  0  0  0  0  0  0
    2.5467   -0.4494   14.7774 C   0  0  0  0  0  0  0  0  0  0  0  0
    2.1622    0.3813   13.7703 N   0  0  0  0  0  0  0  0  0  0  0  0
    3.0905    1.2361   13.2368 C   0  0  0  0  0  0  0  0  0  0  0  0
    4.3967    1.2828   13.6973 C   0  0  0  0  0  0  0  0  0  0  0  0
    4.7322    0.4976   14.7555 N   0  0  0  0  0  0  0  0  0  0  0  0
    5.8998    0.3887   15.4576 C   0  0  0  0  0  0  0  0  0  0  0  0
    5.6143   -0.5477   16.4779 C   0  0  0  0  0  0  0  0  0  0  0  0
    4.4157   -1.0782   16.3290 N   0  0  0  0  0  0  0  0  0  0  0  0
    3.8521   -0.4000   15.3224 C   0  0  0  0  0  0  0  0  0  0  0  0
    2.6115    2.1334   12.1178 C   0  0  0  0  0  0  0  0  0  0  0  0
    3.5406    2.6292   11.1800 C   0  0  0  0  0  0  0  0  0  0  0  0
    3.1477    3.4565   10.1243 C   0  0  0  0  0  0  0  0  0  0  0  0
    1.8039    3.8086   10.0214 C   0  0  0  0  0  0  0  0  0  0  0  0
    1.0010    4.6077    9.1343 C   0  0  0  0  0  0  0  0  0  0  0  0
   -0.2411    4.6153    9.5215 N   0  0  0  0  0  0  0  0  0  0  0  0
   -0.3421    3.8665   10.6189 N   0  0  0  0  0  0  0  0  0  0  0  0
    0.8809    3.3298   10.9772 C   0  0  0  0  0  0  0  0  0  0  0  0
    1.2478    2.4836   12.0372 C   0  0  0  0  0  0  0  0  0  0  0  0
   -0.4905   -0.8517   14.2206 C   0  0  0  0  0  0  0  0  0  0  0  0
   -1.8442   -1.1028   14.0951 C   0  0  0  0  0  0  0  0  0  0  0  0
   -3.7890   -2.9450   11.8694 H   0  0  0  0  0  0  0  0  0  0  0  0
   -5.4296   -2.2481   11.6465 H   0  0  0  0  0  0  0  0  0  0  0  0
   -6.2805   -3.9948   13.2677 H   0  0  0  0  0  0  0  0  0  0  0  0
   -5.6682   -4.6240   11.7006 H   0  0  0  0  0  0  0  0  0  0  0  0
   -5.1886   -5.4786   15.1874 H   0  0  0  0  0  0  0  0  0  0  0  0
   -3.4065   -5.2863   15.0700 H   0  0  0  0  0  0  0  0  0  0  0  0
   -5.5525   -3.2588   15.5826 H   0  0  0  0  0  0  0  0  0  0  0  0
   -3.9978   -3.5542   16.4326 H   0  0  0  0  0  0  0  0  0  0  0  0
   -4.0426   -1.0407   13.2114 H   0  0  0  0  0  0  0  0  0  0  0  0
   -5.5889   -1.6576   13.8860 H   0  0  0  0  0  0  0  0  0  0  0  0
   -2.1511   -3.6632   16.3065 H   0  0  0  0  0  0  0  0  0  0  0  0
    0.2564   -3.2373   16.5165 H   0  0  0  0  0  0  0  0  0  0  0  0
    1.2230    0.3681   13.4273 H   0  0  0  0  0  0  0  0  0  0  0  0
    5.1278    1.9249   13.2288 H   0  0  0  0  0  0  0  0  0  0  0  0
    6.8317    0.9027   15.2742 H   0  0  0  0  0  0  0  0  0  0  0  0
    6.2933   -0.7976   17.2797 H   0  0  0  0  0  0  0  0  0  0  0  0
    4.2884    3.1952   11.7548 H   0  0  0  0  0  0  0  0  0  0  0  0
    4.0181    1.7499   10.7229 H   0  0  0  0  0  0  0  0  0  0  0  0
    3.8693    3.8145    9.4049 H   0  0  0  0  0  0  0  0  0  0  0  0
    1.3774    5.1292    8.2667 H   0  0  0  0  0  0  0  0  0  0  0  0
    0.5241    2.1207   12.7521 H   0  0  0  0  0  0  0  0  0  0  0  0
   -0.0219   -0.0742   13.6356 H   0  0  0  0  0  0  0  0  0  0  0  0
   -2.4269   -0.5150   13.4014 H   0  0  0  0  0  0  0  0  0  0  0  0
  1  2  1  0  0  0  0
  1  7  1  0  0  0  0
  2  3  1  0  0  0  0
  3  4  1  0  0  0  0
  4  5  1  0  0  0  0
  5  6  1  0  0  0  0
  6  7  1  0  0  0  0
  6  8  1  0  0  0  0
  8  9  2  0  0  0  0
  8 32  1  0  0  0  0
  9 10  1  0  0  0  0
 10 11  2  0  0  0  0
 11 12  1  0  0  0  0
 11 31  1  0  0  0  0
 12 13  2  0  0  0  0
 13 14  1  0  0  0  0
 13 21  1  0  0  0  0
 14 15  1  0  0  0  0
 15 16  2  0  0  0  0
 15 22  1  0  0  0  0
 16 17  1  0  0  0  0
 17 18  1  0  0  0  0
 17 21  1  0  0  0  0
 18 19  2  0  0  0  0
 19 20  1  0  0  0  0
 20 21  2  0  0  0  0
 22 23  1  0  0  0  0
 22 30  2  0  0  0  0
 23 24  1  0  0  0  0
 24 25  2  0  0  0  0
 25 26  1  0  0  0  0
 25 29  1  0  0  0  0
 26 27  2  0  0  0  0
 27 28  1  0  0  0  0
 28 29  2  0  0  0  0
 29 30  1  0  0  0  0
 31 32  2  0  0  0  0
  1 33  1  0  0  0  0
  1 34  1  0  0  0  0
  2 35  1  0  0  0  0
  2 36  1  0  0  0  0
  4 37  1  0  0  0  0
  4 38  1  0  0  0  0
  5 39  1  0  0  0  0
  5 40  1  0  0  0  0
  7 41  1  0  0  0  0
  7 42  1  0  0  0  0
  9 43  1  0  0  0  0
 10 44  1  0  0  0  0
 14 45  1  0  0  0  0
 16 46  1  0  0  0  0
 18 47  1  0  0  0  0
 19 48  1  0  0  0  0
 23 49  1  0  0  0  0
 23 50  1  0  0  0  0
 24 51  1  0  0  0  0
 26 52  1  0  0  0  0
 30 53  1  0  0  0  0
 31 54  1  0  0  0  0
 32 55  1  0  0  0  0
M  END
> <IC50[nM]>
23.1

$$$$
CHEMBL3265036
  -OEChem-05192314333D
 Structure written by MMmdl.
 55 60  0     1  0  0  0  0  0999 V2000
   -4.7688   -2.7849   12.3431 C   0  0  0  0  0  0  0  0  0  0  0  0
   -5.3846   -4.1377   12.6456 C   0  0  0  0  0  0  0  0  0  0  0  0
   -4.4594   -4.9732   13.3425 O   0  0  0  0  0  0  0  0  0  0  0  0
   -4.3771   -4.8619   14.7737 C   0  0  0  0  0  0  0  0  0  0  0  0
   -4.4823   -3.4746   15.4482 C   0  0  0  0  0  0  0  0  0  0  0  0
   -3.8932   -2.3265   14.7696 N   0  0  2  0  0  0  0  0  0  0  0  0
   -4.5743   -1.9363   13.5651 C   0  0  0  0  0  0  0  0  0  0  0  0
   -2.4838   -2.1095   14.8521 C   0  0  0  0  0  0  0  0  0  0  0  0
   -1.6944   -2.8761   15.7249 C   0  0  0  0  0  0  0  0  0  0  0  0
   -0.3386   -2.6335   15.8473 C   0  0  0  0  0  0  0  0  0  0  0  0
    0.2634   -1.6168   15.1140 C   0  0  0  0  0  0  0  0  0  0  0  0
    1.6446   -1.3934   15.3516 N   0  0  0  0  0  0  0  0  0  0  0  0
    2.5467   -0.4494   14.7774 C   0  0  0  0  0  0  0  0  0  0  0  0
    2.1622    0.3813   13.7703 N   0  0  0  0  0  0  0  0  0  0  0  0
    3.0905    1.2361   13.2368 C   0  0  0  0  0  0  0  0  0  0  0  0
    4.3967    1.2828   13.6973 C   0  0  0  0  0  0  0  0  0  0  0  0
    4.7322    0.4976   14.7555 N   0  0  0  0  0  0  0  0  0  0  0  0
    5.8998    0.3887   15.4576 C   0  0  0  0  0  0  0  0  0  0  0  0
    5.6143   -0.5477   16.4779 C   0  0  0  0  0  0  0  0  0  0  0  0
    4.4157   -1.0782   16.3290 N   0  0  0  0  0  0  0  0  0  0  0  0
    3.8521   -0.4000   15.3224 C   0  0  0  0  0  0  0  0  0  0  0  0
    2.6115    2.1334   12.1178 C   0  0  0  0  0  0  0  0  0  0  0  0
    3.5406    2.6292   11.1800 C   0  0  0  0  0  0  0  0  0  0  0  0
    3.1477    3.4565   10.1243 C   0  0  0  0  0  0  0  0  0  0  0  0
    1.8039    3.8086   10.0214 C   0  0  0  0  0  0  0  0  0  0  0  0
    1.0010    4.6077    9.1343 C   0  0  0  0  0  0  0  0  0  0  0  0
   -0.2411    4.6153    9.5215 N   0  0  0  0  0  0  0  0  0  0  0  0
   -0.3421    3.8665   10.6189 N   0  0  0  0  0  0  0  0  0  0  0  0
    0.8809    3.3298   10.9772 C   0  0  0  0  0  0  0  0  0  0  0  0
    1.2478    2.4836   12.0372 C   0  0  0  0  0  0  0  0  0  0  0  0
   -0.4905   -0.8517   14.2206 C   0  0  0  0  0  0  0  0  0  0  0  0
   -1.8442   -1.1028   14.0951 C   0  0  0  0  0  0  0  0  0  0  0  0
   -3.7890   -2.9450   11.8694 H   0  0  0  0  0  0  0  0  0  0  0  0
   -5.4296   -2.2481   11.6465 H   0  0  0  0  0  0  0  0  0  0  0  0
   -6.2805   -3.9948   13.2677 H   0  0  0  0  0  0  0  0  0  0  0  0
   -5.6682   -4.6240   11.7006 H   0  0  0  0  0  0  0  0  0  0  0  0
   -5.1886   -5.4786   15.1874 H   0  0  0  0  0  0  0  0  0  0  0  0
   -3.4065   -5.2863   15.0700 H   0  0  0  0  0  0  0  0  0  0  0  0
   -5.5525   -3.2588   15.5826 H   0  0  0  0  0  0  0  0  0  0  0  0
   -3.9978   -3.5542   16.4326 H   0  0  0  0  0  0  0  0  0  0  0  0
   -4.0426   -1.0407   13.2114 H   0  0  0  0  0  0  0  0  0  0  0  0
   -5.5889   -1.6576   13.8860 H   0  0  0  0  0  0  0  0  0  0  0  0
   -2.1511   -3.6632   16.3065 H   0  0  0  0  0  0  0  0  0  0  0  0
    0.2564   -3.2373   16.5165 H   0  0  0  0  0  0  0  0  0  0  0  0
    1.2230    0.3681   13.4273 H   0  0  0  0  0  0  0  0  0  0  0  0
    5.1278    1.9249   13.2288 H   0  0  0  0  0  0  0  0  0  0  0  0
    6.8317    0.9027   15.2742 H   0  0  0  0  0  0  0  0  0  0  0  0
    6.2933   -0.7976   17.2797 H   0  0  0  0  0  0  0  0  0  0  0  0
    4.5824    2.3628   11.2801 H   0  0  0  0  0  0  0  0  0  0  0  0
    3.8693    3.8145    9.4049 H   0  0  0  0  0  0  0  0  0  0  0  0
    1.3774    5.1292    8.2667 H   0  0  0  0  0  0  0  0  0  0  0  0
    0.6689    1.5535   11.9385 H   0  0  0  0  0  0  0  0  0  0  0  0
    0.9756    2.9870   12.9766 H   0  0  0  0  0  0  0  0  0  0  0  0
   -0.0219   -0.0742   13.6356 H   0  0  0  0  0  0  0  0  0  0  0  0
   -2.4269   -0.5150   13.4014 H   0  0  0  0  0  0  0  0  0  0  0  0
  1  2  1  0  0  0  0
  1  7  1  0  0  0  0
  2  3  1  0  0  0  0
  3  4  1  0  0  0  0
  4  5  1  0  0  0  0
  5  6  1  0  0  0  0
  6  7  1  0  0  0  0
  6  8  1  0  0  0  0
  8  9  2  0  0  0  0
  8 32  1  0  0  0  0
  9 10  1  0  0  0  0
 10 11  2  0  0  0  0
 11 12  1  0  0  0  0
 11 31  1  0  0  0  0
 12 13  2  0  0  0  0
 13 14  1  0  0  0  0
 13 21  1  0  0  0  0
 14 15  1  0  0  0  0
 15 16  2  0  0  0  0
 15 22  1  0  0  0  0
 16 17  1  0  0  0  0
 17 18  1  0  0  0  0
 17 21  1  0  0  0  0
 18 19  2  0  0  0  0
 19 20  1  0  0  0  0
 20 21  2  0  0  0  0
 22 23  2  0  0  0  0
 22 30  1  0  0  0  0
 23 24  1  0  0  0  0
 24 25  2  0  0  0  0
 25 26  1  0  0  0  0
 25 29  1  0  0  0  0
 26 27  2  0  0  0  0
 27 28  1  0  0  0  0
 28 29  2  0  0  0  0
 29 30  1  0  0  0  0
 31 32  2  0  0  0  0
  1 33  1  0  0  0  0
  1 34  1  0  0  0  0
  2 35  1  0  0  0  0
  2 36  1  0  0  0  0
  4 37  1  0  0  0  0
  4 38  1  0  0  0  0
  5 39  1  0  0  0  0
  5 40  1  0  0  0  0
  7 41  1  0  0  0  0
  7 42  1  0  0  0  0
  9 43  1  0  0  0  0
 10 44  1  0  0  0  0
 14 45  1  0  0  0  0
 16 46  1  0  0  0  0
 18 47  1  0  0  0  0
 19 48  1  0  0  0  0
 23 49  1  0  0  0  0
 24 50  1  0  0  0  0
 26 51  1  0  0  0  0
 30 52  1  0  0  0  0
 30 53  1  0  0  0  0
 31 54  1  0  0  0  0
 32 55  1  0  0  0  0
M  END
> <IC50[nM]>
23.1

$$$$
CHEMBL3265036
  -OEChem-05192314333D
 Structure written by MMmdl.
 55 60  0     1  0  0  0  0  0999 V2000
   -4.7688   -2.7849   12.3431 C   0  0  0  0  0  0  0  0  0  0  0  0
   -5.3846   -4.1377   12.6456 C   0  0  0  0  0  0  0  0  0  0  0  0
   -4.4594   -4.9732   13.3425 O   0  0  0  0  0  0  0  0  0  0  0  0
   -4.3771   -4.8619   14.7737 C   0  0  0  0  0  0  0  0  0  0  0  0
   -4.4823   -3.4746   15.4482 C   0  0  0  0  0  0  0  0  0  0  0  0
   -3.8932   -2.3265   14.7696 N   0  0  2  0  0  0  0  0  0  0  0  0
   -4.5743   -1.9363   13.5651 C   0  0  0  0  0  0  0  0  0  0  0  0
   -2.4838   -2.1095   14.8521 C   0  0  0  0  0  0  0  0  0  0  0  0
   -1.6944   -2.8761   15.7249 C   0  0  0  0  0  0  0  0  0  0  0  0
   -0.3386   -2.6335   15.8473 C   0  0  0  0  0  0  0  0  0  0  0  0
    0.2634   -1.6168   15.1140 C   0  0  0  0  0  0  0  0  0  0  0  0
    1.6446   -1.3934   15.3516 N   0  0  0  0  0  0  0  0  0  0  0  0
    2.5467   -0.4494   14.7774 C   0  0  0  0  0  0  0  0  0  0  0  0
    2.1622    0.3813   13.7703 N   0  0  0  0  0  0  0  0  0  0  0  0
    3.0905    1.2361   13.2368 C   0  0  0  0  0  0  0  0  0  0  0  0
    4.3967    1.2828   13.6973 C   0  0  0  0  0  0  0  0  0  0  0  0
    4.7322    0.4976   14.7555 N   0  0  0  0  0  0  0  0  0  0  0  0
    5.8998    0.3887   15.4576 C   0  0  0  0  0  0  0  0  0  0  0  0
    5.6143   -0.5477   16.4779 C   0  0  0  0  0  0  0  0  0  0  0  0
    4.4157   -1.0782   16.3290 N   0  0  0  0  0  0  0  0  0  0  0  0
    3.8521   -0.4000   15.3224 C   0  0  0  0  0  0  0  0  0  0  0  0
    2.6115    2.1334   12.1178 C   0  0  3  0  0  0  0  0  0  0  0  0
    3.5406    2.6292   11.1800 C   0  0  0  0  0  0  0  0  0  0  0  0
    3.1477    3.4565   10.1243 C   0  0  0  0  0  0  0  0  0  0  0  0
    1.8039    3.8086   10.0214 C   0  0  0  0  0  0  0  0  0  0  0  0
    1.0010    4.6077    9.1343 C   0  0  0  0  0  0  0  0  0  0  0  0
   -0.2411    4.6153    9.5215 N   0  0  0  0  0  0  0  0  0  0  0  0
   -0.3421    3.8665   10.6189 N   0  0  0  0  0  0  0  0  0  0  0  0
    0.8809    3.3298   10.9772 C   0  0  0  0  0  0  0  0  0  0  0  0
    1.2478    2.4836   12.0372 C   0  0  0  0  0  0  0  0  0  0  0  0
   -0.4905   -0.8517   14.2206 C   0  0  0  0  0  0  0  0  0  0  0  0
   -1.8442   -1.1028   14.0951 C   0  0  0  0  0  0  0  0  0  0  0  0
   -3.7890   -2.9450   11.8694 H   0  0  0  0  0  0  0  0  0  0  0  0
   -5.4296   -2.2481   11.6465 H   0  0  0  0  0  0  0  0  0  0  0  0
   -6.2805   -3.9948   13.2677 H   0  0  0  0  0  0  0  0  0  0  0  0
   -5.6682   -4.6240   11.7006 H   0  0  0  0  0  0  0  0  0  0  0  0
   -5.1886   -5.4786   15.1874 H   0  0  0  0  0  0  0  0  0  0  0  0
   -3.4065   -5.2863   15.0700 H   0  0  0  0  0  0  0  0  0  0  0  0
   -5.5525   -3.2588   15.5826 H   0  0  0  0  0  0  0  0  0  0  0  0
   -3.9978   -3.5542   16.4326 H   0  0  0  0  0  0  0  0  0  0  0  0
   -4.0426   -1.0407   13.2114 H   0  0  0  0  0  0  0  0  0  0  0  0
   -5.5889   -1.6576   13.8860 H   0  0  0  0  0  0  0  0  0  0  0  0
   -2.1511   -3.6632   16.3065 H   0  0  0  0  0  0  0  0  0  0  0  0
    0.2564   -3.2373   16.5165 H   0  0  0  0  0  0  0  0  0  0  0  0
    1.2230    0.3681   13.4273 H   0  0  0  0  0  0  0  0  0  0  0  0
    5.1278    1.9249   13.2288 H   0  0  0  0  0  0  0  0  0  0  0  0
    6.8317    0.9027   15.2742 H   0  0  0  0  0  0  0  0  0  0  0  0
    6.2933   -0.7976   17.2797 H   0  0  0  0  0  0  0  0  0  0  0  0
    2.4298    1.2540   11.4824 H   0  0  0  0  0  0  0  0  0  0  0  0
    4.5824    2.3628   11.2801 H   0  0  0  0  0  0  0  0  0  0  0  0
    3.8693    3.8145    9.4049 H   0  0  0  0  0  0  0  0  0  0  0  0
    1.3774    5.1292    8.2667 H   0  0  0  0  0  0  0  0  0  0  0  0
    0.5241    2.1207   12.7521 H   0  0  0  0  0  0  0  0  0  0  0  0
   -0.0219   -0.0742   13.6356 H   0  0  0  0  0  0  0  0  0  0  0  0
   -2.4269   -0.5150   13.4014 H   0  0  0  0  0  0  0  0  0  0  0  0
  1  2  1  0  0  0  0
  1  7  1  0  0  0  0
  2  3  1  0  0  0  0
  3  4  1  0  0  0  0
  4  5  1  0  0  0  0
  5  6  1  0  0  0  0
  6  7  1  0  0  0  0
  6  8  1  0  0  0  0
  8  9  2  0  0  0  0
  8 32  1  0  0  0  0
  9 10  1  0  0  0  0
 10 11  2  0  0  0  0
 11 12  1  0  0  0  0
 11 31  1  0  0  0  0
 12 13  2  0  0  0  0
 13 14  1  0  0  0  0
 13 21  1  0  0  0  0
 14 15  1  0  0  0  0
 15 16  2  0  0  0  0
 15 22  1  0  0  0  0
 16 17  1  0  0  0  0
 17 18  1  0  0  0  0
 17 21  1  0  0  0  0
 18 19  2  0  0  0  0
 19 20  1  0  0  0  0
 20 21  2  0  0  0  0
 22 23  1  0  0  0  0
 22 30  1  0  0  0  0
 23 24  2  0  0  0  0
 24 25  1  0  0  0  0
 25 26  2  0  0  0  0
 25 29  1  0  0  0  0
 26 27  1  0  0  0  0
 27 28  2  0  0  0  0
 28 29  1  0  0  0  0
 29 30  2  0  0  0  0
 31 32  2  0  0  0  0
  1 33  1  0  0  0  0
  1 34  1  0  0  0  0
  2 35  1  0  0  0  0
  2 36  1  0  0  0  0
  4 37  1  0  0  0  0
  4 38  1  0  0  0  0
  5 39  1  0  0  0  0
  5 40  1  0  0  0  0
  7 41  1  0  0  0  0
  7 42  1  0  0  0  0
  9 43  1  0  0  0  0
 10 44  1  0  0  0  0
 14 45  1  0  0  0  0
 16 46  1  0  0  0  0
 18 47  1  0  0  0  0
 19 48  1  0  0  0  0
 22 49  1  0  0  0  0
 23 50  1  0  0  0  0
 24 51  1  0  0  0  0
 26 52  1  0  0  0  0
 30 53  1  0  0  0  0
 31 54  1  0  0  0  0
 32 55  1  0  0  0  0
M  END
> <IC50[nM]>
23.1

$$$$
CHEMBL3265036
  -OEChem-05192314333D
 Structure written by MMmdl.
 55 60  0     1  0  0  0  0  0999 V2000
   -4.7688   -2.7849   12.3431 C   0  0  0  0  0  0  0  0  0  0  0  0
   -5.3846   -4.1377   12.6456 C   0  0  0  0  0  0  0  0  0  0  0  0
   -4.4594   -4.9732   13.3425 O   0  0  0  0  0  0  0  0  0  0  0  0
   -4.3771   -4.8619   14.7737 C   0  0  0  0  0  0  0  0  0  0  0  0
   -4.4823   -3.4746   15.4482 C   0  0  0  0  0  0  0  0  0  0  0  0
   -3.8932   -2.3265   14.7696 N   0  0  2  0  0  0  0  0  0  0  0  0
   -4.5743   -1.9363   13.5651 C   0  0  0  0  0  0  0  0  0  0  0  0
   -2.4838   -2.1095   14.8521 C   0  0  0  0  0  0  0  0  0  0  0  0
   -1.6944   -2.8761   15.7249 C   0  0  0  0  0  0  0  0  0  0  0  0
   -0.3386   -2.6335   15.8473 C   0  0  0  0  0  0  0  0  0  0  0  0
    0.2634   -1.6168   15.1140 C   0  0  0  0  0  0  0  0  0  0  0  0
    1.6446   -1.3934   15.3516 N   0  0  0  0  0  0  0  0  0  0  0  0
    2.5467   -0.4494   14.7774 C   0  0  0  0  0  0  0  0  0  0  0  0
    2.1622    0.3813   13.7703 N   0  0  0  0  0  0  0  0  0  0  0  0
    3.0905    1.2361   13.2368 C   0  0  0  0  0  0  0  0  0  0  0  0
    4.3967    1.2828   13.6973 C   0  0  0  0  0  0  0  0  0  0  0  0
    4.7322    0.4976   14.7555 N   0  0  0  0  0  0  0  0  0  0  0  0
    5.8998    0.3887   15.4576 C   0  0  0  0  0  0  0  0  0  0  0  0
    5.6143   -0.5477   16.4779 C   0  0  0  0  0  0  0  0  0  0  0  0
    4.4157   -1.0782   16.3290 N   0  0  0  0  0  0  0  0  0  0  0  0
    3.8521   -0.4000   15.3224 C   0  0  0  0  0  0  0  0  0  0  0  0
    2.6115    2.1334   12.1178 C   0  0  0  0  0  0  0  0  0  0  0  0
    3.5406    2.6292   11.1800 C   0  0  0  0  0  0  0  0  0  0  0  0
    3.1477    3.4565   10.1243 C   0  0  0  0  0  0  0  0  0  0  0  0
    1.8039    3.8086   10.0214 C   0  0  0  0  0  0  0  0  0  0  0  0
    1.0010    4.6077    9.1343 C   0  0  0  0  0  0  0  0  0  0  0  0
   -0.2411    4.6153    9.5215 N   0  0  0  0  0  0  0  0  0  0  0  0
   -0.3421    3.8665   10.6189 N   0  0  0  0  0  0  0  0  0  0  0  0
    0.8809    3.3298   10.9772 C   0  0  3  0  0  0  0  0  0  0  0  0
    1.2478    2.4836   12.0372 C   0  0  0  0  0  0  0  0  0  0  0  0
   -0.4905   -0.8517   14.2206 C   0  0  0  0  0  0  0  0  0  0  0  0
   -1.8442   -1.1028   14.0951 C   0  0  0  0  0  0  0  0  0  0  0  0
   -3.7890   -2.9450   11.8694 H   0  0  0  0  0  0  0  0  0  0  0  0
   -5.4296   -2.2481   11.6465 H   0  0  0  0  0  0  0  0  0  0  0  0
   -6.2805   -3.9948   13.2677 H   0  0  0  0  0  0  0  0  0  0  0  0
   -5.6682   -4.6240   11.7006 H   0  0  0  0  0  0  0  0  0  0  0  0
   -5.1886   -5.4786   15.1874 H   0  0  0  0  0  0  0  0  0  0  0  0
   -3.4065   -5.2863   15.0700 H   0  0  0  0  0  0  0  0  0  0  0  0
   -5.5525   -3.2588   15.5826 H   0  0  0  0  0  0  0  0  0  0  0  0
   -3.9978   -3.5542   16.4326 H   0  0  0  0  0  0  0  0  0  0  0  0
   -4.0426   -1.0407   13.2114 H   0  0  0  0  0  0  0  0  0  0  0  0
   -5.5889   -1.6576   13.8860 H   0  0  0  0  0  0  0  0  0  0  0  0
   -2.1511   -3.6632   16.3065 H   0  0  0  0  0  0  0  0  0  0  0  0
    0.2564   -3.2373   16.5165 H   0  0  0  0  0  0  0  0  0  0  0  0
    1.2230    0.3681   13.4273 H   0  0  0  0  0  0  0  0  0  0  0  0
    5.1278    1.9249   13.2288 H   0  0  0  0  0  0  0  0  0  0  0  0
    6.8317    0.9027   15.2742 H   0  0  0  0  0  0  0  0  0  0  0  0
    6.2933   -0.7976   17.2797 H   0  0  0  0  0  0  0  0  0  0  0  0
    4.5824    2.3628   11.2801 H   0  0  0  0  0  0  0  0  0  0  0  0
    3.8693    3.8145    9.4049 H   0  0  0  0  0  0  0  0  0  0  0  0
    1.3774    5.1292    8.2667 H   0  0  0  0  0  0  0  0  0  0  0  0
    0.6812    2.4520   10.3451 H   0  0  0  0  0  0  0  0  0  0  0  0
    0.5241    2.1207   12.7521 H   0  0  0  0  0  0  0  0  0  0  0  0
   -0.0219   -0.0742   13.6356 H   0  0  0  0  0  0  0  0  0  0  0  0
   -2.4269   -0.5150   13.4014 H   0  0  0  0  0  0  0  0  0  0  0  0
  1  2  1  0  0  0  0
  1  7  1  0  0  0  0
  2  3  1  0  0  0  0
  3  4  1  0  0  0  0
  4  5  1  0  0  0  0
  5  6  1  0  0  0  0
  6  7  1  0  0  0  0
  6  8  1  0  0  0  0
  8  9  2  0  0  0  0
  8 32  1  0  0  0  0
  9 10  1  0  0  0  0
 10 11  2  0  0  0  0
 11 12  1  0  0  0  0
 11 31  1  0  0  0  0
 12 13  2  0  0  0  0
 13 14  1  0  0  0  0
 13 21  1  0  0  0  0
 14 15  1  0  0  0  0
 15 16  2  0  0  0  0
 15 22  1  0  0  0  0
 16 17  1  0  0  0  0
 17 18  1  0  0  0  0
 17 21  1  0  0  0  0
 18 19  2  0  0  0  0
 19 20  1  0  0  0  0
 20 21  2  0  0  0  0
 22 23  1  0  0  0  0
 22 30  2  0  0  0  0
 23 24  2  0  0  0  0
 24 25  1  0  0  0  0
 25 26  2  0  0  0  0
 25 29  1  0  0  0  0
 26 27  1  0  0  0  0
 27 28  2  0  0  0  0
 28 29  1  0  0  0  0
 29 30  1  0  0  0  0
 31 32  2  0  0  0  0
  1 33  1  0  0  0  0
  1 34  1  0  0  0  0
  2 35  1  0  0  0  0
  2 36  1  0  0  0  0
  4 37  1  0  0  0  0
  4 38  1  0  0  0  0
  5 39  1  0  0  0  0
  5 40  1  0  0  0  0
  7 41  1  0  0  0  0
  7 42  1  0  0  0  0
  9 43  1  0  0  0  0
 10 44  1  0  0  0  0
 14 45  1  0  0  0  0
 16 46  1  0  0  0  0
 18 47  1  0  0  0  0
 19 48  1  0  0  0  0
 23 49  1  0  0  0  0
 24 50  1  0  0  0  0
 26 51  1  0  0  0  0
 29 52  1  0  0  0  0
 30 53  1  0  0  0  0
 31 54  1  0  0  0  0
 32 55  1  0  0  0  0
M  END
> <IC50[nM]>
23.1

$$$$
CHEMBL3265036
  -OEChem-05192314333D
 Structure written by MMmdl.
 55 60  0     1  0  0  0  0  0999 V2000
   -4.7688   -2.7849   12.3431 C   0  0  0  0  0  0  0  0  0  0  0  0
   -5.3846   -4.1377   12.6456 C   0  0  0  0  0  0  0  0  0  0  0  0
   -4.4594   -4.9732   13.3425 O   0  0  0  0  0  0  0  0  0  0  0  0
   -4.3771   -4.8619   14.7737 C   0  0  0  0  0  0  0  0  0  0  0  0
   -4.4823   -3.4746   15.4482 C   0  0  0  0  0  0  0  0  0  0  0  0
   -3.8932   -2.3265   14.7696 N   0  0  2  0  0  0  0  0  0  0  0  0
   -4.5743   -1.9363   13.5651 C   0  0  0  0  0  0  0  0  0  0  0  0
   -2.4838   -2.1095   14.8521 C   0  0  0  0  0  0  0  0  0  0  0  0
   -1.6944   -2.8761   15.7249 C   0  0  0  0  0  0  0  0  0  0  0  0
   -0.3386   -2.6335   15.8473 C   0  0  0  0  0  0  0  0  0  0  0  0
    0.2634   -1.6168   15.1140 C   0  0  0  0  0  0  0  0  0  0  0  0
    1.6446   -1.3934   15.3516 N   0  0  0  0  0  0  0  0  0  0  0  0
    2.5467   -0.4494   14.7774 C   0  0  0  0  0  0  0  0  0  0  0  0
    2.1622    0.3813   13.7703 N   0  0  0  0  0  0  0  0  0  0  0  0
    3.0905    1.2361   13.2368 C   0  0  0  0  0  0  0  0  0  0  0  0
    4.3967    1.2828   13.6973 C   0  0  0  0  0  0  0  0  0  0  0  0
    4.7322    0.4976   14.7555 N   0  0  0  0  0  0  0  0  0  0  0  0
    5.8998    0.3887   15.4576 C   0  0  0  0  0  0  0  0  0  0  0  0
    5.6143   -0.5477   16.4779 C   0  0  0  0  0  0  0  0  0  0  0  0
    4.4157   -1.0782   16.3290 N   0  0  0  0  0  0  0  0  0  0  0  0
    3.8521   -0.4000   15.3224 C   0  0  0  0  0  0  0  0  0  0  0  0
    2.6115    2.1334   12.1178 C   0  0  0  0  0  0  0  0  0  0  0  0
    3.5406    2.6292   11.1800 C   0  0  0  0  0  0  0  0  0  0  0  0
    3.1477    3.4565   10.1243 C   0  0  0  0  0  0  0  0  0  0  0  0
    1.8039    3.8086   10.0214 C   0  0  0  0  0  0  0  0  0  0  0  0
    1.0010    4.6077    9.1343 C   0  0  0  0  0  0  0  0  0  0  0  0
   -0.2411    4.6153    9.5215 N   0  0  0  0  0  0  0  0  0  0  0  0
   -0.3421    3.8665   10.6189 N   0  0  0  0  0  0  0  0  0  0  0  0
    0.8809    3.3298   10.9772 C   0  0  0  0  0  0  0  0  0  0  0  0
    1.2478    2.4836   12.0372 C   0  0  0  0  0  0  0  0  0  0  0  0
   -0.4905   -0.8517   14.2206 C   0  0  0  0  0  0  0  0  0  0  0  0
   -1.8442   -1.1028   14.0951 C   0  0  0  0  0  0  0  0  0  0  0  0
   -3.7890   -2.9450   11.8694 H   0  0  0  0  0  0  0  0  0  0  0  0
   -5.4296   -2.2481   11.6465 H   0  0  0  0  0  0  0  0  0  0  0  0
   -6.2805   -3.9948   13.2677 H   0  0  0  0  0  0  0  0  0  0  0  0
   -5.6682   -4.6240   11.7006 H   0  0  0  0  0  0  0  0  0  0  0  0
   -5.1886   -5.4786   15.1874 H   0  0  0  0  0  0  0  0  0  0  0  0
   -3.4065   -5.2863   15.0700 H   0  0  0  0  0  0  0  0  0  0  0  0
   -5.5525   -3.2588   15.5826 H   0  0  0  0  0  0  0  0  0  0  0  0
   -3.9978   -3.5542   16.4326 H   0  0  0  0  0  0  0  0  0  0  0  0
   -4.0426   -1.0407   13.2114 H   0  0  0  0  0  0  0  0  0  0  0  0
   -5.5889   -1.6576   13.8860 H   0  0  0  0  0  0  0  0  0  0  0  0
   -2.1511   -3.6632   16.3065 H   0  0  0  0  0  0  0  0  0  0  0  0
    0.2564   -3.2373   16.5165 H   0  0  0  0  0  0  0  0  0  0  0  0
    1.2230    0.3681   13.4273 H   0  0  0  0  0  0  0  0  0  0  0  0
    5.1278    1.9249   13.2288 H   0  0  0  0  0  0  0  0  0  0  0  0
    6.8317    0.9027   15.2742 H   0  0  0  0  0  0  0  0  0  0  0  0
    6.2933   -0.7976   17.2797 H   0  0  0  0  0  0  0  0  0  0  0  0
    4.5824    2.3628   11.2801 H   0  0  0  0  0  0  0  0  0  0  0  0
    3.7224    4.3903   10.2121 H   0  0  0  0  0  0  0  0  0  0  0  0
    3.4216    2.9438    9.1905 H   0  0  0  0  0  0  0  0  0  0  0  0
    1.3774    5.1292    8.2667 H   0  0  0  0  0  0  0  0  0  0  0  0
    0.5241    2.1207   12.7521 H   0  0  0  0  0  0  0  0  0  0  0  0
   -0.0219   -0.0742   13.6356 H   0  0  0  0  0  0  0  0  0  0  0  0
   -2.4269   -0.5150   13.4014 H   0  0  0  0  0  0  0  0  0  0  0  0
  1  2  1  0  0  0  0
  1  7  1  0  0  0  0
  2  3  1  0  0  0  0
  3  4  1  0  0  0  0
  4  5  1  0  0  0  0
  5  6  1  0  0  0  0
  6  7  1  0  0  0  0
  6  8  1  0  0  0  0
  8  9  2  0  0  0  0
  8 32  1  0  0  0  0
  9 10  1  0  0  0  0
 10 11  2  0  0  0  0
 11 12  1  0  0  0  0
 11 31  1  0  0  0  0
 12 13  2  0  0  0  0
 13 14  1  0  0  0  0
 13 21  1  0  0  0  0
 14 15  1  0  0  0  0
 15 16  2  0  0  0  0
 15 22  1  0  0  0  0
 16 17  1  0  0  0  0
 17 18  1  0  0  0  0
 17 21  1  0  0  0  0
 18 19  2  0  0  0  0
 19 20  1  0  0  0  0
 20 21  2  0  0  0  0
 22 23  2  0  0  0  0
 22 30  1  0  0  0  0
 23 24  1  0  0  0  0
 24 25  1  0  0  0  0
 25 26  2  0  0  0  0
 25 29  1  0  0  0  0
 26 27  1  0  0  0  0
 27 28  2  0  0  0  0
 28 29  1  0  0  0  0
 29 30  2  0  0  0  0
 31 32  2  0  0  0  0
  1 33  1  0  0  0  0
  1 34  1  0  0  0  0
  2 35  1  0  0  0  0
  2 36  1  0  0  0  0
  4 37  1  0  0  0  0
  4 38  1  0  0  0  0
  5 39  1  0  0  0  0
  5 40  1  0  0  0  0
  7 41  1  0  0  0  0
  7 42  1  0  0  0  0
  9 43  1  0  0  0  0
 10 44  1  0  0  0  0
 14 45  1  0  0  0  0
 16 46  1  0  0  0  0
 18 47  1  0  0  0  0
 19 48  1  0  0  0  0
 23 49  1  0  0  0  0
 24 50  1  0  0  0  0
 24 51  1  0  0  0  0
 26 52  1  0  0  0  0
 30 53  1  0  0  0  0
 31 54  1  0  0  0  0
 32 55  1  0  0  0  0
M  END
> <IC50[nM]>
23.1

$$$$
CHEMBL3265036
  -OEChem-05192314333D
 Structure written by MMmdl.
 55 60  0     1  0  0  0  0  0999 V2000
   -4.7688   -2.7849   12.3431 C   0  0  0  0  0  0  0  0  0  0  0  0
   -5.3846   -4.1377   12.6456 C   0  0  0  0  0  0  0  0  0  0  0  0
   -4.4594   -4.9732   13.3425 O   0  0  0  0  0  0  0  0  0  0  0  0
   -4.3771   -4.8619   14.7737 C   0  0  0  0  0  0  0  0  0  0  0  0
   -4.4823   -3.4746   15.4482 C   0  0  0  0  0  0  0  0  0  0  0  0
   -3.8932   -2.3265   14.7696 N   0  0  2  0  0  0  0  0  0  0  0  0
   -4.5743   -1.9363   13.5651 C   0  0  0  0  0  0  0  0  0  0  0  0
   -2.4838   -2.1095   14.8521 C   0  0  0  0  0  0  0  0  0  0  0  0
   -1.6944   -2.8761   15.7249 C   0  0  0  0  0  0  0  0  0  0  0  0
   -0.3386   -2.6335   15.8473 C   0  0  0  0  0  0  0  0  0  0  0  0
    0.2634   -1.6168   15.1140 C   0  0  0  0  0  0  0  0  0  0  0  0
    1.6446   -1.3934   15.3516 N   0  0  0  0  0  0  0  0  0  0  0  0
    2.5467   -0.4494   14.7774 C   0  0  0  0  0  0  0  0  0  0  0  0
    2.1622    0.3813   13.7703 N   0  0  0  0  0  0  0  0  0  0  0  0
    3.0905    1.2361   13.2368 C   0  0  0  0  0  0  0  0  0  0  0  0
    4.3967    1.2828   13.6973 C   0  0  0  0  0  0  0  0  0  0  0  0
    4.7322    0.4976   14.7555 N   0  0  0  0  0  0  0  0  0  0  0  0
    5.8998    0.3887   15.4576 C   0  0  0  0  0  0  0  0  0  0  0  0
    5.6143   -0.5477   16.4779 C   0  0  0  0  0  0  0  0  0  0  0  0
    4.4157   -1.0782   16.3290 N   0  0  0  0  0  0  0  0  0  0  0  0
    3.8521   -0.4000   15.3224 C   0  0  0  0  0  0  0  0  0  0  0  0
    2.6115    2.1334   12.1178 C   0  0  0  0  0  0  0  0  0  0  0  0
    3.5406    2.6292   11.1800 C   0  0  0  0  0  0  0  0  0  0  0  0
    3.1477    3.4565   10.1243 C   0  0  0  0  0  0  0  0  0  0  0  0
    1.8039    3.8086   10.0214 C   0  0  3  0  0  0  0  0  0  0  0  0
    1.0010    4.6077    9.1343 C   0  0  0  0  0  0  0  0  0  0  0  0
   -0.2411    4.6153    9.5215 N   0  0  0  0  0  0  0  0  0  0  0  0
   -0.3421    3.8665   10.6189 N   0  0  0  0  0  0  0  0  0  0  0  0
    0.8809    3.3298   10.9772 C   0  0  0  0  0  0  0  0  0  0  0  0
    1.2478    2.4836   12.0372 C   0  0  0  0  0  0  0  0  0  0  0  0
   -0.4905   -0.8517   14.2206 C   0  0  0  0  0  0  0  0  0  0  0  0
   -1.8442   -1.1028   14.0951 C   0  0  0  0  0  0  0  0  0  0  0  0
   -3.7890   -2.9450   11.8694 H   0  0  0  0  0  0  0  0  0  0  0  0
   -5.4296   -2.2481   11.6465 H   0  0  0  0  0  0  0  0  0  0  0  0
   -6.2805   -3.9948   13.2677 H   0  0  0  0  0  0  0  0  0  0  0  0
   -5.6682   -4.6240   11.7006 H   0  0  0  0  0  0  0  0  0  0  0  0
   -5.1886   -5.4786   15.1874 H   0  0  0  0  0  0  0  0  0  0  0  0
   -3.4065   -5.2863   15.0700 H   0  0  0  0  0  0  0  0  0  0  0  0
   -5.5525   -3.2588   15.5826 H   0  0  0  0  0  0  0  0  0  0  0  0
   -3.9978   -3.5542   16.4326 H   0  0  0  0  0  0  0  0  0  0  0  0
   -4.0426   -1.0407   13.2114 H   0  0  0  0  0  0  0  0  0  0  0  0
   -5.5889   -1.6576   13.8860 H   0  0  0  0  0  0  0  0  0  0  0  0
   -2.1511   -3.6632   16.3065 H   0  0  0  0  0  0  0  0  0  0  0  0
    0.2564   -3.2373   16.5165 H   0  0  0  0  0  0  0  0  0  0  0  0
    5.0488    0.9967   12.8589 H   0  0  0  0  0  0  0  0  0  0  0  0
    4.6044    2.3241   13.9847 H   0  0  0  0  0  0  0  0  0  0  0  0
    6.8317    0.9027   15.2742 H   0  0  0  0  0  0  0  0  0  0  0  0
    6.2933   -0.7976   17.2797 H   0  0  0  0  0  0  0  0  0  0  0  0
    4.5824    2.3628   11.2801 H   0  0  0  0  0  0  0  0  0  0  0  0
    3.8693    3.8145    9.4049 H   0  0  0  0  0  0  0  0  0  0  0  0
    1.6179    2.9234    9.3955 H   0  0  0  0  0  0  0  0  0  0  0  0
    1.3774    5.1292    8.2667 H   0  0  0  0  0  0  0  0  0  0  0  0
    0.5241    2.1207   12.7521 H   0  0  0  0  0  0  0  0  0  0  0  0
   -0.0219   -0.0742   13.6356 H   0  0  0  0  0  0  0  0  0  0  0  0
   -2.4269   -0.5150   13.4014 H   0  0  0  0  0  0  0  0  0  0  0  0
  1  2  1  0  0  0  0
  1  7  1  0  0  0  0
  2  3  1  0  0  0  0
  3  4  1  0  0  0  0
  4  5  1  0  0  0  0
  5  6  1  0  0  0  0
  6  7  1  0  0  0  0
  6  8  1  0  0  0  0
  8  9  2  0  0  0  0
  8 32  1  0  0  0  0
  9 10  1  0  0  0  0
 10 11  2  0  0  0  0
 11 12  1  0  0  0  0
 11 31  1  0  0  0  0
 12 13  2  0  0  0  0
 13 14  1  0  0  0  0
 13 21  1  0  0  0  0
 14 15  2  0  0  0  0
 15 16  1  0  0  0  0
 15 22  1  0  0  0  0
 16 17  1  0  0  0  0
 17 18  1  0  0  0  0
 17 21  1  0  0  0  0
 18 19  2  0  0  0  0
 19 20  1  0  0  0  0
 20 21  2  0  0  0  0
 22 23  1  0  0  0  0
 22 30  2  0  0  0  0
 23 24  2  0  0  0  0
 24 25  1  0  0  0  0
 25 26  1  0  0  0  0
 25 29  1  0  0  0  0
 26 27  2  0  0  0  0
 27 28  1  0  0  0  0
 28 29  2  0  0  0  0
 29 30  1  0  0  0  0
 31 32  2  0  0  0  0
  1 33  1  0  0  0  0
  1 34  1  0  0  0  0
  2 35  1  0  0  0  0
  2 36  1  0  0  0  0
  4 37  1  0  0  0  0
  4 38  1  0  0  0  0
  5 39  1  0  0  0  0
  5 40  1  0  0  0  0
  7 41  1  0  0  0  0
  7 42  1  0  0  0  0
  9 43  1  0  0  0  0
 10 44  1  0  0  0  0
 16 45  1  0  0  0  0
 16 46  1  0  0  0  0
 18 47  1  0  0  0  0
 19 48  1  0  0  0  0
 23 49  1  0  0  0  0
 24 50  1  0  0  0  0
 25 51  1  0  0  0  0
 26 52  1  0  0  0  0
 30 53  1  0  0  0  0
 31 54  1  0  0  0  0
 32 55  1  0  0  0  0
M  END
> <IC50[nM]>
23.1

$$$$
CHEMBL3265036
  -OEChem-05192314333D
 Structure written by MMmdl.
 55 60  0     1  0  0  0  0  0999 V2000
   -4.7688   -2.7849   12.3431 C   0  0  0  0  0  0  0  0  0  0  0  0
   -5.3846   -4.1377   12.6456 C   0  0  0  0  0  0  0  0  0  0  0  0
   -4.4594   -4.9732   13.3425 O   0  0  0  0  0  0  0  0  0  0  0  0
   -4.3771   -4.8619   14.7737 C   0  0  0  0  0  0  0  0  0  0  0  0
   -4.4823   -3.4746   15.4482 C   0  0  0  0  0  0  0  0  0  0  0  0
   -3.8932   -2.3265   14.7696 N   0  0  2  0  0  0  0  0  0  0  0  0
   -4.5743   -1.9363   13.5651 C   0  0  0  0  0  0  0  0  0  0  0  0
   -2.4838   -2.1095   14.8521 C   0  0  0  0  0  0  0  0  0  0  0  0
   -1.6944   -2.8761   15.7249 C   0  0  0  0  0  0  0  0  0  0  0  0
   -0.3386   -2.6335   15.8473 C   0  0  0  0  0  0  0  0  0  0  0  0
    0.2634   -1.6168   15.1140 C   0  0  0  0  0  0  0  0  0  0  0  0
    1.6446   -1.3934   15.3516 N   0  0  0  0  0  0  0  0  0  0  0  0
    2.5467   -0.4494   14.7774 C   0  0  0  0  0  0  0  0  0  0  0  0
    2.1622    0.3813   13.7703 N   0  0  0  0  0  0  0  0  0  0  0  0
    3.0905    1.2361   13.2368 C   0  0  0  0  0  0  0  0  0  0  0  0
    4.3967    1.2828   13.6973 C   0  0  0  0  0  0  0  0  0  0  0  0
    4.7322    0.4976   14.7555 N   0  0  0  0  0  0  0  0  0  0  0  0
    5.8998    0.3887   15.4576 C   0  0  0  0  0  0  0  0  0  0  0  0
    5.6143   -0.5477   16.4779 C   0  0  0  0  0  0  0  0  0  0  0  0
    4.4157   -1.0782   16.3290 N   0  0  0  0  0  0  0  0  0  0  0  0
    3.8521   -0.4000   15.3224 C   0  0  0  0  0  0  0  0  0  0  0  0
    2.6115    2.1334   12.1178 C   0  0  0  0  0  0  0  0  0  0  0  0
    3.5406    2.6292   11.1800 C   0  0  0  0  0  0  0  0  0  0  0  0
    3.1477    3.4565   10.1243 C   0  0  0  0  0  0  0  0  0  0  0  0
    1.8039    3.8086   10.0214 C   0  0  0  0  0  0  0  0  0  0  0  0
    1.0010    4.6077    9.1343 C   0  0  0  0  0  0  0  0  0  0  0  0
   -0.2411    4.6153    9.5215 N   0  0  0  0  0  0  0  0  0  0  0  0
   -0.3421    3.8665   10.6189 N   0  0  0  0  0  0  0  0  0  0  0  0
    0.8809    3.3298   10.9772 C   0  0  0  0  0  0  0  0  0  0  0  0
    1.2478    2.4836   12.0372 C   0  0  0  0  0  0  0  0  0  0  0  0
   -0.4905   -0.8517   14.2206 C   0  0  0  0  0  0  0  0  0  0  0  0
   -1.8442   -1.1028   14.0951 C   0  0  0  0  0  0  0  0  0  0  0  0
   -3.7890   -2.9450   11.8694 H   0  0  0  0  0  0  0  0  0  0  0  0
   -5.4296   -2.2481   11.6465 H   0  0  0  0  0  0  0  0  0  0  0  0
   -6.2805   -3.9948   13.2677 H   0  0  0  0  0  0  0  0  0  0  0  0
   -5.6682   -4.6240   11.7006 H   0  0  0  0  0  0  0  0  0  0  0  0
   -5.1886   -5.4786   15.1874 H   0  0  0  0  0  0  0  0  0  0  0  0
   -3.4065   -5.2863   15.0700 H   0  0  0  0  0  0  0  0  0  0  0  0
   -5.5525   -3.2588   15.5826 H   0  0  0  0  0  0  0  0  0  0  0  0
   -3.9978   -3.5542   16.4326 H   0  0  0  0  0  0  0  0  0  0  0  0
   -4.0426   -1.0407   13.2114 H   0  0  0  0  0  0  0  0  0  0  0  0
   -5.5889   -1.6576   13.8860 H   0  0  0  0  0  0  0  0  0  0  0  0
   -2.1511   -3.6632   16.3065 H   0  0  0  0  0  0  0  0  0  0  0  0
    0.2564   -3.2373   16.5165 H   0  0  0  0  0  0  0  0  0  0  0  0
    5.0488    0.9967   12.8589 H   0  0  0  0  0  0  0  0  0  0  0  0
    4.6044    2.3241   13.9847 H   0  0  0  0  0  0  0  0  0  0  0  0
    6.8317    0.9027   15.2742 H   0  0  0  0  0  0  0  0  0  0  0  0
    6.2933   -0.7976   17.2797 H   0  0  0  0  0  0  0  0  0  0  0  0
    4.2884    3.1952   11.7548 H   0  0  0  0  0  0  0  0  0  0  0  0
    4.0181    1.7499   10.7229 H   0  0  0  0  0  0  0  0  0  0  0  0
    3.8693    3.8145    9.4049 H   0  0  0  0  0  0  0  0  0  0  0  0
    1.3774    5.1292    8.2667 H   0  0  0  0  0  0  0  0  0  0  0  0
    0.5241    2.1207   12.7521 H   0  0  0  0  0  0  0  0  0  0  0  0
   -0.0219   -0.0742   13.6356 H   0  0  0  0  0  0  0  0  0  0  0  0
   -2.4269   -0.5150   13.4014 H   0  0  0  0  0  0  0  0  0  0  0  0
  1  2  1  0  0  0  0
  1  7  1  0  0  0  0
  2  3  1  0  0  0  0
  3  4  1  0  0  0  0
  4  5  1  0  0  0  0
  5  6  1  0  0  0  0
  6  7  1  0  0  0  0
  6  8  1  0  0  0  0
  8  9  2  0  0  0  0
  8 32  1  0  0  0  0
  9 10  1  0  0  0  0
 10 11  2  0  0  0  0
 11 12  1  0  0  0  0
 11 31  1  0  0  0  0
 12 13  2  0  0  0  0
 13 14  1  0  0  0  0
 13 21  1  0  0  0  0
 14 15  2  0  0  0  0
 15 16  1  0  0  0  0
 15 22  1  0  0  0  0
 16 17  1  0  0  0  0
 17 18  1  0  0  0  0
 17 21  1  0  0  0  0
 18 19  2  0  0  0  0
 19 20  1  0  0  0  0
 20 21  2  0  0  0  0
 22 23  1  0  0  0  0
 22 30  2  0  0  0  0
 23 24  1  0  0  0  0
 24 25  2  0  0  0  0
 25 26  1  0  0  0  0
 25 29  1  0  0  0  0
 26 27  2  0  0  0  0
 27 28  1  0  0  0  0
 28 29  2  0  0  0  0
 29 30  1  0  0  0  0
 31 32  2  0  0  0  0
  1 33  1  0  0  0  0
  1 34  1  0  0  0  0
  2 35  1  0  0  0  0
  2 36  1  0  0  0  0
  4 37  1  0  0  0  0
  4 38  1  0  0  0  0
  5 39  1  0  0  0  0
  5 40  1  0  0  0  0
  7 41  1  0  0  0  0
  7 42  1  0  0  0  0
  9 43  1  0  0  0  0
 10 44  1  0  0  0  0
 16 45  1  0  0  0  0
 16 46  1  0  0  0  0
 18 47  1  0  0  0  0
 19 48  1  0  0  0  0
 23 49  1  0  0  0  0
 23 50  1  0  0  0  0
 24 51  1  0  0  0  0
 26 52  1  0  0  0  0
 30 53  1  0  0  0  0
 31 54  1  0  0  0  0
 32 55  1  0  0  0  0
M  END
> <IC50[nM]>
23.1

$$$$
CHEMBL3265036
  -OEChem-05192314333D
 Structure written by MMmdl.
 55 60  0     1  0  0  0  0  0999 V2000
   -4.7688   -2.7849   12.3431 C   0  0  0  0  0  0  0  0  0  0  0  0
   -5.3846   -4.1377   12.6456 C   0  0  0  0  0  0  0  0  0  0  0  0
   -4.4594   -4.9732   13.3425 O   0  0  0  0  0  0  0  0  0  0  0  0
   -4.3771   -4.8619   14.7737 C   0  0  0  0  0  0  0  0  0  0  0  0
   -4.4823   -3.4746   15.4482 C   0  0  0  0  0  0  0  0  0  0  0  0
   -3.8932   -2.3265   14.7696 N   0  0  2  0  0  0  0  0  0  0  0  0
   -4.5743   -1.9363   13.5651 C   0  0  0  0  0  0  0  0  0  0  0  0
   -2.4838   -2.1095   14.8521 C   0  0  0  0  0  0  0  0  0  0  0  0
   -1.6944   -2.8761   15.7249 C   0  0  0  0  0  0  0  0  0  0  0  0
   -0.3386   -2.6335   15.8473 C   0  0  0  0  0  0  0  0  0  0  0  0
    0.2634   -1.6168   15.1140 C   0  0  0  0  0  0  0  0  0  0  0  0
    1.6446   -1.3934   15.3516 N   0  0  0  0  0  0  0  0  0  0  0  0
    2.5467   -0.4494   14.7774 C   0  0  0  0  0  0  0  0  0  0  0  0
    2.1622    0.3813   13.7703 N   0  0  0  0  0  0  0  0  0  0  0  0
    3.0905    1.2361   13.2368 C   0  0  0  0  0  0  0  0  0  0  0  0
    4.3967    1.2828   13.6973 C   0  0  0  0  0  0  0  0  0  0  0  0
    4.7322    0.4976   14.7555 N   0  0  0  0  0  0  0  0  0  0  0  0
    5.8998    0.3887   15.4576 C   0  0  0  0  0  0  0  0  0  0  0  0
    5.6143   -0.5477   16.4779 C   0  0  0  0  0  0  0  0  0  0  0  0
    4.4157   -1.0782   16.3290 N   0  0  0  0  0  0  0  0  0  0  0  0
    3.8521   -0.4000   15.3224 C   0  0  0  0  0  0  0  0  0  0  0  0
    2.6115    2.1334   12.1178 C   0  0  0  0  0  0  0  0  0  0  0  0
    3.5406    2.6292   11.1800 C   0  0  0  0  0  0  0  0  0  0  0  0
    3.1477    3.4565   10.1243 C   0  0  0  0  0  0  0  0  0  0  0  0
    1.8039    3.8086   10.0214 C   0  0  0  0  0  0  0  0  0  0  0  0
    1.0010    4.6077    9.1343 C   0  0  0  0  0  0  0  0  0  0  0  0
   -0.2411    4.6153    9.5215 N   0  0  0  0  0  0  0  0  0  0  0  0
   -0.3421    3.8665   10.6189 N   0  0  0  0  0  0  0  0  0  0  0  0
    0.8809    3.3298   10.9772 C   0  0  0  0  0  0  0  0  0  0  0  0
    1.2478    2.4836   12.0372 C   0  0  0  0  0  0  0  0  0  0  0  0
   -0.4905   -0.8517   14.2206 C   0  0  0  0  0  0  0  0  0  0  0  0
   -1.8442   -1.1028   14.0951 C   0  0  0  0  0  0  0  0  0  0  0  0
   -3.7890   -2.9450   11.8694 H   0  0  0  0  0  0  0  0  0  0  0  0
   -5.4296   -2.2481   11.6465 H   0  0  0  0  0  0  0  0  0  0  0  0
   -6.2805   -3.9948   13.2677 H   0  0  0  0  0  0  0  0  0  0  0  0
   -5.6682   -4.6240   11.7006 H   0  0  0  0  0  0  0  0  0  0  0  0
   -5.1886   -5.4786   15.1874 H   0  0  0  0  0  0  0  0  0  0  0  0
   -3.4065   -5.2863   15.0700 H   0  0  0  0  0  0  0  0  0  0  0  0
   -5.5525   -3.2588   15.5826 H   0  0  0  0  0  0  0  0  0  0  0  0
   -3.9978   -3.5542   16.4326 H   0  0  0  0  0  0  0  0  0  0  0  0
   -4.0426   -1.0407   13.2114 H   0  0  0  0  0  0  0  0  0  0  0  0
   -5.5889   -1.6576   13.8860 H   0  0  0  0  0  0  0  0  0  0  0  0
   -2.1511   -3.6632   16.3065 H   0  0  0  0  0  0  0  0  0  0  0  0
    0.2564   -3.2373   16.5165 H   0  0  0  0  0  0  0  0  0  0  0  0
    5.0488    0.9967   12.8589 H   0  0  0  0  0  0  0  0  0  0  0  0
    4.6044    2.3241   13.9847 H   0  0  0  0  0  0  0  0  0  0  0  0
    6.8317    0.9027   15.2742 H   0  0  0  0  0  0  0  0  0  0  0  0
    6.2933   -0.7976   17.2797 H   0  0  0  0  0  0  0  0  0  0  0  0
    4.5824    2.3628   11.2801 H   0  0  0  0  0  0  0  0  0  0  0  0
    3.8693    3.8145    9.4049 H   0  0  0  0  0  0  0  0  0  0  0  0
    1.3774    5.1292    8.2667 H   0  0  0  0  0  0  0  0  0  0  0  0
    0.6689    1.5535   11.9385 H   0  0  0  0  0  0  0  0  0  0  0  0
    0.9756    2.9870   12.9766 H   0  0  0  0  0  0  0  0  0  0  0  0
   -0.0219   -0.0742   13.6356 H   0  0  0  0  0  0  0  0  0  0  0  0
   -2.4269   -0.5150   13.4014 H   0  0  0  0  0  0  0  0  0  0  0  0
  1  2  1  0  0  0  0
  1  7  1  0  0  0  0
  2  3  1  0  0  0  0
  3  4  1  0  0  0  0
  4  5  1  0  0  0  0
  5  6  1  0  0  0  0
  6  7  1  0  0  0  0
  6  8  1  0  0  0  0
  8  9  2  0  0  0  0
  8 32  1  0  0  0  0
  9 10  1  0  0  0  0
 10 11  2  0  0  0  0
 11 12  1  0  0  0  0
 11 31  1  0  0  0  0
 12 13  2  0  0  0  0
 13 14  1  0  0  0  0
 13 21  1  0  0  0  0
 14 15  2  0  0  0  0
 15 16  1  0  0  0  0
 15 22  1  0  0  0  0
 16 17  1  0  0  0  0
 17 18  1  0  0  0  0
 17 21  1  0  0  0  0
 18 19  2  0  0  0  0
 19 20  1  0  0  0  0
 20 21  2  0  0  0  0
 22 23  2  0  0  0  0
 22 30  1  0  0  0  0
 23 24  1  0  0  0  0
 24 25  2  0  0  0  0
 25 26  1  0  0  0  0
 25 29  1  0  0  0  0
 26 27  2  0  0  0  0
 27 28  1  0  0  0  0
 28 29  2  0  0  0  0
 29 30  1  0  0  0  0
 31 32  2  0  0  0  0
  1 33  1  0  0  0  0
  1 34  1  0  0  0  0
  2 35  1  0  0  0  0
  2 36  1  0  0  0  0
  4 37  1  0  0  0  0
  4 38  1  0  0  0  0
  5 39  1  0  0  0  0
  5 40  1  0  0  0  0
  7 41  1  0  0  0  0
  7 42  1  0  0  0  0
  9 43  1  0  0  0  0
 10 44  1  0  0  0  0
 16 45  1  0  0  0  0
 16 46  1  0  0  0  0
 18 47  1  0  0  0  0
 19 48  1  0  0  0  0
 23 49  1  0  0  0  0
 24 50  1  0  0  0  0
 26 51  1  0  0  0  0
 30 52  1  0  0  0  0
 30 53  1  0  0  0  0
 31 54  1  0  0  0  0
 32 55  1  0  0  0  0
M  END
> <IC50[nM]>
23.1

$$$$
CHEMBL3265036
  -OEChem-05192314333D
 Structure written by MMmdl.
 55 60  0     1  0  0  0  0  0999 V2000
   -4.7688   -2.7849   12.3431 C   0  0  0  0  0  0  0  0  0  0  0  0
   -5.3846   -4.1377   12.6456 C   0  0  0  0  0  0  0  0  0  0  0  0
   -4.4594   -4.9732   13.3425 O   0  0  0  0  0  0  0  0  0  0  0  0
   -4.3771   -4.8619   14.7737 C   0  0  0  0  0  0  0  0  0  0  0  0
   -4.4823   -3.4746   15.4482 C   0  0  0  0  0  0  0  0  0  0  0  0
   -3.8932   -2.3265   14.7696 N   0  0  2  0  0  0  0  0  0  0  0  0
   -4.5743   -1.9363   13.5651 C   0  0  0  0  0  0  0  0  0  0  0  0
   -2.4838   -2.1095   14.8521 C   0  0  0  0  0  0  0  0  0  0  0  0
   -1.6944   -2.8761   15.7249 C   0  0  0  0  0  0  0  0  0  0  0  0
   -0.3386   -2.6335   15.8473 C   0  0  0  0  0  0  0  0  0  0  0  0
    0.2634   -1.6168   15.1140 C   0  0  0  0  0  0  0  0  0  0  0  0
    1.6446   -1.3934   15.3516 N   0  0  0  0  0  0  0  0  0  0  0  0
    2.5467   -0.4494   14.7774 C   0  0  0  0  0  0  0  0  0  0  0  0
    2.1622    0.3813   13.7703 N   0  0  0  0  0  0  0  0  0  0  0  0
    3.0905    1.2361   13.2368 C   0  0  0  0  0  0  0  0  0  0  0  0
    4.3967    1.2828   13.6973 C   0  0  0  0  0  0  0  0  0  0  0  0
    4.7322    0.4976   14.7555 N   0  0  0  0  0  0  0  0  0  0  0  0
    5.8998    0.3887   15.4576 C   0  0  0  0  0  0  0  0  0  0  0  0
    5.6143   -0.5477   16.4779 C   0  0  0  0  0  0  0  0  0  0  0  0
    4.4157   -1.0782   16.3290 N   0  0  0  0  0  0  0  0  0  0  0  0
    3.8521   -0.4000   15.3224 C   0  0  0  0  0  0  0  0  0  0  0  0
    2.6115    2.1334   12.1178 C   0  0  3  0  0  0  0  0  0  0  0  0
    3.5406    2.6292   11.1800 C   0  0  0  0  0  0  0  0  0  0  0  0
    3.1477    3.4565   10.1243 C   0  0  0  0  0  0  0  0  0  0  0  0
    1.8039    3.8086   10.0214 C   0  0  0  0  0  0  0  0  0  0  0  0
    1.0010    4.6077    9.1343 C   0  0  0  0  0  0  0  0  0  0  0  0
   -0.2411    4.6153    9.5215 N   0  0  0  0  0  0  0  0  0  0  0  0
   -0.3421    3.8665   10.6189 N   0  0  0  0  0  0  0  0  0  0  0  0
    0.8809    3.3298   10.9772 C   0  0  0  0  0  0  0  0  0  0  0  0
    1.2478    2.4836   12.0372 C   0  0  0  0  0  0  0  0  0  0  0  0
   -0.4905   -0.8517   14.2206 C   0  0  0  0  0  0  0  0  0  0  0  0
   -1.8442   -1.1028   14.0951 C   0  0  0  0  0  0  0  0  0  0  0  0
   -3.7890   -2.9450   11.8694 H   0  0  0  0  0  0  0  0  0  0  0  0
   -5.4296   -2.2481   11.6465 H   0  0  0  0  0  0  0  0  0  0  0  0
   -6.2805   -3.9948   13.2677 H   0  0  0  0  0  0  0  0  0  0  0  0
   -5.6682   -4.6240   11.7006 H   0  0  0  0  0  0  0  0  0  0  0  0
   -5.1886   -5.4786   15.1874 H   0  0  0  0  0  0  0  0  0  0  0  0
   -3.4065   -5.2863   15.0700 H   0  0  0  0  0  0  0  0  0  0  0  0
   -5.5525   -3.2588   15.5826 H   0  0  0  0  0  0  0  0  0  0  0  0
   -3.9978   -3.5542   16.4326 H   0  0  0  0  0  0  0  0  0  0  0  0
   -4.0426   -1.0407   13.2114 H   0  0  0  0  0  0  0  0  0  0  0  0
   -5.5889   -1.6576   13.8860 H   0  0  0  0  0  0  0  0  0  0  0  0
   -2.1511   -3.6632   16.3065 H   0  0  0  0  0  0  0  0  0  0  0  0
    0.2564   -3.2373   16.5165 H   0  0  0  0  0  0  0  0  0  0  0  0
    5.0488    0.9967   12.8589 H   0  0  0  0  0  0  0  0  0  0  0  0
    4.6044    2.3241   13.9847 H   0  0  0  0  0  0  0  0  0  0  0  0
    6.8317    0.9027   15.2742 H   0  0  0  0  0  0  0  0  0  0  0  0
    6.2933   -0.7976   17.2797 H   0  0  0  0  0  0  0  0  0  0  0  0
    2.4298    1.2540   11.4824 H   0  0  0  0  0  0  0  0  0  0  0  0
    4.5824    2.3628   11.2801 H   0  0  0  0  0  0  0  0  0  0  0  0
    3.8693    3.8145    9.4049 H   0  0  0  0  0  0  0  0  0  0  0  0
    1.3774    5.1292    8.2667 H   0  0  0  0  0  0  0  0  0  0  0  0
    0.5241    2.1207   12.7521 H   0  0  0  0  0  0  0  0  0  0  0  0
   -0.0219   -0.0742   13.6356 H   0  0  0  0  0  0  0  0  0  0  0  0
   -2.4269   -0.5150   13.4014 H   0  0  0  0  0  0  0  0  0  0  0  0
  1  2  1  0  0  0  0
  1  7  1  0  0  0  0
  2  3  1  0  0  0  0
  3  4  1  0  0  0  0
  4  5  1  0  0  0  0
  5  6  1  0  0  0  0
  6  7  1  0  0  0  0
  6  8  1  0  0  0  0
  8  9  2  0  0  0  0
  8 32  1  0  0  0  0
  9 10  1  0  0  0  0
 10 11  2  0  0  0  0
 11 12  1  0  0  0  0
 11 31  1  0  0  0  0
 12 13  2  0  0  0  0
 13 14  1  0  0  0  0
 13 21  1  0  0  0  0
 14 15  2  0  0  0  0
 15 16  1  0  0  0  0
 15 22  1  0  0  0  0
 16 17  1  0  0  0  0
 17 18  1  0  0  0  0
 17 21  1  0  0  0  0
 18 19  2  0  0  0  0
 19 20  1  0  0  0  0
 20 21  2  0  0  0  0
 22 23  1  0  0  0  0
 22 30  1  0  0  0  0
 23 24  2  0  0  0  0
 24 25  1  0  0  0  0
 25 26  2  0  0  0  0
 25 29  1  0  0  0  0
 26 27  1  0  0  0  0
 27 28  2  0  0  0  0
 28 29  1  0  0  0  0
 29 30  2  0  0  0  0
 31 32  2  0  0  0  0
  1 33  1  0  0  0  0
  1 34  1  0  0  0  0
  2 35  1  0  0  0  0
  2 36  1  0  0  0  0
  4 37  1  0  0  0  0
  4 38  1  0  0  0  0
  5 39  1  0  0  0  0
  5 40  1  0  0  0  0
  7 41  1  0  0  0  0
  7 42  1  0  0  0  0
  9 43  1  0  0  0  0
 10 44  1  0  0  0  0
 16 45  1  0  0  0  0
 16 46  1  0  0  0  0
 18 47  1  0  0  0  0
 19 48  1  0  0  0  0
 22 49  1  0  0  0  0
 23 50  1  0  0  0  0
 24 51  1  0  0  0  0
 26 52  1  0  0  0  0
 30 53  1  0  0  0  0
 31 54  1  0  0  0  0
 32 55  1  0  0  0  0
M  END
> <IC50[nM]>
23.1

$$$$
CHEMBL3265036
  -OEChem-05192314333D
 Structure written by MMmdl.
 55 60  0     1  0  0  0  0  0999 V2000
   -4.7688   -2.7849   12.3431 C   0  0  0  0  0  0  0  0  0  0  0  0
   -5.3846   -4.1377   12.6456 C   0  0  0  0  0  0  0  0  0  0  0  0
   -4.4594   -4.9732   13.3425 O   0  0  0  0  0  0  0  0  0  0  0  0
   -4.3771   -4.8619   14.7737 C   0  0  0  0  0  0  0  0  0  0  0  0
   -4.4823   -3.4746   15.4482 C   0  0  0  0  0  0  0  0  0  0  0  0
   -3.8932   -2.3265   14.7696 N   0  0  2  0  0  0  0  0  0  0  0  0
   -4.5743   -1.9363   13.5651 C   0  0  0  0  0  0  0  0  0  0  0  0
   -2.4838   -2.1095   14.8521 C   0  0  0  0  0  0  0  0  0  0  0  0
   -1.6944   -2.8761   15.7249 C   0  0  0  0  0  0  0  0  0  0  0  0
   -0.3386   -2.6335   15.8473 C   0  0  0  0  0  0  0  0  0  0  0  0
    0.2634   -1.6168   15.1140 C   0  0  0  0  0  0  0  0  0  0  0  0
    1.6446   -1.3934   15.3516 N   0  0  0  0  0  0  0  0  0  0  0  0
    2.5467   -0.4494   14.7774 C   0  0  0  0  0  0  0  0  0  0  0  0
    2.1622    0.3813   13.7703 N   0  0  0  0  0  0  0  0  0  0  0  0
    3.0905    1.2361   13.2368 C   0  0  0  0  0  0  0  0  0  0  0  0
    4.3967    1.2828   13.6973 C   0  0  0  0  0  0  0  0  0  0  0  0
    4.7322    0.4976   14.7555 N   0  0  0  0  0  0  0  0  0  0  0  0
    5.8998    0.3887   15.4576 C   0  0  0  0  0  0  0  0  0  0  0  0
    5.6143   -0.5477   16.4779 C   0  0  0  0  0  0  0  0  0  0  0  0
    4.4157   -1.0782   16.3290 N   0  0  0  0  0  0  0  0  0  0  0  0
    3.8521   -0.4000   15.3224 C   0  0  0  0  0  0  0  0  0  0  0  0
    2.6115    2.1334   12.1178 C   0  0  0  0  0  0  0  0  0  0  0  0
    3.5406    2.6292   11.1800 C   0  0  0  0  0  0  0  0  0  0  0  0
    3.1477    3.4565   10.1243 C   0  0  0  0  0  0  0  0  0  0  0  0
    1.8039    3.8086   10.0214 C   0  0  0  0  0  0  0  0  0  0  0  0
    1.0010    4.6077    9.1343 C   0  0  0  0  0  0  0  0  0  0  0  0
   -0.2411    4.6153    9.5215 N   0  0  0  0  0  0  0  0  0  0  0  0
   -0.3421    3.8665   10.6189 N   0  0  0  0  0  0  0  0  0  0  0  0
    0.8809    3.3298   10.9772 C   0  0  3  0  0  0  0  0  0  0  0  0
    1.2478    2.4836   12.0372 C   0  0  0  0  0  0  0  0  0  0  0  0
   -0.4905   -0.8517   14.2206 C   0  0  0  0  0  0  0  0  0  0  0  0
   -1.8442   -1.1028   14.0951 C   0  0  0  0  0  0  0  0  0  0  0  0
   -3.7890   -2.9450   11.8694 H   0  0  0  0  0  0  0  0  0  0  0  0
   -5.4296   -2.2481   11.6465 H   0  0  0  0  0  0  0  0  0  0  0  0
   -6.2805   -3.9948   13.2677 H   0  0  0  0  0  0  0  0  0  0  0  0
   -5.6682   -4.6240   11.7006 H   0  0  0  0  0  0  0  0  0  0  0  0
   -5.1886   -5.4786   15.1874 H   0  0  0  0  0  0  0  0  0  0  0  0
   -3.4065   -5.2863   15.0700 H   0  0  0  0  0  0  0  0  0  0  0  0
   -5.5525   -3.2588   15.5826 H   0  0  0  0  0  0  0  0  0  0  0  0
   -3.9978   -3.5542   16.4326 H   0  0  0  0  0  0  0  0  0  0  0  0
   -4.0426   -1.0407   13.2114 H   0  0  0  0  0  0  0  0  0  0  0  0
   -5.5889   -1.6576   13.8860 H   0  0  0  0  0  0  0  0  0  0  0  0
   -2.1511   -3.6632   16.3065 H   0  0  0  0  0  0  0  0  0  0  0  0
    0.2564   -3.2373   16.5165 H   0  0  0  0  0  0  0  0  0  0  0  0
    5.0488    0.9967   12.8589 H   0  0  0  0  0  0  0  0  0  0  0  0
    4.6044    2.3241   13.9847 H   0  0  0  0  0  0  0  0  0  0  0  0
    6.8317    0.9027   15.2742 H   0  0  0  0  0  0  0  0  0  0  0  0
    6.2933   -0.7976   17.2797 H   0  0  0  0  0  0  0  0  0  0  0  0
    4.5824    2.3628   11.2801 H   0  0  0  0  0  0  0  0  0  0  0  0
    3.8693    3.8145    9.4049 H   0  0  0  0  0  0  0  0  0  0  0  0
    1.3774    5.1292    8.2667 H   0  0  0  0  0  0  0  0  0  0  0  0
    0.6812    2.4520   10.3451 H   0  0  0  0  0  0  0  0  0  0  0  0
    0.5241    2.1207   12.7521 H   0  0  0  0  0  0  0  0  0  0  0  0
   -0.0219   -0.0742   13.6356 H   0  0  0  0  0  0  0  0  0  0  0  0
   -2.4269   -0.5150   13.4014 H   0  0  0  0  0  0  0  0  0  0  0  0
  1  2  1  0  0  0  0
  1  7  1  0  0  0  0
  2  3  1  0  0  0  0
  3  4  1  0  0  0  0
  4  5  1  0  0  0  0
  5  6  1  0  0  0  0
  6  7  1  0  0  0  0
  6  8  1  0  0  0  0
  8  9  2  0  0  0  0
  8 32  1  0  0  0  0
  9 10  1  0  0  0  0
 10 11  2  0  0  0  0
 11 12  1  0  0  0  0
 11 31  1  0  0  0  0
 12 13  2  0  0  0  0
 13 14  1  0  0  0  0
 13 21  1  0  0  0  0
 14 15  2  0  0  0  0
 15 16  1  0  0  0  0
 15 22  1  0  0  0  0
 16 17  1  0  0  0  0
 17 18  1  0  0  0  0
 17 21  1  0  0  0  0
 18 19  2  0  0  0  0
 19 20  1  0  0  0  0
 20 21  2  0  0  0  0
 22 23  1  0  0  0  0
 22 30  2  0  0  0  0
 23 24  2  0  0  0  0
 24 25  1  0  0  0  0
 25 26  2  0  0  0  0
 25 29  1  0  0  0  0
 26 27  1  0  0  0  0
 27 28  2  0  0  0  0
 28 29  1  0  0  0  0
 29 30  1  0  0  0  0
 31 32  2  0  0  0  0
  1 33  1  0  0  0  0
  1 34  1  0  0  0  0
  2 35  1  0  0  0  0
  2 36  1  0  0  0  0
  4 37  1  0  0  0  0
  4 38  1  0  0  0  0
  5 39  1  0  0  0  0
  5 40  1  0  0  0  0
  7 41  1  0  0  0  0
  7 42  1  0  0  0  0
  9 43  1  0  0  0  0
 10 44  1  0  0  0  0
 16 45  1  0  0  0  0
 16 46  1  0  0  0  0
 18 47  1  0  0  0  0
 19 48  1  0  0  0  0
 23 49  1  0  0  0  0
 24 50  1  0  0  0  0
 26 51  1  0  0  0  0
 29 52  1  0  0  0  0
 30 53  1  0  0  0  0
 31 54  1  0  0  0  0
 32 55  1  0  0  0  0
M  END
> <IC50[nM]>
23.1

$$$$
CHEMBL3265036
  -OEChem-05192314333D
 Structure written by MMmdl.
 55 60  0     1  0  0  0  0  0999 V2000
   -4.7688   -2.7849   12.3431 C   0  0  0  0  0  0  0  0  0  0  0  0
   -5.3846   -4.1377   12.6456 C   0  0  0  0  0  0  0  0  0  0  0  0
   -4.4594   -4.9732   13.3425 O   0  0  0  0  0  0  0  0  0  0  0  0
   -4.3771   -4.8619   14.7737 C   0  0  0  0  0  0  0  0  0  0  0  0
   -4.4823   -3.4746   15.4482 C   0  0  0  0  0  0  0  0  0  0  0  0
   -3.8932   -2.3265   14.7696 N   0  0  2  0  0  0  0  0  0  0  0  0
   -4.5743   -1.9363   13.5651 C   0  0  0  0  0  0  0  0  0  0  0  0
   -2.4838   -2.1095   14.8521 C   0  0  0  0  0  0  0  0  0  0  0  0
   -1.6944   -2.8761   15.7249 C   0  0  0  0  0  0  0  0  0  0  0  0
   -0.3386   -2.6335   15.8473 C   0  0  0  0  0  0  0  0  0  0  0  0
    0.2634   -1.6168   15.1140 C   0  0  0  0  0  0  0  0  0  0  0  0
    1.6446   -1.3934   15.3516 N   0  0  0  0  0  0  0  0  0  0  0  0
    2.5467   -0.4494   14.7774 C   0  0  0  0  0  0  0  0  0  0  0  0
    2.1622    0.3813   13.7703 N   0  0  0  0  0  0  0  0  0  0  0  0
    3.0905    1.2361   13.2368 C   0  0  0  0  0  0  0  0  0  0  0  0
    4.3967    1.2828   13.6973 C   0  0  0  0  0  0  0  0  0  0  0  0
    4.7322    0.4976   14.7555 N   0  0  0  0  0  0  0  0  0  0  0  0
    5.8998    0.3887   15.4576 C   0  0  0  0  0  0  0  0  0  0  0  0
    5.6143   -0.5477   16.4779 C   0  0  0  0  0  0  0  0  0  0  0  0
    4.4157   -1.0782   16.3290 N   0  0  0  0  0  0  0  0  0  0  0  0
    3.8521   -0.4000   15.3224 C   0  0  0  0  0  0  0  0  0  0  0  0
    2.6115    2.1334   12.1178 C   0  0  0  0  0  0  0  0  0  0  0  0
    3.5406    2.6292   11.1800 C   0  0  0  0  0  0  0  0  0  0  0  0
    3.1477    3.4565   10.1243 C   0  0  0  0  0  0  0  0  0  0  0  0
    1.8039    3.8086   10.0214 C   0  0  0  0  0  0  0  0  0  0  0  0
    1.0010    4.6077    9.1343 C   0  0  0  0  0  0  0  0  0  0  0  0
   -0.2411    4.6153    9.5215 N   0  0  0  0  0  0  0  0  0  0  0  0
   -0.3421    3.8665   10.6189 N   0  0  0  0  0  0  0  0  0  0  0  0
    0.8809    3.3298   10.9772 C   0  0  0  0  0  0  0  0  0  0  0  0
    1.2478    2.4836   12.0372 C   0  0  0  0  0  0  0  0  0  0  0  0
   -0.4905   -0.8517   14.2206 C   0  0  0  0  0  0  0  0  0  0  0  0
   -1.8442   -1.1028   14.0951 C   0  0  0  0  0  0  0  0  0  0  0  0
   -3.7890   -2.9450   11.8694 H   0  0  0  0  0  0  0  0  0  0  0  0
   -5.4296   -2.2481   11.6465 H   0  0  0  0  0  0  0  0  0  0  0  0
   -6.2805   -3.9948   13.2677 H   0  0  0  0  0  0  0  0  0  0  0  0
   -5.6682   -4.6240   11.7006 H   0  0  0  0  0  0  0  0  0  0  0  0
   -5.1886   -5.4786   15.1874 H   0  0  0  0  0  0  0  0  0  0  0  0
   -3.4065   -5.2863   15.0700 H   0  0  0  0  0  0  0  0  0  0  0  0
   -5.5525   -3.2588   15.5826 H   0  0  0  0  0  0  0  0  0  0  0  0
   -3.9978   -3.5542   16.4326 H   0  0  0  0  0  0  0  0  0  0  0  0
   -4.0426   -1.0407   13.2114 H   0  0  0  0  0  0  0  0  0  0  0  0
   -5.5889   -1.6576   13.8860 H   0  0  0  0  0  0  0  0  0  0  0  0
   -2.1511   -3.6632   16.3065 H   0  0  0  0  0  0  0  0  0  0  0  0
    0.2564   -3.2373   16.5165 H   0  0  0  0  0  0  0  0  0  0  0  0
    5.0488    0.9967   12.8589 H   0  0  0  0  0  0  0  0  0  0  0  0
    4.6044    2.3241   13.9847 H   0  0  0  0  0  0  0  0  0  0  0  0
    6.8317    0.9027   15.2742 H   0  0  0  0  0  0  0  0  0  0  0  0
    6.2933   -0.7976   17.2797 H   0  0  0  0  0  0  0  0  0  0  0  0
    4.5824    2.3628   11.2801 H   0  0  0  0  0  0  0  0  0  0  0  0
    3.7224    4.3903   10.2121 H   0  0  0  0  0  0  0  0  0  0  0  0
    3.4216    2.9438    9.1905 H   0  0  0  0  0  0  0  0  0  0  0  0
    1.3774    5.1292    8.2667 H   0  0  0  0  0  0  0  0  0  0  0  0
    0.5241    2.1207   12.7521 H   0  0  0  0  0  0  0  0  0  0  0  0
   -0.0219   -0.0742   13.6356 H   0  0  0  0  0  0  0  0  0  0  0  0
   -2.4269   -0.5150   13.4014 H   0  0  0  0  0  0  0  0  0  0  0  0
  1  2  1  0  0  0  0
  1  7  1  0  0  0  0
  2  3  1  0  0  0  0
  3  4  1  0  0  0  0
  4  5  1  0  0  0  0
  5  6  1  0  0  0  0
  6  7  1  0  0  0  0
  6  8  1  0  0  0  0
  8  9  2  0  0  0  0
  8 32  1  0  0  0  0
  9 10  1  0  0  0  0
 10 11  2  0  0  0  0
 11 12  1  0  0  0  0
 11 31  1  0  0  0  0
 12 13  2  0  0  0  0
 13 14  1  0  0  0  0
 13 21  1  0  0  0  0
 14 15  2  0  0  0  0
 15 16  1  0  0  0  0
 15 22  1  0  0  0  0
 16 17  1  0  0  0  0
 17 18  1  0  0  0  0
 17 21  1  0  0  0  0
 18 19  2  0  0  0  0
 19 20  1  0  0  0  0
 20 21  2  0  0  0  0
 22 23  2  0  0  0  0
 22 30  1  0  0  0  0
 23 24  1  0  0  0  0
 24 25  1  0  0  0  0
 25 26  2  0  0  0  0
 25 29  1  0  0  0  0
 26 27  1  0  0  0  0
 27 28  2  0  0  0  0
 28 29  1  0  0  0  0
 29 30  2  0  0  0  0
 31 32  2  0  0  0  0
  1 33  1  0  0  0  0
  1 34  1  0  0  0  0
  2 35  1  0  0  0  0
  2 36  1  0  0  0  0
  4 37  1  0  0  0  0
  4 38  1  0  0  0  0
  5 39  1  0  0  0  0
  5 40  1  0  0  0  0
  7 41  1  0  0  0  0
  7 42  1  0  0  0  0
  9 43  1  0  0  0  0
 10 44  1  0  0  0  0
 16 45  1  0  0  0  0
 16 46  1  0  0  0  0
 18 47  1  0  0  0  0
 19 48  1  0  0  0  0
 23 49  1  0  0  0  0
 24 50  1  0  0  0  0
 24 51  1  0  0  0  0
 26 52  1  0  0  0  0
 30 53  1  0  0  0  0
 31 54  1  0  0  0  0
 32 55  1  0  0  0  0
M  END
> <IC50[nM]>
23.1

$$$$
CHEMBL3265036
  -OEChem-05192314333D
 Structure written by MMmdl.
 55 60  0     1  0  0  0  0  0999 V2000
   -4.7688   -2.7849   12.3431 C   0  0  0  0  0  0  0  0  0  0  0  0
   -5.3846   -4.1377   12.6456 C   0  0  0  0  0  0  0  0  0  0  0  0
   -4.4594   -4.9732   13.3425 O   0  0  0  0  0  0  0  0  0  0  0  0
   -4.3771   -4.8619   14.7737 C   0  0  0  0  0  0  0  0  0  0  0  0
   -4.4823   -3.4746   15.4482 C   0  0  0  0  0  0  0  0  0  0  0  0
   -3.8932   -2.3265   14.7696 N   0  0  2  0  0  0  0  0  0  0  0  0
   -4.5743   -1.9363   13.5651 C   0  0  0  0  0  0  0  0  0  0  0  0
   -2.4838   -2.1095   14.8521 C   0  0  0  0  0  0  0  0  0  0  0  0
   -1.6944   -2.8761   15.7249 C   0  0  0  0  0  0  0  0  0  0  0  0
   -0.3386   -2.6335   15.8473 C   0  0  0  0  0  0  0  0  0  0  0  0
    0.2634   -1.6168   15.1140 C   0  0  0  0  0  0  0  0  0  0  0  0
    1.6446   -1.3934   15.3516 N   0  0  0  0  0  0  0  0  0  0  0  0
    2.5467   -0.4494   14.7774 C   0  0  0  0  0  0  0  0  0  0  0  0
    2.1622    0.3813   13.7703 N   0  0  0  0  0  0  0  0  0  0  0  0
    3.0905    1.2361   13.2368 C   0  0  0  0  0  0  0  0  0  0  0  0
    4.3967    1.2828   13.6973 C   0  0  0  0  0  0  0  0  0  0  0  0
    4.7322    0.4976   14.7555 N   0  0  0  0  0  0  0  0  0  0  0  0
    5.8998    0.3887   15.4576 C   0  0  0  0  0  0  0  0  0  0  0  0
    5.6143   -0.5477   16.4779 C   0  0  0  0  0  0  0  0  0  0  0  0
    4.4157   -1.0782   16.3290 N   0  0  0  0  0  0  0  0  0  0  0  0
    3.8521   -0.4000   15.3224 C   0  0  0  0  0  0  0  0  0  0  0  0
    2.6115    2.1334   12.1178 C   0  0  0  0  0  0  0  0  0  0  0  0
    3.5406    2.6292   11.1800 C   0  0  0  0  0  0  0  0  0  0  0  0
    3.1477    3.4565   10.1243 C   0  0  0  0  0  0  0  0  0  0  0  0
    1.8039    3.8086   10.0214 C   0  0  0  0  0  0  0  0  0  0  0  0
    1.0010    4.6077    9.1343 C   0  0  0  0  0  0  0  0  0  0  0  0
   -0.2411    4.6153    9.5215 N   0  0  0  0  0  0  0  0  0  0  0  0
   -0.3421    3.8665   10.6189 N   0  0  0  0  0  0  0  0  0  0  0  0
    0.8809    3.3298   10.9772 C   0  0  0  0  0  0  0  0  0  0  0  0
    1.2478    2.4836   12.0372 C   0  0  0  0  0  0  0  0  0  0  0  0
   -0.4905   -0.8517   14.2206 C   0  0  0  0  0  0  0  0  0  0  0  0
   -1.8442   -1.1028   14.0951 C   0  0  0  0  0  0  0  0  0  0  0  0
   -3.7890   -2.9450   11.8694 H   0  0  0  0  0  0  0  0  0  0  0  0
   -5.4296   -2.2481   11.6465 H   0  0  0  0  0  0  0  0  0  0  0  0
   -6.2805   -3.9948   13.2677 H   0  0  0  0  0  0  0  0  0  0  0  0
   -5.6682   -4.6240   11.7006 H   0  0  0  0  0  0  0  0  0  0  0  0
   -5.1886   -5.4786   15.1874 H   0  0  0  0  0  0  0  0  0  0  0  0
   -3.4065   -5.2863   15.0700 H   0  0  0  0  0  0  0  0  0  0  0  0
   -5.5525   -3.2588   15.5826 H   0  0  0  0  0  0  0  0  0  0  0  0
   -3.9978   -3.5542   16.4326 H   0  0  0  0  0  0  0  0  0  0  0  0
   -4.0426   -1.0407   13.2114 H   0  0  0  0  0  0  0  0  0  0  0  0
   -5.5889   -1.6576   13.8860 H   0  0  0  0  0  0  0  0  0  0  0  0
   -2.3149   -2.8373   14.0447 H   0  0  0  0  0  0  0  0  0  0  0  0
   -2.1511   -3.6632   16.3065 H   0  0  0  0  0  0  0  0  0  0  0  0
    0.2564   -3.2373   16.5165 H   0  0  0  0  0  0  0  0  0  0  0  0
    5.0488    0.9967   12.8589 H   0  0  0  0  0  0  0  0  0  0  0  0
    4.6044    2.3241   13.9847 H   0  0  0  0  0  0  0  0  0  0  0  0
    6.8317    0.9027   15.2742 H   0  0  0  0  0  0  0  0  0  0  0  0
    6.2933   -0.7976   17.2797 H   0  0  0  0  0  0  0  0  0  0  0  0
    4.5824    2.3628   11.2801 H   0  0  0  0  0  0  0  0  0  0  0  0
    3.8693    3.8145    9.4049 H   0  0  0  0  0  0  0  0  0  0  0  0
    1.3774    5.1292    8.2667 H   0  0  0  0  0  0  0  0  0  0  0  0
    0.5241    2.1207   12.7521 H   0  0  0  0  0  0  0  0  0  0  0  0
   -0.0219   -0.0742   13.6356 H   0  0  0  0  0  0  0  0  0  0  0  0
   -2.4269   -0.5150   13.4014 H   0  0  0  0  0  0  0  0  0  0  0  0
  1  2  1  0  0  0  0
  1  7  1  0  0  0  0
  2  3  1  0  0  0  0
  3  4  1  0  0  0  0
  4  5  1  0  0  0  0
  5  6  1  0  0  0  0
  6  7  1  0  0  0  0
  6  8  1  0  0  0  0
  8  9  1  0  0  0  0
  8 32  1  0  0  0  0
  9 10  2  0  0  0  0
 10 11  1  0  0  0  0
 11 12  2  0  0  0  0
 11 31  1  0  0  0  0
 12 13  1  0  0  0  0
 13 14  2  0  0  0  0
 13 21  1  0  0  0  0
 14 15  1  0  0  0  0
 15 16  1  0  0  0  0
 15 22  2  0  0  0  0
 16 17  1  0  0  0  0
 17 18  1  0  0  0  0
 17 21  1  0  0  0  0
 18 19  2  0  0  0  0
 19 20  1  0  0  0  0
 20 21  2  0  0  0  0
 22 23  1  0  0  0  0
 22 30  1  0  0  0  0
 23 24  2  0  0  0  0
 24 25  1  0  0  0  0
 25 26  2  0  0  0  0
 25 29  1  0  0  0  0
 26 27  1  0  0  0  0
 27 28  2  0  0  0  0
 28 29  1  0  0  0  0
 29 30  2  0  0  0  0
 31 32  2  0  0  0  0
  1 33  1  0  0  0  0
  1 34  1  0  0  0  0
  2 35  1  0  0  0  0
  2 36  1  0  0  0  0
  4 37  1  0  0  0  0
  4 38  1  0  0  0  0
  5 39  1  0  0  0  0
  5 40  1  0  0  0  0
  7 41  1  0  0  0  0
  7 42  1  0  0  0  0
  8 43  1  0  0  0  0
  9 44  1  0  0  0  0
 10 45  1  0  0  0  0
 16 46  1  0  0  0  0
 16 47  1  0  0  0  0
 18 48  1  0  0  0  0
 19 49  1  0  0  0  0
 23 50  1  0  0  0  0
 24 51  1  0  0  0  0
 26 52  1  0  0  0  0
 30 53  1  0  0  0  0
 31 54  1  0  0  0  0
 32 55  1  0  0  0  0
M  END
> <IC50[nM]>
23.1

$$$$
CHEMBL3265036
  -OEChem-05192314333D
 Structure written by MMmdl.
 55 60  0     1  0  0  0  0  0999 V2000
   -4.7688   -2.7849   12.3431 C   0  0  0  0  0  0  0  0  0  0  0  0
   -5.3846   -4.1377   12.6456 C   0  0  0  0  0  0  0  0  0  0  0  0
   -4.4594   -4.9732   13.3425 O   0  0  0  0  0  0  0  0  0  0  0  0
   -4.3771   -4.8619   14.7737 C   0  0  0  0  0  0  0  0  0  0  0  0
   -4.4823   -3.4746   15.4482 C   0  0  0  0  0  0  0  0  0  0  0  0
   -3.8932   -2.3265   14.7696 N   0  0  2  0  0  0  0  0  0  0  0  0
   -4.5743   -1.9363   13.5651 C   0  0  0  0  0  0  0  0  0  0  0  0
   -2.4838   -2.1095   14.8521 C   0  0  0  0  0  0  0  0  0  0  0  0
   -1.6944   -2.8761   15.7249 C   0  0  0  0  0  0  0  0  0  0  0  0
   -0.3386   -2.6335   15.8473 C   0  0  0  0  0  0  0  0  0  0  0  0
    0.2634   -1.6168   15.1140 C   0  0  0  0  0  0  0  0  0  0  0  0
    1.6446   -1.3934   15.3516 N   0  0  0  0  0  0  0  0  0  0  0  0
    2.5467   -0.4494   14.7774 C   0  0  0  0  0  0  0  0  0  0  0  0
    2.1622    0.3813   13.7703 N   0  0  0  0  0  0  0  0  0  0  0  0
    3.0905    1.2361   13.2368 C   0  0  0  0  0  0  0  0  0  0  0  0
    4.3967    1.2828   13.6973 C   0  0  0  0  0  0  0  0  0  0  0  0
    4.7322    0.4976   14.7555 N   0  0  0  0  0  0  0  0  0  0  0  0
    5.8998    0.3887   15.4576 C   0  0  0  0  0  0  0  0  0  0  0  0
    5.6143   -0.5477   16.4779 C   0  0  0  0  0  0  0  0  0  0  0  0
    4.4157   -1.0782   16.3290 N   0  0  0  0  0  0  0  0  0  0  0  0
    3.8521   -0.4000   15.3224 C   0  0  0  0  0  0  0  0  0  0  0  0
    2.6115    2.1334   12.1178 C   0  0  0  0  0  0  0  0  0  0  0  0
    3.5406    2.6292   11.1800 C   0  0  0  0  0  0  0  0  0  0  0  0
    3.1477    3.4565   10.1243 C   0  0  0  0  0  0  0  0  0  0  0  0
    1.8039    3.8086   10.0214 C   0  0  0  0  0  0  0  0  0  0  0  0
    1.0010    4.6077    9.1343 C   0  0  0  0  0  0  0  0  0  0  0  0
   -0.2411    4.6153    9.5215 N   0  0  0  0  0  0  0  0  0  0  0  0
   -0.3421    3.8665   10.6189 N   0  0  0  0  0  0  0  0  0  0  0  0
    0.8809    3.3298   10.9772 C   0  0  0  0  0  0  0  0  0  0  0  0
    1.2478    2.4836   12.0372 C   0  0  0  0  0  0  0  0  0  0  0  0
   -0.4905   -0.8517   14.2206 C   0  0  0  0  0  0  0  0  0  0  0  0
   -1.8442   -1.1028   14.0951 C   0  0  0  0  0  0  0  0  0  0  0  0
   -3.7890   -2.9450   11.8694 H   0  0  0  0  0  0  0  0  0  0  0  0
   -5.4296   -2.2481   11.6465 H   0  0  0  0  0  0  0  0  0  0  0  0
   -6.2805   -3.9948   13.2677 H   0  0  0  0  0  0  0  0  0  0  0  0
   -5.6682   -4.6240   11.7006 H   0  0  0  0  0  0  0  0  0  0  0  0
   -5.1886   -5.4786   15.1874 H   0  0  0  0  0  0  0  0  0  0  0  0
   -3.4065   -5.2863   15.0700 H   0  0  0  0  0  0  0  0  0  0  0  0
   -5.5525   -3.2588   15.5826 H   0  0  0  0  0  0  0  0  0  0  0  0
   -3.9978   -3.5542   16.4326 H   0  0  0  0  0  0  0  0  0  0  0  0
   -4.0426   -1.0407   13.2114 H   0  0  0  0  0  0  0  0  0  0  0  0
   -5.5889   -1.6576   13.8860 H   0  0  0  0  0  0  0  0  0  0  0  0
   -2.1511   -3.6632   16.3065 H   0  0  0  0  0  0  0  0  0  0  0  0
    0.2564   -3.2373   16.5165 H   0  0  0  0  0  0  0  0  0  0  0  0
    5.0488    0.9967   12.8589 H   0  0  0  0  0  0  0  0  0  0  0  0
    4.6044    2.3241   13.9847 H   0  0  0  0  0  0  0  0  0  0  0  0
    6.8317    0.9027   15.2742 H   0  0  0  0  0  0  0  0  0  0  0  0
    6.2933   -0.7976   17.2797 H   0  0  0  0  0  0  0  0  0  0  0  0
    4.5824    2.3628   11.2801 H   0  0  0  0  0  0  0  0  0  0  0  0
    3.8693    3.8145    9.4049 H   0  0  0  0  0  0  0  0  0  0  0  0
    1.3774    5.1292    8.2667 H   0  0  0  0  0  0  0  0  0  0  0  0
    0.5241    2.1207   12.7521 H   0  0  0  0  0  0  0  0  0  0  0  0
   -0.3855    0.1990   14.5288 H   0  0  0  0  0  0  0  0  0  0  0  0
   -0.0444   -0.9880   13.2244 H   0  0  0  0  0  0  0  0  0  0  0  0
   -2.4269   -0.5150   13.4014 H   0  0  0  0  0  0  0  0  0  0  0  0
  1  2  1  0  0  0  0
  1  7  1  0  0  0  0
  2  3  1  0  0  0  0
  3  4  1  0  0  0  0
  4  5  1  0  0  0  0
  5  6  1  0  0  0  0
  6  7  1  0  0  0  0
  6  8  1  0  0  0  0
  8  9  1  0  0  0  0
  8 32  2  0  0  0  0
  9 10  2  0  0  0  0
 10 11  1  0  0  0  0
 11 12  2  0  0  0  0
 11 31  1  0  0  0  0
 12 13  1  0  0  0  0
 13 14  2  0  0  0  0
 13 21  1  0  0  0  0
 14 15  1  0  0  0  0
 15 16  1  0  0  0  0
 15 22  2  0  0  0  0
 16 17  1  0  0  0  0
 17 18  1  0  0  0  0
 17 21  1  0  0  0  0
 18 19  2  0  0  0  0
 19 20  1  0  0  0  0
 20 21  2  0  0  0  0
 22 23  1  0  0  0  0
 22 30  1  0  0  0  0
 23 24  2  0  0  0  0
 24 25  1  0  0  0  0
 25 26  2  0  0  0  0
 25 29  1  0  0  0  0
 26 27  1  0  0  0  0
 27 28  2  0  0  0  0
 28 29  1  0  0  0  0
 29 30  2  0  0  0  0
 31 32  1  0  0  0  0
  1 33  1  0  0  0  0
  1 34  1  0  0  0  0
  2 35  1  0  0  0  0
  2 36  1  0  0  0  0
  4 37  1  0  0  0  0
  4 38  1  0  0  0  0
  5 39  1  0  0  0  0
  5 40  1  0  0  0  0
  7 41  1  0  0  0  0
  7 42  1  0  0  0  0
  9 43  1  0  0  0  0
 10 44  1  0  0  0  0
 16 45  1  0  0  0  0
 16 46  1  0  0  0  0
 18 47  1  0  0  0  0
 19 48  1  0  0  0  0
 23 49  1  0  0  0  0
 24 50  1  0  0  0  0
 26 51  1  0  0  0  0
 30 52  1  0  0  0  0
 31 53  1  0  0  0  0
 31 54  1  0  0  0  0
 32 55  1  0  0  0  0
M  END
> <IC50[nM]>
23.1

$$$$
CHEMBL3265036
  -OEChem-05192314333D
 Structure written by MMmdl.
 55 60  0     1  0  0  0  0  0999 V2000
   -4.7688   -2.7849   12.3431 C   0  0  0  0  0  0  0  0  0  0  0  0
   -5.3846   -4.1377   12.6456 C   0  0  0  0  0  0  0  0  0  0  0  0
   -4.4594   -4.9732   13.3425 O   0  0  0  0  0  0  0  0  0  0  0  0
   -4.3771   -4.8619   14.7737 C   0  0  0  0  0  0  0  0  0  0  0  0
   -4.4823   -3.4746   15.4482 C   0  0  0  0  0  0  0  0  0  0  0  0
   -3.8932   -2.3265   14.7696 N   0  0  2  0  0  0  0  0  0  0  0  0
   -4.5743   -1.9363   13.5651 C   0  0  0  0  0  0  0  0  0  0  0  0
   -2.4838   -2.1095   14.8521 C   0  0  0  0  0  0  0  0  0  0  0  0
   -1.6944   -2.8761   15.7249 C   0  0  0  0  0  0  0  0  0  0  0  0
   -0.3386   -2.6335   15.8473 C   0  0  0  0  0  0  0  0  0  0  0  0
    0.2634   -1.6168   15.1140 C   0  0  0  0  0  0  0  0  0  0  0  0
    1.6446   -1.3934   15.3516 N   0  0  0  0  0  0  0  0  0  0  0  0
    2.5467   -0.4494   14.7774 C   0  0  0  0  0  0  0  0  0  0  0  0
    2.1622    0.3813   13.7703 N   0  0  0  0  0  0  0  0  0  0  0  0
    3.0905    1.2361   13.2368 C   0  0  0  0  0  0  0  0  0  0  0  0
    4.3967    1.2828   13.6973 C   0  0  0  0  0  0  0  0  0  0  0  0
    4.7322    0.4976   14.7555 N   0  0  0  0  0  0  0  0  0  0  0  0
    5.8998    0.3887   15.4576 C   0  0  0  0  0  0  0  0  0  0  0  0
    5.6143   -0.5477   16.4779 C   0  0  0  0  0  0  0  0  0  0  0  0
    4.4157   -1.0782   16.3290 N   0  0  0  0  0  0  0  0  0  0  0  0
    3.8521   -0.4000   15.3224 C   0  0  0  0  0  0  0  0  0  0  0  0
    2.6115    2.1334   12.1178 C   0  0  0  0  0  0  0  0  0  0  0  0
    3.5406    2.6292   11.1800 C   0  0  0  0  0  0  0  0  0  0  0  0
    3.1477    3.4565   10.1243 C   0  0  0  0  0  0  0  0  0  0  0  0
    1.8039    3.8086   10.0214 C   0  0  3  0  0  0  0  0  0  0  0  0
    1.0010    4.6077    9.1343 C   0  0  0  0  0  0  0  0  0  0  0  0
   -0.2411    4.6153    9.5215 N   0  0  0  0  0  0  0  0  0  0  0  0
   -0.3421    3.8665   10.6189 N   0  0  0  0  0  0  0  0  0  0  0  0
    0.8809    3.3298   10.9772 C   0  0  0  0  0  0  0  0  0  0  0  0
    1.2478    2.4836   12.0372 C   0  0  0  0  0  0  0  0  0  0  0  0
   -0.4905   -0.8517   14.2206 C   0  0  0  0  0  0  0  0  0  0  0  0
   -1.8442   -1.1028   14.0951 C   0  0  0  0  0  0  0  0  0  0  0  0
   -3.7890   -2.9450   11.8694 H   0  0  0  0  0  0  0  0  0  0  0  0
   -5.4296   -2.2481   11.6465 H   0  0  0  0  0  0  0  0  0  0  0  0
   -6.2805   -3.9948   13.2677 H   0  0  0  0  0  0  0  0  0  0  0  0
   -5.6682   -4.6240   11.7006 H   0  0  0  0  0  0  0  0  0  0  0  0
   -5.1886   -5.4786   15.1874 H   0  0  0  0  0  0  0  0  0  0  0  0
   -3.4065   -5.2863   15.0700 H   0  0  0  0  0  0  0  0  0  0  0  0
   -5.5525   -3.2588   15.5826 H   0  0  0  0  0  0  0  0  0  0  0  0
   -3.9978   -3.5542   16.4326 H   0  0  0  0  0  0  0  0  0  0  0  0
   -4.0426   -1.0407   13.2114 H   0  0  0  0  0  0  0  0  0  0  0  0
   -5.5889   -1.6576   13.8860 H   0  0  0  0  0  0  0  0  0  0  0  0
   -2.3149   -2.8373   14.0447 H   0  0  0  0  0  0  0  0  0  0  0  0
   -2.1511   -3.6632   16.3065 H   0  0  0  0  0  0  0  0  0  0  0  0
    0.2564   -3.2373   16.5165 H   0  0  0  0  0  0  0  0  0  0  0  0
    5.1278    1.9249   13.2288 H   0  0  0  0  0  0  0  0  0  0  0  0
    6.8317    0.9027   15.2742 H   0  0  0  0  0  0  0  0  0  0  0  0
    6.2933   -0.7976   17.2797 H   0  0  0  0  0  0  0  0  0  0  0  0
    4.5824    2.3628   11.2801 H   0  0  0  0  0  0  0  0  0  0  0  0
    3.8693    3.8145    9.4049 H   0  0  0  0  0  0  0  0  0  0  0  0
    1.6179    2.9234    9.3955 H   0  0  0  0  0  0  0  0  0  0  0  0
    1.3774    5.1292    8.2667 H   0  0  0  0  0  0  0  0  0  0  0  0
    0.5241    2.1207   12.7521 H   0  0  0  0  0  0  0  0  0  0  0  0
   -0.0219   -0.0742   13.6356 H   0  0  0  0  0  0  0  0  0  0  0  0
   -2.4269   -0.5150   13.4014 H   0  0  0  0  0  0  0  0  0  0  0  0
  1  2  1  0  0  0  0
  1  7  1  0  0  0  0
  2  3  1  0  0  0  0
  3  4  1  0  0  0  0
  4  5  1  0  0  0  0
  5  6  1  0  0  0  0
  6  7  1  0  0  0  0
  6  8  1  0  0  0  0
  8  9  1  0  0  0  0
  8 32  1  0  0  0  0
  9 10  2  0  0  0  0
 10 11  1  0  0  0  0
 11 12  2  0  0  0  0
 11 31  1  0  0  0  0
 12 13  1  0  0  0  0
 13 14  2  0  0  0  0
 13 21  1  0  0  0  0
 14 15  1  0  0  0  0
 15 16  2  0  0  0  0
 15 22  1  0  0  0  0
 16 17  1  0  0  0  0
 17 18  1  0  0  0  0
 17 21  1  0  0  0  0
 18 19  2  0  0  0  0
 19 20  1  0  0  0  0
 20 21  2  0  0  0  0
 22 23  1  0  0  0  0
 22 30  2  0  0  0  0
 23 24  2  0  0  0  0
 24 25  1  0  0  0  0
 25 26  1  0  0  0  0
 25 29  1  0  0  0  0
 26 27  2  0  0  0  0
 27 28  1  0  0  0  0
 28 29  2  0  0  0  0
 29 30  1  0  0  0  0
 31 32  2  0  0  0  0
  1 33  1  0  0  0  0
  1 34  1  0  0  0  0
  2 35  1  0  0  0  0
  2 36  1  0  0  0  0
  4 37  1  0  0  0  0
  4 38  1  0  0  0  0
  5 39  1  0  0  0  0
  5 40  1  0  0  0  0
  7 41  1  0  0  0  0
  7 42  1  0  0  0  0
  8 43  1  0  0  0  0
  9 44  1  0  0  0  0
 10 45  1  0  0  0  0
 16 46  1  0  0  0  0
 18 47  1  0  0  0  0
 19 48  1  0  0  0  0
 23 49  1  0  0  0  0
 24 50  1  0  0  0  0
 25 51  1  0  0  0  0
 26 52  1  0  0  0  0
 30 53  1  0  0  0  0
 31 54  1  0  0  0  0
 32 55  1  0  0  0  0
M  END
> <IC50[nM]>
23.1

$$$$
CHEMBL3265036
  -OEChem-05192314333D
 Structure written by MMmdl.
 55 60  0     1  0  0  0  0  0999 V2000
   -4.7688   -2.7849   12.3431 C   0  0  0  0  0  0  0  0  0  0  0  0
   -5.3846   -4.1377   12.6456 C   0  0  0  0  0  0  0  0  0  0  0  0
   -4.4594   -4.9732   13.3425 O   0  0  0  0  0  0  0  0  0  0  0  0
   -4.3771   -4.8619   14.7737 C   0  0  0  0  0  0  0  0  0  0  0  0
   -4.4823   -3.4746   15.4482 C   0  0  0  0  0  0  0  0  0  0  0  0
   -3.8932   -2.3265   14.7696 N   0  0  2  0  0  0  0  0  0  0  0  0
   -4.5743   -1.9363   13.5651 C   0  0  0  0  0  0  0  0  0  0  0  0
   -2.4838   -2.1095   14.8521 C   0  0  0  0  0  0  0  0  0  0  0  0
   -1.6944   -2.8761   15.7249 C   0  0  0  0  0  0  0  0  0  0  0  0
   -0.3386   -2.6335   15.8473 C   0  0  0  0  0  0  0  0  0  0  0  0
    0.2634   -1.6168   15.1140 C   0  0  0  0  0  0  0  0  0  0  0  0
    1.6446   -1.3934   15.3516 N   0  0  0  0  0  0  0  0  0  0  0  0
    2.5467   -0.4494   14.7774 C   0  0  0  0  0  0  0  0  0  0  0  0
    2.1622    0.3813   13.7703 N   0  0  0  0  0  0  0  0  0  0  0  0
    3.0905    1.2361   13.2368 C   0  0  0  0  0  0  0  0  0  0  0  0
    4.3967    1.2828   13.6973 C   0  0  0  0  0  0  0  0  0  0  0  0
    4.7322    0.4976   14.7555 N   0  0  0  0  0  0  0  0  0  0  0  0
    5.8998    0.3887   15.4576 C   0  0  0  0  0  0  0  0  0  0  0  0
    5.6143   -0.5477   16.4779 C   0  0  0  0  0  0  0  0  0  0  0  0
    4.4157   -1.0782   16.3290 N   0  0  0  0  0  0  0  0  0  0  0  0
    3.8521   -0.4000   15.3224 C   0  0  0  0  0  0  0  0  0  0  0  0
    2.6115    2.1334   12.1178 C   0  0  0  0  0  0  0  0  0  0  0  0
    3.5406    2.6292   11.1800 C   0  0  0  0  0  0  0  0  0  0  0  0
    3.1477    3.4565   10.1243 C   0  0  0  0  0  0  0  0  0  0  0  0
    1.8039    3.8086   10.0214 C   0  0  3  0  0  0  0  0  0  0  0  0
    1.0010    4.6077    9.1343 C   0  0  0  0  0  0  0  0  0  0  0  0
   -0.2411    4.6153    9.5215 N   0  0  0  0  0  0  0  0  0  0  0  0
   -0.3421    3.8665   10.6189 N   0  0  0  0  0  0  0  0  0  0  0  0
    0.8809    3.3298   10.9772 C   0  0  0  0  0  0  0  0  0  0  0  0
    1.2478    2.4836   12.0372 C   0  0  0  0  0  0  0  0  0  0  0  0
   -0.4905   -0.8517   14.2206 C   0  0  0  0  0  0  0  0  0  0  0  0
   -1.8442   -1.1028   14.0951 C   0  0  0  0  0  0  0  0  0  0  0  0
   -3.7890   -2.9450   11.8694 H   0  0  0  0  0  0  0  0  0  0  0  0
   -5.4296   -2.2481   11.6465 H   0  0  0  0  0  0  0  0  0  0  0  0
   -6.2805   -3.9948   13.2677 H   0  0  0  0  0  0  0  0  0  0  0  0
   -5.6682   -4.6240   11.7006 H   0  0  0  0  0  0  0  0  0  0  0  0
   -5.1886   -5.4786   15.1874 H   0  0  0  0  0  0  0  0  0  0  0  0
   -3.4065   -5.2863   15.0700 H   0  0  0  0  0  0  0  0  0  0  0  0
   -5.5525   -3.2588   15.5826 H   0  0  0  0  0  0  0  0  0  0  0  0
   -3.9978   -3.5542   16.4326 H   0  0  0  0  0  0  0  0  0  0  0  0
   -4.0426   -1.0407   13.2114 H   0  0  0  0  0  0  0  0  0  0  0  0
   -5.5889   -1.6576   13.8860 H   0  0  0  0  0  0  0  0  0  0  0  0
   -2.1511   -3.6632   16.3065 H   0  0  0  0  0  0  0  0  0  0  0  0
    0.2564   -3.2373   16.5165 H   0  0  0  0  0  0  0  0  0  0  0  0
    5.1278    1.9249   13.2288 H   0  0  0  0  0  0  0  0  0  0  0  0
    6.8317    0.9027   15.2742 H   0  0  0  0  0  0  0  0  0  0  0  0
    6.2933   -0.7976   17.2797 H   0  0  0  0  0  0  0  0  0  0  0  0
    4.5824    2.3628   11.2801 H   0  0  0  0  0  0  0  0  0  0  0  0
    3.8693    3.8145    9.4049 H   0  0  0  0  0  0  0  0  0  0  0  0
    1.6179    2.9234    9.3955 H   0  0  0  0  0  0  0  0  0  0  0  0
    1.3774    5.1292    8.2667 H   0  0  0  0  0  0  0  0  0  0  0  0
    0.5241    2.1207   12.7521 H   0  0  0  0  0  0  0  0  0  0  0  0
   -0.3855    0.1990   14.5288 H   0  0  0  0  0  0  0  0  0  0  0  0
   -0.0444   -0.9880   13.2244 H   0  0  0  0  0  0  0  0  0  0  0  0
   -2.4269   -0.5150   13.4014 H   0  0  0  0  0  0  0  0  0  0  0  0
  1  2  1  0  0  0  0
  1  7  1  0  0  0  0
  2  3  1  0  0  0  0
  3  4  1  0  0  0  0
  4  5  1  0  0  0  0
  5  6  1  0  0  0  0
  6  7  1  0  0  0  0
  6  8  1  0  0  0  0
  8  9  1  0  0  0  0
  8 32  2  0  0  0  0
  9 10  2  0  0  0  0
 10 11  1  0  0  0  0
 11 12  2  0  0  0  0
 11 31  1  0  0  0  0
 12 13  1  0  0  0  0
 13 14  2  0  0  0  0
 13 21  1  0  0  0  0
 14 15  1  0  0  0  0
 15 16  2  0  0  0  0
 15 22  1  0  0  0  0
 16 17  1  0  0  0  0
 17 18  1  0  0  0  0
 17 21  1  0  0  0  0
 18 19  2  0  0  0  0
 19 20  1  0  0  0  0
 20 21  2  0  0  0  0
 22 23  1  0  0  0  0
 22 30  2  0  0  0  0
 23 24  2  0  0  0  0
 24 25  1  0  0  0  0
 25 26  1  0  0  0  0
 25 29  1  0  0  0  0
 26 27  2  0  0  0  0
 27 28  1  0  0  0  0
 28 29  2  0  0  0  0
 29 30  1  0  0  0  0
 31 32  1  0  0  0  0
  1 33  1  0  0  0  0
  1 34  1  0  0  0  0
  2 35  1  0  0  0  0
  2 36  1  0  0  0  0
  4 37  1  0  0  0  0
  4 38  1  0  0  0  0
  5 39  1  0  0  0  0
  5 40  1  0  0  0  0
  7 41  1  0  0  0  0
  7 42  1  0  0  0  0
  9 43  1  0  0  0  0
 10 44  1  0  0  0  0
 16 45  1  0  0  0  0
 18 46  1  0  0  0  0
 19 47  1  0  0  0  0
 23 48  1  0  0  0  0
 24 49  1  0  0  0  0
 25 50  1  0  0  0  0
 26 51  1  0  0  0  0
 30 52  1  0  0  0  0
 31 53  1  0  0  0  0
 31 54  1  0  0  0  0
 32 55  1  0  0  0  0
M  END
> <IC50[nM]>
23.1

$$$$
CHEMBL3265036
  -OEChem-05192314333D
 Structure written by MMmdl.
 55 60  0     1  0  0  0  0  0999 V2000
   -4.7688   -2.7849   12.3431 C   0  0  0  0  0  0  0  0  0  0  0  0
   -5.3846   -4.1377   12.6456 C   0  0  0  0  0  0  0  0  0  0  0  0
   -4.4594   -4.9732   13.3425 O   0  0  0  0  0  0  0  0  0  0  0  0
   -4.3771   -4.8619   14.7737 C   0  0  0  0  0  0  0  0  0  0  0  0
   -4.4823   -3.4746   15.4482 C   0  0  0  0  0  0  0  0  0  0  0  0
   -3.8932   -2.3265   14.7696 N   0  0  2  0  0  0  0  0  0  0  0  0
   -4.5743   -1.9363   13.5651 C   0  0  0  0  0  0  0  0  0  0  0  0
   -2.4838   -2.1095   14.8521 C   0  0  0  0  0  0  0  0  0  0  0  0
   -1.6944   -2.8761   15.7249 C   0  0  0  0  0  0  0  0  0  0  0  0
   -0.3386   -2.6335   15.8473 C   0  0  0  0  0  0  0  0  0  0  0  0
    0.2634   -1.6168   15.1140 C   0  0  0  0  0  0  0  0  0  0  0  0
    1.6446   -1.3934   15.3516 N   0  0  0  0  0  0  0  0  0  0  0  0
    2.5467   -0.4494   14.7774 C   0  0  0  0  0  0  0  0  0  0  0  0
    2.1622    0.3813   13.7703 N   0  0  0  0  0  0  0  0  0  0  0  0
    3.0905    1.2361   13.2368 C   0  0  0  0  0  0  0  0  0  0  0  0
    4.3967    1.2828   13.6973 C   0  0  0  0  0  0  0  0  0  0  0  0
    4.7322    0.4976   14.7555 N   0  0  0  0  0  0  0  0  0  0  0  0
    5.8998    0.3887   15.4576 C   0  0  0  0  0  0  0  0  0  0  0  0
    5.6143   -0.5477   16.4779 C   0  0  0  0  0  0  0  0  0  0  0  0
    4.4157   -1.0782   16.3290 N   0  0  0  0  0  0  0  0  0  0  0  0
    3.8521   -0.4000   15.3224 C   0  0  0  0  0  0  0  0  0  0  0  0
    2.6115    2.1334   12.1178 C   0  0  0  0  0  0  0  0  0  0  0  0
    3.5406    2.6292   11.1800 C   0  0  0  0  0  0  0  0  0  0  0  0
    3.1477    3.4565   10.1243 C   0  0  0  0  0  0  0  0  0  0  0  0
    1.8039    3.8086   10.0214 C   0  0  0  0  0  0  0  0  0  0  0  0
    1.0010    4.6077    9.1343 C   0  0  0  0  0  0  0  0  0  0  0  0
   -0.2411    4.6153    9.5215 N   0  0  0  0  0  0  0  0  0  0  0  0
   -0.3421    3.8665   10.6189 N   0  0  0  0  0  0  0  0  0  0  0  0
    0.8809    3.3298   10.9772 C   0  0  0  0  0  0  0  0  0  0  0  0
    1.2478    2.4836   12.0372 C   0  0  0  0  0  0  0  0  0  0  0  0
   -0.4905   -0.8517   14.2206 C   0  0  0  0  0  0  0  0  0  0  0  0
   -1.8442   -1.1028   14.0951 C   0  0  0  0  0  0  0  0  0  0  0  0
   -3.7890   -2.9450   11.8694 H   0  0  0  0  0  0  0  0  0  0  0  0
   -5.4296   -2.2481   11.6465 H   0  0  0  0  0  0  0  0  0  0  0  0
   -6.2805   -3.9948   13.2677 H   0  0  0  0  0  0  0  0  0  0  0  0
   -5.6682   -4.6240   11.7006 H   0  0  0  0  0  0  0  0  0  0  0  0
   -5.1886   -5.4786   15.1874 H   0  0  0  0  0  0  0  0  0  0  0  0
   -3.4065   -5.2863   15.0700 H   0  0  0  0  0  0  0  0  0  0  0  0
   -5.5525   -3.2588   15.5826 H   0  0  0  0  0  0  0  0  0  0  0  0
   -3.9978   -3.5542   16.4326 H   0  0  0  0  0  0  0  0  0  0  0  0
   -4.0426   -1.0407   13.2114 H   0  0  0  0  0  0  0  0  0  0  0  0
   -5.5889   -1.6576   13.8860 H   0  0  0  0  0  0  0  0  0  0  0  0
   -2.3149   -2.8373   14.0447 H   0  0  0  0  0  0  0  0  0  0  0  0
   -2.1511   -3.6632   16.3065 H   0  0  0  0  0  0  0  0  0  0  0  0
    0.2564   -3.2373   16.5165 H   0  0  0  0  0  0  0  0  0  0  0  0
    5.1278    1.9249   13.2288 H   0  0  0  0  0  0  0  0  0  0  0  0
    6.8317    0.9027   15.2742 H   0  0  0  0  0  0  0  0  0  0  0  0
    6.2933   -0.7976   17.2797 H   0  0  0  0  0  0  0  0  0  0  0  0
    4.2884    3.1952   11.7548 H   0  0  0  0  0  0  0  0  0  0  0  0
    4.0181    1.7499   10.7229 H   0  0  0  0  0  0  0  0  0  0  0  0
    3.8693    3.8145    9.4049 H   0  0  0  0  0  0  0  0  0  0  0  0
    1.3774    5.1292    8.2667 H   0  0  0  0  0  0  0  0  0  0  0  0
    0.5241    2.1207   12.7521 H   0  0  0  0  0  0  0  0  0  0  0  0
   -0.0219   -0.0742   13.6356 H   0  0  0  0  0  0  0  0  0  0  0  0
   -2.4269   -0.5150   13.4014 H   0  0  0  0  0  0  0  0  0  0  0  0
  1  2  1  0  0  0  0
  1  7  1  0  0  0  0
  2  3  1  0  0  0  0
  3  4  1  0  0  0  0
  4  5  1  0  0  0  0
  5  6  1  0  0  0  0
  6  7  1  0  0  0  0
  6  8  1  0  0  0  0
  8  9  1  0  0  0  0
  8 32  1  0  0  0  0
  9 10  2  0  0  0  0
 10 11  1  0  0  0  0
 11 12  2  0  0  0  0
 11 31  1  0  0  0  0
 12 13  1  0  0  0  0
 13 14  2  0  0  0  0
 13 21  1  0  0  0  0
 14 15  1  0  0  0  0
 15 16  2  0  0  0  0
 15 22  1  0  0  0  0
 16 17  1  0  0  0  0
 17 18  1  0  0  0  0
 17 21  1  0  0  0  0
 18 19  2  0  0  0  0
 19 20  1  0  0  0  0
 20 21  2  0  0  0  0
 22 23  1  0  0  0  0
 22 30  2  0  0  0  0
 23 24  1  0  0  0  0
 24 25  2  0  0  0  0
 25 26  1  0  0  0  0
 25 29  1  0  0  0  0
 26 27  2  0  0  0  0
 27 28  1  0  0  0  0
 28 29  2  0  0  0  0
 29 30  1  0  0  0  0
 31 32  2  0  0  0  0
  1 33  1  0  0  0  0
  1 34  1  0  0  0  0
  2 35  1  0  0  0  0
  2 36  1  0  0  0  0
  4 37  1  0  0  0  0
  4 38  1  0  0  0  0
  5 39  1  0  0  0  0
  5 40  1  0  0  0  0
  7 41  1  0  0  0  0
  7 42  1  0  0  0  0
  8 43  1  0  0  0  0
  9 44  1  0  0  0  0
 10 45  1  0  0  0  0
 16 46  1  0  0  0  0
 18 47  1  0  0  0  0
 19 48  1  0  0  0  0
 23 49  1  0  0  0  0
 23 50  1  0  0  0  0
 24 51  1  0  0  0  0
 26 52  1  0  0  0  0
 30 53  1  0  0  0  0
 31 54  1  0  0  0  0
 32 55  1  0  0  0  0
M  END
> <IC50[nM]>
23.1

$$$$
CHEMBL3265036
  -OEChem-05192314333D
 Structure written by MMmdl.
 55 60  0     1  0  0  0  0  0999 V2000
   -4.7688   -2.7849   12.3431 C   0  0  0  0  0  0  0  0  0  0  0  0
   -5.3846   -4.1377   12.6456 C   0  0  0  0  0  0  0  0  0  0  0  0
   -4.4594   -4.9732   13.3425 O   0  0  0  0  0  0  0  0  0  0  0  0
   -4.3771   -4.8619   14.7737 C   0  0  0  0  0  0  0  0  0  0  0  0
   -4.4823   -3.4746   15.4482 C   0  0  0  0  0  0  0  0  0  0  0  0
   -3.8932   -2.3265   14.7696 N   0  0  2  0  0  0  0  0  0  0  0  0
   -4.5743   -1.9363   13.5651 C   0  0  0  0  0  0  0  0  0  0  0  0
   -2.4838   -2.1095   14.8521 C   0  0  0  0  0  0  0  0  0  0  0  0
   -1.6944   -2.8761   15.7249 C   0  0  0  0  0  0  0  0  0  0  0  0
   -0.3386   -2.6335   15.8473 C   0  0  0  0  0  0  0  0  0  0  0  0
    0.2634   -1.6168   15.1140 C   0  0  0  0  0  0  0  0  0  0  0  0
    1.6446   -1.3934   15.3516 N   0  0  0  0  0  0  0  0  0  0  0  0
    2.5467   -0.4494   14.7774 C   0  0  0  0  0  0  0  0  0  0  0  0
    2.1622    0.3813   13.7703 N   0  0  0  0  0  0  0  0  0  0  0  0
    3.0905    1.2361   13.2368 C   0  0  0  0  0  0  0  0  0  0  0  0
    4.3967    1.2828   13.6973 C   0  0  0  0  0  0  0  0  0  0  0  0
    4.7322    0.4976   14.7555 N   0  0  0  0  0  0  0  0  0  0  0  0
    5.8998    0.3887   15.4576 C   0  0  0  0  0  0  0  0  0  0  0  0
    5.6143   -0.5477   16.4779 C   0  0  0  0  0  0  0  0  0  0  0  0
    4.4157   -1.0782   16.3290 N   0  0  0  0  0  0  0  0  0  0  0  0
    3.8521   -0.4000   15.3224 C   0  0  0  0  0  0  0  0  0  0  0  0
    2.6115    2.1334   12.1178 C   0  0  0  0  0  0  0  0  0  0  0  0
    3.5406    2.6292   11.1800 C   0  0  0  0  0  0  0  0  0  0  0  0
    3.1477    3.4565   10.1243 C   0  0  0  0  0  0  0  0  0  0  0  0
    1.8039    3.8086   10.0214 C   0  0  0  0  0  0  0  0  0  0  0  0
    1.0010    4.6077    9.1343 C   0  0  0  0  0  0  0  0  0  0  0  0
   -0.2411    4.6153    9.5215 N   0  0  0  0  0  0  0  0  0  0  0  0
   -0.3421    3.8665   10.6189 N   0  0  0  0  0  0  0  0  0  0  0  0
    0.8809    3.3298   10.9772 C   0  0  0  0  0  0  0  0  0  0  0  0
    1.2478    2.4836   12.0372 C   0  0  0  0  0  0  0  0  0  0  0  0
   -0.4905   -0.8517   14.2206 C   0  0  0  0  0  0  0  0  0  0  0  0
   -1.8442   -1.1028   14.0951 C   0  0  0  0  0  0  0  0  0  0  0  0
   -3.7890   -2.9450   11.8694 H   0  0  0  0  0  0  0  0  0  0  0  0
   -5.4296   -2.2481   11.6465 H   0  0  0  0  0  0  0  0  0  0  0  0
   -6.2805   -3.9948   13.2677 H   0  0  0  0  0  0  0  0  0  0  0  0
   -5.6682   -4.6240   11.7006 H   0  0  0  0  0  0  0  0  0  0  0  0
   -5.1886   -5.4786   15.1874 H   0  0  0  0  0  0  0  0  0  0  0  0
   -3.4065   -5.2863   15.0700 H   0  0  0  0  0  0  0  0  0  0  0  0
   -5.5525   -3.2588   15.5826 H   0  0  0  0  0  0  0  0  0  0  0  0
   -3.9978   -3.5542   16.4326 H   0  0  0  0  0  0  0  0  0  0  0  0
   -4.0426   -1.0407   13.2114 H   0  0  0  0  0  0  0  0  0  0  0  0
   -5.5889   -1.6576   13.8860 H   0  0  0  0  0  0  0  0  0  0  0  0
   -2.1511   -3.6632   16.3065 H   0  0  0  0  0  0  0  0  0  0  0  0
    0.2564   -3.2373   16.5165 H   0  0  0  0  0  0  0  0  0  0  0  0
    5.1278    1.9249   13.2288 H   0  0  0  0  0  0  0  0  0  0  0  0
    6.8317    0.9027   15.2742 H   0  0  0  0  0  0  0  0  0  0  0  0
    6.2933   -0.7976   17.2797 H   0  0  0  0  0  0  0  0  0  0  0  0
    4.2884    3.1952   11.7548 H   0  0  0  0  0  0  0  0  0  0  0  0
    4.0181    1.7499   10.7229 H   0  0  0  0  0  0  0  0  0  0  0  0
    3.8693    3.8145    9.4049 H   0  0  0  0  0  0  0  0  0  0  0  0
    1.3774    5.1292    8.2667 H   0  0  0  0  0  0  0  0  0  0  0  0
    0.5241    2.1207   12.7521 H   0  0  0  0  0  0  0  0  0  0  0  0
   -0.3855    0.1990   14.5288 H   0  0  0  0  0  0  0  0  0  0  0  0
   -0.0444   -0.9880   13.2244 H   0  0  0  0  0  0  0  0  0  0  0  0
   -2.4269   -0.5150   13.4014 H   0  0  0  0  0  0  0  0  0  0  0  0
  1  2  1  0  0  0  0
  1  7  1  0  0  0  0
  2  3  1  0  0  0  0
  3  4  1  0  0  0  0
  4  5  1  0  0  0  0
  5  6  1  0  0  0  0
  6  7  1  0  0  0  0
  6  8  1  0  0  0  0
  8  9  1  0  0  0  0
  8 32  2  0  0  0  0
  9 10  2  0  0  0  0
 10 11  1  0  0  0  0
 11 12  2  0  0  0  0
 11 31  1  0  0  0  0
 12 13  1  0  0  0  0
 13 14  2  0  0  0  0
 13 21  1  0  0  0  0
 14 15  1  0  0  0  0
 15 16  2  0  0  0  0
 15 22  1  0  0  0  0
 16 17  1  0  0  0  0
 17 18  1  0  0  0  0
 17 21  1  0  0  0  0
 18 19  2  0  0  0  0
 19 20  1  0  0  0  0
 20 21  2  0  0  0  0
 22 23  1  0  0  0  0
 22 30  2  0  0  0  0
 23 24  1  0  0  0  0
 24 25  2  0  0  0  0
 25 26  1  0  0  0  0
 25 29  1  0  0  0  0
 26 27  2  0  0  0  0
 27 28  1  0  0  0  0
 28 29  2  0  0  0  0
 29 30  1  0  0  0  0
 31 32  1  0  0  0  0
  1 33  1  0  0  0  0
  1 34  1  0  0  0  0
  2 35  1  0  0  0  0
  2 36  1  0  0  0  0
  4 37  1  0  0  0  0
  4 38  1  0  0  0  0
  5 39  1  0  0  0  0
  5 40  1  0  0  0  0
  7 41  1  0  0  0  0
  7 42  1  0  0  0  0
  9 43  1  0  0  0  0
 10 44  1  0  0  0  0
 16 45  1  0  0  0  0
 18 46  1  0  0  0  0
 19 47  1  0  0  0  0
 23 48  1  0  0  0  0
 23 49  1  0  0  0  0
 24 50  1  0  0  0  0
 26 51  1  0  0  0  0
 30 52  1  0  0  0  0
 31 53  1  0  0  0  0
 31 54  1  0  0  0  0
 32 55  1  0  0  0  0
M  END
> <IC50[nM]>
23.1

$$$$
CHEMBL3265036
  -OEChem-05192314333D
 Structure written by MMmdl.
 55 60  0     1  0  0  0  0  0999 V2000
   -4.7688   -2.7849   12.3431 C   0  0  0  0  0  0  0  0  0  0  0  0
   -5.3846   -4.1377   12.6456 C   0  0  0  0  0  0  0  0  0  0  0  0
   -4.4594   -4.9732   13.3425 O   0  0  0  0  0  0  0  0  0  0  0  0
   -4.3771   -4.8619   14.7737 C   0  0  0  0  0  0  0  0  0  0  0  0
   -4.4823   -3.4746   15.4482 C   0  0  0  0  0  0  0  0  0  0  0  0
   -3.8932   -2.3265   14.7696 N   0  0  2  0  0  0  0  0  0  0  0  0
   -4.5743   -1.9363   13.5651 C   0  0  0  0  0  0  0  0  0  0  0  0
   -2.4838   -2.1095   14.8521 C   0  0  0  0  0  0  0  0  0  0  0  0
   -1.6944   -2.8761   15.7249 C   0  0  0  0  0  0  0  0  0  0  0  0
   -0.3386   -2.6335   15.8473 C   0  0  0  0  0  0  0  0  0  0  0  0
    0.2634   -1.6168   15.1140 C   0  0  0  0  0  0  0  0  0  0  0  0
    1.6446   -1.3934   15.3516 N   0  0  0  0  0  0  0  0  0  0  0  0
    2.5467   -0.4494   14.7774 C   0  0  0  0  0  0  0  0  0  0  0  0
    2.1622    0.3813   13.7703 N   0  0  0  0  0  0  0  0  0  0  0  0
    3.0905    1.2361   13.2368 C   0  0  0  0  0  0  0  0  0  0  0  0
    4.3967    1.2828   13.6973 C   0  0  0  0  0  0  0  0  0  0  0  0
    4.7322    0.4976   14.7555 N   0  0  0  0  0  0  0  0  0  0  0  0
    5.8998    0.3887   15.4576 C   0  0  0  0  0  0  0  0  0  0  0  0
    5.6143   -0.5477   16.4779 C   0  0  0  0  0  0  0  0  0  0  0  0
    4.4157   -1.0782   16.3290 N   0  0  0  0  0  0  0  0  0  0  0  0
    3.8521   -0.4000   15.3224 C   0  0  0  0  0  0  0  0  0  0  0  0
    2.6115    2.1334   12.1178 C   0  0  0  0  0  0  0  0  0  0  0  0
    3.5406    2.6292   11.1800 C   0  0  0  0  0  0  0  0  0  0  0  0
    3.1477    3.4565   10.1243 C   0  0  0  0  0  0  0  0  0  0  0  0
    1.8039    3.8086   10.0214 C   0  0  0  0  0  0  0  0  0  0  0  0
    1.0010    4.6077    9.1343 C   0  0  0  0  0  0  0  0  0  0  0  0
   -0.2411    4.6153    9.5215 N   0  0  0  0  0  0  0  0  0  0  0  0
   -0.3421    3.8665   10.6189 N   0  0  0  0  0  0  0  0  0  0  0  0
    0.8809    3.3298   10.9772 C   0  0  0  0  0  0  0  0  0  0  0  0
    1.2478    2.4836   12.0372 C   0  0  0  0  0  0  0  0  0  0  0  0
   -0.4905   -0.8517   14.2206 C   0  0  0  0  0  0  0  0  0  0  0  0
   -1.8442   -1.1028   14.0951 C   0  0  0  0  0  0  0  0  0  0  0  0
   -3.7890   -2.9450   11.8694 H   0  0  0  0  0  0  0  0  0  0  0  0
   -5.4296   -2.2481   11.6465 H   0  0  0  0  0  0  0  0  0  0  0  0
   -6.2805   -3.9948   13.2677 H   0  0  0  0  0  0  0  0  0  0  0  0
   -5.6682   -4.6240   11.7006 H   0  0  0  0  0  0  0  0  0  0  0  0
   -5.1886   -5.4786   15.1874 H   0  0  0  0  0  0  0  0  0  0  0  0
   -3.4065   -5.2863   15.0700 H   0  0  0  0  0  0  0  0  0  0  0  0
   -5.5525   -3.2588   15.5826 H   0  0  0  0  0  0  0  0  0  0  0  0
   -3.9978   -3.5542   16.4326 H   0  0  0  0  0  0  0  0  0  0  0  0
   -4.0426   -1.0407   13.2114 H   0  0  0  0  0  0  0  0  0  0  0  0
   -5.5889   -1.6576   13.8860 H   0  0  0  0  0  0  0  0  0  0  0  0
   -2.3149   -2.8373   14.0447 H   0  0  0  0  0  0  0  0  0  0  0  0
   -2.1511   -3.6632   16.3065 H   0  0  0  0  0  0  0  0  0  0  0  0
    0.2564   -3.2373   16.5165 H   0  0  0  0  0  0  0  0  0  0  0  0
    5.1278    1.9249   13.2288 H   0  0  0  0  0  0  0  0  0  0  0  0
    6.8317    0.9027   15.2742 H   0  0  0  0  0  0  0  0  0  0  0  0
    6.2933   -0.7976   17.2797 H   0  0  0  0  0  0  0  0  0  0  0  0
    4.5824    2.3628   11.2801 H   0  0  0  0  0  0  0  0  0  0  0  0
    3.8693    3.8145    9.4049 H   0  0  0  0  0  0  0  0  0  0  0  0
    1.3774    5.1292    8.2667 H   0  0  0  0  0  0  0  0  0  0  0  0
    0.6689    1.5535   11.9385 H   0  0  0  0  0  0  0  0  0  0  0  0
    0.9756    2.9870   12.9766 H   0  0  0  0  0  0  0  0  0  0  0  0
   -0.0219   -0.0742   13.6356 H   0  0  0  0  0  0  0  0  0  0  0  0
   -2.4269   -0.5150   13.4014 H   0  0  0  0  0  0  0  0  0  0  0  0
  1  2  1  0  0  0  0
  1  7  1  0  0  0  0
  2  3  1  0  0  0  0
  3  4  1  0  0  0  0
  4  5  1  0  0  0  0
  5  6  1  0  0  0  0
  6  7  1  0  0  0  0
  6  8  1  0  0  0  0
  8  9  1  0  0  0  0
  8 32  1  0  0  0  0
  9 10  2  0  0  0  0
 10 11  1  0  0  0  0
 11 12  2  0  0  0  0
 11 31  1  0  0  0  0
 12 13  1  0  0  0  0
 13 14  2  0  0  0  0
 13 21  1  0  0  0  0
 14 15  1  0  0  0  0
 15 16  2  0  0  0  0
 15 22  1  0  0  0  0
 16 17  1  0  0  0  0
 17 18  1  0  0  0  0
 17 21  1  0  0  0  0
 18 19  2  0  0  0  0
 19 20  1  0  0  0  0
 20 21  2  0  0  0  0
 22 23  2  0  0  0  0
 22 30  1  0  0  0  0
 23 24  1  0  0  0  0
 24 25  2  0  0  0  0
 25 26  1  0  0  0  0
 25 29  1  0  0  0  0
 26 27  2  0  0  0  0
 27 28  1  0  0  0  0
 28 29  2  0  0  0  0
 29 30  1  0  0  0  0
 31 32  2  0  0  0  0
  1 33  1  0  0  0  0
  1 34  1  0  0  0  0
  2 35  1  0  0  0  0
  2 36  1  0  0  0  0
  4 37  1  0  0  0  0
  4 38  1  0  0  0  0
  5 39  1  0  0  0  0
  5 40  1  0  0  0  0
  7 41  1  0  0  0  0
  7 42  1  0  0  0  0
  8 43  1  0  0  0  0
  9 44  1  0  0  0  0
 10 45  1  0  0  0  0
 16 46  1  0  0  0  0
 18 47  1  0  0  0  0
 19 48  1  0  0  0  0
 23 49  1  0  0  0  0
 24 50  1  0  0  0  0
 26 51  1  0  0  0  0
 30 52  1  0  0  0  0
 30 53  1  0  0  0  0
 31 54  1  0  0  0  0
 32 55  1  0  0  0  0
M  END
> <IC50[nM]>
23.1

$$$$
CHEMBL3265036
  -OEChem-05192314333D
 Structure written by MMmdl.
 55 60  0     1  0  0  0  0  0999 V2000
   -4.7688   -2.7849   12.3431 C   0  0  0  0  0  0  0  0  0  0  0  0
   -5.3846   -4.1377   12.6456 C   0  0  0  0  0  0  0  0  0  0  0  0
   -4.4594   -4.9732   13.3425 O   0  0  0  0  0  0  0  0  0  0  0  0
   -4.3771   -4.8619   14.7737 C   0  0  0  0  0  0  0  0  0  0  0  0
   -4.4823   -3.4746   15.4482 C   0  0  0  0  0  0  0  0  0  0  0  0
   -3.8932   -2.3265   14.7696 N   0  0  2  0  0  0  0  0  0  0  0  0
   -4.5743   -1.9363   13.5651 C   0  0  0  0  0  0  0  0  0  0  0  0
   -2.4838   -2.1095   14.8521 C   0  0  0  0  0  0  0  0  0  0  0  0
   -1.6944   -2.8761   15.7249 C   0  0  0  0  0  0  0  0  0  0  0  0
   -0.3386   -2.6335   15.8473 C   0  0  0  0  0  0  0  0  0  0  0  0
    0.2634   -1.6168   15.1140 C   0  0  0  0  0  0  0  0  0  0  0  0
    1.6446   -1.3934   15.3516 N   0  0  0  0  0  0  0  0  0  0  0  0
    2.5467   -0.4494   14.7774 C   0  0  0  0  0  0  0  0  0  0  0  0
    2.1622    0.3813   13.7703 N   0  0  0  0  0  0  0  0  0  0  0  0
    3.0905    1.2361   13.2368 C   0  0  0  0  0  0  0  0  0  0  0  0
    4.3967    1.2828   13.6973 C   0  0  0  0  0  0  0  0  0  0  0  0
    4.7322    0.4976   14.7555 N   0  0  0  0  0  0  0  0  0  0  0  0
    5.8998    0.3887   15.4576 C   0  0  0  0  0  0  0  0  0  0  0  0
    5.6143   -0.5477   16.4779 C   0  0  0  0  0  0  0  0  0  0  0  0
    4.4157   -1.0782   16.3290 N   0  0  0  0  0  0  0  0  0  0  0  0
    3.8521   -0.4000   15.3224 C   0  0  0  0  0  0  0  0  0  0  0  0
    2.6115    2.1334   12.1178 C   0  0  0  0  0  0  0  0  0  0  0  0
    3.5406    2.6292   11.1800 C   0  0  0  0  0  0  0  0  0  0  0  0
    3.1477    3.4565   10.1243 C   0  0  0  0  0  0  0  0  0  0  0  0
    1.8039    3.8086   10.0214 C   0  0  0  0  0  0  0  0  0  0  0  0
    1.0010    4.6077    9.1343 C   0  0  0  0  0  0  0  0  0  0  0  0
   -0.2411    4.6153    9.5215 N   0  0  0  0  0  0  0  0  0  0  0  0
   -0.3421    3.8665   10.6189 N   0  0  0  0  0  0  0  0  0  0  0  0
    0.8809    3.3298   10.9772 C   0  0  0  0  0  0  0  0  0  0  0  0
    1.2478    2.4836   12.0372 C   0  0  0  0  0  0  0  0  0  0  0  0
   -0.4905   -0.8517   14.2206 C   0  0  0  0  0  0  0  0  0  0  0  0
   -1.8442   -1.1028   14.0951 C   0  0  0  0  0  0  0  0  0  0  0  0
   -3.7890   -2.9450   11.8694 H   0  0  0  0  0  0  0  0  0  0  0  0
   -5.4296   -2.2481   11.6465 H   0  0  0  0  0  0  0  0  0  0  0  0
   -6.2805   -3.9948   13.2677 H   0  0  0  0  0  0  0  0  0  0  0  0
   -5.6682   -4.6240   11.7006 H   0  0  0  0  0  0  0  0  0  0  0  0
   -5.1886   -5.4786   15.1874 H   0  0  0  0  0  0  0  0  0  0  0  0
   -3.4065   -5.2863   15.0700 H   0  0  0  0  0  0  0  0  0  0  0  0
   -5.5525   -3.2588   15.5826 H   0  0  0  0  0  0  0  0  0  0  0  0
   -3.9978   -3.5542   16.4326 H   0  0  0  0  0  0  0  0  0  0  0  0
   -4.0426   -1.0407   13.2114 H   0  0  0  0  0  0  0  0  0  0  0  0
   -5.5889   -1.6576   13.8860 H   0  0  0  0  0  0  0  0  0  0  0  0
   -2.1511   -3.6632   16.3065 H   0  0  0  0  0  0  0  0  0  0  0  0
    0.2564   -3.2373   16.5165 H   0  0  0  0  0  0  0  0  0  0  0  0
    5.1278    1.9249   13.2288 H   0  0  0  0  0  0  0  0  0  0  0  0
    6.8317    0.9027   15.2742 H   0  0  0  0  0  0  0  0  0  0  0  0
    6.2933   -0.7976   17.2797 H   0  0  0  0  0  0  0  0  0  0  0  0
    4.5824    2.3628   11.2801 H   0  0  0  0  0  0  0  0  0  0  0  0
    3.8693    3.8145    9.4049 H   0  0  0  0  0  0  0  0  0  0  0  0
    1.3774    5.1292    8.2667 H   0  0  0  0  0  0  0  0  0  0  0  0
    0.6689    1.5535   11.9385 H   0  0  0  0  0  0  0  0  0  0  0  0
    0.9756    2.9870   12.9766 H   0  0  0  0  0  0  0  0  0  0  0  0
   -0.3855    0.1990   14.5288 H   0  0  0  0  0  0  0  0  0  0  0  0
   -0.0444   -0.9880   13.2244 H   0  0  0  0  0  0  0  0  0  0  0  0
   -2.4269   -0.5150   13.4014 H   0  0  0  0  0  0  0  0  0  0  0  0
  1  2  1  0  0  0  0
  1  7  1  0  0  0  0
  2  3  1  0  0  0  0
  3  4  1  0  0  0  0
  4  5  1  0  0  0  0
  5  6  1  0  0  0  0
  6  7  1  0  0  0  0
  6  8  1  0  0  0  0
  8  9  1  0  0  0  0
  8 32  2  0  0  0  0
  9 10  2  0  0  0  0
 10 11  1  0  0  0  0
 11 12  2  0  0  0  0
 11 31  1  0  0  0  0
 12 13  1  0  0  0  0
 13 14  2  0  0  0  0
 13 21  1  0  0  0  0
 14 15  1  0  0  0  0
 15 16  2  0  0  0  0
 15 22  1  0  0  0  0
 16 17  1  0  0  0  0
 17 18  1  0  0  0  0
 17 21  1  0  0  0  0
 18 19  2  0  0  0  0
 19 20  1  0  0  0  0
 20 21  2  0  0  0  0
 22 23  2  0  0  0  0
 22 30  1  0  0  0  0
 23 24  1  0  0  0  0
 24 25  2  0  0  0  0
 25 26  1  0  0  0  0
 25 29  1  0  0  0  0
 26 27  2  0  0  0  0
 27 28  1  0  0  0  0
 28 29  2  0  0  0  0
 29 30  1  0  0  0  0
 31 32  1  0  0  0  0
  1 33  1  0  0  0  0
  1 34  1  0  0  0  0
  2 35  1  0  0  0  0
  2 36  1  0  0  0  0
  4 37  1  0  0  0  0
  4 38  1  0  0  0  0
  5 39  1  0  0  0  0
  5 40  1  0  0  0  0
  7 41  1  0  0  0  0
  7 42  1  0  0  0  0
  9 43  1  0  0  0  0
 10 44  1  0  0  0  0
 16 45  1  0  0  0  0
 18 46  1  0  0  0  0
 19 47  1  0  0  0  0
 23 48  1  0  0  0  0
 24 49  1  0  0  0  0
 26 50  1  0  0  0  0
 30 51  1  0  0  0  0
 30 52  1  0  0  0  0
 31 53  1  0  0  0  0
 31 54  1  0  0  0  0
 32 55  1  0  0  0  0
M  END
> <IC50[nM]>
23.1

$$$$
CHEMBL3265036
  -OEChem-05192314333D
 Structure written by MMmdl.
 55 60  0     1  0  0  0  0  0999 V2000
   -4.7688   -2.7849   12.3431 C   0  0  0  0  0  0  0  0  0  0  0  0
   -5.3846   -4.1377   12.6456 C   0  0  0  0  0  0  0  0  0  0  0  0
   -4.4594   -4.9732   13.3425 O   0  0  0  0  0  0  0  0  0  0  0  0
   -4.3771   -4.8619   14.7737 C   0  0  0  0  0  0  0  0  0  0  0  0
   -4.4823   -3.4746   15.4482 C   0  0  0  0  0  0  0  0  0  0  0  0
   -3.8932   -2.3265   14.7696 N   0  0  2  0  0  0  0  0  0  0  0  0
   -4.5743   -1.9363   13.5651 C   0  0  0  0  0  0  0  0  0  0  0  0
   -2.4838   -2.1095   14.8521 C   0  0  0  0  0  0  0  0  0  0  0  0
   -1.6944   -2.8761   15.7249 C   0  0  0  0  0  0  0  0  0  0  0  0
   -0.3386   -2.6335   15.8473 C   0  0  0  0  0  0  0  0  0  0  0  0
    0.2634   -1.6168   15.1140 C   0  0  0  0  0  0  0  0  0  0  0  0
    1.6446   -1.3934   15.3516 N   0  0  0  0  0  0  0  0  0  0  0  0
    2.5467   -0.4494   14.7774 C   0  0  0  0  0  0  0  0  0  0  0  0
    2.1622    0.3813   13.7703 N   0  0  0  0  0  0  0  0  0  0  0  0
    3.0905    1.2361   13.2368 C   0  0  0  0  0  0  0  0  0  0  0  0
    4.3967    1.2828   13.6973 C   0  0  0  0  0  0  0  0  0  0  0  0
    4.7322    0.4976   14.7555 N   0  0  0  0  0  0  0  0  0  0  0  0
    5.8998    0.3887   15.4576 C   0  0  0  0  0  0  0  0  0  0  0  0
    5.6143   -0.5477   16.4779 C   0  0  0  0  0  0  0  0  0  0  0  0
    4.4157   -1.0782   16.3290 N   0  0  0  0  0  0  0  0  0  0  0  0
    3.8521   -0.4000   15.3224 C   0  0  0  0  0  0  0  0  0  0  0  0
    2.6115    2.1334   12.1178 C   0  0  3  0  0  0  0  0  0  0  0  0
    3.5406    2.6292   11.1800 C   0  0  0  0  0  0  0  0  0  0  0  0
    3.1477    3.4565   10.1243 C   0  0  0  0  0  0  0  0  0  0  0  0
    1.8039    3.8086   10.0214 C   0  0  0  0  0  0  0  0  0  0  0  0
    1.0010    4.6077    9.1343 C   0  0  0  0  0  0  0  0  0  0  0  0
   -0.2411    4.6153    9.5215 N   0  0  0  0  0  0  0  0  0  0  0  0
   -0.3421    3.8665   10.6189 N   0  0  0  0  0  0  0  0  0  0  0  0
    0.8809    3.3298   10.9772 C   0  0  0  0  0  0  0  0  0  0  0  0
    1.2478    2.4836   12.0372 C   0  0  0  0  0  0  0  0  0  0  0  0
   -0.4905   -0.8517   14.2206 C   0  0  0  0  0  0  0  0  0  0  0  0
   -1.8442   -1.1028   14.0951 C   0  0  0  0  0  0  0  0  0  0  0  0
   -3.7890   -2.9450   11.8694 H   0  0  0  0  0  0  0  0  0  0  0  0
   -5.4296   -2.2481   11.6465 H   0  0  0  0  0  0  0  0  0  0  0  0
   -6.2805   -3.9948   13.2677 H   0  0  0  0  0  0  0  0  0  0  0  0
   -5.6682   -4.6240   11.7006 H   0  0  0  0  0  0  0  0  0  0  0  0
   -5.1886   -5.4786   15.1874 H   0  0  0  0  0  0  0  0  0  0  0  0
   -3.4065   -5.2863   15.0700 H   0  0  0  0  0  0  0  0  0  0  0  0
   -5.5525   -3.2588   15.5826 H   0  0  0  0  0  0  0  0  0  0  0  0
   -3.9978   -3.5542   16.4326 H   0  0  0  0  0  0  0  0  0  0  0  0
   -4.0426   -1.0407   13.2114 H   0  0  0  0  0  0  0  0  0  0  0  0
   -5.5889   -1.6576   13.8860 H   0  0  0  0  0  0  0  0  0  0  0  0
   -2.3149   -2.8373   14.0447 H   0  0  0  0  0  0  0  0  0  0  0  0
   -2.1511   -3.6632   16.3065 H   0  0  0  0  0  0  0  0  0  0  0  0
    0.2564   -3.2373   16.5165 H   0  0  0  0  0  0  0  0  0  0  0  0
    5.1278    1.9249   13.2288 H   0  0  0  0  0  0  0  0  0  0  0  0
    6.8317    0.9027   15.2742 H   0  0  0  0  0  0  0  0  0  0  0  0
    6.2933   -0.7976   17.2797 H   0  0  0  0  0  0  0  0  0  0  0  0
    2.4298    1.2540   11.4824 H   0  0  0  0  0  0  0  0  0  0  0  0
    4.5824    2.3628   11.2801 H   0  0  0  0  0  0  0  0  0  0  0  0
    3.8693    3.8145    9.4049 H   0  0  0  0  0  0  0  0  0  0  0  0
    1.3774    5.1292    8.2667 H   0  0  0  0  0  0  0  0  0  0  0  0
    0.5241    2.1207   12.7521 H   0  0  0  0  0  0  0  0  0  0  0  0
   -0.0219   -0.0742   13.6356 H   0  0  0  0  0  0  0  0  0  0  0  0
   -2.4269   -0.5150   13.4014 H   0  0  0  0  0  0  0  0  0  0  0  0
  1  2  1  0  0  0  0
  1  7  1  0  0  0  0
  2  3  1  0  0  0  0
  3  4  1  0  0  0  0
  4  5  1  0  0  0  0
  5  6  1  0  0  0  0
  6  7  1  0  0  0  0
  6  8  1  0  0  0  0
  8  9  1  0  0  0  0
  8 32  1  0  0  0  0
  9 10  2  0  0  0  0
 10 11  1  0  0  0  0
 11 12  2  0  0  0  0
 11 31  1  0  0  0  0
 12 13  1  0  0  0  0
 13 14  2  0  0  0  0
 13 21  1  0  0  0  0
 14 15  1  0  0  0  0
 15 16  2  0  0  0  0
 15 22  1  0  0  0  0
 16 17  1  0  0  0  0
 17 18  1  0  0  0  0
 17 21  1  0  0  0  0
 18 19  2  0  0  0  0
 19 20  1  0  0  0  0
 20 21  2  0  0  0  0
 22 23  1  0  0  0  0
 22 30  1  0  0  0  0
 23 24  2  0  0  0  0
 24 25  1  0  0  0  0
 25 26  2  0  0  0  0
 25 29  1  0  0  0  0
 26 27  1  0  0  0  0
 27 28  2  0  0  0  0
 28 29  1  0  0  0  0
 29 30  2  0  0  0  0
 31 32  2  0  0  0  0
  1 33  1  0  0  0  0
  1 34  1  0  0  0  0
  2 35  1  0  0  0  0
  2 36  1  0  0  0  0
  4 37  1  0  0  0  0
  4 38  1  0  0  0  0
  5 39  1  0  0  0  0
  5 40  1  0  0  0  0
  7 41  1  0  0  0  0
  7 42  1  0  0  0  0
  8 43  1  0  0  0  0
  9 44  1  0  0  0  0
 10 45  1  0  0  0  0
 16 46  1  0  0  0  0
 18 47  1  0  0  0  0
 19 48  1  0  0  0  0
 22 49  1  0  0  0  0
 23 50  1  0  0  0  0
 24 51  1  0  0  0  0
 26 52  1  0  0  0  0
 30 53  1  0  0  0  0
 31 54  1  0  0  0  0
 32 55  1  0  0  0  0
M  END
> <IC50[nM]>
23.1

$$$$
CHEMBL3265036
  -OEChem-05192314333D
 Structure written by MMmdl.
 55 60  0     1  0  0  0  0  0999 V2000
   -4.7688   -2.7849   12.3431 C   0  0  0  0  0  0  0  0  0  0  0  0
   -5.3846   -4.1377   12.6456 C   0  0  0  0  0  0  0  0  0  0  0  0
   -4.4594   -4.9732   13.3425 O   0  0  0  0  0  0  0  0  0  0  0  0
   -4.3771   -4.8619   14.7737 C   0  0  0  0  0  0  0  0  0  0  0  0
   -4.4823   -3.4746   15.4482 C   0  0  0  0  0  0  0  0  0  0  0  0
   -3.8932   -2.3265   14.7696 N   0  0  2  0  0  0  0  0  0  0  0  0
   -4.5743   -1.9363   13.5651 C   0  0  0  0  0  0  0  0  0  0  0  0
   -2.4838   -2.1095   14.8521 C   0  0  0  0  0  0  0  0  0  0  0  0
   -1.6944   -2.8761   15.7249 C   0  0  0  0  0  0  0  0  0  0  0  0
   -0.3386   -2.6335   15.8473 C   0  0  0  0  0  0  0  0  0  0  0  0
    0.2634   -1.6168   15.1140 C   0  0  0  0  0  0  0  0  0  0  0  0
    1.6446   -1.3934   15.3516 N   0  0  0  0  0  0  0  0  0  0  0  0
    2.5467   -0.4494   14.7774 C   0  0  0  0  0  0  0  0  0  0  0  0
    2.1622    0.3813   13.7703 N   0  0  0  0  0  0  0  0  0  0  0  0
    3.0905    1.2361   13.2368 C   0  0  0  0  0  0  0  0  0  0  0  0
    4.3967    1.2828   13.6973 C   0  0  0  0  0  0  0  0  0  0  0  0
    4.7322    0.4976   14.7555 N   0  0  0  0  0  0  0  0  0  0  0  0
    5.8998    0.3887   15.4576 C   0  0  0  0  0  0  0  0  0  0  0  0
    5.6143   -0.5477   16.4779 C   0  0  0  0  0  0  0  0  0  0  0  0
    4.4157   -1.0782   16.3290 N   0  0  0  0  0  0  0  0  0  0  0  0
    3.8521   -0.4000   15.3224 C   0  0  0  0  0  0  0  0  0  0  0  0
    2.6115    2.1334   12.1178 C   0  0  0  0  0  0  0  0  0  0  0  0
    3.5406    2.6292   11.1800 C   0  0  0  0  0  0  0  0  0  0  0  0
    3.1477    3.4565   10.1243 C   0  0  0  0  0  0  0  0  0  0  0  0
    1.8039    3.8086   10.0214 C   0  0  0  0  0  0  0  0  0  0  0  0
    1.0010    4.6077    9.1343 C   0  0  0  0  0  0  0  0  0  0  0  0
   -0.2411    4.6153    9.5215 N   0  0  0  0  0  0  0  0  0  0  0  0
   -0.3421    3.8665   10.6189 N   0  0  0  0  0  0  0  0  0  0  0  0
    0.8809    3.3298   10.9772 C   0  0  3  0  0  0  0  0  0  0  0  0
    1.2478    2.4836   12.0372 C   0  0  0  0  0  0  0  0  0  0  0  0
   -0.4905   -0.8517   14.2206 C   0  0  0  0  0  0  0  0  0  0  0  0
   -1.8442   -1.1028   14.0951 C   0  0  0  0  0  0  0  0  0  0  0  0
   -3.7890   -2.9450   11.8694 H   0  0  0  0  0  0  0  0  0  0  0  0
   -5.4296   -2.2481   11.6465 H   0  0  0  0  0  0  0  0  0  0  0  0
   -6.2805   -3.9948   13.2677 H   0  0  0  0  0  0  0  0  0  0  0  0
   -5.6682   -4.6240   11.7006 H   0  0  0  0  0  0  0  0  0  0  0  0
   -5.1886   -5.4786   15.1874 H   0  0  0  0  0  0  0  0  0  0  0  0
   -3.4065   -5.2863   15.0700 H   0  0  0  0  0  0  0  0  0  0  0  0
   -5.5525   -3.2588   15.5826 H   0  0  0  0  0  0  0  0  0  0  0  0
   -3.9978   -3.5542   16.4326 H   0  0  0  0  0  0  0  0  0  0  0  0
   -4.0426   -1.0407   13.2114 H   0  0  0  0  0  0  0  0  0  0  0  0
   -5.5889   -1.6576   13.8860 H   0  0  0  0  0  0  0  0  0  0  0  0
   -2.3149   -2.8373   14.0447 H   0  0  0  0  0  0  0  0  0  0  0  0
   -2.1511   -3.6632   16.3065 H   0  0  0  0  0  0  0  0  0  0  0  0
    0.2564   -3.2373   16.5165 H   0  0  0  0  0  0  0  0  0  0  0  0
    5.1278    1.9249   13.2288 H   0  0  0  0  0  0  0  0  0  0  0  0
    6.8317    0.9027   15.2742 H   0  0  0  0  0  0  0  0  0  0  0  0
    6.2933   -0.7976   17.2797 H   0  0  0  0  0  0  0  0  0  0  0  0
    4.5824    2.3628   11.2801 H   0  0  0  0  0  0  0  0  0  0  0  0
    3.8693    3.8145    9.4049 H   0  0  0  0  0  0  0  0  0  0  0  0
    1.3774    5.1292    8.2667 H   0  0  0  0  0  0  0  0  0  0  0  0
    0.6812    2.4520   10.3451 H   0  0  0  0  0  0  0  0  0  0  0  0
    0.5241    2.1207   12.7521 H   0  0  0  0  0  0  0  0  0  0  0  0
   -0.0219   -0.0742   13.6356 H   0  0  0  0  0  0  0  0  0  0  0  0
   -2.4269   -0.5150   13.4014 H   0  0  0  0  0  0  0  0  0  0  0  0
  1  2  1  0  0  0  0
  1  7  1  0  0  0  0
  2  3  1  0  0  0  0
  3  4  1  0  0  0  0
  4  5  1  0  0  0  0
  5  6  1  0  0  0  0
  6  7  1  0  0  0  0
  6  8  1  0  0  0  0
  8  9  1  0  0  0  0
  8 32  1  0  0  0  0
  9 10  2  0  0  0  0
 10 11  1  0  0  0  0
 11 12  2  0  0  0  0
 11 31  1  0  0  0  0
 12 13  1  0  0  0  0
 13 14  2  0  0  0  0
 13 21  1  0  0  0  0
 14 15  1  0  0  0  0
 15 16  2  0  0  0  0
 15 22  1  0  0  0  0
 16 17  1  0  0  0  0
 17 18  1  0  0  0  0
 17 21  1  0  0  0  0
 18 19  2  0  0  0  0
 19 20  1  0  0  0  0
 20 21  2  0  0  0  0
 22 23  1  0  0  0  0
 22 30  2  0  0  0  0
 23 24  2  0  0  0  0
 24 25  1  0  0  0  0
 25 26  2  0  0  0  0
 25 29  1  0  0  0  0
 26 27  1  0  0  0  0
 27 28  2  0  0  0  0
 28 29  1  0  0  0  0
 29 30  1  0  0  0  0
 31 32  2  0  0  0  0
  1 33  1  0  0  0  0
  1 34  1  0  0  0  0
  2 35  1  0  0  0  0
  2 36  1  0  0  0  0
  4 37  1  0  0  0  0
  4 38  1  0  0  0  0
  5 39  1  0  0  0  0
  5 40  1  0  0  0  0
  7 41  1  0  0  0  0
  7 42  1  0  0  0  0
  8 43  1  0  0  0  0
  9 44  1  0  0  0  0
 10 45  1  0  0  0  0
 16 46  1  0  0  0  0
 18 47  1  0  0  0  0
 19 48  1  0  0  0  0
 23 49  1  0  0  0  0
 24 50  1  0  0  0  0
 26 51  1  0  0  0  0
 29 52  1  0  0  0  0
 30 53  1  0  0  0  0
 31 54  1  0  0  0  0
 32 55  1  0  0  0  0
M  END
> <IC50[nM]>
23.1

$$$$
CHEMBL3265036
  -OEChem-05192314333D
 Structure written by MMmdl.
 55 60  0     1  0  0  0  0  0999 V2000
   -4.7688   -2.7849   12.3431 C   0  0  0  0  0  0  0  0  0  0  0  0
   -5.3846   -4.1377   12.6456 C   0  0  0  0  0  0  0  0  0  0  0  0
   -4.4594   -4.9732   13.3425 O   0  0  0  0  0  0  0  0  0  0  0  0
   -4.3771   -4.8619   14.7737 C   0  0  0  0  0  0  0  0  0  0  0  0
   -4.4823   -3.4746   15.4482 C   0  0  0  0  0  0  0  0  0  0  0  0
   -3.8932   -2.3265   14.7696 N   0  0  2  0  0  0  0  0  0  0  0  0
   -4.5743   -1.9363   13.5651 C   0  0  0  0  0  0  0  0  0  0  0  0
   -2.4838   -2.1095   14.8521 C   0  0  0  0  0  0  0  0  0  0  0  0
   -1.6944   -2.8761   15.7249 C   0  0  0  0  0  0  0  0  0  0  0  0
   -0.3386   -2.6335   15.8473 C   0  0  0  0  0  0  0  0  0  0  0  0
    0.2634   -1.6168   15.1140 C   0  0  0  0  0  0  0  0  0  0  0  0
    1.6446   -1.3934   15.3516 N   0  0  0  0  0  0  0  0  0  0  0  0
    2.5467   -0.4494   14.7774 C   0  0  0  0  0  0  0  0  0  0  0  0
    2.1622    0.3813   13.7703 N   0  0  0  0  0  0  0  0  0  0  0  0
    3.0905    1.2361   13.2368 C   0  0  0  0  0  0  0  0  0  0  0  0
    4.3967    1.2828   13.6973 C   0  0  0  0  0  0  0  0  0  0  0  0
    4.7322    0.4976   14.7555 N   0  0  0  0  0  0  0  0  0  0  0  0
    5.8998    0.3887   15.4576 C   0  0  0  0  0  0  0  0  0  0  0  0
    5.6143   -0.5477   16.4779 C   0  0  0  0  0  0  0  0  0  0  0  0
    4.4157   -1.0782   16.3290 N   0  0  0  0  0  0  0  0  0  0  0  0
    3.8521   -0.4000   15.3224 C   0  0  0  0  0  0  0  0  0  0  0  0
    2.6115    2.1334   12.1178 C   0  0  3  0  0  0  0  0  0  0  0  0
    3.5406    2.6292   11.1800 C   0  0  0  0  0  0  0  0  0  0  0  0
    3.1477    3.4565   10.1243 C   0  0  0  0  0  0  0  0  0  0  0  0
    1.8039    3.8086   10.0214 C   0  0  0  0  0  0  0  0  0  0  0  0
    1.0010    4.6077    9.1343 C   0  0  0  0  0  0  0  0  0  0  0  0
   -0.2411    4.6153    9.5215 N   0  0  0  0  0  0  0  0  0  0  0  0
   -0.3421    3.8665   10.6189 N   0  0  0  0  0  0  0  0  0  0  0  0
    0.8809    3.3298   10.9772 C   0  0  0  0  0  0  0  0  0  0  0  0
    1.2478    2.4836   12.0372 C   0  0  0  0  0  0  0  0  0  0  0  0
   -0.4905   -0.8517   14.2206 C   0  0  0  0  0  0  0  0  0  0  0  0
   -1.8442   -1.1028   14.0951 C   0  0  0  0  0  0  0  0  0  0  0  0
   -3.7890   -2.9450   11.8694 H   0  0  0  0  0  0  0  0  0  0  0  0
   -5.4296   -2.2481   11.6465 H   0  0  0  0  0  0  0  0  0  0  0  0
   -6.2805   -3.9948   13.2677 H   0  0  0  0  0  0  0  0  0  0  0  0
   -5.6682   -4.6240   11.7006 H   0  0  0  0  0  0  0  0  0  0  0  0
   -5.1886   -5.4786   15.1874 H   0  0  0  0  0  0  0  0  0  0  0  0
   -3.4065   -5.2863   15.0700 H   0  0  0  0  0  0  0  0  0  0  0  0
   -5.5525   -3.2588   15.5826 H   0  0  0  0  0  0  0  0  0  0  0  0
   -3.9978   -3.5542   16.4326 H   0  0  0  0  0  0  0  0  0  0  0  0
   -4.0426   -1.0407   13.2114 H   0  0  0  0  0  0  0  0  0  0  0  0
   -5.5889   -1.6576   13.8860 H   0  0  0  0  0  0  0  0  0  0  0  0
   -2.1511   -3.6632   16.3065 H   0  0  0  0  0  0  0  0  0  0  0  0
    0.2564   -3.2373   16.5165 H   0  0  0  0  0  0  0  0  0  0  0  0
    5.1278    1.9249   13.2288 H   0  0  0  0  0  0  0  0  0  0  0  0
    6.8317    0.9027   15.2742 H   0  0  0  0  0  0  0  0  0  0  0  0
    6.2933   -0.7976   17.2797 H   0  0  0  0  0  0  0  0  0  0  0  0
    2.4298    1.2540   11.4824 H   0  0  0  0  0  0  0  0  0  0  0  0
    4.5824    2.3628   11.2801 H   0  0  0  0  0  0  0  0  0  0  0  0
    3.8693    3.8145    9.4049 H   0  0  0  0  0  0  0  0  0  0  0  0
    1.3774    5.1292    8.2667 H   0  0  0  0  0  0  0  0  0  0  0  0
    0.5241    2.1207   12.7521 H   0  0  0  0  0  0  0  0  0  0  0  0
   -0.3855    0.1990   14.5288 H   0  0  0  0  0  0  0  0  0  0  0  0
   -0.0444   -0.9880   13.2244 H   0  0  0  0  0  0  0  0  0  0  0  0
   -2.4269   -0.5150   13.4014 H   0  0  0  0  0  0  0  0  0  0  0  0
  1  2  1  0  0  0  0
  1  7  1  0  0  0  0
  2  3  1  0  0  0  0
  3  4  1  0  0  0  0
  4  5  1  0  0  0  0
  5  6  1  0  0  0  0
  6  7  1  0  0  0  0
  6  8  1  0  0  0  0
  8  9  1  0  0  0  0
  8 32  2  0  0  0  0
  9 10  2  0  0  0  0
 10 11  1  0  0  0  0
 11 12  2  0  0  0  0
 11 31  1  0  0  0  0
 12 13  1  0  0  0  0
 13 14  2  0  0  0  0
 13 21  1  0  0  0  0
 14 15  1  0  0  0  0
 15 16  2  0  0  0  0
 15 22  1  0  0  0  0
 16 17  1  0  0  0  0
 17 18  1  0  0  0  0
 17 21  1  0  0  0  0
 18 19  2  0  0  0  0
 19 20  1  0  0  0  0
 20 21  2  0  0  0  0
 22 23  1  0  0  0  0
 22 30  1  0  0  0  0
 23 24  2  0  0  0  0
 24 25  1  0  0  0  0
 25 26  2  0  0  0  0
 25 29  1  0  0  0  0
 26 27  1  0  0  0  0
 27 28  2  0  0  0  0
 28 29  1  0  0  0  0
 29 30  2  0  0  0  0
 31 32  1  0  0  0  0
  1 33  1  0  0  0  0
  1 34  1  0  0  0  0
  2 35  1  0  0  0  0
  2 36  1  0  0  0  0
  4 37  1  0  0  0  0
  4 38  1  0  0  0  0
  5 39  1  0  0  0  0
  5 40  1  0  0  0  0
  7 41  1  0  0  0  0
  7 42  1  0  0  0  0
  9 43  1  0  0  0  0
 10 44  1  0  0  0  0
 16 45  1  0  0  0  0
 18 46  1  0  0  0  0
 19 47  1  0  0  0  0
 22 48  1  0  0  0  0
 23 49  1  0  0  0  0
 24 50  1  0  0  0  0
 26 51  1  0  0  0  0
 30 52  1  0  0  0  0
 31 53  1  0  0  0  0
 31 54  1  0  0  0  0
 32 55  1  0  0  0  0
M  END
> <IC50[nM]>
23.1

$$$$
CHEMBL3265036
  -OEChem-05192314333D
 Structure written by MMmdl.
 55 60  0     1  0  0  0  0  0999 V2000
   -4.7688   -2.7849   12.3431 C   0  0  0  0  0  0  0  0  0  0  0  0
   -5.3846   -4.1377   12.6456 C   0  0  0  0  0  0  0  0  0  0  0  0
   -4.4594   -4.9732   13.3425 O   0  0  0  0  0  0  0  0  0  0  0  0
   -4.3771   -4.8619   14.7737 C   0  0  0  0  0  0  0  0  0  0  0  0
   -4.4823   -3.4746   15.4482 C   0  0  0  0  0  0  0  0  0  0  0  0
   -3.8932   -2.3265   14.7696 N   0  0  2  0  0  0  0  0  0  0  0  0
   -4.5743   -1.9363   13.5651 C   0  0  0  0  0  0  0  0  0  0  0  0
   -2.4838   -2.1095   14.8521 C   0  0  0  0  0  0  0  0  0  0  0  0
   -1.6944   -2.8761   15.7249 C   0  0  0  0  0  0  0  0  0  0  0  0
   -0.3386   -2.6335   15.8473 C   0  0  0  0  0  0  0  0  0  0  0  0
    0.2634   -1.6168   15.1140 C   0  0  0  0  0  0  0  0  0  0  0  0
    1.6446   -1.3934   15.3516 N   0  0  0  0  0  0  0  0  0  0  0  0
    2.5467   -0.4494   14.7774 C   0  0  0  0  0  0  0  0  0  0  0  0
    2.1622    0.3813   13.7703 N   0  0  0  0  0  0  0  0  0  0  0  0
    3.0905    1.2361   13.2368 C   0  0  0  0  0  0  0  0  0  0  0  0
    4.3967    1.2828   13.6973 C   0  0  0  0  0  0  0  0  0  0  0  0
    4.7322    0.4976   14.7555 N   0  0  0  0  0  0  0  0  0  0  0  0
    5.8998    0.3887   15.4576 C   0  0  0  0  0  0  0  0  0  0  0  0
    5.6143   -0.5477   16.4779 C   0  0  0  0  0  0  0  0  0  0  0  0
    4.4157   -1.0782   16.3290 N   0  0  0  0  0  0  0  0  0  0  0  0
    3.8521   -0.4000   15.3224 C   0  0  0  0  0  0  0  0  0  0  0  0
    2.6115    2.1334   12.1178 C   0  0  0  0  0  0  0  0  0  0  0  0
    3.5406    2.6292   11.1800 C   0  0  0  0  0  0  0  0  0  0  0  0
    3.1477    3.4565   10.1243 C   0  0  0  0  0  0  0  0  0  0  0  0
    1.8039    3.8086   10.0214 C   0  0  0  0  0  0  0  0  0  0  0  0
    1.0010    4.6077    9.1343 C   0  0  0  0  0  0  0  0  0  0  0  0
   -0.2411    4.6153    9.5215 N   0  0  0  0  0  0  0  0  0  0  0  0
   -0.3421    3.8665   10.6189 N   0  0  0  0  0  0  0  0  0  0  0  0
    0.8809    3.3298   10.9772 C   0  0  3  0  0  0  0  0  0  0  0  0
    1.2478    2.4836   12.0372 C   0  0  0  0  0  0  0  0  0  0  0  0
   -0.4905   -0.8517   14.2206 C   0  0  0  0  0  0  0  0  0  0  0  0
   -1.8442   -1.1028   14.0951 C   0  0  0  0  0  0  0  0  0  0  0  0
   -3.7890   -2.9450   11.8694 H   0  0  0  0  0  0  0  0  0  0  0  0
   -5.4296   -2.2481   11.6465 H   0  0  0  0  0  0  0  0  0  0  0  0
   -6.2805   -3.9948   13.2677 H   0  0  0  0  0  0  0  0  0  0  0  0
   -5.6682   -4.6240   11.7006 H   0  0  0  0  0  0  0  0  0  0  0  0
   -5.1886   -5.4786   15.1874 H   0  0  0  0  0  0  0  0  0  0  0  0
   -3.4065   -5.2863   15.0700 H   0  0  0  0  0  0  0  0  0  0  0  0
   -5.5525   -3.2588   15.5826 H   0  0  0  0  0  0  0  0  0  0  0  0
   -3.9978   -3.5542   16.4326 H   0  0  0  0  0  0  0  0  0  0  0  0
   -4.0426   -1.0407   13.2114 H   0  0  0  0  0  0  0  0  0  0  0  0
   -5.5889   -1.6576   13.8860 H   0  0  0  0  0  0  0  0  0  0  0  0
   -2.1511   -3.6632   16.3065 H   0  0  0  0  0  0  0  0  0  0  0  0
    0.2564   -3.2373   16.5165 H   0  0  0  0  0  0  0  0  0  0  0  0
    5.1278    1.9249   13.2288 H   0  0  0  0  0  0  0  0  0  0  0  0
    6.8317    0.9027   15.2742 H   0  0  0  0  0  0  0  0  0  0  0  0
    6.2933   -0.7976   17.2797 H   0  0  0  0  0  0  0  0  0  0  0  0
    4.5824    2.3628   11.2801 H   0  0  0  0  0  0  0  0  0  0  0  0
    3.8693    3.8145    9.4049 H   0  0  0  0  0  0  0  0  0  0  0  0
    1.3774    5.1292    8.2667 H   0  0  0  0  0  0  0  0  0  0  0  0
    0.6812    2.4520   10.3451 H   0  0  0  0  0  0  0  0  0  0  0  0
    0.5241    2.1207   12.7521 H   0  0  0  0  0  0  0  0  0  0  0  0
   -0.3855    0.1990   14.5288 H   0  0  0  0  0  0  0  0  0  0  0  0
   -0.0444   -0.9880   13.2244 H   0  0  0  0  0  0  0  0  0  0  0  0
   -2.4269   -0.5150   13.4014 H   0  0  0  0  0  0  0  0  0  0  0  0
  1  2  1  0  0  0  0
  1  7  1  0  0  0  0
  2  3  1  0  0  0  0
  3  4  1  0  0  0  0
  4  5  1  0  0  0  0
  5  6  1  0  0  0  0
  6  7  1  0  0  0  0
  6  8  1  0  0  0  0
  8  9  1  0  0  0  0
  8 32  2  0  0  0  0
  9 10  2  0  0  0  0
 10 11  1  0  0  0  0
 11 12  2  0  0  0  0
 11 31  1  0  0  0  0
 12 13  1  0  0  0  0
 13 14  2  0  0  0  0
 13 21  1  0  0  0  0
 14 15  1  0  0  0  0
 15 16  2  0  0  0  0
 15 22  1  0  0  0  0
 16 17  1  0  0  0  0
 17 18  1  0  0  0  0
 17 21  1  0  0  0  0
 18 19  2  0  0  0  0
 19 20  1  0  0  0  0
 20 21  2  0  0  0  0
 22 23  1  0  0  0  0
 22 30  2  0  0  0  0
 23 24  2  0  0  0  0
 24 25  1  0  0  0  0
 25 26  2  0  0  0  0
 25 29  1  0  0  0  0
 26 27  1  0  0  0  0
 27 28  2  0  0  0  0
 28 29  1  0  0  0  0
 29 30  1  0  0  0  0
 31 32  1  0  0  0  0
  1 33  1  0  0  0  0
  1 34  1  0  0  0  0
  2 35  1  0  0  0  0
  2 36  1  0  0  0  0
  4 37  1  0  0  0  0
  4 38  1  0  0  0  0
  5 39  1  0  0  0  0
  5 40  1  0  0  0  0
  7 41  1  0  0  0  0
  7 42  1  0  0  0  0
  9 43  1  0  0  0  0
 10 44  1  0  0  0  0
 16 45  1  0  0  0  0
 18 46  1  0  0  0  0
 19 47  1  0  0  0  0
 23 48  1  0  0  0  0
 24 49  1  0  0  0  0
 26 50  1  0  0  0  0
 29 51  1  0  0  0  0
 30 52  1  0  0  0  0
 31 53  1  0  0  0  0
 31 54  1  0  0  0  0
 32 55  1  0  0  0  0
M  END
> <IC50[nM]>
23.1

$$$$
CHEMBL3265036
  -OEChem-05192314333D
 Structure written by MMmdl.
 55 60  0     1  0  0  0  0  0999 V2000
   -4.7688   -2.7849   12.3431 C   0  0  0  0  0  0  0  0  0  0  0  0
   -5.3846   -4.1377   12.6456 C   0  0  0  0  0  0  0  0  0  0  0  0
   -4.4594   -4.9732   13.3425 O   0  0  0  0  0  0  0  0  0  0  0  0
   -4.3771   -4.8619   14.7737 C   0  0  0  0  0  0  0  0  0  0  0  0
   -4.4823   -3.4746   15.4482 C   0  0  0  0  0  0  0  0  0  0  0  0
   -3.8932   -2.3265   14.7696 N   0  0  2  0  0  0  0  0  0  0  0  0
   -4.5743   -1.9363   13.5651 C   0  0  0  0  0  0  0  0  0  0  0  0
   -2.4838   -2.1095   14.8521 C   0  0  0  0  0  0  0  0  0  0  0  0
   -1.6944   -2.8761   15.7249 C   0  0  0  0  0  0  0  0  0  0  0  0
   -0.3386   -2.6335   15.8473 C   0  0  0  0  0  0  0  0  0  0  0  0
    0.2634   -1.6168   15.1140 C   0  0  0  0  0  0  0  0  0  0  0  0
    1.6446   -1.3934   15.3516 N   0  0  0  0  0  0  0  0  0  0  0  0
    2.5467   -0.4494   14.7774 C   0  0  0  0  0  0  0  0  0  0  0  0
    2.1622    0.3813   13.7703 N   0  0  0  0  0  0  0  0  0  0  0  0
    3.0905    1.2361   13.2368 C   0  0  0  0  0  0  0  0  0  0  0  0
    4.3967    1.2828   13.6973 C   0  0  0  0  0  0  0  0  0  0  0  0
    4.7322    0.4976   14.7555 N   0  0  0  0  0  0  0  0  0  0  0  0
    5.8998    0.3887   15.4576 C   0  0  0  0  0  0  0  0  0  0  0  0
    5.6143   -0.5477   16.4779 C   0  0  0  0  0  0  0  0  0  0  0  0
    4.4157   -1.0782   16.3290 N   0  0  0  0  0  0  0  0  0  0  0  0
    3.8521   -0.4000   15.3224 C   0  0  0  0  0  0  0  0  0  0  0  0
    2.6115    2.1334   12.1178 C   0  0  0  0  0  0  0  0  0  0  0  0
    3.5406    2.6292   11.1800 C   0  0  0  0  0  0  0  0  0  0  0  0
    3.1477    3.4565   10.1243 C   0  0  0  0  0  0  0  0  0  0  0  0
    1.8039    3.8086   10.0214 C   0  0  0  0  0  0  0  0  0  0  0  0
    1.0010    4.6077    9.1343 C   0  0  0  0  0  0  0  0  0  0  0  0
   -0.2411    4.6153    9.5215 N   0  0  0  0  0  0  0  0  0  0  0  0
   -0.3421    3.8665   10.6189 N   0  0  0  0  0  0  0  0  0  0  0  0
    0.8809    3.3298   10.9772 C   0  0  0  0  0  0  0  0  0  0  0  0
    1.2478    2.4836   12.0372 C   0  0  0  0  0  0  0  0  0  0  0  0
   -0.4905   -0.8517   14.2206 C   0  0  0  0  0  0  0  0  0  0  0  0
   -1.8442   -1.1028   14.0951 C   0  0  0  0  0  0  0  0  0  0  0  0
   -3.7890   -2.9450   11.8694 H   0  0  0  0  0  0  0  0  0  0  0  0
   -5.4296   -2.2481   11.6465 H   0  0  0  0  0  0  0  0  0  0  0  0
   -6.2805   -3.9948   13.2677 H   0  0  0  0  0  0  0  0  0  0  0  0
   -5.6682   -4.6240   11.7006 H   0  0  0  0  0  0  0  0  0  0  0  0
   -5.1886   -5.4786   15.1874 H   0  0  0  0  0  0  0  0  0  0  0  0
   -3.4065   -5.2863   15.0700 H   0  0  0  0  0  0  0  0  0  0  0  0
   -5.5525   -3.2588   15.5826 H   0  0  0  0  0  0  0  0  0  0  0  0
   -3.9978   -3.5542   16.4326 H   0  0  0  0  0  0  0  0  0  0  0  0
   -4.0426   -1.0407   13.2114 H   0  0  0  0  0  0  0  0  0  0  0  0
   -5.5889   -1.6576   13.8860 H   0  0  0  0  0  0  0  0  0  0  0  0
   -2.3149   -2.8373   14.0447 H   0  0  0  0  0  0  0  0  0  0  0  0
   -2.1511   -3.6632   16.3065 H   0  0  0  0  0  0  0  0  0  0  0  0
    0.2564   -3.2373   16.5165 H   0  0  0  0  0  0  0  0  0  0  0  0
    5.1278    1.9249   13.2288 H   0  0  0  0  0  0  0  0  0  0  0  0
    6.8317    0.9027   15.2742 H   0  0  0  0  0  0  0  0  0  0  0  0
    6.2933   -0.7976   17.2797 H   0  0  0  0  0  0  0  0  0  0  0  0
    4.5824    2.3628   11.2801 H   0  0  0  0  0  0  0  0  0  0  0  0
    3.7224    4.3903   10.2121 H   0  0  0  0  0  0  0  0  0  0  0  0
    3.4216    2.9438    9.1905 H   0  0  0  0  0  0  0  0  0  0  0  0
    1.3774    5.1292    8.2667 H   0  0  0  0  0  0  0  0  0  0  0  0
    0.5241    2.1207   12.7521 H   0  0  0  0  0  0  0  0  0  0  0  0
   -0.0219   -0.0742   13.6356 H   0  0  0  0  0  0  0  0  0  0  0  0
   -2.4269   -0.5150   13.4014 H   0  0  0  0  0  0  0  0  0  0  0  0
  1  2  1  0  0  0  0
  1  7  1  0  0  0  0
  2  3  1  0  0  0  0
  3  4  1  0  0  0  0
  4  5  1  0  0  0  0
  5  6  1  0  0  0  0
  6  7  1  0  0  0  0
  6  8  1  0  0  0  0
  8  9  1  0  0  0  0
  8 32  1  0  0  0  0
  9 10  2  0  0  0  0
 10 11  1  0  0  0  0
 11 12  2  0  0  0  0
 11 31  1  0  0  0  0
 12 13  1  0  0  0  0
 13 14  2  0  0  0  0
 13 21  1  0  0  0  0
 14 15  1  0  0  0  0
 15 16  2  0  0  0  0
 15 22  1  0  0  0  0
 16 17  1  0  0  0  0
 17 18  1  0  0  0  0
 17 21  1  0  0  0  0
 18 19  2  0  0  0  0
 19 20  1  0  0  0  0
 20 21  2  0  0  0  0
 22 23  2  0  0  0  0
 22 30  1  0  0  0  0
 23 24  1  0  0  0  0
 24 25  1  0  0  0  0
 25 26  2  0  0  0  0
 25 29  1  0  0  0  0
 26 27  1  0  0  0  0
 27 28  2  0  0  0  0
 28 29  1  0  0  0  0
 29 30  2  0  0  0  0
 31 32  2  0  0  0  0
  1 33  1  0  0  0  0
  1 34  1  0  0  0  0
  2 35  1  0  0  0  0
  2 36  1  0  0  0  0
  4 37  1  0  0  0  0
  4 38  1  0  0  0  0
  5 39  1  0  0  0  0
  5 40  1  0  0  0  0
  7 41  1  0  0  0  0
  7 42  1  0  0  0  0
  8 43  1  0  0  0  0
  9 44  1  0  0  0  0
 10 45  1  0  0  0  0
 16 46  1  0  0  0  0
 18 47  1  0  0  0  0
 19 48  1  0  0  0  0
 23 49  1  0  0  0  0
 24 50  1  0  0  0  0
 24 51  1  0  0  0  0
 26 52  1  0  0  0  0
 30 53  1  0  0  0  0
 31 54  1  0  0  0  0
 32 55  1  0  0  0  0
M  END
> <IC50[nM]>
23.1

$$$$
CHEMBL3265036
  -OEChem-05192314333D
 Structure written by MMmdl.
 55 60  0     1  0  0  0  0  0999 V2000
   -4.7688   -2.7849   12.3431 C   0  0  0  0  0  0  0  0  0  0  0  0
   -5.3846   -4.1377   12.6456 C   0  0  0  0  0  0  0  0  0  0  0  0
   -4.4594   -4.9732   13.3425 O   0  0  0  0  0  0  0  0  0  0  0  0
   -4.3771   -4.8619   14.7737 C   0  0  0  0  0  0  0  0  0  0  0  0
   -4.4823   -3.4746   15.4482 C   0  0  0  0  0  0  0  0  0  0  0  0
   -3.8932   -2.3265   14.7696 N   0  0  2  0  0  0  0  0  0  0  0  0
   -4.5743   -1.9363   13.5651 C   0  0  0  0  0  0  0  0  0  0  0  0
   -2.4838   -2.1095   14.8521 C   0  0  0  0  0  0  0  0  0  0  0  0
   -1.6944   -2.8761   15.7249 C   0  0  0  0  0  0  0  0  0  0  0  0
   -0.3386   -2.6335   15.8473 C   0  0  0  0  0  0  0  0  0  0  0  0
    0.2634   -1.6168   15.1140 C   0  0  0  0  0  0  0  0  0  0  0  0
    1.6446   -1.3934   15.3516 N   0  0  0  0  0  0  0  0  0  0  0  0
    2.5467   -0.4494   14.7774 C   0  0  0  0  0  0  0  0  0  0  0  0
    2.1622    0.3813   13.7703 N   0  0  0  0  0  0  0  0  0  0  0  0
    3.0905    1.2361   13.2368 C   0  0  0  0  0  0  0  0  0  0  0  0
    4.3967    1.2828   13.6973 C   0  0  0  0  0  0  0  0  0  0  0  0
    4.7322    0.4976   14.7555 N   0  0  0  0  0  0  0  0  0  0  0  0
    5.8998    0.3887   15.4576 C   0  0  0  0  0  0  0  0  0  0  0  0
    5.6143   -0.5477   16.4779 C   0  0  0  0  0  0  0  0  0  0  0  0
    4.4157   -1.0782   16.3290 N   0  0  0  0  0  0  0  0  0  0  0  0
    3.8521   -0.4000   15.3224 C   0  0  0  0  0  0  0  0  0  0  0  0
    2.6115    2.1334   12.1178 C   0  0  0  0  0  0  0  0  0  0  0  0
    3.5406    2.6292   11.1800 C   0  0  0  0  0  0  0  0  0  0  0  0
    3.1477    3.4565   10.1243 C   0  0  0  0  0  0  0  0  0  0  0  0
    1.8039    3.8086   10.0214 C   0  0  0  0  0  0  0  0  0  0  0  0
    1.0010    4.6077    9.1343 C   0  0  0  0  0  0  0  0  0  0  0  0
   -0.2411    4.6153    9.5215 N   0  0  0  0  0  0  0  0  0  0  0  0
   -0.3421    3.8665   10.6189 N   0  0  0  0  0  0  0  0  0  0  0  0
    0.8809    3.3298   10.9772 C   0  0  0  0  0  0  0  0  0  0  0  0
    1.2478    2.4836   12.0372 C   0  0  0  0  0  0  0  0  0  0  0  0
   -0.4905   -0.8517   14.2206 C   0  0  0  0  0  0  0  0  0  0  0  0
   -1.8442   -1.1028   14.0951 C   0  0  0  0  0  0  0  0  0  0  0  0
   -3.7890   -2.9450   11.8694 H   0  0  0  0  0  0  0  0  0  0  0  0
   -5.4296   -2.2481   11.6465 H   0  0  0  0  0  0  0  0  0  0  0  0
   -6.2805   -3.9948   13.2677 H   0  0  0  0  0  0  0  0  0  0  0  0
   -5.6682   -4.6240   11.7006 H   0  0  0  0  0  0  0  0  0  0  0  0
   -5.1886   -5.4786   15.1874 H   0  0  0  0  0  0  0  0  0  0  0  0
   -3.4065   -5.2863   15.0700 H   0  0  0  0  0  0  0  0  0  0  0  0
   -5.5525   -3.2588   15.5826 H   0  0  0  0  0  0  0  0  0  0  0  0
   -3.9978   -3.5542   16.4326 H   0  0  0  0  0  0  0  0  0  0  0  0
   -4.0426   -1.0407   13.2114 H   0  0  0  0  0  0  0  0  0  0  0  0
   -5.5889   -1.6576   13.8860 H   0  0  0  0  0  0  0  0  0  0  0  0
   -2.1511   -3.6632   16.3065 H   0  0  0  0  0  0  0  0  0  0  0  0
    0.2564   -3.2373   16.5165 H   0  0  0  0  0  0  0  0  0  0  0  0
    5.1278    1.9249   13.2288 H   0  0  0  0  0  0  0  0  0  0  0  0
    6.8317    0.9027   15.2742 H   0  0  0  0  0  0  0  0  0  0  0  0
    6.2933   -0.7976   17.2797 H   0  0  0  0  0  0  0  0  0  0  0  0
    4.5824    2.3628   11.2801 H   0  0  0  0  0  0  0  0  0  0  0  0
    3.7224    4.3903   10.2121 H   0  0  0  0  0  0  0  0  0  0  0  0
    3.4216    2.9438    9.1905 H   0  0  0  0  0  0  0  0  0  0  0  0
    1.3774    5.1292    8.2667 H   0  0  0  0  0  0  0  0  0  0  0  0
    0.5241    2.1207   12.7521 H   0  0  0  0  0  0  0  0  0  0  0  0
   -0.3855    0.1990   14.5288 H   0  0  0  0  0  0  0  0  0  0  0  0
   -0.0444   -0.9880   13.2244 H   0  0  0  0  0  0  0  0  0  0  0  0
   -2.4269   -0.5150   13.4014 H   0  0  0  0  0  0  0  0  0  0  0  0
  1  2  1  0  0  0  0
  1  7  1  0  0  0  0
  2  3  1  0  0  0  0
  3  4  1  0  0  0  0
  4  5  1  0  0  0  0
  5  6  1  0  0  0  0
  6  7  1  0  0  0  0
  6  8  1  0  0  0  0
  8  9  1  0  0  0  0
  8 32  2  0  0  0  0
  9 10  2  0  0  0  0
 10 11  1  0  0  0  0
 11 12  2  0  0  0  0
 11 31  1  0  0  0  0
 12 13  1  0  0  0  0
 13 14  2  0  0  0  0
 13 21  1  0  0  0  0
 14 15  1  0  0  0  0
 15 16  2  0  0  0  0
 15 22  1  0  0  0  0
 16 17  1  0  0  0  0
 17 18  1  0  0  0  0
 17 21  1  0  0  0  0
 18 19  2  0  0  0  0
 19 20  1  0  0  0  0
 20 21  2  0  0  0  0
 22 23  2  0  0  0  0
 22 30  1  0  0  0  0
 23 24  1  0  0  0  0
 24 25  1  0  0  0  0
 25 26  2  0  0  0  0
 25 29  1  0  0  0  0
 26 27  1  0  0  0  0
 27 28  2  0  0  0  0
 28 29  1  0  0  0  0
 29 30  2  0  0  0  0
 31 32  1  0  0  0  0
  1 33  1  0  0  0  0
  1 34  1  0  0  0  0
  2 35  1  0  0  0  0
  2 36  1  0  0  0  0
  4 37  1  0  0  0  0
  4 38  1  0  0  0  0
  5 39  1  0  0  0  0
  5 40  1  0  0  0  0
  7 41  1  0  0  0  0
  7 42  1  0  0  0  0
  9 43  1  0  0  0  0
 10 44  1  0  0  0  0
 16 45  1  0  0  0  0
 18 46  1  0  0  0  0
 19 47  1  0  0  0  0
 23 48  1  0  0  0  0
 24 49  1  0  0  0  0
 24 50  1  0  0  0  0
 26 51  1  0  0  0  0
 30 52  1  0  0  0  0
 31 53  1  0  0  0  0
 31 54  1  0  0  0  0
 32 55  1  0  0  0  0
M  END
> <IC50[nM]>
23.1

$$$$
