CHEMBL3265026
  -OEChem-05192314333D
 Structure written by MMmdl.
 51 55  0     0  0  0  0  0  0999 V2000
   -4.2568   -3.1047   13.5691 C   0  0  0  0  0  0  0  0  0  0  0  0
   -3.8735   -2.3611   14.7159 O   0  0  0  0  0  0  0  0  0  0  0  0
   -2.5255   -2.1111   14.8166 C   0  0  0  0  0  0  0  0  0  0  0  0
   -1.7467   -2.8699   15.6815 C   0  0  0  0  0  0  0  0  0  0  0  0
   -0.3906   -2.6103   15.8137 C   0  0  0  0  0  0  0  0  0  0  0  0
    0.2208   -1.5857   15.0868 C   0  0  0  0  0  0  0  0  0  0  0  0
    1.6032   -1.3595   15.3238 N   0  0  0  0  0  0  0  0  0  0  0  0
    2.5348   -0.4457   14.7641 C   0  0  0  0  0  0  0  0  0  0  0  0
    2.1779    0.3778   13.7292 N   0  0  0  0  0  0  0  0  0  0  0  0
    3.1185    1.2359   13.2212 C   0  0  0  0  0  0  0  0  0  0  0  0
    4.4181    1.2809   13.7047 C   0  0  0  0  0  0  0  0  0  0  0  0
    4.7461    0.4870   14.7618 N   0  0  0  0  0  0  0  0  0  0  0  0
    5.8981    0.3788   15.4858 C   0  0  0  0  0  0  0  0  0  0  0  0
    5.5910   -0.5280   16.5270 C   0  0  0  0  0  0  0  0  0  0  0  0
    4.3781   -1.0445   16.3723 N   0  0  0  0  0  0  0  0  0  0  0  0
    3.8363   -0.3925   15.3256 C   0  0  0  0  0  0  0  0  0  0  0  0
    2.6611    2.1501   12.1240 C   0  0  0  0  0  0  0  0  0  0  0  0
    3.5712    2.6353   11.1629 C   0  0  0  0  0  0  0  0  0  0  0  0
    3.1347    3.4612   10.1202 C   0  0  0  0  0  0  0  0  0  0  0  0
    1.7926    3.8149   10.0376 C   0  0  0  0  0  0  0  0  0  0  0  0
    1.4009    4.6318    8.9894 O   0  0  0  0  0  0  0  0  0  0  0  0
    0.0085    4.5902    8.6762 C   0  0  0  0  0  0  0  0  0  0  0  0
   -0.8186    4.7372    9.9574 C   0  0  0  0  0  0  0  0  0  0  0  0
   -0.4761    3.7058   10.9290 N   0  0  0  0  0  0  0  0  0  0  0  0
    0.8817    3.3521   10.9992 C   0  0  0  0  0  0  0  0  0  0  0  0
    1.3168    2.5380   12.0350 C   0  0  0  0  0  0  0  0  0  0  0  0
   -0.5547   -0.8194   14.1898 C   0  0  0  0  0  0  0  0  0  0  0  0
   -1.9431   -1.0889   14.0597 C   0  0  0  0  0  0  0  0  0  0  0  0
   -2.7507   -0.3535   13.2059 O   0  0  0  0  0  0  0  0  0  0  0  0
   -2.2107    0.5014   12.2156 C   0  0  0  0  0  0  0  0  0  0  0  0
   -5.3466   -3.2539   13.5756 H   0  0  0  0  0  0  0  0  0  0  0  0
   -3.9677   -2.5541   12.6618 H   0  0  0  0  0  0  0  0  0  0  0  0
   -3.7529   -4.0824   13.5809 H   0  0  0  0  0  0  0  0  0  0  0  0
   -2.1996   -3.6660   16.2538 H   0  0  0  0  0  0  0  0  0  0  0  0
    0.2020   -3.2096   16.4891 H   0  0  0  0  0  0  0  0  0  0  0  0
    1.9964   -1.9604   16.0198 H   0  0  0  0  0  0  0  0  0  0  0  0
    5.1531    1.9307   13.2531 H   0  0  0  0  0  0  0  0  0  0  0  0
    6.8389    0.8769   15.3035 H   0  0  0  0  0  0  0  0  0  0  0  0
    6.2571   -0.7689   17.3423 H   0  0  0  0  0  0  0  0  0  0  0  0
    4.6152    2.3673   11.2317 H   0  0  0  0  0  0  0  0  0  0  0  0
    3.8372    3.8219    9.3834 H   0  0  0  0  0  0  0  0  0  0  0  0
   -0.2354    5.4131    7.9882 H   0  0  0  0  0  0  0  0  0  0  0  0
   -0.2290    3.6290    8.1970 H   0  0  0  0  0  0  0  0  0  0  0  0
   -0.6226    5.7253   10.3993 H   0  0  0  0  0  0  0  0  0  0  0  0
   -1.8863    4.6530    9.7065 H   0  0  0  0  0  0  0  0  0  0  0  0
   -0.7543    4.0321   11.8324 H   0  0  0  0  0  0  0  0  0  0  0  0
    0.6125    2.1996   12.7806 H   0  0  0  0  0  0  0  0  0  0  0  0
   -0.0958   -0.0344   13.6071 H   0  0  0  0  0  0  0  0  0  0  0  0
   -3.0291    0.9809   11.6585 H   0  0  0  0  0  0  0  0  0  0  0  0
   -1.5923    1.2740   12.6959 H   0  0  0  0  0  0  0  0  0  0  0  0
   -1.5906   -0.0862   11.5227 H   0  0  0  0  0  0  0  0  0  0  0  0
  1  2  1  0  0  0  0
  2  3  1  0  0  0  0
  3  4  2  0  0  0  0
  3 28  1  0  0  0  0
  4  5  1  0  0  0  0
  5  6  2  0  0  0  0
  6  7  1  0  0  0  0
  6 27  1  0  0  0  0
  7  8  1  0  0  0  0
  8  9  2  0  0  0  0
  8 16  1  0  0  0  0
  9 10  1  0  0  0  0
 10 11  2  0  0  0  0
 10 17  1  0  0  0  0
 11 12  1  0  0  0  0
 12 13  1  0  0  0  0
 12 16  1  0  0  0  0
 13 14  2  0  0  0  0
 14 15  1  0  0  0  0
 15 16  2  0  0  0  0
 17 18  2  0  0  0  0
 17 26  1  0  0  0  0
 18 19  1  0  0  0  0
 19 20  2  0  0  0  0
 20 21  1  0  0  0  0
 20 25  1  0  0  0  0
 21 22  1  0  0  0  0
 22 23  1  0  0  0  0
 23 24  1  0  0  0  0
 24 25  1  0  0  0  0
 25 26  2  0  0  0  0
 27 28  2  0  0  0  0
 28 29  1  0  0  0  0
 29 30  1  0  0  0  0
  1 31  1  0  0  0  0
  1 32  1  0  0  0  0
  1 33  1  0  0  0  0
  4 34  1  0  0  0  0
  5 35  1  0  0  0  0
  7 36  1  0  0  0  0
 11 37  1  0  0  0  0
 13 38  1  0  0  0  0
 14 39  1  0  0  0  0
 18 40  1  0  0  0  0
 19 41  1  0  0  0  0
 22 42  1  0  0  0  0
 22 43  1  0  0  0  0
 23 44  1  0  0  0  0
 23 45  1  0  0  0  0
 24 46  1  0  0  0  0
 26 47  1  0  0  0  0
 27 48  1  0  0  0  0
 30 49  1  0  0  0  0
 30 50  1  0  0  0  0
 30 51  1  0  0  0  0
M  END
> <IC50[nM]>
4.7

$$$$
CHEMBL3265026
  -OEChem-05192314333D
 Structure written by MMmdl.
 51 55  0     0  0  0  0  0  0999 V2000
   -4.2568   -3.1047   13.5691 C   0  0  0  0  0  0  0  0  0  0  0  0
   -3.8735   -2.3611   14.7159 O   0  0  0  0  0  0  0  0  0  0  0  0
   -2.5255   -2.1111   14.8166 C   0  0  0  0  0  0  0  0  0  0  0  0
   -1.7467   -2.8699   15.6815 C   0  0  0  0  0  0  0  0  0  0  0  0
   -0.3906   -2.6103   15.8137 C   0  0  0  0  0  0  0  0  0  0  0  0
    0.2208   -1.5857   15.0868 C   0  0  0  0  0  0  0  0  0  0  0  0
    1.6032   -1.3595   15.3238 N   0  0  0  0  0  0  0  0  0  0  0  0
    2.5348   -0.4457   14.7641 C   0  0  0  0  0  0  0  0  0  0  0  0
    2.1779    0.3778   13.7292 N   0  0  0  0  0  0  0  0  0  0  0  0
    3.1185    1.2359   13.2212 C   0  0  0  0  0  0  0  0  0  0  0  0
    4.4181    1.2809   13.7047 C   0  0  0  0  0  0  0  0  0  0  0  0
    4.7461    0.4870   14.7618 N   0  0  0  0  0  0  0  0  0  0  0  0
    5.8981    0.3788   15.4858 C   0  0  0  0  0  0  0  0  0  0  0  0
    5.5910   -0.5280   16.5270 C   0  0  0  0  0  0  0  0  0  0  0  0
    4.3781   -1.0445   16.3723 N   0  0  0  0  0  0  0  0  0  0  0  0
    3.8363   -0.3925   15.3256 C   0  0  0  0  0  0  0  0  0  0  0  0
    2.6611    2.1501   12.1240 C   0  0  0  0  0  0  0  0  0  0  0  0
    3.5712    2.6353   11.1629 C   0  0  0  0  0  0  0  0  0  0  0  0
    3.1347    3.4612   10.1202 C   0  0  0  0  0  0  0  0  0  0  0  0
    1.7926    3.8149   10.0376 C   0  0  0  0  0  0  0  0  0  0  0  0
    1.4009    4.6318    8.9894 O   0  0  0  0  0  0  0  0  0  0  0  0
    0.0085    4.5902    8.6762 C   0  0  0  0  0  0  0  0  0  0  0  0
   -0.8186    4.7372    9.9574 C   0  0  0  0  0  0  0  0  0  0  0  0
   -0.4761    3.7058   10.9290 N   0  0  0  0  0  0  0  0  0  0  0  0
    0.8817    3.3521   10.9992 C   0  0  0  0  0  0  0  0  0  0  0  0
    1.3168    2.5380   12.0350 C   0  0  0  0  0  0  0  0  0  0  0  0
   -0.5547   -0.8194   14.1898 C   0  0  0  0  0  0  0  0  0  0  0  0
   -1.9431   -1.0889   14.0597 C   0  0  0  0  0  0  0  0  0  0  0  0
   -2.7507   -0.3535   13.2059 O   0  0  0  0  0  0  0  0  0  0  0  0
   -2.2107    0.5014   12.2156 C   0  0  0  0  0  0  0  0  0  0  0  0
   -5.3466   -3.2539   13.5756 H   0  0  0  0  0  0  0  0  0  0  0  0
   -3.9677   -2.5541   12.6618 H   0  0  0  0  0  0  0  0  0  0  0  0
   -3.7529   -4.0824   13.5809 H   0  0  0  0  0  0  0  0  0  0  0  0
   -2.1996   -3.6660   16.2538 H   0  0  0  0  0  0  0  0  0  0  0  0
    0.2020   -3.2096   16.4891 H   0  0  0  0  0  0  0  0  0  0  0  0
    1.2518    0.3535   13.3527 H   0  0  0  0  0  0  0  0  0  0  0  0
    5.1531    1.9307   13.2531 H   0  0  0  0  0  0  0  0  0  0  0  0
    6.8389    0.8769   15.3035 H   0  0  0  0  0  0  0  0  0  0  0  0
    6.2571   -0.7689   17.3423 H   0  0  0  0  0  0  0  0  0  0  0  0
    4.6152    2.3673   11.2317 H   0  0  0  0  0  0  0  0  0  0  0  0
    3.8372    3.8219    9.3834 H   0  0  0  0  0  0  0  0  0  0  0  0
   -0.2354    5.4131    7.9882 H   0  0  0  0  0  0  0  0  0  0  0  0
   -0.2290    3.6290    8.1970 H   0  0  0  0  0  0  0  0  0  0  0  0
   -0.6226    5.7253   10.3993 H   0  0  0  0  0  0  0  0  0  0  0  0
   -1.8863    4.6530    9.7065 H   0  0  0  0  0  0  0  0  0  0  0  0
   -0.7543    4.0321   11.8324 H   0  0  0  0  0  0  0  0  0  0  0  0
    0.6125    2.1996   12.7806 H   0  0  0  0  0  0  0  0  0  0  0  0
   -0.0958   -0.0344   13.6071 H   0  0  0  0  0  0  0  0  0  0  0  0
   -3.0291    0.9809   11.6585 H   0  0  0  0  0  0  0  0  0  0  0  0
   -1.5923    1.2740   12.6959 H   0  0  0  0  0  0  0  0  0  0  0  0
   -1.5906   -0.0862   11.5227 H   0  0  0  0  0  0  0  0  0  0  0  0
  1  2  1  0  0  0  0
  2  3  1  0  0  0  0
  3  4  2  0  0  0  0
  3 28  1  0  0  0  0
  4  5  1  0  0  0  0
  5  6  2  0  0  0  0
  6  7  1  0  0  0  0
  6 27  1  0  0  0  0
  7  8  2  0  0  0  0
  8  9  1  0  0  0  0
  8 16  1  0  0  0  0
  9 10  1  0  0  0  0
 10 11  2  0  0  0  0
 10 17  1  0  0  0  0
 11 12  1  0  0  0  0
 12 13  1  0  0  0  0
 12 16  1  0  0  0  0
 13 14  2  0  0  0  0
 14 15  1  0  0  0  0
 15 16  2  0  0  0  0
 17 18  2  0  0  0  0
 17 26  1  0  0  0  0
 18 19  1  0  0  0  0
 19 20  2  0  0  0  0
 20 21  1  0  0  0  0
 20 25  1  0  0  0  0
 21 22  1  0  0  0  0
 22 23  1  0  0  0  0
 23 24  1  0  0  0  0
 24 25  1  0  0  0  0
 25 26  2  0  0  0  0
 27 28  2  0  0  0  0
 28 29  1  0  0  0  0
 29 30  1  0  0  0  0
  1 31  1  0  0  0  0
  1 32  1  0  0  0  0
  1 33  1  0  0  0  0
  4 34  1  0  0  0  0
  5 35  1  0  0  0  0
  9 36  1  0  0  0  0
 11 37  1  0  0  0  0
 13 38  1  0  0  0  0
 14 39  1  0  0  0  0
 18 40  1  0  0  0  0
 19 41  1  0  0  0  0
 22 42  1  0  0  0  0
 22 43  1  0  0  0  0
 23 44  1  0  0  0  0
 23 45  1  0  0  0  0
 24 46  1  0  0  0  0
 26 47  1  0  0  0  0
 27 48  1  0  0  0  0
 30 49  1  0  0  0  0
 30 50  1  0  0  0  0
 30 51  1  0  0  0  0
M  END
> <IC50[nM]>
4.7

$$$$
CHEMBL3265026
  -OEChem-05192314333D
 Structure written by MMmdl.
 51 55  0     0  0  0  0  0  0999 V2000
   -4.2568   -3.1047   13.5691 C   0  0  0  0  0  0  0  0  0  0  0  0
   -3.8735   -2.3611   14.7159 O   0  0  0  0  0  0  0  0  0  0  0  0
   -2.5255   -2.1111   14.8166 C   0  0  0  0  0  0  0  0  0  0  0  0
   -1.7467   -2.8699   15.6815 C   0  0  0  0  0  0  0  0  0  0  0  0
   -0.3906   -2.6103   15.8137 C   0  0  0  0  0  0  0  0  0  0  0  0
    0.2208   -1.5857   15.0868 C   0  0  0  0  0  0  0  0  0  0  0  0
    1.6032   -1.3595   15.3238 N   0  0  0  0  0  0  0  0  0  0  0  0
    2.5348   -0.4457   14.7641 C   0  0  0  0  0  0  0  0  0  0  0  0
    2.1779    0.3778   13.7292 N   0  0  0  0  0  0  0  0  0  0  0  0
    3.1185    1.2359   13.2212 C   0  0  0  0  0  0  0  0  0  0  0  0
    4.4181    1.2809   13.7047 C   0  0  0  0  0  0  0  0  0  0  0  0
    4.7461    0.4870   14.7618 N   0  0  0  0  0  0  0  0  0  0  0  0
    5.8981    0.3788   15.4858 C   0  0  0  0  0  0  0  0  0  0  0  0
    5.5910   -0.5280   16.5270 C   0  0  0  0  0  0  0  0  0  0  0  0
    4.3781   -1.0445   16.3723 N   0  0  0  0  0  0  0  0  0  0  0  0
    3.8363   -0.3925   15.3256 C   0  0  0  0  0  0  0  0  0  0  0  0
    2.6611    2.1501   12.1240 C   0  0  0  0  0  0  0  0  0  0  0  0
    3.5712    2.6353   11.1629 C   0  0  0  0  0  0  0  0  0  0  0  0
    3.1347    3.4612   10.1202 C   0  0  0  0  0  0  0  0  0  0  0  0
    1.7926    3.8149   10.0376 C   0  0  0  0  0  0  0  0  0  0  0  0
    1.4009    4.6318    8.9894 O   0  0  0  0  0  0  0  0  0  0  0  0
    0.0085    4.5902    8.6762 C   0  0  0  0  0  0  0  0  0  0  0  0
   -0.8186    4.7372    9.9574 C   0  0  0  0  0  0  0  0  0  0  0  0
   -0.4761    3.7058   10.9290 N   0  0  0  0  0  0  0  0  0  0  0  0
    0.8817    3.3521   10.9992 C   0  0  0  0  0  0  0  0  0  0  0  0
    1.3168    2.5380   12.0350 C   0  0  0  0  0  0  0  0  0  0  0  0
   -0.5547   -0.8194   14.1898 C   0  0  0  0  0  0  0  0  0  0  0  0
   -1.9431   -1.0889   14.0597 C   0  0  0  0  0  0  0  0  0  0  0  0
   -2.7507   -0.3535   13.2059 O   0  0  0  0  0  0  0  0  0  0  0  0
   -2.2107    0.5014   12.2156 C   0  0  0  0  0  0  0  0  0  0  0  0
   -5.3466   -3.2539   13.5756 H   0  0  0  0  0  0  0  0  0  0  0  0
   -3.9677   -2.5541   12.6618 H   0  0  0  0  0  0  0  0  0  0  0  0
   -3.7529   -4.0824   13.5809 H   0  0  0  0  0  0  0  0  0  0  0  0
   -2.1996   -3.6660   16.2538 H   0  0  0  0  0  0  0  0  0  0  0  0
    0.2020   -3.2096   16.4891 H   0  0  0  0  0  0  0  0  0  0  0  0
    5.0836    1.0058   12.8732 H   0  0  0  0  0  0  0  0  0  0  0  0
    4.6170    2.3202   14.0051 H   0  0  0  0  0  0  0  0  0  0  0  0
    6.8389    0.8769   15.3035 H   0  0  0  0  0  0  0  0  0  0  0  0
    6.2571   -0.7689   17.3423 H   0  0  0  0  0  0  0  0  0  0  0  0
    4.6152    2.3673   11.2317 H   0  0  0  0  0  0  0  0  0  0  0  0
    3.8372    3.8219    9.3834 H   0  0  0  0  0  0  0  0  0  0  0  0
   -0.2354    5.4131    7.9882 H   0  0  0  0  0  0  0  0  0  0  0  0
   -0.2290    3.6290    8.1970 H   0  0  0  0  0  0  0  0  0  0  0  0
   -0.6226    5.7253   10.3993 H   0  0  0  0  0  0  0  0  0  0  0  0
   -1.8863    4.6530    9.7065 H   0  0  0  0  0  0  0  0  0  0  0  0
   -0.7543    4.0321   11.8324 H   0  0  0  0  0  0  0  0  0  0  0  0
    0.6125    2.1996   12.7806 H   0  0  0  0  0  0  0  0  0  0  0  0
   -0.0958   -0.0344   13.6071 H   0  0  0  0  0  0  0  0  0  0  0  0
   -3.0291    0.9809   11.6585 H   0  0  0  0  0  0  0  0  0  0  0  0
   -1.5923    1.2740   12.6959 H   0  0  0  0  0  0  0  0  0  0  0  0
   -1.5906   -0.0862   11.5227 H   0  0  0  0  0  0  0  0  0  0  0  0
  1  2  1  0  0  0  0
  2  3  1  0  0  0  0
  3  4  2  0  0  0  0
  3 28  1  0  0  0  0
  4  5  1  0  0  0  0
  5  6  2  0  0  0  0
  6  7  1  0  0  0  0
  6 27  1  0  0  0  0
  7  8  2  0  0  0  0
  8  9  1  0  0  0  0
  8 16  1  0  0  0  0
  9 10  2  0  0  0  0
 10 11  1  0  0  0  0
 10 17  1  0  0  0  0
 11 12  1  0  0  0  0
 12 13  1  0  0  0  0
 12 16  1  0  0  0  0
 13 14  2  0  0  0  0
 14 15  1  0  0  0  0
 15 16  2  0  0  0  0
 17 18  2  0  0  0  0
 17 26  1  0  0  0  0
 18 19  1  0  0  0  0
 19 20  2  0  0  0  0
 20 21  1  0  0  0  0
 20 25  1  0  0  0  0
 21 22  1  0  0  0  0
 22 23  1  0  0  0  0
 23 24  1  0  0  0  0
 24 25  1  0  0  0  0
 25 26  2  0  0  0  0
 27 28  2  0  0  0  0
 28 29  1  0  0  0  0
 29 30  1  0  0  0  0
  1 31  1  0  0  0  0
  1 32  1  0  0  0  0
  1 33  1  0  0  0  0
  4 34  1  0  0  0  0
  5 35  1  0  0  0  0
 11 36  1  0  0  0  0
 11 37  1  0  0  0  0
 13 38  1  0  0  0  0
 14 39  1  0  0  0  0
 18 40  1  0  0  0  0
 19 41  1  0  0  0  0
 22 42  1  0  0  0  0
 22 43  1  0  0  0  0
 23 44  1  0  0  0  0
 23 45  1  0  0  0  0
 24 46  1  0  0  0  0
 26 47  1  0  0  0  0
 27 48  1  0  0  0  0
 30 49  1  0  0  0  0
 30 50  1  0  0  0  0
 30 51  1  0  0  0  0
M  END
> <IC50[nM]>
4.7

$$$$
CHEMBL3265026
  -OEChem-05192314333D
 Structure written by MMmdl.
 51 55  0     1  0  0  0  0  0999 V2000
   -4.2568   -3.1047   13.5691 C   0  0  0  0  0  0  0  0  0  0  0  0
   -3.8735   -2.3611   14.7159 O   0  0  0  0  0  0  0  0  0  0  0  0
   -2.5255   -2.1111   14.8166 C   0  0  3  0  0  0  0  0  0  0  0  0
   -1.7467   -2.8699   15.6815 C   0  0  0  0  0  0  0  0  0  0  0  0
   -0.3906   -2.6103   15.8137 C   0  0  0  0  0  0  0  0  0  0  0  0
    0.2208   -1.5857   15.0868 C   0  0  0  0  0  0  0  0  0  0  0  0
    1.6032   -1.3595   15.3238 N   0  0  0  0  0  0  0  0  0  0  0  0
    2.5348   -0.4457   14.7641 C   0  0  0  0  0  0  0  0  0  0  0  0
    2.1779    0.3778   13.7292 N   0  0  0  0  0  0  0  0  0  0  0  0
    3.1185    1.2359   13.2212 C   0  0  0  0  0  0  0  0  0  0  0  0
    4.4181    1.2809   13.7047 C   0  0  0  0  0  0  0  0  0  0  0  0
    4.7461    0.4870   14.7618 N   0  0  0  0  0  0  0  0  0  0  0  0
    5.8981    0.3788   15.4858 C   0  0  0  0  0  0  0  0  0  0  0  0
    5.5910   -0.5280   16.5270 C   0  0  0  0  0  0  0  0  0  0  0  0
    4.3781   -1.0445   16.3723 N   0  0  0  0  0  0  0  0  0  0  0  0
    3.8363   -0.3925   15.3256 C   0  0  0  0  0  0  0  0  0  0  0  0
    2.6611    2.1501   12.1240 C   0  0  0  0  0  0  0  0  0  0  0  0
    3.5712    2.6353   11.1629 C   0  0  0  0  0  0  0  0  0  0  0  0
    3.1347    3.4612   10.1202 C   0  0  0  0  0  0  0  0  0  0  0  0
    1.7926    3.8149   10.0376 C   0  0  0  0  0  0  0  0  0  0  0  0
    1.4009    4.6318    8.9894 O   0  0  0  0  0  0  0  0  0  0  0  0
    0.0085    4.5902    8.6762 C   0  0  0  0  0  0  0  0  0  0  0  0
   -0.8186    4.7372    9.9574 C   0  0  0  0  0  0  0  0  0  0  0  0
   -0.4761    3.7058   10.9290 N   0  0  0  0  0  0  0  0  0  0  0  0
    0.8817    3.3521   10.9992 C   0  0  0  0  0  0  0  0  0  0  0  0
    1.3168    2.5380   12.0350 C   0  0  0  0  0  0  0  0  0  0  0  0
   -0.5547   -0.8194   14.1898 C   0  0  0  0  0  0  0  0  0  0  0  0
   -1.9431   -1.0889   14.0597 C   0  0  0  0  0  0  0  0  0  0  0  0
   -2.7507   -0.3535   13.2059 O   0  0  0  0  0  0  0  0  0  0  0  0
   -2.2107    0.5014   12.2156 C   0  0  0  0  0  0  0  0  0  0  0  0
   -5.3466   -3.2539   13.5756 H   0  0  0  0  0  0  0  0  0  0  0  0
   -3.9677   -2.5541   12.6618 H   0  0  0  0  0  0  0  0  0  0  0  0
   -3.7529   -4.0824   13.5809 H   0  0  0  0  0  0  0  0  0  0  0  0
   -2.3288   -2.8278   14.0057 H   0  0  0  0  0  0  0  0  0  0  0  0
   -2.1996   -3.6660   16.2538 H   0  0  0  0  0  0  0  0  0  0  0  0
    0.2020   -3.2096   16.4891 H   0  0  0  0  0  0  0  0  0  0  0  0
    5.1531    1.9307   13.2531 H   0  0  0  0  0  0  0  0  0  0  0  0
    6.8389    0.8769   15.3035 H   0  0  0  0  0  0  0  0  0  0  0  0
    6.2571   -0.7689   17.3423 H   0  0  0  0  0  0  0  0  0  0  0  0
    4.6152    2.3673   11.2317 H   0  0  0  0  0  0  0  0  0  0  0  0
    3.8372    3.8219    9.3834 H   0  0  0  0  0  0  0  0  0  0  0  0
   -0.2354    5.4131    7.9882 H   0  0  0  0  0  0  0  0  0  0  0  0
   -0.2290    3.6290    8.1970 H   0  0  0  0  0  0  0  0  0  0  0  0
   -0.6226    5.7253   10.3993 H   0  0  0  0  0  0  0  0  0  0  0  0
   -1.8863    4.6530    9.7065 H   0  0  0  0  0  0  0  0  0  0  0  0
   -0.7543    4.0321   11.8324 H   0  0  0  0  0  0  0  0  0  0  0  0
    0.6125    2.1996   12.7806 H   0  0  0  0  0  0  0  0  0  0  0  0
   -0.0958   -0.0344   13.6071 H   0  0  0  0  0  0  0  0  0  0  0  0
   -3.0291    0.9809   11.6585 H   0  0  0  0  0  0  0  0  0  0  0  0
   -1.5923    1.2740   12.6959 H   0  0  0  0  0  0  0  0  0  0  0  0
   -1.5906   -0.0862   11.5227 H   0  0  0  0  0  0  0  0  0  0  0  0
  1  2  1  0  0  0  0
  2  3  1  0  0  0  0
  3  4  1  0  0  0  0
  3 28  1  0  0  0  0
  4  5  2  0  0  0  0
  5  6  1  0  0  0  0
  6  7  2  0  0  0  0
  6 27  1  0  0  0  0
  7  8  1  0  0  0  0
  8  9  2  0  0  0  0
  8 16  1  0  0  0  0
  9 10  1  0  0  0  0
 10 11  2  0  0  0  0
 10 17  1  0  0  0  0
 11 12  1  0  0  0  0
 12 13  1  0  0  0  0
 12 16  1  0  0  0  0
 13 14  2  0  0  0  0
 14 15  1  0  0  0  0
 15 16  2  0  0  0  0
 17 18  2  0  0  0  0
 17 26  1  0  0  0  0
 18 19  1  0  0  0  0
 19 20  2  0  0  0  0
 20 21  1  0  0  0  0
 20 25  1  0  0  0  0
 21 22  1  0  0  0  0
 22 23  1  0  0  0  0
 23 24  1  0  0  0  0
 24 25  1  0  0  0  0
 25 26  2  0  0  0  0
 27 28  2  0  0  0  0
 28 29  1  0  0  0  0
 29 30  1  0  0  0  0
  1 31  1  0  0  0  0
  1 32  1  0  0  0  0
  1 33  1  0  0  0  0
  3 34  1  0  0  0  0
  4 35  1  0  0  0  0
  5 36  1  0  0  0  0
 11 37  1  0  0  0  0
 13 38  1  0  0  0  0
 14 39  1  0  0  0  0
 18 40  1  0  0  0  0
 19 41  1  0  0  0  0
 22 42  1  0  0  0  0
 22 43  1  0  0  0  0
 23 44  1  0  0  0  0
 23 45  1  0  0  0  0
 24 46  1  0  0  0  0
 26 47  1  0  0  0  0
 27 48  1  0  0  0  0
 30 49  1  0  0  0  0
 30 50  1  0  0  0  0
 30 51  1  0  0  0  0
M  END
> <IC50[nM]>
4.7

$$$$
CHEMBL3265026
  -OEChem-05192314333D
 Structure written by MMmdl.
 51 55  0     0  0  0  0  0  0999 V2000
   -4.2568   -3.1047   13.5691 C   0  0  0  0  0  0  0  0  0  0  0  0
   -3.8735   -2.3611   14.7159 O   0  0  0  0  0  0  0  0  0  0  0  0
   -2.5255   -2.1111   14.8166 C   0  0  0  0  0  0  0  0  0  0  0  0
   -1.7467   -2.8699   15.6815 C   0  0  0  0  0  0  0  0  0  0  0  0
   -0.3906   -2.6103   15.8137 C   0  0  0  0  0  0  0  0  0  0  0  0
    0.2208   -1.5857   15.0868 C   0  0  0  0  0  0  0  0  0  0  0  0
    1.6032   -1.3595   15.3238 N   0  0  0  0  0  0  0  0  0  0  0  0
    2.5348   -0.4457   14.7641 C   0  0  0  0  0  0  0  0  0  0  0  0
    2.1779    0.3778   13.7292 N   0  0  0  0  0  0  0  0  0  0  0  0
    3.1185    1.2359   13.2212 C   0  0  0  0  0  0  0  0  0  0  0  0
    4.4181    1.2809   13.7047 C   0  0  0  0  0  0  0  0  0  0  0  0
    4.7461    0.4870   14.7618 N   0  0  0  0  0  0  0  0  0  0  0  0
    5.8981    0.3788   15.4858 C   0  0  0  0  0  0  0  0  0  0  0  0
    5.5910   -0.5280   16.5270 C   0  0  0  0  0  0  0  0  0  0  0  0
    4.3781   -1.0445   16.3723 N   0  0  0  0  0  0  0  0  0  0  0  0
    3.8363   -0.3925   15.3256 C   0  0  0  0  0  0  0  0  0  0  0  0
    2.6611    2.1501   12.1240 C   0  0  0  0  0  0  0  0  0  0  0  0
    3.5712    2.6353   11.1629 C   0  0  0  0  0  0  0  0  0  0  0  0
    3.1347    3.4612   10.1202 C   0  0  0  0  0  0  0  0  0  0  0  0
    1.7926    3.8149   10.0376 C   0  0  0  0  0  0  0  0  0  0  0  0
    1.4009    4.6318    8.9894 O   0  0  0  0  0  0  0  0  0  0  0  0
    0.0085    4.5902    8.6762 C   0  0  0  0  0  0  0  0  0  0  0  0
   -0.8186    4.7372    9.9574 C   0  0  0  0  0  0  0  0  0  0  0  0
   -0.4761    3.7058   10.9290 N   0  0  0  0  0  0  0  0  0  0  0  0
    0.8817    3.3521   10.9992 C   0  0  0  0  0  0  0  0  0  0  0  0
    1.3168    2.5380   12.0350 C   0  0  0  0  0  0  0  0  0  0  0  0
   -0.5547   -0.8194   14.1898 C   0  0  0  0  0  0  0  0  0  0  0  0
   -1.9431   -1.0889   14.0597 C   0  0  0  0  0  0  0  0  0  0  0  0
   -2.7507   -0.3535   13.2059 O   0  0  0  0  0  0  0  0  0  0  0  0
   -2.2107    0.5014   12.2156 C   0  0  0  0  0  0  0  0  0  0  0  0
   -5.3466   -3.2539   13.5756 H   0  0  0  0  0  0  0  0  0  0  0  0
   -3.9677   -2.5541   12.6618 H   0  0  0  0  0  0  0  0  0  0  0  0
   -3.7529   -4.0824   13.5809 H   0  0  0  0  0  0  0  0  0  0  0  0
   -2.1996   -3.6660   16.2538 H   0  0  0  0  0  0  0  0  0  0  0  0
   -0.2175   -2.3858   16.8765 H   0  0  0  0  0  0  0  0  0  0  0  0
    0.1332   -3.5396   15.5452 H   0  0  0  0  0  0  0  0  0  0  0  0
    5.1531    1.9307   13.2531 H   0  0  0  0  0  0  0  0  0  0  0  0
    6.8389    0.8769   15.3035 H   0  0  0  0  0  0  0  0  0  0  0  0
    6.2571   -0.7689   17.3423 H   0  0  0  0  0  0  0  0  0  0  0  0
    4.6152    2.3673   11.2317 H   0  0  0  0  0  0  0  0  0  0  0  0
    3.8372    3.8219    9.3834 H   0  0  0  0  0  0  0  0  0  0  0  0
   -0.2354    5.4131    7.9882 H   0  0  0  0  0  0  0  0  0  0  0  0
   -0.2290    3.6290    8.1970 H   0  0  0  0  0  0  0  0  0  0  0  0
   -0.6226    5.7253   10.3993 H   0  0  0  0  0  0  0  0  0  0  0  0
   -1.8863    4.6530    9.7065 H   0  0  0  0  0  0  0  0  0  0  0  0
   -0.7543    4.0321   11.8324 H   0  0  0  0  0  0  0  0  0  0  0  0
    0.6125    2.1996   12.7806 H   0  0  0  0  0  0  0  0  0  0  0  0
   -0.0958   -0.0344   13.6071 H   0  0  0  0  0  0  0  0  0  0  0  0
   -3.0291    0.9809   11.6585 H   0  0  0  0  0  0  0  0  0  0  0  0
   -1.5923    1.2740   12.6959 H   0  0  0  0  0  0  0  0  0  0  0  0
   -1.5906   -0.0862   11.5227 H   0  0  0  0  0  0  0  0  0  0  0  0
  1  2  1  0  0  0  0
  2  3  1  0  0  0  0
  3  4  2  0  0  0  0
  3 28  1  0  0  0  0
  4  5  1  0  0  0  0
  5  6  1  0  0  0  0
  6  7  2  0  0  0  0
  6 27  1  0  0  0  0
  7  8  1  0  0  0  0
  8  9  2  0  0  0  0
  8 16  1  0  0  0  0
  9 10  1  0  0  0  0
 10 11  2  0  0  0  0
 10 17  1  0  0  0  0
 11 12  1  0  0  0  0
 12 13  1  0  0  0  0
 12 16  1  0  0  0  0
 13 14  2  0  0  0  0
 14 15  1  0  0  0  0
 15 16  2  0  0  0  0
 17 18  2  0  0  0  0
 17 26  1  0  0  0  0
 18 19  1  0  0  0  0
 19 20  2  0  0  0  0
 20 21  1  0  0  0  0
 20 25  1  0  0  0  0
 21 22  1  0  0  0  0
 22 23  1  0  0  0  0
 23 24  1  0  0  0  0
 24 25  1  0  0  0  0
 25 26  2  0  0  0  0
 27 28  2  0  0  0  0
 28 29  1  0  0  0  0
 29 30  1  0  0  0  0
  1 31  1  0  0  0  0
  1 32  1  0  0  0  0
  1 33  1  0  0  0  0
  4 34  1  0  0  0  0
  5 35  1  0  0  0  0
  5 36  1  0  0  0  0
 11 37  1  0  0  0  0
 13 38  1  0  0  0  0
 14 39  1  0  0  0  0
 18 40  1  0  0  0  0
 19 41  1  0  0  0  0
 22 42  1  0  0  0  0
 22 43  1  0  0  0  0
 23 44  1  0  0  0  0
 23 45  1  0  0  0  0
 24 46  1  0  0  0  0
 26 47  1  0  0  0  0
 27 48  1  0  0  0  0
 30 49  1  0  0  0  0
 30 50  1  0  0  0  0
 30 51  1  0  0  0  0
M  END
> <IC50[nM]>
4.7

$$$$
CHEMBL3265026
  -OEChem-05192314333D
 Structure written by MMmdl.
 51 55  0     0  0  0  0  0  0999 V2000
   -4.2568   -3.1047   13.5691 C   0  0  0  0  0  0  0  0  0  0  0  0
   -3.8735   -2.3611   14.7159 O   0  0  0  0  0  0  0  0  0  0  0  0
   -2.5255   -2.1111   14.8166 C   0  0  0  0  0  0  0  0  0  0  0  0
   -1.7467   -2.8699   15.6815 C   0  0  0  0  0  0  0  0  0  0  0  0
   -0.3906   -2.6103   15.8137 C   0  0  0  0  0  0  0  0  0  0  0  0
    0.2208   -1.5857   15.0868 C   0  0  0  0  0  0  0  0  0  0  0  0
    1.6032   -1.3595   15.3238 N   0  0  0  0  0  0  0  0  0  0  0  0
    2.5348   -0.4457   14.7641 C   0  0  0  0  0  0  0  0  0  0  0  0
    2.1779    0.3778   13.7292 N   0  0  0  0  0  0  0  0  0  0  0  0
    3.1185    1.2359   13.2212 C   0  0  0  0  0  0  0  0  0  0  0  0
    4.4181    1.2809   13.7047 C   0  0  0  0  0  0  0  0  0  0  0  0
    4.7461    0.4870   14.7618 N   0  0  0  0  0  0  0  0  0  0  0  0
    5.8981    0.3788   15.4858 C   0  0  0  0  0  0  0  0  0  0  0  0
    5.5910   -0.5280   16.5270 C   0  0  0  0  0  0  0  0  0  0  0  0
    4.3781   -1.0445   16.3723 N   0  0  0  0  0  0  0  0  0  0  0  0
    3.8363   -0.3925   15.3256 C   0  0  0  0  0  0  0  0  0  0  0  0
    2.6611    2.1501   12.1240 C   0  0  0  0  0  0  0  0  0  0  0  0
    3.5712    2.6353   11.1629 C   0  0  0  0  0  0  0  0  0  0  0  0
    3.1347    3.4612   10.1202 C   0  0  0  0  0  0  0  0  0  0  0  0
    1.7926    3.8149   10.0376 C   0  0  0  0  0  0  0  0  0  0  0  0
    1.4009    4.6318    8.9894 O   0  0  0  0  0  0  0  0  0  0  0  0
    0.0085    4.5902    8.6762 C   0  0  0  0  0  0  0  0  0  0  0  0
   -0.8186    4.7372    9.9574 C   0  0  0  0  0  0  0  0  0  0  0  0
   -0.4761    3.7058   10.9290 N   0  0  0  0  0  0  0  0  0  0  0  0
    0.8817    3.3521   10.9992 C   0  0  0  0  0  0  0  0  0  0  0  0
    1.3168    2.5380   12.0350 C   0  0  0  0  0  0  0  0  0  0  0  0
   -0.5547   -0.8194   14.1898 C   0  0  0  0  0  0  0  0  0  0  0  0
   -1.9431   -1.0889   14.0597 C   0  0  0  0  0  0  0  0  0  0  0  0
   -2.7507   -0.3535   13.2059 O   0  0  0  0  0  0  0  0  0  0  0  0
   -2.2107    0.5014   12.2156 C   0  0  0  0  0  0  0  0  0  0  0  0
   -5.3466   -3.2539   13.5756 H   0  0  0  0  0  0  0  0  0  0  0  0
   -3.9677   -2.5541   12.6618 H   0  0  0  0  0  0  0  0  0  0  0  0
   -3.7529   -4.0824   13.5809 H   0  0  0  0  0  0  0  0  0  0  0  0
   -2.1996   -3.6660   16.2538 H   0  0  0  0  0  0  0  0  0  0  0  0
    0.2020   -3.2096   16.4891 H   0  0  0  0  0  0  0  0  0  0  0  0
    5.1531    1.9307   13.2531 H   0  0  0  0  0  0  0  0  0  0  0  0
    6.8389    0.8769   15.3035 H   0  0  0  0  0  0  0  0  0  0  0  0
    6.2571   -0.7689   17.3423 H   0  0  0  0  0  0  0  0  0  0  0  0
    4.6152    2.3673   11.2317 H   0  0  0  0  0  0  0  0  0  0  0  0
    3.8372    3.8219    9.3834 H   0  0  0  0  0  0  0  0  0  0  0  0
   -0.2354    5.4131    7.9882 H   0  0  0  0  0  0  0  0  0  0  0  0
   -0.2290    3.6290    8.1970 H   0  0  0  0  0  0  0  0  0  0  0  0
   -0.6226    5.7253   10.3993 H   0  0  0  0  0  0  0  0  0  0  0  0
   -1.8863    4.6530    9.7065 H   0  0  0  0  0  0  0  0  0  0  0  0
   -0.7543    4.0321   11.8324 H   0  0  0  0  0  0  0  0  0  0  0  0
    0.6125    2.1996   12.7806 H   0  0  0  0  0  0  0  0  0  0  0  0
   -0.4605    0.2311   14.5021 H   0  0  0  0  0  0  0  0  0  0  0  0
   -0.1091   -0.9467   13.1922 H   0  0  0  0  0  0  0  0  0  0  0  0
   -3.0291    0.9809   11.6585 H   0  0  0  0  0  0  0  0  0  0  0  0
   -1.5923    1.2740   12.6959 H   0  0  0  0  0  0  0  0  0  0  0  0
   -1.5906   -0.0862   11.5227 H   0  0  0  0  0  0  0  0  0  0  0  0
  1  2  1  0  0  0  0
  2  3  1  0  0  0  0
  3  4  1  0  0  0  0
  3 28  2  0  0  0  0
  4  5  2  0  0  0  0
  5  6  1  0  0  0  0
  6  7  2  0  0  0  0
  6 27  1  0  0  0  0
  7  8  1  0  0  0  0
  8  9  2  0  0  0  0
  8 16  1  0  0  0  0
  9 10  1  0  0  0  0
 10 11  2  0  0  0  0
 10 17  1  0  0  0  0
 11 12  1  0  0  0  0
 12 13  1  0  0  0  0
 12 16  1  0  0  0  0
 13 14  2  0  0  0  0
 14 15  1  0  0  0  0
 15 16  2  0  0  0  0
 17 18  2  0  0  0  0
 17 26  1  0  0  0  0
 18 19  1  0  0  0  0
 19 20  2  0  0  0  0
 20 21  1  0  0  0  0
 20 25  1  0  0  0  0
 21 22  1  0  0  0  0
 22 23  1  0  0  0  0
 23 24  1  0  0  0  0
 24 25  1  0  0  0  0
 25 26  2  0  0  0  0
 27 28  1  0  0  0  0
 28 29  1  0  0  0  0
 29 30  1  0  0  0  0
  1 31  1  0  0  0  0
  1 32  1  0  0  0  0
  1 33  1  0  0  0  0
  4 34  1  0  0  0  0
  5 35  1  0  0  0  0
 11 36  1  0  0  0  0
 13 37  1  0  0  0  0
 14 38  1  0  0  0  0
 18 39  1  0  0  0  0
 19 40  1  0  0  0  0
 22 41  1  0  0  0  0
 22 42  1  0  0  0  0
 23 43  1  0  0  0  0
 23 44  1  0  0  0  0
 24 45  1  0  0  0  0
 26 46  1  0  0  0  0
 27 47  1  0  0  0  0
 27 48  1  0  0  0  0
 30 49  1  0  0  0  0
 30 50  1  0  0  0  0
 30 51  1  0  0  0  0
M  END
> <IC50[nM]>
4.7

$$$$
CHEMBL3265026
  -OEChem-05192314333D
 Structure written by MMmdl.
 51 55  0     1  0  0  0  0  0999 V2000
   -4.2568   -3.1047   13.5691 C   0  0  0  0  0  0  0  0  0  0  0  0
   -3.8735   -2.3611   14.7159 O   0  0  0  0  0  0  0  0  0  0  0  0
   -2.5255   -2.1111   14.8166 C   0  0  0  0  0  0  0  0  0  0  0  0
   -1.7467   -2.8699   15.6815 C   0  0  0  0  0  0  0  0  0  0  0  0
   -0.3906   -2.6103   15.8137 C   0  0  0  0  0  0  0  0  0  0  0  0
    0.2208   -1.5857   15.0868 C   0  0  0  0  0  0  0  0  0  0  0  0
    1.6032   -1.3595   15.3238 N   0  0  0  0  0  0  0  0  0  0  0  0
    2.5348   -0.4457   14.7641 C   0  0  0  0  0  0  0  0  0  0  0  0
    2.1779    0.3778   13.7292 N   0  0  0  0  0  0  0  0  0  0  0  0
    3.1185    1.2359   13.2212 C   0  0  0  0  0  0  0  0  0  0  0  0
    4.4181    1.2809   13.7047 C   0  0  0  0  0  0  0  0  0  0  0  0
    4.7461    0.4870   14.7618 N   0  0  0  0  0  0  0  0  0  0  0  0
    5.8981    0.3788   15.4858 C   0  0  0  0  0  0  0  0  0  0  0  0
    5.5910   -0.5280   16.5270 C   0  0  0  0  0  0  0  0  0  0  0  0
    4.3781   -1.0445   16.3723 N   0  0  0  0  0  0  0  0  0  0  0  0
    3.8363   -0.3925   15.3256 C   0  0  0  0  0  0  0  0  0  0  0  0
    2.6611    2.1501   12.1240 C   0  0  0  0  0  0  0  0  0  0  0  0
    3.5712    2.6353   11.1629 C   0  0  0  0  0  0  0  0  0  0  0  0
    3.1347    3.4612   10.1202 C   0  0  0  0  0  0  0  0  0  0  0  0
    1.7926    3.8149   10.0376 C   0  0  3  0  0  0  0  0  0  0  0  0
    1.4009    4.6318    8.9894 O   0  0  0  0  0  0  0  0  0  0  0  0
    0.0085    4.5902    8.6762 C   0  0  0  0  0  0  0  0  0  0  0  0
   -0.8186    4.7372    9.9574 C   0  0  0  0  0  0  0  0  0  0  0  0
   -0.4761    3.7058   10.9290 N   0  0  0  0  0  0  0  0  0  0  0  0
    0.8817    3.3521   10.9992 C   0  0  0  0  0  0  0  0  0  0  0  0
    1.3168    2.5380   12.0350 C   0  0  0  0  0  0  0  0  0  0  0  0
   -0.5547   -0.8194   14.1898 C   0  0  0  0  0  0  0  0  0  0  0  0
   -1.9431   -1.0889   14.0597 C   0  0  0  0  0  0  0  0  0  0  0  0
   -2.7507   -0.3535   13.2059 O   0  0  0  0  0  0  0  0  0  0  0  0
   -2.2107    0.5014   12.2156 C   0  0  0  0  0  0  0  0  0  0  0  0
   -5.3466   -3.2539   13.5756 H   0  0  0  0  0  0  0  0  0  0  0  0
   -3.9677   -2.5541   12.6618 H   0  0  0  0  0  0  0  0  0  0  0  0
   -3.7529   -4.0824   13.5809 H   0  0  0  0  0  0  0  0  0  0  0  0
   -2.1996   -3.6660   16.2538 H   0  0  0  0  0  0  0  0  0  0  0  0
    0.2020   -3.2096   16.4891 H   0  0  0  0  0  0  0  0  0  0  0  0
    1.9964   -1.9604   16.0198 H   0  0  0  0  0  0  0  0  0  0  0  0
    5.1531    1.9307   13.2531 H   0  0  0  0  0  0  0  0  0  0  0  0
    6.8389    0.8769   15.3035 H   0  0  0  0  0  0  0  0  0  0  0  0
    6.2571   -0.7689   17.3423 H   0  0  0  0  0  0  0  0  0  0  0  0
    4.6152    2.3673   11.2317 H   0  0  0  0  0  0  0  0  0  0  0  0
    3.8372    3.8219    9.3834 H   0  0  0  0  0  0  0  0  0  0  0  0
    1.5949    2.9260    9.4205 H   0  0  0  0  0  0  0  0  0  0  0  0
   -0.2354    5.4131    7.9882 H   0  0  0  0  0  0  0  0  0  0  0  0
   -0.2290    3.6290    8.1970 H   0  0  0  0  0  0  0  0  0  0  0  0
   -0.6226    5.7253   10.3993 H   0  0  0  0  0  0  0  0  0  0  0  0
   -1.8863    4.6530    9.7065 H   0  0  0  0  0  0  0  0  0  0  0  0
    0.6125    2.1996   12.7806 H   0  0  0  0  0  0  0  0  0  0  0  0
   -0.0958   -0.0344   13.6071 H   0  0  0  0  0  0  0  0  0  0  0  0
   -3.0291    0.9809   11.6585 H   0  0  0  0  0  0  0  0  0  0  0  0
   -1.5923    1.2740   12.6959 H   0  0  0  0  0  0  0  0  0  0  0  0
   -1.5906   -0.0862   11.5227 H   0  0  0  0  0  0  0  0  0  0  0  0
  1  2  1  0  0  0  0
  2  3  1  0  0  0  0
  3  4  2  0  0  0  0
  3 28  1  0  0  0  0
  4  5  1  0  0  0  0
  5  6  2  0  0  0  0
  6  7  1  0  0  0  0
  6 27  1  0  0  0  0
  7  8  1  0  0  0  0
  8  9  2  0  0  0  0
  8 16  1  0  0  0  0
  9 10  1  0  0  0  0
 10 11  2  0  0  0  0
 10 17  1  0  0  0  0
 11 12  1  0  0  0  0
 12 13  1  0  0  0  0
 12 16  1  0  0  0  0
 13 14  2  0  0  0  0
 14 15  1  0  0  0  0
 15 16  2  0  0  0  0
 17 18  1  0  0  0  0
 17 26  2  0  0  0  0
 18 19  2  0  0  0  0
 19 20  1  0  0  0  0
 20 21  1  0  0  0  0
 20 25  1  0  0  0  0
 21 22  1  0  0  0  0
 22 23  1  0  0  0  0
 23 24  1  0  0  0  0
 24 25  2  0  0  0  0
 25 26  1  0  0  0  0
 27 28  2  0  0  0  0
 28 29  1  0  0  0  0
 29 30  1  0  0  0  0
  1 31  1  0  0  0  0
  1 32  1  0  0  0  0
  1 33  1  0  0  0  0
  4 34  1  0  0  0  0
  5 35  1  0  0  0  0
  7 36  1  0  0  0  0
 11 37  1  0  0  0  0
 13 38  1  0  0  0  0
 14 39  1  0  0  0  0
 18 40  1  0  0  0  0
 19 41  1  0  0  0  0
 20 42  1  0  0  0  0
 22 43  1  0  0  0  0
 22 44  1  0  0  0  0
 23 45  1  0  0  0  0
 23 46  1  0  0  0  0
 26 47  1  0  0  0  0
 27 48  1  0  0  0  0
 30 49  1  0  0  0  0
 30 50  1  0  0  0  0
 30 51  1  0  0  0  0
M  END
> <IC50[nM]>
4.7

$$$$
CHEMBL3265026
  -OEChem-05192314333D
 Structure written by MMmdl.
 51 55  0     0  0  0  0  0  0999 V2000
   -4.2568   -3.1047   13.5691 C   0  0  0  0  0  0  0  0  0  0  0  0
   -3.8735   -2.3611   14.7159 O   0  0  0  0  0  0  0  0  0  0  0  0
   -2.5255   -2.1111   14.8166 C   0  0  0  0  0  0  0  0  0  0  0  0
   -1.7467   -2.8699   15.6815 C   0  0  0  0  0  0  0  0  0  0  0  0
   -0.3906   -2.6103   15.8137 C   0  0  0  0  0  0  0  0  0  0  0  0
    0.2208   -1.5857   15.0868 C   0  0  0  0  0  0  0  0  0  0  0  0
    1.6032   -1.3595   15.3238 N   0  0  0  0  0  0  0  0  0  0  0  0
    2.5348   -0.4457   14.7641 C   0  0  0  0  0  0  0  0  0  0  0  0
    2.1779    0.3778   13.7292 N   0  0  0  0  0  0  0  0  0  0  0  0
    3.1185    1.2359   13.2212 C   0  0  0  0  0  0  0  0  0  0  0  0
    4.4181    1.2809   13.7047 C   0  0  0  0  0  0  0  0  0  0  0  0
    4.7461    0.4870   14.7618 N   0  0  0  0  0  0  0  0  0  0  0  0
    5.8981    0.3788   15.4858 C   0  0  0  0  0  0  0  0  0  0  0  0
    5.5910   -0.5280   16.5270 C   0  0  0  0  0  0  0  0  0  0  0  0
    4.3781   -1.0445   16.3723 N   0  0  0  0  0  0  0  0  0  0  0  0
    3.8363   -0.3925   15.3256 C   0  0  0  0  0  0  0  0  0  0  0  0
    2.6611    2.1501   12.1240 C   0  0  0  0  0  0  0  0  0  0  0  0
    3.5712    2.6353   11.1629 C   0  0  0  0  0  0  0  0  0  0  0  0
    3.1347    3.4612   10.1202 C   0  0  0  0  0  0  0  0  0  0  0  0
    1.7926    3.8149   10.0376 C   0  0  0  0  0  0  0  0  0  0  0  0
    1.4009    4.6318    8.9894 O   0  0  0  0  0  0  0  0  0  0  0  0
    0.0085    4.5902    8.6762 C   0  0  0  0  0  0  0  0  0  0  0  0
   -0.8186    4.7372    9.9574 C   0  0  0  0  0  0  0  0  0  0  0  0
   -0.4761    3.7058   10.9290 N   0  0  0  0  0  0  0  0  0  0  0  0
    0.8817    3.3521   10.9992 C   0  0  0  0  0  0  0  0  0  0  0  0
    1.3168    2.5380   12.0350 C   0  0  0  0  0  0  0  0  0  0  0  0
   -0.5547   -0.8194   14.1898 C   0  0  0  0  0  0  0  0  0  0  0  0
   -1.9431   -1.0889   14.0597 C   0  0  0  0  0  0  0  0  0  0  0  0
   -2.7507   -0.3535   13.2059 O   0  0  0  0  0  0  0  0  0  0  0  0
   -2.2107    0.5014   12.2156 C   0  0  0  0  0  0  0  0  0  0  0  0
   -5.3466   -3.2539   13.5756 H   0  0  0  0  0  0  0  0  0  0  0  0
   -3.9677   -2.5541   12.6618 H   0  0  0  0  0  0  0  0  0  0  0  0
   -3.7529   -4.0824   13.5809 H   0  0  0  0  0  0  0  0  0  0  0  0
   -2.1996   -3.6660   16.2538 H   0  0  0  0  0  0  0  0  0  0  0  0
    0.2020   -3.2096   16.4891 H   0  0  0  0  0  0  0  0  0  0  0  0
    1.9964   -1.9604   16.0198 H   0  0  0  0  0  0  0  0  0  0  0  0
    5.1531    1.9307   13.2531 H   0  0  0  0  0  0  0  0  0  0  0  0
    6.8389    0.8769   15.3035 H   0  0  0  0  0  0  0  0  0  0  0  0
    6.2571   -0.7689   17.3423 H   0  0  0  0  0  0  0  0  0  0  0  0
    4.3373    3.2015   11.7129 H   0  0  0  0  0  0  0  0  0  0  0  0
    4.0328    1.7539   10.6938 H   0  0  0  0  0  0  0  0  0  0  0  0
    3.8372    3.8219    9.3834 H   0  0  0  0  0  0  0  0  0  0  0  0
   -0.2354    5.4131    7.9882 H   0  0  0  0  0  0  0  0  0  0  0  0
   -0.2290    3.6290    8.1970 H   0  0  0  0  0  0  0  0  0  0  0  0
   -0.6226    5.7253   10.3993 H   0  0  0  0  0  0  0  0  0  0  0  0
   -1.8863    4.6530    9.7065 H   0  0  0  0  0  0  0  0  0  0  0  0
    0.6125    2.1996   12.7806 H   0  0  0  0  0  0  0  0  0  0  0  0
   -0.0958   -0.0344   13.6071 H   0  0  0  0  0  0  0  0  0  0  0  0
   -3.0291    0.9809   11.6585 H   0  0  0  0  0  0  0  0  0  0  0  0
   -1.5923    1.2740   12.6959 H   0  0  0  0  0  0  0  0  0  0  0  0
   -1.5906   -0.0862   11.5227 H   0  0  0  0  0  0  0  0  0  0  0  0
  1  2  1  0  0  0  0
  2  3  1  0  0  0  0
  3  4  2  0  0  0  0
  3 28  1  0  0  0  0
  4  5  1  0  0  0  0
  5  6  2  0  0  0  0
  6  7  1  0  0  0  0
  6 27  1  0  0  0  0
  7  8  1  0  0  0  0
  8  9  2  0  0  0  0
  8 16  1  0  0  0  0
  9 10  1  0  0  0  0
 10 11  2  0  0  0  0
 10 17  1  0  0  0  0
 11 12  1  0  0  0  0
 12 13  1  0  0  0  0
 12 16  1  0  0  0  0
 13 14  2  0  0  0  0
 14 15  1  0  0  0  0
 15 16  2  0  0  0  0
 17 18  1  0  0  0  0
 17 26  2  0  0  0  0
 18 19  1  0  0  0  0
 19 20  2  0  0  0  0
 20 21  1  0  0  0  0
 20 25  1  0  0  0  0
 21 22  1  0  0  0  0
 22 23  1  0  0  0  0
 23 24  1  0  0  0  0
 24 25  2  0  0  0  0
 25 26  1  0  0  0  0
 27 28  2  0  0  0  0
 28 29  1  0  0  0  0
 29 30  1  0  0  0  0
  1 31  1  0  0  0  0
  1 32  1  0  0  0  0
  1 33  1  0  0  0  0
  4 34  1  0  0  0  0
  5 35  1  0  0  0  0
  7 36  1  0  0  0  0
 11 37  1  0  0  0  0
 13 38  1  0  0  0  0
 14 39  1  0  0  0  0
 18 40  1  0  0  0  0
 18 41  1  0  0  0  0
 19 42  1  0  0  0  0
 22 43  1  0  0  0  0
 22 44  1  0  0  0  0
 23 45  1  0  0  0  0
 23 46  1  0  0  0  0
 26 47  1  0  0  0  0
 27 48  1  0  0  0  0
 30 49  1  0  0  0  0
 30 50  1  0  0  0  0
 30 51  1  0  0  0  0
M  END
> <IC50[nM]>
4.7

$$$$
CHEMBL3265026
  -OEChem-05192314333D
 Structure written by MMmdl.
 51 55  0     0  0  0  0  0  0999 V2000
   -4.2568   -3.1047   13.5691 C   0  0  0  0  0  0  0  0  0  0  0  0
   -3.8735   -2.3611   14.7159 O   0  0  0  0  0  0  0  0  0  0  0  0
   -2.5255   -2.1111   14.8166 C   0  0  0  0  0  0  0  0  0  0  0  0
   -1.7467   -2.8699   15.6815 C   0  0  0  0  0  0  0  0  0  0  0  0
   -0.3906   -2.6103   15.8137 C   0  0  0  0  0  0  0  0  0  0  0  0
    0.2208   -1.5857   15.0868 C   0  0  0  0  0  0  0  0  0  0  0  0
    1.6032   -1.3595   15.3238 N   0  0  0  0  0  0  0  0  0  0  0  0
    2.5348   -0.4457   14.7641 C   0  0  0  0  0  0  0  0  0  0  0  0
    2.1779    0.3778   13.7292 N   0  0  0  0  0  0  0  0  0  0  0  0
    3.1185    1.2359   13.2212 C   0  0  0  0  0  0  0  0  0  0  0  0
    4.4181    1.2809   13.7047 C   0  0  0  0  0  0  0  0  0  0  0  0
    4.7461    0.4870   14.7618 N   0  0  0  0  0  0  0  0  0  0  0  0
    5.8981    0.3788   15.4858 C   0  0  0  0  0  0  0  0  0  0  0  0
    5.5910   -0.5280   16.5270 C   0  0  0  0  0  0  0  0  0  0  0  0
    4.3781   -1.0445   16.3723 N   0  0  0  0  0  0  0  0  0  0  0  0
    3.8363   -0.3925   15.3256 C   0  0  0  0  0  0  0  0  0  0  0  0
    2.6611    2.1501   12.1240 C   0  0  0  0  0  0  0  0  0  0  0  0
    3.5712    2.6353   11.1629 C   0  0  0  0  0  0  0  0  0  0  0  0
    3.1347    3.4612   10.1202 C   0  0  0  0  0  0  0  0  0  0  0  0
    1.7926    3.8149   10.0376 C   0  0  0  0  0  0  0  0  0  0  0  0
    1.4009    4.6318    8.9894 O   0  0  0  0  0  0  0  0  0  0  0  0
    0.0085    4.5902    8.6762 C   0  0  0  0  0  0  0  0  0  0  0  0
   -0.8186    4.7372    9.9574 C   0  0  0  0  0  0  0  0  0  0  0  0
   -0.4761    3.7058   10.9290 N   0  0  0  0  0  0  0  0  0  0  0  0
    0.8817    3.3521   10.9992 C   0  0  0  0  0  0  0  0  0  0  0  0
    1.3168    2.5380   12.0350 C   0  0  0  0  0  0  0  0  0  0  0  0
   -0.5547   -0.8194   14.1898 C   0  0  0  0  0  0  0  0  0  0  0  0
   -1.9431   -1.0889   14.0597 C   0  0  0  0  0  0  0  0  0  0  0  0
   -2.7507   -0.3535   13.2059 O   0  0  0  0  0  0  0  0  0  0  0  0
   -2.2107    0.5014   12.2156 C   0  0  0  0  0  0  0  0  0  0  0  0
   -5.3466   -3.2539   13.5756 H   0  0  0  0  0  0  0  0  0  0  0  0
   -3.9677   -2.5541   12.6618 H   0  0  0  0  0  0  0  0  0  0  0  0
   -3.7529   -4.0824   13.5809 H   0  0  0  0  0  0  0  0  0  0  0  0
   -2.1996   -3.6660   16.2538 H   0  0  0  0  0  0  0  0  0  0  0  0
    0.2020   -3.2096   16.4891 H   0  0  0  0  0  0  0  0  0  0  0  0
    1.9964   -1.9604   16.0198 H   0  0  0  0  0  0  0  0  0  0  0  0
    5.1531    1.9307   13.2531 H   0  0  0  0  0  0  0  0  0  0  0  0
    6.8389    0.8769   15.3035 H   0  0  0  0  0  0  0  0  0  0  0  0
    6.2571   -0.7689   17.3423 H   0  0  0  0  0  0  0  0  0  0  0  0
    4.6152    2.3673   11.2317 H   0  0  0  0  0  0  0  0  0  0  0  0
    3.8372    3.8219    9.3834 H   0  0  0  0  0  0  0  0  0  0  0  0
   -0.2354    5.4131    7.9882 H   0  0  0  0  0  0  0  0  0  0  0  0
   -0.2290    3.6290    8.1970 H   0  0  0  0  0  0  0  0  0  0  0  0
   -0.6226    5.7253   10.3993 H   0  0  0  0  0  0  0  0  0  0  0  0
   -1.8863    4.6530    9.7065 H   0  0  0  0  0  0  0  0  0  0  0  0
    0.7258    1.6121   11.9764 H   0  0  0  0  0  0  0  0  0  0  0  0
    1.0795    3.0659   12.9704 H   0  0  0  0  0  0  0  0  0  0  0  0
   -0.0958   -0.0344   13.6071 H   0  0  0  0  0  0  0  0  0  0  0  0
   -3.0291    0.9809   11.6585 H   0  0  0  0  0  0  0  0  0  0  0  0
   -1.5923    1.2740   12.6959 H   0  0  0  0  0  0  0  0  0  0  0  0
   -1.5906   -0.0862   11.5227 H   0  0  0  0  0  0  0  0  0  0  0  0
  1  2  1  0  0  0  0
  2  3  1  0  0  0  0
  3  4  2  0  0  0  0
  3 28  1  0  0  0  0
  4  5  1  0  0  0  0
  5  6  2  0  0  0  0
  6  7  1  0  0  0  0
  6 27  1  0  0  0  0
  7  8  1  0  0  0  0
  8  9  2  0  0  0  0
  8 16  1  0  0  0  0
  9 10  1  0  0  0  0
 10 11  2  0  0  0  0
 10 17  1  0  0  0  0
 11 12  1  0  0  0  0
 12 13  1  0  0  0  0
 12 16  1  0  0  0  0
 13 14  2  0  0  0  0
 14 15  1  0  0  0  0
 15 16  2  0  0  0  0
 17 18  2  0  0  0  0
 17 26  1  0  0  0  0
 18 19  1  0  0  0  0
 19 20  2  0  0  0  0
 20 21  1  0  0  0  0
 20 25  1  0  0  0  0
 21 22  1  0  0  0  0
 22 23  1  0  0  0  0
 23 24  1  0  0  0  0
 24 25  2  0  0  0  0
 25 26  1  0  0  0  0
 27 28  2  0  0  0  0
 28 29  1  0  0  0  0
 29 30  1  0  0  0  0
  1 31  1  0  0  0  0
  1 32  1  0  0  0  0
  1 33  1  0  0  0  0
  4 34  1  0  0  0  0
  5 35  1  0  0  0  0
  7 36  1  0  0  0  0
 11 37  1  0  0  0  0
 13 38  1  0  0  0  0
 14 39  1  0  0  0  0
 18 40  1  0  0  0  0
 19 41  1  0  0  0  0
 22 42  1  0  0  0  0
 22 43  1  0  0  0  0
 23 44  1  0  0  0  0
 23 45  1  0  0  0  0
 26 46  1  0  0  0  0
 26 47  1  0  0  0  0
 27 48  1  0  0  0  0
 30 49  1  0  0  0  0
 30 50  1  0  0  0  0
 30 51  1  0  0  0  0
M  END
> <IC50[nM]>
4.7

$$$$
CHEMBL3265026
  -OEChem-05192314333D
 Structure written by MMmdl.
 51 55  0     1  0  0  0  0  0999 V2000
   -4.2568   -3.1047   13.5691 C   0  0  0  0  0  0  0  0  0  0  0  0
   -3.8735   -2.3611   14.7159 O   0  0  0  0  0  0  0  0  0  0  0  0
   -2.5255   -2.1111   14.8166 C   0  0  0  0  0  0  0  0  0  0  0  0
   -1.7467   -2.8699   15.6815 C   0  0  0  0  0  0  0  0  0  0  0  0
   -0.3906   -2.6103   15.8137 C   0  0  0  0  0  0  0  0  0  0  0  0
    0.2208   -1.5857   15.0868 C   0  0  0  0  0  0  0  0  0  0  0  0
    1.6032   -1.3595   15.3238 N   0  0  0  0  0  0  0  0  0  0  0  0
    2.5348   -0.4457   14.7641 C   0  0  0  0  0  0  0  0  0  0  0  0
    2.1779    0.3778   13.7292 N   0  0  0  0  0  0  0  0  0  0  0  0
    3.1185    1.2359   13.2212 C   0  0  0  0  0  0  0  0  0  0  0  0
    4.4181    1.2809   13.7047 C   0  0  0  0  0  0  0  0  0  0  0  0
    4.7461    0.4870   14.7618 N   0  0  0  0  0  0  0  0  0  0  0  0
    5.8981    0.3788   15.4858 C   0  0  0  0  0  0  0  0  0  0  0  0
    5.5910   -0.5280   16.5270 C   0  0  0  0  0  0  0  0  0  0  0  0
    4.3781   -1.0445   16.3723 N   0  0  0  0  0  0  0  0  0  0  0  0
    3.8363   -0.3925   15.3256 C   0  0  0  0  0  0  0  0  0  0  0  0
    2.6611    2.1501   12.1240 C   0  0  0  0  0  0  0  0  0  0  0  0
    3.5712    2.6353   11.1629 C   0  0  0  0  0  0  0  0  0  0  0  0
    3.1347    3.4612   10.1202 C   0  0  0  0  0  0  0  0  0  0  0  0
    1.7926    3.8149   10.0376 C   0  0  3  0  0  0  0  0  0  0  0  0
    1.4009    4.6318    8.9894 O   0  0  0  0  0  0  0  0  0  0  0  0
    0.0085    4.5902    8.6762 C   0  0  0  0  0  0  0  0  0  0  0  0
   -0.8186    4.7372    9.9574 C   0  0  0  0  0  0  0  0  0  0  0  0
   -0.4761    3.7058   10.9290 N   0  0  0  0  0  0  0  0  0  0  0  0
    0.8817    3.3521   10.9992 C   0  0  0  0  0  0  0  0  0  0  0  0
    1.3168    2.5380   12.0350 C   0  0  0  0  0  0  0  0  0  0  0  0
   -0.5547   -0.8194   14.1898 C   0  0  0  0  0  0  0  0  0  0  0  0
   -1.9431   -1.0889   14.0597 C   0  0  0  0  0  0  0  0  0  0  0  0
   -2.7507   -0.3535   13.2059 O   0  0  0  0  0  0  0  0  0  0  0  0
   -2.2107    0.5014   12.2156 C   0  0  0  0  0  0  0  0  0  0  0  0
   -5.3466   -3.2539   13.5756 H   0  0  0  0  0  0  0  0  0  0  0  0
   -3.9677   -2.5541   12.6618 H   0  0  0  0  0  0  0  0  0  0  0  0
   -3.7529   -4.0824   13.5809 H   0  0  0  0  0  0  0  0  0  0  0  0
   -2.1996   -3.6660   16.2538 H   0  0  0  0  0  0  0  0  0  0  0  0
    0.2020   -3.2096   16.4891 H   0  0  0  0  0  0  0  0  0  0  0  0
    1.2518    0.3535   13.3527 H   0  0  0  0  0  0  0  0  0  0  0  0
    5.1531    1.9307   13.2531 H   0  0  0  0  0  0  0  0  0  0  0  0
    6.8389    0.8769   15.3035 H   0  0  0  0  0  0  0  0  0  0  0  0
    6.2571   -0.7689   17.3423 H   0  0  0  0  0  0  0  0  0  0  0  0
    4.6152    2.3673   11.2317 H   0  0  0  0  0  0  0  0  0  0  0  0
    3.8372    3.8219    9.3834 H   0  0  0  0  0  0  0  0  0  0  0  0
    1.5949    2.9260    9.4205 H   0  0  0  0  0  0  0  0  0  0  0  0
   -0.2354    5.4131    7.9882 H   0  0  0  0  0  0  0  0  0  0  0  0
   -0.2290    3.6290    8.1970 H   0  0  0  0  0  0  0  0  0  0  0  0
   -0.6226    5.7253   10.3993 H   0  0  0  0  0  0  0  0  0  0  0  0
   -1.8863    4.6530    9.7065 H   0  0  0  0  0  0  0  0  0  0  0  0
    0.6125    2.1996   12.7806 H   0  0  0  0  0  0  0  0  0  0  0  0
   -0.0958   -0.0344   13.6071 H   0  0  0  0  0  0  0  0  0  0  0  0
   -3.0291    0.9809   11.6585 H   0  0  0  0  0  0  0  0  0  0  0  0
   -1.5923    1.2740   12.6959 H   0  0  0  0  0  0  0  0  0  0  0  0
   -1.5906   -0.0862   11.5227 H   0  0  0  0  0  0  0  0  0  0  0  0
  1  2  1  0  0  0  0
  2  3  1  0  0  0  0
  3  4  2  0  0  0  0
  3 28  1  0  0  0  0
  4  5  1  0  0  0  0
  5  6  2  0  0  0  0
  6  7  1  0  0  0  0
  6 27  1  0  0  0  0
  7  8  2  0  0  0  0
  8  9  1  0  0  0  0
  8 16  1  0  0  0  0
  9 10  1  0  0  0  0
 10 11  2  0  0  0  0
 10 17  1  0  0  0  0
 11 12  1  0  0  0  0
 12 13  1  0  0  0  0
 12 16  1  0  0  0  0
 13 14  2  0  0  0  0
 14 15  1  0  0  0  0
 15 16  2  0  0  0  0
 17 18  1  0  0  0  0
 17 26  2  0  0  0  0
 18 19  2  0  0  0  0
 19 20  1  0  0  0  0
 20 21  1  0  0  0  0
 20 25  1  0  0  0  0
 21 22  1  0  0  0  0
 22 23  1  0  0  0  0
 23 24  1  0  0  0  0
 24 25  2  0  0  0  0
 25 26  1  0  0  0  0
 27 28  2  0  0  0  0
 28 29  1  0  0  0  0
 29 30  1  0  0  0  0
  1 31  1  0  0  0  0
  1 32  1  0  0  0  0
  1 33  1  0  0  0  0
  4 34  1  0  0  0  0
  5 35  1  0  0  0  0
  9 36  1  0  0  0  0
 11 37  1  0  0  0  0
 13 38  1  0  0  0  0
 14 39  1  0  0  0  0
 18 40  1  0  0  0  0
 19 41  1  0  0  0  0
 20 42  1  0  0  0  0
 22 43  1  0  0  0  0
 22 44  1  0  0  0  0
 23 45  1  0  0  0  0
 23 46  1  0  0  0  0
 26 47  1  0  0  0  0
 27 48  1  0  0  0  0
 30 49  1  0  0  0  0
 30 50  1  0  0  0  0
 30 51  1  0  0  0  0
M  END
> <IC50[nM]>
4.7

$$$$
CHEMBL3265026
  -OEChem-05192314333D
 Structure written by MMmdl.
 51 55  0     0  0  0  0  0  0999 V2000
   -4.2568   -3.1047   13.5691 C   0  0  0  0  0  0  0  0  0  0  0  0
   -3.8735   -2.3611   14.7159 O   0  0  0  0  0  0  0  0  0  0  0  0
   -2.5255   -2.1111   14.8166 C   0  0  0  0  0  0  0  0  0  0  0  0
   -1.7467   -2.8699   15.6815 C   0  0  0  0  0  0  0  0  0  0  0  0
   -0.3906   -2.6103   15.8137 C   0  0  0  0  0  0  0  0  0  0  0  0
    0.2208   -1.5857   15.0868 C   0  0  0  0  0  0  0  0  0  0  0  0
    1.6032   -1.3595   15.3238 N   0  0  0  0  0  0  0  0  0  0  0  0
    2.5348   -0.4457   14.7641 C   0  0  0  0  0  0  0  0  0  0  0  0
    2.1779    0.3778   13.7292 N   0  0  0  0  0  0  0  0  0  0  0  0
    3.1185    1.2359   13.2212 C   0  0  0  0  0  0  0  0  0  0  0  0
    4.4181    1.2809   13.7047 C   0  0  0  0  0  0  0  0  0  0  0  0
    4.7461    0.4870   14.7618 N   0  0  0  0  0  0  0  0  0  0  0  0
    5.8981    0.3788   15.4858 C   0  0  0  0  0  0  0  0  0  0  0  0
    5.5910   -0.5280   16.5270 C   0  0  0  0  0  0  0  0  0  0  0  0
    4.3781   -1.0445   16.3723 N   0  0  0  0  0  0  0  0  0  0  0  0
    3.8363   -0.3925   15.3256 C   0  0  0  0  0  0  0  0  0  0  0  0
    2.6611    2.1501   12.1240 C   0  0  0  0  0  0  0  0  0  0  0  0
    3.5712    2.6353   11.1629 C   0  0  0  0  0  0  0  0  0  0  0  0
    3.1347    3.4612   10.1202 C   0  0  0  0  0  0  0  0  0  0  0  0
    1.7926    3.8149   10.0376 C   0  0  0  0  0  0  0  0  0  0  0  0
    1.4009    4.6318    8.9894 O   0  0  0  0  0  0  0  0  0  0  0  0
    0.0085    4.5902    8.6762 C   0  0  0  0  0  0  0  0  0  0  0  0
   -0.8186    4.7372    9.9574 C   0  0  0  0  0  0  0  0  0  0  0  0
   -0.4761    3.7058   10.9290 N   0  0  0  0  0  0  0  0  0  0  0  0
    0.8817    3.3521   10.9992 C   0  0  0  0  0  0  0  0  0  0  0  0
    1.3168    2.5380   12.0350 C   0  0  0  0  0  0  0  0  0  0  0  0
   -0.5547   -0.8194   14.1898 C   0  0  0  0  0  0  0  0  0  0  0  0
   -1.9431   -1.0889   14.0597 C   0  0  0  0  0  0  0  0  0  0  0  0
   -2.7507   -0.3535   13.2059 O   0  0  0  0  0  0  0  0  0  0  0  0
   -2.2107    0.5014   12.2156 C   0  0  0  0  0  0  0  0  0  0  0  0
   -5.3466   -3.2539   13.5756 H   0  0  0  0  0  0  0  0  0  0  0  0
   -3.9677   -2.5541   12.6618 H   0  0  0  0  0  0  0  0  0  0  0  0
   -3.7529   -4.0824   13.5809 H   0  0  0  0  0  0  0  0  0  0  0  0
   -2.1996   -3.6660   16.2538 H   0  0  0  0  0  0  0  0  0  0  0  0
    0.2020   -3.2096   16.4891 H   0  0  0  0  0  0  0  0  0  0  0  0
    1.2518    0.3535   13.3527 H   0  0  0  0  0  0  0  0  0  0  0  0
    5.1531    1.9307   13.2531 H   0  0  0  0  0  0  0  0  0  0  0  0
    6.8389    0.8769   15.3035 H   0  0  0  0  0  0  0  0  0  0  0  0
    6.2571   -0.7689   17.3423 H   0  0  0  0  0  0  0  0  0  0  0  0
    4.3373    3.2015   11.7129 H   0  0  0  0  0  0  0  0  0  0  0  0
    4.0328    1.7539   10.6938 H   0  0  0  0  0  0  0  0  0  0  0  0
    3.8372    3.8219    9.3834 H   0  0  0  0  0  0  0  0  0  0  0  0
   -0.2354    5.4131    7.9882 H   0  0  0  0  0  0  0  0  0  0  0  0
   -0.2290    3.6290    8.1970 H   0  0  0  0  0  0  0  0  0  0  0  0
   -0.6226    5.7253   10.3993 H   0  0  0  0  0  0  0  0  0  0  0  0
   -1.8863    4.6530    9.7065 H   0  0  0  0  0  0  0  0  0  0  0  0
    0.6125    2.1996   12.7806 H   0  0  0  0  0  0  0  0  0  0  0  0
   -0.0958   -0.0344   13.6071 H   0  0  0  0  0  0  0  0  0  0  0  0
   -3.0291    0.9809   11.6585 H   0  0  0  0  0  0  0  0  0  0  0  0
   -1.5923    1.2740   12.6959 H   0  0  0  0  0  0  0  0  0  0  0  0
   -1.5906   -0.0862   11.5227 H   0  0  0  0  0  0  0  0  0  0  0  0
  1  2  1  0  0  0  0
  2  3  1  0  0  0  0
  3  4  2  0  0  0  0
  3 28  1  0  0  0  0
  4  5  1  0  0  0  0
  5  6  2  0  0  0  0
  6  7  1  0  0  0  0
  6 27  1  0  0  0  0
  7  8  2  0  0  0  0
  8  9  1  0  0  0  0
  8 16  1  0  0  0  0
  9 10  1  0  0  0  0
 10 11  2  0  0  0  0
 10 17  1  0  0  0  0
 11 12  1  0  0  0  0
 12 13  1  0  0  0  0
 12 16  1  0  0  0  0
 13 14  2  0  0  0  0
 14 15  1  0  0  0  0
 15 16  2  0  0  0  0
 17 18  1  0  0  0  0
 17 26  2  0  0  0  0
 18 19  1  0  0  0  0
 19 20  2  0  0  0  0
 20 21  1  0  0  0  0
 20 25  1  0  0  0  0
 21 22  1  0  0  0  0
 22 23  1  0  0  0  0
 23 24  1  0  0  0  0
 24 25  2  0  0  0  0
 25 26  1  0  0  0  0
 27 28  2  0  0  0  0
 28 29  1  0  0  0  0
 29 30  1  0  0  0  0
  1 31  1  0  0  0  0
  1 32  1  0  0  0  0
  1 33  1  0  0  0  0
  4 34  1  0  0  0  0
  5 35  1  0  0  0  0
  9 36  1  0  0  0  0
 11 37  1  0  0  0  0
 13 38  1  0  0  0  0
 14 39  1  0  0  0  0
 18 40  1  0  0  0  0
 18 41  1  0  0  0  0
 19 42  1  0  0  0  0
 22 43  1  0  0  0  0
 22 44  1  0  0  0  0
 23 45  1  0  0  0  0
 23 46  1  0  0  0  0
 26 47  1  0  0  0  0
 27 48  1  0  0  0  0
 30 49  1  0  0  0  0
 30 50  1  0  0  0  0
 30 51  1  0  0  0  0
M  END
> <IC50[nM]>
4.7

$$$$
CHEMBL3265026
  -OEChem-05192314333D
 Structure written by MMmdl.
 51 55  0     0  0  0  0  0  0999 V2000
   -4.2568   -3.1047   13.5691 C   0  0  0  0  0  0  0  0  0  0  0  0
   -3.8735   -2.3611   14.7159 O   0  0  0  0  0  0  0  0  0  0  0  0
   -2.5255   -2.1111   14.8166 C   0  0  0  0  0  0  0  0  0  0  0  0
   -1.7467   -2.8699   15.6815 C   0  0  0  0  0  0  0  0  0  0  0  0
   -0.3906   -2.6103   15.8137 C   0  0  0  0  0  0  0  0  0  0  0  0
    0.2208   -1.5857   15.0868 C   0  0  0  0  0  0  0  0  0  0  0  0
    1.6032   -1.3595   15.3238 N   0  0  0  0  0  0  0  0  0  0  0  0
    2.5348   -0.4457   14.7641 C   0  0  0  0  0  0  0  0  0  0  0  0
    2.1779    0.3778   13.7292 N   0  0  0  0  0  0  0  0  0  0  0  0
    3.1185    1.2359   13.2212 C   0  0  0  0  0  0  0  0  0  0  0  0
    4.4181    1.2809   13.7047 C   0  0  0  0  0  0  0  0  0  0  0  0
    4.7461    0.4870   14.7618 N   0  0  0  0  0  0  0  0  0  0  0  0
    5.8981    0.3788   15.4858 C   0  0  0  0  0  0  0  0  0  0  0  0
    5.5910   -0.5280   16.5270 C   0  0  0  0  0  0  0  0  0  0  0  0
    4.3781   -1.0445   16.3723 N   0  0  0  0  0  0  0  0  0  0  0  0
    3.8363   -0.3925   15.3256 C   0  0  0  0  0  0  0  0  0  0  0  0
    2.6611    2.1501   12.1240 C   0  0  0  0  0  0  0  0  0  0  0  0
    3.5712    2.6353   11.1629 C   0  0  0  0  0  0  0  0  0  0  0  0
    3.1347    3.4612   10.1202 C   0  0  0  0  0  0  0  0  0  0  0  0
    1.7926    3.8149   10.0376 C   0  0  0  0  0  0  0  0  0  0  0  0
    1.4009    4.6318    8.9894 O   0  0  0  0  0  0  0  0  0  0  0  0
    0.0085    4.5902    8.6762 C   0  0  0  0  0  0  0  0  0  0  0  0
   -0.8186    4.7372    9.9574 C   0  0  0  0  0  0  0  0  0  0  0  0
   -0.4761    3.7058   10.9290 N   0  0  0  0  0  0  0  0  0  0  0  0
    0.8817    3.3521   10.9992 C   0  0  0  0  0  0  0  0  0  0  0  0
    1.3168    2.5380   12.0350 C   0  0  0  0  0  0  0  0  0  0  0  0
   -0.5547   -0.8194   14.1898 C   0  0  0  0  0  0  0  0  0  0  0  0
   -1.9431   -1.0889   14.0597 C   0  0  0  0  0  0  0  0  0  0  0  0
   -2.7507   -0.3535   13.2059 O   0  0  0  0  0  0  0  0  0  0  0  0
   -2.2107    0.5014   12.2156 C   0  0  0  0  0  0  0  0  0  0  0  0
   -5.3466   -3.2539   13.5756 H   0  0  0  0  0  0  0  0  0  0  0  0
   -3.9677   -2.5541   12.6618 H   0  0  0  0  0  0  0  0  0  0  0  0
   -3.7529   -4.0824   13.5809 H   0  0  0  0  0  0  0  0  0  0  0  0
   -2.1996   -3.6660   16.2538 H   0  0  0  0  0  0  0  0  0  0  0  0
    0.2020   -3.2096   16.4891 H   0  0  0  0  0  0  0  0  0  0  0  0
    1.2518    0.3535   13.3527 H   0  0  0  0  0  0  0  0  0  0  0  0
    5.1531    1.9307   13.2531 H   0  0  0  0  0  0  0  0  0  0  0  0
    6.8389    0.8769   15.3035 H   0  0  0  0  0  0  0  0  0  0  0  0
    6.2571   -0.7689   17.3423 H   0  0  0  0  0  0  0  0  0  0  0  0
    4.6152    2.3673   11.2317 H   0  0  0  0  0  0  0  0  0  0  0  0
    3.8372    3.8219    9.3834 H   0  0  0  0  0  0  0  0  0  0  0  0
   -0.2354    5.4131    7.9882 H   0  0  0  0  0  0  0  0  0  0  0  0
   -0.2290    3.6290    8.1970 H   0  0  0  0  0  0  0  0  0  0  0  0
   -0.6226    5.7253   10.3993 H   0  0  0  0  0  0  0  0  0  0  0  0
   -1.8863    4.6530    9.7065 H   0  0  0  0  0  0  0  0  0  0  0  0
    0.7258    1.6121   11.9764 H   0  0  0  0  0  0  0  0  0  0  0  0
    1.0795    3.0659   12.9704 H   0  0  0  0  0  0  0  0  0  0  0  0
   -0.0958   -0.0344   13.6071 H   0  0  0  0  0  0  0  0  0  0  0  0
   -3.0291    0.9809   11.6585 H   0  0  0  0  0  0  0  0  0  0  0  0
   -1.5923    1.2740   12.6959 H   0  0  0  0  0  0  0  0  0  0  0  0
   -1.5906   -0.0862   11.5227 H   0  0  0  0  0  0  0  0  0  0  0  0
  1  2  1  0  0  0  0
  2  3  1  0  0  0  0
  3  4  2  0  0  0  0
  3 28  1  0  0  0  0
  4  5  1  0  0  0  0
  5  6  2  0  0  0  0
  6  7  1  0  0  0  0
  6 27  1  0  0  0  0
  7  8  2  0  0  0  0
  8  9  1  0  0  0  0
  8 16  1  0  0  0  0
  9 10  1  0  0  0  0
 10 11  2  0  0  0  0
 10 17  1  0  0  0  0
 11 12  1  0  0  0  0
 12 13  1  0  0  0  0
 12 16  1  0  0  0  0
 13 14  2  0  0  0  0
 14 15  1  0  0  0  0
 15 16  2  0  0  0  0
 17 18  2  0  0  0  0
 17 26  1  0  0  0  0
 18 19  1  0  0  0  0
 19 20  2  0  0  0  0
 20 21  1  0  0  0  0
 20 25  1  0  0  0  0
 21 22  1  0  0  0  0
 22 23  1  0  0  0  0
 23 24  1  0  0  0  0
 24 25  2  0  0  0  0
 25 26  1  0  0  0  0
 27 28  2  0  0  0  0
 28 29  1  0  0  0  0
 29 30  1  0  0  0  0
  1 31  1  0  0  0  0
  1 32  1  0  0  0  0
  1 33  1  0  0  0  0
  4 34  1  0  0  0  0
  5 35  1  0  0  0  0
  9 36  1  0  0  0  0
 11 37  1  0  0  0  0
 13 38  1  0  0  0  0
 14 39  1  0  0  0  0
 18 40  1  0  0  0  0
 19 41  1  0  0  0  0
 22 42  1  0  0  0  0
 22 43  1  0  0  0  0
 23 44  1  0  0  0  0
 23 45  1  0  0  0  0
 26 46  1  0  0  0  0
 26 47  1  0  0  0  0
 27 48  1  0  0  0  0
 30 49  1  0  0  0  0
 30 50  1  0  0  0  0
 30 51  1  0  0  0  0
M  END
> <IC50[nM]>
4.7

$$$$
CHEMBL3265026
  -OEChem-05192314333D
 Structure written by MMmdl.
 51 55  0     1  0  0  0  0  0999 V2000
   -4.2568   -3.1047   13.5691 C   0  0  0  0  0  0  0  0  0  0  0  0
   -3.8735   -2.3611   14.7159 O   0  0  0  0  0  0  0  0  0  0  0  0
   -2.5255   -2.1111   14.8166 C   0  0  0  0  0  0  0  0  0  0  0  0
   -1.7467   -2.8699   15.6815 C   0  0  0  0  0  0  0  0  0  0  0  0
   -0.3906   -2.6103   15.8137 C   0  0  0  0  0  0  0  0  0  0  0  0
    0.2208   -1.5857   15.0868 C   0  0  0  0  0  0  0  0  0  0  0  0
    1.6032   -1.3595   15.3238 N   0  0  0  0  0  0  0  0  0  0  0  0
    2.5348   -0.4457   14.7641 C   0  0  0  0  0  0  0  0  0  0  0  0
    2.1779    0.3778   13.7292 N   0  0  0  0  0  0  0  0  0  0  0  0
    3.1185    1.2359   13.2212 C   0  0  0  0  0  0  0  0  0  0  0  0
    4.4181    1.2809   13.7047 C   0  0  0  0  0  0  0  0  0  0  0  0
    4.7461    0.4870   14.7618 N   0  0  0  0  0  0  0  0  0  0  0  0
    5.8981    0.3788   15.4858 C   0  0  0  0  0  0  0  0  0  0  0  0
    5.5910   -0.5280   16.5270 C   0  0  0  0  0  0  0  0  0  0  0  0
    4.3781   -1.0445   16.3723 N   0  0  0  0  0  0  0  0  0  0  0  0
    3.8363   -0.3925   15.3256 C   0  0  0  0  0  0  0  0  0  0  0  0
    2.6611    2.1501   12.1240 C   0  0  0  0  0  0  0  0  0  0  0  0
    3.5712    2.6353   11.1629 C   0  0  0  0  0  0  0  0  0  0  0  0
    3.1347    3.4612   10.1202 C   0  0  0  0  0  0  0  0  0  0  0  0
    1.7926    3.8149   10.0376 C   0  0  3  0  0  0  0  0  0  0  0  0
    1.4009    4.6318    8.9894 O   0  0  0  0  0  0  0  0  0  0  0  0
    0.0085    4.5902    8.6762 C   0  0  0  0  0  0  0  0  0  0  0  0
   -0.8186    4.7372    9.9574 C   0  0  0  0  0  0  0  0  0  0  0  0
   -0.4761    3.7058   10.9290 N   0  0  0  0  0  0  0  0  0  0  0  0
    0.8817    3.3521   10.9992 C   0  0  0  0  0  0  0  0  0  0  0  0
    1.3168    2.5380   12.0350 C   0  0  0  0  0  0  0  0  0  0  0  0
   -0.5547   -0.8194   14.1898 C   0  0  0  0  0  0  0  0  0  0  0  0
   -1.9431   -1.0889   14.0597 C   0  0  0  0  0  0  0  0  0  0  0  0
   -2.7507   -0.3535   13.2059 O   0  0  0  0  0  0  0  0  0  0  0  0
   -2.2107    0.5014   12.2156 C   0  0  0  0  0  0  0  0  0  0  0  0
   -5.3466   -3.2539   13.5756 H   0  0  0  0  0  0  0  0  0  0  0  0
   -3.9677   -2.5541   12.6618 H   0  0  0  0  0  0  0  0  0  0  0  0
   -3.7529   -4.0824   13.5809 H   0  0  0  0  0  0  0  0  0  0  0  0
   -2.1996   -3.6660   16.2538 H   0  0  0  0  0  0  0  0  0  0  0  0
    0.2020   -3.2096   16.4891 H   0  0  0  0  0  0  0  0  0  0  0  0
    5.0836    1.0058   12.8732 H   0  0  0  0  0  0  0  0  0  0  0  0
    4.6170    2.3202   14.0051 H   0  0  0  0  0  0  0  0  0  0  0  0
    6.8389    0.8769   15.3035 H   0  0  0  0  0  0  0  0  0  0  0  0
    6.2571   -0.7689   17.3423 H   0  0  0  0  0  0  0  0  0  0  0  0
    4.6152    2.3673   11.2317 H   0  0  0  0  0  0  0  0  0  0  0  0
    3.8372    3.8219    9.3834 H   0  0  0  0  0  0  0  0  0  0  0  0
    1.5949    2.9260    9.4205 H   0  0  0  0  0  0  0  0  0  0  0  0
   -0.2354    5.4131    7.9882 H   0  0  0  0  0  0  0  0  0  0  0  0
   -0.2290    3.6290    8.1970 H   0  0  0  0  0  0  0  0  0  0  0  0
   -0.6226    5.7253   10.3993 H   0  0  0  0  0  0  0  0  0  0  0  0
   -1.8863    4.6530    9.7065 H   0  0  0  0  0  0  0  0  0  0  0  0
    0.6125    2.1996   12.7806 H   0  0  0  0  0  0  0  0  0  0  0  0
   -0.0958   -0.0344   13.6071 H   0  0  0  0  0  0  0  0  0  0  0  0
   -3.0291    0.9809   11.6585 H   0  0  0  0  0  0  0  0  0  0  0  0
   -1.5923    1.2740   12.6959 H   0  0  0  0  0  0  0  0  0  0  0  0
   -1.5906   -0.0862   11.5227 H   0  0  0  0  0  0  0  0  0  0  0  0
  1  2  1  0  0  0  0
  2  3  1  0  0  0  0
  3  4  2  0  0  0  0
  3 28  1  0  0  0  0
  4  5  1  0  0  0  0
  5  6  2  0  0  0  0
  6  7  1  0  0  0  0
  6 27  1  0  0  0  0
  7  8  2  0  0  0  0
  8  9  1  0  0  0  0
  8 16  1  0  0  0  0
  9 10  2  0  0  0  0
 10 11  1  0  0  0  0
 10 17  1  0  0  0  0
 11 12  1  0  0  0  0
 12 13  1  0  0  0  0
 12 16  1  0  0  0  0
 13 14  2  0  0  0  0
 14 15  1  0  0  0  0
 15 16  2  0  0  0  0
 17 18  1  0  0  0  0
 17 26  2  0  0  0  0
 18 19  2  0  0  0  0
 19 20  1  0  0  0  0
 20 21  1  0  0  0  0
 20 25  1  0  0  0  0
 21 22  1  0  0  0  0
 22 23  1  0  0  0  0
 23 24  1  0  0  0  0
 24 25  2  0  0  0  0
 25 26  1  0  0  0  0
 27 28  2  0  0  0  0
 28 29  1  0  0  0  0
 29 30  1  0  0  0  0
  1 31  1  0  0  0  0
  1 32  1  0  0  0  0
  1 33  1  0  0  0  0
  4 34  1  0  0  0  0
  5 35  1  0  0  0  0
 11 36  1  0  0  0  0
 11 37  1  0  0  0  0
 13 38  1  0  0  0  0
 14 39  1  0  0  0  0
 18 40  1  0  0  0  0
 19 41  1  0  0  0  0
 20 42  1  0  0  0  0
 22 43  1  0  0  0  0
 22 44  1  0  0  0  0
 23 45  1  0  0  0  0
 23 46  1  0  0  0  0
 26 47  1  0  0  0  0
 27 48  1  0  0  0  0
 30 49  1  0  0  0  0
 30 50  1  0  0  0  0
 30 51  1  0  0  0  0
M  END
> <IC50[nM]>
4.7

$$$$
CHEMBL3265026
  -OEChem-05192314333D
 Structure written by MMmdl.
 51 55  0     0  0  0  0  0  0999 V2000
   -4.2568   -3.1047   13.5691 C   0  0  0  0  0  0  0  0  0  0  0  0
   -3.8735   -2.3611   14.7159 O   0  0  0  0  0  0  0  0  0  0  0  0
   -2.5255   -2.1111   14.8166 C   0  0  0  0  0  0  0  0  0  0  0  0
   -1.7467   -2.8699   15.6815 C   0  0  0  0  0  0  0  0  0  0  0  0
   -0.3906   -2.6103   15.8137 C   0  0  0  0  0  0  0  0  0  0  0  0
    0.2208   -1.5857   15.0868 C   0  0  0  0  0  0  0  0  0  0  0  0
    1.6032   -1.3595   15.3238 N   0  0  0  0  0  0  0  0  0  0  0  0
    2.5348   -0.4457   14.7641 C   0  0  0  0  0  0  0  0  0  0  0  0
    2.1779    0.3778   13.7292 N   0  0  0  0  0  0  0  0  0  0  0  0
    3.1185    1.2359   13.2212 C   0  0  0  0  0  0  0  0  0  0  0  0
    4.4181    1.2809   13.7047 C   0  0  0  0  0  0  0  0  0  0  0  0
    4.7461    0.4870   14.7618 N   0  0  0  0  0  0  0  0  0  0  0  0
    5.8981    0.3788   15.4858 C   0  0  0  0  0  0  0  0  0  0  0  0
    5.5910   -0.5280   16.5270 C   0  0  0  0  0  0  0  0  0  0  0  0
    4.3781   -1.0445   16.3723 N   0  0  0  0  0  0  0  0  0  0  0  0
    3.8363   -0.3925   15.3256 C   0  0  0  0  0  0  0  0  0  0  0  0
    2.6611    2.1501   12.1240 C   0  0  0  0  0  0  0  0  0  0  0  0
    3.5712    2.6353   11.1629 C   0  0  0  0  0  0  0  0  0  0  0  0
    3.1347    3.4612   10.1202 C   0  0  0  0  0  0  0  0  0  0  0  0
    1.7926    3.8149   10.0376 C   0  0  0  0  0  0  0  0  0  0  0  0
    1.4009    4.6318    8.9894 O   0  0  0  0  0  0  0  0  0  0  0  0
    0.0085    4.5902    8.6762 C   0  0  0  0  0  0  0  0  0  0  0  0
   -0.8186    4.7372    9.9574 C   0  0  0  0  0  0  0  0  0  0  0  0
   -0.4761    3.7058   10.9290 N   0  0  0  0  0  0  0  0  0  0  0  0
    0.8817    3.3521   10.9992 C   0  0  0  0  0  0  0  0  0  0  0  0
    1.3168    2.5380   12.0350 C   0  0  0  0  0  0  0  0  0  0  0  0
   -0.5547   -0.8194   14.1898 C   0  0  0  0  0  0  0  0  0  0  0  0
   -1.9431   -1.0889   14.0597 C   0  0  0  0  0  0  0  0  0  0  0  0
   -2.7507   -0.3535   13.2059 O   0  0  0  0  0  0  0  0  0  0  0  0
   -2.2107    0.5014   12.2156 C   0  0  0  0  0  0  0  0  0  0  0  0
   -5.3466   -3.2539   13.5756 H   0  0  0  0  0  0  0  0  0  0  0  0
   -3.9677   -2.5541   12.6618 H   0  0  0  0  0  0  0  0  0  0  0  0
   -3.7529   -4.0824   13.5809 H   0  0  0  0  0  0  0  0  0  0  0  0
   -2.1996   -3.6660   16.2538 H   0  0  0  0  0  0  0  0  0  0  0  0
    0.2020   -3.2096   16.4891 H   0  0  0  0  0  0  0  0  0  0  0  0
    5.0836    1.0058   12.8732 H   0  0  0  0  0  0  0  0  0  0  0  0
    4.6170    2.3202   14.0051 H   0  0  0  0  0  0  0  0  0  0  0  0
    6.8389    0.8769   15.3035 H   0  0  0  0  0  0  0  0  0  0  0  0
    6.2571   -0.7689   17.3423 H   0  0  0  0  0  0  0  0  0  0  0  0
    4.3373    3.2015   11.7129 H   0  0  0  0  0  0  0  0  0  0  0  0
    4.0328    1.7539   10.6938 H   0  0  0  0  0  0  0  0  0  0  0  0
    3.8372    3.8219    9.3834 H   0  0  0  0  0  0  0  0  0  0  0  0
   -0.2354    5.4131    7.9882 H   0  0  0  0  0  0  0  0  0  0  0  0
   -0.2290    3.6290    8.1970 H   0  0  0  0  0  0  0  0  0  0  0  0
   -0.6226    5.7253   10.3993 H   0  0  0  0  0  0  0  0  0  0  0  0
   -1.8863    4.6530    9.7065 H   0  0  0  0  0  0  0  0  0  0  0  0
    0.6125    2.1996   12.7806 H   0  0  0  0  0  0  0  0  0  0  0  0
   -0.0958   -0.0344   13.6071 H   0  0  0  0  0  0  0  0  0  0  0  0
   -3.0291    0.9809   11.6585 H   0  0  0  0  0  0  0  0  0  0  0  0
   -1.5923    1.2740   12.6959 H   0  0  0  0  0  0  0  0  0  0  0  0
   -1.5906   -0.0862   11.5227 H   0  0  0  0  0  0  0  0  0  0  0  0
  1  2  1  0  0  0  0
  2  3  1  0  0  0  0
  3  4  2  0  0  0  0
  3 28  1  0  0  0  0
  4  5  1  0  0  0  0
  5  6  2  0  0  0  0
  6  7  1  0  0  0  0
  6 27  1  0  0  0  0
  7  8  2  0  0  0  0
  8  9  1  0  0  0  0
  8 16  1  0  0  0  0
  9 10  2  0  0  0  0
 10 11  1  0  0  0  0
 10 17  1  0  0  0  0
 11 12  1  0  0  0  0
 12 13  1  0  0  0  0
 12 16  1  0  0  0  0
 13 14  2  0  0  0  0
 14 15  1  0  0  0  0
 15 16  2  0  0  0  0
 17 18  1  0  0  0  0
 17 26  2  0  0  0  0
 18 19  1  0  0  0  0
 19 20  2  0  0  0  0
 20 21  1  0  0  0  0
 20 25  1  0  0  0  0
 21 22  1  0  0  0  0
 22 23  1  0  0  0  0
 23 24  1  0  0  0  0
 24 25  2  0  0  0  0
 25 26  1  0  0  0  0
 27 28  2  0  0  0  0
 28 29  1  0  0  0  0
 29 30  1  0  0  0  0
  1 31  1  0  0  0  0
  1 32  1  0  0  0  0
  1 33  1  0  0  0  0
  4 34  1  0  0  0  0
  5 35  1  0  0  0  0
 11 36  1  0  0  0  0
 11 37  1  0  0  0  0
 13 38  1  0  0  0  0
 14 39  1  0  0  0  0
 18 40  1  0  0  0  0
 18 41  1  0  0  0  0
 19 42  1  0  0  0  0
 22 43  1  0  0  0  0
 22 44  1  0  0  0  0
 23 45  1  0  0  0  0
 23 46  1  0  0  0  0
 26 47  1  0  0  0  0
 27 48  1  0  0  0  0
 30 49  1  0  0  0  0
 30 50  1  0  0  0  0
 30 51  1  0  0  0  0
M  END
> <IC50[nM]>
4.7

$$$$
CHEMBL3265026
  -OEChem-05192314333D
 Structure written by MMmdl.
 51 55  0     0  0  0  0  0  0999 V2000
   -4.2568   -3.1047   13.5691 C   0  0  0  0  0  0  0  0  0  0  0  0
   -3.8735   -2.3611   14.7159 O   0  0  0  0  0  0  0  0  0  0  0  0
   -2.5255   -2.1111   14.8166 C   0  0  0  0  0  0  0  0  0  0  0  0
   -1.7467   -2.8699   15.6815 C   0  0  0  0  0  0  0  0  0  0  0  0
   -0.3906   -2.6103   15.8137 C   0  0  0  0  0  0  0  0  0  0  0  0
    0.2208   -1.5857   15.0868 C   0  0  0  0  0  0  0  0  0  0  0  0
    1.6032   -1.3595   15.3238 N   0  0  0  0  0  0  0  0  0  0  0  0
    2.5348   -0.4457   14.7641 C   0  0  0  0  0  0  0  0  0  0  0  0
    2.1779    0.3778   13.7292 N   0  0  0  0  0  0  0  0  0  0  0  0
    3.1185    1.2359   13.2212 C   0  0  0  0  0  0  0  0  0  0  0  0
    4.4181    1.2809   13.7047 C   0  0  0  0  0  0  0  0  0  0  0  0
    4.7461    0.4870   14.7618 N   0  0  0  0  0  0  0  0  0  0  0  0
    5.8981    0.3788   15.4858 C   0  0  0  0  0  0  0  0  0  0  0  0
    5.5910   -0.5280   16.5270 C   0  0  0  0  0  0  0  0  0  0  0  0
    4.3781   -1.0445   16.3723 N   0  0  0  0  0  0  0  0  0  0  0  0
    3.8363   -0.3925   15.3256 C   0  0  0  0  0  0  0  0  0  0  0  0
    2.6611    2.1501   12.1240 C   0  0  0  0  0  0  0  0  0  0  0  0
    3.5712    2.6353   11.1629 C   0  0  0  0  0  0  0  0  0  0  0  0
    3.1347    3.4612   10.1202 C   0  0  0  0  0  0  0  0  0  0  0  0
    1.7926    3.8149   10.0376 C   0  0  0  0  0  0  0  0  0  0  0  0
    1.4009    4.6318    8.9894 O   0  0  0  0  0  0  0  0  0  0  0  0
    0.0085    4.5902    8.6762 C   0  0  0  0  0  0  0  0  0  0  0  0
   -0.8186    4.7372    9.9574 C   0  0  0  0  0  0  0  0  0  0  0  0
   -0.4761    3.7058   10.9290 N   0  0  0  0  0  0  0  0  0  0  0  0
    0.8817    3.3521   10.9992 C   0  0  0  0  0  0  0  0  0  0  0  0
    1.3168    2.5380   12.0350 C   0  0  0  0  0  0  0  0  0  0  0  0
   -0.5547   -0.8194   14.1898 C   0  0  0  0  0  0  0  0  0  0  0  0
   -1.9431   -1.0889   14.0597 C   0  0  0  0  0  0  0  0  0  0  0  0
   -2.7507   -0.3535   13.2059 O   0  0  0  0  0  0  0  0  0  0  0  0
   -2.2107    0.5014   12.2156 C   0  0  0  0  0  0  0  0  0  0  0  0
   -5.3466   -3.2539   13.5756 H   0  0  0  0  0  0  0  0  0  0  0  0
   -3.9677   -2.5541   12.6618 H   0  0  0  0  0  0  0  0  0  0  0  0
   -3.7529   -4.0824   13.5809 H   0  0  0  0  0  0  0  0  0  0  0  0
   -2.1996   -3.6660   16.2538 H   0  0  0  0  0  0  0  0  0  0  0  0
    0.2020   -3.2096   16.4891 H   0  0  0  0  0  0  0  0  0  0  0  0
    5.0836    1.0058   12.8732 H   0  0  0  0  0  0  0  0  0  0  0  0
    4.6170    2.3202   14.0051 H   0  0  0  0  0  0  0  0  0  0  0  0
    6.8389    0.8769   15.3035 H   0  0  0  0  0  0  0  0  0  0  0  0
    6.2571   -0.7689   17.3423 H   0  0  0  0  0  0  0  0  0  0  0  0
    4.6152    2.3673   11.2317 H   0  0  0  0  0  0  0  0  0  0  0  0
    3.8372    3.8219    9.3834 H   0  0  0  0  0  0  0  0  0  0  0  0
   -0.2354    5.4131    7.9882 H   0  0  0  0  0  0  0  0  0  0  0  0
   -0.2290    3.6290    8.1970 H   0  0  0  0  0  0  0  0  0  0  0  0
   -0.6226    5.7253   10.3993 H   0  0  0  0  0  0  0  0  0  0  0  0
   -1.8863    4.6530    9.7065 H   0  0  0  0  0  0  0  0  0  0  0  0
    0.7258    1.6121   11.9764 H   0  0  0  0  0  0  0  0  0  0  0  0
    1.0795    3.0659   12.9704 H   0  0  0  0  0  0  0  0  0  0  0  0
   -0.0958   -0.0344   13.6071 H   0  0  0  0  0  0  0  0  0  0  0  0
   -3.0291    0.9809   11.6585 H   0  0  0  0  0  0  0  0  0  0  0  0
   -1.5923    1.2740   12.6959 H   0  0  0  0  0  0  0  0  0  0  0  0
   -1.5906   -0.0862   11.5227 H   0  0  0  0  0  0  0  0  0  0  0  0
  1  2  1  0  0  0  0
  2  3  1  0  0  0  0
  3  4  2  0  0  0  0
  3 28  1  0  0  0  0
  4  5  1  0  0  0  0
  5  6  2  0  0  0  0
  6  7  1  0  0  0  0
  6 27  1  0  0  0  0
  7  8  2  0  0  0  0
  8  9  1  0  0  0  0
  8 16  1  0  0  0  0
  9 10  2  0  0  0  0
 10 11  1  0  0  0  0
 10 17  1  0  0  0  0
 11 12  1  0  0  0  0
 12 13  1  0  0  0  0
 12 16  1  0  0  0  0
 13 14  2  0  0  0  0
 14 15  1  0  0  0  0
 15 16  2  0  0  0  0
 17 18  2  0  0  0  0
 17 26  1  0  0  0  0
 18 19  1  0  0  0  0
 19 20  2  0  0  0  0
 20 21  1  0  0  0  0
 20 25  1  0  0  0  0
 21 22  1  0  0  0  0
 22 23  1  0  0  0  0
 23 24  1  0  0  0  0
 24 25  2  0  0  0  0
 25 26  1  0  0  0  0
 27 28  2  0  0  0  0
 28 29  1  0  0  0  0
 29 30  1  0  0  0  0
  1 31  1  0  0  0  0
  1 32  1  0  0  0  0
  1 33  1  0  0  0  0
  4 34  1  0  0  0  0
  5 35  1  0  0  0  0
 11 36  1  0  0  0  0
 11 37  1  0  0  0  0
 13 38  1  0  0  0  0
 14 39  1  0  0  0  0
 18 40  1  0  0  0  0
 19 41  1  0  0  0  0
 22 42  1  0  0  0  0
 22 43  1  0  0  0  0
 23 44  1  0  0  0  0
 23 45  1  0  0  0  0
 26 46  1  0  0  0  0
 26 47  1  0  0  0  0
 27 48  1  0  0  0  0
 30 49  1  0  0  0  0
 30 50  1  0  0  0  0
 30 51  1  0  0  0  0
M  END
> <IC50[nM]>
4.7

$$$$
CHEMBL3265026
  -OEChem-05192314333D
 Structure written by MMmdl.
 51 55  0     1  0  0  0  0  0999 V2000
   -4.2568   -3.1047   13.5691 C   0  0  0  0  0  0  0  0  0  0  0  0
   -3.8735   -2.3611   14.7159 O   0  0  0  0  0  0  0  0  0  0  0  0
   -2.5255   -2.1111   14.8166 C   0  0  3  0  0  0  0  0  0  0  0  0
   -1.7467   -2.8699   15.6815 C   0  0  0  0  0  0  0  0  0  0  0  0
   -0.3906   -2.6103   15.8137 C   0  0  0  0  0  0  0  0  0  0  0  0
    0.2208   -1.5857   15.0868 C   0  0  0  0  0  0  0  0  0  0  0  0
    1.6032   -1.3595   15.3238 N   0  0  0  0  0  0  0  0  0  0  0  0
    2.5348   -0.4457   14.7641 C   0  0  0  0  0  0  0  0  0  0  0  0
    2.1779    0.3778   13.7292 N   0  0  0  0  0  0  0  0  0  0  0  0
    3.1185    1.2359   13.2212 C   0  0  0  0  0  0  0  0  0  0  0  0
    4.4181    1.2809   13.7047 C   0  0  0  0  0  0  0  0  0  0  0  0
    4.7461    0.4870   14.7618 N   0  0  0  0  0  0  0  0  0  0  0  0
    5.8981    0.3788   15.4858 C   0  0  0  0  0  0  0  0  0  0  0  0
    5.5910   -0.5280   16.5270 C   0  0  0  0  0  0  0  0  0  0  0  0
    4.3781   -1.0445   16.3723 N   0  0  0  0  0  0  0  0  0  0  0  0
    3.8363   -0.3925   15.3256 C   0  0  0  0  0  0  0  0  0  0  0  0
    2.6611    2.1501   12.1240 C   0  0  0  0  0  0  0  0  0  0  0  0
    3.5712    2.6353   11.1629 C   0  0  0  0  0  0  0  0  0  0  0  0
    3.1347    3.4612   10.1202 C   0  0  0  0  0  0  0  0  0  0  0  0
    1.7926    3.8149   10.0376 C   0  0  3  0  0  0  0  0  0  0  0  0
    1.4009    4.6318    8.9894 O   0  0  0  0  0  0  0  0  0  0  0  0
    0.0085    4.5902    8.6762 C   0  0  0  0  0  0  0  0  0  0  0  0
   -0.8186    4.7372    9.9574 C   0  0  0  0  0  0  0  0  0  0  0  0
   -0.4761    3.7058   10.9290 N   0  0  0  0  0  0  0  0  0  0  0  0
    0.8817    3.3521   10.9992 C   0  0  0  0  0  0  0  0  0  0  0  0
    1.3168    2.5380   12.0350 C   0  0  0  0  0  0  0  0  0  0  0  0
   -0.5547   -0.8194   14.1898 C   0  0  0  0  0  0  0  0  0  0  0  0
   -1.9431   -1.0889   14.0597 C   0  0  0  0  0  0  0  0  0  0  0  0
   -2.7507   -0.3535   13.2059 O   0  0  0  0  0  0  0  0  0  0  0  0
   -2.2107    0.5014   12.2156 C   0  0  0  0  0  0  0  0  0  0  0  0
   -5.3466   -3.2539   13.5756 H   0  0  0  0  0  0  0  0  0  0  0  0
   -3.9677   -2.5541   12.6618 H   0  0  0  0  0  0  0  0  0  0  0  0
   -3.7529   -4.0824   13.5809 H   0  0  0  0  0  0  0  0  0  0  0  0
   -2.3288   -2.8278   14.0057 H   0  0  0  0  0  0  0  0  0  0  0  0
   -2.1996   -3.6660   16.2538 H   0  0  0  0  0  0  0  0  0  0  0  0
    0.2020   -3.2096   16.4891 H   0  0  0  0  0  0  0  0  0  0  0  0
    5.1531    1.9307   13.2531 H   0  0  0  0  0  0  0  0  0  0  0  0
    6.8389    0.8769   15.3035 H   0  0  0  0  0  0  0  0  0  0  0  0
    6.2571   -0.7689   17.3423 H   0  0  0  0  0  0  0  0  0  0  0  0
    4.6152    2.3673   11.2317 H   0  0  0  0  0  0  0  0  0  0  0  0
    3.8372    3.8219    9.3834 H   0  0  0  0  0  0  0  0  0  0  0  0
    1.5949    2.9260    9.4205 H   0  0  0  0  0  0  0  0  0  0  0  0
   -0.2354    5.4131    7.9882 H   0  0  0  0  0  0  0  0  0  0  0  0
   -0.2290    3.6290    8.1970 H   0  0  0  0  0  0  0  0  0  0  0  0
   -0.6226    5.7253   10.3993 H   0  0  0  0  0  0  0  0  0  0  0  0
   -1.8863    4.6530    9.7065 H   0  0  0  0  0  0  0  0  0  0  0  0
    0.6125    2.1996   12.7806 H   0  0  0  0  0  0  0  0  0  0  0  0
   -0.0958   -0.0344   13.6071 H   0  0  0  0  0  0  0  0  0  0  0  0
   -3.0291    0.9809   11.6585 H   0  0  0  0  0  0  0  0  0  0  0  0
   -1.5923    1.2740   12.6959 H   0  0  0  0  0  0  0  0  0  0  0  0
   -1.5906   -0.0862   11.5227 H   0  0  0  0  0  0  0  0  0  0  0  0
  1  2  1  0  0  0  0
  2  3  1  0  0  0  0
  3  4  1  0  0  0  0
  3 28  1  0  0  0  0
  4  5  2  0  0  0  0
  5  6  1  0  0  0  0
  6  7  2  0  0  0  0
  6 27  1  0  0  0  0
  7  8  1  0  0  0  0
  8  9  2  0  0  0  0
  8 16  1  0  0  0  0
  9 10  1  0  0  0  0
 10 11  2  0  0  0  0
 10 17  1  0  0  0  0
 11 12  1  0  0  0  0
 12 13  1  0  0  0  0
 12 16  1  0  0  0  0
 13 14  2  0  0  0  0
 14 15  1  0  0  0  0
 15 16  2  0  0  0  0
 17 18  1  0  0  0  0
 17 26  2  0  0  0  0
 18 19  2  0  0  0  0
 19 20  1  0  0  0  0
 20 21  1  0  0  0  0
 20 25  1  0  0  0  0
 21 22  1  0  0  0  0
 22 23  1  0  0  0  0
 23 24  1  0  0  0  0
 24 25  2  0  0  0  0
 25 26  1  0  0  0  0
 27 28  2  0  0  0  0
 28 29  1  0  0  0  0
 29 30  1  0  0  0  0
  1 31  1  0  0  0  0
  1 32  1  0  0  0  0
  1 33  1  0  0  0  0
  3 34  1  0  0  0  0
  4 35  1  0  0  0  0
  5 36  1  0  0  0  0
 11 37  1  0  0  0  0
 13 38  1  0  0  0  0
 14 39  1  0  0  0  0
 18 40  1  0  0  0  0
 19 41  1  0  0  0  0
 20 42  1  0  0  0  0
 22 43  1  0  0  0  0
 22 44  1  0  0  0  0
 23 45  1  0  0  0  0
 23 46  1  0  0  0  0
 26 47  1  0  0  0  0
 27 48  1  0  0  0  0
 30 49  1  0  0  0  0
 30 50  1  0  0  0  0
 30 51  1  0  0  0  0
M  END
> <IC50[nM]>
4.7

$$$$
CHEMBL3265026
  -OEChem-05192314333D
 Structure written by MMmdl.
 51 55  0     1  0  0  0  0  0999 V2000
   -4.2568   -3.1047   13.5691 C   0  0  0  0  0  0  0  0  0  0  0  0
   -3.8735   -2.3611   14.7159 O   0  0  0  0  0  0  0  0  0  0  0  0
   -2.5255   -2.1111   14.8166 C   0  0  0  0  0  0  0  0  0  0  0  0
   -1.7467   -2.8699   15.6815 C   0  0  0  0  0  0  0  0  0  0  0  0
   -0.3906   -2.6103   15.8137 C   0  0  0  0  0  0  0  0  0  0  0  0
    0.2208   -1.5857   15.0868 C   0  0  0  0  0  0  0  0  0  0  0  0
    1.6032   -1.3595   15.3238 N   0  0  0  0  0  0  0  0  0  0  0  0
    2.5348   -0.4457   14.7641 C   0  0  0  0  0  0  0  0  0  0  0  0
    2.1779    0.3778   13.7292 N   0  0  0  0  0  0  0  0  0  0  0  0
    3.1185    1.2359   13.2212 C   0  0  0  0  0  0  0  0  0  0  0  0
    4.4181    1.2809   13.7047 C   0  0  0  0  0  0  0  0  0  0  0  0
    4.7461    0.4870   14.7618 N   0  0  0  0  0  0  0  0  0  0  0  0
    5.8981    0.3788   15.4858 C   0  0  0  0  0  0  0  0  0  0  0  0
    5.5910   -0.5280   16.5270 C   0  0  0  0  0  0  0  0  0  0  0  0
    4.3781   -1.0445   16.3723 N   0  0  0  0  0  0  0  0  0  0  0  0
    3.8363   -0.3925   15.3256 C   0  0  0  0  0  0  0  0  0  0  0  0
    2.6611    2.1501   12.1240 C   0  0  0  0  0  0  0  0  0  0  0  0
    3.5712    2.6353   11.1629 C   0  0  0  0  0  0  0  0  0  0  0  0
    3.1347    3.4612   10.1202 C   0  0  0  0  0  0  0  0  0  0  0  0
    1.7926    3.8149   10.0376 C   0  0  3  0  0  0  0  0  0  0  0  0
    1.4009    4.6318    8.9894 O   0  0  0  0  0  0  0  0  0  0  0  0
    0.0085    4.5902    8.6762 C   0  0  0  0  0  0  0  0  0  0  0  0
   -0.8186    4.7372    9.9574 C   0  0  0  0  0  0  0  0  0  0  0  0
   -0.4761    3.7058   10.9290 N   0  0  0  0  0  0  0  0  0  0  0  0
    0.8817    3.3521   10.9992 C   0  0  0  0  0  0  0  0  0  0  0  0
    1.3168    2.5380   12.0350 C   0  0  0  0  0  0  0  0  0  0  0  0
   -0.5547   -0.8194   14.1898 C   0  0  0  0  0  0  0  0  0  0  0  0
   -1.9431   -1.0889   14.0597 C   0  0  0  0  0  0  0  0  0  0  0  0
   -2.7507   -0.3535   13.2059 O   0  0  0  0  0  0  0  0  0  0  0  0
   -2.2107    0.5014   12.2156 C   0  0  0  0  0  0  0  0  0  0  0  0
   -5.3466   -3.2539   13.5756 H   0  0  0  0  0  0  0  0  0  0  0  0
   -3.9677   -2.5541   12.6618 H   0  0  0  0  0  0  0  0  0  0  0  0
   -3.7529   -4.0824   13.5809 H   0  0  0  0  0  0  0  0  0  0  0  0
   -2.1996   -3.6660   16.2538 H   0  0  0  0  0  0  0  0  0  0  0  0
   -0.2175   -2.3858   16.8765 H   0  0  0  0  0  0  0  0  0  0  0  0
    0.1332   -3.5396   15.5452 H   0  0  0  0  0  0  0  0  0  0  0  0
    5.1531    1.9307   13.2531 H   0  0  0  0  0  0  0  0  0  0  0  0
    6.8389    0.8769   15.3035 H   0  0  0  0  0  0  0  0  0  0  0  0
    6.2571   -0.7689   17.3423 H   0  0  0  0  0  0  0  0  0  0  0  0
    4.6152    2.3673   11.2317 H   0  0  0  0  0  0  0  0  0  0  0  0
    3.8372    3.8219    9.3834 H   0  0  0  0  0  0  0  0  0  0  0  0
    1.5949    2.9260    9.4205 H   0  0  0  0  0  0  0  0  0  0  0  0
   -0.2354    5.4131    7.9882 H   0  0  0  0  0  0  0  0  0  0  0  0
   -0.2290    3.6290    8.1970 H   0  0  0  0  0  0  0  0  0  0  0  0
   -0.6226    5.7253   10.3993 H   0  0  0  0  0  0  0  0  0  0  0  0
   -1.8863    4.6530    9.7065 H   0  0  0  0  0  0  0  0  0  0  0  0
    0.6125    2.1996   12.7806 H   0  0  0  0  0  0  0  0  0  0  0  0
   -0.0958   -0.0344   13.6071 H   0  0  0  0  0  0  0  0  0  0  0  0
   -3.0291    0.9809   11.6585 H   0  0  0  0  0  0  0  0  0  0  0  0
   -1.5923    1.2740   12.6959 H   0  0  0  0  0  0  0  0  0  0  0  0
   -1.5906   -0.0862   11.5227 H   0  0  0  0  0  0  0  0  0  0  0  0
  1  2  1  0  0  0  0
  2  3  1  0  0  0  0
  3  4  2  0  0  0  0
  3 28  1  0  0  0  0
  4  5  1  0  0  0  0
  5  6  1  0  0  0  0
  6  7  2  0  0  0  0
  6 27  1  0  0  0  0
  7  8  1  0  0  0  0
  8  9  2  0  0  0  0
  8 16  1  0  0  0  0
  9 10  1  0  0  0  0
 10 11  2  0  0  0  0
 10 17  1  0  0  0  0
 11 12  1  0  0  0  0
 12 13  1  0  0  0  0
 12 16  1  0  0  0  0
 13 14  2  0  0  0  0
 14 15  1  0  0  0  0
 15 16  2  0  0  0  0
 17 18  1  0  0  0  0
 17 26  2  0  0  0  0
 18 19  2  0  0  0  0
 19 20  1  0  0  0  0
 20 21  1  0  0  0  0
 20 25  1  0  0  0  0
 21 22  1  0  0  0  0
 22 23  1  0  0  0  0
 23 24  1  0  0  0  0
 24 25  2  0  0  0  0
 25 26  1  0  0  0  0
 27 28  2  0  0  0  0
 28 29  1  0  0  0  0
 29 30  1  0  0  0  0
  1 31  1  0  0  0  0
  1 32  1  0  0  0  0
  1 33  1  0  0  0  0
  4 34  1  0  0  0  0
  5 35  1  0  0  0  0
  5 36  1  0  0  0  0
 11 37  1  0  0  0  0
 13 38  1  0  0  0  0
 14 39  1  0  0  0  0
 18 40  1  0  0  0  0
 19 41  1  0  0  0  0
 20 42  1  0  0  0  0
 22 43  1  0  0  0  0
 22 44  1  0  0  0  0
 23 45  1  0  0  0  0
 23 46  1  0  0  0  0
 26 47  1  0  0  0  0
 27 48  1  0  0  0  0
 30 49  1  0  0  0  0
 30 50  1  0  0  0  0
 30 51  1  0  0  0  0
M  END
> <IC50[nM]>
4.7

$$$$
CHEMBL3265026
  -OEChem-05192314333D
 Structure written by MMmdl.
 51 55  0     1  0  0  0  0  0999 V2000
   -4.2568   -3.1047   13.5691 C   0  0  0  0  0  0  0  0  0  0  0  0
   -3.8735   -2.3611   14.7159 O   0  0  0  0  0  0  0  0  0  0  0  0
   -2.5255   -2.1111   14.8166 C   0  0  3  0  0  0  0  0  0  0  0  0
   -1.7467   -2.8699   15.6815 C   0  0  0  0  0  0  0  0  0  0  0  0
   -0.3906   -2.6103   15.8137 C   0  0  0  0  0  0  0  0  0  0  0  0
    0.2208   -1.5857   15.0868 C   0  0  0  0  0  0  0  0  0  0  0  0
    1.6032   -1.3595   15.3238 N   0  0  0  0  0  0  0  0  0  0  0  0
    2.5348   -0.4457   14.7641 C   0  0  0  0  0  0  0  0  0  0  0  0
    2.1779    0.3778   13.7292 N   0  0  0  0  0  0  0  0  0  0  0  0
    3.1185    1.2359   13.2212 C   0  0  0  0  0  0  0  0  0  0  0  0
    4.4181    1.2809   13.7047 C   0  0  0  0  0  0  0  0  0  0  0  0
    4.7461    0.4870   14.7618 N   0  0  0  0  0  0  0  0  0  0  0  0
    5.8981    0.3788   15.4858 C   0  0  0  0  0  0  0  0  0  0  0  0
    5.5910   -0.5280   16.5270 C   0  0  0  0  0  0  0  0  0  0  0  0
    4.3781   -1.0445   16.3723 N   0  0  0  0  0  0  0  0  0  0  0  0
    3.8363   -0.3925   15.3256 C   0  0  0  0  0  0  0  0  0  0  0  0
    2.6611    2.1501   12.1240 C   0  0  0  0  0  0  0  0  0  0  0  0
    3.5712    2.6353   11.1629 C   0  0  0  0  0  0  0  0  0  0  0  0
    3.1347    3.4612   10.1202 C   0  0  0  0  0  0  0  0  0  0  0  0
    1.7926    3.8149   10.0376 C   0  0  0  0  0  0  0  0  0  0  0  0
    1.4009    4.6318    8.9894 O   0  0  0  0  0  0  0  0  0  0  0  0
    0.0085    4.5902    8.6762 C   0  0  0  0  0  0  0  0  0  0  0  0
   -0.8186    4.7372    9.9574 C   0  0  0  0  0  0  0  0  0  0  0  0
   -0.4761    3.7058   10.9290 N   0  0  0  0  0  0  0  0  0  0  0  0
    0.8817    3.3521   10.9992 C   0  0  0  0  0  0  0  0  0  0  0  0
    1.3168    2.5380   12.0350 C   0  0  0  0  0  0  0  0  0  0  0  0
   -0.5547   -0.8194   14.1898 C   0  0  0  0  0  0  0  0  0  0  0  0
   -1.9431   -1.0889   14.0597 C   0  0  0  0  0  0  0  0  0  0  0  0
   -2.7507   -0.3535   13.2059 O   0  0  0  0  0  0  0  0  0  0  0  0
   -2.2107    0.5014   12.2156 C   0  0  0  0  0  0  0  0  0  0  0  0
   -5.3466   -3.2539   13.5756 H   0  0  0  0  0  0  0  0  0  0  0  0
   -3.9677   -2.5541   12.6618 H   0  0  0  0  0  0  0  0  0  0  0  0
   -3.7529   -4.0824   13.5809 H   0  0  0  0  0  0  0  0  0  0  0  0
   -2.3288   -2.8278   14.0057 H   0  0  0  0  0  0  0  0  0  0  0  0
   -2.1996   -3.6660   16.2538 H   0  0  0  0  0  0  0  0  0  0  0  0
    0.2020   -3.2096   16.4891 H   0  0  0  0  0  0  0  0  0  0  0  0
    5.1531    1.9307   13.2531 H   0  0  0  0  0  0  0  0  0  0  0  0
    6.8389    0.8769   15.3035 H   0  0  0  0  0  0  0  0  0  0  0  0
    6.2571   -0.7689   17.3423 H   0  0  0  0  0  0  0  0  0  0  0  0
    4.3373    3.2015   11.7129 H   0  0  0  0  0  0  0  0  0  0  0  0
    4.0328    1.7539   10.6938 H   0  0  0  0  0  0  0  0  0  0  0  0
    3.8372    3.8219    9.3834 H   0  0  0  0  0  0  0  0  0  0  0  0
   -0.2354    5.4131    7.9882 H   0  0  0  0  0  0  0  0  0  0  0  0
   -0.2290    3.6290    8.1970 H   0  0  0  0  0  0  0  0  0  0  0  0
   -0.6226    5.7253   10.3993 H   0  0  0  0  0  0  0  0  0  0  0  0
   -1.8863    4.6530    9.7065 H   0  0  0  0  0  0  0  0  0  0  0  0
    0.6125    2.1996   12.7806 H   0  0  0  0  0  0  0  0  0  0  0  0
   -0.0958   -0.0344   13.6071 H   0  0  0  0  0  0  0  0  0  0  0  0
   -3.0291    0.9809   11.6585 H   0  0  0  0  0  0  0  0  0  0  0  0
   -1.5923    1.2740   12.6959 H   0  0  0  0  0  0  0  0  0  0  0  0
   -1.5906   -0.0862   11.5227 H   0  0  0  0  0  0  0  0  0  0  0  0
  1  2  1  0  0  0  0
  2  3  1  0  0  0  0
  3  4  1  0  0  0  0
  3 28  1  0  0  0  0
  4  5  2  0  0  0  0
  5  6  1  0  0  0  0
  6  7  2  0  0  0  0
  6 27  1  0  0  0  0
  7  8  1  0  0  0  0
  8  9  2  0  0  0  0
  8 16  1  0  0  0  0
  9 10  1  0  0  0  0
 10 11  2  0  0  0  0
 10 17  1  0  0  0  0
 11 12  1  0  0  0  0
 12 13  1  0  0  0  0
 12 16  1  0  0  0  0
 13 14  2  0  0  0  0
 14 15  1  0  0  0  0
 15 16  2  0  0  0  0
 17 18  1  0  0  0  0
 17 26  2  0  0  0  0
 18 19  1  0  0  0  0
 19 20  2  0  0  0  0
 20 21  1  0  0  0  0
 20 25  1  0  0  0  0
 21 22  1  0  0  0  0
 22 23  1  0  0  0  0
 23 24  1  0  0  0  0
 24 25  2  0  0  0  0
 25 26  1  0  0  0  0
 27 28  2  0  0  0  0
 28 29  1  0  0  0  0
 29 30  1  0  0  0  0
  1 31  1  0  0  0  0
  1 32  1  0  0  0  0
  1 33  1  0  0  0  0
  3 34  1  0  0  0  0
  4 35  1  0  0  0  0
  5 36  1  0  0  0  0
 11 37  1  0  0  0  0
 13 38  1  0  0  0  0
 14 39  1  0  0  0  0
 18 40  1  0  0  0  0
 18 41  1  0  0  0  0
 19 42  1  0  0  0  0
 22 43  1  0  0  0  0
 22 44  1  0  0  0  0
 23 45  1  0  0  0  0
 23 46  1  0  0  0  0
 26 47  1  0  0  0  0
 27 48  1  0  0  0  0
 30 49  1  0  0  0  0
 30 50  1  0  0  0  0
 30 51  1  0  0  0  0
M  END
> <IC50[nM]>
4.7

$$$$
CHEMBL3265026
  -OEChem-05192314333D
 Structure written by MMmdl.
 51 55  0     0  0  0  0  0  0999 V2000
   -4.2568   -3.1047   13.5691 C   0  0  0  0  0  0  0  0  0  0  0  0
   -3.8735   -2.3611   14.7159 O   0  0  0  0  0  0  0  0  0  0  0  0
   -2.5255   -2.1111   14.8166 C   0  0  0  0  0  0  0  0  0  0  0  0
   -1.7467   -2.8699   15.6815 C   0  0  0  0  0  0  0  0  0  0  0  0
   -0.3906   -2.6103   15.8137 C   0  0  0  0  0  0  0  0  0  0  0  0
    0.2208   -1.5857   15.0868 C   0  0  0  0  0  0  0  0  0  0  0  0
    1.6032   -1.3595   15.3238 N   0  0  0  0  0  0  0  0  0  0  0  0
    2.5348   -0.4457   14.7641 C   0  0  0  0  0  0  0  0  0  0  0  0
    2.1779    0.3778   13.7292 N   0  0  0  0  0  0  0  0  0  0  0  0
    3.1185    1.2359   13.2212 C   0  0  0  0  0  0  0  0  0  0  0  0
    4.4181    1.2809   13.7047 C   0  0  0  0  0  0  0  0  0  0  0  0
    4.7461    0.4870   14.7618 N   0  0  0  0  0  0  0  0  0  0  0  0
    5.8981    0.3788   15.4858 C   0  0  0  0  0  0  0  0  0  0  0  0
    5.5910   -0.5280   16.5270 C   0  0  0  0  0  0  0  0  0  0  0  0
    4.3781   -1.0445   16.3723 N   0  0  0  0  0  0  0  0  0  0  0  0
    3.8363   -0.3925   15.3256 C   0  0  0  0  0  0  0  0  0  0  0  0
    2.6611    2.1501   12.1240 C   0  0  0  0  0  0  0  0  0  0  0  0
    3.5712    2.6353   11.1629 C   0  0  0  0  0  0  0  0  0  0  0  0
    3.1347    3.4612   10.1202 C   0  0  0  0  0  0  0  0  0  0  0  0
    1.7926    3.8149   10.0376 C   0  0  0  0  0  0  0  0  0  0  0  0
    1.4009    4.6318    8.9894 O   0  0  0  0  0  0  0  0  0  0  0  0
    0.0085    4.5902    8.6762 C   0  0  0  0  0  0  0  0  0  0  0  0
   -0.8186    4.7372    9.9574 C   0  0  0  0  0  0  0  0  0  0  0  0
   -0.4761    3.7058   10.9290 N   0  0  0  0  0  0  0  0  0  0  0  0
    0.8817    3.3521   10.9992 C   0  0  0  0  0  0  0  0  0  0  0  0
    1.3168    2.5380   12.0350 C   0  0  0  0  0  0  0  0  0  0  0  0
   -0.5547   -0.8194   14.1898 C   0  0  0  0  0  0  0  0  0  0  0  0
   -1.9431   -1.0889   14.0597 C   0  0  0  0  0  0  0  0  0  0  0  0
   -2.7507   -0.3535   13.2059 O   0  0  0  0  0  0  0  0  0  0  0  0
   -2.2107    0.5014   12.2156 C   0  0  0  0  0  0  0  0  0  0  0  0
   -5.3466   -3.2539   13.5756 H   0  0  0  0  0  0  0  0  0  0  0  0
   -3.9677   -2.5541   12.6618 H   0  0  0  0  0  0  0  0  0  0  0  0
   -3.7529   -4.0824   13.5809 H   0  0  0  0  0  0  0  0  0  0  0  0
   -2.1996   -3.6660   16.2538 H   0  0  0  0  0  0  0  0  0  0  0  0
   -0.2175   -2.3858   16.8765 H   0  0  0  0  0  0  0  0  0  0  0  0
    0.1332   -3.5396   15.5452 H   0  0  0  0  0  0  0  0  0  0  0  0
    5.1531    1.9307   13.2531 H   0  0  0  0  0  0  0  0  0  0  0  0
    6.8389    0.8769   15.3035 H   0  0  0  0  0  0  0  0  0  0  0  0
    6.2571   -0.7689   17.3423 H   0  0  0  0  0  0  0  0  0  0  0  0
    4.3373    3.2015   11.7129 H   0  0  0  0  0  0  0  0  0  0  0  0
    4.0328    1.7539   10.6938 H   0  0  0  0  0  0  0  0  0  0  0  0
    3.8372    3.8219    9.3834 H   0  0  0  0  0  0  0  0  0  0  0  0
   -0.2354    5.4131    7.9882 H   0  0  0  0  0  0  0  0  0  0  0  0
   -0.2290    3.6290    8.1970 H   0  0  0  0  0  0  0  0  0  0  0  0
   -0.6226    5.7253   10.3993 H   0  0  0  0  0  0  0  0  0  0  0  0
   -1.8863    4.6530    9.7065 H   0  0  0  0  0  0  0  0  0  0  0  0
    0.6125    2.1996   12.7806 H   0  0  0  0  0  0  0  0  0  0  0  0
   -0.0958   -0.0344   13.6071 H   0  0  0  0  0  0  0  0  0  0  0  0
   -3.0291    0.9809   11.6585 H   0  0  0  0  0  0  0  0  0  0  0  0
   -1.5923    1.2740   12.6959 H   0  0  0  0  0  0  0  0  0  0  0  0
   -1.5906   -0.0862   11.5227 H   0  0  0  0  0  0  0  0  0  0  0  0
  1  2  1  0  0  0  0
  2  3  1  0  0  0  0
  3  4  2  0  0  0  0
  3 28  1  0  0  0  0
  4  5  1  0  0  0  0
  5  6  1  0  0  0  0
  6  7  2  0  0  0  0
  6 27  1  0  0  0  0
  7  8  1  0  0  0  0
  8  9  2  0  0  0  0
  8 16  1  0  0  0  0
  9 10  1  0  0  0  0
 10 11  2  0  0  0  0
 10 17  1  0  0  0  0
 11 12  1  0  0  0  0
 12 13  1  0  0  0  0
 12 16  1  0  0  0  0
 13 14  2  0  0  0  0
 14 15  1  0  0  0  0
 15 16  2  0  0  0  0
 17 18  1  0  0  0  0
 17 26  2  0  0  0  0
 18 19  1  0  0  0  0
 19 20  2  0  0  0  0
 20 21  1  0  0  0  0
 20 25  1  0  0  0  0
 21 22  1  0  0  0  0
 22 23  1  0  0  0  0
 23 24  1  0  0  0  0
 24 25  2  0  0  0  0
 25 26  1  0  0  0  0
 27 28  2  0  0  0  0
 28 29  1  0  0  0  0
 29 30  1  0  0  0  0
  1 31  1  0  0  0  0
  1 32  1  0  0  0  0
  1 33  1  0  0  0  0
  4 34  1  0  0  0  0
  5 35  1  0  0  0  0
  5 36  1  0  0  0  0
 11 37  1  0  0  0  0
 13 38  1  0  0  0  0
 14 39  1  0  0  0  0
 18 40  1  0  0  0  0
 18 41  1  0  0  0  0
 19 42  1  0  0  0  0
 22 43  1  0  0  0  0
 22 44  1  0  0  0  0
 23 45  1  0  0  0  0
 23 46  1  0  0  0  0
 26 47  1  0  0  0  0
 27 48  1  0  0  0  0
 30 49  1  0  0  0  0
 30 50  1  0  0  0  0
 30 51  1  0  0  0  0
M  END
> <IC50[nM]>
4.7

$$$$
CHEMBL3265026
  -OEChem-05192314333D
 Structure written by MMmdl.
 51 55  0     1  0  0  0  0  0999 V2000
   -4.2568   -3.1047   13.5691 C   0  0  0  0  0  0  0  0  0  0  0  0
   -3.8735   -2.3611   14.7159 O   0  0  0  0  0  0  0  0  0  0  0  0
   -2.5255   -2.1111   14.8166 C   0  0  0  0  0  0  0  0  0  0  0  0
   -1.7467   -2.8699   15.6815 C   0  0  0  0  0  0  0  0  0  0  0  0
   -0.3906   -2.6103   15.8137 C   0  0  0  0  0  0  0  0  0  0  0  0
    0.2208   -1.5857   15.0868 C   0  0  0  0  0  0  0  0  0  0  0  0
    1.6032   -1.3595   15.3238 N   0  0  0  0  0  0  0  0  0  0  0  0
    2.5348   -0.4457   14.7641 C   0  0  0  0  0  0  0  0  0  0  0  0
    2.1779    0.3778   13.7292 N   0  0  0  0  0  0  0  0  0  0  0  0
    3.1185    1.2359   13.2212 C   0  0  0  0  0  0  0  0  0  0  0  0
    4.4181    1.2809   13.7047 C   0  0  0  0  0  0  0  0  0  0  0  0
    4.7461    0.4870   14.7618 N   0  0  0  0  0  0  0  0  0  0  0  0
    5.8981    0.3788   15.4858 C   0  0  0  0  0  0  0  0  0  0  0  0
    5.5910   -0.5280   16.5270 C   0  0  0  0  0  0  0  0  0  0  0  0
    4.3781   -1.0445   16.3723 N   0  0  0  0  0  0  0  0  0  0  0  0
    3.8363   -0.3925   15.3256 C   0  0  0  0  0  0  0  0  0  0  0  0
    2.6611    2.1501   12.1240 C   0  0  0  0  0  0  0  0  0  0  0  0
    3.5712    2.6353   11.1629 C   0  0  0  0  0  0  0  0  0  0  0  0
    3.1347    3.4612   10.1202 C   0  0  0  0  0  0  0  0  0  0  0  0
    1.7926    3.8149   10.0376 C   0  0  3  0  0  0  0  0  0  0  0  0
    1.4009    4.6318    8.9894 O   0  0  0  0  0  0  0  0  0  0  0  0
    0.0085    4.5902    8.6762 C   0  0  0  0  0  0  0  0  0  0  0  0
   -0.8186    4.7372    9.9574 C   0  0  0  0  0  0  0  0  0  0  0  0
   -0.4761    3.7058   10.9290 N   0  0  0  0  0  0  0  0  0  0  0  0
    0.8817    3.3521   10.9992 C   0  0  0  0  0  0  0  0  0  0  0  0
    1.3168    2.5380   12.0350 C   0  0  0  0  0  0  0  0  0  0  0  0
   -0.5547   -0.8194   14.1898 C   0  0  0  0  0  0  0  0  0  0  0  0
   -1.9431   -1.0889   14.0597 C   0  0  0  0  0  0  0  0  0  0  0  0
   -2.7507   -0.3535   13.2059 O   0  0  0  0  0  0  0  0  0  0  0  0
   -2.2107    0.5014   12.2156 C   0  0  0  0  0  0  0  0  0  0  0  0
   -5.3466   -3.2539   13.5756 H   0  0  0  0  0  0  0  0  0  0  0  0
   -3.9677   -2.5541   12.6618 H   0  0  0  0  0  0  0  0  0  0  0  0
   -3.7529   -4.0824   13.5809 H   0  0  0  0  0  0  0  0  0  0  0  0
   -2.1996   -3.6660   16.2538 H   0  0  0  0  0  0  0  0  0  0  0  0
    0.2020   -3.2096   16.4891 H   0  0  0  0  0  0  0  0  0  0  0  0
    5.1531    1.9307   13.2531 H   0  0  0  0  0  0  0  0  0  0  0  0
    6.8389    0.8769   15.3035 H   0  0  0  0  0  0  0  0  0  0  0  0
    6.2571   -0.7689   17.3423 H   0  0  0  0  0  0  0  0  0  0  0  0
    4.6152    2.3673   11.2317 H   0  0  0  0  0  0  0  0  0  0  0  0
    3.8372    3.8219    9.3834 H   0  0  0  0  0  0  0  0  0  0  0  0
    1.5949    2.9260    9.4205 H   0  0  0  0  0  0  0  0  0  0  0  0
   -0.2354    5.4131    7.9882 H   0  0  0  0  0  0  0  0  0  0  0  0
   -0.2290    3.6290    8.1970 H   0  0  0  0  0  0  0  0  0  0  0  0
   -0.6226    5.7253   10.3993 H   0  0  0  0  0  0  0  0  0  0  0  0
   -1.8863    4.6530    9.7065 H   0  0  0  0  0  0  0  0  0  0  0  0
    0.6125    2.1996   12.7806 H   0  0  0  0  0  0  0  0  0  0  0  0
   -0.4605    0.2311   14.5021 H   0  0  0  0  0  0  0  0  0  0  0  0
   -0.1091   -0.9467   13.1922 H   0  0  0  0  0  0  0  0  0  0  0  0
   -3.0291    0.9809   11.6585 H   0  0  0  0  0  0  0  0  0  0  0  0
   -1.5923    1.2740   12.6959 H   0  0  0  0  0  0  0  0  0  0  0  0
   -1.5906   -0.0862   11.5227 H   0  0  0  0  0  0  0  0  0  0  0  0
  1  2  1  0  0  0  0
  2  3  1  0  0  0  0
  3  4  1  0  0  0  0
  3 28  2  0  0  0  0
  4  5  2  0  0  0  0
  5  6  1  0  0  0  0
  6  7  2  0  0  0  0
  6 27  1  0  0  0  0
  7  8  1  0  0  0  0
  8  9  2  0  0  0  0
  8 16  1  0  0  0  0
  9 10  1  0  0  0  0
 10 11  2  0  0  0  0
 10 17  1  0  0  0  0
 11 12  1  0  0  0  0
 12 13  1  0  0  0  0
 12 16  1  0  0  0  0
 13 14  2  0  0  0  0
 14 15  1  0  0  0  0
 15 16  2  0  0  0  0
 17 18  1  0  0  0  0
 17 26  2  0  0  0  0
 18 19  2  0  0  0  0
 19 20  1  0  0  0  0
 20 21  1  0  0  0  0
 20 25  1  0  0  0  0
 21 22  1  0  0  0  0
 22 23  1  0  0  0  0
 23 24  1  0  0  0  0
 24 25  2  0  0  0  0
 25 26  1  0  0  0  0
 27 28  1  0  0  0  0
 28 29  1  0  0  0  0
 29 30  1  0  0  0  0
  1 31  1  0  0  0  0
  1 32  1  0  0  0  0
  1 33  1  0  0  0  0
  4 34  1  0  0  0  0
  5 35  1  0  0  0  0
 11 36  1  0  0  0  0
 13 37  1  0  0  0  0
 14 38  1  0  0  0  0
 18 39  1  0  0  0  0
 19 40  1  0  0  0  0
 20 41  1  0  0  0  0
 22 42  1  0  0  0  0
 22 43  1  0  0  0  0
 23 44  1  0  0  0  0
 23 45  1  0  0  0  0
 26 46  1  0  0  0  0
 27 47  1  0  0  0  0
 27 48  1  0  0  0  0
 30 49  1  0  0  0  0
 30 50  1  0  0  0  0
 30 51  1  0  0  0  0
M  END
> <IC50[nM]>
4.7

$$$$
CHEMBL3265026
  -OEChem-05192314333D
 Structure written by MMmdl.
 51 55  0     0  0  0  0  0  0999 V2000
   -4.2568   -3.1047   13.5691 C   0  0  0  0  0  0  0  0  0  0  0  0
   -3.8735   -2.3611   14.7159 O   0  0  0  0  0  0  0  0  0  0  0  0
   -2.5255   -2.1111   14.8166 C   0  0  0  0  0  0  0  0  0  0  0  0
   -1.7467   -2.8699   15.6815 C   0  0  0  0  0  0  0  0  0  0  0  0
   -0.3906   -2.6103   15.8137 C   0  0  0  0  0  0  0  0  0  0  0  0
    0.2208   -1.5857   15.0868 C   0  0  0  0  0  0  0  0  0  0  0  0
    1.6032   -1.3595   15.3238 N   0  0  0  0  0  0  0  0  0  0  0  0
    2.5348   -0.4457   14.7641 C   0  0  0  0  0  0  0  0  0  0  0  0
    2.1779    0.3778   13.7292 N   0  0  0  0  0  0  0  0  0  0  0  0
    3.1185    1.2359   13.2212 C   0  0  0  0  0  0  0  0  0  0  0  0
    4.4181    1.2809   13.7047 C   0  0  0  0  0  0  0  0  0  0  0  0
    4.7461    0.4870   14.7618 N   0  0  0  0  0  0  0  0  0  0  0  0
    5.8981    0.3788   15.4858 C   0  0  0  0  0  0  0  0  0  0  0  0
    5.5910   -0.5280   16.5270 C   0  0  0  0  0  0  0  0  0  0  0  0
    4.3781   -1.0445   16.3723 N   0  0  0  0  0  0  0  0  0  0  0  0
    3.8363   -0.3925   15.3256 C   0  0  0  0  0  0  0  0  0  0  0  0
    2.6611    2.1501   12.1240 C   0  0  0  0  0  0  0  0  0  0  0  0
    3.5712    2.6353   11.1629 C   0  0  0  0  0  0  0  0  0  0  0  0
    3.1347    3.4612   10.1202 C   0  0  0  0  0  0  0  0  0  0  0  0
    1.7926    3.8149   10.0376 C   0  0  0  0  0  0  0  0  0  0  0  0
    1.4009    4.6318    8.9894 O   0  0  0  0  0  0  0  0  0  0  0  0
    0.0085    4.5902    8.6762 C   0  0  0  0  0  0  0  0  0  0  0  0
   -0.8186    4.7372    9.9574 C   0  0  0  0  0  0  0  0  0  0  0  0
   -0.4761    3.7058   10.9290 N   0  0  0  0  0  0  0  0  0  0  0  0
    0.8817    3.3521   10.9992 C   0  0  0  0  0  0  0  0  0  0  0  0
    1.3168    2.5380   12.0350 C   0  0  0  0  0  0  0  0  0  0  0  0
   -0.5547   -0.8194   14.1898 C   0  0  0  0  0  0  0  0  0  0  0  0
   -1.9431   -1.0889   14.0597 C   0  0  0  0  0  0  0  0  0  0  0  0
   -2.7507   -0.3535   13.2059 O   0  0  0  0  0  0  0  0  0  0  0  0
   -2.2107    0.5014   12.2156 C   0  0  0  0  0  0  0  0  0  0  0  0
   -5.3466   -3.2539   13.5756 H   0  0  0  0  0  0  0  0  0  0  0  0
   -3.9677   -2.5541   12.6618 H   0  0  0  0  0  0  0  0  0  0  0  0
   -3.7529   -4.0824   13.5809 H   0  0  0  0  0  0  0  0  0  0  0  0
   -2.1996   -3.6660   16.2538 H   0  0  0  0  0  0  0  0  0  0  0  0
    0.2020   -3.2096   16.4891 H   0  0  0  0  0  0  0  0  0  0  0  0
    5.1531    1.9307   13.2531 H   0  0  0  0  0  0  0  0  0  0  0  0
    6.8389    0.8769   15.3035 H   0  0  0  0  0  0  0  0  0  0  0  0
    6.2571   -0.7689   17.3423 H   0  0  0  0  0  0  0  0  0  0  0  0
    4.3373    3.2015   11.7129 H   0  0  0  0  0  0  0  0  0  0  0  0
    4.0328    1.7539   10.6938 H   0  0  0  0  0  0  0  0  0  0  0  0
    3.8372    3.8219    9.3834 H   0  0  0  0  0  0  0  0  0  0  0  0
   -0.2354    5.4131    7.9882 H   0  0  0  0  0  0  0  0  0  0  0  0
   -0.2290    3.6290    8.1970 H   0  0  0  0  0  0  0  0  0  0  0  0
   -0.6226    5.7253   10.3993 H   0  0  0  0  0  0  0  0  0  0  0  0
   -1.8863    4.6530    9.7065 H   0  0  0  0  0  0  0  0  0  0  0  0
    0.6125    2.1996   12.7806 H   0  0  0  0  0  0  0  0  0  0  0  0
   -0.4605    0.2311   14.5021 H   0  0  0  0  0  0  0  0  0  0  0  0
   -0.1091   -0.9467   13.1922 H   0  0  0  0  0  0  0  0  0  0  0  0
   -3.0291    0.9809   11.6585 H   0  0  0  0  0  0  0  0  0  0  0  0
   -1.5923    1.2740   12.6959 H   0  0  0  0  0  0  0  0  0  0  0  0
   -1.5906   -0.0862   11.5227 H   0  0  0  0  0  0  0  0  0  0  0  0
  1  2  1  0  0  0  0
  2  3  1  0  0  0  0
  3  4  1  0  0  0  0
  3 28  2  0  0  0  0
  4  5  2  0  0  0  0
  5  6  1  0  0  0  0
  6  7  2  0  0  0  0
  6 27  1  0  0  0  0
  7  8  1  0  0  0  0
  8  9  2  0  0  0  0
  8 16  1  0  0  0  0
  9 10  1  0  0  0  0
 10 11  2  0  0  0  0
 10 17  1  0  0  0  0
 11 12  1  0  0  0  0
 12 13  1  0  0  0  0
 12 16  1  0  0  0  0
 13 14  2  0  0  0  0
 14 15  1  0  0  0  0
 15 16  2  0  0  0  0
 17 18  1  0  0  0  0
 17 26  2  0  0  0  0
 18 19  1  0  0  0  0
 19 20  2  0  0  0  0
 20 21  1  0  0  0  0
 20 25  1  0  0  0  0
 21 22  1  0  0  0  0
 22 23  1  0  0  0  0
 23 24  1  0  0  0  0
 24 25  2  0  0  0  0
 25 26  1  0  0  0  0
 27 28  1  0  0  0  0
 28 29  1  0  0  0  0
 29 30  1  0  0  0  0
  1 31  1  0  0  0  0
  1 32  1  0  0  0  0
  1 33  1  0  0  0  0
  4 34  1  0  0  0  0
  5 35  1  0  0  0  0
 11 36  1  0  0  0  0
 13 37  1  0  0  0  0
 14 38  1  0  0  0  0
 18 39  1  0  0  0  0
 18 40  1  0  0  0  0
 19 41  1  0  0  0  0
 22 42  1  0  0  0  0
 22 43  1  0  0  0  0
 23 44  1  0  0  0  0
 23 45  1  0  0  0  0
 26 46  1  0  0  0  0
 27 47  1  0  0  0  0
 27 48  1  0  0  0  0
 30 49  1  0  0  0  0
 30 50  1  0  0  0  0
 30 51  1  0  0  0  0
M  END
> <IC50[nM]>
4.7

$$$$
CHEMBL3265026
  -OEChem-05192314333D
 Structure written by MMmdl.
 51 55  0     1  0  0  0  0  0999 V2000
   -4.2568   -3.1047   13.5691 C   0  0  0  0  0  0  0  0  0  0  0  0
   -3.8735   -2.3611   14.7159 O   0  0  0  0  0  0  0  0  0  0  0  0
   -2.5255   -2.1111   14.8166 C   0  0  3  0  0  0  0  0  0  0  0  0
   -1.7467   -2.8699   15.6815 C   0  0  0  0  0  0  0  0  0  0  0  0
   -0.3906   -2.6103   15.8137 C   0  0  0  0  0  0  0  0  0  0  0  0
    0.2208   -1.5857   15.0868 C   0  0  0  0  0  0  0  0  0  0  0  0
    1.6032   -1.3595   15.3238 N   0  0  0  0  0  0  0  0  0  0  0  0
    2.5348   -0.4457   14.7641 C   0  0  0  0  0  0  0  0  0  0  0  0
    2.1779    0.3778   13.7292 N   0  0  0  0  0  0  0  0  0  0  0  0
    3.1185    1.2359   13.2212 C   0  0  0  0  0  0  0  0  0  0  0  0
    4.4181    1.2809   13.7047 C   0  0  0  0  0  0  0  0  0  0  0  0
    4.7461    0.4870   14.7618 N   0  0  0  0  0  0  0  0  0  0  0  0
    5.8981    0.3788   15.4858 C   0  0  0  0  0  0  0  0  0  0  0  0
    5.5910   -0.5280   16.5270 C   0  0  0  0  0  0  0  0  0  0  0  0
    4.3781   -1.0445   16.3723 N   0  0  0  0  0  0  0  0  0  0  0  0
    3.8363   -0.3925   15.3256 C   0  0  0  0  0  0  0  0  0  0  0  0
    2.6611    2.1501   12.1240 C   0  0  0  0  0  0  0  0  0  0  0  0
    3.5712    2.6353   11.1629 C   0  0  0  0  0  0  0  0  0  0  0  0
    3.1347    3.4612   10.1202 C   0  0  0  0  0  0  0  0  0  0  0  0
    1.7926    3.8149   10.0376 C   0  0  0  0  0  0  0  0  0  0  0  0
    1.4009    4.6318    8.9894 O   0  0  0  0  0  0  0  0  0  0  0  0
    0.0085    4.5902    8.6762 C   0  0  0  0  0  0  0  0  0  0  0  0
   -0.8186    4.7372    9.9574 C   0  0  0  0  0  0  0  0  0  0  0  0
   -0.4761    3.7058   10.9290 N   0  0  0  0  0  0  0  0  0  0  0  0
    0.8817    3.3521   10.9992 C   0  0  0  0  0  0  0  0  0  0  0  0
    1.3168    2.5380   12.0350 C   0  0  0  0  0  0  0  0  0  0  0  0
   -0.5547   -0.8194   14.1898 C   0  0  0  0  0  0  0  0  0  0  0  0
   -1.9431   -1.0889   14.0597 C   0  0  0  0  0  0  0  0  0  0  0  0
   -2.7507   -0.3535   13.2059 O   0  0  0  0  0  0  0  0  0  0  0  0
   -2.2107    0.5014   12.2156 C   0  0  0  0  0  0  0  0  0  0  0  0
   -5.3466   -3.2539   13.5756 H   0  0  0  0  0  0  0  0  0  0  0  0
   -3.9677   -2.5541   12.6618 H   0  0  0  0  0  0  0  0  0  0  0  0
   -3.7529   -4.0824   13.5809 H   0  0  0  0  0  0  0  0  0  0  0  0
   -2.3288   -2.8278   14.0057 H   0  0  0  0  0  0  0  0  0  0  0  0
   -2.1996   -3.6660   16.2538 H   0  0  0  0  0  0  0  0  0  0  0  0
    0.2020   -3.2096   16.4891 H   0  0  0  0  0  0  0  0  0  0  0  0
    5.1531    1.9307   13.2531 H   0  0  0  0  0  0  0  0  0  0  0  0
    6.8389    0.8769   15.3035 H   0  0  0  0  0  0  0  0  0  0  0  0
    6.2571   -0.7689   17.3423 H   0  0  0  0  0  0  0  0  0  0  0  0
    4.6152    2.3673   11.2317 H   0  0  0  0  0  0  0  0  0  0  0  0
    3.8372    3.8219    9.3834 H   0  0  0  0  0  0  0  0  0  0  0  0
   -0.2354    5.4131    7.9882 H   0  0  0  0  0  0  0  0  0  0  0  0
   -0.2290    3.6290    8.1970 H   0  0  0  0  0  0  0  0  0  0  0  0
   -0.6226    5.7253   10.3993 H   0  0  0  0  0  0  0  0  0  0  0  0
   -1.8863    4.6530    9.7065 H   0  0  0  0  0  0  0  0  0  0  0  0
    0.7258    1.6121   11.9764 H   0  0  0  0  0  0  0  0  0  0  0  0
    1.0795    3.0659   12.9704 H   0  0  0  0  0  0  0  0  0  0  0  0
   -0.0958   -0.0344   13.6071 H   0  0  0  0  0  0  0  0  0  0  0  0
   -3.0291    0.9809   11.6585 H   0  0  0  0  0  0  0  0  0  0  0  0
   -1.5923    1.2740   12.6959 H   0  0  0  0  0  0  0  0  0  0  0  0
   -1.5906   -0.0862   11.5227 H   0  0  0  0  0  0  0  0  0  0  0  0
  1  2  1  0  0  0  0
  2  3  1  0  0  0  0
  3  4  1  0  0  0  0
  3 28  1  0  0  0  0
  4  5  2  0  0  0  0
  5  6  1  0  0  0  0
  6  7  2  0  0  0  0
  6 27  1  0  0  0  0
  7  8  1  0  0  0  0
  8  9  2  0  0  0  0
  8 16  1  0  0  0  0
  9 10  1  0  0  0  0
 10 11  2  0  0  0  0
 10 17  1  0  0  0  0
 11 12  1  0  0  0  0
 12 13  1  0  0  0  0
 12 16  1  0  0  0  0
 13 14  2  0  0  0  0
 14 15  1  0  0  0  0
 15 16  2  0  0  0  0
 17 18  2  0  0  0  0
 17 26  1  0  0  0  0
 18 19  1  0  0  0  0
 19 20  2  0  0  0  0
 20 21  1  0  0  0  0
 20 25  1  0  0  0  0
 21 22  1  0  0  0  0
 22 23  1  0  0  0  0
 23 24  1  0  0  0  0
 24 25  2  0  0  0  0
 25 26  1  0  0  0  0
 27 28  2  0  0  0  0
 28 29  1  0  0  0  0
 29 30  1  0  0  0  0
  1 31  1  0  0  0  0
  1 32  1  0  0  0  0
  1 33  1  0  0  0  0
  3 34  1  0  0  0  0
  4 35  1  0  0  0  0
  5 36  1  0  0  0  0
 11 37  1  0  0  0  0
 13 38  1  0  0  0  0
 14 39  1  0  0  0  0
 18 40  1  0  0  0  0
 19 41  1  0  0  0  0
 22 42  1  0  0  0  0
 22 43  1  0  0  0  0
 23 44  1  0  0  0  0
 23 45  1  0  0  0  0
 26 46  1  0  0  0  0
 26 47  1  0  0  0  0
 27 48  1  0  0  0  0
 30 49  1  0  0  0  0
 30 50  1  0  0  0  0
 30 51  1  0  0  0  0
M  END
> <IC50[nM]>
4.7

$$$$
CHEMBL3265026
  -OEChem-05192314333D
 Structure written by MMmdl.
 51 55  0     0  0  0  0  0  0999 V2000
   -4.2568   -3.1047   13.5691 C   0  0  0  0  0  0  0  0  0  0  0  0
   -3.8735   -2.3611   14.7159 O   0  0  0  0  0  0  0  0  0  0  0  0
   -2.5255   -2.1111   14.8166 C   0  0  0  0  0  0  0  0  0  0  0  0
   -1.7467   -2.8699   15.6815 C   0  0  0  0  0  0  0  0  0  0  0  0
   -0.3906   -2.6103   15.8137 C   0  0  0  0  0  0  0  0  0  0  0  0
    0.2208   -1.5857   15.0868 C   0  0  0  0  0  0  0  0  0  0  0  0
    1.6032   -1.3595   15.3238 N   0  0  0  0  0  0  0  0  0  0  0  0
    2.5348   -0.4457   14.7641 C   0  0  0  0  0  0  0  0  0  0  0  0
    2.1779    0.3778   13.7292 N   0  0  0  0  0  0  0  0  0  0  0  0
    3.1185    1.2359   13.2212 C   0  0  0  0  0  0  0  0  0  0  0  0
    4.4181    1.2809   13.7047 C   0  0  0  0  0  0  0  0  0  0  0  0
    4.7461    0.4870   14.7618 N   0  0  0  0  0  0  0  0  0  0  0  0
    5.8981    0.3788   15.4858 C   0  0  0  0  0  0  0  0  0  0  0  0
    5.5910   -0.5280   16.5270 C   0  0  0  0  0  0  0  0  0  0  0  0
    4.3781   -1.0445   16.3723 N   0  0  0  0  0  0  0  0  0  0  0  0
    3.8363   -0.3925   15.3256 C   0  0  0  0  0  0  0  0  0  0  0  0
    2.6611    2.1501   12.1240 C   0  0  0  0  0  0  0  0  0  0  0  0
    3.5712    2.6353   11.1629 C   0  0  0  0  0  0  0  0  0  0  0  0
    3.1347    3.4612   10.1202 C   0  0  0  0  0  0  0  0  0  0  0  0
    1.7926    3.8149   10.0376 C   0  0  0  0  0  0  0  0  0  0  0  0
    1.4009    4.6318    8.9894 O   0  0  0  0  0  0  0  0  0  0  0  0
    0.0085    4.5902    8.6762 C   0  0  0  0  0  0  0  0  0  0  0  0
   -0.8186    4.7372    9.9574 C   0  0  0  0  0  0  0  0  0  0  0  0
   -0.4761    3.7058   10.9290 N   0  0  0  0  0  0  0  0  0  0  0  0
    0.8817    3.3521   10.9992 C   0  0  0  0  0  0  0  0  0  0  0  0
    1.3168    2.5380   12.0350 C   0  0  0  0  0  0  0  0  0  0  0  0
   -0.5547   -0.8194   14.1898 C   0  0  0  0  0  0  0  0  0  0  0  0
   -1.9431   -1.0889   14.0597 C   0  0  0  0  0  0  0  0  0  0  0  0
   -2.7507   -0.3535   13.2059 O   0  0  0  0  0  0  0  0  0  0  0  0
   -2.2107    0.5014   12.2156 C   0  0  0  0  0  0  0  0  0  0  0  0
   -5.3466   -3.2539   13.5756 H   0  0  0  0  0  0  0  0  0  0  0  0
   -3.9677   -2.5541   12.6618 H   0  0  0  0  0  0  0  0  0  0  0  0
   -3.7529   -4.0824   13.5809 H   0  0  0  0  0  0  0  0  0  0  0  0
   -2.1996   -3.6660   16.2538 H   0  0  0  0  0  0  0  0  0  0  0  0
   -0.2175   -2.3858   16.8765 H   0  0  0  0  0  0  0  0  0  0  0  0
    0.1332   -3.5396   15.5452 H   0  0  0  0  0  0  0  0  0  0  0  0
    5.1531    1.9307   13.2531 H   0  0  0  0  0  0  0  0  0  0  0  0
    6.8389    0.8769   15.3035 H   0  0  0  0  0  0  0  0  0  0  0  0
    6.2571   -0.7689   17.3423 H   0  0  0  0  0  0  0  0  0  0  0  0
    4.6152    2.3673   11.2317 H   0  0  0  0  0  0  0  0  0  0  0  0
    3.8372    3.8219    9.3834 H   0  0  0  0  0  0  0  0  0  0  0  0
   -0.2354    5.4131    7.9882 H   0  0  0  0  0  0  0  0  0  0  0  0
   -0.2290    3.6290    8.1970 H   0  0  0  0  0  0  0  0  0  0  0  0
   -0.6226    5.7253   10.3993 H   0  0  0  0  0  0  0  0  0  0  0  0
   -1.8863    4.6530    9.7065 H   0  0  0  0  0  0  0  0  0  0  0  0
    0.7258    1.6121   11.9764 H   0  0  0  0  0  0  0  0  0  0  0  0
    1.0795    3.0659   12.9704 H   0  0  0  0  0  0  0  0  0  0  0  0
   -0.0958   -0.0344   13.6071 H   0  0  0  0  0  0  0  0  0  0  0  0
   -3.0291    0.9809   11.6585 H   0  0  0  0  0  0  0  0  0  0  0  0
   -1.5923    1.2740   12.6959 H   0  0  0  0  0  0  0  0  0  0  0  0
   -1.5906   -0.0862   11.5227 H   0  0  0  0  0  0  0  0  0  0  0  0
  1  2  1  0  0  0  0
  2  3  1  0  0  0  0
  3  4  2  0  0  0  0
  3 28  1  0  0  0  0
  4  5  1  0  0  0  0
  5  6  1  0  0  0  0
  6  7  2  0  0  0  0
  6 27  1  0  0  0  0
  7  8  1  0  0  0  0
  8  9  2  0  0  0  0
  8 16  1  0  0  0  0
  9 10  1  0  0  0  0
 10 11  2  0  0  0  0
 10 17  1  0  0  0  0
 11 12  1  0  0  0  0
 12 13  1  0  0  0  0
 12 16  1  0  0  0  0
 13 14  2  0  0  0  0
 14 15  1  0  0  0  0
 15 16  2  0  0  0  0
 17 18  2  0  0  0  0
 17 26  1  0  0  0  0
 18 19  1  0  0  0  0
 19 20  2  0  0  0  0
 20 21  1  0  0  0  0
 20 25  1  0  0  0  0
 21 22  1  0  0  0  0
 22 23  1  0  0  0  0
 23 24  1  0  0  0  0
 24 25  2  0  0  0  0
 25 26  1  0  0  0  0
 27 28  2  0  0  0  0
 28 29  1  0  0  0  0
 29 30  1  0  0  0  0
  1 31  1  0  0  0  0
  1 32  1  0  0  0  0
  1 33  1  0  0  0  0
  4 34  1  0  0  0  0
  5 35  1  0  0  0  0
  5 36  1  0  0  0  0
 11 37  1  0  0  0  0
 13 38  1  0  0  0  0
 14 39  1  0  0  0  0
 18 40  1  0  0  0  0
 19 41  1  0  0  0  0
 22 42  1  0  0  0  0
 22 43  1  0  0  0  0
 23 44  1  0  0  0  0
 23 45  1  0  0  0  0
 26 46  1  0  0  0  0
 26 47  1  0  0  0  0
 27 48  1  0  0  0  0
 30 49  1  0  0  0  0
 30 50  1  0  0  0  0
 30 51  1  0  0  0  0
M  END
> <IC50[nM]>
4.7

$$$$
CHEMBL3265026
  -OEChem-05192314333D
 Structure written by MMmdl.
 51 55  0     0  0  0  0  0  0999 V2000
   -4.2568   -3.1047   13.5691 C   0  0  0  0  0  0  0  0  0  0  0  0
   -3.8735   -2.3611   14.7159 O   0  0  0  0  0  0  0  0  0  0  0  0
   -2.5255   -2.1111   14.8166 C   0  0  0  0  0  0  0  0  0  0  0  0
   -1.7467   -2.8699   15.6815 C   0  0  0  0  0  0  0  0  0  0  0  0
   -0.3906   -2.6103   15.8137 C   0  0  0  0  0  0  0  0  0  0  0  0
    0.2208   -1.5857   15.0868 C   0  0  0  0  0  0  0  0  0  0  0  0
    1.6032   -1.3595   15.3238 N   0  0  0  0  0  0  0  0  0  0  0  0
    2.5348   -0.4457   14.7641 C   0  0  0  0  0  0  0  0  0  0  0  0
    2.1779    0.3778   13.7292 N   0  0  0  0  0  0  0  0  0  0  0  0
    3.1185    1.2359   13.2212 C   0  0  0  0  0  0  0  0  0  0  0  0
    4.4181    1.2809   13.7047 C   0  0  0  0  0  0  0  0  0  0  0  0
    4.7461    0.4870   14.7618 N   0  0  0  0  0  0  0  0  0  0  0  0
    5.8981    0.3788   15.4858 C   0  0  0  0  0  0  0  0  0  0  0  0
    5.5910   -0.5280   16.5270 C   0  0  0  0  0  0  0  0  0  0  0  0
    4.3781   -1.0445   16.3723 N   0  0  0  0  0  0  0  0  0  0  0  0
    3.8363   -0.3925   15.3256 C   0  0  0  0  0  0  0  0  0  0  0  0
    2.6611    2.1501   12.1240 C   0  0  0  0  0  0  0  0  0  0  0  0
    3.5712    2.6353   11.1629 C   0  0  0  0  0  0  0  0  0  0  0  0
    3.1347    3.4612   10.1202 C   0  0  0  0  0  0  0  0  0  0  0  0
    1.7926    3.8149   10.0376 C   0  0  0  0  0  0  0  0  0  0  0  0
    1.4009    4.6318    8.9894 O   0  0  0  0  0  0  0  0  0  0  0  0
    0.0085    4.5902    8.6762 C   0  0  0  0  0  0  0  0  0  0  0  0
   -0.8186    4.7372    9.9574 C   0  0  0  0  0  0  0  0  0  0  0  0
   -0.4761    3.7058   10.9290 N   0  0  0  0  0  0  0  0  0  0  0  0
    0.8817    3.3521   10.9992 C   0  0  0  0  0  0  0  0  0  0  0  0
    1.3168    2.5380   12.0350 C   0  0  0  0  0  0  0  0  0  0  0  0
   -0.5547   -0.8194   14.1898 C   0  0  0  0  0  0  0  0  0  0  0  0
   -1.9431   -1.0889   14.0597 C   0  0  0  0  0  0  0  0  0  0  0  0
   -2.7507   -0.3535   13.2059 O   0  0  0  0  0  0  0  0  0  0  0  0
   -2.2107    0.5014   12.2156 C   0  0  0  0  0  0  0  0  0  0  0  0
   -5.3466   -3.2539   13.5756 H   0  0  0  0  0  0  0  0  0  0  0  0
   -3.9677   -2.5541   12.6618 H   0  0  0  0  0  0  0  0  0  0  0  0
   -3.7529   -4.0824   13.5809 H   0  0  0  0  0  0  0  0  0  0  0  0
   -2.1996   -3.6660   16.2538 H   0  0  0  0  0  0  0  0  0  0  0  0
    0.2020   -3.2096   16.4891 H   0  0  0  0  0  0  0  0  0  0  0  0
    5.1531    1.9307   13.2531 H   0  0  0  0  0  0  0  0  0  0  0  0
    6.8389    0.8769   15.3035 H   0  0  0  0  0  0  0  0  0  0  0  0
    6.2571   -0.7689   17.3423 H   0  0  0  0  0  0  0  0  0  0  0  0
    4.6152    2.3673   11.2317 H   0  0  0  0  0  0  0  0  0  0  0  0
    3.8372    3.8219    9.3834 H   0  0  0  0  0  0  0  0  0  0  0  0
   -0.2354    5.4131    7.9882 H   0  0  0  0  0  0  0  0  0  0  0  0
   -0.2290    3.6290    8.1970 H   0  0  0  0  0  0  0  0  0  0  0  0
   -0.6226    5.7253   10.3993 H   0  0  0  0  0  0  0  0  0  0  0  0
   -1.8863    4.6530    9.7065 H   0  0  0  0  0  0  0  0  0  0  0  0
    0.7258    1.6121   11.9764 H   0  0  0  0  0  0  0  0  0  0  0  0
    1.0795    3.0659   12.9704 H   0  0  0  0  0  0  0  0  0  0  0  0
   -0.4605    0.2311   14.5021 H   0  0  0  0  0  0  0  0  0  0  0  0
   -0.1091   -0.9467   13.1922 H   0  0  0  0  0  0  0  0  0  0  0  0
   -3.0291    0.9809   11.6585 H   0  0  0  0  0  0  0  0  0  0  0  0
   -1.5923    1.2740   12.6959 H   0  0  0  0  0  0  0  0  0  0  0  0
   -1.5906   -0.0862   11.5227 H   0  0  0  0  0  0  0  0  0  0  0  0
  1  2  1  0  0  0  0
  2  3  1  0  0  0  0
  3  4  1  0  0  0  0
  3 28  2  0  0  0  0
  4  5  2  0  0  0  0
  5  6  1  0  0  0  0
  6  7  2  0  0  0  0
  6 27  1  0  0  0  0
  7  8  1  0  0  0  0
  8  9  2  0  0  0  0
  8 16  1  0  0  0  0
  9 10  1  0  0  0  0
 10 11  2  0  0  0  0
 10 17  1  0  0  0  0
 11 12  1  0  0  0  0
 12 13  1  0  0  0  0
 12 16  1  0  0  0  0
 13 14  2  0  0  0  0
 14 15  1  0  0  0  0
 15 16  2  0  0  0  0
 17 18  2  0  0  0  0
 17 26  1  0  0  0  0
 18 19  1  0  0  0  0
 19 20  2  0  0  0  0
 20 21  1  0  0  0  0
 20 25  1  0  0  0  0
 21 22  1  0  0  0  0
 22 23  1  0  0  0  0
 23 24  1  0  0  0  0
 24 25  2  0  0  0  0
 25 26  1  0  0  0  0
 27 28  1  0  0  0  0
 28 29  1  0  0  0  0
 29 30  1  0  0  0  0
  1 31  1  0  0  0  0
  1 32  1  0  0  0  0
  1 33  1  0  0  0  0
  4 34  1  0  0  0  0
  5 35  1  0  0  0  0
 11 36  1  0  0  0  0
 13 37  1  0  0  0  0
 14 38  1  0  0  0  0
 18 39  1  0  0  0  0
 19 40  1  0  0  0  0
 22 41  1  0  0  0  0
 22 42  1  0  0  0  0
 23 43  1  0  0  0  0
 23 44  1  0  0  0  0
 26 45  1  0  0  0  0
 26 46  1  0  0  0  0
 27 47  1  0  0  0  0
 27 48  1  0  0  0  0
 30 49  1  0  0  0  0
 30 50  1  0  0  0  0
 30 51  1  0  0  0  0
M  END
> <IC50[nM]>
4.7

$$$$
