CHEMBL3265010
  -OEChem-05192314333D
 Structure written by MMmdl.
 52 55  0     0  0  0  0  0  0999 V2000
   -4.2561   -3.1063   13.5675 C   0  0  0  0  0  0  0  0  0  0  0  0
   -3.8710   -2.3586   14.7108 O   0  0  0  0  0  0  0  0  0  0  0  0
   -2.5237   -2.1120   14.8115 C   0  0  0  0  0  0  0  0  0  0  0  0
   -1.7479   -2.8731   15.6758 C   0  0  0  0  0  0  0  0  0  0  0  0
   -0.3907   -2.6159   15.8114 C   0  0  0  0  0  0  0  0  0  0  0  0
    0.2188   -1.5872   15.0906 C   0  0  0  0  0  0  0  0  0  0  0  0
    1.6061   -1.3639   15.3275 N   0  0  0  0  0  0  0  0  0  0  0  0
    2.5365   -0.4468   14.7698 C   0  0  0  0  0  0  0  0  0  0  0  0
    2.1734    0.3862   13.7543 N   0  0  0  0  0  0  0  0  0  0  0  0
    3.1090    1.2399   13.2318 C   0  0  0  0  0  0  0  0  0  0  0  0
    4.4091    1.2828   13.7040 C   0  0  0  0  0  0  0  0  0  0  0  0
    4.7384    0.4983   14.7655 N   0  0  0  0  0  0  0  0  0  0  0  0
    5.8943    0.3897   15.4869 C   0  0  0  0  0  0  0  0  0  0  0  0
    5.5998   -0.5422   16.5164 C   0  0  0  0  0  0  0  0  0  0  0  0
    4.3902   -1.0596   16.3683 N   0  0  0  0  0  0  0  0  0  0  0  0
    3.8368   -0.3957   15.3337 C   0  0  0  0  0  0  0  0  0  0  0  0
    2.6487    2.1497   12.1257 C   0  0  0  0  0  0  0  0  0  0  0  0
    3.5566    2.6396   11.1692 C   0  0  0  0  0  0  0  0  0  0  0  0
    3.1227    3.4570   10.1283 C   0  0  0  0  0  0  0  0  0  0  0  0
    1.7703    3.8176   10.0234 C   0  0  0  0  0  0  0  0  0  0  0  0
    1.3292    4.6020    8.9846 O   0  0  0  0  0  0  0  0  0  0  0  0
    2.1136    5.6875    8.5183 C   0  0  0  0  0  0  0  0  0  0  0  0
    0.8614    3.3613   10.9917 C   0  0  0  0  0  0  0  0  0  0  0  0
    1.3049    2.5285   12.0328 C   0  0  0  0  0  0  0  0  0  0  0  0
   -0.6146    3.7607   10.8922 C   0  0  0  0  0  0  0  0  0  0  0  0
   -1.0753    4.3040    9.8978 O   0  0  0  0  0  0  0  0  0  0  0  0
   -1.3527    3.4740   11.9629 N   0  0  0  0  0  0  0  0  0  0  0  0
   -0.5555   -0.8165   14.1949 C   0  0  0  0  0  0  0  0  0  0  0  0
   -1.9469   -1.0910   14.0631 C   0  0  0  0  0  0  0  0  0  0  0  0
   -2.7598   -0.3552   13.2170 O   0  0  0  0  0  0  0  0  0  0  0  0
   -2.2311    0.6451   12.3776 C   0  0  0  0  0  0  0  0  0  0  0  0
   -5.3464   -3.2522   13.5743 H   0  0  0  0  0  0  0  0  0  0  0  0
   -3.9650   -2.5609   12.6577 H   0  0  0  0  0  0  0  0  0  0  0  0
   -3.7552   -4.0855   13.5841 H   0  0  0  0  0  0  0  0  0  0  0  0
   -2.2031   -3.6696   16.2457 H   0  0  0  0  0  0  0  0  0  0  0  0
    0.2016   -3.2194   16.4833 H   0  0  0  0  0  0  0  0  0  0  0  0
    2.0004   -1.9690   16.0192 H   0  0  0  0  0  0  0  0  0  0  0  0
    5.1447    1.9237   13.2409 H   0  0  0  0  0  0  0  0  0  0  0  0
    6.8289    0.9018   15.3117 H   0  0  0  0  0  0  0  0  0  0  0  0
    6.2766   -0.7968   17.3186 H   0  0  0  0  0  0  0  0  0  0  0  0
    4.6021    2.3789   11.2429 H   0  0  0  0  0  0  0  0  0  0  0  0
    3.8317    3.8158    9.3969 H   0  0  0  0  0  0  0  0  0  0  0  0
    1.5922    6.1876    7.6888 H   0  0  0  0  0  0  0  0  0  0  0  0
    2.2712    6.4044    9.3376 H   0  0  0  0  0  0  0  0  0  0  0  0
    3.0862    5.3126    8.1670 H   0  0  0  0  0  0  0  0  0  0  0  0
    0.5995    2.1762   12.7709 H   0  0  0  0  0  0  0  0  0  0  0  0
   -2.3259    3.7038   11.9754 H   0  0  0  0  0  0  0  0  0  0  0  0
   -0.9338    3.0289   12.7544 H   0  0  0  0  0  0  0  0  0  0  0  0
   -0.0974   -0.0278   13.6165 H   0  0  0  0  0  0  0  0  0  0  0  0
   -3.0438    1.1019   11.7938 H   0  0  0  0  0  0  0  0  0  0  0  0
   -1.7415    1.4165   12.9901 H   0  0  0  0  0  0  0  0  0  0  0  0
   -1.4948    0.1981   11.6935 H   0  0  0  0  0  0  0  0  0  0  0  0
  1  2  1  0  0  0  0
  2  3  1  0  0  0  0
  3  4  2  0  0  0  0
  3 29  1  0  0  0  0
  4  5  1  0  0  0  0
  5  6  2  0  0  0  0
  6  7  1  0  0  0  0
  6 28  1  0  0  0  0
  7  8  1  0  0  0  0
  8  9  2  0  0  0  0
  8 16  1  0  0  0  0
  9 10  1  0  0  0  0
 10 11  2  0  0  0  0
 10 17  1  0  0  0  0
 11 12  1  0  0  0  0
 12 13  1  0  0  0  0
 12 16  1  0  0  0  0
 13 14  2  0  0  0  0
 14 15  1  0  0  0  0
 15 16  2  0  0  0  0
 17 18  2  0  0  0  0
 17 24  1  0  0  0  0
 18 19  1  0  0  0  0
 19 20  2  0  0  0  0
 20 21  1  0  0  0  0
 20 23  1  0  0  0  0
 21 22  1  0  0  0  0
 23 24  2  0  0  0  0
 23 25  1  0  0  0  0
 25 26  2  0  0  0  0
 25 27  1  0  0  0  0
 28 29  2  0  0  0  0
 29 30  1  0  0  0  0
 30 31  1  0  0  0  0
  1 32  1  0  0  0  0
  1 33  1  0  0  0  0
  1 34  1  0  0  0  0
  4 35  1  0  0  0  0
  5 36  1  0  0  0  0
  7 37  1  0  0  0  0
 11 38  1  0  0  0  0
 13 39  1  0  0  0  0
 14 40  1  0  0  0  0
 18 41  1  0  0  0  0
 19 42  1  0  0  0  0
 22 43  1  0  0  0  0
 22 44  1  0  0  0  0
 22 45  1  0  0  0  0
 24 46  1  0  0  0  0
 27 47  1  0  0  0  0
 27 48  1  0  0  0  0
 28 49  1  0  0  0  0
 31 50  1  0  0  0  0
 31 51  1  0  0  0  0
 31 52  1  0  0  0  0
M  END
> <IC50[nM]>
37.4

$$$$
CHEMBL3265010
  -OEChem-05192314333D
 Structure written by MMmdl.
 52 55  0     0  0  0  0  0  0999 V2000
   -4.2561   -3.1063   13.5675 C   0  0  0  0  0  0  0  0  0  0  0  0
   -3.8710   -2.3586   14.7108 O   0  0  0  0  0  0  0  0  0  0  0  0
   -2.5237   -2.1120   14.8115 C   0  0  0  0  0  0  0  0  0  0  0  0
   -1.7479   -2.8731   15.6758 C   0  0  0  0  0  0  0  0  0  0  0  0
   -0.3907   -2.6159   15.8114 C   0  0  0  0  0  0  0  0  0  0  0  0
    0.2188   -1.5872   15.0906 C   0  0  0  0  0  0  0  0  0  0  0  0
    1.6061   -1.3639   15.3275 N   0  0  0  0  0  0  0  0  0  0  0  0
    2.5365   -0.4468   14.7698 C   0  0  0  0  0  0  0  0  0  0  0  0
    2.1734    0.3862   13.7543 N   0  0  0  0  0  0  0  0  0  0  0  0
    3.1090    1.2399   13.2318 C   0  0  0  0  0  0  0  0  0  0  0  0
    4.4091    1.2828   13.7040 C   0  0  0  0  0  0  0  0  0  0  0  0
    4.7384    0.4983   14.7655 N   0  0  0  0  0  0  0  0  0  0  0  0
    5.8943    0.3897   15.4869 C   0  0  0  0  0  0  0  0  0  0  0  0
    5.5998   -0.5422   16.5164 C   0  0  0  0  0  0  0  0  0  0  0  0
    4.3902   -1.0596   16.3683 N   0  0  0  0  0  0  0  0  0  0  0  0
    3.8368   -0.3957   15.3337 C   0  0  0  0  0  0  0  0  0  0  0  0
    2.6487    2.1497   12.1257 C   0  0  0  0  0  0  0  0  0  0  0  0
    3.5566    2.6396   11.1692 C   0  0  0  0  0  0  0  0  0  0  0  0
    3.1227    3.4570   10.1283 C   0  0  0  0  0  0  0  0  0  0  0  0
    1.7703    3.8176   10.0234 C   0  0  0  0  0  0  0  0  0  0  0  0
    1.3292    4.6020    8.9846 O   0  0  0  0  0  0  0  0  0  0  0  0
    2.1136    5.6875    8.5183 C   0  0  0  0  0  0  0  0  0  0  0  0
    0.8614    3.3613   10.9917 C   0  0  0  0  0  0  0  0  0  0  0  0
    1.3049    2.5285   12.0328 C   0  0  0  0  0  0  0  0  0  0  0  0
   -0.6146    3.7607   10.8922 C   0  0  0  0  0  0  0  0  0  0  0  0
   -1.0753    4.3040    9.8978 O   0  0  0  0  0  0  0  0  0  0  0  0
   -1.3527    3.4740   11.9629 N   0  0  0  0  0  0  0  0  0  0  0  0
   -0.5555   -0.8165   14.1949 C   0  0  0  0  0  0  0  0  0  0  0  0
   -1.9469   -1.0910   14.0631 C   0  0  0  0  0  0  0  0  0  0  0  0
   -2.7598   -0.3552   13.2170 O   0  0  0  0  0  0  0  0  0  0  0  0
   -2.2311    0.6451   12.3776 C   0  0  0  0  0  0  0  0  0  0  0  0
   -5.3464   -3.2522   13.5743 H   0  0  0  0  0  0  0  0  0  0  0  0
   -3.9650   -2.5609   12.6577 H   0  0  0  0  0  0  0  0  0  0  0  0
   -3.7552   -4.0855   13.5841 H   0  0  0  0  0  0  0  0  0  0  0  0
   -2.2031   -3.6696   16.2457 H   0  0  0  0  0  0  0  0  0  0  0  0
    0.2016   -3.2194   16.4833 H   0  0  0  0  0  0  0  0  0  0  0  0
    2.0004   -1.9690   16.0192 H   0  0  0  0  0  0  0  0  0  0  0  0
    5.1447    1.9237   13.2409 H   0  0  0  0  0  0  0  0  0  0  0  0
    6.8289    0.9018   15.3117 H   0  0  0  0  0  0  0  0  0  0  0  0
    6.2766   -0.7968   17.3186 H   0  0  0  0  0  0  0  0  0  0  0  0
    4.6021    2.3789   11.2429 H   0  0  0  0  0  0  0  0  0  0  0  0
    3.8317    3.8158    9.3969 H   0  0  0  0  0  0  0  0  0  0  0  0
    1.5922    6.1876    7.6888 H   0  0  0  0  0  0  0  0  0  0  0  0
    2.2712    6.4044    9.3376 H   0  0  0  0  0  0  0  0  0  0  0  0
    3.0862    5.3126    8.1670 H   0  0  0  0  0  0  0  0  0  0  0  0
    0.5995    2.1762   12.7709 H   0  0  0  0  0  0  0  0  0  0  0  0
   -2.0014    4.4709   10.0280 H   0  0  0  0  0  0  0  0  0  0  0  0
   -2.3055    3.7546   11.8471 H   0  0  0  0  0  0  0  0  0  0  0  0
   -0.0974   -0.0278   13.6165 H   0  0  0  0  0  0  0  0  0  0  0  0
   -3.0438    1.1019   11.7938 H   0  0  0  0  0  0  0  0  0  0  0  0
   -1.7415    1.4165   12.9901 H   0  0  0  0  0  0  0  0  0  0  0  0
   -1.4948    0.1981   11.6935 H   0  0  0  0  0  0  0  0  0  0  0  0
  1  2  1  0  0  0  0
  2  3  1  0  0  0  0
  3  4  2  0  0  0  0
  3 29  1  0  0  0  0
  4  5  1  0  0  0  0
  5  6  2  0  0  0  0
  6  7  1  0  0  0  0
  6 28  1  0  0  0  0
  7  8  1  0  0  0  0
  8  9  2  0  0  0  0
  8 16  1  0  0  0  0
  9 10  1  0  0  0  0
 10 11  2  0  0  0  0
 10 17  1  0  0  0  0
 11 12  1  0  0  0  0
 12 13  1  0  0  0  0
 12 16  1  0  0  0  0
 13 14  2  0  0  0  0
 14 15  1  0  0  0  0
 15 16  2  0  0  0  0
 17 18  2  0  0  0  0
 17 24  1  0  0  0  0
 18 19  1  0  0  0  0
 19 20  2  0  0  0  0
 20 21  1  0  0  0  0
 20 23  1  0  0  0  0
 21 22  1  0  0  0  0
 23 24  2  0  0  0  0
 23 25  1  0  0  0  0
 25 26  1  0  0  0  0
 25 27  2  0  0  0  0
 28 29  2  0  0  0  0
 29 30  1  0  0  0  0
 30 31  1  0  0  0  0
  1 32  1  0  0  0  0
  1 33  1  0  0  0  0
  1 34  1  0  0  0  0
  4 35  1  0  0  0  0
  5 36  1  0  0  0  0
  7 37  1  0  0  0  0
 11 38  1  0  0  0  0
 13 39  1  0  0  0  0
 14 40  1  0  0  0  0
 18 41  1  0  0  0  0
 19 42  1  0  0  0  0
 22 43  1  0  0  0  0
 22 44  1  0  0  0  0
 22 45  1  0  0  0  0
 24 46  1  0  0  0  0
 26 47  1  0  0  0  0
 27 48  1  0  0  0  0
 28 49  1  0  0  0  0
 31 50  1  0  0  0  0
 31 51  1  0  0  0  0
 31 52  1  0  0  0  0
M  END
> <IC50[nM]>
37.4

$$$$
CHEMBL3265010
  -OEChem-05192314333D
 Structure written by MMmdl.
 52 55  0     0  0  0  0  0  0999 V2000
   -4.2561   -3.1063   13.5675 C   0  0  0  0  0  0  0  0  0  0  0  0
   -3.8710   -2.3586   14.7108 O   0  0  0  0  0  0  0  0  0  0  0  0
   -2.5237   -2.1120   14.8115 C   0  0  0  0  0  0  0  0  0  0  0  0
   -1.7479   -2.8731   15.6758 C   0  0  0  0  0  0  0  0  0  0  0  0
   -0.3907   -2.6159   15.8114 C   0  0  0  0  0  0  0  0  0  0  0  0
    0.2188   -1.5872   15.0906 C   0  0  0  0  0  0  0  0  0  0  0  0
    1.6061   -1.3639   15.3275 N   0  0  0  0  0  0  0  0  0  0  0  0
    2.5365   -0.4468   14.7698 C   0  0  0  0  0  0  0  0  0  0  0  0
    2.1734    0.3862   13.7543 N   0  0  0  0  0  0  0  0  0  0  0  0
    3.1090    1.2399   13.2318 C   0  0  0  0  0  0  0  0  0  0  0  0
    4.4091    1.2828   13.7040 C   0  0  0  0  0  0  0  0  0  0  0  0
    4.7384    0.4983   14.7655 N   0  0  0  0  0  0  0  0  0  0  0  0
    5.8943    0.3897   15.4869 C   0  0  0  0  0  0  0  0  0  0  0  0
    5.5998   -0.5422   16.5164 C   0  0  0  0  0  0  0  0  0  0  0  0
    4.3902   -1.0596   16.3683 N   0  0  0  0  0  0  0  0  0  0  0  0
    3.8368   -0.3957   15.3337 C   0  0  0  0  0  0  0  0  0  0  0  0
    2.6487    2.1497   12.1257 C   0  0  0  0  0  0  0  0  0  0  0  0
    3.5566    2.6396   11.1692 C   0  0  0  0  0  0  0  0  0  0  0  0
    3.1227    3.4570   10.1283 C   0  0  0  0  0  0  0  0  0  0  0  0
    1.7703    3.8176   10.0234 C   0  0  0  0  0  0  0  0  0  0  0  0
    1.3292    4.6020    8.9846 O   0  0  0  0  0  0  0  0  0  0  0  0
    2.1136    5.6875    8.5183 C   0  0  0  0  0  0  0  0  0  0  0  0
    0.8614    3.3613   10.9917 C   0  0  0  0  0  0  0  0  0  0  0  0
    1.3049    2.5285   12.0328 C   0  0  0  0  0  0  0  0  0  0  0  0
   -0.6146    3.7607   10.8922 C   0  0  0  0  0  0  0  0  0  0  0  0
   -1.0753    4.3040    9.8978 O   0  0  0  0  0  0  0  0  0  0  0  0
   -1.3527    3.4740   11.9629 N   0  0  0  0  0  0  0  0  0  0  0  0
   -0.5555   -0.8165   14.1949 C   0  0  0  0  0  0  0  0  0  0  0  0
   -1.9469   -1.0910   14.0631 C   0  0  0  0  0  0  0  0  0  0  0  0
   -2.7598   -0.3552   13.2170 O   0  0  0  0  0  0  0  0  0  0  0  0
   -2.2311    0.6451   12.3776 C   0  0  0  0  0  0  0  0  0  0  0  0
   -5.3464   -3.2522   13.5743 H   0  0  0  0  0  0  0  0  0  0  0  0
   -3.9650   -2.5609   12.6577 H   0  0  0  0  0  0  0  0  0  0  0  0
   -3.7552   -4.0855   13.5841 H   0  0  0  0  0  0  0  0  0  0  0  0
   -2.2031   -3.6696   16.2457 H   0  0  0  0  0  0  0  0  0  0  0  0
    0.2016   -3.2194   16.4833 H   0  0  0  0  0  0  0  0  0  0  0  0
    1.2397    0.3746   13.3964 H   0  0  0  0  0  0  0  0  0  0  0  0
    5.1447    1.9237   13.2409 H   0  0  0  0  0  0  0  0  0  0  0  0
    6.8289    0.9018   15.3117 H   0  0  0  0  0  0  0  0  0  0  0  0
    6.2766   -0.7968   17.3186 H   0  0  0  0  0  0  0  0  0  0  0  0
    4.6021    2.3789   11.2429 H   0  0  0  0  0  0  0  0  0  0  0  0
    3.8317    3.8158    9.3969 H   0  0  0  0  0  0  0  0  0  0  0  0
    1.5922    6.1876    7.6888 H   0  0  0  0  0  0  0  0  0  0  0  0
    2.2712    6.4044    9.3376 H   0  0  0  0  0  0  0  0  0  0  0  0
    3.0862    5.3126    8.1670 H   0  0  0  0  0  0  0  0  0  0  0  0
    0.5995    2.1762   12.7709 H   0  0  0  0  0  0  0  0  0  0  0  0
   -2.3259    3.7038   11.9754 H   0  0  0  0  0  0  0  0  0  0  0  0
   -0.9338    3.0289   12.7544 H   0  0  0  0  0  0  0  0  0  0  0  0
   -0.0974   -0.0278   13.6165 H   0  0  0  0  0  0  0  0  0  0  0  0
   -3.0438    1.1019   11.7938 H   0  0  0  0  0  0  0  0  0  0  0  0
   -1.7415    1.4165   12.9901 H   0  0  0  0  0  0  0  0  0  0  0  0
   -1.4948    0.1981   11.6935 H   0  0  0  0  0  0  0  0  0  0  0  0
  1  2  1  0  0  0  0
  2  3  1  0  0  0  0
  3  4  2  0  0  0  0
  3 29  1  0  0  0  0
  4  5  1  0  0  0  0
  5  6  2  0  0  0  0
  6  7  1  0  0  0  0
  6 28  1  0  0  0  0
  7  8  2  0  0  0  0
  8  9  1  0  0  0  0
  8 16  1  0  0  0  0
  9 10  1  0  0  0  0
 10 11  2  0  0  0  0
 10 17  1  0  0  0  0
 11 12  1  0  0  0  0
 12 13  1  0  0  0  0
 12 16  1  0  0  0  0
 13 14  2  0  0  0  0
 14 15  1  0  0  0  0
 15 16  2  0  0  0  0
 17 18  2  0  0  0  0
 17 24  1  0  0  0  0
 18 19  1  0  0  0  0
 19 20  2  0  0  0  0
 20 21  1  0  0  0  0
 20 23  1  0  0  0  0
 21 22  1  0  0  0  0
 23 24  2  0  0  0  0
 23 25  1  0  0  0  0
 25 26  2  0  0  0  0
 25 27  1  0  0  0  0
 28 29  2  0  0  0  0
 29 30  1  0  0  0  0
 30 31  1  0  0  0  0
  1 32  1  0  0  0  0
  1 33  1  0  0  0  0
  1 34  1  0  0  0  0
  4 35  1  0  0  0  0
  5 36  1  0  0  0  0
  9 37  1  0  0  0  0
 11 38  1  0  0  0  0
 13 39  1  0  0  0  0
 14 40  1  0  0  0  0
 18 41  1  0  0  0  0
 19 42  1  0  0  0  0
 22 43  1  0  0  0  0
 22 44  1  0  0  0  0
 22 45  1  0  0  0  0
 24 46  1  0  0  0  0
 27 47  1  0  0  0  0
 27 48  1  0  0  0  0
 28 49  1  0  0  0  0
 31 50  1  0  0  0  0
 31 51  1  0  0  0  0
 31 52  1  0  0  0  0
M  END
> <IC50[nM]>
37.4

$$$$
CHEMBL3265010
  -OEChem-05192314333D
 Structure written by MMmdl.
 52 55  0     0  0  0  0  0  0999 V2000
   -4.2561   -3.1063   13.5675 C   0  0  0  0  0  0  0  0  0  0  0  0
   -3.8710   -2.3586   14.7108 O   0  0  0  0  0  0  0  0  0  0  0  0
   -2.5237   -2.1120   14.8115 C   0  0  0  0  0  0  0  0  0  0  0  0
   -1.7479   -2.8731   15.6758 C   0  0  0  0  0  0  0  0  0  0  0  0
   -0.3907   -2.6159   15.8114 C   0  0  0  0  0  0  0  0  0  0  0  0
    0.2188   -1.5872   15.0906 C   0  0  0  0  0  0  0  0  0  0  0  0
    1.6061   -1.3639   15.3275 N   0  0  0  0  0  0  0  0  0  0  0  0
    2.5365   -0.4468   14.7698 C   0  0  0  0  0  0  0  0  0  0  0  0
    2.1734    0.3862   13.7543 N   0  0  0  0  0  0  0  0  0  0  0  0
    3.1090    1.2399   13.2318 C   0  0  0  0  0  0  0  0  0  0  0  0
    4.4091    1.2828   13.7040 C   0  0  0  0  0  0  0  0  0  0  0  0
    4.7384    0.4983   14.7655 N   0  0  0  0  0  0  0  0  0  0  0  0
    5.8943    0.3897   15.4869 C   0  0  0  0  0  0  0  0  0  0  0  0
    5.5998   -0.5422   16.5164 C   0  0  0  0  0  0  0  0  0  0  0  0
    4.3902   -1.0596   16.3683 N   0  0  0  0  0  0  0  0  0  0  0  0
    3.8368   -0.3957   15.3337 C   0  0  0  0  0  0  0  0  0  0  0  0
    2.6487    2.1497   12.1257 C   0  0  0  0  0  0  0  0  0  0  0  0
    3.5566    2.6396   11.1692 C   0  0  0  0  0  0  0  0  0  0  0  0
    3.1227    3.4570   10.1283 C   0  0  0  0  0  0  0  0  0  0  0  0
    1.7703    3.8176   10.0234 C   0  0  0  0  0  0  0  0  0  0  0  0
    1.3292    4.6020    8.9846 O   0  0  0  0  0  0  0  0  0  0  0  0
    2.1136    5.6875    8.5183 C   0  0  0  0  0  0  0  0  0  0  0  0
    0.8614    3.3613   10.9917 C   0  0  0  0  0  0  0  0  0  0  0  0
    1.3049    2.5285   12.0328 C   0  0  0  0  0  0  0  0  0  0  0  0
   -0.6146    3.7607   10.8922 C   0  0  0  0  0  0  0  0  0  0  0  0
   -1.0753    4.3040    9.8978 O   0  0  0  0  0  0  0  0  0  0  0  0
   -1.3527    3.4740   11.9629 N   0  0  0  0  0  0  0  0  0  0  0  0
   -0.5555   -0.8165   14.1949 C   0  0  0  0  0  0  0  0  0  0  0  0
   -1.9469   -1.0910   14.0631 C   0  0  0  0  0  0  0  0  0  0  0  0
   -2.7598   -0.3552   13.2170 O   0  0  0  0  0  0  0  0  0  0  0  0
   -2.2311    0.6451   12.3776 C   0  0  0  0  0  0  0  0  0  0  0  0
   -5.3464   -3.2522   13.5743 H   0  0  0  0  0  0  0  0  0  0  0  0
   -3.9650   -2.5609   12.6577 H   0  0  0  0  0  0  0  0  0  0  0  0
   -3.7552   -4.0855   13.5841 H   0  0  0  0  0  0  0  0  0  0  0  0
   -2.2031   -3.6696   16.2457 H   0  0  0  0  0  0  0  0  0  0  0  0
    0.2016   -3.2194   16.4833 H   0  0  0  0  0  0  0  0  0  0  0  0
    1.2397    0.3746   13.3964 H   0  0  0  0  0  0  0  0  0  0  0  0
    5.1447    1.9237   13.2409 H   0  0  0  0  0  0  0  0  0  0  0  0
    6.8289    0.9018   15.3117 H   0  0  0  0  0  0  0  0  0  0  0  0
    6.2766   -0.7968   17.3186 H   0  0  0  0  0  0  0  0  0  0  0  0
    4.6021    2.3789   11.2429 H   0  0  0  0  0  0  0  0  0  0  0  0
    3.8317    3.8158    9.3969 H   0  0  0  0  0  0  0  0  0  0  0  0
    1.5922    6.1876    7.6888 H   0  0  0  0  0  0  0  0  0  0  0  0
    2.2712    6.4044    9.3376 H   0  0  0  0  0  0  0  0  0  0  0  0
    3.0862    5.3126    8.1670 H   0  0  0  0  0  0  0  0  0  0  0  0
    0.5995    2.1762   12.7709 H   0  0  0  0  0  0  0  0  0  0  0  0
   -2.0014    4.4709   10.0280 H   0  0  0  0  0  0  0  0  0  0  0  0
   -2.3055    3.7546   11.8471 H   0  0  0  0  0  0  0  0  0  0  0  0
   -0.0974   -0.0278   13.6165 H   0  0  0  0  0  0  0  0  0  0  0  0
   -3.0438    1.1019   11.7938 H   0  0  0  0  0  0  0  0  0  0  0  0
   -1.7415    1.4165   12.9901 H   0  0  0  0  0  0  0  0  0  0  0  0
   -1.4948    0.1981   11.6935 H   0  0  0  0  0  0  0  0  0  0  0  0
  1  2  1  0  0  0  0
  2  3  1  0  0  0  0
  3  4  2  0  0  0  0
  3 29  1  0  0  0  0
  4  5  1  0  0  0  0
  5  6  2  0  0  0  0
  6  7  1  0  0  0  0
  6 28  1  0  0  0  0
  7  8  2  0  0  0  0
  8  9  1  0  0  0  0
  8 16  1  0  0  0  0
  9 10  1  0  0  0  0
 10 11  2  0  0  0  0
 10 17  1  0  0  0  0
 11 12  1  0  0  0  0
 12 13  1  0  0  0  0
 12 16  1  0  0  0  0
 13 14  2  0  0  0  0
 14 15  1  0  0  0  0
 15 16  2  0  0  0  0
 17 18  2  0  0  0  0
 17 24  1  0  0  0  0
 18 19  1  0  0  0  0
 19 20  2  0  0  0  0
 20 21  1  0  0  0  0
 20 23  1  0  0  0  0
 21 22  1  0  0  0  0
 23 24  2  0  0  0  0
 23 25  1  0  0  0  0
 25 26  1  0  0  0  0
 25 27  2  0  0  0  0
 28 29  2  0  0  0  0
 29 30  1  0  0  0  0
 30 31  1  0  0  0  0
  1 32  1  0  0  0  0
  1 33  1  0  0  0  0
  1 34  1  0  0  0  0
  4 35  1  0  0  0  0
  5 36  1  0  0  0  0
  9 37  1  0  0  0  0
 11 38  1  0  0  0  0
 13 39  1  0  0  0  0
 14 40  1  0  0  0  0
 18 41  1  0  0  0  0
 19 42  1  0  0  0  0
 22 43  1  0  0  0  0
 22 44  1  0  0  0  0
 22 45  1  0  0  0  0
 24 46  1  0  0  0  0
 26 47  1  0  0  0  0
 27 48  1  0  0  0  0
 28 49  1  0  0  0  0
 31 50  1  0  0  0  0
 31 51  1  0  0  0  0
 31 52  1  0  0  0  0
M  END
> <IC50[nM]>
37.4

$$$$
CHEMBL3265010
  -OEChem-05192314333D
 Structure written by MMmdl.
 52 55  0     0  0  0  0  0  0999 V2000
   -4.2561   -3.1063   13.5675 C   0  0  0  0  0  0  0  0  0  0  0  0
   -3.8710   -2.3586   14.7108 O   0  0  0  0  0  0  0  0  0  0  0  0
   -2.5237   -2.1120   14.8115 C   0  0  0  0  0  0  0  0  0  0  0  0
   -1.7479   -2.8731   15.6758 C   0  0  0  0  0  0  0  0  0  0  0  0
   -0.3907   -2.6159   15.8114 C   0  0  0  0  0  0  0  0  0  0  0  0
    0.2188   -1.5872   15.0906 C   0  0  0  0  0  0  0  0  0  0  0  0
    1.6061   -1.3639   15.3275 N   0  0  0  0  0  0  0  0  0  0  0  0
    2.5365   -0.4468   14.7698 C   0  0  0  0  0  0  0  0  0  0  0  0
    2.1734    0.3862   13.7543 N   0  0  0  0  0  0  0  0  0  0  0  0
    3.1090    1.2399   13.2318 C   0  0  0  0  0  0  0  0  0  0  0  0
    4.4091    1.2828   13.7040 C   0  0  0  0  0  0  0  0  0  0  0  0
    4.7384    0.4983   14.7655 N   0  0  0  0  0  0  0  0  0  0  0  0
    5.8943    0.3897   15.4869 C   0  0  0  0  0  0  0  0  0  0  0  0
    5.5998   -0.5422   16.5164 C   0  0  0  0  0  0  0  0  0  0  0  0
    4.3902   -1.0596   16.3683 N   0  0  0  0  0  0  0  0  0  0  0  0
    3.8368   -0.3957   15.3337 C   0  0  0  0  0  0  0  0  0  0  0  0
    2.6487    2.1497   12.1257 C   0  0  0  0  0  0  0  0  0  0  0  0
    3.5566    2.6396   11.1692 C   0  0  0  0  0  0  0  0  0  0  0  0
    3.1227    3.4570   10.1283 C   0  0  0  0  0  0  0  0  0  0  0  0
    1.7703    3.8176   10.0234 C   0  0  0  0  0  0  0  0  0  0  0  0
    1.3292    4.6020    8.9846 O   0  0  0  0  0  0  0  0  0  0  0  0
    2.1136    5.6875    8.5183 C   0  0  0  0  0  0  0  0  0  0  0  0
    0.8614    3.3613   10.9917 C   0  0  0  0  0  0  0  0  0  0  0  0
    1.3049    2.5285   12.0328 C   0  0  0  0  0  0  0  0  0  0  0  0
   -0.6146    3.7607   10.8922 C   0  0  0  0  0  0  0  0  0  0  0  0
   -1.0753    4.3040    9.8978 O   0  0  0  0  0  0  0  0  0  0  0  0
   -1.3527    3.4740   11.9629 N   0  0  0  0  0  0  0  0  0  0  0  0
   -0.5555   -0.8165   14.1949 C   0  0  0  0  0  0  0  0  0  0  0  0
   -1.9469   -1.0910   14.0631 C   0  0  0  0  0  0  0  0  0  0  0  0
   -2.7598   -0.3552   13.2170 O   0  0  0  0  0  0  0  0  0  0  0  0
   -2.2311    0.6451   12.3776 C   0  0  0  0  0  0  0  0  0  0  0  0
   -5.3464   -3.2522   13.5743 H   0  0  0  0  0  0  0  0  0  0  0  0
   -3.9650   -2.5609   12.6577 H   0  0  0  0  0  0  0  0  0  0  0  0
   -3.7552   -4.0855   13.5841 H   0  0  0  0  0  0  0  0  0  0  0  0
   -2.2031   -3.6696   16.2457 H   0  0  0  0  0  0  0  0  0  0  0  0
    0.2016   -3.2194   16.4833 H   0  0  0  0  0  0  0  0  0  0  0  0
    5.0673    0.9955   12.8708 H   0  0  0  0  0  0  0  0  0  0  0  0
    4.6160    2.3239   13.9925 H   0  0  0  0  0  0  0  0  0  0  0  0
    6.8289    0.9018   15.3117 H   0  0  0  0  0  0  0  0  0  0  0  0
    6.2766   -0.7968   17.3186 H   0  0  0  0  0  0  0  0  0  0  0  0
    4.6021    2.3789   11.2429 H   0  0  0  0  0  0  0  0  0  0  0  0
    3.8317    3.8158    9.3969 H   0  0  0  0  0  0  0  0  0  0  0  0
    1.5922    6.1876    7.6888 H   0  0  0  0  0  0  0  0  0  0  0  0
    2.2712    6.4044    9.3376 H   0  0  0  0  0  0  0  0  0  0  0  0
    3.0862    5.3126    8.1670 H   0  0  0  0  0  0  0  0  0  0  0  0
    0.5995    2.1762   12.7709 H   0  0  0  0  0  0  0  0  0  0  0  0
   -2.3259    3.7038   11.9754 H   0  0  0  0  0  0  0  0  0  0  0  0
   -0.9338    3.0289   12.7544 H   0  0  0  0  0  0  0  0  0  0  0  0
   -0.0974   -0.0278   13.6165 H   0  0  0  0  0  0  0  0  0  0  0  0
   -3.0438    1.1019   11.7938 H   0  0  0  0  0  0  0  0  0  0  0  0
   -1.7415    1.4165   12.9901 H   0  0  0  0  0  0  0  0  0  0  0  0
   -1.4948    0.1981   11.6935 H   0  0  0  0  0  0  0  0  0  0  0  0
  1  2  1  0  0  0  0
  2  3  1  0  0  0  0
  3  4  2  0  0  0  0
  3 29  1  0  0  0  0
  4  5  1  0  0  0  0
  5  6  2  0  0  0  0
  6  7  1  0  0  0  0
  6 28  1  0  0  0  0
  7  8  2  0  0  0  0
  8  9  1  0  0  0  0
  8 16  1  0  0  0  0
  9 10  2  0  0  0  0
 10 11  1  0  0  0  0
 10 17  1  0  0  0  0
 11 12  1  0  0  0  0
 12 13  1  0  0  0  0
 12 16  1  0  0  0  0
 13 14  2  0  0  0  0
 14 15  1  0  0  0  0
 15 16  2  0  0  0  0
 17 18  2  0  0  0  0
 17 24  1  0  0  0  0
 18 19  1  0  0  0  0
 19 20  2  0  0  0  0
 20 21  1  0  0  0  0
 20 23  1  0  0  0  0
 21 22  1  0  0  0  0
 23 24  2  0  0  0  0
 23 25  1  0  0  0  0
 25 26  2  0  0  0  0
 25 27  1  0  0  0  0
 28 29  2  0  0  0  0
 29 30  1  0  0  0  0
 30 31  1  0  0  0  0
  1 32  1  0  0  0  0
  1 33  1  0  0  0  0
  1 34  1  0  0  0  0
  4 35  1  0  0  0  0
  5 36  1  0  0  0  0
 11 37  1  0  0  0  0
 11 38  1  0  0  0  0
 13 39  1  0  0  0  0
 14 40  1  0  0  0  0
 18 41  1  0  0  0  0
 19 42  1  0  0  0  0
 22 43  1  0  0  0  0
 22 44  1  0  0  0  0
 22 45  1  0  0  0  0
 24 46  1  0  0  0  0
 27 47  1  0  0  0  0
 27 48  1  0  0  0  0
 28 49  1  0  0  0  0
 31 50  1  0  0  0  0
 31 51  1  0  0  0  0
 31 52  1  0  0  0  0
M  END
> <IC50[nM]>
37.4

$$$$
CHEMBL3265010
  -OEChem-05192314333D
 Structure written by MMmdl.
 52 55  0     0  0  0  0  0  0999 V2000
   -4.2561   -3.1063   13.5675 C   0  0  0  0  0  0  0  0  0  0  0  0
   -3.8710   -2.3586   14.7108 O   0  0  0  0  0  0  0  0  0  0  0  0
   -2.5237   -2.1120   14.8115 C   0  0  0  0  0  0  0  0  0  0  0  0
   -1.7479   -2.8731   15.6758 C   0  0  0  0  0  0  0  0  0  0  0  0
   -0.3907   -2.6159   15.8114 C   0  0  0  0  0  0  0  0  0  0  0  0
    0.2188   -1.5872   15.0906 C   0  0  0  0  0  0  0  0  0  0  0  0
    1.6061   -1.3639   15.3275 N   0  0  0  0  0  0  0  0  0  0  0  0
    2.5365   -0.4468   14.7698 C   0  0  0  0  0  0  0  0  0  0  0  0
    2.1734    0.3862   13.7543 N   0  0  0  0  0  0  0  0  0  0  0  0
    3.1090    1.2399   13.2318 C   0  0  0  0  0  0  0  0  0  0  0  0
    4.4091    1.2828   13.7040 C   0  0  0  0  0  0  0  0  0  0  0  0
    4.7384    0.4983   14.7655 N   0  0  0  0  0  0  0  0  0  0  0  0
    5.8943    0.3897   15.4869 C   0  0  0  0  0  0  0  0  0  0  0  0
    5.5998   -0.5422   16.5164 C   0  0  0  0  0  0  0  0  0  0  0  0
    4.3902   -1.0596   16.3683 N   0  0  0  0  0  0  0  0  0  0  0  0
    3.8368   -0.3957   15.3337 C   0  0  0  0  0  0  0  0  0  0  0  0
    2.6487    2.1497   12.1257 C   0  0  0  0  0  0  0  0  0  0  0  0
    3.5566    2.6396   11.1692 C   0  0  0  0  0  0  0  0  0  0  0  0
    3.1227    3.4570   10.1283 C   0  0  0  0  0  0  0  0  0  0  0  0
    1.7703    3.8176   10.0234 C   0  0  0  0  0  0  0  0  0  0  0  0
    1.3292    4.6020    8.9846 O   0  0  0  0  0  0  0  0  0  0  0  0
    2.1136    5.6875    8.5183 C   0  0  0  0  0  0  0  0  0  0  0  0
    0.8614    3.3613   10.9917 C   0  0  0  0  0  0  0  0  0  0  0  0
    1.3049    2.5285   12.0328 C   0  0  0  0  0  0  0  0  0  0  0  0
   -0.6146    3.7607   10.8922 C   0  0  0  0  0  0  0  0  0  0  0  0
   -1.0753    4.3040    9.8978 O   0  0  0  0  0  0  0  0  0  0  0  0
   -1.3527    3.4740   11.9629 N   0  0  0  0  0  0  0  0  0  0  0  0
   -0.5555   -0.8165   14.1949 C   0  0  0  0  0  0  0  0  0  0  0  0
   -1.9469   -1.0910   14.0631 C   0  0  0  0  0  0  0  0  0  0  0  0
   -2.7598   -0.3552   13.2170 O   0  0  0  0  0  0  0  0  0  0  0  0
   -2.2311    0.6451   12.3776 C   0  0  0  0  0  0  0  0  0  0  0  0
   -5.3464   -3.2522   13.5743 H   0  0  0  0  0  0  0  0  0  0  0  0
   -3.9650   -2.5609   12.6577 H   0  0  0  0  0  0  0  0  0  0  0  0
   -3.7552   -4.0855   13.5841 H   0  0  0  0  0  0  0  0  0  0  0  0
   -2.2031   -3.6696   16.2457 H   0  0  0  0  0  0  0  0  0  0  0  0
    0.2016   -3.2194   16.4833 H   0  0  0  0  0  0  0  0  0  0  0  0
    5.0673    0.9955   12.8708 H   0  0  0  0  0  0  0  0  0  0  0  0
    4.6160    2.3239   13.9925 H   0  0  0  0  0  0  0  0  0  0  0  0
    6.8289    0.9018   15.3117 H   0  0  0  0  0  0  0  0  0  0  0  0
    6.2766   -0.7968   17.3186 H   0  0  0  0  0  0  0  0  0  0  0  0
    4.6021    2.3789   11.2429 H   0  0  0  0  0  0  0  0  0  0  0  0
    3.8317    3.8158    9.3969 H   0  0  0  0  0  0  0  0  0  0  0  0
    1.5922    6.1876    7.6888 H   0  0  0  0  0  0  0  0  0  0  0  0
    2.2712    6.4044    9.3376 H   0  0  0  0  0  0  0  0  0  0  0  0
    3.0862    5.3126    8.1670 H   0  0  0  0  0  0  0  0  0  0  0  0
    0.5995    2.1762   12.7709 H   0  0  0  0  0  0  0  0  0  0  0  0
   -2.0014    4.4709   10.0280 H   0  0  0  0  0  0  0  0  0  0  0  0
   -2.3055    3.7546   11.8471 H   0  0  0  0  0  0  0  0  0  0  0  0
   -0.0974   -0.0278   13.6165 H   0  0  0  0  0  0  0  0  0  0  0  0
   -3.0438    1.1019   11.7938 H   0  0  0  0  0  0  0  0  0  0  0  0
   -1.7415    1.4165   12.9901 H   0  0  0  0  0  0  0  0  0  0  0  0
   -1.4948    0.1981   11.6935 H   0  0  0  0  0  0  0  0  0  0  0  0
  1  2  1  0  0  0  0
  2  3  1  0  0  0  0
  3  4  2  0  0  0  0
  3 29  1  0  0  0  0
  4  5  1  0  0  0  0
  5  6  2  0  0  0  0
  6  7  1  0  0  0  0
  6 28  1  0  0  0  0
  7  8  2  0  0  0  0
  8  9  1  0  0  0  0
  8 16  1  0  0  0  0
  9 10  2  0  0  0  0
 10 11  1  0  0  0  0
 10 17  1  0  0  0  0
 11 12  1  0  0  0  0
 12 13  1  0  0  0  0
 12 16  1  0  0  0  0
 13 14  2  0  0  0  0
 14 15  1  0  0  0  0
 15 16  2  0  0  0  0
 17 18  2  0  0  0  0
 17 24  1  0  0  0  0
 18 19  1  0  0  0  0
 19 20  2  0  0  0  0
 20 21  1  0  0  0  0
 20 23  1  0  0  0  0
 21 22  1  0  0  0  0
 23 24  2  0  0  0  0
 23 25  1  0  0  0  0
 25 26  1  0  0  0  0
 25 27  2  0  0  0  0
 28 29  2  0  0  0  0
 29 30  1  0  0  0  0
 30 31  1  0  0  0  0
  1 32  1  0  0  0  0
  1 33  1  0  0  0  0
  1 34  1  0  0  0  0
  4 35  1  0  0  0  0
  5 36  1  0  0  0  0
 11 37  1  0  0  0  0
 11 38  1  0  0  0  0
 13 39  1  0  0  0  0
 14 40  1  0  0  0  0
 18 41  1  0  0  0  0
 19 42  1  0  0  0  0
 22 43  1  0  0  0  0
 22 44  1  0  0  0  0
 22 45  1  0  0  0  0
 24 46  1  0  0  0  0
 26 47  1  0  0  0  0
 27 48  1  0  0  0  0
 28 49  1  0  0  0  0
 31 50  1  0  0  0  0
 31 51  1  0  0  0  0
 31 52  1  0  0  0  0
M  END
> <IC50[nM]>
37.4

$$$$
CHEMBL3265010
  -OEChem-05192314333D
 Structure written by MMmdl.
 52 55  0     1  0  0  0  0  0999 V2000
   -4.2561   -3.1063   13.5675 C   0  0  0  0  0  0  0  0  0  0  0  0
   -3.8710   -2.3586   14.7108 O   0  0  0  0  0  0  0  0  0  0  0  0
   -2.5237   -2.1120   14.8115 C   0  0  3  0  0  0  0  0  0  0  0  0
   -1.7479   -2.8731   15.6758 C   0  0  0  0  0  0  0  0  0  0  0  0
   -0.3907   -2.6159   15.8114 C   0  0  0  0  0  0  0  0  0  0  0  0
    0.2188   -1.5872   15.0906 C   0  0  0  0  0  0  0  0  0  0  0  0
    1.6061   -1.3639   15.3275 N   0  0  0  0  0  0  0  0  0  0  0  0
    2.5365   -0.4468   14.7698 C   0  0  0  0  0  0  0  0  0  0  0  0
    2.1734    0.3862   13.7543 N   0  0  0  0  0  0  0  0  0  0  0  0
    3.1090    1.2399   13.2318 C   0  0  0  0  0  0  0  0  0  0  0  0
    4.4091    1.2828   13.7040 C   0  0  0  0  0  0  0  0  0  0  0  0
    4.7384    0.4983   14.7655 N   0  0  0  0  0  0  0  0  0  0  0  0
    5.8943    0.3897   15.4869 C   0  0  0  0  0  0  0  0  0  0  0  0
    5.5998   -0.5422   16.5164 C   0  0  0  0  0  0  0  0  0  0  0  0
    4.3902   -1.0596   16.3683 N   0  0  0  0  0  0  0  0  0  0  0  0
    3.8368   -0.3957   15.3337 C   0  0  0  0  0  0  0  0  0  0  0  0
    2.6487    2.1497   12.1257 C   0  0  0  0  0  0  0  0  0  0  0  0
    3.5566    2.6396   11.1692 C   0  0  0  0  0  0  0  0  0  0  0  0
    3.1227    3.4570   10.1283 C   0  0  0  0  0  0  0  0  0  0  0  0
    1.7703    3.8176   10.0234 C   0  0  0  0  0  0  0  0  0  0  0  0
    1.3292    4.6020    8.9846 O   0  0  0  0  0  0  0  0  0  0  0  0
    2.1136    5.6875    8.5183 C   0  0  0  0  0  0  0  0  0  0  0  0
    0.8614    3.3613   10.9917 C   0  0  0  0  0  0  0  0  0  0  0  0
    1.3049    2.5285   12.0328 C   0  0  0  0  0  0  0  0  0  0  0  0
   -0.6146    3.7607   10.8922 C   0  0  0  0  0  0  0  0  0  0  0  0
   -1.0753    4.3040    9.8978 O   0  0  0  0  0  0  0  0  0  0  0  0
   -1.3527    3.4740   11.9629 N   0  0  0  0  0  0  0  0  0  0  0  0
   -0.5555   -0.8165   14.1949 C   0  0  0  0  0  0  0  0  0  0  0  0
   -1.9469   -1.0910   14.0631 C   0  0  0  0  0  0  0  0  0  0  0  0
   -2.7598   -0.3552   13.2170 O   0  0  0  0  0  0  0  0  0  0  0  0
   -2.2311    0.6451   12.3776 C   0  0  0  0  0  0  0  0  0  0  0  0
   -5.3464   -3.2522   13.5743 H   0  0  0  0  0  0  0  0  0  0  0  0
   -3.9650   -2.5609   12.6577 H   0  0  0  0  0  0  0  0  0  0  0  0
   -3.7552   -4.0855   13.5841 H   0  0  0  0  0  0  0  0  0  0  0  0
   -2.3271   -2.8260   13.9982 H   0  0  0  0  0  0  0  0  0  0  0  0
   -2.2031   -3.6696   16.2457 H   0  0  0  0  0  0  0  0  0  0  0  0
    0.2016   -3.2194   16.4833 H   0  0  0  0  0  0  0  0  0  0  0  0
    5.1447    1.9237   13.2409 H   0  0  0  0  0  0  0  0  0  0  0  0
    6.8289    0.9018   15.3117 H   0  0  0  0  0  0  0  0  0  0  0  0
    6.2766   -0.7968   17.3186 H   0  0  0  0  0  0  0  0  0  0  0  0
    4.6021    2.3789   11.2429 H   0  0  0  0  0  0  0  0  0  0  0  0
    3.8317    3.8158    9.3969 H   0  0  0  0  0  0  0  0  0  0  0  0
    1.5922    6.1876    7.6888 H   0  0  0  0  0  0  0  0  0  0  0  0
    2.2712    6.4044    9.3376 H   0  0  0  0  0  0  0  0  0  0  0  0
    3.0862    5.3126    8.1670 H   0  0  0  0  0  0  0  0  0  0  0  0
    0.5995    2.1762   12.7709 H   0  0  0  0  0  0  0  0  0  0  0  0
   -2.3259    3.7038   11.9754 H   0  0  0  0  0  0  0  0  0  0  0  0
   -0.9338    3.0289   12.7544 H   0  0  0  0  0  0  0  0  0  0  0  0
   -0.0974   -0.0278   13.6165 H   0  0  0  0  0  0  0  0  0  0  0  0
   -3.0438    1.1019   11.7938 H   0  0  0  0  0  0  0  0  0  0  0  0
   -1.7415    1.4165   12.9901 H   0  0  0  0  0  0  0  0  0  0  0  0
   -1.4948    0.1981   11.6935 H   0  0  0  0  0  0  0  0  0  0  0  0
  1  2  1  0  0  0  0
  2  3  1  0  0  0  0
  3  4  1  0  0  0  0
  3 29  1  0  0  0  0
  4  5  2  0  0  0  0
  5  6  1  0  0  0  0
  6  7  2  0  0  0  0
  6 28  1  0  0  0  0
  7  8  1  0  0  0  0
  8  9  2  0  0  0  0
  8 16  1  0  0  0  0
  9 10  1  0  0  0  0
 10 11  2  0  0  0  0
 10 17  1  0  0  0  0
 11 12  1  0  0  0  0
 12 13  1  0  0  0  0
 12 16  1  0  0  0  0
 13 14  2  0  0  0  0
 14 15  1  0  0  0  0
 15 16  2  0  0  0  0
 17 18  2  0  0  0  0
 17 24  1  0  0  0  0
 18 19  1  0  0  0  0
 19 20  2  0  0  0  0
 20 21  1  0  0  0  0
 20 23  1  0  0  0  0
 21 22  1  0  0  0  0
 23 24  2  0  0  0  0
 23 25  1  0  0  0  0
 25 26  2  0  0  0  0
 25 27  1  0  0  0  0
 28 29  2  0  0  0  0
 29 30  1  0  0  0  0
 30 31  1  0  0  0  0
  1 32  1  0  0  0  0
  1 33  1  0  0  0  0
  1 34  1  0  0  0  0
  3 35  1  0  0  0  0
  4 36  1  0  0  0  0
  5 37  1  0  0  0  0
 11 38  1  0  0  0  0
 13 39  1  0  0  0  0
 14 40  1  0  0  0  0
 18 41  1  0  0  0  0
 19 42  1  0  0  0  0
 22 43  1  0  0  0  0
 22 44  1  0  0  0  0
 22 45  1  0  0  0  0
 24 46  1  0  0  0  0
 27 47  1  0  0  0  0
 27 48  1  0  0  0  0
 28 49  1  0  0  0  0
 31 50  1  0  0  0  0
 31 51  1  0  0  0  0
 31 52  1  0  0  0  0
M  END
> <IC50[nM]>
37.4

$$$$
CHEMBL3265010
  -OEChem-05192314333D
 Structure written by MMmdl.
 52 55  0     0  0  0  0  0  0999 V2000
   -4.2561   -3.1063   13.5675 C   0  0  0  0  0  0  0  0  0  0  0  0
   -3.8710   -2.3586   14.7108 O   0  0  0  0  0  0  0  0  0  0  0  0
   -2.5237   -2.1120   14.8115 C   0  0  0  0  0  0  0  0  0  0  0  0
   -1.7479   -2.8731   15.6758 C   0  0  0  0  0  0  0  0  0  0  0  0
   -0.3907   -2.6159   15.8114 C   0  0  0  0  0  0  0  0  0  0  0  0
    0.2188   -1.5872   15.0906 C   0  0  0  0  0  0  0  0  0  0  0  0
    1.6061   -1.3639   15.3275 N   0  0  0  0  0  0  0  0  0  0  0  0
    2.5365   -0.4468   14.7698 C   0  0  0  0  0  0  0  0  0  0  0  0
    2.1734    0.3862   13.7543 N   0  0  0  0  0  0  0  0  0  0  0  0
    3.1090    1.2399   13.2318 C   0  0  0  0  0  0  0  0  0  0  0  0
    4.4091    1.2828   13.7040 C   0  0  0  0  0  0  0  0  0  0  0  0
    4.7384    0.4983   14.7655 N   0  0  0  0  0  0  0  0  0  0  0  0
    5.8943    0.3897   15.4869 C   0  0  0  0  0  0  0  0  0  0  0  0
    5.5998   -0.5422   16.5164 C   0  0  0  0  0  0  0  0  0  0  0  0
    4.3902   -1.0596   16.3683 N   0  0  0  0  0  0  0  0  0  0  0  0
    3.8368   -0.3957   15.3337 C   0  0  0  0  0  0  0  0  0  0  0  0
    2.6487    2.1497   12.1257 C   0  0  0  0  0  0  0  0  0  0  0  0
    3.5566    2.6396   11.1692 C   0  0  0  0  0  0  0  0  0  0  0  0
    3.1227    3.4570   10.1283 C   0  0  0  0  0  0  0  0  0  0  0  0
    1.7703    3.8176   10.0234 C   0  0  0  0  0  0  0  0  0  0  0  0
    1.3292    4.6020    8.9846 O   0  0  0  0  0  0  0  0  0  0  0  0
    2.1136    5.6875    8.5183 C   0  0  0  0  0  0  0  0  0  0  0  0
    0.8614    3.3613   10.9917 C   0  0  0  0  0  0  0  0  0  0  0  0
    1.3049    2.5285   12.0328 C   0  0  0  0  0  0  0  0  0  0  0  0
   -0.6146    3.7607   10.8922 C   0  0  0  0  0  0  0  0  0  0  0  0
   -1.0753    4.3040    9.8978 O   0  0  0  0  0  0  0  0  0  0  0  0
   -1.3527    3.4740   11.9629 N   0  0  0  0  0  0  0  0  0  0  0  0
   -0.5555   -0.8165   14.1949 C   0  0  0  0  0  0  0  0  0  0  0  0
   -1.9469   -1.0910   14.0631 C   0  0  0  0  0  0  0  0  0  0  0  0
   -2.7598   -0.3552   13.2170 O   0  0  0  0  0  0  0  0  0  0  0  0
   -2.2311    0.6451   12.3776 C   0  0  0  0  0  0  0  0  0  0  0  0
   -5.3464   -3.2522   13.5743 H   0  0  0  0  0  0  0  0  0  0  0  0
   -3.9650   -2.5609   12.6577 H   0  0  0  0  0  0  0  0  0  0  0  0
   -3.7552   -4.0855   13.5841 H   0  0  0  0  0  0  0  0  0  0  0  0
   -2.2031   -3.6696   16.2457 H   0  0  0  0  0  0  0  0  0  0  0  0
   -0.2178   -2.3980   16.8756 H   0  0  0  0  0  0  0  0  0  0  0  0
    0.1330   -3.5436   15.5373 H   0  0  0  0  0  0  0  0  0  0  0  0
    5.1447    1.9237   13.2409 H   0  0  0  0  0  0  0  0  0  0  0  0
    6.8289    0.9018   15.3117 H   0  0  0  0  0  0  0  0  0  0  0  0
    6.2766   -0.7968   17.3186 H   0  0  0  0  0  0  0  0  0  0  0  0
    4.6021    2.3789   11.2429 H   0  0  0  0  0  0  0  0  0  0  0  0
    3.8317    3.8158    9.3969 H   0  0  0  0  0  0  0  0  0  0  0  0
    1.5922    6.1876    7.6888 H   0  0  0  0  0  0  0  0  0  0  0  0
    2.2712    6.4044    9.3376 H   0  0  0  0  0  0  0  0  0  0  0  0
    3.0862    5.3126    8.1670 H   0  0  0  0  0  0  0  0  0  0  0  0
    0.5995    2.1762   12.7709 H   0  0  0  0  0  0  0  0  0  0  0  0
   -2.3259    3.7038   11.9754 H   0  0  0  0  0  0  0  0  0  0  0  0
   -0.9338    3.0289   12.7544 H   0  0  0  0  0  0  0  0  0  0  0  0
   -0.0974   -0.0278   13.6165 H   0  0  0  0  0  0  0  0  0  0  0  0
   -3.0438    1.1019   11.7938 H   0  0  0  0  0  0  0  0  0  0  0  0
   -1.7415    1.4165   12.9901 H   0  0  0  0  0  0  0  0  0  0  0  0
   -1.4948    0.1981   11.6935 H   0  0  0  0  0  0  0  0  0  0  0  0
  1  2  1  0  0  0  0
  2  3  1  0  0  0  0
  3  4  2  0  0  0  0
  3 29  1  0  0  0  0
  4  5  1  0  0  0  0
  5  6  1  0  0  0  0
  6  7  2  0  0  0  0
  6 28  1  0  0  0  0
  7  8  1  0  0  0  0
  8  9  2  0  0  0  0
  8 16  1  0  0  0  0
  9 10  1  0  0  0  0
 10 11  2  0  0  0  0
 10 17  1  0  0  0  0
 11 12  1  0  0  0  0
 12 13  1  0  0  0  0
 12 16  1  0  0  0  0
 13 14  2  0  0  0  0
 14 15  1  0  0  0  0
 15 16  2  0  0  0  0
 17 18  2  0  0  0  0
 17 24  1  0  0  0  0
 18 19  1  0  0  0  0
 19 20  2  0  0  0  0
 20 21  1  0  0  0  0
 20 23  1  0  0  0  0
 21 22  1  0  0  0  0
 23 24  2  0  0  0  0
 23 25  1  0  0  0  0
 25 26  2  0  0  0  0
 25 27  1  0  0  0  0
 28 29  2  0  0  0  0
 29 30  1  0  0  0  0
 30 31  1  0  0  0  0
  1 32  1  0  0  0  0
  1 33  1  0  0  0  0
  1 34  1  0  0  0  0
  4 35  1  0  0  0  0
  5 36  1  0  0  0  0
  5 37  1  0  0  0  0
 11 38  1  0  0  0  0
 13 39  1  0  0  0  0
 14 40  1  0  0  0  0
 18 41  1  0  0  0  0
 19 42  1  0  0  0  0
 22 43  1  0  0  0  0
 22 44  1  0  0  0  0
 22 45  1  0  0  0  0
 24 46  1  0  0  0  0
 27 47  1  0  0  0  0
 27 48  1  0  0  0  0
 28 49  1  0  0  0  0
 31 50  1  0  0  0  0
 31 51  1  0  0  0  0
 31 52  1  0  0  0  0
M  END
> <IC50[nM]>
37.4

$$$$
CHEMBL3265010
  -OEChem-05192314333D
 Structure written by MMmdl.
 52 55  0     0  0  0  0  0  0999 V2000
   -4.2561   -3.1063   13.5675 C   0  0  0  0  0  0  0  0  0  0  0  0
   -3.8710   -2.3586   14.7108 O   0  0  0  0  0  0  0  0  0  0  0  0
   -2.5237   -2.1120   14.8115 C   0  0  0  0  0  0  0  0  0  0  0  0
   -1.7479   -2.8731   15.6758 C   0  0  0  0  0  0  0  0  0  0  0  0
   -0.3907   -2.6159   15.8114 C   0  0  0  0  0  0  0  0  0  0  0  0
    0.2188   -1.5872   15.0906 C   0  0  0  0  0  0  0  0  0  0  0  0
    1.6061   -1.3639   15.3275 N   0  0  0  0  0  0  0  0  0  0  0  0
    2.5365   -0.4468   14.7698 C   0  0  0  0  0  0  0  0  0  0  0  0
    2.1734    0.3862   13.7543 N   0  0  0  0  0  0  0  0  0  0  0  0
    3.1090    1.2399   13.2318 C   0  0  0  0  0  0  0  0  0  0  0  0
    4.4091    1.2828   13.7040 C   0  0  0  0  0  0  0  0  0  0  0  0
    4.7384    0.4983   14.7655 N   0  0  0  0  0  0  0  0  0  0  0  0
    5.8943    0.3897   15.4869 C   0  0  0  0  0  0  0  0  0  0  0  0
    5.5998   -0.5422   16.5164 C   0  0  0  0  0  0  0  0  0  0  0  0
    4.3902   -1.0596   16.3683 N   0  0  0  0  0  0  0  0  0  0  0  0
    3.8368   -0.3957   15.3337 C   0  0  0  0  0  0  0  0  0  0  0  0
    2.6487    2.1497   12.1257 C   0  0  0  0  0  0  0  0  0  0  0  0
    3.5566    2.6396   11.1692 C   0  0  0  0  0  0  0  0  0  0  0  0
    3.1227    3.4570   10.1283 C   0  0  0  0  0  0  0  0  0  0  0  0
    1.7703    3.8176   10.0234 C   0  0  0  0  0  0  0  0  0  0  0  0
    1.3292    4.6020    8.9846 O   0  0  0  0  0  0  0  0  0  0  0  0
    2.1136    5.6875    8.5183 C   0  0  0  0  0  0  0  0  0  0  0  0
    0.8614    3.3613   10.9917 C   0  0  0  0  0  0  0  0  0  0  0  0
    1.3049    2.5285   12.0328 C   0  0  0  0  0  0  0  0  0  0  0  0
   -0.6146    3.7607   10.8922 C   0  0  0  0  0  0  0  0  0  0  0  0
   -1.0753    4.3040    9.8978 O   0  0  0  0  0  0  0  0  0  0  0  0
   -1.3527    3.4740   11.9629 N   0  0  0  0  0  0  0  0  0  0  0  0
   -0.5555   -0.8165   14.1949 C   0  0  0  0  0  0  0  0  0  0  0  0
   -1.9469   -1.0910   14.0631 C   0  0  0  0  0  0  0  0  0  0  0  0
   -2.7598   -0.3552   13.2170 O   0  0  0  0  0  0  0  0  0  0  0  0
   -2.2311    0.6451   12.3776 C   0  0  0  0  0  0  0  0  0  0  0  0
   -5.3464   -3.2522   13.5743 H   0  0  0  0  0  0  0  0  0  0  0  0
   -3.9650   -2.5609   12.6577 H   0  0  0  0  0  0  0  0  0  0  0  0
   -3.7552   -4.0855   13.5841 H   0  0  0  0  0  0  0  0  0  0  0  0
   -2.2031   -3.6696   16.2457 H   0  0  0  0  0  0  0  0  0  0  0  0
    0.2016   -3.2194   16.4833 H   0  0  0  0  0  0  0  0  0  0  0  0
    5.1447    1.9237   13.2409 H   0  0  0  0  0  0  0  0  0  0  0  0
    6.8289    0.9018   15.3117 H   0  0  0  0  0  0  0  0  0  0  0  0
    6.2766   -0.7968   17.3186 H   0  0  0  0  0  0  0  0  0  0  0  0
    4.6021    2.3789   11.2429 H   0  0  0  0  0  0  0  0  0  0  0  0
    3.8317    3.8158    9.3969 H   0  0  0  0  0  0  0  0  0  0  0  0
    1.5922    6.1876    7.6888 H   0  0  0  0  0  0  0  0  0  0  0  0
    2.2712    6.4044    9.3376 H   0  0  0  0  0  0  0  0  0  0  0  0
    3.0862    5.3126    8.1670 H   0  0  0  0  0  0  0  0  0  0  0  0
    0.5995    2.1762   12.7709 H   0  0  0  0  0  0  0  0  0  0  0  0
   -2.3259    3.7038   11.9754 H   0  0  0  0  0  0  0  0  0  0  0  0
   -0.9338    3.0289   12.7544 H   0  0  0  0  0  0  0  0  0  0  0  0
   -0.4639    0.2327   14.5122 H   0  0  0  0  0  0  0  0  0  0  0  0
   -0.1084   -0.9382   13.1973 H   0  0  0  0  0  0  0  0  0  0  0  0
   -3.0438    1.1019   11.7938 H   0  0  0  0  0  0  0  0  0  0  0  0
   -1.7415    1.4165   12.9901 H   0  0  0  0  0  0  0  0  0  0  0  0
   -1.4948    0.1981   11.6935 H   0  0  0  0  0  0  0  0  0  0  0  0
  1  2  1  0  0  0  0
  2  3  1  0  0  0  0
  3  4  1  0  0  0  0
  3 29  2  0  0  0  0
  4  5  2  0  0  0  0
  5  6  1  0  0  0  0
  6  7  2  0  0  0  0
  6 28  1  0  0  0  0
  7  8  1  0  0  0  0
  8  9  2  0  0  0  0
  8 16  1  0  0  0  0
  9 10  1  0  0  0  0
 10 11  2  0  0  0  0
 10 17  1  0  0  0  0
 11 12  1  0  0  0  0
 12 13  1  0  0  0  0
 12 16  1  0  0  0  0
 13 14  2  0  0  0  0
 14 15  1  0  0  0  0
 15 16  2  0  0  0  0
 17 18  2  0  0  0  0
 17 24  1  0  0  0  0
 18 19  1  0  0  0  0
 19 20  2  0  0  0  0
 20 21  1  0  0  0  0
 20 23  1  0  0  0  0
 21 22  1  0  0  0  0
 23 24  2  0  0  0  0
 23 25  1  0  0  0  0
 25 26  2  0  0  0  0
 25 27  1  0  0  0  0
 28 29  1  0  0  0  0
 29 30  1  0  0  0  0
 30 31  1  0  0  0  0
  1 32  1  0  0  0  0
  1 33  1  0  0  0  0
  1 34  1  0  0  0  0
  4 35  1  0  0  0  0
  5 36  1  0  0  0  0
 11 37  1  0  0  0  0
 13 38  1  0  0  0  0
 14 39  1  0  0  0  0
 18 40  1  0  0  0  0
 19 41  1  0  0  0  0
 22 42  1  0  0  0  0
 22 43  1  0  0  0  0
 22 44  1  0  0  0  0
 24 45  1  0  0  0  0
 27 46  1  0  0  0  0
 27 47  1  0  0  0  0
 28 48  1  0  0  0  0
 28 49  1  0  0  0  0
 31 50  1  0  0  0  0
 31 51  1  0  0  0  0
 31 52  1  0  0  0  0
M  END
> <IC50[nM]>
37.4

$$$$
CHEMBL3265010
  -OEChem-05192314333D
 Structure written by MMmdl.
 52 55  0     1  0  0  0  0  0999 V2000
   -4.2561   -3.1063   13.5675 C   0  0  0  0  0  0  0  0  0  0  0  0
   -3.8710   -2.3586   14.7108 O   0  0  0  0  0  0  0  0  0  0  0  0
   -2.5237   -2.1120   14.8115 C   0  0  3  0  0  0  0  0  0  0  0  0
   -1.7479   -2.8731   15.6758 C   0  0  0  0  0  0  0  0  0  0  0  0
   -0.3907   -2.6159   15.8114 C   0  0  0  0  0  0  0  0  0  0  0  0
    0.2188   -1.5872   15.0906 C   0  0  0  0  0  0  0  0  0  0  0  0
    1.6061   -1.3639   15.3275 N   0  0  0  0  0  0  0  0  0  0  0  0
    2.5365   -0.4468   14.7698 C   0  0  0  0  0  0  0  0  0  0  0  0
    2.1734    0.3862   13.7543 N   0  0  0  0  0  0  0  0  0  0  0  0
    3.1090    1.2399   13.2318 C   0  0  0  0  0  0  0  0  0  0  0  0
    4.4091    1.2828   13.7040 C   0  0  0  0  0  0  0  0  0  0  0  0
    4.7384    0.4983   14.7655 N   0  0  0  0  0  0  0  0  0  0  0  0
    5.8943    0.3897   15.4869 C   0  0  0  0  0  0  0  0  0  0  0  0
    5.5998   -0.5422   16.5164 C   0  0  0  0  0  0  0  0  0  0  0  0
    4.3902   -1.0596   16.3683 N   0  0  0  0  0  0  0  0  0  0  0  0
    3.8368   -0.3957   15.3337 C   0  0  0  0  0  0  0  0  0  0  0  0
    2.6487    2.1497   12.1257 C   0  0  0  0  0  0  0  0  0  0  0  0
    3.5566    2.6396   11.1692 C   0  0  0  0  0  0  0  0  0  0  0  0
    3.1227    3.4570   10.1283 C   0  0  0  0  0  0  0  0  0  0  0  0
    1.7703    3.8176   10.0234 C   0  0  0  0  0  0  0  0  0  0  0  0
    1.3292    4.6020    8.9846 O   0  0  0  0  0  0  0  0  0  0  0  0
    2.1136    5.6875    8.5183 C   0  0  0  0  0  0  0  0  0  0  0  0
    0.8614    3.3613   10.9917 C   0  0  0  0  0  0  0  0  0  0  0  0
    1.3049    2.5285   12.0328 C   0  0  0  0  0  0  0  0  0  0  0  0
   -0.6146    3.7607   10.8922 C   0  0  0  0  0  0  0  0  0  0  0  0
   -1.0753    4.3040    9.8978 O   0  0  0  0  0  0  0  0  0  0  0  0
   -1.3527    3.4740   11.9629 N   0  0  0  0  0  0  0  0  0  0  0  0
   -0.5555   -0.8165   14.1949 C   0  0  0  0  0  0  0  0  0  0  0  0
   -1.9469   -1.0910   14.0631 C   0  0  0  0  0  0  0  0  0  0  0  0
   -2.7598   -0.3552   13.2170 O   0  0  0  0  0  0  0  0  0  0  0  0
   -2.2311    0.6451   12.3776 C   0  0  0  0  0  0  0  0  0  0  0  0
   -5.3464   -3.2522   13.5743 H   0  0  0  0  0  0  0  0  0  0  0  0
   -3.9650   -2.5609   12.6577 H   0  0  0  0  0  0  0  0  0  0  0  0
   -3.7552   -4.0855   13.5841 H   0  0  0  0  0  0  0  0  0  0  0  0
   -2.3271   -2.8260   13.9982 H   0  0  0  0  0  0  0  0  0  0  0  0
   -2.2031   -3.6696   16.2457 H   0  0  0  0  0  0  0  0  0  0  0  0
    0.2016   -3.2194   16.4833 H   0  0  0  0  0  0  0  0  0  0  0  0
    5.1447    1.9237   13.2409 H   0  0  0  0  0  0  0  0  0  0  0  0
    6.8289    0.9018   15.3117 H   0  0  0  0  0  0  0  0  0  0  0  0
    6.2766   -0.7968   17.3186 H   0  0  0  0  0  0  0  0  0  0  0  0
    4.6021    2.3789   11.2429 H   0  0  0  0  0  0  0  0  0  0  0  0
    3.8317    3.8158    9.3969 H   0  0  0  0  0  0  0  0  0  0  0  0
    1.5922    6.1876    7.6888 H   0  0  0  0  0  0  0  0  0  0  0  0
    2.2712    6.4044    9.3376 H   0  0  0  0  0  0  0  0  0  0  0  0
    3.0862    5.3126    8.1670 H   0  0  0  0  0  0  0  0  0  0  0  0
    0.5995    2.1762   12.7709 H   0  0  0  0  0  0  0  0  0  0  0  0
   -2.0014    4.4709   10.0280 H   0  0  0  0  0  0  0  0  0  0  0  0
   -2.3055    3.7546   11.8471 H   0  0  0  0  0  0  0  0  0  0  0  0
   -0.0974   -0.0278   13.6165 H   0  0  0  0  0  0  0  0  0  0  0  0
   -3.0438    1.1019   11.7938 H   0  0  0  0  0  0  0  0  0  0  0  0
   -1.7415    1.4165   12.9901 H   0  0  0  0  0  0  0  0  0  0  0  0
   -1.4948    0.1981   11.6935 H   0  0  0  0  0  0  0  0  0  0  0  0
  1  2  1  0  0  0  0
  2  3  1  0  0  0  0
  3  4  1  0  0  0  0
  3 29  1  0  0  0  0
  4  5  2  0  0  0  0
  5  6  1  0  0  0  0
  6  7  2  0  0  0  0
  6 28  1  0  0  0  0
  7  8  1  0  0  0  0
  8  9  2  0  0  0  0
  8 16  1  0  0  0  0
  9 10  1  0  0  0  0
 10 11  2  0  0  0  0
 10 17  1  0  0  0  0
 11 12  1  0  0  0  0
 12 13  1  0  0  0  0
 12 16  1  0  0  0  0
 13 14  2  0  0  0  0
 14 15  1  0  0  0  0
 15 16  2  0  0  0  0
 17 18  2  0  0  0  0
 17 24  1  0  0  0  0
 18 19  1  0  0  0  0
 19 20  2  0  0  0  0
 20 21  1  0  0  0  0
 20 23  1  0  0  0  0
 21 22  1  0  0  0  0
 23 24  2  0  0  0  0
 23 25  1  0  0  0  0
 25 26  1  0  0  0  0
 25 27  2  0  0  0  0
 28 29  2  0  0  0  0
 29 30  1  0  0  0  0
 30 31  1  0  0  0  0
  1 32  1  0  0  0  0
  1 33  1  0  0  0  0
  1 34  1  0  0  0  0
  3 35  1  0  0  0  0
  4 36  1  0  0  0  0
  5 37  1  0  0  0  0
 11 38  1  0  0  0  0
 13 39  1  0  0  0  0
 14 40  1  0  0  0  0
 18 41  1  0  0  0  0
 19 42  1  0  0  0  0
 22 43  1  0  0  0  0
 22 44  1  0  0  0  0
 22 45  1  0  0  0  0
 24 46  1  0  0  0  0
 26 47  1  0  0  0  0
 27 48  1  0  0  0  0
 28 49  1  0  0  0  0
 31 50  1  0  0  0  0
 31 51  1  0  0  0  0
 31 52  1  0  0  0  0
M  END
> <IC50[nM]>
37.4

$$$$
CHEMBL3265010
  -OEChem-05192314333D
 Structure written by MMmdl.
 52 55  0     0  0  0  0  0  0999 V2000
   -4.2561   -3.1063   13.5675 C   0  0  0  0  0  0  0  0  0  0  0  0
   -3.8710   -2.3586   14.7108 O   0  0  0  0  0  0  0  0  0  0  0  0
   -2.5237   -2.1120   14.8115 C   0  0  0  0  0  0  0  0  0  0  0  0
   -1.7479   -2.8731   15.6758 C   0  0  0  0  0  0  0  0  0  0  0  0
   -0.3907   -2.6159   15.8114 C   0  0  0  0  0  0  0  0  0  0  0  0
    0.2188   -1.5872   15.0906 C   0  0  0  0  0  0  0  0  0  0  0  0
    1.6061   -1.3639   15.3275 N   0  0  0  0  0  0  0  0  0  0  0  0
    2.5365   -0.4468   14.7698 C   0  0  0  0  0  0  0  0  0  0  0  0
    2.1734    0.3862   13.7543 N   0  0  0  0  0  0  0  0  0  0  0  0
    3.1090    1.2399   13.2318 C   0  0  0  0  0  0  0  0  0  0  0  0
    4.4091    1.2828   13.7040 C   0  0  0  0  0  0  0  0  0  0  0  0
    4.7384    0.4983   14.7655 N   0  0  0  0  0  0  0  0  0  0  0  0
    5.8943    0.3897   15.4869 C   0  0  0  0  0  0  0  0  0  0  0  0
    5.5998   -0.5422   16.5164 C   0  0  0  0  0  0  0  0  0  0  0  0
    4.3902   -1.0596   16.3683 N   0  0  0  0  0  0  0  0  0  0  0  0
    3.8368   -0.3957   15.3337 C   0  0  0  0  0  0  0  0  0  0  0  0
    2.6487    2.1497   12.1257 C   0  0  0  0  0  0  0  0  0  0  0  0
    3.5566    2.6396   11.1692 C   0  0  0  0  0  0  0  0  0  0  0  0
    3.1227    3.4570   10.1283 C   0  0  0  0  0  0  0  0  0  0  0  0
    1.7703    3.8176   10.0234 C   0  0  0  0  0  0  0  0  0  0  0  0
    1.3292    4.6020    8.9846 O   0  0  0  0  0  0  0  0  0  0  0  0
    2.1136    5.6875    8.5183 C   0  0  0  0  0  0  0  0  0  0  0  0
    0.8614    3.3613   10.9917 C   0  0  0  0  0  0  0  0  0  0  0  0
    1.3049    2.5285   12.0328 C   0  0  0  0  0  0  0  0  0  0  0  0
   -0.6146    3.7607   10.8922 C   0  0  0  0  0  0  0  0  0  0  0  0
   -1.0753    4.3040    9.8978 O   0  0  0  0  0  0  0  0  0  0  0  0
   -1.3527    3.4740   11.9629 N   0  0  0  0  0  0  0  0  0  0  0  0
   -0.5555   -0.8165   14.1949 C   0  0  0  0  0  0  0  0  0  0  0  0
   -1.9469   -1.0910   14.0631 C   0  0  0  0  0  0  0  0  0  0  0  0
   -2.7598   -0.3552   13.2170 O   0  0  0  0  0  0  0  0  0  0  0  0
   -2.2311    0.6451   12.3776 C   0  0  0  0  0  0  0  0  0  0  0  0
   -5.3464   -3.2522   13.5743 H   0  0  0  0  0  0  0  0  0  0  0  0
   -3.9650   -2.5609   12.6577 H   0  0  0  0  0  0  0  0  0  0  0  0
   -3.7552   -4.0855   13.5841 H   0  0  0  0  0  0  0  0  0  0  0  0
   -2.2031   -3.6696   16.2457 H   0  0  0  0  0  0  0  0  0  0  0  0
   -0.2178   -2.3980   16.8756 H   0  0  0  0  0  0  0  0  0  0  0  0
    0.1330   -3.5436   15.5373 H   0  0  0  0  0  0  0  0  0  0  0  0
    5.1447    1.9237   13.2409 H   0  0  0  0  0  0  0  0  0  0  0  0
    6.8289    0.9018   15.3117 H   0  0  0  0  0  0  0  0  0  0  0  0
    6.2766   -0.7968   17.3186 H   0  0  0  0  0  0  0  0  0  0  0  0
    4.6021    2.3789   11.2429 H   0  0  0  0  0  0  0  0  0  0  0  0
    3.8317    3.8158    9.3969 H   0  0  0  0  0  0  0  0  0  0  0  0
    1.5922    6.1876    7.6888 H   0  0  0  0  0  0  0  0  0  0  0  0
    2.2712    6.4044    9.3376 H   0  0  0  0  0  0  0  0  0  0  0  0
    3.0862    5.3126    8.1670 H   0  0  0  0  0  0  0  0  0  0  0  0
    0.5995    2.1762   12.7709 H   0  0  0  0  0  0  0  0  0  0  0  0
   -2.0014    4.4709   10.0280 H   0  0  0  0  0  0  0  0  0  0  0  0
   -2.3055    3.7546   11.8471 H   0  0  0  0  0  0  0  0  0  0  0  0
   -0.0974   -0.0278   13.6165 H   0  0  0  0  0  0  0  0  0  0  0  0
   -3.0438    1.1019   11.7938 H   0  0  0  0  0  0  0  0  0  0  0  0
   -1.7415    1.4165   12.9901 H   0  0  0  0  0  0  0  0  0  0  0  0
   -1.4948    0.1981   11.6935 H   0  0  0  0  0  0  0  0  0  0  0  0
  1  2  1  0  0  0  0
  2  3  1  0  0  0  0
  3  4  2  0  0  0  0
  3 29  1  0  0  0  0
  4  5  1  0  0  0  0
  5  6  1  0  0  0  0
  6  7  2  0  0  0  0
  6 28  1  0  0  0  0
  7  8  1  0  0  0  0
  8  9  2  0  0  0  0
  8 16  1  0  0  0  0
  9 10  1  0  0  0  0
 10 11  2  0  0  0  0
 10 17  1  0  0  0  0
 11 12  1  0  0  0  0
 12 13  1  0  0  0  0
 12 16  1  0  0  0  0
 13 14  2  0  0  0  0
 14 15  1  0  0  0  0
 15 16  2  0  0  0  0
 17 18  2  0  0  0  0
 17 24  1  0  0  0  0
 18 19  1  0  0  0  0
 19 20  2  0  0  0  0
 20 21  1  0  0  0  0
 20 23  1  0  0  0  0
 21 22  1  0  0  0  0
 23 24  2  0  0  0  0
 23 25  1  0  0  0  0
 25 26  1  0  0  0  0
 25 27  2  0  0  0  0
 28 29  2  0  0  0  0
 29 30  1  0  0  0  0
 30 31  1  0  0  0  0
  1 32  1  0  0  0  0
  1 33  1  0  0  0  0
  1 34  1  0  0  0  0
  4 35  1  0  0  0  0
  5 36  1  0  0  0  0
  5 37  1  0  0  0  0
 11 38  1  0  0  0  0
 13 39  1  0  0  0  0
 14 40  1  0  0  0  0
 18 41  1  0  0  0  0
 19 42  1  0  0  0  0
 22 43  1  0  0  0  0
 22 44  1  0  0  0  0
 22 45  1  0  0  0  0
 24 46  1  0  0  0  0
 26 47  1  0  0  0  0
 27 48  1  0  0  0  0
 28 49  1  0  0  0  0
 31 50  1  0  0  0  0
 31 51  1  0  0  0  0
 31 52  1  0  0  0  0
M  END
> <IC50[nM]>
37.4

$$$$
CHEMBL3265010
  -OEChem-05192314333D
 Structure written by MMmdl.
 52 55  0     0  0  0  0  0  0999 V2000
   -4.2561   -3.1063   13.5675 C   0  0  0  0  0  0  0  0  0  0  0  0
   -3.8710   -2.3586   14.7108 O   0  0  0  0  0  0  0  0  0  0  0  0
   -2.5237   -2.1120   14.8115 C   0  0  0  0  0  0  0  0  0  0  0  0
   -1.7479   -2.8731   15.6758 C   0  0  0  0  0  0  0  0  0  0  0  0
   -0.3907   -2.6159   15.8114 C   0  0  0  0  0  0  0  0  0  0  0  0
    0.2188   -1.5872   15.0906 C   0  0  0  0  0  0  0  0  0  0  0  0
    1.6061   -1.3639   15.3275 N   0  0  0  0  0  0  0  0  0  0  0  0
    2.5365   -0.4468   14.7698 C   0  0  0  0  0  0  0  0  0  0  0  0
    2.1734    0.3862   13.7543 N   0  0  0  0  0  0  0  0  0  0  0  0
    3.1090    1.2399   13.2318 C   0  0  0  0  0  0  0  0  0  0  0  0
    4.4091    1.2828   13.7040 C   0  0  0  0  0  0  0  0  0  0  0  0
    4.7384    0.4983   14.7655 N   0  0  0  0  0  0  0  0  0  0  0  0
    5.8943    0.3897   15.4869 C   0  0  0  0  0  0  0  0  0  0  0  0
    5.5998   -0.5422   16.5164 C   0  0  0  0  0  0  0  0  0  0  0  0
    4.3902   -1.0596   16.3683 N   0  0  0  0  0  0  0  0  0  0  0  0
    3.8368   -0.3957   15.3337 C   0  0  0  0  0  0  0  0  0  0  0  0
    2.6487    2.1497   12.1257 C   0  0  0  0  0  0  0  0  0  0  0  0
    3.5566    2.6396   11.1692 C   0  0  0  0  0  0  0  0  0  0  0  0
    3.1227    3.4570   10.1283 C   0  0  0  0  0  0  0  0  0  0  0  0
    1.7703    3.8176   10.0234 C   0  0  0  0  0  0  0  0  0  0  0  0
    1.3292    4.6020    8.9846 O   0  0  0  0  0  0  0  0  0  0  0  0
    2.1136    5.6875    8.5183 C   0  0  0  0  0  0  0  0  0  0  0  0
    0.8614    3.3613   10.9917 C   0  0  0  0  0  0  0  0  0  0  0  0
    1.3049    2.5285   12.0328 C   0  0  0  0  0  0  0  0  0  0  0  0
   -0.6146    3.7607   10.8922 C   0  0  0  0  0  0  0  0  0  0  0  0
   -1.0753    4.3040    9.8978 O   0  0  0  0  0  0  0  0  0  0  0  0
   -1.3527    3.4740   11.9629 N   0  0  0  0  0  0  0  0  0  0  0  0
   -0.5555   -0.8165   14.1949 C   0  0  0  0  0  0  0  0  0  0  0  0
   -1.9469   -1.0910   14.0631 C   0  0  0  0  0  0  0  0  0  0  0  0
   -2.7598   -0.3552   13.2170 O   0  0  0  0  0  0  0  0  0  0  0  0
   -2.2311    0.6451   12.3776 C   0  0  0  0  0  0  0  0  0  0  0  0
   -5.3464   -3.2522   13.5743 H   0  0  0  0  0  0  0  0  0  0  0  0
   -3.9650   -2.5609   12.6577 H   0  0  0  0  0  0  0  0  0  0  0  0
   -3.7552   -4.0855   13.5841 H   0  0  0  0  0  0  0  0  0  0  0  0
   -2.2031   -3.6696   16.2457 H   0  0  0  0  0  0  0  0  0  0  0  0
    0.2016   -3.2194   16.4833 H   0  0  0  0  0  0  0  0  0  0  0  0
    5.1447    1.9237   13.2409 H   0  0  0  0  0  0  0  0  0  0  0  0
    6.8289    0.9018   15.3117 H   0  0  0  0  0  0  0  0  0  0  0  0
    6.2766   -0.7968   17.3186 H   0  0  0  0  0  0  0  0  0  0  0  0
    4.6021    2.3789   11.2429 H   0  0  0  0  0  0  0  0  0  0  0  0
    3.8317    3.8158    9.3969 H   0  0  0  0  0  0  0  0  0  0  0  0
    1.5922    6.1876    7.6888 H   0  0  0  0  0  0  0  0  0  0  0  0
    2.2712    6.4044    9.3376 H   0  0  0  0  0  0  0  0  0  0  0  0
    3.0862    5.3126    8.1670 H   0  0  0  0  0  0  0  0  0  0  0  0
    0.5995    2.1762   12.7709 H   0  0  0  0  0  0  0  0  0  0  0  0
   -2.0014    4.4709   10.0280 H   0  0  0  0  0  0  0  0  0  0  0  0
   -2.3055    3.7546   11.8471 H   0  0  0  0  0  0  0  0  0  0  0  0
   -0.4639    0.2327   14.5122 H   0  0  0  0  0  0  0  0  0  0  0  0
   -0.1084   -0.9382   13.1973 H   0  0  0  0  0  0  0  0  0  0  0  0
   -3.0438    1.1019   11.7938 H   0  0  0  0  0  0  0  0  0  0  0  0
   -1.7415    1.4165   12.9901 H   0  0  0  0  0  0  0  0  0  0  0  0
   -1.4948    0.1981   11.6935 H   0  0  0  0  0  0  0  0  0  0  0  0
  1  2  1  0  0  0  0
  2  3  1  0  0  0  0
  3  4  1  0  0  0  0
  3 29  2  0  0  0  0
  4  5  2  0  0  0  0
  5  6  1  0  0  0  0
  6  7  2  0  0  0  0
  6 28  1  0  0  0  0
  7  8  1  0  0  0  0
  8  9  2  0  0  0  0
  8 16  1  0  0  0  0
  9 10  1  0  0  0  0
 10 11  2  0  0  0  0
 10 17  1  0  0  0  0
 11 12  1  0  0  0  0
 12 13  1  0  0  0  0
 12 16  1  0  0  0  0
 13 14  2  0  0  0  0
 14 15  1  0  0  0  0
 15 16  2  0  0  0  0
 17 18  2  0  0  0  0
 17 24  1  0  0  0  0
 18 19  1  0  0  0  0
 19 20  2  0  0  0  0
 20 21  1  0  0  0  0
 20 23  1  0  0  0  0
 21 22  1  0  0  0  0
 23 24  2  0  0  0  0
 23 25  1  0  0  0  0
 25 26  1  0  0  0  0
 25 27  2  0  0  0  0
 28 29  1  0  0  0  0
 29 30  1  0  0  0  0
 30 31  1  0  0  0  0
  1 32  1  0  0  0  0
  1 33  1  0  0  0  0
  1 34  1  0  0  0  0
  4 35  1  0  0  0  0
  5 36  1  0  0  0  0
 11 37  1  0  0  0  0
 13 38  1  0  0  0  0
 14 39  1  0  0  0  0
 18 40  1  0  0  0  0
 19 41  1  0  0  0  0
 22 42  1  0  0  0  0
 22 43  1  0  0  0  0
 22 44  1  0  0  0  0
 24 45  1  0  0  0  0
 26 46  1  0  0  0  0
 27 47  1  0  0  0  0
 28 48  1  0  0  0  0
 28 49  1  0  0  0  0
 31 50  1  0  0  0  0
 31 51  1  0  0  0  0
 31 52  1  0  0  0  0
M  END
> <IC50[nM]>
37.4

$$$$
