CHEMBL3265017
  -OEChem-05192314333D
 Structure written by MMmdl.
 47 51  0     0  0  0  0  0  0999 V2000
   -4.2568   -3.1045   13.5692 C   0  0  0  0  0  0  0  0  0  0  0  0
   -3.8735   -2.3609   14.7157 O   0  0  0  0  0  0  0  0  0  0  0  0
   -2.5254   -2.1112   14.8167 C   0  0  0  0  0  0  0  0  0  0  0  0
   -1.7461   -2.8700   15.6816 C   0  0  0  0  0  0  0  0  0  0  0  0
   -0.3903   -2.6103   15.8137 C   0  0  0  0  0  0  0  0  0  0  0  0
    0.2206   -1.5848   15.0868 C   0  0  0  0  0  0  0  0  0  0  0  0
    1.6038   -1.3598   15.3228 N   0  0  0  0  0  0  0  0  0  0  0  0
    2.5359   -0.4458   14.7609 C   0  0  0  0  0  0  0  0  0  0  0  0
    2.1794    0.3745   13.7258 N   0  0  0  0  0  0  0  0  0  0  0  0
    3.1126    1.2387   13.2174 C   0  0  0  0  0  0  0  0  0  0  0  0
    4.4180    1.2838   13.7013 C   0  0  0  0  0  0  0  0  0  0  0  0
    4.7460    0.4885   14.7593 N   0  0  0  0  0  0  0  0  0  0  0  0
    5.8978    0.3783   15.4862 C   0  0  0  0  0  0  0  0  0  0  0  0
    5.5892   -0.5252   16.5282 C   0  0  0  0  0  0  0  0  0  0  0  0
    4.3768   -1.0429   16.3726 N   0  0  0  0  0  0  0  0  0  0  0  0
    3.8366   -0.3928   15.3256 C   0  0  0  0  0  0  0  0  0  0  0  0
    2.6368    2.1616   12.1201 C   0  0  0  0  0  0  0  0  0  0  0  0
    3.5454    2.6408   11.1618 C   0  0  0  0  0  0  0  0  0  0  0  0
    3.1453    3.4625   10.1097 C   0  0  0  0  0  0  0  0  0  0  0  0
    1.7994    3.8163   10.0176 C   0  0  0  0  0  0  0  0  0  0  0  0
    0.9914    4.5941    9.1197 C   0  0  0  0  0  0  0  0  0  0  0  0
   -0.2494    4.6053    9.5133 N   0  0  0  0  0  0  0  0  0  0  0  0
   -0.3372    3.8935   10.6271 N   0  0  0  0  0  0  0  0  0  0  0  0
    0.8851    3.3607   10.9950 C   0  0  0  0  0  0  0  0  0  0  0  0
    1.2726    2.5413   12.0626 C   0  0  0  0  0  0  0  0  0  0  0  0
   -0.5549   -0.8187   14.1915 C   0  0  0  0  0  0  0  0  0  0  0  0
   -1.9439   -1.0882   14.0610 C   0  0  0  0  0  0  0  0  0  0  0  0
   -2.7521   -0.3548   13.2056 O   0  0  0  0  0  0  0  0  0  0  0  0
   -2.2313    0.6456   12.3518 C   0  0  0  0  0  0  0  0  0  0  0  0
   -5.3467   -3.2534   13.5756 H   0  0  0  0  0  0  0  0  0  0  0  0
   -3.9673   -2.5542   12.6618 H   0  0  0  0  0  0  0  0  0  0  0  0
   -3.7532   -4.0824   13.5813 H   0  0  0  0  0  0  0  0  0  0  0  0
   -2.1987   -3.6662   16.2539 H   0  0  0  0  0  0  0  0  0  0  0  0
    0.2026   -3.2097   16.4887 H   0  0  0  0  0  0  0  0  0  0  0  0
    1.9973   -1.9606   16.0186 H   0  0  0  0  0  0  0  0  0  0  0  0
    5.1530    1.9333   13.2492 H   0  0  0  0  0  0  0  0  0  0  0  0
    6.8398    0.8742   15.3039 H   0  0  0  0  0  0  0  0  0  0  0  0
    6.2538   -0.7636   17.3454 H   0  0  0  0  0  0  0  0  0  0  0  0
    4.5861    2.3639   11.2429 H   0  0  0  0  0  0  0  0  0  0  0  0
    3.8608    3.8171    9.3826 H   0  0  0  0  0  0  0  0  0  0  0  0
    1.3620    5.0994    8.2401 H   0  0  0  0  0  0  0  0  0  0  0  0
   -1.1849    3.7578   11.1400 H   0  0  0  0  0  0  0  0  0  0  0  0
    0.5637    2.2135   12.8085 H   0  0  0  0  0  0  0  0  0  0  0  0
   -0.0962   -0.0330   13.6095 H   0  0  0  0  0  0  0  0  0  0  0  0
   -3.0495    1.0924   11.7679 H   0  0  0  0  0  0  0  0  0  0  0  0
   -1.7436    1.4252   12.9555 H   0  0  0  0  0  0  0  0  0  0  0  0
   -1.4954    0.1973   11.6681 H   0  0  0  0  0  0  0  0  0  0  0  0
  1  2  1  0  0  0  0
  2  3  1  0  0  0  0
  3  4  2  0  0  0  0
  3 27  1  0  0  0  0
  4  5  1  0  0  0  0
  5  6  2  0  0  0  0
  6  7  1  0  0  0  0
  6 26  1  0  0  0  0
  7  8  1  0  0  0  0
  8  9  2  0  0  0  0
  8 16  1  0  0  0  0
  9 10  1  0  0  0  0
 10 11  2  0  0  0  0
 10 17  1  0  0  0  0
 11 12  1  0  0  0  0
 12 13  1  0  0  0  0
 12 16  1  0  0  0  0
 13 14  2  0  0  0  0
 14 15  1  0  0  0  0
 15 16  2  0  0  0  0
 17 18  2  0  0  0  0
 17 25  1  0  0  0  0
 18 19  1  0  0  0  0
 19 20  2  0  0  0  0
 20 21  1  0  0  0  0
 20 24  1  0  0  0  0
 21 22  2  0  0  0  0
 22 23  1  0  0  0  0
 23 24  1  0  0  0  0
 24 25  2  0  0  0  0
 26 27  2  0  0  0  0
 27 28  1  0  0  0  0
 28 29  1  0  0  0  0
  1 30  1  0  0  0  0
  1 31  1  0  0  0  0
  1 32  1  0  0  0  0
  4 33  1  0  0  0  0
  5 34  1  0  0  0  0
  7 35  1  0  0  0  0
 11 36  1  0  0  0  0
 13 37  1  0  0  0  0
 14 38  1  0  0  0  0
 18 39  1  0  0  0  0
 19 40  1  0  0  0  0
 21 41  1  0  0  0  0
 23 42  1  0  0  0  0
 25 43  1  0  0  0  0
 26 44  1  0  0  0  0
 29 45  1  0  0  0  0
 29 46  1  0  0  0  0
 29 47  1  0  0  0  0
M  END
> <IC50[nM]>
3.8

$$$$
CHEMBL3265017
  -OEChem-05192314333D
 Structure written by MMmdl.
 47 51  0     0  0  0  0  0  0999 V2000
   -4.2568   -3.1045   13.5692 C   0  0  0  0  0  0  0  0  0  0  0  0
   -3.8735   -2.3609   14.7157 O   0  0  0  0  0  0  0  0  0  0  0  0
   -2.5254   -2.1112   14.8167 C   0  0  0  0  0  0  0  0  0  0  0  0
   -1.7461   -2.8700   15.6816 C   0  0  0  0  0  0  0  0  0  0  0  0
   -0.3903   -2.6103   15.8137 C   0  0  0  0  0  0  0  0  0  0  0  0
    0.2206   -1.5848   15.0868 C   0  0  0  0  0  0  0  0  0  0  0  0
    1.6038   -1.3598   15.3228 N   0  0  0  0  0  0  0  0  0  0  0  0
    2.5359   -0.4458   14.7609 C   0  0  0  0  0  0  0  0  0  0  0  0
    2.1794    0.3745   13.7258 N   0  0  0  0  0  0  0  0  0  0  0  0
    3.1126    1.2387   13.2174 C   0  0  0  0  0  0  0  0  0  0  0  0
    4.4180    1.2838   13.7013 C   0  0  0  0  0  0  0  0  0  0  0  0
    4.7460    0.4885   14.7593 N   0  0  0  0  0  0  0  0  0  0  0  0
    5.8978    0.3783   15.4862 C   0  0  0  0  0  0  0  0  0  0  0  0
    5.5892   -0.5252   16.5282 C   0  0  0  0  0  0  0  0  0  0  0  0
    4.3768   -1.0429   16.3726 N   0  0  0  0  0  0  0  0  0  0  0  0
    3.8366   -0.3928   15.3256 C   0  0  0  0  0  0  0  0  0  0  0  0
    2.6368    2.1616   12.1201 C   0  0  0  0  0  0  0  0  0  0  0  0
    3.5454    2.6408   11.1618 C   0  0  0  0  0  0  0  0  0  0  0  0
    3.1453    3.4625   10.1097 C   0  0  0  0  0  0  0  0  0  0  0  0
    1.7994    3.8163   10.0176 C   0  0  0  0  0  0  0  0  0  0  0  0
    0.9914    4.5941    9.1197 C   0  0  0  0  0  0  0  0  0  0  0  0
   -0.2494    4.6053    9.5133 N   0  0  0  0  0  0  0  0  0  0  0  0
   -0.3372    3.8935   10.6271 N   0  0  0  0  0  0  0  0  0  0  0  0
    0.8851    3.3607   10.9950 C   0  0  0  0  0  0  0  0  0  0  0  0
    1.2726    2.5413   12.0626 C   0  0  0  0  0  0  0  0  0  0  0  0
   -0.5549   -0.8187   14.1915 C   0  0  0  0  0  0  0  0  0  0  0  0
   -1.9439   -1.0882   14.0610 C   0  0  0  0  0  0  0  0  0  0  0  0
   -2.7521   -0.3548   13.2056 O   0  0  0  0  0  0  0  0  0  0  0  0
   -2.2313    0.6456   12.3518 C   0  0  0  0  0  0  0  0  0  0  0  0
   -5.3467   -3.2534   13.5756 H   0  0  0  0  0  0  0  0  0  0  0  0
   -3.9673   -2.5542   12.6618 H   0  0  0  0  0  0  0  0  0  0  0  0
   -3.7532   -4.0824   13.5813 H   0  0  0  0  0  0  0  0  0  0  0  0
   -2.1987   -3.6662   16.2539 H   0  0  0  0  0  0  0  0  0  0  0  0
    0.2026   -3.2097   16.4887 H   0  0  0  0  0  0  0  0  0  0  0  0
    1.9973   -1.9606   16.0186 H   0  0  0  0  0  0  0  0  0  0  0  0
    5.1530    1.9333   13.2492 H   0  0  0  0  0  0  0  0  0  0  0  0
    6.8398    0.8742   15.3039 H   0  0  0  0  0  0  0  0  0  0  0  0
    6.2538   -0.7636   17.3454 H   0  0  0  0  0  0  0  0  0  0  0  0
    4.5861    2.3639   11.2429 H   0  0  0  0  0  0  0  0  0  0  0  0
    3.8608    3.8171    9.3826 H   0  0  0  0  0  0  0  0  0  0  0  0
    1.3620    5.0994    8.2401 H   0  0  0  0  0  0  0  0  0  0  0  0
   -1.0059    5.0710    9.0540 H   0  0  0  0  0  0  0  0  0  0  0  0
    0.5637    2.2135   12.8085 H   0  0  0  0  0  0  0  0  0  0  0  0
   -0.0962   -0.0330   13.6095 H   0  0  0  0  0  0  0  0  0  0  0  0
   -3.0495    1.0924   11.7679 H   0  0  0  0  0  0  0  0  0  0  0  0
   -1.7436    1.4252   12.9555 H   0  0  0  0  0  0  0  0  0  0  0  0
   -1.4954    0.1973   11.6681 H   0  0  0  0  0  0  0  0  0  0  0  0
  1  2  1  0  0  0  0
  2  3  1  0  0  0  0
  3  4  2  0  0  0  0
  3 27  1  0  0  0  0
  4  5  1  0  0  0  0
  5  6  2  0  0  0  0
  6  7  1  0  0  0  0
  6 26  1  0  0  0  0
  7  8  1  0  0  0  0
  8  9  2  0  0  0  0
  8 16  1  0  0  0  0
  9 10  1  0  0  0  0
 10 11  2  0  0  0  0
 10 17  1  0  0  0  0
 11 12  1  0  0  0  0
 12 13  1  0  0  0  0
 12 16  1  0  0  0  0
 13 14  2  0  0  0  0
 14 15  1  0  0  0  0
 15 16  2  0  0  0  0
 17 18  1  0  0  0  0
 17 25  2  0  0  0  0
 18 19  2  0  0  0  0
 19 20  1  0  0  0  0
 20 21  2  0  0  0  0
 20 24  1  0  0  0  0
 21 22  1  0  0  0  0
 22 23  1  0  0  0  0
 23 24  2  0  0  0  0
 24 25  1  0  0  0  0
 26 27  2  0  0  0  0
 27 28  1  0  0  0  0
 28 29  1  0  0  0  0
  1 30  1  0  0  0  0
  1 31  1  0  0  0  0
  1 32  1  0  0  0  0
  4 33  1  0  0  0  0
  5 34  1  0  0  0  0
  7 35  1  0  0  0  0
 11 36  1  0  0  0  0
 13 37  1  0  0  0  0
 14 38  1  0  0  0  0
 18 39  1  0  0  0  0
 19 40  1  0  0  0  0
 21 41  1  0  0  0  0
 22 42  1  0  0  0  0
 25 43  1  0  0  0  0
 26 44  1  0  0  0  0
 29 45  1  0  0  0  0
 29 46  1  0  0  0  0
 29 47  1  0  0  0  0
M  END
> <IC50[nM]>
3.8

$$$$
CHEMBL3265017
  -OEChem-05192314333D
 Structure written by MMmdl.
 47 51  0     0  0  0  0  0  0999 V2000
   -4.2568   -3.1045   13.5692 C   0  0  0  0  0  0  0  0  0  0  0  0
   -3.8735   -2.3609   14.7157 O   0  0  0  0  0  0  0  0  0  0  0  0
   -2.5254   -2.1112   14.8167 C   0  0  0  0  0  0  0  0  0  0  0  0
   -1.7461   -2.8700   15.6816 C   0  0  0  0  0  0  0  0  0  0  0  0
   -0.3903   -2.6103   15.8137 C   0  0  0  0  0  0  0  0  0  0  0  0
    0.2206   -1.5848   15.0868 C   0  0  0  0  0  0  0  0  0  0  0  0
    1.6038   -1.3598   15.3228 N   0  0  0  0  0  0  0  0  0  0  0  0
    2.5359   -0.4458   14.7609 C   0  0  0  0  0  0  0  0  0  0  0  0
    2.1794    0.3745   13.7258 N   0  0  0  0  0  0  0  0  0  0  0  0
    3.1126    1.2387   13.2174 C   0  0  0  0  0  0  0  0  0  0  0  0
    4.4180    1.2838   13.7013 C   0  0  0  0  0  0  0  0  0  0  0  0
    4.7460    0.4885   14.7593 N   0  0  0  0  0  0  0  0  0  0  0  0
    5.8978    0.3783   15.4862 C   0  0  0  0  0  0  0  0  0  0  0  0
    5.5892   -0.5252   16.5282 C   0  0  0  0  0  0  0  0  0  0  0  0
    4.3768   -1.0429   16.3726 N   0  0  0  0  0  0  0  0  0  0  0  0
    3.8366   -0.3928   15.3256 C   0  0  0  0  0  0  0  0  0  0  0  0
    2.6368    2.1616   12.1201 C   0  0  0  0  0  0  0  0  0  0  0  0
    3.5454    2.6408   11.1618 C   0  0  0  0  0  0  0  0  0  0  0  0
    3.1453    3.4625   10.1097 C   0  0  0  0  0  0  0  0  0  0  0  0
    1.7994    3.8163   10.0176 C   0  0  0  0  0  0  0  0  0  0  0  0
    0.9914    4.5941    9.1197 C   0  0  0  0  0  0  0  0  0  0  0  0
   -0.2494    4.6053    9.5133 N   0  0  0  0  0  0  0  0  0  0  0  0
   -0.3372    3.8935   10.6271 N   0  0  0  0  0  0  0  0  0  0  0  0
    0.8851    3.3607   10.9950 C   0  0  0  0  0  0  0  0  0  0  0  0
    1.2726    2.5413   12.0626 C   0  0  0  0  0  0  0  0  0  0  0  0
   -0.5549   -0.8187   14.1915 C   0  0  0  0  0  0  0  0  0  0  0  0
   -1.9439   -1.0882   14.0610 C   0  0  0  0  0  0  0  0  0  0  0  0
   -2.7521   -0.3548   13.2056 O   0  0  0  0  0  0  0  0  0  0  0  0
   -2.2313    0.6456   12.3518 C   0  0  0  0  0  0  0  0  0  0  0  0
   -5.3467   -3.2534   13.5756 H   0  0  0  0  0  0  0  0  0  0  0  0
   -3.9673   -2.5542   12.6618 H   0  0  0  0  0  0  0  0  0  0  0  0
   -3.7532   -4.0824   13.5813 H   0  0  0  0  0  0  0  0  0  0  0  0
   -2.1987   -3.6662   16.2539 H   0  0  0  0  0  0  0  0  0  0  0  0
    0.2026   -3.2097   16.4887 H   0  0  0  0  0  0  0  0  0  0  0  0
    1.2543    0.3438   13.3472 H   0  0  0  0  0  0  0  0  0  0  0  0
    5.1530    1.9333   13.2492 H   0  0  0  0  0  0  0  0  0  0  0  0
    6.8398    0.8742   15.3039 H   0  0  0  0  0  0  0  0  0  0  0  0
    6.2538   -0.7636   17.3454 H   0  0  0  0  0  0  0  0  0  0  0  0
    4.5861    2.3639   11.2429 H   0  0  0  0  0  0  0  0  0  0  0  0
    3.8608    3.8171    9.3826 H   0  0  0  0  0  0  0  0  0  0  0  0
    1.3620    5.0994    8.2401 H   0  0  0  0  0  0  0  0  0  0  0  0
   -1.1849    3.7578   11.1400 H   0  0  0  0  0  0  0  0  0  0  0  0
    0.5637    2.2135   12.8085 H   0  0  0  0  0  0  0  0  0  0  0  0
   -0.0962   -0.0330   13.6095 H   0  0  0  0  0  0  0  0  0  0  0  0
   -3.0495    1.0924   11.7679 H   0  0  0  0  0  0  0  0  0  0  0  0
   -1.7436    1.4252   12.9555 H   0  0  0  0  0  0  0  0  0  0  0  0
   -1.4954    0.1973   11.6681 H   0  0  0  0  0  0  0  0  0  0  0  0
  1  2  1  0  0  0  0
  2  3  1  0  0  0  0
  3  4  2  0  0  0  0
  3 27  1  0  0  0  0
  4  5  1  0  0  0  0
  5  6  2  0  0  0  0
  6  7  1  0  0  0  0
  6 26  1  0  0  0  0
  7  8  2  0  0  0  0
  8  9  1  0  0  0  0
  8 16  1  0  0  0  0
  9 10  1  0  0  0  0
 10 11  2  0  0  0  0
 10 17  1  0  0  0  0
 11 12  1  0  0  0  0
 12 13  1  0  0  0  0
 12 16  1  0  0  0  0
 13 14  2  0  0  0  0
 14 15  1  0  0  0  0
 15 16  2  0  0  0  0
 17 18  2  0  0  0  0
 17 25  1  0  0  0  0
 18 19  1  0  0  0  0
 19 20  2  0  0  0  0
 20 21  1  0  0  0  0
 20 24  1  0  0  0  0
 21 22  2  0  0  0  0
 22 23  1  0  0  0  0
 23 24  1  0  0  0  0
 24 25  2  0  0  0  0
 26 27  2  0  0  0  0
 27 28  1  0  0  0  0
 28 29  1  0  0  0  0
  1 30  1  0  0  0  0
  1 31  1  0  0  0  0
  1 32  1  0  0  0  0
  4 33  1  0  0  0  0
  5 34  1  0  0  0  0
  9 35  1  0  0  0  0
 11 36  1  0  0  0  0
 13 37  1  0  0  0  0
 14 38  1  0  0  0  0
 18 39  1  0  0  0  0
 19 40  1  0  0  0  0
 21 41  1  0  0  0  0
 23 42  1  0  0  0  0
 25 43  1  0  0  0  0
 26 44  1  0  0  0  0
 29 45  1  0  0  0  0
 29 46  1  0  0  0  0
 29 47  1  0  0  0  0
M  END
> <IC50[nM]>
3.8

$$$$
CHEMBL3265017
  -OEChem-05192314333D
 Structure written by MMmdl.
 47 51  0     0  0  0  0  0  0999 V2000
   -4.2568   -3.1045   13.5692 C   0  0  0  0  0  0  0  0  0  0  0  0
   -3.8735   -2.3609   14.7157 O   0  0  0  0  0  0  0  0  0  0  0  0
   -2.5254   -2.1112   14.8167 C   0  0  0  0  0  0  0  0  0  0  0  0
   -1.7461   -2.8700   15.6816 C   0  0  0  0  0  0  0  0  0  0  0  0
   -0.3903   -2.6103   15.8137 C   0  0  0  0  0  0  0  0  0  0  0  0
    0.2206   -1.5848   15.0868 C   0  0  0  0  0  0  0  0  0  0  0  0
    1.6038   -1.3598   15.3228 N   0  0  0  0  0  0  0  0  0  0  0  0
    2.5359   -0.4458   14.7609 C   0  0  0  0  0  0  0  0  0  0  0  0
    2.1794    0.3745   13.7258 N   0  0  0  0  0  0  0  0  0  0  0  0
    3.1126    1.2387   13.2174 C   0  0  0  0  0  0  0  0  0  0  0  0
    4.4180    1.2838   13.7013 C   0  0  0  0  0  0  0  0  0  0  0  0
    4.7460    0.4885   14.7593 N   0  0  0  0  0  0  0  0  0  0  0  0
    5.8978    0.3783   15.4862 C   0  0  0  0  0  0  0  0  0  0  0  0
    5.5892   -0.5252   16.5282 C   0  0  0  0  0  0  0  0  0  0  0  0
    4.3768   -1.0429   16.3726 N   0  0  0  0  0  0  0  0  0  0  0  0
    3.8366   -0.3928   15.3256 C   0  0  0  0  0  0  0  0  0  0  0  0
    2.6368    2.1616   12.1201 C   0  0  0  0  0  0  0  0  0  0  0  0
    3.5454    2.6408   11.1618 C   0  0  0  0  0  0  0  0  0  0  0  0
    3.1453    3.4625   10.1097 C   0  0  0  0  0  0  0  0  0  0  0  0
    1.7994    3.8163   10.0176 C   0  0  0  0  0  0  0  0  0  0  0  0
    0.9914    4.5941    9.1197 C   0  0  0  0  0  0  0  0  0  0  0  0
   -0.2494    4.6053    9.5133 N   0  0  0  0  0  0  0  0  0  0  0  0
   -0.3372    3.8935   10.6271 N   0  0  0  0  0  0  0  0  0  0  0  0
    0.8851    3.3607   10.9950 C   0  0  0  0  0  0  0  0  0  0  0  0
    1.2726    2.5413   12.0626 C   0  0  0  0  0  0  0  0  0  0  0  0
   -0.5549   -0.8187   14.1915 C   0  0  0  0  0  0  0  0  0  0  0  0
   -1.9439   -1.0882   14.0610 C   0  0  0  0  0  0  0  0  0  0  0  0
   -2.7521   -0.3548   13.2056 O   0  0  0  0  0  0  0  0  0  0  0  0
   -2.2313    0.6456   12.3518 C   0  0  0  0  0  0  0  0  0  0  0  0
   -5.3467   -3.2534   13.5756 H   0  0  0  0  0  0  0  0  0  0  0  0
   -3.9673   -2.5542   12.6618 H   0  0  0  0  0  0  0  0  0  0  0  0
   -3.7532   -4.0824   13.5813 H   0  0  0  0  0  0  0  0  0  0  0  0
   -2.1987   -3.6662   16.2539 H   0  0  0  0  0  0  0  0  0  0  0  0
    0.2026   -3.2097   16.4887 H   0  0  0  0  0  0  0  0  0  0  0  0
    1.2543    0.3438   13.3472 H   0  0  0  0  0  0  0  0  0  0  0  0
    5.1530    1.9333   13.2492 H   0  0  0  0  0  0  0  0  0  0  0  0
    6.8398    0.8742   15.3039 H   0  0  0  0  0  0  0  0  0  0  0  0
    6.2538   -0.7636   17.3454 H   0  0  0  0  0  0  0  0  0  0  0  0
    4.5861    2.3639   11.2429 H   0  0  0  0  0  0  0  0  0  0  0  0
    3.8608    3.8171    9.3826 H   0  0  0  0  0  0  0  0  0  0  0  0
    1.3620    5.0994    8.2401 H   0  0  0  0  0  0  0  0  0  0  0  0
   -1.0059    5.0710    9.0540 H   0  0  0  0  0  0  0  0  0  0  0  0
    0.5637    2.2135   12.8085 H   0  0  0  0  0  0  0  0  0  0  0  0
   -0.0962   -0.0330   13.6095 H   0  0  0  0  0  0  0  0  0  0  0  0
   -3.0495    1.0924   11.7679 H   0  0  0  0  0  0  0  0  0  0  0  0
   -1.7436    1.4252   12.9555 H   0  0  0  0  0  0  0  0  0  0  0  0
   -1.4954    0.1973   11.6681 H   0  0  0  0  0  0  0  0  0  0  0  0
  1  2  1  0  0  0  0
  2  3  1  0  0  0  0
  3  4  2  0  0  0  0
  3 27  1  0  0  0  0
  4  5  1  0  0  0  0
  5  6  2  0  0  0  0
  6  7  1  0  0  0  0
  6 26  1  0  0  0  0
  7  8  2  0  0  0  0
  8  9  1  0  0  0  0
  8 16  1  0  0  0  0
  9 10  1  0  0  0  0
 10 11  2  0  0  0  0
 10 17  1  0  0  0  0
 11 12  1  0  0  0  0
 12 13  1  0  0  0  0
 12 16  1  0  0  0  0
 13 14  2  0  0  0  0
 14 15  1  0  0  0  0
 15 16  2  0  0  0  0
 17 18  1  0  0  0  0
 17 25  2  0  0  0  0
 18 19  2  0  0  0  0
 19 20  1  0  0  0  0
 20 21  2  0  0  0  0
 20 24  1  0  0  0  0
 21 22  1  0  0  0  0
 22 23  1  0  0  0  0
 23 24  2  0  0  0  0
 24 25  1  0  0  0  0
 26 27  2  0  0  0  0
 27 28  1  0  0  0  0
 28 29  1  0  0  0  0
  1 30  1  0  0  0  0
  1 31  1  0  0  0  0
  1 32  1  0  0  0  0
  4 33  1  0  0  0  0
  5 34  1  0  0  0  0
  9 35  1  0  0  0  0
 11 36  1  0  0  0  0
 13 37  1  0  0  0  0
 14 38  1  0  0  0  0
 18 39  1  0  0  0  0
 19 40  1  0  0  0  0
 21 41  1  0  0  0  0
 22 42  1  0  0  0  0
 25 43  1  0  0  0  0
 26 44  1  0  0  0  0
 29 45  1  0  0  0  0
 29 46  1  0  0  0  0
 29 47  1  0  0  0  0
M  END
> <IC50[nM]>
3.8

$$$$
CHEMBL3265017
  -OEChem-05192314333D
 Structure written by MMmdl.
 47 51  0     0  0  0  0  0  0999 V2000
   -4.2568   -3.1045   13.5692 C   0  0  0  0  0  0  0  0  0  0  0  0
   -3.8735   -2.3609   14.7157 O   0  0  0  0  0  0  0  0  0  0  0  0
   -2.5254   -2.1112   14.8167 C   0  0  0  0  0  0  0  0  0  0  0  0
   -1.7461   -2.8700   15.6816 C   0  0  0  0  0  0  0  0  0  0  0  0
   -0.3903   -2.6103   15.8137 C   0  0  0  0  0  0  0  0  0  0  0  0
    0.2206   -1.5848   15.0868 C   0  0  0  0  0  0  0  0  0  0  0  0
    1.6038   -1.3598   15.3228 N   0  0  0  0  0  0  0  0  0  0  0  0
    2.5359   -0.4458   14.7609 C   0  0  0  0  0  0  0  0  0  0  0  0
    2.1794    0.3745   13.7258 N   0  0  0  0  0  0  0  0  0  0  0  0
    3.1126    1.2387   13.2174 C   0  0  0  0  0  0  0  0  0  0  0  0
    4.4180    1.2838   13.7013 C   0  0  0  0  0  0  0  0  0  0  0  0
    4.7460    0.4885   14.7593 N   0  0  0  0  0  0  0  0  0  0  0  0
    5.8978    0.3783   15.4862 C   0  0  0  0  0  0  0  0  0  0  0  0
    5.5892   -0.5252   16.5282 C   0  0  0  0  0  0  0  0  0  0  0  0
    4.3768   -1.0429   16.3726 N   0  0  0  0  0  0  0  0  0  0  0  0
    3.8366   -0.3928   15.3256 C   0  0  0  0  0  0  0  0  0  0  0  0
    2.6368    2.1616   12.1201 C   0  0  0  0  0  0  0  0  0  0  0  0
    3.5454    2.6408   11.1618 C   0  0  0  0  0  0  0  0  0  0  0  0
    3.1453    3.4625   10.1097 C   0  0  0  0  0  0  0  0  0  0  0  0
    1.7994    3.8163   10.0176 C   0  0  0  0  0  0  0  0  0  0  0  0
    0.9914    4.5941    9.1197 C   0  0  0  0  0  0  0  0  0  0  0  0
   -0.2494    4.6053    9.5133 N   0  0  0  0  0  0  0  0  0  0  0  0
   -0.3372    3.8935   10.6271 N   0  0  0  0  0  0  0  0  0  0  0  0
    0.8851    3.3607   10.9950 C   0  0  0  0  0  0  0  0  0  0  0  0
    1.2726    2.5413   12.0626 C   0  0  0  0  0  0  0  0  0  0  0  0
   -0.5549   -0.8187   14.1915 C   0  0  0  0  0  0  0  0  0  0  0  0
   -1.9439   -1.0882   14.0610 C   0  0  0  0  0  0  0  0  0  0  0  0
   -2.7521   -0.3548   13.2056 O   0  0  0  0  0  0  0  0  0  0  0  0
   -2.2313    0.6456   12.3518 C   0  0  0  0  0  0  0  0  0  0  0  0
   -5.3467   -3.2534   13.5756 H   0  0  0  0  0  0  0  0  0  0  0  0
   -3.9673   -2.5542   12.6618 H   0  0  0  0  0  0  0  0  0  0  0  0
   -3.7532   -4.0824   13.5813 H   0  0  0  0  0  0  0  0  0  0  0  0
   -2.1987   -3.6662   16.2539 H   0  0  0  0  0  0  0  0  0  0  0  0
    0.2026   -3.2097   16.4887 H   0  0  0  0  0  0  0  0  0  0  0  0
    1.9973   -1.9606   16.0186 H   0  0  0  0  0  0  0  0  0  0  0  0
    5.1530    1.9333   13.2492 H   0  0  0  0  0  0  0  0  0  0  0  0
    6.8398    0.8742   15.3039 H   0  0  0  0  0  0  0  0  0  0  0  0
    6.2538   -0.7636   17.3454 H   0  0  0  0  0  0  0  0  0  0  0  0
    4.5861    2.3639   11.2429 H   0  0  0  0  0  0  0  0  0  0  0  0
    3.8608    3.8171    9.3826 H   0  0  0  0  0  0  0  0  0  0  0  0
    1.3716    5.6260    9.0929 H   0  0  0  0  0  0  0  0  0  0  0  0
    1.0471    4.1566    8.1120 H   0  0  0  0  0  0  0  0  0  0  0  0
    0.5637    2.2135   12.8085 H   0  0  0  0  0  0  0  0  0  0  0  0
   -0.0962   -0.0330   13.6095 H   0  0  0  0  0  0  0  0  0  0  0  0
   -3.0495    1.0924   11.7679 H   0  0  0  0  0  0  0  0  0  0  0  0
   -1.7436    1.4252   12.9555 H   0  0  0  0  0  0  0  0  0  0  0  0
   -1.4954    0.1973   11.6681 H   0  0  0  0  0  0  0  0  0  0  0  0
  1  2  1  0  0  0  0
  2  3  1  0  0  0  0
  3  4  2  0  0  0  0
  3 27  1  0  0  0  0
  4  5  1  0  0  0  0
  5  6  2  0  0  0  0
  6  7  1  0  0  0  0
  6 26  1  0  0  0  0
  7  8  1  0  0  0  0
  8  9  2  0  0  0  0
  8 16  1  0  0  0  0
  9 10  1  0  0  0  0
 10 11  2  0  0  0  0
 10 17  1  0  0  0  0
 11 12  1  0  0  0  0
 12 13  1  0  0  0  0
 12 16  1  0  0  0  0
 13 14  2  0  0  0  0
 14 15  1  0  0  0  0
 15 16  2  0  0  0  0
 17 18  2  0  0  0  0
 17 25  1  0  0  0  0
 18 19  1  0  0  0  0
 19 20  2  0  0  0  0
 20 21  1  0  0  0  0
 20 24  1  0  0  0  0
 21 22  1  0  0  0  0
 22 23  2  0  0  0  0
 23 24  1  0  0  0  0
 24 25  2  0  0  0  0
 26 27  2  0  0  0  0
 27 28  1  0  0  0  0
 28 29  1  0  0  0  0
  1 30  1  0  0  0  0
  1 31  1  0  0  0  0
  1 32  1  0  0  0  0
  4 33  1  0  0  0  0
  5 34  1  0  0  0  0
  7 35  1  0  0  0  0
 11 36  1  0  0  0  0
 13 37  1  0  0  0  0
 14 38  1  0  0  0  0
 18 39  1  0  0  0  0
 19 40  1  0  0  0  0
 21 41  1  0  0  0  0
 21 42  1  0  0  0  0
 25 43  1  0  0  0  0
 26 44  1  0  0  0  0
 29 45  1  0  0  0  0
 29 46  1  0  0  0  0
 29 47  1  0  0  0  0
M  END
> <IC50[nM]>
3.8

$$$$
CHEMBL3265017
  -OEChem-05192314333D
 Structure written by MMmdl.
 47 51  0     0  0  0  0  0  0999 V2000
   -4.2568   -3.1045   13.5692 C   0  0  0  0  0  0  0  0  0  0  0  0
   -3.8735   -2.3609   14.7157 O   0  0  0  0  0  0  0  0  0  0  0  0
   -2.5254   -2.1112   14.8167 C   0  0  0  0  0  0  0  0  0  0  0  0
   -1.7461   -2.8700   15.6816 C   0  0  0  0  0  0  0  0  0  0  0  0
   -0.3903   -2.6103   15.8137 C   0  0  0  0  0  0  0  0  0  0  0  0
    0.2206   -1.5848   15.0868 C   0  0  0  0  0  0  0  0  0  0  0  0
    1.6038   -1.3598   15.3228 N   0  0  0  0  0  0  0  0  0  0  0  0
    2.5359   -0.4458   14.7609 C   0  0  0  0  0  0  0  0  0  0  0  0
    2.1794    0.3745   13.7258 N   0  0  0  0  0  0  0  0  0  0  0  0
    3.1126    1.2387   13.2174 C   0  0  0  0  0  0  0  0  0  0  0  0
    4.4180    1.2838   13.7013 C   0  0  0  0  0  0  0  0  0  0  0  0
    4.7460    0.4885   14.7593 N   0  0  0  0  0  0  0  0  0  0  0  0
    5.8978    0.3783   15.4862 C   0  0  0  0  0  0  0  0  0  0  0  0
    5.5892   -0.5252   16.5282 C   0  0  0  0  0  0  0  0  0  0  0  0
    4.3768   -1.0429   16.3726 N   0  0  0  0  0  0  0  0  0  0  0  0
    3.8366   -0.3928   15.3256 C   0  0  0  0  0  0  0  0  0  0  0  0
    2.6368    2.1616   12.1201 C   0  0  0  0  0  0  0  0  0  0  0  0
    3.5454    2.6408   11.1618 C   0  0  0  0  0  0  0  0  0  0  0  0
    3.1453    3.4625   10.1097 C   0  0  0  0  0  0  0  0  0  0  0  0
    1.7994    3.8163   10.0176 C   0  0  0  0  0  0  0  0  0  0  0  0
    0.9914    4.5941    9.1197 C   0  0  0  0  0  0  0  0  0  0  0  0
   -0.2494    4.6053    9.5133 N   0  0  0  0  0  0  0  0  0  0  0  0
   -0.3372    3.8935   10.6271 N   0  0  0  0  0  0  0  0  0  0  0  0
    0.8851    3.3607   10.9950 C   0  0  0  0  0  0  0  0  0  0  0  0
    1.2726    2.5413   12.0626 C   0  0  0  0  0  0  0  0  0  0  0  0
   -0.5549   -0.8187   14.1915 C   0  0  0  0  0  0  0  0  0  0  0  0
   -1.9439   -1.0882   14.0610 C   0  0  0  0  0  0  0  0  0  0  0  0
   -2.7521   -0.3548   13.2056 O   0  0  0  0  0  0  0  0  0  0  0  0
   -2.2313    0.6456   12.3518 C   0  0  0  0  0  0  0  0  0  0  0  0
   -5.3467   -3.2534   13.5756 H   0  0  0  0  0  0  0  0  0  0  0  0
   -3.9673   -2.5542   12.6618 H   0  0  0  0  0  0  0  0  0  0  0  0
   -3.7532   -4.0824   13.5813 H   0  0  0  0  0  0  0  0  0  0  0  0
   -2.1987   -3.6662   16.2539 H   0  0  0  0  0  0  0  0  0  0  0  0
    0.2026   -3.2097   16.4887 H   0  0  0  0  0  0  0  0  0  0  0  0
    1.2543    0.3438   13.3472 H   0  0  0  0  0  0  0  0  0  0  0  0
    5.1530    1.9333   13.2492 H   0  0  0  0  0  0  0  0  0  0  0  0
    6.8398    0.8742   15.3039 H   0  0  0  0  0  0  0  0  0  0  0  0
    6.2538   -0.7636   17.3454 H   0  0  0  0  0  0  0  0  0  0  0  0
    4.5861    2.3639   11.2429 H   0  0  0  0  0  0  0  0  0  0  0  0
    3.8608    3.8171    9.3826 H   0  0  0  0  0  0  0  0  0  0  0  0
    1.3716    5.6260    9.0929 H   0  0  0  0  0  0  0  0  0  0  0  0
    1.0471    4.1566    8.1120 H   0  0  0  0  0  0  0  0  0  0  0  0
    0.5637    2.2135   12.8085 H   0  0  0  0  0  0  0  0  0  0  0  0
   -0.0962   -0.0330   13.6095 H   0  0  0  0  0  0  0  0  0  0  0  0
   -3.0495    1.0924   11.7679 H   0  0  0  0  0  0  0  0  0  0  0  0
   -1.7436    1.4252   12.9555 H   0  0  0  0  0  0  0  0  0  0  0  0
   -1.4954    0.1973   11.6681 H   0  0  0  0  0  0  0  0  0  0  0  0
  1  2  1  0  0  0  0
  2  3  1  0  0  0  0
  3  4  2  0  0  0  0
  3 27  1  0  0  0  0
  4  5  1  0  0  0  0
  5  6  2  0  0  0  0
  6  7  1  0  0  0  0
  6 26  1  0  0  0  0
  7  8  2  0  0  0  0
  8  9  1  0  0  0  0
  8 16  1  0  0  0  0
  9 10  1  0  0  0  0
 10 11  2  0  0  0  0
 10 17  1  0  0  0  0
 11 12  1  0  0  0  0
 12 13  1  0  0  0  0
 12 16  1  0  0  0  0
 13 14  2  0  0  0  0
 14 15  1  0  0  0  0
 15 16  2  0  0  0  0
 17 18  2  0  0  0  0
 17 25  1  0  0  0  0
 18 19  1  0  0  0  0
 19 20  2  0  0  0  0
 20 21  1  0  0  0  0
 20 24  1  0  0  0  0
 21 22  1  0  0  0  0
 22 23  2  0  0  0  0
 23 24  1  0  0  0  0
 24 25  2  0  0  0  0
 26 27  2  0  0  0  0
 27 28  1  0  0  0  0
 28 29  1  0  0  0  0
  1 30  1  0  0  0  0
  1 31  1  0  0  0  0
  1 32  1  0  0  0  0
  4 33  1  0  0  0  0
  5 34  1  0  0  0  0
  9 35  1  0  0  0  0
 11 36  1  0  0  0  0
 13 37  1  0  0  0  0
 14 38  1  0  0  0  0
 18 39  1  0  0  0  0
 19 40  1  0  0  0  0
 21 41  1  0  0  0  0
 21 42  1  0  0  0  0
 25 43  1  0  0  0  0
 26 44  1  0  0  0  0
 29 45  1  0  0  0  0
 29 46  1  0  0  0  0
 29 47  1  0  0  0  0
M  END
> <IC50[nM]>
3.8

$$$$
CHEMBL3265017
  -OEChem-05192314333D
 Structure written by MMmdl.
 47 51  0     0  0  0  0  0  0999 V2000
   -4.2568   -3.1045   13.5692 C   0  0  0  0  0  0  0  0  0  0  0  0
   -3.8735   -2.3609   14.7157 O   0  0  0  0  0  0  0  0  0  0  0  0
   -2.5254   -2.1112   14.8167 C   0  0  0  0  0  0  0  0  0  0  0  0
   -1.7461   -2.8700   15.6816 C   0  0  0  0  0  0  0  0  0  0  0  0
   -0.3903   -2.6103   15.8137 C   0  0  0  0  0  0  0  0  0  0  0  0
    0.2206   -1.5848   15.0868 C   0  0  0  0  0  0  0  0  0  0  0  0
    1.6038   -1.3598   15.3228 N   0  0  0  0  0  0  0  0  0  0  0  0
    2.5359   -0.4458   14.7609 C   0  0  0  0  0  0  0  0  0  0  0  0
    2.1794    0.3745   13.7258 N   0  0  0  0  0  0  0  0  0  0  0  0
    3.1126    1.2387   13.2174 C   0  0  0  0  0  0  0  0  0  0  0  0
    4.4180    1.2838   13.7013 C   0  0  0  0  0  0  0  0  0  0  0  0
    4.7460    0.4885   14.7593 N   0  0  0  0  0  0  0  0  0  0  0  0
    5.8978    0.3783   15.4862 C   0  0  0  0  0  0  0  0  0  0  0  0
    5.5892   -0.5252   16.5282 C   0  0  0  0  0  0  0  0  0  0  0  0
    4.3768   -1.0429   16.3726 N   0  0  0  0  0  0  0  0  0  0  0  0
    3.8366   -0.3928   15.3256 C   0  0  0  0  0  0  0  0  0  0  0  0
    2.6368    2.1616   12.1201 C   0  0  0  0  0  0  0  0  0  0  0  0
    3.5454    2.6408   11.1618 C   0  0  0  0  0  0  0  0  0  0  0  0
    3.1453    3.4625   10.1097 C   0  0  0  0  0  0  0  0  0  0  0  0
    1.7994    3.8163   10.0176 C   0  0  0  0  0  0  0  0  0  0  0  0
    0.9914    4.5941    9.1197 C   0  0  0  0  0  0  0  0  0  0  0  0
   -0.2494    4.6053    9.5133 N   0  0  0  0  0  0  0  0  0  0  0  0
   -0.3372    3.8935   10.6271 N   0  0  0  0  0  0  0  0  0  0  0  0
    0.8851    3.3607   10.9950 C   0  0  0  0  0  0  0  0  0  0  0  0
    1.2726    2.5413   12.0626 C   0  0  0  0  0  0  0  0  0  0  0  0
   -0.5549   -0.8187   14.1915 C   0  0  0  0  0  0  0  0  0  0  0  0
   -1.9439   -1.0882   14.0610 C   0  0  0  0  0  0  0  0  0  0  0  0
   -2.7521   -0.3548   13.2056 O   0  0  0  0  0  0  0  0  0  0  0  0
   -2.2313    0.6456   12.3518 C   0  0  0  0  0  0  0  0  0  0  0  0
   -5.3467   -3.2534   13.5756 H   0  0  0  0  0  0  0  0  0  0  0  0
   -3.9673   -2.5542   12.6618 H   0  0  0  0  0  0  0  0  0  0  0  0
   -3.7532   -4.0824   13.5813 H   0  0  0  0  0  0  0  0  0  0  0  0
   -2.1987   -3.6662   16.2539 H   0  0  0  0  0  0  0  0  0  0  0  0
    0.2026   -3.2097   16.4887 H   0  0  0  0  0  0  0  0  0  0  0  0
    5.0828    1.0085   12.8693 H   0  0  0  0  0  0  0  0  0  0  0  0
    4.6176    2.3230   14.0016 H   0  0  0  0  0  0  0  0  0  0  0  0
    6.8398    0.8742   15.3039 H   0  0  0  0  0  0  0  0  0  0  0  0
    6.2538   -0.7636   17.3454 H   0  0  0  0  0  0  0  0  0  0  0  0
    4.5861    2.3639   11.2429 H   0  0  0  0  0  0  0  0  0  0  0  0
    3.8608    3.8171    9.3826 H   0  0  0  0  0  0  0  0  0  0  0  0
    1.3620    5.0994    8.2401 H   0  0  0  0  0  0  0  0  0  0  0  0
   -1.1849    3.7578   11.1400 H   0  0  0  0  0  0  0  0  0  0  0  0
    0.5637    2.2135   12.8085 H   0  0  0  0  0  0  0  0  0  0  0  0
   -0.0962   -0.0330   13.6095 H   0  0  0  0  0  0  0  0  0  0  0  0
   -3.0495    1.0924   11.7679 H   0  0  0  0  0  0  0  0  0  0  0  0
   -1.7436    1.4252   12.9555 H   0  0  0  0  0  0  0  0  0  0  0  0
   -1.4954    0.1973   11.6681 H   0  0  0  0  0  0  0  0  0  0  0  0
  1  2  1  0  0  0  0
  2  3  1  0  0  0  0
  3  4  2  0  0  0  0
  3 27  1  0  0  0  0
  4  5  1  0  0  0  0
  5  6  2  0  0  0  0
  6  7  1  0  0  0  0
  6 26  1  0  0  0  0
  7  8  2  0  0  0  0
  8  9  1  0  0  0  0
  8 16  1  0  0  0  0
  9 10  2  0  0  0  0
 10 11  1  0  0  0  0
 10 17  1  0  0  0  0
 11 12  1  0  0  0  0
 12 13  1  0  0  0  0
 12 16  1  0  0  0  0
 13 14  2  0  0  0  0
 14 15  1  0  0  0  0
 15 16  2  0  0  0  0
 17 18  2  0  0  0  0
 17 25  1  0  0  0  0
 18 19  1  0  0  0  0
 19 20  2  0  0  0  0
 20 21  1  0  0  0  0
 20 24  1  0  0  0  0
 21 22  2  0  0  0  0
 22 23  1  0  0  0  0
 23 24  1  0  0  0  0
 24 25  2  0  0  0  0
 26 27  2  0  0  0  0
 27 28  1  0  0  0  0
 28 29  1  0  0  0  0
  1 30  1  0  0  0  0
  1 31  1  0  0  0  0
  1 32  1  0  0  0  0
  4 33  1  0  0  0  0
  5 34  1  0  0  0  0
 11 35  1  0  0  0  0
 11 36  1  0  0  0  0
 13 37  1  0  0  0  0
 14 38  1  0  0  0  0
 18 39  1  0  0  0  0
 19 40  1  0  0  0  0
 21 41  1  0  0  0  0
 23 42  1  0  0  0  0
 25 43  1  0  0  0  0
 26 44  1  0  0  0  0
 29 45  1  0  0  0  0
 29 46  1  0  0  0  0
 29 47  1  0  0  0  0
M  END
> <IC50[nM]>
3.8

$$$$
CHEMBL3265017
  -OEChem-05192314333D
 Structure written by MMmdl.
 47 51  0     0  0  0  0  0  0999 V2000
   -4.2568   -3.1045   13.5692 C   0  0  0  0  0  0  0  0  0  0  0  0
   -3.8735   -2.3609   14.7157 O   0  0  0  0  0  0  0  0  0  0  0  0
   -2.5254   -2.1112   14.8167 C   0  0  0  0  0  0  0  0  0  0  0  0
   -1.7461   -2.8700   15.6816 C   0  0  0  0  0  0  0  0  0  0  0  0
   -0.3903   -2.6103   15.8137 C   0  0  0  0  0  0  0  0  0  0  0  0
    0.2206   -1.5848   15.0868 C   0  0  0  0  0  0  0  0  0  0  0  0
    1.6038   -1.3598   15.3228 N   0  0  0  0  0  0  0  0  0  0  0  0
    2.5359   -0.4458   14.7609 C   0  0  0  0  0  0  0  0  0  0  0  0
    2.1794    0.3745   13.7258 N   0  0  0  0  0  0  0  0  0  0  0  0
    3.1126    1.2387   13.2174 C   0  0  0  0  0  0  0  0  0  0  0  0
    4.4180    1.2838   13.7013 C   0  0  0  0  0  0  0  0  0  0  0  0
    4.7460    0.4885   14.7593 N   0  0  0  0  0  0  0  0  0  0  0  0
    5.8978    0.3783   15.4862 C   0  0  0  0  0  0  0  0  0  0  0  0
    5.5892   -0.5252   16.5282 C   0  0  0  0  0  0  0  0  0  0  0  0
    4.3768   -1.0429   16.3726 N   0  0  0  0  0  0  0  0  0  0  0  0
    3.8366   -0.3928   15.3256 C   0  0  0  0  0  0  0  0  0  0  0  0
    2.6368    2.1616   12.1201 C   0  0  0  0  0  0  0  0  0  0  0  0
    3.5454    2.6408   11.1618 C   0  0  0  0  0  0  0  0  0  0  0  0
    3.1453    3.4625   10.1097 C   0  0  0  0  0  0  0  0  0  0  0  0
    1.7994    3.8163   10.0176 C   0  0  0  0  0  0  0  0  0  0  0  0
    0.9914    4.5941    9.1197 C   0  0  0  0  0  0  0  0  0  0  0  0
   -0.2494    4.6053    9.5133 N   0  0  0  0  0  0  0  0  0  0  0  0
   -0.3372    3.8935   10.6271 N   0  0  0  0  0  0  0  0  0  0  0  0
    0.8851    3.3607   10.9950 C   0  0  0  0  0  0  0  0  0  0  0  0
    1.2726    2.5413   12.0626 C   0  0  0  0  0  0  0  0  0  0  0  0
   -0.5549   -0.8187   14.1915 C   0  0  0  0  0  0  0  0  0  0  0  0
   -1.9439   -1.0882   14.0610 C   0  0  0  0  0  0  0  0  0  0  0  0
   -2.7521   -0.3548   13.2056 O   0  0  0  0  0  0  0  0  0  0  0  0
   -2.2313    0.6456   12.3518 C   0  0  0  0  0  0  0  0  0  0  0  0
   -5.3467   -3.2534   13.5756 H   0  0  0  0  0  0  0  0  0  0  0  0
   -3.9673   -2.5542   12.6618 H   0  0  0  0  0  0  0  0  0  0  0  0
   -3.7532   -4.0824   13.5813 H   0  0  0  0  0  0  0  0  0  0  0  0
   -2.1987   -3.6662   16.2539 H   0  0  0  0  0  0  0  0  0  0  0  0
    0.2026   -3.2097   16.4887 H   0  0  0  0  0  0  0  0  0  0  0  0
    5.0828    1.0085   12.8693 H   0  0  0  0  0  0  0  0  0  0  0  0
    4.6176    2.3230   14.0016 H   0  0  0  0  0  0  0  0  0  0  0  0
    6.8398    0.8742   15.3039 H   0  0  0  0  0  0  0  0  0  0  0  0
    6.2538   -0.7636   17.3454 H   0  0  0  0  0  0  0  0  0  0  0  0
    4.5861    2.3639   11.2429 H   0  0  0  0  0  0  0  0  0  0  0  0
    3.8608    3.8171    9.3826 H   0  0  0  0  0  0  0  0  0  0  0  0
    1.3620    5.0994    8.2401 H   0  0  0  0  0  0  0  0  0  0  0  0
   -1.0059    5.0710    9.0540 H   0  0  0  0  0  0  0  0  0  0  0  0
    0.5637    2.2135   12.8085 H   0  0  0  0  0  0  0  0  0  0  0  0
   -0.0962   -0.0330   13.6095 H   0  0  0  0  0  0  0  0  0  0  0  0
   -3.0495    1.0924   11.7679 H   0  0  0  0  0  0  0  0  0  0  0  0
   -1.7436    1.4252   12.9555 H   0  0  0  0  0  0  0  0  0  0  0  0
   -1.4954    0.1973   11.6681 H   0  0  0  0  0  0  0  0  0  0  0  0
  1  2  1  0  0  0  0
  2  3  1  0  0  0  0
  3  4  2  0  0  0  0
  3 27  1  0  0  0  0
  4  5  1  0  0  0  0
  5  6  2  0  0  0  0
  6  7  1  0  0  0  0
  6 26  1  0  0  0  0
  7  8  2  0  0  0  0
  8  9  1  0  0  0  0
  8 16  1  0  0  0  0
  9 10  2  0  0  0  0
 10 11  1  0  0  0  0
 10 17  1  0  0  0  0
 11 12  1  0  0  0  0
 12 13  1  0  0  0  0
 12 16  1  0  0  0  0
 13 14  2  0  0  0  0
 14 15  1  0  0  0  0
 15 16  2  0  0  0  0
 17 18  1  0  0  0  0
 17 25  2  0  0  0  0
 18 19  2  0  0  0  0
 19 20  1  0  0  0  0
 20 21  2  0  0  0  0
 20 24  1  0  0  0  0
 21 22  1  0  0  0  0
 22 23  1  0  0  0  0
 23 24  2  0  0  0  0
 24 25  1  0  0  0  0
 26 27  2  0  0  0  0
 27 28  1  0  0  0  0
 28 29  1  0  0  0  0
  1 30  1  0  0  0  0
  1 31  1  0  0  0  0
  1 32  1  0  0  0  0
  4 33  1  0  0  0  0
  5 34  1  0  0  0  0
 11 35  1  0  0  0  0
 11 36  1  0  0  0  0
 13 37  1  0  0  0  0
 14 38  1  0  0  0  0
 18 39  1  0  0  0  0
 19 40  1  0  0  0  0
 21 41  1  0  0  0  0
 22 42  1  0  0  0  0
 25 43  1  0  0  0  0
 26 44  1  0  0  0  0
 29 45  1  0  0  0  0
 29 46  1  0  0  0  0
 29 47  1  0  0  0  0
M  END
> <IC50[nM]>
3.8

$$$$
CHEMBL3265017
  -OEChem-05192314333D
 Structure written by MMmdl.
 47 51  0     1  0  0  0  0  0999 V2000
   -4.2568   -3.1045   13.5692 C   0  0  0  0  0  0  0  0  0  0  0  0
   -3.8735   -2.3609   14.7157 O   0  0  0  0  0  0  0  0  0  0  0  0
   -2.5254   -2.1112   14.8167 C   0  0  3  0  0  0  0  0  0  0  0  0
   -1.7461   -2.8700   15.6816 C   0  0  0  0  0  0  0  0  0  0  0  0
   -0.3903   -2.6103   15.8137 C   0  0  0  0  0  0  0  0  0  0  0  0
    0.2206   -1.5848   15.0868 C   0  0  0  0  0  0  0  0  0  0  0  0
    1.6038   -1.3598   15.3228 N   0  0  0  0  0  0  0  0  0  0  0  0
    2.5359   -0.4458   14.7609 C   0  0  0  0  0  0  0  0  0  0  0  0
    2.1794    0.3745   13.7258 N   0  0  0  0  0  0  0  0  0  0  0  0
    3.1126    1.2387   13.2174 C   0  0  0  0  0  0  0  0  0  0  0  0
    4.4180    1.2838   13.7013 C   0  0  0  0  0  0  0  0  0  0  0  0
    4.7460    0.4885   14.7593 N   0  0  0  0  0  0  0  0  0  0  0  0
    5.8978    0.3783   15.4862 C   0  0  0  0  0  0  0  0  0  0  0  0
    5.5892   -0.5252   16.5282 C   0  0  0  0  0  0  0  0  0  0  0  0
    4.3768   -1.0429   16.3726 N   0  0  0  0  0  0  0  0  0  0  0  0
    3.8366   -0.3928   15.3256 C   0  0  0  0  0  0  0  0  0  0  0  0
    2.6368    2.1616   12.1201 C   0  0  0  0  0  0  0  0  0  0  0  0
    3.5454    2.6408   11.1618 C   0  0  0  0  0  0  0  0  0  0  0  0
    3.1453    3.4625   10.1097 C   0  0  0  0  0  0  0  0  0  0  0  0
    1.7994    3.8163   10.0176 C   0  0  0  0  0  0  0  0  0  0  0  0
    0.9914    4.5941    9.1197 C   0  0  0  0  0  0  0  0  0  0  0  0
   -0.2494    4.6053    9.5133 N   0  0  0  0  0  0  0  0  0  0  0  0
   -0.3372    3.8935   10.6271 N   0  0  0  0  0  0  0  0  0  0  0  0
    0.8851    3.3607   10.9950 C   0  0  0  0  0  0  0  0  0  0  0  0
    1.2726    2.5413   12.0626 C   0  0  0  0  0  0  0  0  0  0  0  0
   -0.5549   -0.8187   14.1915 C   0  0  0  0  0  0  0  0  0  0  0  0
   -1.9439   -1.0882   14.0610 C   0  0  0  0  0  0  0  0  0  0  0  0
   -2.7521   -0.3548   13.2056 O   0  0  0  0  0  0  0  0  0  0  0  0
   -2.2313    0.6456   12.3518 C   0  0  0  0  0  0  0  0  0  0  0  0
   -5.3467   -3.2534   13.5756 H   0  0  0  0  0  0  0  0  0  0  0  0
   -3.9673   -2.5542   12.6618 H   0  0  0  0  0  0  0  0  0  0  0  0
   -3.7532   -4.0824   13.5813 H   0  0  0  0  0  0  0  0  0  0  0  0
   -2.3284   -2.8273   14.0053 H   0  0  0  0  0  0  0  0  0  0  0  0
   -2.1987   -3.6662   16.2539 H   0  0  0  0  0  0  0  0  0  0  0  0
    0.2026   -3.2097   16.4887 H   0  0  0  0  0  0  0  0  0  0  0  0
    5.1530    1.9333   13.2492 H   0  0  0  0  0  0  0  0  0  0  0  0
    6.8398    0.8742   15.3039 H   0  0  0  0  0  0  0  0  0  0  0  0
    6.2538   -0.7636   17.3454 H   0  0  0  0  0  0  0  0  0  0  0  0
    4.5861    2.3639   11.2429 H   0  0  0  0  0  0  0  0  0  0  0  0
    3.8608    3.8171    9.3826 H   0  0  0  0  0  0  0  0  0  0  0  0
    1.3620    5.0994    8.2401 H   0  0  0  0  0  0  0  0  0  0  0  0
   -1.1849    3.7578   11.1400 H   0  0  0  0  0  0  0  0  0  0  0  0
    0.5637    2.2135   12.8085 H   0  0  0  0  0  0  0  0  0  0  0  0
   -0.0962   -0.0330   13.6095 H   0  0  0  0  0  0  0  0  0  0  0  0
   -3.0495    1.0924   11.7679 H   0  0  0  0  0  0  0  0  0  0  0  0
   -1.7436    1.4252   12.9555 H   0  0  0  0  0  0  0  0  0  0  0  0
   -1.4954    0.1973   11.6681 H   0  0  0  0  0  0  0  0  0  0  0  0
  1  2  1  0  0  0  0
  2  3  1  0  0  0  0
  3  4  1  0  0  0  0
  3 27  1  0  0  0  0
  4  5  2  0  0  0  0
  5  6  1  0  0  0  0
  6  7  2  0  0  0  0
  6 26  1  0  0  0  0
  7  8  1  0  0  0  0
  8  9  2  0  0  0  0
  8 16  1  0  0  0  0
  9 10  1  0  0  0  0
 10 11  2  0  0  0  0
 10 17  1  0  0  0  0
 11 12  1  0  0  0  0
 12 13  1  0  0  0  0
 12 16  1  0  0  0  0
 13 14  2  0  0  0  0
 14 15  1  0  0  0  0
 15 16  2  0  0  0  0
 17 18  2  0  0  0  0
 17 25  1  0  0  0  0
 18 19  1  0  0  0  0
 19 20  2  0  0  0  0
 20 21  1  0  0  0  0
 20 24  1  0  0  0  0
 21 22  2  0  0  0  0
 22 23  1  0  0  0  0
 23 24  1  0  0  0  0
 24 25  2  0  0  0  0
 26 27  2  0  0  0  0
 27 28  1  0  0  0  0
 28 29  1  0  0  0  0
  1 30  1  0  0  0  0
  1 31  1  0  0  0  0
  1 32  1  0  0  0  0
  3 33  1  0  0  0  0
  4 34  1  0  0  0  0
  5 35  1  0  0  0  0
 11 36  1  0  0  0  0
 13 37  1  0  0  0  0
 14 38  1  0  0  0  0
 18 39  1  0  0  0  0
 19 40  1  0  0  0  0
 21 41  1  0  0  0  0
 23 42  1  0  0  0  0
 25 43  1  0  0  0  0
 26 44  1  0  0  0  0
 29 45  1  0  0  0  0
 29 46  1  0  0  0  0
 29 47  1  0  0  0  0
M  END
> <IC50[nM]>
3.8

$$$$
CHEMBL3265017
  -OEChem-05192314333D
 Structure written by MMmdl.
 47 51  0     1  0  0  0  0  0999 V2000
   -4.2568   -3.1045   13.5692 C   0  0  0  0  0  0  0  0  0  0  0  0
   -3.8735   -2.3609   14.7157 O   0  0  0  0  0  0  0  0  0  0  0  0
   -2.5254   -2.1112   14.8167 C   0  0  3  0  0  0  0  0  0  0  0  0
   -1.7461   -2.8700   15.6816 C   0  0  0  0  0  0  0  0  0  0  0  0
   -0.3903   -2.6103   15.8137 C   0  0  0  0  0  0  0  0  0  0  0  0
    0.2206   -1.5848   15.0868 C   0  0  0  0  0  0  0  0  0  0  0  0
    1.6038   -1.3598   15.3228 N   0  0  0  0  0  0  0  0  0  0  0  0
    2.5359   -0.4458   14.7609 C   0  0  0  0  0  0  0  0  0  0  0  0
    2.1794    0.3745   13.7258 N   0  0  0  0  0  0  0  0  0  0  0  0
    3.1126    1.2387   13.2174 C   0  0  0  0  0  0  0  0  0  0  0  0
    4.4180    1.2838   13.7013 C   0  0  0  0  0  0  0  0  0  0  0  0
    4.7460    0.4885   14.7593 N   0  0  0  0  0  0  0  0  0  0  0  0
    5.8978    0.3783   15.4862 C   0  0  0  0  0  0  0  0  0  0  0  0
    5.5892   -0.5252   16.5282 C   0  0  0  0  0  0  0  0  0  0  0  0
    4.3768   -1.0429   16.3726 N   0  0  0  0  0  0  0  0  0  0  0  0
    3.8366   -0.3928   15.3256 C   0  0  0  0  0  0  0  0  0  0  0  0
    2.6368    2.1616   12.1201 C   0  0  0  0  0  0  0  0  0  0  0  0
    3.5454    2.6408   11.1618 C   0  0  0  0  0  0  0  0  0  0  0  0
    3.1453    3.4625   10.1097 C   0  0  0  0  0  0  0  0  0  0  0  0
    1.7994    3.8163   10.0176 C   0  0  0  0  0  0  0  0  0  0  0  0
    0.9914    4.5941    9.1197 C   0  0  0  0  0  0  0  0  0  0  0  0
   -0.2494    4.6053    9.5133 N   0  0  0  0  0  0  0  0  0  0  0  0
   -0.3372    3.8935   10.6271 N   0  0  0  0  0  0  0  0  0  0  0  0
    0.8851    3.3607   10.9950 C   0  0  0  0  0  0  0  0  0  0  0  0
    1.2726    2.5413   12.0626 C   0  0  0  0  0  0  0  0  0  0  0  0
   -0.5549   -0.8187   14.1915 C   0  0  0  0  0  0  0  0  0  0  0  0
   -1.9439   -1.0882   14.0610 C   0  0  0  0  0  0  0  0  0  0  0  0
   -2.7521   -0.3548   13.2056 O   0  0  0  0  0  0  0  0  0  0  0  0
   -2.2313    0.6456   12.3518 C   0  0  0  0  0  0  0  0  0  0  0  0
   -5.3467   -3.2534   13.5756 H   0  0  0  0  0  0  0  0  0  0  0  0
   -3.9673   -2.5542   12.6618 H   0  0  0  0  0  0  0  0  0  0  0  0
   -3.7532   -4.0824   13.5813 H   0  0  0  0  0  0  0  0  0  0  0  0
   -2.3284   -2.8273   14.0053 H   0  0  0  0  0  0  0  0  0  0  0  0
   -2.1987   -3.6662   16.2539 H   0  0  0  0  0  0  0  0  0  0  0  0
    0.2026   -3.2097   16.4887 H   0  0  0  0  0  0  0  0  0  0  0  0
    5.1530    1.9333   13.2492 H   0  0  0  0  0  0  0  0  0  0  0  0
    6.8398    0.8742   15.3039 H   0  0  0  0  0  0  0  0  0  0  0  0
    6.2538   -0.7636   17.3454 H   0  0  0  0  0  0  0  0  0  0  0  0
    4.5861    2.3639   11.2429 H   0  0  0  0  0  0  0  0  0  0  0  0
    3.8608    3.8171    9.3826 H   0  0  0  0  0  0  0  0  0  0  0  0
    1.3620    5.0994    8.2401 H   0  0  0  0  0  0  0  0  0  0  0  0
   -1.0059    5.0710    9.0540 H   0  0  0  0  0  0  0  0  0  0  0  0
    0.5637    2.2135   12.8085 H   0  0  0  0  0  0  0  0  0  0  0  0
   -0.0962   -0.0330   13.6095 H   0  0  0  0  0  0  0  0  0  0  0  0
   -3.0495    1.0924   11.7679 H   0  0  0  0  0  0  0  0  0  0  0  0
   -1.7436    1.4252   12.9555 H   0  0  0  0  0  0  0  0  0  0  0  0
   -1.4954    0.1973   11.6681 H   0  0  0  0  0  0  0  0  0  0  0  0
  1  2  1  0  0  0  0
  2  3  1  0  0  0  0
  3  4  1  0  0  0  0
  3 27  1  0  0  0  0
  4  5  2  0  0  0  0
  5  6  1  0  0  0  0
  6  7  2  0  0  0  0
  6 26  1  0  0  0  0
  7  8  1  0  0  0  0
  8  9  2  0  0  0  0
  8 16  1  0  0  0  0
  9 10  1  0  0  0  0
 10 11  2  0  0  0  0
 10 17  1  0  0  0  0
 11 12  1  0  0  0  0
 12 13  1  0  0  0  0
 12 16  1  0  0  0  0
 13 14  2  0  0  0  0
 14 15  1  0  0  0  0
 15 16  2  0  0  0  0
 17 18  1  0  0  0  0
 17 25  2  0  0  0  0
 18 19  2  0  0  0  0
 19 20  1  0  0  0  0
 20 21  2  0  0  0  0
 20 24  1  0  0  0  0
 21 22  1  0  0  0  0
 22 23  1  0  0  0  0
 23 24  2  0  0  0  0
 24 25  1  0  0  0  0
 26 27  2  0  0  0  0
 27 28  1  0  0  0  0
 28 29  1  0  0  0  0
  1 30  1  0  0  0  0
  1 31  1  0  0  0  0
  1 32  1  0  0  0  0
  3 33  1  0  0  0  0
  4 34  1  0  0  0  0
  5 35  1  0  0  0  0
 11 36  1  0  0  0  0
 13 37  1  0  0  0  0
 14 38  1  0  0  0  0
 18 39  1  0  0  0  0
 19 40  1  0  0  0  0
 21 41  1  0  0  0  0
 22 42  1  0  0  0  0
 25 43  1  0  0  0  0
 26 44  1  0  0  0  0
 29 45  1  0  0  0  0
 29 46  1  0  0  0  0
 29 47  1  0  0  0  0
M  END
> <IC50[nM]>
3.8

$$$$
CHEMBL3265017
  -OEChem-05192314333D
 Structure written by MMmdl.
 47 51  0     0  0  0  0  0  0999 V2000
   -4.2568   -3.1045   13.5692 C   0  0  0  0  0  0  0  0  0  0  0  0
   -3.8735   -2.3609   14.7157 O   0  0  0  0  0  0  0  0  0  0  0  0
   -2.5254   -2.1112   14.8167 C   0  0  0  0  0  0  0  0  0  0  0  0
   -1.7461   -2.8700   15.6816 C   0  0  0  0  0  0  0  0  0  0  0  0
   -0.3903   -2.6103   15.8137 C   0  0  0  0  0  0  0  0  0  0  0  0
    0.2206   -1.5848   15.0868 C   0  0  0  0  0  0  0  0  0  0  0  0
    1.6038   -1.3598   15.3228 N   0  0  0  0  0  0  0  0  0  0  0  0
    2.5359   -0.4458   14.7609 C   0  0  0  0  0  0  0  0  0  0  0  0
    2.1794    0.3745   13.7258 N   0  0  0  0  0  0  0  0  0  0  0  0
    3.1126    1.2387   13.2174 C   0  0  0  0  0  0  0  0  0  0  0  0
    4.4180    1.2838   13.7013 C   0  0  0  0  0  0  0  0  0  0  0  0
    4.7460    0.4885   14.7593 N   0  0  0  0  0  0  0  0  0  0  0  0
    5.8978    0.3783   15.4862 C   0  0  0  0  0  0  0  0  0  0  0  0
    5.5892   -0.5252   16.5282 C   0  0  0  0  0  0  0  0  0  0  0  0
    4.3768   -1.0429   16.3726 N   0  0  0  0  0  0  0  0  0  0  0  0
    3.8366   -0.3928   15.3256 C   0  0  0  0  0  0  0  0  0  0  0  0
    2.6368    2.1616   12.1201 C   0  0  0  0  0  0  0  0  0  0  0  0
    3.5454    2.6408   11.1618 C   0  0  0  0  0  0  0  0  0  0  0  0
    3.1453    3.4625   10.1097 C   0  0  0  0  0  0  0  0  0  0  0  0
    1.7994    3.8163   10.0176 C   0  0  0  0  0  0  0  0  0  0  0  0
    0.9914    4.5941    9.1197 C   0  0  0  0  0  0  0  0  0  0  0  0
   -0.2494    4.6053    9.5133 N   0  0  0  0  0  0  0  0  0  0  0  0
   -0.3372    3.8935   10.6271 N   0  0  0  0  0  0  0  0  0  0  0  0
    0.8851    3.3607   10.9950 C   0  0  0  0  0  0  0  0  0  0  0  0
    1.2726    2.5413   12.0626 C   0  0  0  0  0  0  0  0  0  0  0  0
   -0.5549   -0.8187   14.1915 C   0  0  0  0  0  0  0  0  0  0  0  0
   -1.9439   -1.0882   14.0610 C   0  0  0  0  0  0  0  0  0  0  0  0
   -2.7521   -0.3548   13.2056 O   0  0  0  0  0  0  0  0  0  0  0  0
   -2.2313    0.6456   12.3518 C   0  0  0  0  0  0  0  0  0  0  0  0
   -5.3467   -3.2534   13.5756 H   0  0  0  0  0  0  0  0  0  0  0  0
   -3.9673   -2.5542   12.6618 H   0  0  0  0  0  0  0  0  0  0  0  0
   -3.7532   -4.0824   13.5813 H   0  0  0  0  0  0  0  0  0  0  0  0
   -2.1987   -3.6662   16.2539 H   0  0  0  0  0  0  0  0  0  0  0  0
   -0.2170   -2.3863   16.8766 H   0  0  0  0  0  0  0  0  0  0  0  0
    0.1337   -3.5393   15.5446 H   0  0  0  0  0  0  0  0  0  0  0  0
    5.1530    1.9333   13.2492 H   0  0  0  0  0  0  0  0  0  0  0  0
    6.8398    0.8742   15.3039 H   0  0  0  0  0  0  0  0  0  0  0  0
    6.2538   -0.7636   17.3454 H   0  0  0  0  0  0  0  0  0  0  0  0
    4.5861    2.3639   11.2429 H   0  0  0  0  0  0  0  0  0  0  0  0
    3.8608    3.8171    9.3826 H   0  0  0  0  0  0  0  0  0  0  0  0
    1.3620    5.0994    8.2401 H   0  0  0  0  0  0  0  0  0  0  0  0
   -1.1849    3.7578   11.1400 H   0  0  0  0  0  0  0  0  0  0  0  0
    0.5637    2.2135   12.8085 H   0  0  0  0  0  0  0  0  0  0  0  0
   -0.0962   -0.0330   13.6095 H   0  0  0  0  0  0  0  0  0  0  0  0
   -3.0495    1.0924   11.7679 H   0  0  0  0  0  0  0  0  0  0  0  0
   -1.7436    1.4252   12.9555 H   0  0  0  0  0  0  0  0  0  0  0  0
   -1.4954    0.1973   11.6681 H   0  0  0  0  0  0  0  0  0  0  0  0
  1  2  1  0  0  0  0
  2  3  1  0  0  0  0
  3  4  2  0  0  0  0
  3 27  1  0  0  0  0
  4  5  1  0  0  0  0
  5  6  1  0  0  0  0
  6  7  2  0  0  0  0
  6 26  1  0  0  0  0
  7  8  1  0  0  0  0
  8  9  2  0  0  0  0
  8 16  1  0  0  0  0
  9 10  1  0  0  0  0
 10 11  2  0  0  0  0
 10 17  1  0  0  0  0
 11 12  1  0  0  0  0
 12 13  1  0  0  0  0
 12 16  1  0  0  0  0
 13 14  2  0  0  0  0
 14 15  1  0  0  0  0
 15 16  2  0  0  0  0
 17 18  2  0  0  0  0
 17 25  1  0  0  0  0
 18 19  1  0  0  0  0
 19 20  2  0  0  0  0
 20 21  1  0  0  0  0
 20 24  1  0  0  0  0
 21 22  2  0  0  0  0
 22 23  1  0  0  0  0
 23 24  1  0  0  0  0
 24 25  2  0  0  0  0
 26 27  2  0  0  0  0
 27 28  1  0  0  0  0
 28 29  1  0  0  0  0
  1 30  1  0  0  0  0
  1 31  1  0  0  0  0
  1 32  1  0  0  0  0
  4 33  1  0  0  0  0
  5 34  1  0  0  0  0
  5 35  1  0  0  0  0
 11 36  1  0  0  0  0
 13 37  1  0  0  0  0
 14 38  1  0  0  0  0
 18 39  1  0  0  0  0
 19 40  1  0  0  0  0
 21 41  1  0  0  0  0
 23 42  1  0  0  0  0
 25 43  1  0  0  0  0
 26 44  1  0  0  0  0
 29 45  1  0  0  0  0
 29 46  1  0  0  0  0
 29 47  1  0  0  0  0
M  END
> <IC50[nM]>
3.8

$$$$
CHEMBL3265017
  -OEChem-05192314333D
 Structure written by MMmdl.
 47 51  0     0  0  0  0  0  0999 V2000
   -4.2568   -3.1045   13.5692 C   0  0  0  0  0  0  0  0  0  0  0  0
   -3.8735   -2.3609   14.7157 O   0  0  0  0  0  0  0  0  0  0  0  0
   -2.5254   -2.1112   14.8167 C   0  0  0  0  0  0  0  0  0  0  0  0
   -1.7461   -2.8700   15.6816 C   0  0  0  0  0  0  0  0  0  0  0  0
   -0.3903   -2.6103   15.8137 C   0  0  0  0  0  0  0  0  0  0  0  0
    0.2206   -1.5848   15.0868 C   0  0  0  0  0  0  0  0  0  0  0  0
    1.6038   -1.3598   15.3228 N   0  0  0  0  0  0  0  0  0  0  0  0
    2.5359   -0.4458   14.7609 C   0  0  0  0  0  0  0  0  0  0  0  0
    2.1794    0.3745   13.7258 N   0  0  0  0  0  0  0  0  0  0  0  0
    3.1126    1.2387   13.2174 C   0  0  0  0  0  0  0  0  0  0  0  0
    4.4180    1.2838   13.7013 C   0  0  0  0  0  0  0  0  0  0  0  0
    4.7460    0.4885   14.7593 N   0  0  0  0  0  0  0  0  0  0  0  0
    5.8978    0.3783   15.4862 C   0  0  0  0  0  0  0  0  0  0  0  0
    5.5892   -0.5252   16.5282 C   0  0  0  0  0  0  0  0  0  0  0  0
    4.3768   -1.0429   16.3726 N   0  0  0  0  0  0  0  0  0  0  0  0
    3.8366   -0.3928   15.3256 C   0  0  0  0  0  0  0  0  0  0  0  0
    2.6368    2.1616   12.1201 C   0  0  0  0  0  0  0  0  0  0  0  0
    3.5454    2.6408   11.1618 C   0  0  0  0  0  0  0  0  0  0  0  0
    3.1453    3.4625   10.1097 C   0  0  0  0  0  0  0  0  0  0  0  0
    1.7994    3.8163   10.0176 C   0  0  0  0  0  0  0  0  0  0  0  0
    0.9914    4.5941    9.1197 C   0  0  0  0  0  0  0  0  0  0  0  0
   -0.2494    4.6053    9.5133 N   0  0  0  0  0  0  0  0  0  0  0  0
   -0.3372    3.8935   10.6271 N   0  0  0  0  0  0  0  0  0  0  0  0
    0.8851    3.3607   10.9950 C   0  0  0  0  0  0  0  0  0  0  0  0
    1.2726    2.5413   12.0626 C   0  0  0  0  0  0  0  0  0  0  0  0
   -0.5549   -0.8187   14.1915 C   0  0  0  0  0  0  0  0  0  0  0  0
   -1.9439   -1.0882   14.0610 C   0  0  0  0  0  0  0  0  0  0  0  0
   -2.7521   -0.3548   13.2056 O   0  0  0  0  0  0  0  0  0  0  0  0
   -2.2313    0.6456   12.3518 C   0  0  0  0  0  0  0  0  0  0  0  0
   -5.3467   -3.2534   13.5756 H   0  0  0  0  0  0  0  0  0  0  0  0
   -3.9673   -2.5542   12.6618 H   0  0  0  0  0  0  0  0  0  0  0  0
   -3.7532   -4.0824   13.5813 H   0  0  0  0  0  0  0  0  0  0  0  0
   -2.1987   -3.6662   16.2539 H   0  0  0  0  0  0  0  0  0  0  0  0
   -0.2170   -2.3863   16.8766 H   0  0  0  0  0  0  0  0  0  0  0  0
    0.1337   -3.5393   15.5446 H   0  0  0  0  0  0  0  0  0  0  0  0
    5.1530    1.9333   13.2492 H   0  0  0  0  0  0  0  0  0  0  0  0
    6.8398    0.8742   15.3039 H   0  0  0  0  0  0  0  0  0  0  0  0
    6.2538   -0.7636   17.3454 H   0  0  0  0  0  0  0  0  0  0  0  0
    4.5861    2.3639   11.2429 H   0  0  0  0  0  0  0  0  0  0  0  0
    3.8608    3.8171    9.3826 H   0  0  0  0  0  0  0  0  0  0  0  0
    1.3620    5.0994    8.2401 H   0  0  0  0  0  0  0  0  0  0  0  0
   -1.0059    5.0710    9.0540 H   0  0  0  0  0  0  0  0  0  0  0  0
    0.5637    2.2135   12.8085 H   0  0  0  0  0  0  0  0  0  0  0  0
   -0.0962   -0.0330   13.6095 H   0  0  0  0  0  0  0  0  0  0  0  0
   -3.0495    1.0924   11.7679 H   0  0  0  0  0  0  0  0  0  0  0  0
   -1.7436    1.4252   12.9555 H   0  0  0  0  0  0  0  0  0  0  0  0
   -1.4954    0.1973   11.6681 H   0  0  0  0  0  0  0  0  0  0  0  0
  1  2  1  0  0  0  0
  2  3  1  0  0  0  0
  3  4  2  0  0  0  0
  3 27  1  0  0  0  0
  4  5  1  0  0  0  0
  5  6  1  0  0  0  0
  6  7  2  0  0  0  0
  6 26  1  0  0  0  0
  7  8  1  0  0  0  0
  8  9  2  0  0  0  0
  8 16  1  0  0  0  0
  9 10  1  0  0  0  0
 10 11  2  0  0  0  0
 10 17  1  0  0  0  0
 11 12  1  0  0  0  0
 12 13  1  0  0  0  0
 12 16  1  0  0  0  0
 13 14  2  0  0  0  0
 14 15  1  0  0  0  0
 15 16  2  0  0  0  0
 17 18  1  0  0  0  0
 17 25  2  0  0  0  0
 18 19  2  0  0  0  0
 19 20  1  0  0  0  0
 20 21  2  0  0  0  0
 20 24  1  0  0  0  0
 21 22  1  0  0  0  0
 22 23  1  0  0  0  0
 23 24  2  0  0  0  0
 24 25  1  0  0  0  0
 26 27  2  0  0  0  0
 27 28  1  0  0  0  0
 28 29  1  0  0  0  0
  1 30  1  0  0  0  0
  1 31  1  0  0  0  0
  1 32  1  0  0  0  0
  4 33  1  0  0  0  0
  5 34  1  0  0  0  0
  5 35  1  0  0  0  0
 11 36  1  0  0  0  0
 13 37  1  0  0  0  0
 14 38  1  0  0  0  0
 18 39  1  0  0  0  0
 19 40  1  0  0  0  0
 21 41  1  0  0  0  0
 22 42  1  0  0  0  0
 25 43  1  0  0  0  0
 26 44  1  0  0  0  0
 29 45  1  0  0  0  0
 29 46  1  0  0  0  0
 29 47  1  0  0  0  0
M  END
> <IC50[nM]>
3.8

$$$$
CHEMBL3265017
  -OEChem-05192314333D
 Structure written by MMmdl.
 47 51  0     0  0  0  0  0  0999 V2000
   -4.2568   -3.1045   13.5692 C   0  0  0  0  0  0  0  0  0  0  0  0
   -3.8735   -2.3609   14.7157 O   0  0  0  0  0  0  0  0  0  0  0  0
   -2.5254   -2.1112   14.8167 C   0  0  0  0  0  0  0  0  0  0  0  0
   -1.7461   -2.8700   15.6816 C   0  0  0  0  0  0  0  0  0  0  0  0
   -0.3903   -2.6103   15.8137 C   0  0  0  0  0  0  0  0  0  0  0  0
    0.2206   -1.5848   15.0868 C   0  0  0  0  0  0  0  0  0  0  0  0
    1.6038   -1.3598   15.3228 N   0  0  0  0  0  0  0  0  0  0  0  0
    2.5359   -0.4458   14.7609 C   0  0  0  0  0  0  0  0  0  0  0  0
    2.1794    0.3745   13.7258 N   0  0  0  0  0  0  0  0  0  0  0  0
    3.1126    1.2387   13.2174 C   0  0  0  0  0  0  0  0  0  0  0  0
    4.4180    1.2838   13.7013 C   0  0  0  0  0  0  0  0  0  0  0  0
    4.7460    0.4885   14.7593 N   0  0  0  0  0  0  0  0  0  0  0  0
    5.8978    0.3783   15.4862 C   0  0  0  0  0  0  0  0  0  0  0  0
    5.5892   -0.5252   16.5282 C   0  0  0  0  0  0  0  0  0  0  0  0
    4.3768   -1.0429   16.3726 N   0  0  0  0  0  0  0  0  0  0  0  0
    3.8366   -0.3928   15.3256 C   0  0  0  0  0  0  0  0  0  0  0  0
    2.6368    2.1616   12.1201 C   0  0  0  0  0  0  0  0  0  0  0  0
    3.5454    2.6408   11.1618 C   0  0  0  0  0  0  0  0  0  0  0  0
    3.1453    3.4625   10.1097 C   0  0  0  0  0  0  0  0  0  0  0  0
    1.7994    3.8163   10.0176 C   0  0  0  0  0  0  0  0  0  0  0  0
    0.9914    4.5941    9.1197 C   0  0  0  0  0  0  0  0  0  0  0  0
   -0.2494    4.6053    9.5133 N   0  0  0  0  0  0  0  0  0  0  0  0
   -0.3372    3.8935   10.6271 N   0  0  0  0  0  0  0  0  0  0  0  0
    0.8851    3.3607   10.9950 C   0  0  0  0  0  0  0  0  0  0  0  0
    1.2726    2.5413   12.0626 C   0  0  0  0  0  0  0  0  0  0  0  0
   -0.5549   -0.8187   14.1915 C   0  0  0  0  0  0  0  0  0  0  0  0
   -1.9439   -1.0882   14.0610 C   0  0  0  0  0  0  0  0  0  0  0  0
   -2.7521   -0.3548   13.2056 O   0  0  0  0  0  0  0  0  0  0  0  0
   -2.2313    0.6456   12.3518 C   0  0  0  0  0  0  0  0  0  0  0  0
   -5.3467   -3.2534   13.5756 H   0  0  0  0  0  0  0  0  0  0  0  0
   -3.9673   -2.5542   12.6618 H   0  0  0  0  0  0  0  0  0  0  0  0
   -3.7532   -4.0824   13.5813 H   0  0  0  0  0  0  0  0  0  0  0  0
   -2.1987   -3.6662   16.2539 H   0  0  0  0  0  0  0  0  0  0  0  0
    0.2026   -3.2097   16.4887 H   0  0  0  0  0  0  0  0  0  0  0  0
    5.1530    1.9333   13.2492 H   0  0  0  0  0  0  0  0  0  0  0  0
    6.8398    0.8742   15.3039 H   0  0  0  0  0  0  0  0  0  0  0  0
    6.2538   -0.7636   17.3454 H   0  0  0  0  0  0  0  0  0  0  0  0
    4.5861    2.3639   11.2429 H   0  0  0  0  0  0  0  0  0  0  0  0
    3.8608    3.8171    9.3826 H   0  0  0  0  0  0  0  0  0  0  0  0
    1.3620    5.0994    8.2401 H   0  0  0  0  0  0  0  0  0  0  0  0
   -1.1849    3.7578   11.1400 H   0  0  0  0  0  0  0  0  0  0  0  0
    0.5637    2.2135   12.8085 H   0  0  0  0  0  0  0  0  0  0  0  0
   -0.4609    0.2315   14.5048 H   0  0  0  0  0  0  0  0  0  0  0  0
   -0.1095   -0.9449   13.1937 H   0  0  0  0  0  0  0  0  0  0  0  0
   -3.0495    1.0924   11.7679 H   0  0  0  0  0  0  0  0  0  0  0  0
   -1.7436    1.4252   12.9555 H   0  0  0  0  0  0  0  0  0  0  0  0
   -1.4954    0.1973   11.6681 H   0  0  0  0  0  0  0  0  0  0  0  0
  1  2  1  0  0  0  0
  2  3  1  0  0  0  0
  3  4  1  0  0  0  0
  3 27  2  0  0  0  0
  4  5  2  0  0  0  0
  5  6  1  0  0  0  0
  6  7  2  0  0  0  0
  6 26  1  0  0  0  0
  7  8  1  0  0  0  0
  8  9  2  0  0  0  0
  8 16  1  0  0  0  0
  9 10  1  0  0  0  0
 10 11  2  0  0  0  0
 10 17  1  0  0  0  0
 11 12  1  0  0  0  0
 12 13  1  0  0  0  0
 12 16  1  0  0  0  0
 13 14  2  0  0  0  0
 14 15  1  0  0  0  0
 15 16  2  0  0  0  0
 17 18  2  0  0  0  0
 17 25  1  0  0  0  0
 18 19  1  0  0  0  0
 19 20  2  0  0  0  0
 20 21  1  0  0  0  0
 20 24  1  0  0  0  0
 21 22  2  0  0  0  0
 22 23  1  0  0  0  0
 23 24  1  0  0  0  0
 24 25  2  0  0  0  0
 26 27  1  0  0  0  0
 27 28  1  0  0  0  0
 28 29  1  0  0  0  0
  1 30  1  0  0  0  0
  1 31  1  0  0  0  0
  1 32  1  0  0  0  0
  4 33  1  0  0  0  0
  5 34  1  0  0  0  0
 11 35  1  0  0  0  0
 13 36  1  0  0  0  0
 14 37  1  0  0  0  0
 18 38  1  0  0  0  0
 19 39  1  0  0  0  0
 21 40  1  0  0  0  0
 23 41  1  0  0  0  0
 25 42  1  0  0  0  0
 26 43  1  0  0  0  0
 26 44  1  0  0  0  0
 29 45  1  0  0  0  0
 29 46  1  0  0  0  0
 29 47  1  0  0  0  0
M  END
> <IC50[nM]>
3.8

$$$$
CHEMBL3265017
  -OEChem-05192314333D
 Structure written by MMmdl.
 47 51  0     0  0  0  0  0  0999 V2000
   -4.2568   -3.1045   13.5692 C   0  0  0  0  0  0  0  0  0  0  0  0
   -3.8735   -2.3609   14.7157 O   0  0  0  0  0  0  0  0  0  0  0  0
   -2.5254   -2.1112   14.8167 C   0  0  0  0  0  0  0  0  0  0  0  0
   -1.7461   -2.8700   15.6816 C   0  0  0  0  0  0  0  0  0  0  0  0
   -0.3903   -2.6103   15.8137 C   0  0  0  0  0  0  0  0  0  0  0  0
    0.2206   -1.5848   15.0868 C   0  0  0  0  0  0  0  0  0  0  0  0
    1.6038   -1.3598   15.3228 N   0  0  0  0  0  0  0  0  0  0  0  0
    2.5359   -0.4458   14.7609 C   0  0  0  0  0  0  0  0  0  0  0  0
    2.1794    0.3745   13.7258 N   0  0  0  0  0  0  0  0  0  0  0  0
    3.1126    1.2387   13.2174 C   0  0  0  0  0  0  0  0  0  0  0  0
    4.4180    1.2838   13.7013 C   0  0  0  0  0  0  0  0  0  0  0  0
    4.7460    0.4885   14.7593 N   0  0  0  0  0  0  0  0  0  0  0  0
    5.8978    0.3783   15.4862 C   0  0  0  0  0  0  0  0  0  0  0  0
    5.5892   -0.5252   16.5282 C   0  0  0  0  0  0  0  0  0  0  0  0
    4.3768   -1.0429   16.3726 N   0  0  0  0  0  0  0  0  0  0  0  0
    3.8366   -0.3928   15.3256 C   0  0  0  0  0  0  0  0  0  0  0  0
    2.6368    2.1616   12.1201 C   0  0  0  0  0  0  0  0  0  0  0  0
    3.5454    2.6408   11.1618 C   0  0  0  0  0  0  0  0  0  0  0  0
    3.1453    3.4625   10.1097 C   0  0  0  0  0  0  0  0  0  0  0  0
    1.7994    3.8163   10.0176 C   0  0  0  0  0  0  0  0  0  0  0  0
    0.9914    4.5941    9.1197 C   0  0  0  0  0  0  0  0  0  0  0  0
   -0.2494    4.6053    9.5133 N   0  0  0  0  0  0  0  0  0  0  0  0
   -0.3372    3.8935   10.6271 N   0  0  0  0  0  0  0  0  0  0  0  0
    0.8851    3.3607   10.9950 C   0  0  0  0  0  0  0  0  0  0  0  0
    1.2726    2.5413   12.0626 C   0  0  0  0  0  0  0  0  0  0  0  0
   -0.5549   -0.8187   14.1915 C   0  0  0  0  0  0  0  0  0  0  0  0
   -1.9439   -1.0882   14.0610 C   0  0  0  0  0  0  0  0  0  0  0  0
   -2.7521   -0.3548   13.2056 O   0  0  0  0  0  0  0  0  0  0  0  0
   -2.2313    0.6456   12.3518 C   0  0  0  0  0  0  0  0  0  0  0  0
   -5.3467   -3.2534   13.5756 H   0  0  0  0  0  0  0  0  0  0  0  0
   -3.9673   -2.5542   12.6618 H   0  0  0  0  0  0  0  0  0  0  0  0
   -3.7532   -4.0824   13.5813 H   0  0  0  0  0  0  0  0  0  0  0  0
   -2.1987   -3.6662   16.2539 H   0  0  0  0  0  0  0  0  0  0  0  0
    0.2026   -3.2097   16.4887 H   0  0  0  0  0  0  0  0  0  0  0  0
    5.1530    1.9333   13.2492 H   0  0  0  0  0  0  0  0  0  0  0  0
    6.8398    0.8742   15.3039 H   0  0  0  0  0  0  0  0  0  0  0  0
    6.2538   -0.7636   17.3454 H   0  0  0  0  0  0  0  0  0  0  0  0
    4.5861    2.3639   11.2429 H   0  0  0  0  0  0  0  0  0  0  0  0
    3.8608    3.8171    9.3826 H   0  0  0  0  0  0  0  0  0  0  0  0
    1.3620    5.0994    8.2401 H   0  0  0  0  0  0  0  0  0  0  0  0
   -1.0059    5.0710    9.0540 H   0  0  0  0  0  0  0  0  0  0  0  0
    0.5637    2.2135   12.8085 H   0  0  0  0  0  0  0  0  0  0  0  0
   -0.4609    0.2315   14.5048 H   0  0  0  0  0  0  0  0  0  0  0  0
   -0.1095   -0.9449   13.1937 H   0  0  0  0  0  0  0  0  0  0  0  0
   -3.0495    1.0924   11.7679 H   0  0  0  0  0  0  0  0  0  0  0  0
   -1.7436    1.4252   12.9555 H   0  0  0  0  0  0  0  0  0  0  0  0
   -1.4954    0.1973   11.6681 H   0  0  0  0  0  0  0  0  0  0  0  0
  1  2  1  0  0  0  0
  2  3  1  0  0  0  0
  3  4  1  0  0  0  0
  3 27  2  0  0  0  0
  4  5  2  0  0  0  0
  5  6  1  0  0  0  0
  6  7  2  0  0  0  0
  6 26  1  0  0  0  0
  7  8  1  0  0  0  0
  8  9  2  0  0  0  0
  8 16  1  0  0  0  0
  9 10  1  0  0  0  0
 10 11  2  0  0  0  0
 10 17  1  0  0  0  0
 11 12  1  0  0  0  0
 12 13  1  0  0  0  0
 12 16  1  0  0  0  0
 13 14  2  0  0  0  0
 14 15  1  0  0  0  0
 15 16  2  0  0  0  0
 17 18  1  0  0  0  0
 17 25  2  0  0  0  0
 18 19  2  0  0  0  0
 19 20  1  0  0  0  0
 20 21  2  0  0  0  0
 20 24  1  0  0  0  0
 21 22  1  0  0  0  0
 22 23  1  0  0  0  0
 23 24  2  0  0  0  0
 24 25  1  0  0  0  0
 26 27  1  0  0  0  0
 27 28  1  0  0  0  0
 28 29  1  0  0  0  0
  1 30  1  0  0  0  0
  1 31  1  0  0  0  0
  1 32  1  0  0  0  0
  4 33  1  0  0  0  0
  5 34  1  0  0  0  0
 11 35  1  0  0  0  0
 13 36  1  0  0  0  0
 14 37  1  0  0  0  0
 18 38  1  0  0  0  0
 19 39  1  0  0  0  0
 21 40  1  0  0  0  0
 22 41  1  0  0  0  0
 25 42  1  0  0  0  0
 26 43  1  0  0  0  0
 26 44  1  0  0  0  0
 29 45  1  0  0  0  0
 29 46  1  0  0  0  0
 29 47  1  0  0  0  0
M  END
> <IC50[nM]>
3.8

$$$$
CHEMBL3265017
  -OEChem-05192314333D
 Structure written by MMmdl.
 47 51  0     0  0  0  0  0  0999 V2000
   -4.2568   -3.1045   13.5692 C   0  0  0  0  0  0  0  0  0  0  0  0
   -3.8735   -2.3609   14.7157 O   0  0  0  0  0  0  0  0  0  0  0  0
   -2.5254   -2.1112   14.8167 C   0  0  0  0  0  0  0  0  0  0  0  0
   -1.7461   -2.8700   15.6816 C   0  0  0  0  0  0  0  0  0  0  0  0
   -0.3903   -2.6103   15.8137 C   0  0  0  0  0  0  0  0  0  0  0  0
    0.2206   -1.5848   15.0868 C   0  0  0  0  0  0  0  0  0  0  0  0
    1.6038   -1.3598   15.3228 N   0  0  0  0  0  0  0  0  0  0  0  0
    2.5359   -0.4458   14.7609 C   0  0  0  0  0  0  0  0  0  0  0  0
    2.1794    0.3745   13.7258 N   0  0  0  0  0  0  0  0  0  0  0  0
    3.1126    1.2387   13.2174 C   0  0  0  0  0  0  0  0  0  0  0  0
    4.4180    1.2838   13.7013 C   0  0  0  0  0  0  0  0  0  0  0  0
    4.7460    0.4885   14.7593 N   0  0  0  0  0  0  0  0  0  0  0  0
    5.8978    0.3783   15.4862 C   0  0  0  0  0  0  0  0  0  0  0  0
    5.5892   -0.5252   16.5282 C   0  0  0  0  0  0  0  0  0  0  0  0
    4.3768   -1.0429   16.3726 N   0  0  0  0  0  0  0  0  0  0  0  0
    3.8366   -0.3928   15.3256 C   0  0  0  0  0  0  0  0  0  0  0  0
    2.6368    2.1616   12.1201 C   0  0  0  0  0  0  0  0  0  0  0  0
    3.5454    2.6408   11.1618 C   0  0  0  0  0  0  0  0  0  0  0  0
    3.1453    3.4625   10.1097 C   0  0  0  0  0  0  0  0  0  0  0  0
    1.7994    3.8163   10.0176 C   0  0  0  0  0  0  0  0  0  0  0  0
    0.9914    4.5941    9.1197 C   0  0  0  0  0  0  0  0  0  0  0  0
   -0.2494    4.6053    9.5133 N   0  0  0  0  0  0  0  0  0  0  0  0
   -0.3372    3.8935   10.6271 N   0  0  0  0  0  0  0  0  0  0  0  0
    0.8851    3.3607   10.9950 C   0  0  0  0  0  0  0  0  0  0  0  0
    1.2726    2.5413   12.0626 C   0  0  0  0  0  0  0  0  0  0  0  0
   -0.5549   -0.8187   14.1915 C   0  0  0  0  0  0  0  0  0  0  0  0
   -1.9439   -1.0882   14.0610 C   0  0  0  0  0  0  0  0  0  0  0  0
   -2.7521   -0.3548   13.2056 O   0  0  0  0  0  0  0  0  0  0  0  0
   -2.2313    0.6456   12.3518 C   0  0  0  0  0  0  0  0  0  0  0  0
   -5.3467   -3.2534   13.5756 H   0  0  0  0  0  0  0  0  0  0  0  0
   -3.9673   -2.5542   12.6618 H   0  0  0  0  0  0  0  0  0  0  0  0
   -3.7532   -4.0824   13.5813 H   0  0  0  0  0  0  0  0  0  0  0  0
   -2.1987   -3.6662   16.2539 H   0  0  0  0  0  0  0  0  0  0  0  0
    0.2026   -3.2097   16.4887 H   0  0  0  0  0  0  0  0  0  0  0  0
    5.0828    1.0085   12.8693 H   0  0  0  0  0  0  0  0  0  0  0  0
    4.6176    2.3230   14.0016 H   0  0  0  0  0  0  0  0  0  0  0  0
    6.8398    0.8742   15.3039 H   0  0  0  0  0  0  0  0  0  0  0  0
    6.2538   -0.7636   17.3454 H   0  0  0  0  0  0  0  0  0  0  0  0
    4.5861    2.3639   11.2429 H   0  0  0  0  0  0  0  0  0  0  0  0
    3.8608    3.8171    9.3826 H   0  0  0  0  0  0  0  0  0  0  0  0
    1.3716    5.6260    9.0929 H   0  0  0  0  0  0  0  0  0  0  0  0
    1.0471    4.1566    8.1120 H   0  0  0  0  0  0  0  0  0  0  0  0
    0.5637    2.2135   12.8085 H   0  0  0  0  0  0  0  0  0  0  0  0
   -0.0962   -0.0330   13.6095 H   0  0  0  0  0  0  0  0  0  0  0  0
   -3.0495    1.0924   11.7679 H   0  0  0  0  0  0  0  0  0  0  0  0
   -1.7436    1.4252   12.9555 H   0  0  0  0  0  0  0  0  0  0  0  0
   -1.4954    0.1973   11.6681 H   0  0  0  0  0  0  0  0  0  0  0  0
  1  2  1  0  0  0  0
  2  3  1  0  0  0  0
  3  4  2  0  0  0  0
  3 27  1  0  0  0  0
  4  5  1  0  0  0  0
  5  6  2  0  0  0  0
  6  7  1  0  0  0  0
  6 26  1  0  0  0  0
  7  8  2  0  0  0  0
  8  9  1  0  0  0  0
  8 16  1  0  0  0  0
  9 10  2  0  0  0  0
 10 11  1  0  0  0  0
 10 17  1  0  0  0  0
 11 12  1  0  0  0  0
 12 13  1  0  0  0  0
 12 16  1  0  0  0  0
 13 14  2  0  0  0  0
 14 15  1  0  0  0  0
 15 16  2  0  0  0  0
 17 18  2  0  0  0  0
 17 25  1  0  0  0  0
 18 19  1  0  0  0  0
 19 20  2  0  0  0  0
 20 21  1  0  0  0  0
 20 24  1  0  0  0  0
 21 22  1  0  0  0  0
 22 23  2  0  0  0  0
 23 24  1  0  0  0  0
 24 25  2  0  0  0  0
 26 27  2  0  0  0  0
 27 28  1  0  0  0  0
 28 29  1  0  0  0  0
  1 30  1  0  0  0  0
  1 31  1  0  0  0  0
  1 32  1  0  0  0  0
  4 33  1  0  0  0  0
  5 34  1  0  0  0  0
 11 35  1  0  0  0  0
 11 36  1  0  0  0  0
 13 37  1  0  0  0  0
 14 38  1  0  0  0  0
 18 39  1  0  0  0  0
 19 40  1  0  0  0  0
 21 41  1  0  0  0  0
 21 42  1  0  0  0  0
 25 43  1  0  0  0  0
 26 44  1  0  0  0  0
 29 45  1  0  0  0  0
 29 46  1  0  0  0  0
 29 47  1  0  0  0  0
M  END
> <IC50[nM]>
3.8

$$$$
CHEMBL3265017
  -OEChem-05192314333D
 Structure written by MMmdl.
 47 51  0     0  0  0  0  0  0999 V2000
   -4.2568   -3.1045   13.5692 C   0  0  0  0  0  0  0  0  0  0  0  0
   -3.8735   -2.3609   14.7157 O   0  0  0  0  0  0  0  0  0  0  0  0
   -2.5254   -2.1112   14.8167 C   0  0  0  0  0  0  0  0  0  0  0  0
   -1.7461   -2.8700   15.6816 C   0  0  0  0  0  0  0  0  0  0  0  0
   -0.3903   -2.6103   15.8137 C   0  0  0  0  0  0  0  0  0  0  0  0
    0.2206   -1.5848   15.0868 C   0  0  0  0  0  0  0  0  0  0  0  0
    1.6038   -1.3598   15.3228 N   0  0  0  0  0  0  0  0  0  0  0  0
    2.5359   -0.4458   14.7609 C   0  0  0  0  0  0  0  0  0  0  0  0
    2.1794    0.3745   13.7258 N   0  0  0  0  0  0  0  0  0  0  0  0
    3.1126    1.2387   13.2174 C   0  0  0  0  0  0  0  0  0  0  0  0
    4.4180    1.2838   13.7013 C   0  0  0  0  0  0  0  0  0  0  0  0
    4.7460    0.4885   14.7593 N   0  0  0  0  0  0  0  0  0  0  0  0
    5.8978    0.3783   15.4862 C   0  0  0  0  0  0  0  0  0  0  0  0
    5.5892   -0.5252   16.5282 C   0  0  0  0  0  0  0  0  0  0  0  0
    4.3768   -1.0429   16.3726 N   0  0  0  0  0  0  0  0  0  0  0  0
    3.8366   -0.3928   15.3256 C   0  0  0  0  0  0  0  0  0  0  0  0
    2.6368    2.1616   12.1201 C   0  0  0  0  0  0  0  0  0  0  0  0
    3.5454    2.6408   11.1618 C   0  0  0  0  0  0  0  0  0  0  0  0
    3.1453    3.4625   10.1097 C   0  0  0  0  0  0  0  0  0  0  0  0
    1.7994    3.8163   10.0176 C   0  0  0  0  0  0  0  0  0  0  0  0
    0.9914    4.5941    9.1197 C   0  0  0  0  0  0  0  0  0  0  0  0
   -0.2494    4.6053    9.5133 N   0  0  0  0  0  0  0  0  0  0  0  0
   -0.3372    3.8935   10.6271 N   0  0  0  0  0  0  0  0  0  0  0  0
    0.8851    3.3607   10.9950 C   0  0  0  0  0  0  0  0  0  0  0  0
    1.2726    2.5413   12.0626 C   0  0  0  0  0  0  0  0  0  0  0  0
   -0.5549   -0.8187   14.1915 C   0  0  0  0  0  0  0  0  0  0  0  0
   -1.9439   -1.0882   14.0610 C   0  0  0  0  0  0  0  0  0  0  0  0
   -2.7521   -0.3548   13.2056 O   0  0  0  0  0  0  0  0  0  0  0  0
   -2.2313    0.6456   12.3518 C   0  0  0  0  0  0  0  0  0  0  0  0
   -5.3467   -3.2534   13.5756 H   0  0  0  0  0  0  0  0  0  0  0  0
   -3.9673   -2.5542   12.6618 H   0  0  0  0  0  0  0  0  0  0  0  0
   -3.7532   -4.0824   13.5813 H   0  0  0  0  0  0  0  0  0  0  0  0
   -2.1987   -3.6662   16.2539 H   0  0  0  0  0  0  0  0  0  0  0  0
    0.2026   -3.2097   16.4887 H   0  0  0  0  0  0  0  0  0  0  0  0
    1.9973   -1.9606   16.0186 H   0  0  0  0  0  0  0  0  0  0  0  0
    5.0828    1.0085   12.8693 H   0  0  0  0  0  0  0  0  0  0  0  0
    4.6176    2.3230   14.0016 H   0  0  0  0  0  0  0  0  0  0  0  0
    6.8398    0.8742   15.3039 H   0  0  0  0  0  0  0  0  0  0  0  0
    6.2538   -0.7636   17.3454 H   0  0  0  0  0  0  0  0  0  0  0  0
    4.5861    2.3639   11.2429 H   0  0  0  0  0  0  0  0  0  0  0  0
    3.8608    3.8171    9.3826 H   0  0  0  0  0  0  0  0  0  0  0  0
    1.3620    5.0994    8.2401 H   0  0  0  0  0  0  0  0  0  0  0  0
    0.5637    2.2135   12.8085 H   0  0  0  0  0  0  0  0  0  0  0  0
   -0.0962   -0.0330   13.6095 H   0  0  0  0  0  0  0  0  0  0  0  0
   -3.0495    1.0924   11.7679 H   0  0  0  0  0  0  0  0  0  0  0  0
   -1.7436    1.4252   12.9555 H   0  0  0  0  0  0  0  0  0  0  0  0
   -1.4954    0.1973   11.6681 H   0  0  0  0  0  0  0  0  0  0  0  0
  1  2  1  0  0  0  0
  2  3  1  0  0  0  0
  3  4  2  0  0  0  0
  3 27  1  0  0  0  0
  4  5  1  0  0  0  0
  5  6  2  0  0  0  0
  6  7  1  0  0  0  0
  6 26  1  0  0  0  0
  7  8  1  0  0  0  0
  8  9  2  0  0  0  0
  8 16  1  0  0  0  0
  9 10  1  0  0  0  0
 10 11  1  0  0  0  0
 10 17  2  0  0  0  0
 11 12  1  0  0  0  0
 12 13  1  0  0  0  0
 12 16  1  0  0  0  0
 13 14  2  0  0  0  0
 14 15  1  0  0  0  0
 15 16  2  0  0  0  0
 17 18  1  0  0  0  0
 17 25  1  0  0  0  0
 18 19  2  0  0  0  0
 19 20  1  0  0  0  0
 20 21  2  0  0  0  0
 20 24  1  0  0  0  0
 21 22  1  0  0  0  0
 22 23  2  0  0  0  0
 23 24  1  0  0  0  0
 24 25  2  0  0  0  0
 26 27  2  0  0  0  0
 27 28  1  0  0  0  0
 28 29  1  0  0  0  0
  1 30  1  0  0  0  0
  1 31  1  0  0  0  0
  1 32  1  0  0  0  0
  4 33  1  0  0  0  0
  5 34  1  0  0  0  0
  7 35  1  0  0  0  0
 11 36  1  0  0  0  0
 11 37  1  0  0  0  0
 13 38  1  0  0  0  0
 14 39  1  0  0  0  0
 18 40  1  0  0  0  0
 19 41  1  0  0  0  0
 21 42  1  0  0  0  0
 25 43  1  0  0  0  0
 26 44  1  0  0  0  0
 29 45  1  0  0  0  0
 29 46  1  0  0  0  0
 29 47  1  0  0  0  0
M  END
> <IC50[nM]>
3.8

$$$$
CHEMBL3265017
  -OEChem-05192314333D
 Structure written by MMmdl.
 47 51  0     0  0  0  0  0  0999 V2000
   -4.2568   -3.1045   13.5692 C   0  0  0  0  0  0  0  0  0  0  0  0
   -3.8735   -2.3609   14.7157 O   0  0  0  0  0  0  0  0  0  0  0  0
   -2.5254   -2.1112   14.8167 C   0  0  0  0  0  0  0  0  0  0  0  0
   -1.7461   -2.8700   15.6816 C   0  0  0  0  0  0  0  0  0  0  0  0
   -0.3903   -2.6103   15.8137 C   0  0  0  0  0  0  0  0  0  0  0  0
    0.2206   -1.5848   15.0868 C   0  0  0  0  0  0  0  0  0  0  0  0
    1.6038   -1.3598   15.3228 N   0  0  0  0  0  0  0  0  0  0  0  0
    2.5359   -0.4458   14.7609 C   0  0  0  0  0  0  0  0  0  0  0  0
    2.1794    0.3745   13.7258 N   0  0  0  0  0  0  0  0  0  0  0  0
    3.1126    1.2387   13.2174 C   0  0  0  0  0  0  0  0  0  0  0  0
    4.4180    1.2838   13.7013 C   0  0  0  0  0  0  0  0  0  0  0  0
    4.7460    0.4885   14.7593 N   0  0  0  0  0  0  0  0  0  0  0  0
    5.8978    0.3783   15.4862 C   0  0  0  0  0  0  0  0  0  0  0  0
    5.5892   -0.5252   16.5282 C   0  0  0  0  0  0  0  0  0  0  0  0
    4.3768   -1.0429   16.3726 N   0  0  0  0  0  0  0  0  0  0  0  0
    3.8366   -0.3928   15.3256 C   0  0  0  0  0  0  0  0  0  0  0  0
    2.6368    2.1616   12.1201 C   0  0  0  0  0  0  0  0  0  0  0  0
    3.5454    2.6408   11.1618 C   0  0  0  0  0  0  0  0  0  0  0  0
    3.1453    3.4625   10.1097 C   0  0  0  0  0  0  0  0  0  0  0  0
    1.7994    3.8163   10.0176 C   0  0  0  0  0  0  0  0  0  0  0  0
    0.9914    4.5941    9.1197 C   0  0  0  0  0  0  0  0  0  0  0  0
   -0.2494    4.6053    9.5133 N   0  0  0  0  0  0  0  0  0  0  0  0
   -0.3372    3.8935   10.6271 N   0  0  0  0  0  0  0  0  0  0  0  0
    0.8851    3.3607   10.9950 C   0  0  0  0  0  0  0  0  0  0  0  0
    1.2726    2.5413   12.0626 C   0  0  0  0  0  0  0  0  0  0  0  0
   -0.5549   -0.8187   14.1915 C   0  0  0  0  0  0  0  0  0  0  0  0
   -1.9439   -1.0882   14.0610 C   0  0  0  0  0  0  0  0  0  0  0  0
   -2.7521   -0.3548   13.2056 O   0  0  0  0  0  0  0  0  0  0  0  0
   -2.2313    0.6456   12.3518 C   0  0  0  0  0  0  0  0  0  0  0  0
   -5.3467   -3.2534   13.5756 H   0  0  0  0  0  0  0  0  0  0  0  0
   -3.9673   -2.5542   12.6618 H   0  0  0  0  0  0  0  0  0  0  0  0
   -3.7532   -4.0824   13.5813 H   0  0  0  0  0  0  0  0  0  0  0  0
   -2.1987   -3.6662   16.2539 H   0  0  0  0  0  0  0  0  0  0  0  0
    0.2026   -3.2097   16.4887 H   0  0  0  0  0  0  0  0  0  0  0  0
    1.2543    0.3438   13.3472 H   0  0  0  0  0  0  0  0  0  0  0  0
    5.0828    1.0085   12.8693 H   0  0  0  0  0  0  0  0  0  0  0  0
    4.6176    2.3230   14.0016 H   0  0  0  0  0  0  0  0  0  0  0  0
    6.8398    0.8742   15.3039 H   0  0  0  0  0  0  0  0  0  0  0  0
    6.2538   -0.7636   17.3454 H   0  0  0  0  0  0  0  0  0  0  0  0
    4.5861    2.3639   11.2429 H   0  0  0  0  0  0  0  0  0  0  0  0
    3.8608    3.8171    9.3826 H   0  0  0  0  0  0  0  0  0  0  0  0
    1.3620    5.0994    8.2401 H   0  0  0  0  0  0  0  0  0  0  0  0
    0.5637    2.2135   12.8085 H   0  0  0  0  0  0  0  0  0  0  0  0
   -0.0962   -0.0330   13.6095 H   0  0  0  0  0  0  0  0  0  0  0  0
   -3.0495    1.0924   11.7679 H   0  0  0  0  0  0  0  0  0  0  0  0
   -1.7436    1.4252   12.9555 H   0  0  0  0  0  0  0  0  0  0  0  0
   -1.4954    0.1973   11.6681 H   0  0  0  0  0  0  0  0  0  0  0  0
  1  2  1  0  0  0  0
  2  3  1  0  0  0  0
  3  4  2  0  0  0  0
  3 27  1  0  0  0  0
  4  5  1  0  0  0  0
  5  6  2  0  0  0  0
  6  7  1  0  0  0  0
  6 26  1  0  0  0  0
  7  8  2  0  0  0  0
  8  9  1  0  0  0  0
  8 16  1  0  0  0  0
  9 10  1  0  0  0  0
 10 11  1  0  0  0  0
 10 17  2  0  0  0  0
 11 12  1  0  0  0  0
 12 13  1  0  0  0  0
 12 16  1  0  0  0  0
 13 14  2  0  0  0  0
 14 15  1  0  0  0  0
 15 16  2  0  0  0  0
 17 18  1  0  0  0  0
 17 25  1  0  0  0  0
 18 19  2  0  0  0  0
 19 20  1  0  0  0  0
 20 21  2  0  0  0  0
 20 24  1  0  0  0  0
 21 22  1  0  0  0  0
 22 23  2  0  0  0  0
 23 24  1  0  0  0  0
 24 25  2  0  0  0  0
 26 27  2  0  0  0  0
 27 28  1  0  0  0  0
 28 29  1  0  0  0  0
  1 30  1  0  0  0  0
  1 31  1  0  0  0  0
  1 32  1  0  0  0  0
  4 33  1  0  0  0  0
  5 34  1  0  0  0  0
  9 35  1  0  0  0  0
 11 36  1  0  0  0  0
 11 37  1  0  0  0  0
 13 38  1  0  0  0  0
 14 39  1  0  0  0  0
 18 40  1  0  0  0  0
 19 41  1  0  0  0  0
 21 42  1  0  0  0  0
 25 43  1  0  0  0  0
 26 44  1  0  0  0  0
 29 45  1  0  0  0  0
 29 46  1  0  0  0  0
 29 47  1  0  0  0  0
M  END
> <IC50[nM]>
3.8

$$$$
CHEMBL3265017
  -OEChem-05192314333D
 Structure written by MMmdl.
 47 51  0     1  0  0  0  0  0999 V2000
   -4.2568   -3.1045   13.5692 C   0  0  0  0  0  0  0  0  0  0  0  0
   -3.8735   -2.3609   14.7157 O   0  0  0  0  0  0  0  0  0  0  0  0
   -2.5254   -2.1112   14.8167 C   0  0  3  0  0  0  0  0  0  0  0  0
   -1.7461   -2.8700   15.6816 C   0  0  0  0  0  0  0  0  0  0  0  0
   -0.3903   -2.6103   15.8137 C   0  0  0  0  0  0  0  0  0  0  0  0
    0.2206   -1.5848   15.0868 C   0  0  0  0  0  0  0  0  0  0  0  0
    1.6038   -1.3598   15.3228 N   0  0  0  0  0  0  0  0  0  0  0  0
    2.5359   -0.4458   14.7609 C   0  0  0  0  0  0  0  0  0  0  0  0
    2.1794    0.3745   13.7258 N   0  0  0  0  0  0  0  0  0  0  0  0
    3.1126    1.2387   13.2174 C   0  0  0  0  0  0  0  0  0  0  0  0
    4.4180    1.2838   13.7013 C   0  0  0  0  0  0  0  0  0  0  0  0
    4.7460    0.4885   14.7593 N   0  0  0  0  0  0  0  0  0  0  0  0
    5.8978    0.3783   15.4862 C   0  0  0  0  0  0  0  0  0  0  0  0
    5.5892   -0.5252   16.5282 C   0  0  0  0  0  0  0  0  0  0  0  0
    4.3768   -1.0429   16.3726 N   0  0  0  0  0  0  0  0  0  0  0  0
    3.8366   -0.3928   15.3256 C   0  0  0  0  0  0  0  0  0  0  0  0
    2.6368    2.1616   12.1201 C   0  0  0  0  0  0  0  0  0  0  0  0
    3.5454    2.6408   11.1618 C   0  0  0  0  0  0  0  0  0  0  0  0
    3.1453    3.4625   10.1097 C   0  0  0  0  0  0  0  0  0  0  0  0
    1.7994    3.8163   10.0176 C   0  0  0  0  0  0  0  0  0  0  0  0
    0.9914    4.5941    9.1197 C   0  0  0  0  0  0  0  0  0  0  0  0
   -0.2494    4.6053    9.5133 N   0  0  0  0  0  0  0  0  0  0  0  0
   -0.3372    3.8935   10.6271 N   0  0  0  0  0  0  0  0  0  0  0  0
    0.8851    3.3607   10.9950 C   0  0  0  0  0  0  0  0  0  0  0  0
    1.2726    2.5413   12.0626 C   0  0  0  0  0  0  0  0  0  0  0  0
   -0.5549   -0.8187   14.1915 C   0  0  0  0  0  0  0  0  0  0  0  0
   -1.9439   -1.0882   14.0610 C   0  0  0  0  0  0  0  0  0  0  0  0
   -2.7521   -0.3548   13.2056 O   0  0  0  0  0  0  0  0  0  0  0  0
   -2.2313    0.6456   12.3518 C   0  0  0  0  0  0  0  0  0  0  0  0
   -5.3467   -3.2534   13.5756 H   0  0  0  0  0  0  0  0  0  0  0  0
   -3.9673   -2.5542   12.6618 H   0  0  0  0  0  0  0  0  0  0  0  0
   -3.7532   -4.0824   13.5813 H   0  0  0  0  0  0  0  0  0  0  0  0
   -2.3284   -2.8273   14.0053 H   0  0  0  0  0  0  0  0  0  0  0  0
   -2.1987   -3.6662   16.2539 H   0  0  0  0  0  0  0  0  0  0  0  0
    0.2026   -3.2097   16.4887 H   0  0  0  0  0  0  0  0  0  0  0  0
    5.1530    1.9333   13.2492 H   0  0  0  0  0  0  0  0  0  0  0  0
    6.8398    0.8742   15.3039 H   0  0  0  0  0  0  0  0  0  0  0  0
    6.2538   -0.7636   17.3454 H   0  0  0  0  0  0  0  0  0  0  0  0
    4.5861    2.3639   11.2429 H   0  0  0  0  0  0  0  0  0  0  0  0
    3.8608    3.8171    9.3826 H   0  0  0  0  0  0  0  0  0  0  0  0
    1.3716    5.6260    9.0929 H   0  0  0  0  0  0  0  0  0  0  0  0
    1.0471    4.1566    8.1120 H   0  0  0  0  0  0  0  0  0  0  0  0
    0.5637    2.2135   12.8085 H   0  0  0  0  0  0  0  0  0  0  0  0
   -0.0962   -0.0330   13.6095 H   0  0  0  0  0  0  0  0  0  0  0  0
   -3.0495    1.0924   11.7679 H   0  0  0  0  0  0  0  0  0  0  0  0
   -1.7436    1.4252   12.9555 H   0  0  0  0  0  0  0  0  0  0  0  0
   -1.4954    0.1973   11.6681 H   0  0  0  0  0  0  0  0  0  0  0  0
  1  2  1  0  0  0  0
  2  3  1  0  0  0  0
  3  4  1  0  0  0  0
  3 27  1  0  0  0  0
  4  5  2  0  0  0  0
  5  6  1  0  0  0  0
  6  7  2  0  0  0  0
  6 26  1  0  0  0  0
  7  8  1  0  0  0  0
  8  9  2  0  0  0  0
  8 16  1  0  0  0  0
  9 10  1  0  0  0  0
 10 11  2  0  0  0  0
 10 17  1  0  0  0  0
 11 12  1  0  0  0  0
 12 13  1  0  0  0  0
 12 16  1  0  0  0  0
 13 14  2  0  0  0  0
 14 15  1  0  0  0  0
 15 16  2  0  0  0  0
 17 18  2  0  0  0  0
 17 25  1  0  0  0  0
 18 19  1  0  0  0  0
 19 20  2  0  0  0  0
 20 21  1  0  0  0  0
 20 24  1  0  0  0  0
 21 22  1  0  0  0  0
 22 23  2  0  0  0  0
 23 24  1  0  0  0  0
 24 25  2  0  0  0  0
 26 27  2  0  0  0  0
 27 28  1  0  0  0  0
 28 29  1  0  0  0  0
  1 30  1  0  0  0  0
  1 31  1  0  0  0  0
  1 32  1  0  0  0  0
  3 33  1  0  0  0  0
  4 34  1  0  0  0  0
  5 35  1  0  0  0  0
 11 36  1  0  0  0  0
 13 37  1  0  0  0  0
 14 38  1  0  0  0  0
 18 39  1  0  0  0  0
 19 40  1  0  0  0  0
 21 41  1  0  0  0  0
 21 42  1  0  0  0  0
 25 43  1  0  0  0  0
 26 44  1  0  0  0  0
 29 45  1  0  0  0  0
 29 46  1  0  0  0  0
 29 47  1  0  0  0  0
M  END
> <IC50[nM]>
3.8

$$$$
CHEMBL3265017
  -OEChem-05192314333D
 Structure written by MMmdl.
 47 51  0     0  0  0  0  0  0999 V2000
   -4.2568   -3.1045   13.5692 C   0  0  0  0  0  0  0  0  0  0  0  0
   -3.8735   -2.3609   14.7157 O   0  0  0  0  0  0  0  0  0  0  0  0
   -2.5254   -2.1112   14.8167 C   0  0  0  0  0  0  0  0  0  0  0  0
   -1.7461   -2.8700   15.6816 C   0  0  0  0  0  0  0  0  0  0  0  0
   -0.3903   -2.6103   15.8137 C   0  0  0  0  0  0  0  0  0  0  0  0
    0.2206   -1.5848   15.0868 C   0  0  0  0  0  0  0  0  0  0  0  0
    1.6038   -1.3598   15.3228 N   0  0  0  0  0  0  0  0  0  0  0  0
    2.5359   -0.4458   14.7609 C   0  0  0  0  0  0  0  0  0  0  0  0
    2.1794    0.3745   13.7258 N   0  0  0  0  0  0  0  0  0  0  0  0
    3.1126    1.2387   13.2174 C   0  0  0  0  0  0  0  0  0  0  0  0
    4.4180    1.2838   13.7013 C   0  0  0  0  0  0  0  0  0  0  0  0
    4.7460    0.4885   14.7593 N   0  0  0  0  0  0  0  0  0  0  0  0
    5.8978    0.3783   15.4862 C   0  0  0  0  0  0  0  0  0  0  0  0
    5.5892   -0.5252   16.5282 C   0  0  0  0  0  0  0  0  0  0  0  0
    4.3768   -1.0429   16.3726 N   0  0  0  0  0  0  0  0  0  0  0  0
    3.8366   -0.3928   15.3256 C   0  0  0  0  0  0  0  0  0  0  0  0
    2.6368    2.1616   12.1201 C   0  0  0  0  0  0  0  0  0  0  0  0
    3.5454    2.6408   11.1618 C   0  0  0  0  0  0  0  0  0  0  0  0
    3.1453    3.4625   10.1097 C   0  0  0  0  0  0  0  0  0  0  0  0
    1.7994    3.8163   10.0176 C   0  0  0  0  0  0  0  0  0  0  0  0
    0.9914    4.5941    9.1197 C   0  0  0  0  0  0  0  0  0  0  0  0
   -0.2494    4.6053    9.5133 N   0  0  0  0  0  0  0  0  0  0  0  0
   -0.3372    3.8935   10.6271 N   0  0  0  0  0  0  0  0  0  0  0  0
    0.8851    3.3607   10.9950 C   0  0  0  0  0  0  0  0  0  0  0  0
    1.2726    2.5413   12.0626 C   0  0  0  0  0  0  0  0  0  0  0  0
   -0.5549   -0.8187   14.1915 C   0  0  0  0  0  0  0  0  0  0  0  0
   -1.9439   -1.0882   14.0610 C   0  0  0  0  0  0  0  0  0  0  0  0
   -2.7521   -0.3548   13.2056 O   0  0  0  0  0  0  0  0  0  0  0  0
   -2.2313    0.6456   12.3518 C   0  0  0  0  0  0  0  0  0  0  0  0
   -5.3467   -3.2534   13.5756 H   0  0  0  0  0  0  0  0  0  0  0  0
   -3.9673   -2.5542   12.6618 H   0  0  0  0  0  0  0  0  0  0  0  0
   -3.7532   -4.0824   13.5813 H   0  0  0  0  0  0  0  0  0  0  0  0
   -2.1987   -3.6662   16.2539 H   0  0  0  0  0  0  0  0  0  0  0  0
   -0.2170   -2.3863   16.8766 H   0  0  0  0  0  0  0  0  0  0  0  0
    0.1337   -3.5393   15.5446 H   0  0  0  0  0  0  0  0  0  0  0  0
    5.1530    1.9333   13.2492 H   0  0  0  0  0  0  0  0  0  0  0  0
    6.8398    0.8742   15.3039 H   0  0  0  0  0  0  0  0  0  0  0  0
    6.2538   -0.7636   17.3454 H   0  0  0  0  0  0  0  0  0  0  0  0
    4.5861    2.3639   11.2429 H   0  0  0  0  0  0  0  0  0  0  0  0
    3.8608    3.8171    9.3826 H   0  0  0  0  0  0  0  0  0  0  0  0
    1.3716    5.6260    9.0929 H   0  0  0  0  0  0  0  0  0  0  0  0
    1.0471    4.1566    8.1120 H   0  0  0  0  0  0  0  0  0  0  0  0
    0.5637    2.2135   12.8085 H   0  0  0  0  0  0  0  0  0  0  0  0
   -0.0962   -0.0330   13.6095 H   0  0  0  0  0  0  0  0  0  0  0  0
   -3.0495    1.0924   11.7679 H   0  0  0  0  0  0  0  0  0  0  0  0
   -1.7436    1.4252   12.9555 H   0  0  0  0  0  0  0  0  0  0  0  0
   -1.4954    0.1973   11.6681 H   0  0  0  0  0  0  0  0  0  0  0  0
  1  2  1  0  0  0  0
  2  3  1  0  0  0  0
  3  4  2  0  0  0  0
  3 27  1  0  0  0  0
  4  5  1  0  0  0  0
  5  6  1  0  0  0  0
  6  7  2  0  0  0  0
  6 26  1  0  0  0  0
  7  8  1  0  0  0  0
  8  9  2  0  0  0  0
  8 16  1  0  0  0  0
  9 10  1  0  0  0  0
 10 11  2  0  0  0  0
 10 17  1  0  0  0  0
 11 12  1  0  0  0  0
 12 13  1  0  0  0  0
 12 16  1  0  0  0  0
 13 14  2  0  0  0  0
 14 15  1  0  0  0  0
 15 16  2  0  0  0  0
 17 18  2  0  0  0  0
 17 25  1  0  0  0  0
 18 19  1  0  0  0  0
 19 20  2  0  0  0  0
 20 21  1  0  0  0  0
 20 24  1  0  0  0  0
 21 22  1  0  0  0  0
 22 23  2  0  0  0  0
 23 24  1  0  0  0  0
 24 25  2  0  0  0  0
 26 27  2  0  0  0  0
 27 28  1  0  0  0  0
 28 29  1  0  0  0  0
  1 30  1  0  0  0  0
  1 31  1  0  0  0  0
  1 32  1  0  0  0  0
  4 33  1  0  0  0  0
  5 34  1  0  0  0  0
  5 35  1  0  0  0  0
 11 36  1  0  0  0  0
 13 37  1  0  0  0  0
 14 38  1  0  0  0  0
 18 39  1  0  0  0  0
 19 40  1  0  0  0  0
 21 41  1  0  0  0  0
 21 42  1  0  0  0  0
 25 43  1  0  0  0  0
 26 44  1  0  0  0  0
 29 45  1  0  0  0  0
 29 46  1  0  0  0  0
 29 47  1  0  0  0  0
M  END
> <IC50[nM]>
3.8

$$$$
CHEMBL3265017
  -OEChem-05192314333D
 Structure written by MMmdl.
 47 51  0     0  0  0  0  0  0999 V2000
   -4.2568   -3.1045   13.5692 C   0  0  0  0  0  0  0  0  0  0  0  0
   -3.8735   -2.3609   14.7157 O   0  0  0  0  0  0  0  0  0  0  0  0
   -2.5254   -2.1112   14.8167 C   0  0  0  0  0  0  0  0  0  0  0  0
   -1.7461   -2.8700   15.6816 C   0  0  0  0  0  0  0  0  0  0  0  0
   -0.3903   -2.6103   15.8137 C   0  0  0  0  0  0  0  0  0  0  0  0
    0.2206   -1.5848   15.0868 C   0  0  0  0  0  0  0  0  0  0  0  0
    1.6038   -1.3598   15.3228 N   0  0  0  0  0  0  0  0  0  0  0  0
    2.5359   -0.4458   14.7609 C   0  0  0  0  0  0  0  0  0  0  0  0
    2.1794    0.3745   13.7258 N   0  0  0  0  0  0  0  0  0  0  0  0
    3.1126    1.2387   13.2174 C   0  0  0  0  0  0  0  0  0  0  0  0
    4.4180    1.2838   13.7013 C   0  0  0  0  0  0  0  0  0  0  0  0
    4.7460    0.4885   14.7593 N   0  0  0  0  0  0  0  0  0  0  0  0
    5.8978    0.3783   15.4862 C   0  0  0  0  0  0  0  0  0  0  0  0
    5.5892   -0.5252   16.5282 C   0  0  0  0  0  0  0  0  0  0  0  0
    4.3768   -1.0429   16.3726 N   0  0  0  0  0  0  0  0  0  0  0  0
    3.8366   -0.3928   15.3256 C   0  0  0  0  0  0  0  0  0  0  0  0
    2.6368    2.1616   12.1201 C   0  0  0  0  0  0  0  0  0  0  0  0
    3.5454    2.6408   11.1618 C   0  0  0  0  0  0  0  0  0  0  0  0
    3.1453    3.4625   10.1097 C   0  0  0  0  0  0  0  0  0  0  0  0
    1.7994    3.8163   10.0176 C   0  0  0  0  0  0  0  0  0  0  0  0
    0.9914    4.5941    9.1197 C   0  0  0  0  0  0  0  0  0  0  0  0
   -0.2494    4.6053    9.5133 N   0  0  0  0  0  0  0  0  0  0  0  0
   -0.3372    3.8935   10.6271 N   0  0  0  0  0  0  0  0  0  0  0  0
    0.8851    3.3607   10.9950 C   0  0  0  0  0  0  0  0  0  0  0  0
    1.2726    2.5413   12.0626 C   0  0  0  0  0  0  0  0  0  0  0  0
   -0.5549   -0.8187   14.1915 C   0  0  0  0  0  0  0  0  0  0  0  0
   -1.9439   -1.0882   14.0610 C   0  0  0  0  0  0  0  0  0  0  0  0
   -2.7521   -0.3548   13.2056 O   0  0  0  0  0  0  0  0  0  0  0  0
   -2.2313    0.6456   12.3518 C   0  0  0  0  0  0  0  0  0  0  0  0
   -5.3467   -3.2534   13.5756 H   0  0  0  0  0  0  0  0  0  0  0  0
   -3.9673   -2.5542   12.6618 H   0  0  0  0  0  0  0  0  0  0  0  0
   -3.7532   -4.0824   13.5813 H   0  0  0  0  0  0  0  0  0  0  0  0
   -2.1987   -3.6662   16.2539 H   0  0  0  0  0  0  0  0  0  0  0  0
    0.2026   -3.2097   16.4887 H   0  0  0  0  0  0  0  0  0  0  0  0
    5.1530    1.9333   13.2492 H   0  0  0  0  0  0  0  0  0  0  0  0
    6.8398    0.8742   15.3039 H   0  0  0  0  0  0  0  0  0  0  0  0
    6.2538   -0.7636   17.3454 H   0  0  0  0  0  0  0  0  0  0  0  0
    4.5861    2.3639   11.2429 H   0  0  0  0  0  0  0  0  0  0  0  0
    3.8608    3.8171    9.3826 H   0  0  0  0  0  0  0  0  0  0  0  0
    1.3716    5.6260    9.0929 H   0  0  0  0  0  0  0  0  0  0  0  0
    1.0471    4.1566    8.1120 H   0  0  0  0  0  0  0  0  0  0  0  0
    0.5637    2.2135   12.8085 H   0  0  0  0  0  0  0  0  0  0  0  0
   -0.4609    0.2315   14.5048 H   0  0  0  0  0  0  0  0  0  0  0  0
   -0.1095   -0.9449   13.1937 H   0  0  0  0  0  0  0  0  0  0  0  0
   -3.0495    1.0924   11.7679 H   0  0  0  0  0  0  0  0  0  0  0  0
   -1.7436    1.4252   12.9555 H   0  0  0  0  0  0  0  0  0  0  0  0
   -1.4954    0.1973   11.6681 H   0  0  0  0  0  0  0  0  0  0  0  0
  1  2  1  0  0  0  0
  2  3  1  0  0  0  0
  3  4  1  0  0  0  0
  3 27  2  0  0  0  0
  4  5  2  0  0  0  0
  5  6  1  0  0  0  0
  6  7  2  0  0  0  0
  6 26  1  0  0  0  0
  7  8  1  0  0  0  0
  8  9  2  0  0  0  0
  8 16  1  0  0  0  0
  9 10  1  0  0  0  0
 10 11  2  0  0  0  0
 10 17  1  0  0  0  0
 11 12  1  0  0  0  0
 12 13  1  0  0  0  0
 12 16  1  0  0  0  0
 13 14  2  0  0  0  0
 14 15  1  0  0  0  0
 15 16  2  0  0  0  0
 17 18  2  0  0  0  0
 17 25  1  0  0  0  0
 18 19  1  0  0  0  0
 19 20  2  0  0  0  0
 20 21  1  0  0  0  0
 20 24  1  0  0  0  0
 21 22  1  0  0  0  0
 22 23  2  0  0  0  0
 23 24  1  0  0  0  0
 24 25  2  0  0  0  0
 26 27  1  0  0  0  0
 27 28  1  0  0  0  0
 28 29  1  0  0  0  0
  1 30  1  0  0  0  0
  1 31  1  0  0  0  0
  1 32  1  0  0  0  0
  4 33  1  0  0  0  0
  5 34  1  0  0  0  0
 11 35  1  0  0  0  0
 13 36  1  0  0  0  0
 14 37  1  0  0  0  0
 18 38  1  0  0  0  0
 19 39  1  0  0  0  0
 21 40  1  0  0  0  0
 21 41  1  0  0  0  0
 25 42  1  0  0  0  0
 26 43  1  0  0  0  0
 26 44  1  0  0  0  0
 29 45  1  0  0  0  0
 29 46  1  0  0  0  0
 29 47  1  0  0  0  0
M  END
> <IC50[nM]>
3.8

$$$$
CHEMBL3265017
  -OEChem-05192314333D
 Structure written by MMmdl.
 47 51  0     1  0  0  0  0  0999 V2000
   -4.2568   -3.1045   13.5692 C   0  0  0  0  0  0  0  0  0  0  0  0
   -3.8735   -2.3609   14.7157 O   0  0  0  0  0  0  0  0  0  0  0  0
   -2.5254   -2.1112   14.8167 C   0  0  0  0  0  0  0  0  0  0  0  0
   -1.7461   -2.8700   15.6816 C   0  0  0  0  0  0  0  0  0  0  0  0
   -0.3903   -2.6103   15.8137 C   0  0  0  0  0  0  0  0  0  0  0  0
    0.2206   -1.5848   15.0868 C   0  0  0  0  0  0  0  0  0  0  0  0
    1.6038   -1.3598   15.3228 N   0  0  0  0  0  0  0  0  0  0  0  0
    2.5359   -0.4458   14.7609 C   0  0  0  0  0  0  0  0  0  0  0  0
    2.1794    0.3745   13.7258 N   0  0  0  0  0  0  0  0  0  0  0  0
    3.1126    1.2387   13.2174 C   0  0  0  0  0  0  0  0  0  0  0  0
    4.4180    1.2838   13.7013 C   0  0  0  0  0  0  0  0  0  0  0  0
    4.7460    0.4885   14.7593 N   0  0  0  0  0  0  0  0  0  0  0  0
    5.8978    0.3783   15.4862 C   0  0  0  0  0  0  0  0  0  0  0  0
    5.5892   -0.5252   16.5282 C   0  0  0  0  0  0  0  0  0  0  0  0
    4.3768   -1.0429   16.3726 N   0  0  0  0  0  0  0  0  0  0  0  0
    3.8366   -0.3928   15.3256 C   0  0  0  0  0  0  0  0  0  0  0  0
    2.6368    2.1616   12.1201 C   0  0  0  0  0  0  0  0  0  0  0  0
    3.5454    2.6408   11.1618 C   0  0  0  0  0  0  0  0  0  0  0  0
    3.1453    3.4625   10.1097 C   0  0  0  0  0  0  0  0  0  0  0  0
    1.7994    3.8163   10.0176 C   0  0  3  0  0  0  0  0  0  0  0  0
    0.9914    4.5941    9.1197 C   0  0  0  0  0  0  0  0  0  0  0  0
   -0.2494    4.6053    9.5133 N   0  0  0  0  0  0  0  0  0  0  0  0
   -0.3372    3.8935   10.6271 N   0  0  0  0  0  0  0  0  0  0  0  0
    0.8851    3.3607   10.9950 C   0  0  0  0  0  0  0  0  0  0  0  0
    1.2726    2.5413   12.0626 C   0  0  0  0  0  0  0  0  0  0  0  0
   -0.5549   -0.8187   14.1915 C   0  0  0  0  0  0  0  0  0  0  0  0
   -1.9439   -1.0882   14.0610 C   0  0  0  0  0  0  0  0  0  0  0  0
   -2.7521   -0.3548   13.2056 O   0  0  0  0  0  0  0  0  0  0  0  0
   -2.2313    0.6456   12.3518 C   0  0  0  0  0  0  0  0  0  0  0  0
   -5.3467   -3.2534   13.5756 H   0  0  0  0  0  0  0  0  0  0  0  0
   -3.9673   -2.5542   12.6618 H   0  0  0  0  0  0  0  0  0  0  0  0
   -3.7532   -4.0824   13.5813 H   0  0  0  0  0  0  0  0  0  0  0  0
   -2.1987   -3.6662   16.2539 H   0  0  0  0  0  0  0  0  0  0  0  0
    0.2026   -3.2097   16.4887 H   0  0  0  0  0  0  0  0  0  0  0  0
    1.9973   -1.9606   16.0186 H   0  0  0  0  0  0  0  0  0  0  0  0
    5.1530    1.9333   13.2492 H   0  0  0  0  0  0  0  0  0  0  0  0
    6.8398    0.8742   15.3039 H   0  0  0  0  0  0  0  0  0  0  0  0
    6.2538   -0.7636   17.3454 H   0  0  0  0  0  0  0  0  0  0  0  0
    4.5861    2.3639   11.2429 H   0  0  0  0  0  0  0  0  0  0  0  0
    3.8608    3.8171    9.3826 H   0  0  0  0  0  0  0  0  0  0  0  0
    1.6039    2.9170    9.4151 H   0  0  0  0  0  0  0  0  0  0  0  0
    1.3620    5.0994    8.2401 H   0  0  0  0  0  0  0  0  0  0  0  0
    0.5637    2.2135   12.8085 H   0  0  0  0  0  0  0  0  0  0  0  0
   -0.0962   -0.0330   13.6095 H   0  0  0  0  0  0  0  0  0  0  0  0
   -3.0495    1.0924   11.7679 H   0  0  0  0  0  0  0  0  0  0  0  0
   -1.7436    1.4252   12.9555 H   0  0  0  0  0  0  0  0  0  0  0  0
   -1.4954    0.1973   11.6681 H   0  0  0  0  0  0  0  0  0  0  0  0
  1  2  1  0  0  0  0
  2  3  1  0  0  0  0
  3  4  2  0  0  0  0
  3 27  1  0  0  0  0
  4  5  1  0  0  0  0
  5  6  2  0  0  0  0
  6  7  1  0  0  0  0
  6 26  1  0  0  0  0
  7  8  1  0  0  0  0
  8  9  2  0  0  0  0
  8 16  1  0  0  0  0
  9 10  1  0  0  0  0
 10 11  2  0  0  0  0
 10 17  1  0  0  0  0
 11 12  1  0  0  0  0
 12 13  1  0  0  0  0
 12 16  1  0  0  0  0
 13 14  2  0  0  0  0
 14 15  1  0  0  0  0
 15 16  2  0  0  0  0
 17 18  1  0  0  0  0
 17 25  2  0  0  0  0
 18 19  2  0  0  0  0
 19 20  1  0  0  0  0
 20 21  1  0  0  0  0
 20 24  1  0  0  0  0
 21 22  2  0  0  0  0
 22 23  1  0  0  0  0
 23 24  2  0  0  0  0
 24 25  1  0  0  0  0
 26 27  2  0  0  0  0
 27 28  1  0  0  0  0
 28 29  1  0  0  0  0
  1 30  1  0  0  0  0
  1 31  1  0  0  0  0
  1 32  1  0  0  0  0
  4 33  1  0  0  0  0
  5 34  1  0  0  0  0
  7 35  1  0  0  0  0
 11 36  1  0  0  0  0
 13 37  1  0  0  0  0
 14 38  1  0  0  0  0
 18 39  1  0  0  0  0
 19 40  1  0  0  0  0
 20 41  1  0  0  0  0
 21 42  1  0  0  0  0
 25 43  1  0  0  0  0
 26 44  1  0  0  0  0
 29 45  1  0  0  0  0
 29 46  1  0  0  0  0
 29 47  1  0  0  0  0
M  END
> <IC50[nM]>
3.8

$$$$
CHEMBL3265017
  -OEChem-05192314333D
 Structure written by MMmdl.
 47 51  0     0  0  0  0  0  0999 V2000
   -4.2568   -3.1045   13.5692 C   0  0  0  0  0  0  0  0  0  0  0  0
   -3.8735   -2.3609   14.7157 O   0  0  0  0  0  0  0  0  0  0  0  0
   -2.5254   -2.1112   14.8167 C   0  0  0  0  0  0  0  0  0  0  0  0
   -1.7461   -2.8700   15.6816 C   0  0  0  0  0  0  0  0  0  0  0  0
   -0.3903   -2.6103   15.8137 C   0  0  0  0  0  0  0  0  0  0  0  0
    0.2206   -1.5848   15.0868 C   0  0  0  0  0  0  0  0  0  0  0  0
    1.6038   -1.3598   15.3228 N   0  0  0  0  0  0  0  0  0  0  0  0
    2.5359   -0.4458   14.7609 C   0  0  0  0  0  0  0  0  0  0  0  0
    2.1794    0.3745   13.7258 N   0  0  0  0  0  0  0  0  0  0  0  0
    3.1126    1.2387   13.2174 C   0  0  0  0  0  0  0  0  0  0  0  0
    4.4180    1.2838   13.7013 C   0  0  0  0  0  0  0  0  0  0  0  0
    4.7460    0.4885   14.7593 N   0  0  0  0  0  0  0  0  0  0  0  0
    5.8978    0.3783   15.4862 C   0  0  0  0  0  0  0  0  0  0  0  0
    5.5892   -0.5252   16.5282 C   0  0  0  0  0  0  0  0  0  0  0  0
    4.3768   -1.0429   16.3726 N   0  0  0  0  0  0  0  0  0  0  0  0
    3.8366   -0.3928   15.3256 C   0  0  0  0  0  0  0  0  0  0  0  0
    2.6368    2.1616   12.1201 C   0  0  0  0  0  0  0  0  0  0  0  0
    3.5454    2.6408   11.1618 C   0  0  0  0  0  0  0  0  0  0  0  0
    3.1453    3.4625   10.1097 C   0  0  0  0  0  0  0  0  0  0  0  0
    1.7994    3.8163   10.0176 C   0  0  0  0  0  0  0  0  0  0  0  0
    0.9914    4.5941    9.1197 C   0  0  0  0  0  0  0  0  0  0  0  0
   -0.2494    4.6053    9.5133 N   0  0  0  0  0  0  0  0  0  0  0  0
   -0.3372    3.8935   10.6271 N   0  0  0  0  0  0  0  0  0  0  0  0
    0.8851    3.3607   10.9950 C   0  0  0  0  0  0  0  0  0  0  0  0
    1.2726    2.5413   12.0626 C   0  0  0  0  0  0  0  0  0  0  0  0
   -0.5549   -0.8187   14.1915 C   0  0  0  0  0  0  0  0  0  0  0  0
   -1.9439   -1.0882   14.0610 C   0  0  0  0  0  0  0  0  0  0  0  0
   -2.7521   -0.3548   13.2056 O   0  0  0  0  0  0  0  0  0  0  0  0
   -2.2313    0.6456   12.3518 C   0  0  0  0  0  0  0  0  0  0  0  0
   -5.3467   -3.2534   13.5756 H   0  0  0  0  0  0  0  0  0  0  0  0
   -3.9673   -2.5542   12.6618 H   0  0  0  0  0  0  0  0  0  0  0  0
   -3.7532   -4.0824   13.5813 H   0  0  0  0  0  0  0  0  0  0  0  0
   -2.1987   -3.6662   16.2539 H   0  0  0  0  0  0  0  0  0  0  0  0
    0.2026   -3.2097   16.4887 H   0  0  0  0  0  0  0  0  0  0  0  0
    1.9973   -1.9606   16.0186 H   0  0  0  0  0  0  0  0  0  0  0  0
    5.1530    1.9333   13.2492 H   0  0  0  0  0  0  0  0  0  0  0  0
    6.8398    0.8742   15.3039 H   0  0  0  0  0  0  0  0  0  0  0  0
    6.2538   -0.7636   17.3454 H   0  0  0  0  0  0  0  0  0  0  0  0
    4.3107    3.2027   11.7173 H   0  0  0  0  0  0  0  0  0  0  0  0
    4.0041    1.7532   10.7017 H   0  0  0  0  0  0  0  0  0  0  0  0
    3.8608    3.8171    9.3826 H   0  0  0  0  0  0  0  0  0  0  0  0
    1.3620    5.0994    8.2401 H   0  0  0  0  0  0  0  0  0  0  0  0
    0.5637    2.2135   12.8085 H   0  0  0  0  0  0  0  0  0  0  0  0
   -0.0962   -0.0330   13.6095 H   0  0  0  0  0  0  0  0  0  0  0  0
   -3.0495    1.0924   11.7679 H   0  0  0  0  0  0  0  0  0  0  0  0
   -1.7436    1.4252   12.9555 H   0  0  0  0  0  0  0  0  0  0  0  0
   -1.4954    0.1973   11.6681 H   0  0  0  0  0  0  0  0  0  0  0  0
  1  2  1  0  0  0  0
  2  3  1  0  0  0  0
  3  4  2  0  0  0  0
  3 27  1  0  0  0  0
  4  5  1  0  0  0  0
  5  6  2  0  0  0  0
  6  7  1  0  0  0  0
  6 26  1  0  0  0  0
  7  8  1  0  0  0  0
  8  9  2  0  0  0  0
  8 16  1  0  0  0  0
  9 10  1  0  0  0  0
 10 11  2  0  0  0  0
 10 17  1  0  0  0  0
 11 12  1  0  0  0  0
 12 13  1  0  0  0  0
 12 16  1  0  0  0  0
 13 14  2  0  0  0  0
 14 15  1  0  0  0  0
 15 16  2  0  0  0  0
 17 18  1  0  0  0  0
 17 25  2  0  0  0  0
 18 19  1  0  0  0  0
 19 20  2  0  0  0  0
 20 21  1  0  0  0  0
 20 24  1  0  0  0  0
 21 22  2  0  0  0  0
 22 23  1  0  0  0  0
 23 24  2  0  0  0  0
 24 25  1  0  0  0  0
 26 27  2  0  0  0  0
 27 28  1  0  0  0  0
 28 29  1  0  0  0  0
  1 30  1  0  0  0  0
  1 31  1  0  0  0  0
  1 32  1  0  0  0  0
  4 33  1  0  0  0  0
  5 34  1  0  0  0  0
  7 35  1  0  0  0  0
 11 36  1  0  0  0  0
 13 37  1  0  0  0  0
 14 38  1  0  0  0  0
 18 39  1  0  0  0  0
 18 40  1  0  0  0  0
 19 41  1  0  0  0  0
 21 42  1  0  0  0  0
 25 43  1  0  0  0  0
 26 44  1  0  0  0  0
 29 45  1  0  0  0  0
 29 46  1  0  0  0  0
 29 47  1  0  0  0  0
M  END
> <IC50[nM]>
3.8

$$$$
CHEMBL3265017
  -OEChem-05192314333D
 Structure written by MMmdl.
 47 51  0     0  0  0  0  0  0999 V2000
   -4.2568   -3.1045   13.5692 C   0  0  0  0  0  0  0  0  0  0  0  0
   -3.8735   -2.3609   14.7157 O   0  0  0  0  0  0  0  0  0  0  0  0
   -2.5254   -2.1112   14.8167 C   0  0  0  0  0  0  0  0  0  0  0  0
   -1.7461   -2.8700   15.6816 C   0  0  0  0  0  0  0  0  0  0  0  0
   -0.3903   -2.6103   15.8137 C   0  0  0  0  0  0  0  0  0  0  0  0
    0.2206   -1.5848   15.0868 C   0  0  0  0  0  0  0  0  0  0  0  0
    1.6038   -1.3598   15.3228 N   0  0  0  0  0  0  0  0  0  0  0  0
    2.5359   -0.4458   14.7609 C   0  0  0  0  0  0  0  0  0  0  0  0
    2.1794    0.3745   13.7258 N   0  0  0  0  0  0  0  0  0  0  0  0
    3.1126    1.2387   13.2174 C   0  0  0  0  0  0  0  0  0  0  0  0
    4.4180    1.2838   13.7013 C   0  0  0  0  0  0  0  0  0  0  0  0
    4.7460    0.4885   14.7593 N   0  0  0  0  0  0  0  0  0  0  0  0
    5.8978    0.3783   15.4862 C   0  0  0  0  0  0  0  0  0  0  0  0
    5.5892   -0.5252   16.5282 C   0  0  0  0  0  0  0  0  0  0  0  0
    4.3768   -1.0429   16.3726 N   0  0  0  0  0  0  0  0  0  0  0  0
    3.8366   -0.3928   15.3256 C   0  0  0  0  0  0  0  0  0  0  0  0
    2.6368    2.1616   12.1201 C   0  0  0  0  0  0  0  0  0  0  0  0
    3.5454    2.6408   11.1618 C   0  0  0  0  0  0  0  0  0  0  0  0
    3.1453    3.4625   10.1097 C   0  0  0  0  0  0  0  0  0  0  0  0
    1.7994    3.8163   10.0176 C   0  0  0  0  0  0  0  0  0  0  0  0
    0.9914    4.5941    9.1197 C   0  0  0  0  0  0  0  0  0  0  0  0
   -0.2494    4.6053    9.5133 N   0  0  0  0  0  0  0  0  0  0  0  0
   -0.3372    3.8935   10.6271 N   0  0  0  0  0  0  0  0  0  0  0  0
    0.8851    3.3607   10.9950 C   0  0  0  0  0  0  0  0  0  0  0  0
    1.2726    2.5413   12.0626 C   0  0  0  0  0  0  0  0  0  0  0  0
   -0.5549   -0.8187   14.1915 C   0  0  0  0  0  0  0  0  0  0  0  0
   -1.9439   -1.0882   14.0610 C   0  0  0  0  0  0  0  0  0  0  0  0
   -2.7521   -0.3548   13.2056 O   0  0  0  0  0  0  0  0  0  0  0  0
   -2.2313    0.6456   12.3518 C   0  0  0  0  0  0  0  0  0  0  0  0
   -5.3467   -3.2534   13.5756 H   0  0  0  0  0  0  0  0  0  0  0  0
   -3.9673   -2.5542   12.6618 H   0  0  0  0  0  0  0  0  0  0  0  0
   -3.7532   -4.0824   13.5813 H   0  0  0  0  0  0  0  0  0  0  0  0
   -2.1987   -3.6662   16.2539 H   0  0  0  0  0  0  0  0  0  0  0  0
    0.2026   -3.2097   16.4887 H   0  0  0  0  0  0  0  0  0  0  0  0
    1.9973   -1.9606   16.0186 H   0  0  0  0  0  0  0  0  0  0  0  0
    5.1530    1.9333   13.2492 H   0  0  0  0  0  0  0  0  0  0  0  0
    6.8398    0.8742   15.3039 H   0  0  0  0  0  0  0  0  0  0  0  0
    6.2538   -0.7636   17.3454 H   0  0  0  0  0  0  0  0  0  0  0  0
    4.5861    2.3639   11.2429 H   0  0  0  0  0  0  0  0  0  0  0  0
    3.8608    3.8171    9.3826 H   0  0  0  0  0  0  0  0  0  0  0  0
    1.3620    5.0994    8.2401 H   0  0  0  0  0  0  0  0  0  0  0  0
    0.6738    1.6202   12.0082 H   0  0  0  0  0  0  0  0  0  0  0  0
    1.0377    3.0769   12.9942 H   0  0  0  0  0  0  0  0  0  0  0  0
   -0.0962   -0.0330   13.6095 H   0  0  0  0  0  0  0  0  0  0  0  0
   -3.0495    1.0924   11.7679 H   0  0  0  0  0  0  0  0  0  0  0  0
   -1.7436    1.4252   12.9555 H   0  0  0  0  0  0  0  0  0  0  0  0
   -1.4954    0.1973   11.6681 H   0  0  0  0  0  0  0  0  0  0  0  0
  1  2  1  0  0  0  0
  2  3  1  0  0  0  0
  3  4  2  0  0  0  0
  3 27  1  0  0  0  0
  4  5  1  0  0  0  0
  5  6  2  0  0  0  0
  6  7  1  0  0  0  0
  6 26  1  0  0  0  0
  7  8  1  0  0  0  0
  8  9  2  0  0  0  0
  8 16  1  0  0  0  0
  9 10  1  0  0  0  0
 10 11  2  0  0  0  0
 10 17  1  0  0  0  0
 11 12  1  0  0  0  0
 12 13  1  0  0  0  0
 12 16  1  0  0  0  0
 13 14  2  0  0  0  0
 14 15  1  0  0  0  0
 15 16  2  0  0  0  0
 17 18  2  0  0  0  0
 17 25  1  0  0  0  0
 18 19  1  0  0  0  0
 19 20  2  0  0  0  0
 20 21  1  0  0  0  0
 20 24  1  0  0  0  0
 21 22  2  0  0  0  0
 22 23  1  0  0  0  0
 23 24  2  0  0  0  0
 24 25  1  0  0  0  0
 26 27  2  0  0  0  0
 27 28  1  0  0  0  0
 28 29  1  0  0  0  0
  1 30  1  0  0  0  0
  1 31  1  0  0  0  0
  1 32  1  0  0  0  0
  4 33  1  0  0  0  0
  5 34  1  0  0  0  0
  7 35  1  0  0  0  0
 11 36  1  0  0  0  0
 13 37  1  0  0  0  0
 14 38  1  0  0  0  0
 18 39  1  0  0  0  0
 19 40  1  0  0  0  0
 21 41  1  0  0  0  0
 25 42  1  0  0  0  0
 25 43  1  0  0  0  0
 26 44  1  0  0  0  0
 29 45  1  0  0  0  0
 29 46  1  0  0  0  0
 29 47  1  0  0  0  0
M  END
> <IC50[nM]>
3.8

$$$$
CHEMBL3265017
  -OEChem-05192314333D
 Structure written by MMmdl.
 47 51  0     1  0  0  0  0  0999 V2000
   -4.2568   -3.1045   13.5692 C   0  0  0  0  0  0  0  0  0  0  0  0
   -3.8735   -2.3609   14.7157 O   0  0  0  0  0  0  0  0  0  0  0  0
   -2.5254   -2.1112   14.8167 C   0  0  0  0  0  0  0  0  0  0  0  0
   -1.7461   -2.8700   15.6816 C   0  0  0  0  0  0  0  0  0  0  0  0
   -0.3903   -2.6103   15.8137 C   0  0  0  0  0  0  0  0  0  0  0  0
    0.2206   -1.5848   15.0868 C   0  0  0  0  0  0  0  0  0  0  0  0
    1.6038   -1.3598   15.3228 N   0  0  0  0  0  0  0  0  0  0  0  0
    2.5359   -0.4458   14.7609 C   0  0  0  0  0  0  0  0  0  0  0  0
    2.1794    0.3745   13.7258 N   0  0  0  0  0  0  0  0  0  0  0  0
    3.1126    1.2387   13.2174 C   0  0  0  0  0  0  0  0  0  0  0  0
    4.4180    1.2838   13.7013 C   0  0  0  0  0  0  0  0  0  0  0  0
    4.7460    0.4885   14.7593 N   0  0  0  0  0  0  0  0  0  0  0  0
    5.8978    0.3783   15.4862 C   0  0  0  0  0  0  0  0  0  0  0  0
    5.5892   -0.5252   16.5282 C   0  0  0  0  0  0  0  0  0  0  0  0
    4.3768   -1.0429   16.3726 N   0  0  0  0  0  0  0  0  0  0  0  0
    3.8366   -0.3928   15.3256 C   0  0  0  0  0  0  0  0  0  0  0  0
    2.6368    2.1616   12.1201 C   0  0  3  0  0  0  0  0  0  0  0  0
    3.5454    2.6408   11.1618 C   0  0  0  0  0  0  0  0  0  0  0  0
    3.1453    3.4625   10.1097 C   0  0  0  0  0  0  0  0  0  0  0  0
    1.7994    3.8163   10.0176 C   0  0  0  0  0  0  0  0  0  0  0  0
    0.9914    4.5941    9.1197 C   0  0  0  0  0  0  0  0  0  0  0  0
   -0.2494    4.6053    9.5133 N   0  0  0  0  0  0  0  0  0  0  0  0
   -0.3372    3.8935   10.6271 N   0  0  0  0  0  0  0  0  0  0  0  0
    0.8851    3.3607   10.9950 C   0  0  0  0  0  0  0  0  0  0  0  0
    1.2726    2.5413   12.0626 C   0  0  0  0  0  0  0  0  0  0  0  0
   -0.5549   -0.8187   14.1915 C   0  0  0  0  0  0  0  0  0  0  0  0
   -1.9439   -1.0882   14.0610 C   0  0  0  0  0  0  0  0  0  0  0  0
   -2.7521   -0.3548   13.2056 O   0  0  0  0  0  0  0  0  0  0  0  0
   -2.2313    0.6456   12.3518 C   0  0  0  0  0  0  0  0  0  0  0  0
   -5.3467   -3.2534   13.5756 H   0  0  0  0  0  0  0  0  0  0  0  0
   -3.9673   -2.5542   12.6618 H   0  0  0  0  0  0  0  0  0  0  0  0
   -3.7532   -4.0824   13.5813 H   0  0  0  0  0  0  0  0  0  0  0  0
   -2.1987   -3.6662   16.2539 H   0  0  0  0  0  0  0  0  0  0  0  0
    0.2026   -3.2097   16.4887 H   0  0  0  0  0  0  0  0  0  0  0  0
    1.9973   -1.9606   16.0186 H   0  0  0  0  0  0  0  0  0  0  0  0
    5.1530    1.9333   13.2492 H   0  0  0  0  0  0  0  0  0  0  0  0
    6.8398    0.8742   15.3039 H   0  0  0  0  0  0  0  0  0  0  0  0
    6.2538   -0.7636   17.3454 H   0  0  0  0  0  0  0  0  0  0  0  0
    2.4218    1.2920   11.4817 H   0  0  0  0  0  0  0  0  0  0  0  0
    4.5861    2.3639   11.2429 H   0  0  0  0  0  0  0  0  0  0  0  0
    3.8608    3.8171    9.3826 H   0  0  0  0  0  0  0  0  0  0  0  0
    1.3620    5.0994    8.2401 H   0  0  0  0  0  0  0  0  0  0  0  0
    0.5637    2.2135   12.8085 H   0  0  0  0  0  0  0  0  0  0  0  0
   -0.0962   -0.0330   13.6095 H   0  0  0  0  0  0  0  0  0  0  0  0
   -3.0495    1.0924   11.7679 H   0  0  0  0  0  0  0  0  0  0  0  0
   -1.7436    1.4252   12.9555 H   0  0  0  0  0  0  0  0  0  0  0  0
   -1.4954    0.1973   11.6681 H   0  0  0  0  0  0  0  0  0  0  0  0
  1  2  1  0  0  0  0
  2  3  1  0  0  0  0
  3  4  2  0  0  0  0
  3 27  1  0  0  0  0
  4  5  1  0  0  0  0
  5  6  2  0  0  0  0
  6  7  1  0  0  0  0
  6 26  1  0  0  0  0
  7  8  1  0  0  0  0
  8  9  2  0  0  0  0
  8 16  1  0  0  0  0
  9 10  1  0  0  0  0
 10 11  2  0  0  0  0
 10 17  1  0  0  0  0
 11 12  1  0  0  0  0
 12 13  1  0  0  0  0
 12 16  1  0  0  0  0
 13 14  2  0  0  0  0
 14 15  1  0  0  0  0
 15 16  2  0  0  0  0
 17 18  1  0  0  0  0
 17 25  1  0  0  0  0
 18 19  2  0  0  0  0
 19 20  1  0  0  0  0
 20 21  2  0  0  0  0
 20 24  1  0  0  0  0
 21 22  1  0  0  0  0
 22 23  2  0  0  0  0
 23 24  1  0  0  0  0
 24 25  2  0  0  0  0
 26 27  2  0  0  0  0
 27 28  1  0  0  0  0
 28 29  1  0  0  0  0
  1 30  1  0  0  0  0
  1 31  1  0  0  0  0
  1 32  1  0  0  0  0
  4 33  1  0  0  0  0
  5 34  1  0  0  0  0
  7 35  1  0  0  0  0
 11 36  1  0  0  0  0
 13 37  1  0  0  0  0
 14 38  1  0  0  0  0
 17 39  1  0  0  0  0
 18 40  1  0  0  0  0
 19 41  1  0  0  0  0
 21 42  1  0  0  0  0
 25 43  1  0  0  0  0
 26 44  1  0  0  0  0
 29 45  1  0  0  0  0
 29 46  1  0  0  0  0
 29 47  1  0  0  0  0
M  END
> <IC50[nM]>
3.8

$$$$
CHEMBL3265017
  -OEChem-05192314333D
 Structure written by MMmdl.
 47 51  0     1  0  0  0  0  0999 V2000
   -4.2568   -3.1045   13.5692 C   0  0  0  0  0  0  0  0  0  0  0  0
   -3.8735   -2.3609   14.7157 O   0  0  0  0  0  0  0  0  0  0  0  0
   -2.5254   -2.1112   14.8167 C   0  0  0  0  0  0  0  0  0  0  0  0
   -1.7461   -2.8700   15.6816 C   0  0  0  0  0  0  0  0  0  0  0  0
   -0.3903   -2.6103   15.8137 C   0  0  0  0  0  0  0  0  0  0  0  0
    0.2206   -1.5848   15.0868 C   0  0  0  0  0  0  0  0  0  0  0  0
    1.6038   -1.3598   15.3228 N   0  0  0  0  0  0  0  0  0  0  0  0
    2.5359   -0.4458   14.7609 C   0  0  0  0  0  0  0  0  0  0  0  0
    2.1794    0.3745   13.7258 N   0  0  0  0  0  0  0  0  0  0  0  0
    3.1126    1.2387   13.2174 C   0  0  0  0  0  0  0  0  0  0  0  0
    4.4180    1.2838   13.7013 C   0  0  0  0  0  0  0  0  0  0  0  0
    4.7460    0.4885   14.7593 N   0  0  0  0  0  0  0  0  0  0  0  0
    5.8978    0.3783   15.4862 C   0  0  0  0  0  0  0  0  0  0  0  0
    5.5892   -0.5252   16.5282 C   0  0  0  0  0  0  0  0  0  0  0  0
    4.3768   -1.0429   16.3726 N   0  0  0  0  0  0  0  0  0  0  0  0
    3.8366   -0.3928   15.3256 C   0  0  0  0  0  0  0  0  0  0  0  0
    2.6368    2.1616   12.1201 C   0  0  0  0  0  0  0  0  0  0  0  0
    3.5454    2.6408   11.1618 C   0  0  0  0  0  0  0  0  0  0  0  0
    3.1453    3.4625   10.1097 C   0  0  0  0  0  0  0  0  0  0  0  0
    1.7994    3.8163   10.0176 C   0  0  0  0  0  0  0  0  0  0  0  0
    0.9914    4.5941    9.1197 C   0  0  0  0  0  0  0  0  0  0  0  0
   -0.2494    4.6053    9.5133 N   0  0  0  0  0  0  0  0  0  0  0  0
   -0.3372    3.8935   10.6271 N   0  0  0  0  0  0  0  0  0  0  0  0
    0.8851    3.3607   10.9950 C   0  0  3  0  0  0  0  0  0  0  0  0
    1.2726    2.5413   12.0626 C   0  0  0  0  0  0  0  0  0  0  0  0
   -0.5549   -0.8187   14.1915 C   0  0  0  0  0  0  0  0  0  0  0  0
   -1.9439   -1.0882   14.0610 C   0  0  0  0  0  0  0  0  0  0  0  0
   -2.7521   -0.3548   13.2056 O   0  0  0  0  0  0  0  0  0  0  0  0
   -2.2313    0.6456   12.3518 C   0  0  0  0  0  0  0  0  0  0  0  0
   -5.3467   -3.2534   13.5756 H   0  0  0  0  0  0  0  0  0  0  0  0
   -3.9673   -2.5542   12.6618 H   0  0  0  0  0  0  0  0  0  0  0  0
   -3.7532   -4.0824   13.5813 H   0  0  0  0  0  0  0  0  0  0  0  0
   -2.1987   -3.6662   16.2539 H   0  0  0  0  0  0  0  0  0  0  0  0
    0.2026   -3.2097   16.4887 H   0  0  0  0  0  0  0  0  0  0  0  0
    1.9973   -1.9606   16.0186 H   0  0  0  0  0  0  0  0  0  0  0  0
    5.1530    1.9333   13.2492 H   0  0  0  0  0  0  0  0  0  0  0  0
    6.8398    0.8742   15.3039 H   0  0  0  0  0  0  0  0  0  0  0  0
    6.2538   -0.7636   17.3454 H   0  0  0  0  0  0  0  0  0  0  0  0
    4.5861    2.3639   11.2429 H   0  0  0  0  0  0  0  0  0  0  0  0
    3.8608    3.8171    9.3826 H   0  0  0  0  0  0  0  0  0  0  0  0
    1.3620    5.0994    8.2401 H   0  0  0  0  0  0  0  0  0  0  0  0
    1.0912    4.2530   11.6044 H   0  0  0  0  0  0  0  0  0  0  0  0
    0.5637    2.2135   12.8085 H   0  0  0  0  0  0  0  0  0  0  0  0
   -0.0962   -0.0330   13.6095 H   0  0  0  0  0  0  0  0  0  0  0  0
   -3.0495    1.0924   11.7679 H   0  0  0  0  0  0  0  0  0  0  0  0
   -1.7436    1.4252   12.9555 H   0  0  0  0  0  0  0  0  0  0  0  0
   -1.4954    0.1973   11.6681 H   0  0  0  0  0  0  0  0  0  0  0  0
  1  2  1  0  0  0  0
  2  3  1  0  0  0  0
  3  4  2  0  0  0  0
  3 27  1  0  0  0  0
  4  5  1  0  0  0  0
  5  6  2  0  0  0  0
  6  7  1  0  0  0  0
  6 26  1  0  0  0  0
  7  8  1  0  0  0  0
  8  9  2  0  0  0  0
  8 16  1  0  0  0  0
  9 10  1  0  0  0  0
 10 11  2  0  0  0  0
 10 17  1  0  0  0  0
 11 12  1  0  0  0  0
 12 13  1  0  0  0  0
 12 16  1  0  0  0  0
 13 14  2  0  0  0  0
 14 15  1  0  0  0  0
 15 16  2  0  0  0  0
 17 18  1  0  0  0  0
 17 25  2  0  0  0  0
 18 19  2  0  0  0  0
 19 20  1  0  0  0  0
 20 21  2  0  0  0  0
 20 24  1  0  0  0  0
 21 22  1  0  0  0  0
 22 23  2  0  0  0  0
 23 24  1  0  0  0  0
 24 25  1  0  0  0  0
 26 27  2  0  0  0  0
 27 28  1  0  0  0  0
 28 29  1  0  0  0  0
  1 30  1  0  0  0  0
  1 31  1  0  0  0  0
  1 32  1  0  0  0  0
  4 33  1  0  0  0  0
  5 34  1  0  0  0  0
  7 35  1  0  0  0  0
 11 36  1  0  0  0  0
 13 37  1  0  0  0  0
 14 38  1  0  0  0  0
 18 39  1  0  0  0  0
 19 40  1  0  0  0  0
 21 41  1  0  0  0  0
 24 42  1  0  0  0  0
 25 43  1  0  0  0  0
 26 44  1  0  0  0  0
 29 45  1  0  0  0  0
 29 46  1  0  0  0  0
 29 47  1  0  0  0  0
M  END
> <IC50[nM]>
3.8

$$$$
CHEMBL3265017
  -OEChem-05192314333D
 Structure written by MMmdl.
 47 51  0     0  0  0  0  0  0999 V2000
   -4.2568   -3.1045   13.5692 C   0  0  0  0  0  0  0  0  0  0  0  0
   -3.8735   -2.3609   14.7157 O   0  0  0  0  0  0  0  0  0  0  0  0
   -2.5254   -2.1112   14.8167 C   0  0  0  0  0  0  0  0  0  0  0  0
   -1.7461   -2.8700   15.6816 C   0  0  0  0  0  0  0  0  0  0  0  0
   -0.3903   -2.6103   15.8137 C   0  0  0  0  0  0  0  0  0  0  0  0
    0.2206   -1.5848   15.0868 C   0  0  0  0  0  0  0  0  0  0  0  0
    1.6038   -1.3598   15.3228 N   0  0  0  0  0  0  0  0  0  0  0  0
    2.5359   -0.4458   14.7609 C   0  0  0  0  0  0  0  0  0  0  0  0
    2.1794    0.3745   13.7258 N   0  0  0  0  0  0  0  0  0  0  0  0
    3.1126    1.2387   13.2174 C   0  0  0  0  0  0  0  0  0  0  0  0
    4.4180    1.2838   13.7013 C   0  0  0  0  0  0  0  0  0  0  0  0
    4.7460    0.4885   14.7593 N   0  0  0  0  0  0  0  0  0  0  0  0
    5.8978    0.3783   15.4862 C   0  0  0  0  0  0  0  0  0  0  0  0
    5.5892   -0.5252   16.5282 C   0  0  0  0  0  0  0  0  0  0  0  0
    4.3768   -1.0429   16.3726 N   0  0  0  0  0  0  0  0  0  0  0  0
    3.8366   -0.3928   15.3256 C   0  0  0  0  0  0  0  0  0  0  0  0
    2.6368    2.1616   12.1201 C   0  0  0  0  0  0  0  0  0  0  0  0
    3.5454    2.6408   11.1618 C   0  0  0  0  0  0  0  0  0  0  0  0
    3.1453    3.4625   10.1097 C   0  0  0  0  0  0  0  0  0  0  0  0
    1.7994    3.8163   10.0176 C   0  0  0  0  0  0  0  0  0  0  0  0
    0.9914    4.5941    9.1197 C   0  0  0  0  0  0  0  0  0  0  0  0
   -0.2494    4.6053    9.5133 N   0  0  0  0  0  0  0  0  0  0  0  0
   -0.3372    3.8935   10.6271 N   0  0  0  0  0  0  0  0  0  0  0  0
    0.8851    3.3607   10.9950 C   0  0  0  0  0  0  0  0  0  0  0  0
    1.2726    2.5413   12.0626 C   0  0  0  0  0  0  0  0  0  0  0  0
   -0.5549   -0.8187   14.1915 C   0  0  0  0  0  0  0  0  0  0  0  0
   -1.9439   -1.0882   14.0610 C   0  0  0  0  0  0  0  0  0  0  0  0
   -2.7521   -0.3548   13.2056 O   0  0  0  0  0  0  0  0  0  0  0  0
   -2.2313    0.6456   12.3518 C   0  0  0  0  0  0  0  0  0  0  0  0
   -5.3467   -3.2534   13.5756 H   0  0  0  0  0  0  0  0  0  0  0  0
   -3.9673   -2.5542   12.6618 H   0  0  0  0  0  0  0  0  0  0  0  0
   -3.7532   -4.0824   13.5813 H   0  0  0  0  0  0  0  0  0  0  0  0
   -2.1987   -3.6662   16.2539 H   0  0  0  0  0  0  0  0  0  0  0  0
    0.2026   -3.2097   16.4887 H   0  0  0  0  0  0  0  0  0  0  0  0
    1.9973   -1.9606   16.0186 H   0  0  0  0  0  0  0  0  0  0  0  0
    5.1530    1.9333   13.2492 H   0  0  0  0  0  0  0  0  0  0  0  0
    6.8398    0.8742   15.3039 H   0  0  0  0  0  0  0  0  0  0  0  0
    6.2538   -0.7636   17.3454 H   0  0  0  0  0  0  0  0  0  0  0  0
    4.5861    2.3639   11.2429 H   0  0  0  0  0  0  0  0  0  0  0  0
    3.7219    4.3959   10.1890 H   0  0  0  0  0  0  0  0  0  0  0  0
    3.4102    2.9461    9.1753 H   0  0  0  0  0  0  0  0  0  0  0  0
    1.3620    5.0994    8.2401 H   0  0  0  0  0  0  0  0  0  0  0  0
    0.5637    2.2135   12.8085 H   0  0  0  0  0  0  0  0  0  0  0  0
   -0.0962   -0.0330   13.6095 H   0  0  0  0  0  0  0  0  0  0  0  0
   -3.0495    1.0924   11.7679 H   0  0  0  0  0  0  0  0  0  0  0  0
   -1.7436    1.4252   12.9555 H   0  0  0  0  0  0  0  0  0  0  0  0
   -1.4954    0.1973   11.6681 H   0  0  0  0  0  0  0  0  0  0  0  0
  1  2  1  0  0  0  0
  2  3  1  0  0  0  0
  3  4  2  0  0  0  0
  3 27  1  0  0  0  0
  4  5  1  0  0  0  0
  5  6  2  0  0  0  0
  6  7  1  0  0  0  0
  6 26  1  0  0  0  0
  7  8  1  0  0  0  0
  8  9  2  0  0  0  0
  8 16  1  0  0  0  0
  9 10  1  0  0  0  0
 10 11  2  0  0  0  0
 10 17  1  0  0  0  0
 11 12  1  0  0  0  0
 12 13  1  0  0  0  0
 12 16  1  0  0  0  0
 13 14  2  0  0  0  0
 14 15  1  0  0  0  0
 15 16  2  0  0  0  0
 17 18  2  0  0  0  0
 17 25  1  0  0  0  0
 18 19  1  0  0  0  0
 19 20  1  0  0  0  0
 20 21  2  0  0  0  0
 20 24  1  0  0  0  0
 21 22  1  0  0  0  0
 22 23  2  0  0  0  0
 23 24  1  0  0  0  0
 24 25  2  0  0  0  0
 26 27  2  0  0  0  0
 27 28  1  0  0  0  0
 28 29  1  0  0  0  0
  1 30  1  0  0  0  0
  1 31  1  0  0  0  0
  1 32  1  0  0  0  0
  4 33  1  0  0  0  0
  5 34  1  0  0  0  0
  7 35  1  0  0  0  0
 11 36  1  0  0  0  0
 13 37  1  0  0  0  0
 14 38  1  0  0  0  0
 18 39  1  0  0  0  0
 19 40  1  0  0  0  0
 19 41  1  0  0  0  0
 21 42  1  0  0  0  0
 25 43  1  0  0  0  0
 26 44  1  0  0  0  0
 29 45  1  0  0  0  0
 29 46  1  0  0  0  0
 29 47  1  0  0  0  0
M  END
> <IC50[nM]>
3.8

$$$$
CHEMBL3265017
  -OEChem-05192314333D
 Structure written by MMmdl.
 47 51  0     1  0  0  0  0  0999 V2000
   -4.2568   -3.1045   13.5692 C   0  0  0  0  0  0  0  0  0  0  0  0
   -3.8735   -2.3609   14.7157 O   0  0  0  0  0  0  0  0  0  0  0  0
   -2.5254   -2.1112   14.8167 C   0  0  0  0  0  0  0  0  0  0  0  0
   -1.7461   -2.8700   15.6816 C   0  0  0  0  0  0  0  0  0  0  0  0
   -0.3903   -2.6103   15.8137 C   0  0  0  0  0  0  0  0  0  0  0  0
    0.2206   -1.5848   15.0868 C   0  0  0  0  0  0  0  0  0  0  0  0
    1.6038   -1.3598   15.3228 N   0  0  0  0  0  0  0  0  0  0  0  0
    2.5359   -0.4458   14.7609 C   0  0  0  0  0  0  0  0  0  0  0  0
    2.1794    0.3745   13.7258 N   0  0  0  0  0  0  0  0  0  0  0  0
    3.1126    1.2387   13.2174 C   0  0  0  0  0  0  0  0  0  0  0  0
    4.4180    1.2838   13.7013 C   0  0  0  0  0  0  0  0  0  0  0  0
    4.7460    0.4885   14.7593 N   0  0  0  0  0  0  0  0  0  0  0  0
    5.8978    0.3783   15.4862 C   0  0  0  0  0  0  0  0  0  0  0  0
    5.5892   -0.5252   16.5282 C   0  0  0  0  0  0  0  0  0  0  0  0
    4.3768   -1.0429   16.3726 N   0  0  0  0  0  0  0  0  0  0  0  0
    3.8366   -0.3928   15.3256 C   0  0  0  0  0  0  0  0  0  0  0  0
    2.6368    2.1616   12.1201 C   0  0  0  0  0  0  0  0  0  0  0  0
    3.5454    2.6408   11.1618 C   0  0  0  0  0  0  0  0  0  0  0  0
    3.1453    3.4625   10.1097 C   0  0  0  0  0  0  0  0  0  0  0  0
    1.7994    3.8163   10.0176 C   0  0  3  0  0  0  0  0  0  0  0  0
    0.9914    4.5941    9.1197 C   0  0  0  0  0  0  0  0  0  0  0  0
   -0.2494    4.6053    9.5133 N   0  0  0  0  0  0  0  0  0  0  0  0
   -0.3372    3.8935   10.6271 N   0  0  0  0  0  0  0  0  0  0  0  0
    0.8851    3.3607   10.9950 C   0  0  0  0  0  0  0  0  0  0  0  0
    1.2726    2.5413   12.0626 C   0  0  0  0  0  0  0  0  0  0  0  0
   -0.5549   -0.8187   14.1915 C   0  0  0  0  0  0  0  0  0  0  0  0
   -1.9439   -1.0882   14.0610 C   0  0  0  0  0  0  0  0  0  0  0  0
   -2.7521   -0.3548   13.2056 O   0  0  0  0  0  0  0  0  0  0  0  0
   -2.2313    0.6456   12.3518 C   0  0  0  0  0  0  0  0  0  0  0  0
   -5.3467   -3.2534   13.5756 H   0  0  0  0  0  0  0  0  0  0  0  0
   -3.9673   -2.5542   12.6618 H   0  0  0  0  0  0  0  0  0  0  0  0
   -3.7532   -4.0824   13.5813 H   0  0  0  0  0  0  0  0  0  0  0  0
   -2.1987   -3.6662   16.2539 H   0  0  0  0  0  0  0  0  0  0  0  0
    0.2026   -3.2097   16.4887 H   0  0  0  0  0  0  0  0  0  0  0  0
    1.2543    0.3438   13.3472 H   0  0  0  0  0  0  0  0  0  0  0  0
    5.1530    1.9333   13.2492 H   0  0  0  0  0  0  0  0  0  0  0  0
    6.8398    0.8742   15.3039 H   0  0  0  0  0  0  0  0  0  0  0  0
    6.2538   -0.7636   17.3454 H   0  0  0  0  0  0  0  0  0  0  0  0
    4.5861    2.3639   11.2429 H   0  0  0  0  0  0  0  0  0  0  0  0
    3.8608    3.8171    9.3826 H   0  0  0  0  0  0  0  0  0  0  0  0
    1.6039    2.9170    9.4151 H   0  0  0  0  0  0  0  0  0  0  0  0
    1.3620    5.0994    8.2401 H   0  0  0  0  0  0  0  0  0  0  0  0
    0.5637    2.2135   12.8085 H   0  0  0  0  0  0  0  0  0  0  0  0
   -0.0962   -0.0330   13.6095 H   0  0  0  0  0  0  0  0  0  0  0  0
   -3.0495    1.0924   11.7679 H   0  0  0  0  0  0  0  0  0  0  0  0
   -1.7436    1.4252   12.9555 H   0  0  0  0  0  0  0  0  0  0  0  0
   -1.4954    0.1973   11.6681 H   0  0  0  0  0  0  0  0  0  0  0  0
  1  2  1  0  0  0  0
  2  3  1  0  0  0  0
  3  4  2  0  0  0  0
  3 27  1  0  0  0  0
  4  5  1  0  0  0  0
  5  6  2  0  0  0  0
  6  7  1  0  0  0  0
  6 26  1  0  0  0  0
  7  8  2  0  0  0  0
  8  9  1  0  0  0  0
  8 16  1  0  0  0  0
  9 10  1  0  0  0  0
 10 11  2  0  0  0  0
 10 17  1  0  0  0  0
 11 12  1  0  0  0  0
 12 13  1  0  0  0  0
 12 16  1  0  0  0  0
 13 14  2  0  0  0  0
 14 15  1  0  0  0  0
 15 16  2  0  0  0  0
 17 18  1  0  0  0  0
 17 25  2  0  0  0  0
 18 19  2  0  0  0  0
 19 20  1  0  0  0  0
 20 21  1  0  0  0  0
 20 24  1  0  0  0  0
 21 22  2  0  0  0  0
 22 23  1  0  0  0  0
 23 24  2  0  0  0  0
 24 25  1  0  0  0  0
 26 27  2  0  0  0  0
 27 28  1  0  0  0  0
 28 29  1  0  0  0  0
  1 30  1  0  0  0  0
  1 31  1  0  0  0  0
  1 32  1  0  0  0  0
  4 33  1  0  0  0  0
  5 34  1  0  0  0  0
  9 35  1  0  0  0  0
 11 36  1  0  0  0  0
 13 37  1  0  0  0  0
 14 38  1  0  0  0  0
 18 39  1  0  0  0  0
 19 40  1  0  0  0  0
 20 41  1  0  0  0  0
 21 42  1  0  0  0  0
 25 43  1  0  0  0  0
 26 44  1  0  0  0  0
 29 45  1  0  0  0  0
 29 46  1  0  0  0  0
 29 47  1  0  0  0  0
M  END
> <IC50[nM]>
3.8

$$$$
CHEMBL3265017
  -OEChem-05192314333D
 Structure written by MMmdl.
 47 51  0     0  0  0  0  0  0999 V2000
   -4.2568   -3.1045   13.5692 C   0  0  0  0  0  0  0  0  0  0  0  0
   -3.8735   -2.3609   14.7157 O   0  0  0  0  0  0  0  0  0  0  0  0
   -2.5254   -2.1112   14.8167 C   0  0  0  0  0  0  0  0  0  0  0  0
   -1.7461   -2.8700   15.6816 C   0  0  0  0  0  0  0  0  0  0  0  0
   -0.3903   -2.6103   15.8137 C   0  0  0  0  0  0  0  0  0  0  0  0
    0.2206   -1.5848   15.0868 C   0  0  0  0  0  0  0  0  0  0  0  0
    1.6038   -1.3598   15.3228 N   0  0  0  0  0  0  0  0  0  0  0  0
    2.5359   -0.4458   14.7609 C   0  0  0  0  0  0  0  0  0  0  0  0
    2.1794    0.3745   13.7258 N   0  0  0  0  0  0  0  0  0  0  0  0
    3.1126    1.2387   13.2174 C   0  0  0  0  0  0  0  0  0  0  0  0
    4.4180    1.2838   13.7013 C   0  0  0  0  0  0  0  0  0  0  0  0
    4.7460    0.4885   14.7593 N   0  0  0  0  0  0  0  0  0  0  0  0
    5.8978    0.3783   15.4862 C   0  0  0  0  0  0  0  0  0  0  0  0
    5.5892   -0.5252   16.5282 C   0  0  0  0  0  0  0  0  0  0  0  0
    4.3768   -1.0429   16.3726 N   0  0  0  0  0  0  0  0  0  0  0  0
    3.8366   -0.3928   15.3256 C   0  0  0  0  0  0  0  0  0  0  0  0
    2.6368    2.1616   12.1201 C   0  0  0  0  0  0  0  0  0  0  0  0
    3.5454    2.6408   11.1618 C   0  0  0  0  0  0  0  0  0  0  0  0
    3.1453    3.4625   10.1097 C   0  0  0  0  0  0  0  0  0  0  0  0
    1.7994    3.8163   10.0176 C   0  0  0  0  0  0  0  0  0  0  0  0
    0.9914    4.5941    9.1197 C   0  0  0  0  0  0  0  0  0  0  0  0
   -0.2494    4.6053    9.5133 N   0  0  0  0  0  0  0  0  0  0  0  0
   -0.3372    3.8935   10.6271 N   0  0  0  0  0  0  0  0  0  0  0  0
    0.8851    3.3607   10.9950 C   0  0  0  0  0  0  0  0  0  0  0  0
    1.2726    2.5413   12.0626 C   0  0  0  0  0  0  0  0  0  0  0  0
   -0.5549   -0.8187   14.1915 C   0  0  0  0  0  0  0  0  0  0  0  0
   -1.9439   -1.0882   14.0610 C   0  0  0  0  0  0  0  0  0  0  0  0
   -2.7521   -0.3548   13.2056 O   0  0  0  0  0  0  0  0  0  0  0  0
   -2.2313    0.6456   12.3518 C   0  0  0  0  0  0  0  0  0  0  0  0
   -5.3467   -3.2534   13.5756 H   0  0  0  0  0  0  0  0  0  0  0  0
   -3.9673   -2.5542   12.6618 H   0  0  0  0  0  0  0  0  0  0  0  0
   -3.7532   -4.0824   13.5813 H   0  0  0  0  0  0  0  0  0  0  0  0
   -2.1987   -3.6662   16.2539 H   0  0  0  0  0  0  0  0  0  0  0  0
    0.2026   -3.2097   16.4887 H   0  0  0  0  0  0  0  0  0  0  0  0
    1.2543    0.3438   13.3472 H   0  0  0  0  0  0  0  0  0  0  0  0
    5.1530    1.9333   13.2492 H   0  0  0  0  0  0  0  0  0  0  0  0
    6.8398    0.8742   15.3039 H   0  0  0  0  0  0  0  0  0  0  0  0
    6.2538   -0.7636   17.3454 H   0  0  0  0  0  0  0  0  0  0  0  0
    4.3107    3.2027   11.7173 H   0  0  0  0  0  0  0  0  0  0  0  0
    4.0041    1.7532   10.7017 H   0  0  0  0  0  0  0  0  0  0  0  0
    3.8608    3.8171    9.3826 H   0  0  0  0  0  0  0  0  0  0  0  0
    1.3620    5.0994    8.2401 H   0  0  0  0  0  0  0  0  0  0  0  0
    0.5637    2.2135   12.8085 H   0  0  0  0  0  0  0  0  0  0  0  0
   -0.0962   -0.0330   13.6095 H   0  0  0  0  0  0  0  0  0  0  0  0
   -3.0495    1.0924   11.7679 H   0  0  0  0  0  0  0  0  0  0  0  0
   -1.7436    1.4252   12.9555 H   0  0  0  0  0  0  0  0  0  0  0  0
   -1.4954    0.1973   11.6681 H   0  0  0  0  0  0  0  0  0  0  0  0
  1  2  1  0  0  0  0
  2  3  1  0  0  0  0
  3  4  2  0  0  0  0
  3 27  1  0  0  0  0
  4  5  1  0  0  0  0
  5  6  2  0  0  0  0
  6  7  1  0  0  0  0
  6 26  1  0  0  0  0
  7  8  2  0  0  0  0
  8  9  1  0  0  0  0
  8 16  1  0  0  0  0
  9 10  1  0  0  0  0
 10 11  2  0  0  0  0
 10 17  1  0  0  0  0
 11 12  1  0  0  0  0
 12 13  1  0  0  0  0
 12 16  1  0  0  0  0
 13 14  2  0  0  0  0
 14 15  1  0  0  0  0
 15 16  2  0  0  0  0
 17 18  1  0  0  0  0
 17 25  2  0  0  0  0
 18 19  1  0  0  0  0
 19 20  2  0  0  0  0
 20 21  1  0  0  0  0
 20 24  1  0  0  0  0
 21 22  2  0  0  0  0
 22 23  1  0  0  0  0
 23 24  2  0  0  0  0
 24 25  1  0  0  0  0
 26 27  2  0  0  0  0
 27 28  1  0  0  0  0
 28 29  1  0  0  0  0
  1 30  1  0  0  0  0
  1 31  1  0  0  0  0
  1 32  1  0  0  0  0
  4 33  1  0  0  0  0
  5 34  1  0  0  0  0
  9 35  1  0  0  0  0
 11 36  1  0  0  0  0
 13 37  1  0  0  0  0
 14 38  1  0  0  0  0
 18 39  1  0  0  0  0
 18 40  1  0  0  0  0
 19 41  1  0  0  0  0
 21 42  1  0  0  0  0
 25 43  1  0  0  0  0
 26 44  1  0  0  0  0
 29 45  1  0  0  0  0
 29 46  1  0  0  0  0
 29 47  1  0  0  0  0
M  END
> <IC50[nM]>
3.8

$$$$
CHEMBL3265017
  -OEChem-05192314333D
 Structure written by MMmdl.
 47 51  0     0  0  0  0  0  0999 V2000
   -4.2568   -3.1045   13.5692 C   0  0  0  0  0  0  0  0  0  0  0  0
   -3.8735   -2.3609   14.7157 O   0  0  0  0  0  0  0  0  0  0  0  0
   -2.5254   -2.1112   14.8167 C   0  0  0  0  0  0  0  0  0  0  0  0
   -1.7461   -2.8700   15.6816 C   0  0  0  0  0  0  0  0  0  0  0  0
   -0.3903   -2.6103   15.8137 C   0  0  0  0  0  0  0  0  0  0  0  0
    0.2206   -1.5848   15.0868 C   0  0  0  0  0  0  0  0  0  0  0  0
    1.6038   -1.3598   15.3228 N   0  0  0  0  0  0  0  0  0  0  0  0
    2.5359   -0.4458   14.7609 C   0  0  0  0  0  0  0  0  0  0  0  0
    2.1794    0.3745   13.7258 N   0  0  0  0  0  0  0  0  0  0  0  0
    3.1126    1.2387   13.2174 C   0  0  0  0  0  0  0  0  0  0  0  0
    4.4180    1.2838   13.7013 C   0  0  0  0  0  0  0  0  0  0  0  0
    4.7460    0.4885   14.7593 N   0  0  0  0  0  0  0  0  0  0  0  0
    5.8978    0.3783   15.4862 C   0  0  0  0  0  0  0  0  0  0  0  0
    5.5892   -0.5252   16.5282 C   0  0  0  0  0  0  0  0  0  0  0  0
    4.3768   -1.0429   16.3726 N   0  0  0  0  0  0  0  0  0  0  0  0
    3.8366   -0.3928   15.3256 C   0  0  0  0  0  0  0  0  0  0  0  0
    2.6368    2.1616   12.1201 C   0  0  0  0  0  0  0  0  0  0  0  0
    3.5454    2.6408   11.1618 C   0  0  0  0  0  0  0  0  0  0  0  0
    3.1453    3.4625   10.1097 C   0  0  0  0  0  0  0  0  0  0  0  0
    1.7994    3.8163   10.0176 C   0  0  0  0  0  0  0  0  0  0  0  0
    0.9914    4.5941    9.1197 C   0  0  0  0  0  0  0  0  0  0  0  0
   -0.2494    4.6053    9.5133 N   0  0  0  0  0  0  0  0  0  0  0  0
   -0.3372    3.8935   10.6271 N   0  0  0  0  0  0  0  0  0  0  0  0
    0.8851    3.3607   10.9950 C   0  0  0  0  0  0  0  0  0  0  0  0
    1.2726    2.5413   12.0626 C   0  0  0  0  0  0  0  0  0  0  0  0
   -0.5549   -0.8187   14.1915 C   0  0  0  0  0  0  0  0  0  0  0  0
   -1.9439   -1.0882   14.0610 C   0  0  0  0  0  0  0  0  0  0  0  0
   -2.7521   -0.3548   13.2056 O   0  0  0  0  0  0  0  0  0  0  0  0
   -2.2313    0.6456   12.3518 C   0  0  0  0  0  0  0  0  0  0  0  0
   -5.3467   -3.2534   13.5756 H   0  0  0  0  0  0  0  0  0  0  0  0
   -3.9673   -2.5542   12.6618 H   0  0  0  0  0  0  0  0  0  0  0  0
   -3.7532   -4.0824   13.5813 H   0  0  0  0  0  0  0  0  0  0  0  0
   -2.1987   -3.6662   16.2539 H   0  0  0  0  0  0  0  0  0  0  0  0
    0.2026   -3.2097   16.4887 H   0  0  0  0  0  0  0  0  0  0  0  0
    1.2543    0.3438   13.3472 H   0  0  0  0  0  0  0  0  0  0  0  0
    5.1530    1.9333   13.2492 H   0  0  0  0  0  0  0  0  0  0  0  0
    6.8398    0.8742   15.3039 H   0  0  0  0  0  0  0  0  0  0  0  0
    6.2538   -0.7636   17.3454 H   0  0  0  0  0  0  0  0  0  0  0  0
    4.5861    2.3639   11.2429 H   0  0  0  0  0  0  0  0  0  0  0  0
    3.8608    3.8171    9.3826 H   0  0  0  0  0  0  0  0  0  0  0  0
    1.3620    5.0994    8.2401 H   0  0  0  0  0  0  0  0  0  0  0  0
    0.6738    1.6202   12.0082 H   0  0  0  0  0  0  0  0  0  0  0  0
    1.0377    3.0769   12.9942 H   0  0  0  0  0  0  0  0  0  0  0  0
   -0.0962   -0.0330   13.6095 H   0  0  0  0  0  0  0  0  0  0  0  0
   -3.0495    1.0924   11.7679 H   0  0  0  0  0  0  0  0  0  0  0  0
   -1.7436    1.4252   12.9555 H   0  0  0  0  0  0  0  0  0  0  0  0
   -1.4954    0.1973   11.6681 H   0  0  0  0  0  0  0  0  0  0  0  0
  1  2  1  0  0  0  0
  2  3  1  0  0  0  0
  3  4  2  0  0  0  0
  3 27  1  0  0  0  0
  4  5  1  0  0  0  0
  5  6  2  0  0  0  0
  6  7  1  0  0  0  0
  6 26  1  0  0  0  0
  7  8  2  0  0  0  0
  8  9  1  0  0  0  0
  8 16  1  0  0  0  0
  9 10  1  0  0  0  0
 10 11  2  0  0  0  0
 10 17  1  0  0  0  0
 11 12  1  0  0  0  0
 12 13  1  0  0  0  0
 12 16  1  0  0  0  0
 13 14  2  0  0  0  0
 14 15  1  0  0  0  0
 15 16  2  0  0  0  0
 17 18  2  0  0  0  0
 17 25  1  0  0  0  0
 18 19  1  0  0  0  0
 19 20  2  0  0  0  0
 20 21  1  0  0  0  0
 20 24  1  0  0  0  0
 21 22  2  0  0  0  0
 22 23  1  0  0  0  0
 23 24  2  0  0  0  0
 24 25  1  0  0  0  0
 26 27  2  0  0  0  0
 27 28  1  0  0  0  0
 28 29  1  0  0  0  0
  1 30  1  0  0  0  0
  1 31  1  0  0  0  0
  1 32  1  0  0  0  0
  4 33  1  0  0  0  0
  5 34  1  0  0  0  0
  9 35  1  0  0  0  0
 11 36  1  0  0  0  0
 13 37  1  0  0  0  0
 14 38  1  0  0  0  0
 18 39  1  0  0  0  0
 19 40  1  0  0  0  0
 21 41  1  0  0  0  0
 25 42  1  0  0  0  0
 25 43  1  0  0  0  0
 26 44  1  0  0  0  0
 29 45  1  0  0  0  0
 29 46  1  0  0  0  0
 29 47  1  0  0  0  0
M  END
> <IC50[nM]>
3.8

$$$$
CHEMBL3265017
  -OEChem-05192314333D
 Structure written by MMmdl.
 47 51  0     1  0  0  0  0  0999 V2000
   -4.2568   -3.1045   13.5692 C   0  0  0  0  0  0  0  0  0  0  0  0
   -3.8735   -2.3609   14.7157 O   0  0  0  0  0  0  0  0  0  0  0  0
   -2.5254   -2.1112   14.8167 C   0  0  0  0  0  0  0  0  0  0  0  0
   -1.7461   -2.8700   15.6816 C   0  0  0  0  0  0  0  0  0  0  0  0
   -0.3903   -2.6103   15.8137 C   0  0  0  0  0  0  0  0  0  0  0  0
    0.2206   -1.5848   15.0868 C   0  0  0  0  0  0  0  0  0  0  0  0
    1.6038   -1.3598   15.3228 N   0  0  0  0  0  0  0  0  0  0  0  0
    2.5359   -0.4458   14.7609 C   0  0  0  0  0  0  0  0  0  0  0  0
    2.1794    0.3745   13.7258 N   0  0  0  0  0  0  0  0  0  0  0  0
    3.1126    1.2387   13.2174 C   0  0  0  0  0  0  0  0  0  0  0  0
    4.4180    1.2838   13.7013 C   0  0  0  0  0  0  0  0  0  0  0  0
    4.7460    0.4885   14.7593 N   0  0  0  0  0  0  0  0  0  0  0  0
    5.8978    0.3783   15.4862 C   0  0  0  0  0  0  0  0  0  0  0  0
    5.5892   -0.5252   16.5282 C   0  0  0  0  0  0  0  0  0  0  0  0
    4.3768   -1.0429   16.3726 N   0  0  0  0  0  0  0  0  0  0  0  0
    3.8366   -0.3928   15.3256 C   0  0  0  0  0  0  0  0  0  0  0  0
    2.6368    2.1616   12.1201 C   0  0  3  0  0  0  0  0  0  0  0  0
    3.5454    2.6408   11.1618 C   0  0  0  0  0  0  0  0  0  0  0  0
    3.1453    3.4625   10.1097 C   0  0  0  0  0  0  0  0  0  0  0  0
    1.7994    3.8163   10.0176 C   0  0  0  0  0  0  0  0  0  0  0  0
    0.9914    4.5941    9.1197 C   0  0  0  0  0  0  0  0  0  0  0  0
   -0.2494    4.6053    9.5133 N   0  0  0  0  0  0  0  0  0  0  0  0
   -0.3372    3.8935   10.6271 N   0  0  0  0  0  0  0  0  0  0  0  0
    0.8851    3.3607   10.9950 C   0  0  0  0  0  0  0  0  0  0  0  0
    1.2726    2.5413   12.0626 C   0  0  0  0  0  0  0  0  0  0  0  0
   -0.5549   -0.8187   14.1915 C   0  0  0  0  0  0  0  0  0  0  0  0
   -1.9439   -1.0882   14.0610 C   0  0  0  0  0  0  0  0  0  0  0  0
   -2.7521   -0.3548   13.2056 O   0  0  0  0  0  0  0  0  0  0  0  0
   -2.2313    0.6456   12.3518 C   0  0  0  0  0  0  0  0  0  0  0  0
   -5.3467   -3.2534   13.5756 H   0  0  0  0  0  0  0  0  0  0  0  0
   -3.9673   -2.5542   12.6618 H   0  0  0  0  0  0  0  0  0  0  0  0
   -3.7532   -4.0824   13.5813 H   0  0  0  0  0  0  0  0  0  0  0  0
   -2.1987   -3.6662   16.2539 H   0  0  0  0  0  0  0  0  0  0  0  0
    0.2026   -3.2097   16.4887 H   0  0  0  0  0  0  0  0  0  0  0  0
    1.2543    0.3438   13.3472 H   0  0  0  0  0  0  0  0  0  0  0  0
    5.1530    1.9333   13.2492 H   0  0  0  0  0  0  0  0  0  0  0  0
    6.8398    0.8742   15.3039 H   0  0  0  0  0  0  0  0  0  0  0  0
    6.2538   -0.7636   17.3454 H   0  0  0  0  0  0  0  0  0  0  0  0
    2.4218    1.2920   11.4817 H   0  0  0  0  0  0  0  0  0  0  0  0
    4.5861    2.3639   11.2429 H   0  0  0  0  0  0  0  0  0  0  0  0
    3.8608    3.8171    9.3826 H   0  0  0  0  0  0  0  0  0  0  0  0
    1.3620    5.0994    8.2401 H   0  0  0  0  0  0  0  0  0  0  0  0
    0.5637    2.2135   12.8085 H   0  0  0  0  0  0  0  0  0  0  0  0
   -0.0962   -0.0330   13.6095 H   0  0  0  0  0  0  0  0  0  0  0  0
   -3.0495    1.0924   11.7679 H   0  0  0  0  0  0  0  0  0  0  0  0
   -1.7436    1.4252   12.9555 H   0  0  0  0  0  0  0  0  0  0  0  0
   -1.4954    0.1973   11.6681 H   0  0  0  0  0  0  0  0  0  0  0  0
  1  2  1  0  0  0  0
  2  3  1  0  0  0  0
  3  4  2  0  0  0  0
  3 27  1  0  0  0  0
  4  5  1  0  0  0  0
  5  6  2  0  0  0  0
  6  7  1  0  0  0  0
  6 26  1  0  0  0  0
  7  8  2  0  0  0  0
  8  9  1  0  0  0  0
  8 16  1  0  0  0  0
  9 10  1  0  0  0  0
 10 11  2  0  0  0  0
 10 17  1  0  0  0  0
 11 12  1  0  0  0  0
 12 13  1  0  0  0  0
 12 16  1  0  0  0  0
 13 14  2  0  0  0  0
 14 15  1  0  0  0  0
 15 16  2  0  0  0  0
 17 18  1  0  0  0  0
 17 25  1  0  0  0  0
 18 19  2  0  0  0  0
 19 20  1  0  0  0  0
 20 21  2  0  0  0  0
 20 24  1  0  0  0  0
 21 22  1  0  0  0  0
 22 23  2  0  0  0  0
 23 24  1  0  0  0  0
 24 25  2  0  0  0  0
 26 27  2  0  0  0  0
 27 28  1  0  0  0  0
 28 29  1  0  0  0  0
  1 30  1  0  0  0  0
  1 31  1  0  0  0  0
  1 32  1  0  0  0  0
  4 33  1  0  0  0  0
  5 34  1  0  0  0  0
  9 35  1  0  0  0  0
 11 36  1  0  0  0  0
 13 37  1  0  0  0  0
 14 38  1  0  0  0  0
 17 39  1  0  0  0  0
 18 40  1  0  0  0  0
 19 41  1  0  0  0  0
 21 42  1  0  0  0  0
 25 43  1  0  0  0  0
 26 44  1  0  0  0  0
 29 45  1  0  0  0  0
 29 46  1  0  0  0  0
 29 47  1  0  0  0  0
M  END
> <IC50[nM]>
3.8

$$$$
CHEMBL3265017
  -OEChem-05192314333D
 Structure written by MMmdl.
 47 51  0     1  0  0  0  0  0999 V2000
   -4.2568   -3.1045   13.5692 C   0  0  0  0  0  0  0  0  0  0  0  0
   -3.8735   -2.3609   14.7157 O   0  0  0  0  0  0  0  0  0  0  0  0
   -2.5254   -2.1112   14.8167 C   0  0  0  0  0  0  0  0  0  0  0  0
   -1.7461   -2.8700   15.6816 C   0  0  0  0  0  0  0  0  0  0  0  0
   -0.3903   -2.6103   15.8137 C   0  0  0  0  0  0  0  0  0  0  0  0
    0.2206   -1.5848   15.0868 C   0  0  0  0  0  0  0  0  0  0  0  0
    1.6038   -1.3598   15.3228 N   0  0  0  0  0  0  0  0  0  0  0  0
    2.5359   -0.4458   14.7609 C   0  0  0  0  0  0  0  0  0  0  0  0
    2.1794    0.3745   13.7258 N   0  0  0  0  0  0  0  0  0  0  0  0
    3.1126    1.2387   13.2174 C   0  0  0  0  0  0  0  0  0  0  0  0
    4.4180    1.2838   13.7013 C   0  0  0  0  0  0  0  0  0  0  0  0
    4.7460    0.4885   14.7593 N   0  0  0  0  0  0  0  0  0  0  0  0
    5.8978    0.3783   15.4862 C   0  0  0  0  0  0  0  0  0  0  0  0
    5.5892   -0.5252   16.5282 C   0  0  0  0  0  0  0  0  0  0  0  0
    4.3768   -1.0429   16.3726 N   0  0  0  0  0  0  0  0  0  0  0  0
    3.8366   -0.3928   15.3256 C   0  0  0  0  0  0  0  0  0  0  0  0
    2.6368    2.1616   12.1201 C   0  0  0  0  0  0  0  0  0  0  0  0
    3.5454    2.6408   11.1618 C   0  0  0  0  0  0  0  0  0  0  0  0
    3.1453    3.4625   10.1097 C   0  0  0  0  0  0  0  0  0  0  0  0
    1.7994    3.8163   10.0176 C   0  0  0  0  0  0  0  0  0  0  0  0
    0.9914    4.5941    9.1197 C   0  0  0  0  0  0  0  0  0  0  0  0
   -0.2494    4.6053    9.5133 N   0  0  0  0  0  0  0  0  0  0  0  0
   -0.3372    3.8935   10.6271 N   0  0  0  0  0  0  0  0  0  0  0  0
    0.8851    3.3607   10.9950 C   0  0  3  0  0  0  0  0  0  0  0  0
    1.2726    2.5413   12.0626 C   0  0  0  0  0  0  0  0  0  0  0  0
   -0.5549   -0.8187   14.1915 C   0  0  0  0  0  0  0  0  0  0  0  0
   -1.9439   -1.0882   14.0610 C   0  0  0  0  0  0  0  0  0  0  0  0
   -2.7521   -0.3548   13.2056 O   0  0  0  0  0  0  0  0  0  0  0  0
   -2.2313    0.6456   12.3518 C   0  0  0  0  0  0  0  0  0  0  0  0
   -5.3467   -3.2534   13.5756 H   0  0  0  0  0  0  0  0  0  0  0  0
   -3.9673   -2.5542   12.6618 H   0  0  0  0  0  0  0  0  0  0  0  0
   -3.7532   -4.0824   13.5813 H   0  0  0  0  0  0  0  0  0  0  0  0
   -2.1987   -3.6662   16.2539 H   0  0  0  0  0  0  0  0  0  0  0  0
    0.2026   -3.2097   16.4887 H   0  0  0  0  0  0  0  0  0  0  0  0
    1.2543    0.3438   13.3472 H   0  0  0  0  0  0  0  0  0  0  0  0
    5.1530    1.9333   13.2492 H   0  0  0  0  0  0  0  0  0  0  0  0
    6.8398    0.8742   15.3039 H   0  0  0  0  0  0  0  0  0  0  0  0
    6.2538   -0.7636   17.3454 H   0  0  0  0  0  0  0  0  0  0  0  0
    4.5861    2.3639   11.2429 H   0  0  0  0  0  0  0  0  0  0  0  0
    3.8608    3.8171    9.3826 H   0  0  0  0  0  0  0  0  0  0  0  0
    1.3620    5.0994    8.2401 H   0  0  0  0  0  0  0  0  0  0  0  0
    1.0912    4.2530   11.6044 H   0  0  0  0  0  0  0  0  0  0  0  0
    0.5637    2.2135   12.8085 H   0  0  0  0  0  0  0  0  0  0  0  0
   -0.0962   -0.0330   13.6095 H   0  0  0  0  0  0  0  0  0  0  0  0
   -3.0495    1.0924   11.7679 H   0  0  0  0  0  0  0  0  0  0  0  0
   -1.7436    1.4252   12.9555 H   0  0  0  0  0  0  0  0  0  0  0  0
   -1.4954    0.1973   11.6681 H   0  0  0  0  0  0  0  0  0  0  0  0
  1  2  1  0  0  0  0
  2  3  1  0  0  0  0
  3  4  2  0  0  0  0
  3 27  1  0  0  0  0
  4  5  1  0  0  0  0
  5  6  2  0  0  0  0
  6  7  1  0  0  0  0
  6 26  1  0  0  0  0
  7  8  2  0  0  0  0
  8  9  1  0  0  0  0
  8 16  1  0  0  0  0
  9 10  1  0  0  0  0
 10 11  2  0  0  0  0
 10 17  1  0  0  0  0
 11 12  1  0  0  0  0
 12 13  1  0  0  0  0
 12 16  1  0  0  0  0
 13 14  2  0  0  0  0
 14 15  1  0  0  0  0
 15 16  2  0  0  0  0
 17 18  1  0  0  0  0
 17 25  2  0  0  0  0
 18 19  2  0  0  0  0
 19 20  1  0  0  0  0
 20 21  2  0  0  0  0
 20 24  1  0  0  0  0
 21 22  1  0  0  0  0
 22 23  2  0  0  0  0
 23 24  1  0  0  0  0
 24 25  1  0  0  0  0
 26 27  2  0  0  0  0
 27 28  1  0  0  0  0
 28 29  1  0  0  0  0
  1 30  1  0  0  0  0
  1 31  1  0  0  0  0
  1 32  1  0  0  0  0
  4 33  1  0  0  0  0
  5 34  1  0  0  0  0
  9 35  1  0  0  0  0
 11 36  1  0  0  0  0
 13 37  1  0  0  0  0
 14 38  1  0  0  0  0
 18 39  1  0  0  0  0
 19 40  1  0  0  0  0
 21 41  1  0  0  0  0
 24 42  1  0  0  0  0
 25 43  1  0  0  0  0
 26 44  1  0  0  0  0
 29 45  1  0  0  0  0
 29 46  1  0  0  0  0
 29 47  1  0  0  0  0
M  END
> <IC50[nM]>
3.8

$$$$
CHEMBL3265017
  -OEChem-05192314333D
 Structure written by MMmdl.
 47 51  0     0  0  0  0  0  0999 V2000
   -4.2568   -3.1045   13.5692 C   0  0  0  0  0  0  0  0  0  0  0  0
   -3.8735   -2.3609   14.7157 O   0  0  0  0  0  0  0  0  0  0  0  0
   -2.5254   -2.1112   14.8167 C   0  0  0  0  0  0  0  0  0  0  0  0
   -1.7461   -2.8700   15.6816 C   0  0  0  0  0  0  0  0  0  0  0  0
   -0.3903   -2.6103   15.8137 C   0  0  0  0  0  0  0  0  0  0  0  0
    0.2206   -1.5848   15.0868 C   0  0  0  0  0  0  0  0  0  0  0  0
    1.6038   -1.3598   15.3228 N   0  0  0  0  0  0  0  0  0  0  0  0
    2.5359   -0.4458   14.7609 C   0  0  0  0  0  0  0  0  0  0  0  0
    2.1794    0.3745   13.7258 N   0  0  0  0  0  0  0  0  0  0  0  0
    3.1126    1.2387   13.2174 C   0  0  0  0  0  0  0  0  0  0  0  0
    4.4180    1.2838   13.7013 C   0  0  0  0  0  0  0  0  0  0  0  0
    4.7460    0.4885   14.7593 N   0  0  0  0  0  0  0  0  0  0  0  0
    5.8978    0.3783   15.4862 C   0  0  0  0  0  0  0  0  0  0  0  0
    5.5892   -0.5252   16.5282 C   0  0  0  0  0  0  0  0  0  0  0  0
    4.3768   -1.0429   16.3726 N   0  0  0  0  0  0  0  0  0  0  0  0
    3.8366   -0.3928   15.3256 C   0  0  0  0  0  0  0  0  0  0  0  0
    2.6368    2.1616   12.1201 C   0  0  0  0  0  0  0  0  0  0  0  0
    3.5454    2.6408   11.1618 C   0  0  0  0  0  0  0  0  0  0  0  0
    3.1453    3.4625   10.1097 C   0  0  0  0  0  0  0  0  0  0  0  0
    1.7994    3.8163   10.0176 C   0  0  0  0  0  0  0  0  0  0  0  0
    0.9914    4.5941    9.1197 C   0  0  0  0  0  0  0  0  0  0  0  0
   -0.2494    4.6053    9.5133 N   0  0  0  0  0  0  0  0  0  0  0  0
   -0.3372    3.8935   10.6271 N   0  0  0  0  0  0  0  0  0  0  0  0
    0.8851    3.3607   10.9950 C   0  0  0  0  0  0  0  0  0  0  0  0
    1.2726    2.5413   12.0626 C   0  0  0  0  0  0  0  0  0  0  0  0
   -0.5549   -0.8187   14.1915 C   0  0  0  0  0  0  0  0  0  0  0  0
   -1.9439   -1.0882   14.0610 C   0  0  0  0  0  0  0  0  0  0  0  0
   -2.7521   -0.3548   13.2056 O   0  0  0  0  0  0  0  0  0  0  0  0
   -2.2313    0.6456   12.3518 C   0  0  0  0  0  0  0  0  0  0  0  0
   -5.3467   -3.2534   13.5756 H   0  0  0  0  0  0  0  0  0  0  0  0
   -3.9673   -2.5542   12.6618 H   0  0  0  0  0  0  0  0  0  0  0  0
   -3.7532   -4.0824   13.5813 H   0  0  0  0  0  0  0  0  0  0  0  0
   -2.1987   -3.6662   16.2539 H   0  0  0  0  0  0  0  0  0  0  0  0
    0.2026   -3.2097   16.4887 H   0  0  0  0  0  0  0  0  0  0  0  0
    1.2543    0.3438   13.3472 H   0  0  0  0  0  0  0  0  0  0  0  0
    5.1530    1.9333   13.2492 H   0  0  0  0  0  0  0  0  0  0  0  0
    6.8398    0.8742   15.3039 H   0  0  0  0  0  0  0  0  0  0  0  0
    6.2538   -0.7636   17.3454 H   0  0  0  0  0  0  0  0  0  0  0  0
    4.5861    2.3639   11.2429 H   0  0  0  0  0  0  0  0  0  0  0  0
    3.7219    4.3959   10.1890 H   0  0  0  0  0  0  0  0  0  0  0  0
    3.4102    2.9461    9.1753 H   0  0  0  0  0  0  0  0  0  0  0  0
    1.3620    5.0994    8.2401 H   0  0  0  0  0  0  0  0  0  0  0  0
    0.5637    2.2135   12.8085 H   0  0  0  0  0  0  0  0  0  0  0  0
   -0.0962   -0.0330   13.6095 H   0  0  0  0  0  0  0  0  0  0  0  0
   -3.0495    1.0924   11.7679 H   0  0  0  0  0  0  0  0  0  0  0  0
   -1.7436    1.4252   12.9555 H   0  0  0  0  0  0  0  0  0  0  0  0
   -1.4954    0.1973   11.6681 H   0  0  0  0  0  0  0  0  0  0  0  0
  1  2  1  0  0  0  0
  2  3  1  0  0  0  0
  3  4  2  0  0  0  0
  3 27  1  0  0  0  0
  4  5  1  0  0  0  0
  5  6  2  0  0  0  0
  6  7  1  0  0  0  0
  6 26  1  0  0  0  0
  7  8  2  0  0  0  0
  8  9  1  0  0  0  0
  8 16  1  0  0  0  0
  9 10  1  0  0  0  0
 10 11  2  0  0  0  0
 10 17  1  0  0  0  0
 11 12  1  0  0  0  0
 12 13  1  0  0  0  0
 12 16  1  0  0  0  0
 13 14  2  0  0  0  0
 14 15  1  0  0  0  0
 15 16  2  0  0  0  0
 17 18  2  0  0  0  0
 17 25  1  0  0  0  0
 18 19  1  0  0  0  0
 19 20  1  0  0  0  0
 20 21  2  0  0  0  0
 20 24  1  0  0  0  0
 21 22  1  0  0  0  0
 22 23  2  0  0  0  0
 23 24  1  0  0  0  0
 24 25  2  0  0  0  0
 26 27  2  0  0  0  0
 27 28  1  0  0  0  0
 28 29  1  0  0  0  0
  1 30  1  0  0  0  0
  1 31  1  0  0  0  0
  1 32  1  0  0  0  0
  4 33  1  0  0  0  0
  5 34  1  0  0  0  0
  9 35  1  0  0  0  0
 11 36  1  0  0  0  0
 13 37  1  0  0  0  0
 14 38  1  0  0  0  0
 18 39  1  0  0  0  0
 19 40  1  0  0  0  0
 19 41  1  0  0  0  0
 21 42  1  0  0  0  0
 25 43  1  0  0  0  0
 26 44  1  0  0  0  0
 29 45  1  0  0  0  0
 29 46  1  0  0  0  0
 29 47  1  0  0  0  0
M  END
> <IC50[nM]>
3.8

$$$$
CHEMBL3265017
  -OEChem-05192314333D
 Structure written by MMmdl.
 47 51  0     1  0  0  0  0  0999 V2000
   -4.2568   -3.1045   13.5692 C   0  0  0  0  0  0  0  0  0  0  0  0
   -3.8735   -2.3609   14.7157 O   0  0  0  0  0  0  0  0  0  0  0  0
   -2.5254   -2.1112   14.8167 C   0  0  0  0  0  0  0  0  0  0  0  0
   -1.7461   -2.8700   15.6816 C   0  0  0  0  0  0  0  0  0  0  0  0
   -0.3903   -2.6103   15.8137 C   0  0  0  0  0  0  0  0  0  0  0  0
    0.2206   -1.5848   15.0868 C   0  0  0  0  0  0  0  0  0  0  0  0
    1.6038   -1.3598   15.3228 N   0  0  0  0  0  0  0  0  0  0  0  0
    2.5359   -0.4458   14.7609 C   0  0  0  0  0  0  0  0  0  0  0  0
    2.1794    0.3745   13.7258 N   0  0  0  0  0  0  0  0  0  0  0  0
    3.1126    1.2387   13.2174 C   0  0  0  0  0  0  0  0  0  0  0  0
    4.4180    1.2838   13.7013 C   0  0  0  0  0  0  0  0  0  0  0  0
    4.7460    0.4885   14.7593 N   0  0  0  0  0  0  0  0  0  0  0  0
    5.8978    0.3783   15.4862 C   0  0  0  0  0  0  0  0  0  0  0  0
    5.5892   -0.5252   16.5282 C   0  0  0  0  0  0  0  0  0  0  0  0
    4.3768   -1.0429   16.3726 N   0  0  0  0  0  0  0  0  0  0  0  0
    3.8366   -0.3928   15.3256 C   0  0  0  0  0  0  0  0  0  0  0  0
    2.6368    2.1616   12.1201 C   0  0  0  0  0  0  0  0  0  0  0  0
    3.5454    2.6408   11.1618 C   0  0  0  0  0  0  0  0  0  0  0  0
    3.1453    3.4625   10.1097 C   0  0  0  0  0  0  0  0  0  0  0  0
    1.7994    3.8163   10.0176 C   0  0  3  0  0  0  0  0  0  0  0  0
    0.9914    4.5941    9.1197 C   0  0  0  0  0  0  0  0  0  0  0  0
   -0.2494    4.6053    9.5133 N   0  0  0  0  0  0  0  0  0  0  0  0
   -0.3372    3.8935   10.6271 N   0  0  0  0  0  0  0  0  0  0  0  0
    0.8851    3.3607   10.9950 C   0  0  0  0  0  0  0  0  0  0  0  0
    1.2726    2.5413   12.0626 C   0  0  0  0  0  0  0  0  0  0  0  0
   -0.5549   -0.8187   14.1915 C   0  0  0  0  0  0  0  0  0  0  0  0
   -1.9439   -1.0882   14.0610 C   0  0  0  0  0  0  0  0  0  0  0  0
   -2.7521   -0.3548   13.2056 O   0  0  0  0  0  0  0  0  0  0  0  0
   -2.2313    0.6456   12.3518 C   0  0  0  0  0  0  0  0  0  0  0  0
   -5.3467   -3.2534   13.5756 H   0  0  0  0  0  0  0  0  0  0  0  0
   -3.9673   -2.5542   12.6618 H   0  0  0  0  0  0  0  0  0  0  0  0
   -3.7532   -4.0824   13.5813 H   0  0  0  0  0  0  0  0  0  0  0  0
   -2.1987   -3.6662   16.2539 H   0  0  0  0  0  0  0  0  0  0  0  0
    0.2026   -3.2097   16.4887 H   0  0  0  0  0  0  0  0  0  0  0  0
    5.0828    1.0085   12.8693 H   0  0  0  0  0  0  0  0  0  0  0  0
    4.6176    2.3230   14.0016 H   0  0  0  0  0  0  0  0  0  0  0  0
    6.8398    0.8742   15.3039 H   0  0  0  0  0  0  0  0  0  0  0  0
    6.2538   -0.7636   17.3454 H   0  0  0  0  0  0  0  0  0  0  0  0
    4.5861    2.3639   11.2429 H   0  0  0  0  0  0  0  0  0  0  0  0
    3.8608    3.8171    9.3826 H   0  0  0  0  0  0  0  0  0  0  0  0
    1.6039    2.9170    9.4151 H   0  0  0  0  0  0  0  0  0  0  0  0
    1.3620    5.0994    8.2401 H   0  0  0  0  0  0  0  0  0  0  0  0
    0.5637    2.2135   12.8085 H   0  0  0  0  0  0  0  0  0  0  0  0
   -0.0962   -0.0330   13.6095 H   0  0  0  0  0  0  0  0  0  0  0  0
   -3.0495    1.0924   11.7679 H   0  0  0  0  0  0  0  0  0  0  0  0
   -1.7436    1.4252   12.9555 H   0  0  0  0  0  0  0  0  0  0  0  0
   -1.4954    0.1973   11.6681 H   0  0  0  0  0  0  0  0  0  0  0  0
  1  2  1  0  0  0  0
  2  3  1  0  0  0  0
  3  4  2  0  0  0  0
  3 27  1  0  0  0  0
  4  5  1  0  0  0  0
  5  6  2  0  0  0  0
  6  7  1  0  0  0  0
  6 26  1  0  0  0  0
  7  8  2  0  0  0  0
  8  9  1  0  0  0  0
  8 16  1  0  0  0  0
  9 10  2  0  0  0  0
 10 11  1  0  0  0  0
 10 17  1  0  0  0  0
 11 12  1  0  0  0  0
 12 13  1  0  0  0  0
 12 16  1  0  0  0  0
 13 14  2  0  0  0  0
 14 15  1  0  0  0  0
 15 16  2  0  0  0  0
 17 18  1  0  0  0  0
 17 25  2  0  0  0  0
 18 19  2  0  0  0  0
 19 20  1  0  0  0  0
 20 21  1  0  0  0  0
 20 24  1  0  0  0  0
 21 22  2  0  0  0  0
 22 23  1  0  0  0  0
 23 24  2  0  0  0  0
 24 25  1  0  0  0  0
 26 27  2  0  0  0  0
 27 28  1  0  0  0  0
 28 29  1  0  0  0  0
  1 30  1  0  0  0  0
  1 31  1  0  0  0  0
  1 32  1  0  0  0  0
  4 33  1  0  0  0  0
  5 34  1  0  0  0  0
 11 35  1  0  0  0  0
 11 36  1  0  0  0  0
 13 37  1  0  0  0  0
 14 38  1  0  0  0  0
 18 39  1  0  0  0  0
 19 40  1  0  0  0  0
 20 41  1  0  0  0  0
 21 42  1  0  0  0  0
 25 43  1  0  0  0  0
 26 44  1  0  0  0  0
 29 45  1  0  0  0  0
 29 46  1  0  0  0  0
 29 47  1  0  0  0  0
M  END
> <IC50[nM]>
3.8

$$$$
CHEMBL3265017
  -OEChem-05192314333D
 Structure written by MMmdl.
 47 51  0     0  0  0  0  0  0999 V2000
   -4.2568   -3.1045   13.5692 C   0  0  0  0  0  0  0  0  0  0  0  0
   -3.8735   -2.3609   14.7157 O   0  0  0  0  0  0  0  0  0  0  0  0
   -2.5254   -2.1112   14.8167 C   0  0  0  0  0  0  0  0  0  0  0  0
   -1.7461   -2.8700   15.6816 C   0  0  0  0  0  0  0  0  0  0  0  0
   -0.3903   -2.6103   15.8137 C   0  0  0  0  0  0  0  0  0  0  0  0
    0.2206   -1.5848   15.0868 C   0  0  0  0  0  0  0  0  0  0  0  0
    1.6038   -1.3598   15.3228 N   0  0  0  0  0  0  0  0  0  0  0  0
    2.5359   -0.4458   14.7609 C   0  0  0  0  0  0  0  0  0  0  0  0
    2.1794    0.3745   13.7258 N   0  0  0  0  0  0  0  0  0  0  0  0
    3.1126    1.2387   13.2174 C   0  0  0  0  0  0  0  0  0  0  0  0
    4.4180    1.2838   13.7013 C   0  0  0  0  0  0  0  0  0  0  0  0
    4.7460    0.4885   14.7593 N   0  0  0  0  0  0  0  0  0  0  0  0
    5.8978    0.3783   15.4862 C   0  0  0  0  0  0  0  0  0  0  0  0
    5.5892   -0.5252   16.5282 C   0  0  0  0  0  0  0  0  0  0  0  0
    4.3768   -1.0429   16.3726 N   0  0  0  0  0  0  0  0  0  0  0  0
    3.8366   -0.3928   15.3256 C   0  0  0  0  0  0  0  0  0  0  0  0
    2.6368    2.1616   12.1201 C   0  0  0  0  0  0  0  0  0  0  0  0
    3.5454    2.6408   11.1618 C   0  0  0  0  0  0  0  0  0  0  0  0
    3.1453    3.4625   10.1097 C   0  0  0  0  0  0  0  0  0  0  0  0
    1.7994    3.8163   10.0176 C   0  0  0  0  0  0  0  0  0  0  0  0
    0.9914    4.5941    9.1197 C   0  0  0  0  0  0  0  0  0  0  0  0
   -0.2494    4.6053    9.5133 N   0  0  0  0  0  0  0  0  0  0  0  0
   -0.3372    3.8935   10.6271 N   0  0  0  0  0  0  0  0  0  0  0  0
    0.8851    3.3607   10.9950 C   0  0  0  0  0  0  0  0  0  0  0  0
    1.2726    2.5413   12.0626 C   0  0  0  0  0  0  0  0  0  0  0  0
   -0.5549   -0.8187   14.1915 C   0  0  0  0  0  0  0  0  0  0  0  0
   -1.9439   -1.0882   14.0610 C   0  0  0  0  0  0  0  0  0  0  0  0
   -2.7521   -0.3548   13.2056 O   0  0  0  0  0  0  0  0  0  0  0  0
   -2.2313    0.6456   12.3518 C   0  0  0  0  0  0  0  0  0  0  0  0
   -5.3467   -3.2534   13.5756 H   0  0  0  0  0  0  0  0  0  0  0  0
   -3.9673   -2.5542   12.6618 H   0  0  0  0  0  0  0  0  0  0  0  0
   -3.7532   -4.0824   13.5813 H   0  0  0  0  0  0  0  0  0  0  0  0
   -2.1987   -3.6662   16.2539 H   0  0  0  0  0  0  0  0  0  0  0  0
    0.2026   -3.2097   16.4887 H   0  0  0  0  0  0  0  0  0  0  0  0
    5.0828    1.0085   12.8693 H   0  0  0  0  0  0  0  0  0  0  0  0
    4.6176    2.3230   14.0016 H   0  0  0  0  0  0  0  0  0  0  0  0
    6.8398    0.8742   15.3039 H   0  0  0  0  0  0  0  0  0  0  0  0
    6.2538   -0.7636   17.3454 H   0  0  0  0  0  0  0  0  0  0  0  0
    4.3107    3.2027   11.7173 H   0  0  0  0  0  0  0  0  0  0  0  0
    4.0041    1.7532   10.7017 H   0  0  0  0  0  0  0  0  0  0  0  0
    3.8608    3.8171    9.3826 H   0  0  0  0  0  0  0  0  0  0  0  0
    1.3620    5.0994    8.2401 H   0  0  0  0  0  0  0  0  0  0  0  0
    0.5637    2.2135   12.8085 H   0  0  0  0  0  0  0  0  0  0  0  0
   -0.0962   -0.0330   13.6095 H   0  0  0  0  0  0  0  0  0  0  0  0
   -3.0495    1.0924   11.7679 H   0  0  0  0  0  0  0  0  0  0  0  0
   -1.7436    1.4252   12.9555 H   0  0  0  0  0  0  0  0  0  0  0  0
   -1.4954    0.1973   11.6681 H   0  0  0  0  0  0  0  0  0  0  0  0
  1  2  1  0  0  0  0
  2  3  1  0  0  0  0
  3  4  2  0  0  0  0
  3 27  1  0  0  0  0
  4  5  1  0  0  0  0
  5  6  2  0  0  0  0
  6  7  1  0  0  0  0
  6 26  1  0  0  0  0
  7  8  2  0  0  0  0
  8  9  1  0  0  0  0
  8 16  1  0  0  0  0
  9 10  2  0  0  0  0
 10 11  1  0  0  0  0
 10 17  1  0  0  0  0
 11 12  1  0  0  0  0
 12 13  1  0  0  0  0
 12 16  1  0  0  0  0
 13 14  2  0  0  0  0
 14 15  1  0  0  0  0
 15 16  2  0  0  0  0
 17 18  1  0  0  0  0
 17 25  2  0  0  0  0
 18 19  1  0  0  0  0
 19 20  2  0  0  0  0
 20 21  1  0  0  0  0
 20 24  1  0  0  0  0
 21 22  2  0  0  0  0
 22 23  1  0  0  0  0
 23 24  2  0  0  0  0
 24 25  1  0  0  0  0
 26 27  2  0  0  0  0
 27 28  1  0  0  0  0
 28 29  1  0  0  0  0
  1 30  1  0  0  0  0
  1 31  1  0  0  0  0
  1 32  1  0  0  0  0
  4 33  1  0  0  0  0
  5 34  1  0  0  0  0
 11 35  1  0  0  0  0
 11 36  1  0  0  0  0
 13 37  1  0  0  0  0
 14 38  1  0  0  0  0
 18 39  1  0  0  0  0
 18 40  1  0  0  0  0
 19 41  1  0  0  0  0
 21 42  1  0  0  0  0
 25 43  1  0  0  0  0
 26 44  1  0  0  0  0
 29 45  1  0  0  0  0
 29 46  1  0  0  0  0
 29 47  1  0  0  0  0
M  END
> <IC50[nM]>
3.8

$$$$
CHEMBL3265017
  -OEChem-05192314333D
 Structure written by MMmdl.
 47 51  0     0  0  0  0  0  0999 V2000
   -4.2568   -3.1045   13.5692 C   0  0  0  0  0  0  0  0  0  0  0  0
   -3.8735   -2.3609   14.7157 O   0  0  0  0  0  0  0  0  0  0  0  0
   -2.5254   -2.1112   14.8167 C   0  0  0  0  0  0  0  0  0  0  0  0
   -1.7461   -2.8700   15.6816 C   0  0  0  0  0  0  0  0  0  0  0  0
   -0.3903   -2.6103   15.8137 C   0  0  0  0  0  0  0  0  0  0  0  0
    0.2206   -1.5848   15.0868 C   0  0  0  0  0  0  0  0  0  0  0  0
    1.6038   -1.3598   15.3228 N   0  0  0  0  0  0  0  0  0  0  0  0
    2.5359   -0.4458   14.7609 C   0  0  0  0  0  0  0  0  0  0  0  0
    2.1794    0.3745   13.7258 N   0  0  0  0  0  0  0  0  0  0  0  0
    3.1126    1.2387   13.2174 C   0  0  0  0  0  0  0  0  0  0  0  0
    4.4180    1.2838   13.7013 C   0  0  0  0  0  0  0  0  0  0  0  0
    4.7460    0.4885   14.7593 N   0  0  0  0  0  0  0  0  0  0  0  0
    5.8978    0.3783   15.4862 C   0  0  0  0  0  0  0  0  0  0  0  0
    5.5892   -0.5252   16.5282 C   0  0  0  0  0  0  0  0  0  0  0  0
    4.3768   -1.0429   16.3726 N   0  0  0  0  0  0  0  0  0  0  0  0
    3.8366   -0.3928   15.3256 C   0  0  0  0  0  0  0  0  0  0  0  0
    2.6368    2.1616   12.1201 C   0  0  0  0  0  0  0  0  0  0  0  0
    3.5454    2.6408   11.1618 C   0  0  0  0  0  0  0  0  0  0  0  0
    3.1453    3.4625   10.1097 C   0  0  0  0  0  0  0  0  0  0  0  0
    1.7994    3.8163   10.0176 C   0  0  0  0  0  0  0  0  0  0  0  0
    0.9914    4.5941    9.1197 C   0  0  0  0  0  0  0  0  0  0  0  0
   -0.2494    4.6053    9.5133 N   0  0  0  0  0  0  0  0  0  0  0  0
   -0.3372    3.8935   10.6271 N   0  0  0  0  0  0  0  0  0  0  0  0
    0.8851    3.3607   10.9950 C   0  0  0  0  0  0  0  0  0  0  0  0
    1.2726    2.5413   12.0626 C   0  0  0  0  0  0  0  0  0  0  0  0
   -0.5549   -0.8187   14.1915 C   0  0  0  0  0  0  0  0  0  0  0  0
   -1.9439   -1.0882   14.0610 C   0  0  0  0  0  0  0  0  0  0  0  0
   -2.7521   -0.3548   13.2056 O   0  0  0  0  0  0  0  0  0  0  0  0
   -2.2313    0.6456   12.3518 C   0  0  0  0  0  0  0  0  0  0  0  0
   -5.3467   -3.2534   13.5756 H   0  0  0  0  0  0  0  0  0  0  0  0
   -3.9673   -2.5542   12.6618 H   0  0  0  0  0  0  0  0  0  0  0  0
   -3.7532   -4.0824   13.5813 H   0  0  0  0  0  0  0  0  0  0  0  0
   -2.1987   -3.6662   16.2539 H   0  0  0  0  0  0  0  0  0  0  0  0
    0.2026   -3.2097   16.4887 H   0  0  0  0  0  0  0  0  0  0  0  0
    5.0828    1.0085   12.8693 H   0  0  0  0  0  0  0  0  0  0  0  0
    4.6176    2.3230   14.0016 H   0  0  0  0  0  0  0  0  0  0  0  0
    6.8398    0.8742   15.3039 H   0  0  0  0  0  0  0  0  0  0  0  0
    6.2538   -0.7636   17.3454 H   0  0  0  0  0  0  0  0  0  0  0  0
    4.5861    2.3639   11.2429 H   0  0  0  0  0  0  0  0  0  0  0  0
    3.8608    3.8171    9.3826 H   0  0  0  0  0  0  0  0  0  0  0  0
    1.3620    5.0994    8.2401 H   0  0  0  0  0  0  0  0  0  0  0  0
    0.6738    1.6202   12.0082 H   0  0  0  0  0  0  0  0  0  0  0  0
    1.0377    3.0769   12.9942 H   0  0  0  0  0  0  0  0  0  0  0  0
   -0.0962   -0.0330   13.6095 H   0  0  0  0  0  0  0  0  0  0  0  0
   -3.0495    1.0924   11.7679 H   0  0  0  0  0  0  0  0  0  0  0  0
   -1.7436    1.4252   12.9555 H   0  0  0  0  0  0  0  0  0  0  0  0
   -1.4954    0.1973   11.6681 H   0  0  0  0  0  0  0  0  0  0  0  0
  1  2  1  0  0  0  0
  2  3  1  0  0  0  0
  3  4  2  0  0  0  0
  3 27  1  0  0  0  0
  4  5  1  0  0  0  0
  5  6  2  0  0  0  0
  6  7  1  0  0  0  0
  6 26  1  0  0  0  0
  7  8  2  0  0  0  0
  8  9  1  0  0  0  0
  8 16  1  0  0  0  0
  9 10  2  0  0  0  0
 10 11  1  0  0  0  0
 10 17  1  0  0  0  0
 11 12  1  0  0  0  0
 12 13  1  0  0  0  0
 12 16  1  0  0  0  0
 13 14  2  0  0  0  0
 14 15  1  0  0  0  0
 15 16  2  0  0  0  0
 17 18  2  0  0  0  0
 17 25  1  0  0  0  0
 18 19  1  0  0  0  0
 19 20  2  0  0  0  0
 20 21  1  0  0  0  0
 20 24  1  0  0  0  0
 21 22  2  0  0  0  0
 22 23  1  0  0  0  0
 23 24  2  0  0  0  0
 24 25  1  0  0  0  0
 26 27  2  0  0  0  0
 27 28  1  0  0  0  0
 28 29  1  0  0  0  0
  1 30  1  0  0  0  0
  1 31  1  0  0  0  0
  1 32  1  0  0  0  0
  4 33  1  0  0  0  0
  5 34  1  0  0  0  0
 11 35  1  0  0  0  0
 11 36  1  0  0  0  0
 13 37  1  0  0  0  0
 14 38  1  0  0  0  0
 18 39  1  0  0  0  0
 19 40  1  0  0  0  0
 21 41  1  0  0  0  0
 25 42  1  0  0  0  0
 25 43  1  0  0  0  0
 26 44  1  0  0  0  0
 29 45  1  0  0  0  0
 29 46  1  0  0  0  0
 29 47  1  0  0  0  0
M  END
> <IC50[nM]>
3.8

$$$$
CHEMBL3265017
  -OEChem-05192314333D
 Structure written by MMmdl.
 47 51  0     1  0  0  0  0  0999 V2000
   -4.2568   -3.1045   13.5692 C   0  0  0  0  0  0  0  0  0  0  0  0
   -3.8735   -2.3609   14.7157 O   0  0  0  0  0  0  0  0  0  0  0  0
   -2.5254   -2.1112   14.8167 C   0  0  0  0  0  0  0  0  0  0  0  0
   -1.7461   -2.8700   15.6816 C   0  0  0  0  0  0  0  0  0  0  0  0
   -0.3903   -2.6103   15.8137 C   0  0  0  0  0  0  0  0  0  0  0  0
    0.2206   -1.5848   15.0868 C   0  0  0  0  0  0  0  0  0  0  0  0
    1.6038   -1.3598   15.3228 N   0  0  0  0  0  0  0  0  0  0  0  0
    2.5359   -0.4458   14.7609 C   0  0  0  0  0  0  0  0  0  0  0  0
    2.1794    0.3745   13.7258 N   0  0  0  0  0  0  0  0  0  0  0  0
    3.1126    1.2387   13.2174 C   0  0  0  0  0  0  0  0  0  0  0  0
    4.4180    1.2838   13.7013 C   0  0  0  0  0  0  0  0  0  0  0  0
    4.7460    0.4885   14.7593 N   0  0  0  0  0  0  0  0  0  0  0  0
    5.8978    0.3783   15.4862 C   0  0  0  0  0  0  0  0  0  0  0  0
    5.5892   -0.5252   16.5282 C   0  0  0  0  0  0  0  0  0  0  0  0
    4.3768   -1.0429   16.3726 N   0  0  0  0  0  0  0  0  0  0  0  0
    3.8366   -0.3928   15.3256 C   0  0  0  0  0  0  0  0  0  0  0  0
    2.6368    2.1616   12.1201 C   0  0  3  0  0  0  0  0  0  0  0  0
    3.5454    2.6408   11.1618 C   0  0  0  0  0  0  0  0  0  0  0  0
    3.1453    3.4625   10.1097 C   0  0  0  0  0  0  0  0  0  0  0  0
    1.7994    3.8163   10.0176 C   0  0  0  0  0  0  0  0  0  0  0  0
    0.9914    4.5941    9.1197 C   0  0  0  0  0  0  0  0  0  0  0  0
   -0.2494    4.6053    9.5133 N   0  0  0  0  0  0  0  0  0  0  0  0
   -0.3372    3.8935   10.6271 N   0  0  0  0  0  0  0  0  0  0  0  0
    0.8851    3.3607   10.9950 C   0  0  0  0  0  0  0  0  0  0  0  0
    1.2726    2.5413   12.0626 C   0  0  0  0  0  0  0  0  0  0  0  0
   -0.5549   -0.8187   14.1915 C   0  0  0  0  0  0  0  0  0  0  0  0
   -1.9439   -1.0882   14.0610 C   0  0  0  0  0  0  0  0  0  0  0  0
   -2.7521   -0.3548   13.2056 O   0  0  0  0  0  0  0  0  0  0  0  0
   -2.2313    0.6456   12.3518 C   0  0  0  0  0  0  0  0  0  0  0  0
   -5.3467   -3.2534   13.5756 H   0  0  0  0  0  0  0  0  0  0  0  0
   -3.9673   -2.5542   12.6618 H   0  0  0  0  0  0  0  0  0  0  0  0
   -3.7532   -4.0824   13.5813 H   0  0  0  0  0  0  0  0  0  0  0  0
   -2.1987   -3.6662   16.2539 H   0  0  0  0  0  0  0  0  0  0  0  0
    0.2026   -3.2097   16.4887 H   0  0  0  0  0  0  0  0  0  0  0  0
    5.0828    1.0085   12.8693 H   0  0  0  0  0  0  0  0  0  0  0  0
    4.6176    2.3230   14.0016 H   0  0  0  0  0  0  0  0  0  0  0  0
    6.8398    0.8742   15.3039 H   0  0  0  0  0  0  0  0  0  0  0  0
    6.2538   -0.7636   17.3454 H   0  0  0  0  0  0  0  0  0  0  0  0
    2.4218    1.2920   11.4817 H   0  0  0  0  0  0  0  0  0  0  0  0
    4.5861    2.3639   11.2429 H   0  0  0  0  0  0  0  0  0  0  0  0
    3.8608    3.8171    9.3826 H   0  0  0  0  0  0  0  0  0  0  0  0
    1.3620    5.0994    8.2401 H   0  0  0  0  0  0  0  0  0  0  0  0
    0.5637    2.2135   12.8085 H   0  0  0  0  0  0  0  0  0  0  0  0
   -0.0962   -0.0330   13.6095 H   0  0  0  0  0  0  0  0  0  0  0  0
   -3.0495    1.0924   11.7679 H   0  0  0  0  0  0  0  0  0  0  0  0
   -1.7436    1.4252   12.9555 H   0  0  0  0  0  0  0  0  0  0  0  0
   -1.4954    0.1973   11.6681 H   0  0  0  0  0  0  0  0  0  0  0  0
  1  2  1  0  0  0  0
  2  3  1  0  0  0  0
  3  4  2  0  0  0  0
  3 27  1  0  0  0  0
  4  5  1  0  0  0  0
  5  6  2  0  0  0  0
  6  7  1  0  0  0  0
  6 26  1  0  0  0  0
  7  8  2  0  0  0  0
  8  9  1  0  0  0  0
  8 16  1  0  0  0  0
  9 10  2  0  0  0  0
 10 11  1  0  0  0  0
 10 17  1  0  0  0  0
 11 12  1  0  0  0  0
 12 13  1  0  0  0  0
 12 16  1  0  0  0  0
 13 14  2  0  0  0  0
 14 15  1  0  0  0  0
 15 16  2  0  0  0  0
 17 18  1  0  0  0  0
 17 25  1  0  0  0  0
 18 19  2  0  0  0  0
 19 20  1  0  0  0  0
 20 21  2  0  0  0  0
 20 24  1  0  0  0  0
 21 22  1  0  0  0  0
 22 23  2  0  0  0  0
 23 24  1  0  0  0  0
 24 25  2  0  0  0  0
 26 27  2  0  0  0  0
 27 28  1  0  0  0  0
 28 29  1  0  0  0  0
  1 30  1  0  0  0  0
  1 31  1  0  0  0  0
  1 32  1  0  0  0  0
  4 33  1  0  0  0  0
  5 34  1  0  0  0  0
 11 35  1  0  0  0  0
 11 36  1  0  0  0  0
 13 37  1  0  0  0  0
 14 38  1  0  0  0  0
 17 39  1  0  0  0  0
 18 40  1  0  0  0  0
 19 41  1  0  0  0  0
 21 42  1  0  0  0  0
 25 43  1  0  0  0  0
 26 44  1  0  0  0  0
 29 45  1  0  0  0  0
 29 46  1  0  0  0  0
 29 47  1  0  0  0  0
M  END
> <IC50[nM]>
3.8

$$$$
CHEMBL3265017
  -OEChem-05192314333D
 Structure written by MMmdl.
 47 51  0     1  0  0  0  0  0999 V2000
   -4.2568   -3.1045   13.5692 C   0  0  0  0  0  0  0  0  0  0  0  0
   -3.8735   -2.3609   14.7157 O   0  0  0  0  0  0  0  0  0  0  0  0
   -2.5254   -2.1112   14.8167 C   0  0  0  0  0  0  0  0  0  0  0  0
   -1.7461   -2.8700   15.6816 C   0  0  0  0  0  0  0  0  0  0  0  0
   -0.3903   -2.6103   15.8137 C   0  0  0  0  0  0  0  0  0  0  0  0
    0.2206   -1.5848   15.0868 C   0  0  0  0  0  0  0  0  0  0  0  0
    1.6038   -1.3598   15.3228 N   0  0  0  0  0  0  0  0  0  0  0  0
    2.5359   -0.4458   14.7609 C   0  0  0  0  0  0  0  0  0  0  0  0
    2.1794    0.3745   13.7258 N   0  0  0  0  0  0  0  0  0  0  0  0
    3.1126    1.2387   13.2174 C   0  0  0  0  0  0  0  0  0  0  0  0
    4.4180    1.2838   13.7013 C   0  0  0  0  0  0  0  0  0  0  0  0
    4.7460    0.4885   14.7593 N   0  0  0  0  0  0  0  0  0  0  0  0
    5.8978    0.3783   15.4862 C   0  0  0  0  0  0  0  0  0  0  0  0
    5.5892   -0.5252   16.5282 C   0  0  0  0  0  0  0  0  0  0  0  0
    4.3768   -1.0429   16.3726 N   0  0  0  0  0  0  0  0  0  0  0  0
    3.8366   -0.3928   15.3256 C   0  0  0  0  0  0  0  0  0  0  0  0
    2.6368    2.1616   12.1201 C   0  0  0  0  0  0  0  0  0  0  0  0
    3.5454    2.6408   11.1618 C   0  0  0  0  0  0  0  0  0  0  0  0
    3.1453    3.4625   10.1097 C   0  0  0  0  0  0  0  0  0  0  0  0
    1.7994    3.8163   10.0176 C   0  0  0  0  0  0  0  0  0  0  0  0
    0.9914    4.5941    9.1197 C   0  0  0  0  0  0  0  0  0  0  0  0
   -0.2494    4.6053    9.5133 N   0  0  0  0  0  0  0  0  0  0  0  0
   -0.3372    3.8935   10.6271 N   0  0  0  0  0  0  0  0  0  0  0  0
    0.8851    3.3607   10.9950 C   0  0  3  0  0  0  0  0  0  0  0  0
    1.2726    2.5413   12.0626 C   0  0  0  0  0  0  0  0  0  0  0  0
   -0.5549   -0.8187   14.1915 C   0  0  0  0  0  0  0  0  0  0  0  0
   -1.9439   -1.0882   14.0610 C   0  0  0  0  0  0  0  0  0  0  0  0
   -2.7521   -0.3548   13.2056 O   0  0  0  0  0  0  0  0  0  0  0  0
   -2.2313    0.6456   12.3518 C   0  0  0  0  0  0  0  0  0  0  0  0
   -5.3467   -3.2534   13.5756 H   0  0  0  0  0  0  0  0  0  0  0  0
   -3.9673   -2.5542   12.6618 H   0  0  0  0  0  0  0  0  0  0  0  0
   -3.7532   -4.0824   13.5813 H   0  0  0  0  0  0  0  0  0  0  0  0
   -2.1987   -3.6662   16.2539 H   0  0  0  0  0  0  0  0  0  0  0  0
    0.2026   -3.2097   16.4887 H   0  0  0  0  0  0  0  0  0  0  0  0
    5.0828    1.0085   12.8693 H   0  0  0  0  0  0  0  0  0  0  0  0
    4.6176    2.3230   14.0016 H   0  0  0  0  0  0  0  0  0  0  0  0
    6.8398    0.8742   15.3039 H   0  0  0  0  0  0  0  0  0  0  0  0
    6.2538   -0.7636   17.3454 H   0  0  0  0  0  0  0  0  0  0  0  0
    4.5861    2.3639   11.2429 H   0  0  0  0  0  0  0  0  0  0  0  0
    3.8608    3.8171    9.3826 H   0  0  0  0  0  0  0  0  0  0  0  0
    1.3620    5.0994    8.2401 H   0  0  0  0  0  0  0  0  0  0  0  0
    1.0912    4.2530   11.6044 H   0  0  0  0  0  0  0  0  0  0  0  0
    0.5637    2.2135   12.8085 H   0  0  0  0  0  0  0  0  0  0  0  0
   -0.0962   -0.0330   13.6095 H   0  0  0  0  0  0  0  0  0  0  0  0
   -3.0495    1.0924   11.7679 H   0  0  0  0  0  0  0  0  0  0  0  0
   -1.7436    1.4252   12.9555 H   0  0  0  0  0  0  0  0  0  0  0  0
   -1.4954    0.1973   11.6681 H   0  0  0  0  0  0  0  0  0  0  0  0
  1  2  1  0  0  0  0
  2  3  1  0  0  0  0
  3  4  2  0  0  0  0
  3 27  1  0  0  0  0
  4  5  1  0  0  0  0
  5  6  2  0  0  0  0
  6  7  1  0  0  0  0
  6 26  1  0  0  0  0
  7  8  2  0  0  0  0
  8  9  1  0  0  0  0
  8 16  1  0  0  0  0
  9 10  2  0  0  0  0
 10 11  1  0  0  0  0
 10 17  1  0  0  0  0
 11 12  1  0  0  0  0
 12 13  1  0  0  0  0
 12 16  1  0  0  0  0
 13 14  2  0  0  0  0
 14 15  1  0  0  0  0
 15 16  2  0  0  0  0
 17 18  1  0  0  0  0
 17 25  2  0  0  0  0
 18 19  2  0  0  0  0
 19 20  1  0  0  0  0
 20 21  2  0  0  0  0
 20 24  1  0  0  0  0
 21 22  1  0  0  0  0
 22 23  2  0  0  0  0
 23 24  1  0  0  0  0
 24 25  1  0  0  0  0
 26 27  2  0  0  0  0
 27 28  1  0  0  0  0
 28 29  1  0  0  0  0
  1 30  1  0  0  0  0
  1 31  1  0  0  0  0
  1 32  1  0  0  0  0
  4 33  1  0  0  0  0
  5 34  1  0  0  0  0
 11 35  1  0  0  0  0
 11 36  1  0  0  0  0
 13 37  1  0  0  0  0
 14 38  1  0  0  0  0
 18 39  1  0  0  0  0
 19 40  1  0  0  0  0
 21 41  1  0  0  0  0
 24 42  1  0  0  0  0
 25 43  1  0  0  0  0
 26 44  1  0  0  0  0
 29 45  1  0  0  0  0
 29 46  1  0  0  0  0
 29 47  1  0  0  0  0
M  END
> <IC50[nM]>
3.8

$$$$
CHEMBL3265017
  -OEChem-05192314333D
 Structure written by MMmdl.
 47 51  0     0  0  0  0  0  0999 V2000
   -4.2568   -3.1045   13.5692 C   0  0  0  0  0  0  0  0  0  0  0  0
   -3.8735   -2.3609   14.7157 O   0  0  0  0  0  0  0  0  0  0  0  0
   -2.5254   -2.1112   14.8167 C   0  0  0  0  0  0  0  0  0  0  0  0
   -1.7461   -2.8700   15.6816 C   0  0  0  0  0  0  0  0  0  0  0  0
   -0.3903   -2.6103   15.8137 C   0  0  0  0  0  0  0  0  0  0  0  0
    0.2206   -1.5848   15.0868 C   0  0  0  0  0  0  0  0  0  0  0  0
    1.6038   -1.3598   15.3228 N   0  0  0  0  0  0  0  0  0  0  0  0
    2.5359   -0.4458   14.7609 C   0  0  0  0  0  0  0  0  0  0  0  0
    2.1794    0.3745   13.7258 N   0  0  0  0  0  0  0  0  0  0  0  0
    3.1126    1.2387   13.2174 C   0  0  0  0  0  0  0  0  0  0  0  0
    4.4180    1.2838   13.7013 C   0  0  0  0  0  0  0  0  0  0  0  0
    4.7460    0.4885   14.7593 N   0  0  0  0  0  0  0  0  0  0  0  0
    5.8978    0.3783   15.4862 C   0  0  0  0  0  0  0  0  0  0  0  0
    5.5892   -0.5252   16.5282 C   0  0  0  0  0  0  0  0  0  0  0  0
    4.3768   -1.0429   16.3726 N   0  0  0  0  0  0  0  0  0  0  0  0
    3.8366   -0.3928   15.3256 C   0  0  0  0  0  0  0  0  0  0  0  0
    2.6368    2.1616   12.1201 C   0  0  0  0  0  0  0  0  0  0  0  0
    3.5454    2.6408   11.1618 C   0  0  0  0  0  0  0  0  0  0  0  0
    3.1453    3.4625   10.1097 C   0  0  0  0  0  0  0  0  0  0  0  0
    1.7994    3.8163   10.0176 C   0  0  0  0  0  0  0  0  0  0  0  0
    0.9914    4.5941    9.1197 C   0  0  0  0  0  0  0  0  0  0  0  0
   -0.2494    4.6053    9.5133 N   0  0  0  0  0  0  0  0  0  0  0  0
   -0.3372    3.8935   10.6271 N   0  0  0  0  0  0  0  0  0  0  0  0
    0.8851    3.3607   10.9950 C   0  0  0  0  0  0  0  0  0  0  0  0
    1.2726    2.5413   12.0626 C   0  0  0  0  0  0  0  0  0  0  0  0
   -0.5549   -0.8187   14.1915 C   0  0  0  0  0  0  0  0  0  0  0  0
   -1.9439   -1.0882   14.0610 C   0  0  0  0  0  0  0  0  0  0  0  0
   -2.7521   -0.3548   13.2056 O   0  0  0  0  0  0  0  0  0  0  0  0
   -2.2313    0.6456   12.3518 C   0  0  0  0  0  0  0  0  0  0  0  0
   -5.3467   -3.2534   13.5756 H   0  0  0  0  0  0  0  0  0  0  0  0
   -3.9673   -2.5542   12.6618 H   0  0  0  0  0  0  0  0  0  0  0  0
   -3.7532   -4.0824   13.5813 H   0  0  0  0  0  0  0  0  0  0  0  0
   -2.1987   -3.6662   16.2539 H   0  0  0  0  0  0  0  0  0  0  0  0
    0.2026   -3.2097   16.4887 H   0  0  0  0  0  0  0  0  0  0  0  0
    5.0828    1.0085   12.8693 H   0  0  0  0  0  0  0  0  0  0  0  0
    4.6176    2.3230   14.0016 H   0  0  0  0  0  0  0  0  0  0  0  0
    6.8398    0.8742   15.3039 H   0  0  0  0  0  0  0  0  0  0  0  0
    6.2538   -0.7636   17.3454 H   0  0  0  0  0  0  0  0  0  0  0  0
    4.5861    2.3639   11.2429 H   0  0  0  0  0  0  0  0  0  0  0  0
    3.7219    4.3959   10.1890 H   0  0  0  0  0  0  0  0  0  0  0  0
    3.4102    2.9461    9.1753 H   0  0  0  0  0  0  0  0  0  0  0  0
    1.3620    5.0994    8.2401 H   0  0  0  0  0  0  0  0  0  0  0  0
    0.5637    2.2135   12.8085 H   0  0  0  0  0  0  0  0  0  0  0  0
   -0.0962   -0.0330   13.6095 H   0  0  0  0  0  0  0  0  0  0  0  0
   -3.0495    1.0924   11.7679 H   0  0  0  0  0  0  0  0  0  0  0  0
   -1.7436    1.4252   12.9555 H   0  0  0  0  0  0  0  0  0  0  0  0
   -1.4954    0.1973   11.6681 H   0  0  0  0  0  0  0  0  0  0  0  0
  1  2  1  0  0  0  0
  2  3  1  0  0  0  0
  3  4  2  0  0  0  0
  3 27  1  0  0  0  0
  4  5  1  0  0  0  0
  5  6  2  0  0  0  0
  6  7  1  0  0  0  0
  6 26  1  0  0  0  0
  7  8  2  0  0  0  0
  8  9  1  0  0  0  0
  8 16  1  0  0  0  0
  9 10  2  0  0  0  0
 10 11  1  0  0  0  0
 10 17  1  0  0  0  0
 11 12  1  0  0  0  0
 12 13  1  0  0  0  0
 12 16  1  0  0  0  0
 13 14  2  0  0  0  0
 14 15  1  0  0  0  0
 15 16  2  0  0  0  0
 17 18  2  0  0  0  0
 17 25  1  0  0  0  0
 18 19  1  0  0  0  0
 19 20  1  0  0  0  0
 20 21  2  0  0  0  0
 20 24  1  0  0  0  0
 21 22  1  0  0  0  0
 22 23  2  0  0  0  0
 23 24  1  0  0  0  0
 24 25  2  0  0  0  0
 26 27  2  0  0  0  0
 27 28  1  0  0  0  0
 28 29  1  0  0  0  0
  1 30  1  0  0  0  0
  1 31  1  0  0  0  0
  1 32  1  0  0  0  0
  4 33  1  0  0  0  0
  5 34  1  0  0  0  0
 11 35  1  0  0  0  0
 11 36  1  0  0  0  0
 13 37  1  0  0  0  0
 14 38  1  0  0  0  0
 18 39  1  0  0  0  0
 19 40  1  0  0  0  0
 19 41  1  0  0  0  0
 21 42  1  0  0  0  0
 25 43  1  0  0  0  0
 26 44  1  0  0  0  0
 29 45  1  0  0  0  0
 29 46  1  0  0  0  0
 29 47  1  0  0  0  0
M  END
> <IC50[nM]>
3.8

$$$$
CHEMBL3265017
  -OEChem-05192314333D
 Structure written by MMmdl.
 47 51  0     1  0  0  0  0  0999 V2000
   -4.2568   -3.1045   13.5692 C   0  0  0  0  0  0  0  0  0  0  0  0
   -3.8735   -2.3609   14.7157 O   0  0  0  0  0  0  0  0  0  0  0  0
   -2.5254   -2.1112   14.8167 C   0  0  3  0  0  0  0  0  0  0  0  0
   -1.7461   -2.8700   15.6816 C   0  0  0  0  0  0  0  0  0  0  0  0
   -0.3903   -2.6103   15.8137 C   0  0  0  0  0  0  0  0  0  0  0  0
    0.2206   -1.5848   15.0868 C   0  0  0  0  0  0  0  0  0  0  0  0
    1.6038   -1.3598   15.3228 N   0  0  0  0  0  0  0  0  0  0  0  0
    2.5359   -0.4458   14.7609 C   0  0  0  0  0  0  0  0  0  0  0  0
    2.1794    0.3745   13.7258 N   0  0  0  0  0  0  0  0  0  0  0  0
    3.1126    1.2387   13.2174 C   0  0  0  0  0  0  0  0  0  0  0  0
    4.4180    1.2838   13.7013 C   0  0  0  0  0  0  0  0  0  0  0  0
    4.7460    0.4885   14.7593 N   0  0  0  0  0  0  0  0  0  0  0  0
    5.8978    0.3783   15.4862 C   0  0  0  0  0  0  0  0  0  0  0  0
    5.5892   -0.5252   16.5282 C   0  0  0  0  0  0  0  0  0  0  0  0
    4.3768   -1.0429   16.3726 N   0  0  0  0  0  0  0  0  0  0  0  0
    3.8366   -0.3928   15.3256 C   0  0  0  0  0  0  0  0  0  0  0  0
    2.6368    2.1616   12.1201 C   0  0  0  0  0  0  0  0  0  0  0  0
    3.5454    2.6408   11.1618 C   0  0  0  0  0  0  0  0  0  0  0  0
    3.1453    3.4625   10.1097 C   0  0  0  0  0  0  0  0  0  0  0  0
    1.7994    3.8163   10.0176 C   0  0  0  0  0  0  0  0  0  0  0  0
    0.9914    4.5941    9.1197 C   0  0  0  0  0  0  0  0  0  0  0  0
   -0.2494    4.6053    9.5133 N   0  0  0  0  0  0  0  0  0  0  0  0
   -0.3372    3.8935   10.6271 N   0  0  0  0  0  0  0  0  0  0  0  0
    0.8851    3.3607   10.9950 C   0  0  0  0  0  0  0  0  0  0  0  0
    1.2726    2.5413   12.0626 C   0  0  0  0  0  0  0  0  0  0  0  0
   -0.5549   -0.8187   14.1915 C   0  0  0  0  0  0  0  0  0  0  0  0
   -1.9439   -1.0882   14.0610 C   0  0  0  0  0  0  0  0  0  0  0  0
   -2.7521   -0.3548   13.2056 O   0  0  0  0  0  0  0  0  0  0  0  0
   -2.2313    0.6456   12.3518 C   0  0  0  0  0  0  0  0  0  0  0  0
   -5.3467   -3.2534   13.5756 H   0  0  0  0  0  0  0  0  0  0  0  0
   -3.9673   -2.5542   12.6618 H   0  0  0  0  0  0  0  0  0  0  0  0
   -3.7532   -4.0824   13.5813 H   0  0  0  0  0  0  0  0  0  0  0  0
   -2.3284   -2.8273   14.0053 H   0  0  0  0  0  0  0  0  0  0  0  0
   -2.1987   -3.6662   16.2539 H   0  0  0  0  0  0  0  0  0  0  0  0
    0.2026   -3.2097   16.4887 H   0  0  0  0  0  0  0  0  0  0  0  0
    5.0828    1.0085   12.8693 H   0  0  0  0  0  0  0  0  0  0  0  0
    4.6176    2.3230   14.0016 H   0  0  0  0  0  0  0  0  0  0  0  0
    6.8398    0.8742   15.3039 H   0  0  0  0  0  0  0  0  0  0  0  0
    6.2538   -0.7636   17.3454 H   0  0  0  0  0  0  0  0  0  0  0  0
    4.5861    2.3639   11.2429 H   0  0  0  0  0  0  0  0  0  0  0  0
    3.8608    3.8171    9.3826 H   0  0  0  0  0  0  0  0  0  0  0  0
    1.3620    5.0994    8.2401 H   0  0  0  0  0  0  0  0  0  0  0  0
    0.5637    2.2135   12.8085 H   0  0  0  0  0  0  0  0  0  0  0  0
   -0.0962   -0.0330   13.6095 H   0  0  0  0  0  0  0  0  0  0  0  0
   -3.0495    1.0924   11.7679 H   0  0  0  0  0  0  0  0  0  0  0  0
   -1.7436    1.4252   12.9555 H   0  0  0  0  0  0  0  0  0  0  0  0
   -1.4954    0.1973   11.6681 H   0  0  0  0  0  0  0  0  0  0  0  0
  1  2  1  0  0  0  0
  2  3  1  0  0  0  0
  3  4  1  0  0  0  0
  3 27  1  0  0  0  0
  4  5  2  0  0  0  0
  5  6  1  0  0  0  0
  6  7  2  0  0  0  0
  6 26  1  0  0  0  0
  7  8  1  0  0  0  0
  8  9  2  0  0  0  0
  8 16  1  0  0  0  0
  9 10  1  0  0  0  0
 10 11  1  0  0  0  0
 10 17  2  0  0  0  0
 11 12  1  0  0  0  0
 12 13  1  0  0  0  0
 12 16  1  0  0  0  0
 13 14  2  0  0  0  0
 14 15  1  0  0  0  0
 15 16  2  0  0  0  0
 17 18  1  0  0  0  0
 17 25  1  0  0  0  0
 18 19  2  0  0  0  0
 19 20  1  0  0  0  0
 20 21  2  0  0  0  0
 20 24  1  0  0  0  0
 21 22  1  0  0  0  0
 22 23  2  0  0  0  0
 23 24  1  0  0  0  0
 24 25  2  0  0  0  0
 26 27  2  0  0  0  0
 27 28  1  0  0  0  0
 28 29  1  0  0  0  0
  1 30  1  0  0  0  0
  1 31  1  0  0  0  0
  1 32  1  0  0  0  0
  3 33  1  0  0  0  0
  4 34  1  0  0  0  0
  5 35  1  0  0  0  0
 11 36  1  0  0  0  0
 11 37  1  0  0  0  0
 13 38  1  0  0  0  0
 14 39  1  0  0  0  0
 18 40  1  0  0  0  0
 19 41  1  0  0  0  0
 21 42  1  0  0  0  0
 25 43  1  0  0  0  0
 26 44  1  0  0  0  0
 29 45  1  0  0  0  0
 29 46  1  0  0  0  0
 29 47  1  0  0  0  0
M  END
> <IC50[nM]>
3.8

$$$$
CHEMBL3265017
  -OEChem-05192314333D
 Structure written by MMmdl.
 47 51  0     0  0  0  0  0  0999 V2000
   -4.2568   -3.1045   13.5692 C   0  0  0  0  0  0  0  0  0  0  0  0
   -3.8735   -2.3609   14.7157 O   0  0  0  0  0  0  0  0  0  0  0  0
   -2.5254   -2.1112   14.8167 C   0  0  0  0  0  0  0  0  0  0  0  0
   -1.7461   -2.8700   15.6816 C   0  0  0  0  0  0  0  0  0  0  0  0
   -0.3903   -2.6103   15.8137 C   0  0  0  0  0  0  0  0  0  0  0  0
    0.2206   -1.5848   15.0868 C   0  0  0  0  0  0  0  0  0  0  0  0
    1.6038   -1.3598   15.3228 N   0  0  0  0  0  0  0  0  0  0  0  0
    2.5359   -0.4458   14.7609 C   0  0  0  0  0  0  0  0  0  0  0  0
    2.1794    0.3745   13.7258 N   0  0  0  0  0  0  0  0  0  0  0  0
    3.1126    1.2387   13.2174 C   0  0  0  0  0  0  0  0  0  0  0  0
    4.4180    1.2838   13.7013 C   0  0  0  0  0  0  0  0  0  0  0  0
    4.7460    0.4885   14.7593 N   0  0  0  0  0  0  0  0  0  0  0  0
    5.8978    0.3783   15.4862 C   0  0  0  0  0  0  0  0  0  0  0  0
    5.5892   -0.5252   16.5282 C   0  0  0  0  0  0  0  0  0  0  0  0
    4.3768   -1.0429   16.3726 N   0  0  0  0  0  0  0  0  0  0  0  0
    3.8366   -0.3928   15.3256 C   0  0  0  0  0  0  0  0  0  0  0  0
    2.6368    2.1616   12.1201 C   0  0  0  0  0  0  0  0  0  0  0  0
    3.5454    2.6408   11.1618 C   0  0  0  0  0  0  0  0  0  0  0  0
    3.1453    3.4625   10.1097 C   0  0  0  0  0  0  0  0  0  0  0  0
    1.7994    3.8163   10.0176 C   0  0  0  0  0  0  0  0  0  0  0  0
    0.9914    4.5941    9.1197 C   0  0  0  0  0  0  0  0  0  0  0  0
   -0.2494    4.6053    9.5133 N   0  0  0  0  0  0  0  0  0  0  0  0
   -0.3372    3.8935   10.6271 N   0  0  0  0  0  0  0  0  0  0  0  0
    0.8851    3.3607   10.9950 C   0  0  0  0  0  0  0  0  0  0  0  0
    1.2726    2.5413   12.0626 C   0  0  0  0  0  0  0  0  0  0  0  0
   -0.5549   -0.8187   14.1915 C   0  0  0  0  0  0  0  0  0  0  0  0
   -1.9439   -1.0882   14.0610 C   0  0  0  0  0  0  0  0  0  0  0  0
   -2.7521   -0.3548   13.2056 O   0  0  0  0  0  0  0  0  0  0  0  0
   -2.2313    0.6456   12.3518 C   0  0  0  0  0  0  0  0  0  0  0  0
   -5.3467   -3.2534   13.5756 H   0  0  0  0  0  0  0  0  0  0  0  0
   -3.9673   -2.5542   12.6618 H   0  0  0  0  0  0  0  0  0  0  0  0
   -3.7532   -4.0824   13.5813 H   0  0  0  0  0  0  0  0  0  0  0  0
   -2.1987   -3.6662   16.2539 H   0  0  0  0  0  0  0  0  0  0  0  0
   -0.2170   -2.3863   16.8766 H   0  0  0  0  0  0  0  0  0  0  0  0
    0.1337   -3.5393   15.5446 H   0  0  0  0  0  0  0  0  0  0  0  0
    5.0828    1.0085   12.8693 H   0  0  0  0  0  0  0  0  0  0  0  0
    4.6176    2.3230   14.0016 H   0  0  0  0  0  0  0  0  0  0  0  0
    6.8398    0.8742   15.3039 H   0  0  0  0  0  0  0  0  0  0  0  0
    6.2538   -0.7636   17.3454 H   0  0  0  0  0  0  0  0  0  0  0  0
    4.5861    2.3639   11.2429 H   0  0  0  0  0  0  0  0  0  0  0  0
    3.8608    3.8171    9.3826 H   0  0  0  0  0  0  0  0  0  0  0  0
    1.3620    5.0994    8.2401 H   0  0  0  0  0  0  0  0  0  0  0  0
    0.5637    2.2135   12.8085 H   0  0  0  0  0  0  0  0  0  0  0  0
   -0.0962   -0.0330   13.6095 H   0  0  0  0  0  0  0  0  0  0  0  0
   -3.0495    1.0924   11.7679 H   0  0  0  0  0  0  0  0  0  0  0  0
   -1.7436    1.4252   12.9555 H   0  0  0  0  0  0  0  0  0  0  0  0
   -1.4954    0.1973   11.6681 H   0  0  0  0  0  0  0  0  0  0  0  0
  1  2  1  0  0  0  0
  2  3  1  0  0  0  0
  3  4  2  0  0  0  0
  3 27  1  0  0  0  0
  4  5  1  0  0  0  0
  5  6  1  0  0  0  0
  6  7  2  0  0  0  0
  6 26  1  0  0  0  0
  7  8  1  0  0  0  0
  8  9  2  0  0  0  0
  8 16  1  0  0  0  0
  9 10  1  0  0  0  0
 10 11  1  0  0  0  0
 10 17  2  0  0  0  0
 11 12  1  0  0  0  0
 12 13  1  0  0  0  0
 12 16  1  0  0  0  0
 13 14  2  0  0  0  0
 14 15  1  0  0  0  0
 15 16  2  0  0  0  0
 17 18  1  0  0  0  0
 17 25  1  0  0  0  0
 18 19  2  0  0  0  0
 19 20  1  0  0  0  0
 20 21  2  0  0  0  0
 20 24  1  0  0  0  0
 21 22  1  0  0  0  0
 22 23  2  0  0  0  0
 23 24  1  0  0  0  0
 24 25  2  0  0  0  0
 26 27  2  0  0  0  0
 27 28  1  0  0  0  0
 28 29  1  0  0  0  0
  1 30  1  0  0  0  0
  1 31  1  0  0  0  0
  1 32  1  0  0  0  0
  4 33  1  0  0  0  0
  5 34  1  0  0  0  0
  5 35  1  0  0  0  0
 11 36  1  0  0  0  0
 11 37  1  0  0  0  0
 13 38  1  0  0  0  0
 14 39  1  0  0  0  0
 18 40  1  0  0  0  0
 19 41  1  0  0  0  0
 21 42  1  0  0  0  0
 25 43  1  0  0  0  0
 26 44  1  0  0  0  0
 29 45  1  0  0  0  0
 29 46  1  0  0  0  0
 29 47  1  0  0  0  0
M  END
> <IC50[nM]>
3.8

$$$$
CHEMBL3265017
  -OEChem-05192314333D
 Structure written by MMmdl.
 47 51  0     0  0  0  0  0  0999 V2000
   -4.2568   -3.1045   13.5692 C   0  0  0  0  0  0  0  0  0  0  0  0
   -3.8735   -2.3609   14.7157 O   0  0  0  0  0  0  0  0  0  0  0  0
   -2.5254   -2.1112   14.8167 C   0  0  0  0  0  0  0  0  0  0  0  0
   -1.7461   -2.8700   15.6816 C   0  0  0  0  0  0  0  0  0  0  0  0
   -0.3903   -2.6103   15.8137 C   0  0  0  0  0  0  0  0  0  0  0  0
    0.2206   -1.5848   15.0868 C   0  0  0  0  0  0  0  0  0  0  0  0
    1.6038   -1.3598   15.3228 N   0  0  0  0  0  0  0  0  0  0  0  0
    2.5359   -0.4458   14.7609 C   0  0  0  0  0  0  0  0  0  0  0  0
    2.1794    0.3745   13.7258 N   0  0  0  0  0  0  0  0  0  0  0  0
    3.1126    1.2387   13.2174 C   0  0  0  0  0  0  0  0  0  0  0  0
    4.4180    1.2838   13.7013 C   0  0  0  0  0  0  0  0  0  0  0  0
    4.7460    0.4885   14.7593 N   0  0  0  0  0  0  0  0  0  0  0  0
    5.8978    0.3783   15.4862 C   0  0  0  0  0  0  0  0  0  0  0  0
    5.5892   -0.5252   16.5282 C   0  0  0  0  0  0  0  0  0  0  0  0
    4.3768   -1.0429   16.3726 N   0  0  0  0  0  0  0  0  0  0  0  0
    3.8366   -0.3928   15.3256 C   0  0  0  0  0  0  0  0  0  0  0  0
    2.6368    2.1616   12.1201 C   0  0  0  0  0  0  0  0  0  0  0  0
    3.5454    2.6408   11.1618 C   0  0  0  0  0  0  0  0  0  0  0  0
    3.1453    3.4625   10.1097 C   0  0  0  0  0  0  0  0  0  0  0  0
    1.7994    3.8163   10.0176 C   0  0  0  0  0  0  0  0  0  0  0  0
    0.9914    4.5941    9.1197 C   0  0  0  0  0  0  0  0  0  0  0  0
   -0.2494    4.6053    9.5133 N   0  0  0  0  0  0  0  0  0  0  0  0
   -0.3372    3.8935   10.6271 N   0  0  0  0  0  0  0  0  0  0  0  0
    0.8851    3.3607   10.9950 C   0  0  0  0  0  0  0  0  0  0  0  0
    1.2726    2.5413   12.0626 C   0  0  0  0  0  0  0  0  0  0  0  0
   -0.5549   -0.8187   14.1915 C   0  0  0  0  0  0  0  0  0  0  0  0
   -1.9439   -1.0882   14.0610 C   0  0  0  0  0  0  0  0  0  0  0  0
   -2.7521   -0.3548   13.2056 O   0  0  0  0  0  0  0  0  0  0  0  0
   -2.2313    0.6456   12.3518 C   0  0  0  0  0  0  0  0  0  0  0  0
   -5.3467   -3.2534   13.5756 H   0  0  0  0  0  0  0  0  0  0  0  0
   -3.9673   -2.5542   12.6618 H   0  0  0  0  0  0  0  0  0  0  0  0
   -3.7532   -4.0824   13.5813 H   0  0  0  0  0  0  0  0  0  0  0  0
   -2.1987   -3.6662   16.2539 H   0  0  0  0  0  0  0  0  0  0  0  0
    0.2026   -3.2097   16.4887 H   0  0  0  0  0  0  0  0  0  0  0  0
    5.0828    1.0085   12.8693 H   0  0  0  0  0  0  0  0  0  0  0  0
    4.6176    2.3230   14.0016 H   0  0  0  0  0  0  0  0  0  0  0  0
    6.8398    0.8742   15.3039 H   0  0  0  0  0  0  0  0  0  0  0  0
    6.2538   -0.7636   17.3454 H   0  0  0  0  0  0  0  0  0  0  0  0
    4.5861    2.3639   11.2429 H   0  0  0  0  0  0  0  0  0  0  0  0
    3.8608    3.8171    9.3826 H   0  0  0  0  0  0  0  0  0  0  0  0
    1.3620    5.0994    8.2401 H   0  0  0  0  0  0  0  0  0  0  0  0
    0.5637    2.2135   12.8085 H   0  0  0  0  0  0  0  0  0  0  0  0
   -0.4609    0.2315   14.5048 H   0  0  0  0  0  0  0  0  0  0  0  0
   -0.1095   -0.9449   13.1937 H   0  0  0  0  0  0  0  0  0  0  0  0
   -3.0495    1.0924   11.7679 H   0  0  0  0  0  0  0  0  0  0  0  0
   -1.7436    1.4252   12.9555 H   0  0  0  0  0  0  0  0  0  0  0  0
   -1.4954    0.1973   11.6681 H   0  0  0  0  0  0  0  0  0  0  0  0
  1  2  1  0  0  0  0
  2  3  1  0  0  0  0
  3  4  1  0  0  0  0
  3 27  2  0  0  0  0
  4  5  2  0  0  0  0
  5  6  1  0  0  0  0
  6  7  2  0  0  0  0
  6 26  1  0  0  0  0
  7  8  1  0  0  0  0
  8  9  2  0  0  0  0
  8 16  1  0  0  0  0
  9 10  1  0  0  0  0
 10 11  1  0  0  0  0
 10 17  2  0  0  0  0
 11 12  1  0  0  0  0
 12 13  1  0  0  0  0
 12 16  1  0  0  0  0
 13 14  2  0  0  0  0
 14 15  1  0  0  0  0
 15 16  2  0  0  0  0
 17 18  1  0  0  0  0
 17 25  1  0  0  0  0
 18 19  2  0  0  0  0
 19 20  1  0  0  0  0
 20 21  2  0  0  0  0
 20 24  1  0  0  0  0
 21 22  1  0  0  0  0
 22 23  2  0  0  0  0
 23 24  1  0  0  0  0
 24 25  2  0  0  0  0
 26 27  1  0  0  0  0
 27 28  1  0  0  0  0
 28 29  1  0  0  0  0
  1 30  1  0  0  0  0
  1 31  1  0  0  0  0
  1 32  1  0  0  0  0
  4 33  1  0  0  0  0
  5 34  1  0  0  0  0
 11 35  1  0  0  0  0
 11 36  1  0  0  0  0
 13 37  1  0  0  0  0
 14 38  1  0  0  0  0
 18 39  1  0  0  0  0
 19 40  1  0  0  0  0
 21 41  1  0  0  0  0
 25 42  1  0  0  0  0
 26 43  1  0  0  0  0
 26 44  1  0  0  0  0
 29 45  1  0  0  0  0
 29 46  1  0  0  0  0
 29 47  1  0  0  0  0
M  END
> <IC50[nM]>
3.8

$$$$
CHEMBL3265017
  -OEChem-05192314333D
 Structure written by MMmdl.
 47 51  0     1  0  0  0  0  0999 V2000
   -4.2568   -3.1045   13.5692 C   0  0  0  0  0  0  0  0  0  0  0  0
   -3.8735   -2.3609   14.7157 O   0  0  0  0  0  0  0  0  0  0  0  0
   -2.5254   -2.1112   14.8167 C   0  0  3  0  0  0  0  0  0  0  0  0
   -1.7461   -2.8700   15.6816 C   0  0  0  0  0  0  0  0  0  0  0  0
   -0.3903   -2.6103   15.8137 C   0  0  0  0  0  0  0  0  0  0  0  0
    0.2206   -1.5848   15.0868 C   0  0  0  0  0  0  0  0  0  0  0  0
    1.6038   -1.3598   15.3228 N   0  0  0  0  0  0  0  0  0  0  0  0
    2.5359   -0.4458   14.7609 C   0  0  0  0  0  0  0  0  0  0  0  0
    2.1794    0.3745   13.7258 N   0  0  0  0  0  0  0  0  0  0  0  0
    3.1126    1.2387   13.2174 C   0  0  0  0  0  0  0  0  0  0  0  0
    4.4180    1.2838   13.7013 C   0  0  0  0  0  0  0  0  0  0  0  0
    4.7460    0.4885   14.7593 N   0  0  0  0  0  0  0  0  0  0  0  0
    5.8978    0.3783   15.4862 C   0  0  0  0  0  0  0  0  0  0  0  0
    5.5892   -0.5252   16.5282 C   0  0  0  0  0  0  0  0  0  0  0  0
    4.3768   -1.0429   16.3726 N   0  0  0  0  0  0  0  0  0  0  0  0
    3.8366   -0.3928   15.3256 C   0  0  0  0  0  0  0  0  0  0  0  0
    2.6368    2.1616   12.1201 C   0  0  0  0  0  0  0  0  0  0  0  0
    3.5454    2.6408   11.1618 C   0  0  0  0  0  0  0  0  0  0  0  0
    3.1453    3.4625   10.1097 C   0  0  0  0  0  0  0  0  0  0  0  0
    1.7994    3.8163   10.0176 C   0  0  3  0  0  0  0  0  0  0  0  0
    0.9914    4.5941    9.1197 C   0  0  0  0  0  0  0  0  0  0  0  0
   -0.2494    4.6053    9.5133 N   0  0  0  0  0  0  0  0  0  0  0  0
   -0.3372    3.8935   10.6271 N   0  0  0  0  0  0  0  0  0  0  0  0
    0.8851    3.3607   10.9950 C   0  0  0  0  0  0  0  0  0  0  0  0
    1.2726    2.5413   12.0626 C   0  0  0  0  0  0  0  0  0  0  0  0
   -0.5549   -0.8187   14.1915 C   0  0  0  0  0  0  0  0  0  0  0  0
   -1.9439   -1.0882   14.0610 C   0  0  0  0  0  0  0  0  0  0  0  0
   -2.7521   -0.3548   13.2056 O   0  0  0  0  0  0  0  0  0  0  0  0
   -2.2313    0.6456   12.3518 C   0  0  0  0  0  0  0  0  0  0  0  0
   -5.3467   -3.2534   13.5756 H   0  0  0  0  0  0  0  0  0  0  0  0
   -3.9673   -2.5542   12.6618 H   0  0  0  0  0  0  0  0  0  0  0  0
   -3.7532   -4.0824   13.5813 H   0  0  0  0  0  0  0  0  0  0  0  0
   -2.3284   -2.8273   14.0053 H   0  0  0  0  0  0  0  0  0  0  0  0
   -2.1987   -3.6662   16.2539 H   0  0  0  0  0  0  0  0  0  0  0  0
    0.2026   -3.2097   16.4887 H   0  0  0  0  0  0  0  0  0  0  0  0
    5.1530    1.9333   13.2492 H   0  0  0  0  0  0  0  0  0  0  0  0
    6.8398    0.8742   15.3039 H   0  0  0  0  0  0  0  0  0  0  0  0
    6.2538   -0.7636   17.3454 H   0  0  0  0  0  0  0  0  0  0  0  0
    4.5861    2.3639   11.2429 H   0  0  0  0  0  0  0  0  0  0  0  0
    3.8608    3.8171    9.3826 H   0  0  0  0  0  0  0  0  0  0  0  0
    1.6039    2.9170    9.4151 H   0  0  0  0  0  0  0  0  0  0  0  0
    1.3620    5.0994    8.2401 H   0  0  0  0  0  0  0  0  0  0  0  0
    0.5637    2.2135   12.8085 H   0  0  0  0  0  0  0  0  0  0  0  0
   -0.0962   -0.0330   13.6095 H   0  0  0  0  0  0  0  0  0  0  0  0
   -3.0495    1.0924   11.7679 H   0  0  0  0  0  0  0  0  0  0  0  0
   -1.7436    1.4252   12.9555 H   0  0  0  0  0  0  0  0  0  0  0  0
   -1.4954    0.1973   11.6681 H   0  0  0  0  0  0  0  0  0  0  0  0
  1  2  1  0  0  0  0
  2  3  1  0  0  0  0
  3  4  1  0  0  0  0
  3 27  1  0  0  0  0
  4  5  2  0  0  0  0
  5  6  1  0  0  0  0
  6  7  2  0  0  0  0
  6 26  1  0  0  0  0
  7  8  1  0  0  0  0
  8  9  2  0  0  0  0
  8 16  1  0  0  0  0
  9 10  1  0  0  0  0
 10 11  2  0  0  0  0
 10 17  1  0  0  0  0
 11 12  1  0  0  0  0
 12 13  1  0  0  0  0
 12 16  1  0  0  0  0
 13 14  2  0  0  0  0
 14 15  1  0  0  0  0
 15 16  2  0  0  0  0
 17 18  1  0  0  0  0
 17 25  2  0  0  0  0
 18 19  2  0  0  0  0
 19 20  1  0  0  0  0
 20 21  1  0  0  0  0
 20 24  1  0  0  0  0
 21 22  2  0  0  0  0
 22 23  1  0  0  0  0
 23 24  2  0  0  0  0
 24 25  1  0  0  0  0
 26 27  2  0  0  0  0
 27 28  1  0  0  0  0
 28 29  1  0  0  0  0
  1 30  1  0  0  0  0
  1 31  1  0  0  0  0
  1 32  1  0  0  0  0
  3 33  1  0  0  0  0
  4 34  1  0  0  0  0
  5 35  1  0  0  0  0
 11 36  1  0  0  0  0
 13 37  1  0  0  0  0
 14 38  1  0  0  0  0
 18 39  1  0  0  0  0
 19 40  1  0  0  0  0
 20 41  1  0  0  0  0
 21 42  1  0  0  0  0
 25 43  1  0  0  0  0
 26 44  1  0  0  0  0
 29 45  1  0  0  0  0
 29 46  1  0  0  0  0
 29 47  1  0  0  0  0
M  END
> <IC50[nM]>
3.8

$$$$
CHEMBL3265017
  -OEChem-05192314333D
 Structure written by MMmdl.
 47 51  0     1  0  0  0  0  0999 V2000
   -4.2568   -3.1045   13.5692 C   0  0  0  0  0  0  0  0  0  0  0  0
   -3.8735   -2.3609   14.7157 O   0  0  0  0  0  0  0  0  0  0  0  0
   -2.5254   -2.1112   14.8167 C   0  0  0  0  0  0  0  0  0  0  0  0
   -1.7461   -2.8700   15.6816 C   0  0  0  0  0  0  0  0  0  0  0  0
   -0.3903   -2.6103   15.8137 C   0  0  0  0  0  0  0  0  0  0  0  0
    0.2206   -1.5848   15.0868 C   0  0  0  0  0  0  0  0  0  0  0  0
    1.6038   -1.3598   15.3228 N   0  0  0  0  0  0  0  0  0  0  0  0
    2.5359   -0.4458   14.7609 C   0  0  0  0  0  0  0  0  0  0  0  0
    2.1794    0.3745   13.7258 N   0  0  0  0  0  0  0  0  0  0  0  0
    3.1126    1.2387   13.2174 C   0  0  0  0  0  0  0  0  0  0  0  0
    4.4180    1.2838   13.7013 C   0  0  0  0  0  0  0  0  0  0  0  0
    4.7460    0.4885   14.7593 N   0  0  0  0  0  0  0  0  0  0  0  0
    5.8978    0.3783   15.4862 C   0  0  0  0  0  0  0  0  0  0  0  0
    5.5892   -0.5252   16.5282 C   0  0  0  0  0  0  0  0  0  0  0  0
    4.3768   -1.0429   16.3726 N   0  0  0  0  0  0  0  0  0  0  0  0
    3.8366   -0.3928   15.3256 C   0  0  0  0  0  0  0  0  0  0  0  0
    2.6368    2.1616   12.1201 C   0  0  0  0  0  0  0  0  0  0  0  0
    3.5454    2.6408   11.1618 C   0  0  0  0  0  0  0  0  0  0  0  0
    3.1453    3.4625   10.1097 C   0  0  0  0  0  0  0  0  0  0  0  0
    1.7994    3.8163   10.0176 C   0  0  3  0  0  0  0  0  0  0  0  0
    0.9914    4.5941    9.1197 C   0  0  0  0  0  0  0  0  0  0  0  0
   -0.2494    4.6053    9.5133 N   0  0  0  0  0  0  0  0  0  0  0  0
   -0.3372    3.8935   10.6271 N   0  0  0  0  0  0  0  0  0  0  0  0
    0.8851    3.3607   10.9950 C   0  0  0  0  0  0  0  0  0  0  0  0
    1.2726    2.5413   12.0626 C   0  0  0  0  0  0  0  0  0  0  0  0
   -0.5549   -0.8187   14.1915 C   0  0  0  0  0  0  0  0  0  0  0  0
   -1.9439   -1.0882   14.0610 C   0  0  0  0  0  0  0  0  0  0  0  0
   -2.7521   -0.3548   13.2056 O   0  0  0  0  0  0  0  0  0  0  0  0
   -2.2313    0.6456   12.3518 C   0  0  0  0  0  0  0  0  0  0  0  0
   -5.3467   -3.2534   13.5756 H   0  0  0  0  0  0  0  0  0  0  0  0
   -3.9673   -2.5542   12.6618 H   0  0  0  0  0  0  0  0  0  0  0  0
   -3.7532   -4.0824   13.5813 H   0  0  0  0  0  0  0  0  0  0  0  0
   -2.1987   -3.6662   16.2539 H   0  0  0  0  0  0  0  0  0  0  0  0
   -0.2170   -2.3863   16.8766 H   0  0  0  0  0  0  0  0  0  0  0  0
    0.1337   -3.5393   15.5446 H   0  0  0  0  0  0  0  0  0  0  0  0
    5.1530    1.9333   13.2492 H   0  0  0  0  0  0  0  0  0  0  0  0
    6.8398    0.8742   15.3039 H   0  0  0  0  0  0  0  0  0  0  0  0
    6.2538   -0.7636   17.3454 H   0  0  0  0  0  0  0  0  0  0  0  0
    4.5861    2.3639   11.2429 H   0  0  0  0  0  0  0  0  0  0  0  0
    3.8608    3.8171    9.3826 H   0  0  0  0  0  0  0  0  0  0  0  0
    1.6039    2.9170    9.4151 H   0  0  0  0  0  0  0  0  0  0  0  0
    1.3620    5.0994    8.2401 H   0  0  0  0  0  0  0  0  0  0  0  0
    0.5637    2.2135   12.8085 H   0  0  0  0  0  0  0  0  0  0  0  0
   -0.0962   -0.0330   13.6095 H   0  0  0  0  0  0  0  0  0  0  0  0
   -3.0495    1.0924   11.7679 H   0  0  0  0  0  0  0  0  0  0  0  0
   -1.7436    1.4252   12.9555 H   0  0  0  0  0  0  0  0  0  0  0  0
   -1.4954    0.1973   11.6681 H   0  0  0  0  0  0  0  0  0  0  0  0
  1  2  1  0  0  0  0
  2  3  1  0  0  0  0
  3  4  2  0  0  0  0
  3 27  1  0  0  0  0
  4  5  1  0  0  0  0
  5  6  1  0  0  0  0
  6  7  2  0  0  0  0
  6 26  1  0  0  0  0
  7  8  1  0  0  0  0
  8  9  2  0  0  0  0
  8 16  1  0  0  0  0
  9 10  1  0  0  0  0
 10 11  2  0  0  0  0
 10 17  1  0  0  0  0
 11 12  1  0  0  0  0
 12 13  1  0  0  0  0
 12 16  1  0  0  0  0
 13 14  2  0  0  0  0
 14 15  1  0  0  0  0
 15 16  2  0  0  0  0
 17 18  1  0  0  0  0
 17 25  2  0  0  0  0
 18 19  2  0  0  0  0
 19 20  1  0  0  0  0
 20 21  1  0  0  0  0
 20 24  1  0  0  0  0
 21 22  2  0  0  0  0
 22 23  1  0  0  0  0
 23 24  2  0  0  0  0
 24 25  1  0  0  0  0
 26 27  2  0  0  0  0
 27 28  1  0  0  0  0
 28 29  1  0  0  0  0
  1 30  1  0  0  0  0
  1 31  1  0  0  0  0
  1 32  1  0  0  0  0
  4 33  1  0  0  0  0
  5 34  1  0  0  0  0
  5 35  1  0  0  0  0
 11 36  1  0  0  0  0
 13 37  1  0  0  0  0
 14 38  1  0  0  0  0
 18 39  1  0  0  0  0
 19 40  1  0  0  0  0
 20 41  1  0  0  0  0
 21 42  1  0  0  0  0
 25 43  1  0  0  0  0
 26 44  1  0  0  0  0
 29 45  1  0  0  0  0
 29 46  1  0  0  0  0
 29 47  1  0  0  0  0
M  END
> <IC50[nM]>
3.8

$$$$
CHEMBL3265017
  -OEChem-05192314333D
 Structure written by MMmdl.
 47 51  0     1  0  0  0  0  0999 V2000
   -4.2568   -3.1045   13.5692 C   0  0  0  0  0  0  0  0  0  0  0  0
   -3.8735   -2.3609   14.7157 O   0  0  0  0  0  0  0  0  0  0  0  0
   -2.5254   -2.1112   14.8167 C   0  0  3  0  0  0  0  0  0  0  0  0
   -1.7461   -2.8700   15.6816 C   0  0  0  0  0  0  0  0  0  0  0  0
   -0.3903   -2.6103   15.8137 C   0  0  0  0  0  0  0  0  0  0  0  0
    0.2206   -1.5848   15.0868 C   0  0  0  0  0  0  0  0  0  0  0  0
    1.6038   -1.3598   15.3228 N   0  0  0  0  0  0  0  0  0  0  0  0
    2.5359   -0.4458   14.7609 C   0  0  0  0  0  0  0  0  0  0  0  0
    2.1794    0.3745   13.7258 N   0  0  0  0  0  0  0  0  0  0  0  0
    3.1126    1.2387   13.2174 C   0  0  0  0  0  0  0  0  0  0  0  0
    4.4180    1.2838   13.7013 C   0  0  0  0  0  0  0  0  0  0  0  0
    4.7460    0.4885   14.7593 N   0  0  0  0  0  0  0  0  0  0  0  0
    5.8978    0.3783   15.4862 C   0  0  0  0  0  0  0  0  0  0  0  0
    5.5892   -0.5252   16.5282 C   0  0  0  0  0  0  0  0  0  0  0  0
    4.3768   -1.0429   16.3726 N   0  0  0  0  0  0  0  0  0  0  0  0
    3.8366   -0.3928   15.3256 C   0  0  0  0  0  0  0  0  0  0  0  0
    2.6368    2.1616   12.1201 C   0  0  0  0  0  0  0  0  0  0  0  0
    3.5454    2.6408   11.1618 C   0  0  0  0  0  0  0  0  0  0  0  0
    3.1453    3.4625   10.1097 C   0  0  0  0  0  0  0  0  0  0  0  0
    1.7994    3.8163   10.0176 C   0  0  0  0  0  0  0  0  0  0  0  0
    0.9914    4.5941    9.1197 C   0  0  0  0  0  0  0  0  0  0  0  0
   -0.2494    4.6053    9.5133 N   0  0  0  0  0  0  0  0  0  0  0  0
   -0.3372    3.8935   10.6271 N   0  0  0  0  0  0  0  0  0  0  0  0
    0.8851    3.3607   10.9950 C   0  0  0  0  0  0  0  0  0  0  0  0
    1.2726    2.5413   12.0626 C   0  0  0  0  0  0  0  0  0  0  0  0
   -0.5549   -0.8187   14.1915 C   0  0  0  0  0  0  0  0  0  0  0  0
   -1.9439   -1.0882   14.0610 C   0  0  0  0  0  0  0  0  0  0  0  0
   -2.7521   -0.3548   13.2056 O   0  0  0  0  0  0  0  0  0  0  0  0
   -2.2313    0.6456   12.3518 C   0  0  0  0  0  0  0  0  0  0  0  0
   -5.3467   -3.2534   13.5756 H   0  0  0  0  0  0  0  0  0  0  0  0
   -3.9673   -2.5542   12.6618 H   0  0  0  0  0  0  0  0  0  0  0  0
   -3.7532   -4.0824   13.5813 H   0  0  0  0  0  0  0  0  0  0  0  0
   -2.3284   -2.8273   14.0053 H   0  0  0  0  0  0  0  0  0  0  0  0
   -2.1987   -3.6662   16.2539 H   0  0  0  0  0  0  0  0  0  0  0  0
    0.2026   -3.2097   16.4887 H   0  0  0  0  0  0  0  0  0  0  0  0
    5.1530    1.9333   13.2492 H   0  0  0  0  0  0  0  0  0  0  0  0
    6.8398    0.8742   15.3039 H   0  0  0  0  0  0  0  0  0  0  0  0
    6.2538   -0.7636   17.3454 H   0  0  0  0  0  0  0  0  0  0  0  0
    4.3107    3.2027   11.7173 H   0  0  0  0  0  0  0  0  0  0  0  0
    4.0041    1.7532   10.7017 H   0  0  0  0  0  0  0  0  0  0  0  0
    3.8608    3.8171    9.3826 H   0  0  0  0  0  0  0  0  0  0  0  0
    1.3620    5.0994    8.2401 H   0  0  0  0  0  0  0  0  0  0  0  0
    0.5637    2.2135   12.8085 H   0  0  0  0  0  0  0  0  0  0  0  0
   -0.0962   -0.0330   13.6095 H   0  0  0  0  0  0  0  0  0  0  0  0
   -3.0495    1.0924   11.7679 H   0  0  0  0  0  0  0  0  0  0  0  0
   -1.7436    1.4252   12.9555 H   0  0  0  0  0  0  0  0  0  0  0  0
   -1.4954    0.1973   11.6681 H   0  0  0  0  0  0  0  0  0  0  0  0
  1  2  1  0  0  0  0
  2  3  1  0  0  0  0
  3  4  1  0  0  0  0
  3 27  1  0  0  0  0
  4  5  2  0  0  0  0
  5  6  1  0  0  0  0
  6  7  2  0  0  0  0
  6 26  1  0  0  0  0
  7  8  1  0  0  0  0
  8  9  2  0  0  0  0
  8 16  1  0  0  0  0
  9 10  1  0  0  0  0
 10 11  2  0  0  0  0
 10 17  1  0  0  0  0
 11 12  1  0  0  0  0
 12 13  1  0  0  0  0
 12 16  1  0  0  0  0
 13 14  2  0  0  0  0
 14 15  1  0  0  0  0
 15 16  2  0  0  0  0
 17 18  1  0  0  0  0
 17 25  2  0  0  0  0
 18 19  1  0  0  0  0
 19 20  2  0  0  0  0
 20 21  1  0  0  0  0
 20 24  1  0  0  0  0
 21 22  2  0  0  0  0
 22 23  1  0  0  0  0
 23 24  2  0  0  0  0
 24 25  1  0  0  0  0
 26 27  2  0  0  0  0
 27 28  1  0  0  0  0
 28 29  1  0  0  0  0
  1 30  1  0  0  0  0
  1 31  1  0  0  0  0
  1 32  1  0  0  0  0
  3 33  1  0  0  0  0
  4 34  1  0  0  0  0
  5 35  1  0  0  0  0
 11 36  1  0  0  0  0
 13 37  1  0  0  0  0
 14 38  1  0  0  0  0
 18 39  1  0  0  0  0
 18 40  1  0  0  0  0
 19 41  1  0  0  0  0
 21 42  1  0  0  0  0
 25 43  1  0  0  0  0
 26 44  1  0  0  0  0
 29 45  1  0  0  0  0
 29 46  1  0  0  0  0
 29 47  1  0  0  0  0
M  END
> <IC50[nM]>
3.8

$$$$
CHEMBL3265017
  -OEChem-05192314333D
 Structure written by MMmdl.
 47 51  0     0  0  0  0  0  0999 V2000
   -4.2568   -3.1045   13.5692 C   0  0  0  0  0  0  0  0  0  0  0  0
   -3.8735   -2.3609   14.7157 O   0  0  0  0  0  0  0  0  0  0  0  0
   -2.5254   -2.1112   14.8167 C   0  0  0  0  0  0  0  0  0  0  0  0
   -1.7461   -2.8700   15.6816 C   0  0  0  0  0  0  0  0  0  0  0  0
   -0.3903   -2.6103   15.8137 C   0  0  0  0  0  0  0  0  0  0  0  0
    0.2206   -1.5848   15.0868 C   0  0  0  0  0  0  0  0  0  0  0  0
    1.6038   -1.3598   15.3228 N   0  0  0  0  0  0  0  0  0  0  0  0
    2.5359   -0.4458   14.7609 C   0  0  0  0  0  0  0  0  0  0  0  0
    2.1794    0.3745   13.7258 N   0  0  0  0  0  0  0  0  0  0  0  0
    3.1126    1.2387   13.2174 C   0  0  0  0  0  0  0  0  0  0  0  0
    4.4180    1.2838   13.7013 C   0  0  0  0  0  0  0  0  0  0  0  0
    4.7460    0.4885   14.7593 N   0  0  0  0  0  0  0  0  0  0  0  0
    5.8978    0.3783   15.4862 C   0  0  0  0  0  0  0  0  0  0  0  0
    5.5892   -0.5252   16.5282 C   0  0  0  0  0  0  0  0  0  0  0  0
    4.3768   -1.0429   16.3726 N   0  0  0  0  0  0  0  0  0  0  0  0
    3.8366   -0.3928   15.3256 C   0  0  0  0  0  0  0  0  0  0  0  0
    2.6368    2.1616   12.1201 C   0  0  0  0  0  0  0  0  0  0  0  0
    3.5454    2.6408   11.1618 C   0  0  0  0  0  0  0  0  0  0  0  0
    3.1453    3.4625   10.1097 C   0  0  0  0  0  0  0  0  0  0  0  0
    1.7994    3.8163   10.0176 C   0  0  0  0  0  0  0  0  0  0  0  0
    0.9914    4.5941    9.1197 C   0  0  0  0  0  0  0  0  0  0  0  0
   -0.2494    4.6053    9.5133 N   0  0  0  0  0  0  0  0  0  0  0  0
   -0.3372    3.8935   10.6271 N   0  0  0  0  0  0  0  0  0  0  0  0
    0.8851    3.3607   10.9950 C   0  0  0  0  0  0  0  0  0  0  0  0
    1.2726    2.5413   12.0626 C   0  0  0  0  0  0  0  0  0  0  0  0
   -0.5549   -0.8187   14.1915 C   0  0  0  0  0  0  0  0  0  0  0  0
   -1.9439   -1.0882   14.0610 C   0  0  0  0  0  0  0  0  0  0  0  0
   -2.7521   -0.3548   13.2056 O   0  0  0  0  0  0  0  0  0  0  0  0
   -2.2313    0.6456   12.3518 C   0  0  0  0  0  0  0  0  0  0  0  0
   -5.3467   -3.2534   13.5756 H   0  0  0  0  0  0  0  0  0  0  0  0
   -3.9673   -2.5542   12.6618 H   0  0  0  0  0  0  0  0  0  0  0  0
   -3.7532   -4.0824   13.5813 H   0  0  0  0  0  0  0  0  0  0  0  0
   -2.1987   -3.6662   16.2539 H   0  0  0  0  0  0  0  0  0  0  0  0
   -0.2170   -2.3863   16.8766 H   0  0  0  0  0  0  0  0  0  0  0  0
    0.1337   -3.5393   15.5446 H   0  0  0  0  0  0  0  0  0  0  0  0
    5.1530    1.9333   13.2492 H   0  0  0  0  0  0  0  0  0  0  0  0
    6.8398    0.8742   15.3039 H   0  0  0  0  0  0  0  0  0  0  0  0
    6.2538   -0.7636   17.3454 H   0  0  0  0  0  0  0  0  0  0  0  0
    4.3107    3.2027   11.7173 H   0  0  0  0  0  0  0  0  0  0  0  0
    4.0041    1.7532   10.7017 H   0  0  0  0  0  0  0  0  0  0  0  0
    3.8608    3.8171    9.3826 H   0  0  0  0  0  0  0  0  0  0  0  0
    1.3620    5.0994    8.2401 H   0  0  0  0  0  0  0  0  0  0  0  0
    0.5637    2.2135   12.8085 H   0  0  0  0  0  0  0  0  0  0  0  0
   -0.0962   -0.0330   13.6095 H   0  0  0  0  0  0  0  0  0  0  0  0
   -3.0495    1.0924   11.7679 H   0  0  0  0  0  0  0  0  0  0  0  0
   -1.7436    1.4252   12.9555 H   0  0  0  0  0  0  0  0  0  0  0  0
   -1.4954    0.1973   11.6681 H   0  0  0  0  0  0  0  0  0  0  0  0
  1  2  1  0  0  0  0
  2  3  1  0  0  0  0
  3  4  2  0  0  0  0
  3 27  1  0  0  0  0
  4  5  1  0  0  0  0
  5  6  1  0  0  0  0
  6  7  2  0  0  0  0
  6 26  1  0  0  0  0
  7  8  1  0  0  0  0
  8  9  2  0  0  0  0
  8 16  1  0  0  0  0
  9 10  1  0  0  0  0
 10 11  2  0  0  0  0
 10 17  1  0  0  0  0
 11 12  1  0  0  0  0
 12 13  1  0  0  0  0
 12 16  1  0  0  0  0
 13 14  2  0  0  0  0
 14 15  1  0  0  0  0
 15 16  2  0  0  0  0
 17 18  1  0  0  0  0
 17 25  2  0  0  0  0
 18 19  1  0  0  0  0
 19 20  2  0  0  0  0
 20 21  1  0  0  0  0
 20 24  1  0  0  0  0
 21 22  2  0  0  0  0
 22 23  1  0  0  0  0
 23 24  2  0  0  0  0
 24 25  1  0  0  0  0
 26 27  2  0  0  0  0
 27 28  1  0  0  0  0
 28 29  1  0  0  0  0
  1 30  1  0  0  0  0
  1 31  1  0  0  0  0
  1 32  1  0  0  0  0
  4 33  1  0  0  0  0
  5 34  1  0  0  0  0
  5 35  1  0  0  0  0
 11 36  1  0  0  0  0
 13 37  1  0  0  0  0
 14 38  1  0  0  0  0
 18 39  1  0  0  0  0
 18 40  1  0  0  0  0
 19 41  1  0  0  0  0
 21 42  1  0  0  0  0
 25 43  1  0  0  0  0
 26 44  1  0  0  0  0
 29 45  1  0  0  0  0
 29 46  1  0  0  0  0
 29 47  1  0  0  0  0
M  END
> <IC50[nM]>
3.8

$$$$
CHEMBL3265017
  -OEChem-05192314333D
 Structure written by MMmdl.
 47 51  0     1  0  0  0  0  0999 V2000
   -4.2568   -3.1045   13.5692 C   0  0  0  0  0  0  0  0  0  0  0  0
   -3.8735   -2.3609   14.7157 O   0  0  0  0  0  0  0  0  0  0  0  0
   -2.5254   -2.1112   14.8167 C   0  0  0  0  0  0  0  0  0  0  0  0
   -1.7461   -2.8700   15.6816 C   0  0  0  0  0  0  0  0  0  0  0  0
   -0.3903   -2.6103   15.8137 C   0  0  0  0  0  0  0  0  0  0  0  0
    0.2206   -1.5848   15.0868 C   0  0  0  0  0  0  0  0  0  0  0  0
    1.6038   -1.3598   15.3228 N   0  0  0  0  0  0  0  0  0  0  0  0
    2.5359   -0.4458   14.7609 C   0  0  0  0  0  0  0  0  0  0  0  0
    2.1794    0.3745   13.7258 N   0  0  0  0  0  0  0  0  0  0  0  0
    3.1126    1.2387   13.2174 C   0  0  0  0  0  0  0  0  0  0  0  0
    4.4180    1.2838   13.7013 C   0  0  0  0  0  0  0  0  0  0  0  0
    4.7460    0.4885   14.7593 N   0  0  0  0  0  0  0  0  0  0  0  0
    5.8978    0.3783   15.4862 C   0  0  0  0  0  0  0  0  0  0  0  0
    5.5892   -0.5252   16.5282 C   0  0  0  0  0  0  0  0  0  0  0  0
    4.3768   -1.0429   16.3726 N   0  0  0  0  0  0  0  0  0  0  0  0
    3.8366   -0.3928   15.3256 C   0  0  0  0  0  0  0  0  0  0  0  0
    2.6368    2.1616   12.1201 C   0  0  0  0  0  0  0  0  0  0  0  0
    3.5454    2.6408   11.1618 C   0  0  0  0  0  0  0  0  0  0  0  0
    3.1453    3.4625   10.1097 C   0  0  0  0  0  0  0  0  0  0  0  0
    1.7994    3.8163   10.0176 C   0  0  3  0  0  0  0  0  0  0  0  0
    0.9914    4.5941    9.1197 C   0  0  0  0  0  0  0  0  0  0  0  0
   -0.2494    4.6053    9.5133 N   0  0  0  0  0  0  0  0  0  0  0  0
   -0.3372    3.8935   10.6271 N   0  0  0  0  0  0  0  0  0  0  0  0
    0.8851    3.3607   10.9950 C   0  0  0  0  0  0  0  0  0  0  0  0
    1.2726    2.5413   12.0626 C   0  0  0  0  0  0  0  0  0  0  0  0
   -0.5549   -0.8187   14.1915 C   0  0  0  0  0  0  0  0  0  0  0  0
   -1.9439   -1.0882   14.0610 C   0  0  0  0  0  0  0  0  0  0  0  0
   -2.7521   -0.3548   13.2056 O   0  0  0  0  0  0  0  0  0  0  0  0
   -2.2313    0.6456   12.3518 C   0  0  0  0  0  0  0  0  0  0  0  0
   -5.3467   -3.2534   13.5756 H   0  0  0  0  0  0  0  0  0  0  0  0
   -3.9673   -2.5542   12.6618 H   0  0  0  0  0  0  0  0  0  0  0  0
   -3.7532   -4.0824   13.5813 H   0  0  0  0  0  0  0  0  0  0  0  0
   -2.1987   -3.6662   16.2539 H   0  0  0  0  0  0  0  0  0  0  0  0
    0.2026   -3.2097   16.4887 H   0  0  0  0  0  0  0  0  0  0  0  0
    5.1530    1.9333   13.2492 H   0  0  0  0  0  0  0  0  0  0  0  0
    6.8398    0.8742   15.3039 H   0  0  0  0  0  0  0  0  0  0  0  0
    6.2538   -0.7636   17.3454 H   0  0  0  0  0  0  0  0  0  0  0  0
    4.5861    2.3639   11.2429 H   0  0  0  0  0  0  0  0  0  0  0  0
    3.8608    3.8171    9.3826 H   0  0  0  0  0  0  0  0  0  0  0  0
    1.6039    2.9170    9.4151 H   0  0  0  0  0  0  0  0  0  0  0  0
    1.3620    5.0994    8.2401 H   0  0  0  0  0  0  0  0  0  0  0  0
    0.5637    2.2135   12.8085 H   0  0  0  0  0  0  0  0  0  0  0  0
   -0.4609    0.2315   14.5048 H   0  0  0  0  0  0  0  0  0  0  0  0
   -0.1095   -0.9449   13.1937 H   0  0  0  0  0  0  0  0  0  0  0  0
   -3.0495    1.0924   11.7679 H   0  0  0  0  0  0  0  0  0  0  0  0
   -1.7436    1.4252   12.9555 H   0  0  0  0  0  0  0  0  0  0  0  0
   -1.4954    0.1973   11.6681 H   0  0  0  0  0  0  0  0  0  0  0  0
  1  2  1  0  0  0  0
  2  3  1  0  0  0  0
  3  4  1  0  0  0  0
  3 27  2  0  0  0  0
  4  5  2  0  0  0  0
  5  6  1  0  0  0  0
  6  7  2  0  0  0  0
  6 26  1  0  0  0  0
  7  8  1  0  0  0  0
  8  9  2  0  0  0  0
  8 16  1  0  0  0  0
  9 10  1  0  0  0  0
 10 11  2  0  0  0  0
 10 17  1  0  0  0  0
 11 12  1  0  0  0  0
 12 13  1  0  0  0  0
 12 16  1  0  0  0  0
 13 14  2  0  0  0  0
 14 15  1  0  0  0  0
 15 16  2  0  0  0  0
 17 18  1  0  0  0  0
 17 25  2  0  0  0  0
 18 19  2  0  0  0  0
 19 20  1  0  0  0  0
 20 21  1  0  0  0  0
 20 24  1  0  0  0  0
 21 22  2  0  0  0  0
 22 23  1  0  0  0  0
 23 24  2  0  0  0  0
 24 25  1  0  0  0  0
 26 27  1  0  0  0  0
 27 28  1  0  0  0  0
 28 29  1  0  0  0  0
  1 30  1  0  0  0  0
  1 31  1  0  0  0  0
  1 32  1  0  0  0  0
  4 33  1  0  0  0  0
  5 34  1  0  0  0  0
 11 35  1  0  0  0  0
 13 36  1  0  0  0  0
 14 37  1  0  0  0  0
 18 38  1  0  0  0  0
 19 39  1  0  0  0  0
 20 40  1  0  0  0  0
 21 41  1  0  0  0  0
 25 42  1  0  0  0  0
 26 43  1  0  0  0  0
 26 44  1  0  0  0  0
 29 45  1  0  0  0  0
 29 46  1  0  0  0  0
 29 47  1  0  0  0  0
M  END
> <IC50[nM]>
3.8

$$$$
CHEMBL3265017
  -OEChem-05192314333D
 Structure written by MMmdl.
 47 51  0     0  0  0  0  0  0999 V2000
   -4.2568   -3.1045   13.5692 C   0  0  0  0  0  0  0  0  0  0  0  0
   -3.8735   -2.3609   14.7157 O   0  0  0  0  0  0  0  0  0  0  0  0
   -2.5254   -2.1112   14.8167 C   0  0  0  0  0  0  0  0  0  0  0  0
   -1.7461   -2.8700   15.6816 C   0  0  0  0  0  0  0  0  0  0  0  0
   -0.3903   -2.6103   15.8137 C   0  0  0  0  0  0  0  0  0  0  0  0
    0.2206   -1.5848   15.0868 C   0  0  0  0  0  0  0  0  0  0  0  0
    1.6038   -1.3598   15.3228 N   0  0  0  0  0  0  0  0  0  0  0  0
    2.5359   -0.4458   14.7609 C   0  0  0  0  0  0  0  0  0  0  0  0
    2.1794    0.3745   13.7258 N   0  0  0  0  0  0  0  0  0  0  0  0
    3.1126    1.2387   13.2174 C   0  0  0  0  0  0  0  0  0  0  0  0
    4.4180    1.2838   13.7013 C   0  0  0  0  0  0  0  0  0  0  0  0
    4.7460    0.4885   14.7593 N   0  0  0  0  0  0  0  0  0  0  0  0
    5.8978    0.3783   15.4862 C   0  0  0  0  0  0  0  0  0  0  0  0
    5.5892   -0.5252   16.5282 C   0  0  0  0  0  0  0  0  0  0  0  0
    4.3768   -1.0429   16.3726 N   0  0  0  0  0  0  0  0  0  0  0  0
    3.8366   -0.3928   15.3256 C   0  0  0  0  0  0  0  0  0  0  0  0
    2.6368    2.1616   12.1201 C   0  0  0  0  0  0  0  0  0  0  0  0
    3.5454    2.6408   11.1618 C   0  0  0  0  0  0  0  0  0  0  0  0
    3.1453    3.4625   10.1097 C   0  0  0  0  0  0  0  0  0  0  0  0
    1.7994    3.8163   10.0176 C   0  0  0  0  0  0  0  0  0  0  0  0
    0.9914    4.5941    9.1197 C   0  0  0  0  0  0  0  0  0  0  0  0
   -0.2494    4.6053    9.5133 N   0  0  0  0  0  0  0  0  0  0  0  0
   -0.3372    3.8935   10.6271 N   0  0  0  0  0  0  0  0  0  0  0  0
    0.8851    3.3607   10.9950 C   0  0  0  0  0  0  0  0  0  0  0  0
    1.2726    2.5413   12.0626 C   0  0  0  0  0  0  0  0  0  0  0  0
   -0.5549   -0.8187   14.1915 C   0  0  0  0  0  0  0  0  0  0  0  0
   -1.9439   -1.0882   14.0610 C   0  0  0  0  0  0  0  0  0  0  0  0
   -2.7521   -0.3548   13.2056 O   0  0  0  0  0  0  0  0  0  0  0  0
   -2.2313    0.6456   12.3518 C   0  0  0  0  0  0  0  0  0  0  0  0
   -5.3467   -3.2534   13.5756 H   0  0  0  0  0  0  0  0  0  0  0  0
   -3.9673   -2.5542   12.6618 H   0  0  0  0  0  0  0  0  0  0  0  0
   -3.7532   -4.0824   13.5813 H   0  0  0  0  0  0  0  0  0  0  0  0
   -2.1987   -3.6662   16.2539 H   0  0  0  0  0  0  0  0  0  0  0  0
    0.2026   -3.2097   16.4887 H   0  0  0  0  0  0  0  0  0  0  0  0
    5.1530    1.9333   13.2492 H   0  0  0  0  0  0  0  0  0  0  0  0
    6.8398    0.8742   15.3039 H   0  0  0  0  0  0  0  0  0  0  0  0
    6.2538   -0.7636   17.3454 H   0  0  0  0  0  0  0  0  0  0  0  0
    4.3107    3.2027   11.7173 H   0  0  0  0  0  0  0  0  0  0  0  0
    4.0041    1.7532   10.7017 H   0  0  0  0  0  0  0  0  0  0  0  0
    3.8608    3.8171    9.3826 H   0  0  0  0  0  0  0  0  0  0  0  0
    1.3620    5.0994    8.2401 H   0  0  0  0  0  0  0  0  0  0  0  0
    0.5637    2.2135   12.8085 H   0  0  0  0  0  0  0  0  0  0  0  0
   -0.4609    0.2315   14.5048 H   0  0  0  0  0  0  0  0  0  0  0  0
   -0.1095   -0.9449   13.1937 H   0  0  0  0  0  0  0  0  0  0  0  0
   -3.0495    1.0924   11.7679 H   0  0  0  0  0  0  0  0  0  0  0  0
   -1.7436    1.4252   12.9555 H   0  0  0  0  0  0  0  0  0  0  0  0
   -1.4954    0.1973   11.6681 H   0  0  0  0  0  0  0  0  0  0  0  0
  1  2  1  0  0  0  0
  2  3  1  0  0  0  0
  3  4  1  0  0  0  0
  3 27  2  0  0  0  0
  4  5  2  0  0  0  0
  5  6  1  0  0  0  0
  6  7  2  0  0  0  0
  6 26  1  0  0  0  0
  7  8  1  0  0  0  0
  8  9  2  0  0  0  0
  8 16  1  0  0  0  0
  9 10  1  0  0  0  0
 10 11  2  0  0  0  0
 10 17  1  0  0  0  0
 11 12  1  0  0  0  0
 12 13  1  0  0  0  0
 12 16  1  0  0  0  0
 13 14  2  0  0  0  0
 14 15  1  0  0  0  0
 15 16  2  0  0  0  0
 17 18  1  0  0  0  0
 17 25  2  0  0  0  0
 18 19  1  0  0  0  0
 19 20  2  0  0  0  0
 20 21  1  0  0  0  0
 20 24  1  0  0  0  0
 21 22  2  0  0  0  0
 22 23  1  0  0  0  0
 23 24  2  0  0  0  0
 24 25  1  0  0  0  0
 26 27  1  0  0  0  0
 27 28  1  0  0  0  0
 28 29  1  0  0  0  0
  1 30  1  0  0  0  0
  1 31  1  0  0  0  0
  1 32  1  0  0  0  0
  4 33  1  0  0  0  0
  5 34  1  0  0  0  0
 11 35  1  0  0  0  0
 13 36  1  0  0  0  0
 14 37  1  0  0  0  0
 18 38  1  0  0  0  0
 18 39  1  0  0  0  0
 19 40  1  0  0  0  0
 21 41  1  0  0  0  0
 25 42  1  0  0  0  0
 26 43  1  0  0  0  0
 26 44  1  0  0  0  0
 29 45  1  0  0  0  0
 29 46  1  0  0  0  0
 29 47  1  0  0  0  0
M  END
> <IC50[nM]>
3.8

$$$$
CHEMBL3265017
  -OEChem-05192314333D
 Structure written by MMmdl.
 47 51  0     1  0  0  0  0  0999 V2000
   -4.2568   -3.1045   13.5692 C   0  0  0  0  0  0  0  0  0  0  0  0
   -3.8735   -2.3609   14.7157 O   0  0  0  0  0  0  0  0  0  0  0  0
   -2.5254   -2.1112   14.8167 C   0  0  3  0  0  0  0  0  0  0  0  0
   -1.7461   -2.8700   15.6816 C   0  0  0  0  0  0  0  0  0  0  0  0
   -0.3903   -2.6103   15.8137 C   0  0  0  0  0  0  0  0  0  0  0  0
    0.2206   -1.5848   15.0868 C   0  0  0  0  0  0  0  0  0  0  0  0
    1.6038   -1.3598   15.3228 N   0  0  0  0  0  0  0  0  0  0  0  0
    2.5359   -0.4458   14.7609 C   0  0  0  0  0  0  0  0  0  0  0  0
    2.1794    0.3745   13.7258 N   0  0  0  0  0  0  0  0  0  0  0  0
    3.1126    1.2387   13.2174 C   0  0  0  0  0  0  0  0  0  0  0  0
    4.4180    1.2838   13.7013 C   0  0  0  0  0  0  0  0  0  0  0  0
    4.7460    0.4885   14.7593 N   0  0  0  0  0  0  0  0  0  0  0  0
    5.8978    0.3783   15.4862 C   0  0  0  0  0  0  0  0  0  0  0  0
    5.5892   -0.5252   16.5282 C   0  0  0  0  0  0  0  0  0  0  0  0
    4.3768   -1.0429   16.3726 N   0  0  0  0  0  0  0  0  0  0  0  0
    3.8366   -0.3928   15.3256 C   0  0  0  0  0  0  0  0  0  0  0  0
    2.6368    2.1616   12.1201 C   0  0  0  0  0  0  0  0  0  0  0  0
    3.5454    2.6408   11.1618 C   0  0  0  0  0  0  0  0  0  0  0  0
    3.1453    3.4625   10.1097 C   0  0  0  0  0  0  0  0  0  0  0  0
    1.7994    3.8163   10.0176 C   0  0  0  0  0  0  0  0  0  0  0  0
    0.9914    4.5941    9.1197 C   0  0  0  0  0  0  0  0  0  0  0  0
   -0.2494    4.6053    9.5133 N   0  0  0  0  0  0  0  0  0  0  0  0
   -0.3372    3.8935   10.6271 N   0  0  0  0  0  0  0  0  0  0  0  0
    0.8851    3.3607   10.9950 C   0  0  0  0  0  0  0  0  0  0  0  0
    1.2726    2.5413   12.0626 C   0  0  0  0  0  0  0  0  0  0  0  0
   -0.5549   -0.8187   14.1915 C   0  0  0  0  0  0  0  0  0  0  0  0
   -1.9439   -1.0882   14.0610 C   0  0  0  0  0  0  0  0  0  0  0  0
   -2.7521   -0.3548   13.2056 O   0  0  0  0  0  0  0  0  0  0  0  0
   -2.2313    0.6456   12.3518 C   0  0  0  0  0  0  0  0  0  0  0  0
   -5.3467   -3.2534   13.5756 H   0  0  0  0  0  0  0  0  0  0  0  0
   -3.9673   -2.5542   12.6618 H   0  0  0  0  0  0  0  0  0  0  0  0
   -3.7532   -4.0824   13.5813 H   0  0  0  0  0  0  0  0  0  0  0  0
   -2.3284   -2.8273   14.0053 H   0  0  0  0  0  0  0  0  0  0  0  0
   -2.1987   -3.6662   16.2539 H   0  0  0  0  0  0  0  0  0  0  0  0
    0.2026   -3.2097   16.4887 H   0  0  0  0  0  0  0  0  0  0  0  0
    5.1530    1.9333   13.2492 H   0  0  0  0  0  0  0  0  0  0  0  0
    6.8398    0.8742   15.3039 H   0  0  0  0  0  0  0  0  0  0  0  0
    6.2538   -0.7636   17.3454 H   0  0  0  0  0  0  0  0  0  0  0  0
    4.5861    2.3639   11.2429 H   0  0  0  0  0  0  0  0  0  0  0  0
    3.8608    3.8171    9.3826 H   0  0  0  0  0  0  0  0  0  0  0  0
    1.3620    5.0994    8.2401 H   0  0  0  0  0  0  0  0  0  0  0  0
    0.6738    1.6202   12.0082 H   0  0  0  0  0  0  0  0  0  0  0  0
    1.0377    3.0769   12.9942 H   0  0  0  0  0  0  0  0  0  0  0  0
   -0.0962   -0.0330   13.6095 H   0  0  0  0  0  0  0  0  0  0  0  0
   -3.0495    1.0924   11.7679 H   0  0  0  0  0  0  0  0  0  0  0  0
   -1.7436    1.4252   12.9555 H   0  0  0  0  0  0  0  0  0  0  0  0
   -1.4954    0.1973   11.6681 H   0  0  0  0  0  0  0  0  0  0  0  0
  1  2  1  0  0  0  0
  2  3  1  0  0  0  0
  3  4  1  0  0  0  0
  3 27  1  0  0  0  0
  4  5  2  0  0  0  0
  5  6  1  0  0  0  0
  6  7  2  0  0  0  0
  6 26  1  0  0  0  0
  7  8  1  0  0  0  0
  8  9  2  0  0  0  0
  8 16  1  0  0  0  0
  9 10  1  0  0  0  0
 10 11  2  0  0  0  0
 10 17  1  0  0  0  0
 11 12  1  0  0  0  0
 12 13  1  0  0  0  0
 12 16  1  0  0  0  0
 13 14  2  0  0  0  0
 14 15  1  0  0  0  0
 15 16  2  0  0  0  0
 17 18  2  0  0  0  0
 17 25  1  0  0  0  0
 18 19  1  0  0  0  0
 19 20  2  0  0  0  0
 20 21  1  0  0  0  0
 20 24  1  0  0  0  0
 21 22  2  0  0  0  0
 22 23  1  0  0  0  0
 23 24  2  0  0  0  0
 24 25  1  0  0  0  0
 26 27  2  0  0  0  0
 27 28  1  0  0  0  0
 28 29  1  0  0  0  0
  1 30  1  0  0  0  0
  1 31  1  0  0  0  0
  1 32  1  0  0  0  0
  3 33  1  0  0  0  0
  4 34  1  0  0  0  0
  5 35  1  0  0  0  0
 11 36  1  0  0  0  0
 13 37  1  0  0  0  0
 14 38  1  0  0  0  0
 18 39  1  0  0  0  0
 19 40  1  0  0  0  0
 21 41  1  0  0  0  0
 25 42  1  0  0  0  0
 25 43  1  0  0  0  0
 26 44  1  0  0  0  0
 29 45  1  0  0  0  0
 29 46  1  0  0  0  0
 29 47  1  0  0  0  0
M  END
> <IC50[nM]>
3.8

$$$$
CHEMBL3265017
  -OEChem-05192314333D
 Structure written by MMmdl.
 47 51  0     0  0  0  0  0  0999 V2000
   -4.2568   -3.1045   13.5692 C   0  0  0  0  0  0  0  0  0  0  0  0
   -3.8735   -2.3609   14.7157 O   0  0  0  0  0  0  0  0  0  0  0  0
   -2.5254   -2.1112   14.8167 C   0  0  0  0  0  0  0  0  0  0  0  0
   -1.7461   -2.8700   15.6816 C   0  0  0  0  0  0  0  0  0  0  0  0
   -0.3903   -2.6103   15.8137 C   0  0  0  0  0  0  0  0  0  0  0  0
    0.2206   -1.5848   15.0868 C   0  0  0  0  0  0  0  0  0  0  0  0
    1.6038   -1.3598   15.3228 N   0  0  0  0  0  0  0  0  0  0  0  0
    2.5359   -0.4458   14.7609 C   0  0  0  0  0  0  0  0  0  0  0  0
    2.1794    0.3745   13.7258 N   0  0  0  0  0  0  0  0  0  0  0  0
    3.1126    1.2387   13.2174 C   0  0  0  0  0  0  0  0  0  0  0  0
    4.4180    1.2838   13.7013 C   0  0  0  0  0  0  0  0  0  0  0  0
    4.7460    0.4885   14.7593 N   0  0  0  0  0  0  0  0  0  0  0  0
    5.8978    0.3783   15.4862 C   0  0  0  0  0  0  0  0  0  0  0  0
    5.5892   -0.5252   16.5282 C   0  0  0  0  0  0  0  0  0  0  0  0
    4.3768   -1.0429   16.3726 N   0  0  0  0  0  0  0  0  0  0  0  0
    3.8366   -0.3928   15.3256 C   0  0  0  0  0  0  0  0  0  0  0  0
    2.6368    2.1616   12.1201 C   0  0  0  0  0  0  0  0  0  0  0  0
    3.5454    2.6408   11.1618 C   0  0  0  0  0  0  0  0  0  0  0  0
    3.1453    3.4625   10.1097 C   0  0  0  0  0  0  0  0  0  0  0  0
    1.7994    3.8163   10.0176 C   0  0  0  0  0  0  0  0  0  0  0  0
    0.9914    4.5941    9.1197 C   0  0  0  0  0  0  0  0  0  0  0  0
   -0.2494    4.6053    9.5133 N   0  0  0  0  0  0  0  0  0  0  0  0
   -0.3372    3.8935   10.6271 N   0  0  0  0  0  0  0  0  0  0  0  0
    0.8851    3.3607   10.9950 C   0  0  0  0  0  0  0  0  0  0  0  0
    1.2726    2.5413   12.0626 C   0  0  0  0  0  0  0  0  0  0  0  0
   -0.5549   -0.8187   14.1915 C   0  0  0  0  0  0  0  0  0  0  0  0
   -1.9439   -1.0882   14.0610 C   0  0  0  0  0  0  0  0  0  0  0  0
   -2.7521   -0.3548   13.2056 O   0  0  0  0  0  0  0  0  0  0  0  0
   -2.2313    0.6456   12.3518 C   0  0  0  0  0  0  0  0  0  0  0  0
   -5.3467   -3.2534   13.5756 H   0  0  0  0  0  0  0  0  0  0  0  0
   -3.9673   -2.5542   12.6618 H   0  0  0  0  0  0  0  0  0  0  0  0
   -3.7532   -4.0824   13.5813 H   0  0  0  0  0  0  0  0  0  0  0  0
   -2.1987   -3.6662   16.2539 H   0  0  0  0  0  0  0  0  0  0  0  0
   -0.2170   -2.3863   16.8766 H   0  0  0  0  0  0  0  0  0  0  0  0
    0.1337   -3.5393   15.5446 H   0  0  0  0  0  0  0  0  0  0  0  0
    5.1530    1.9333   13.2492 H   0  0  0  0  0  0  0  0  0  0  0  0
    6.8398    0.8742   15.3039 H   0  0  0  0  0  0  0  0  0  0  0  0
    6.2538   -0.7636   17.3454 H   0  0  0  0  0  0  0  0  0  0  0  0
    4.5861    2.3639   11.2429 H   0  0  0  0  0  0  0  0  0  0  0  0
    3.8608    3.8171    9.3826 H   0  0  0  0  0  0  0  0  0  0  0  0
    1.3620    5.0994    8.2401 H   0  0  0  0  0  0  0  0  0  0  0  0
    0.6738    1.6202   12.0082 H   0  0  0  0  0  0  0  0  0  0  0  0
    1.0377    3.0769   12.9942 H   0  0  0  0  0  0  0  0  0  0  0  0
   -0.0962   -0.0330   13.6095 H   0  0  0  0  0  0  0  0  0  0  0  0
   -3.0495    1.0924   11.7679 H   0  0  0  0  0  0  0  0  0  0  0  0
   -1.7436    1.4252   12.9555 H   0  0  0  0  0  0  0  0  0  0  0  0
   -1.4954    0.1973   11.6681 H   0  0  0  0  0  0  0  0  0  0  0  0
  1  2  1  0  0  0  0
  2  3  1  0  0  0  0
  3  4  2  0  0  0  0
  3 27  1  0  0  0  0
  4  5  1  0  0  0  0
  5  6  1  0  0  0  0
  6  7  2  0  0  0  0
  6 26  1  0  0  0  0
  7  8  1  0  0  0  0
  8  9  2  0  0  0  0
  8 16  1  0  0  0  0
  9 10  1  0  0  0  0
 10 11  2  0  0  0  0
 10 17  1  0  0  0  0
 11 12  1  0  0  0  0
 12 13  1  0  0  0  0
 12 16  1  0  0  0  0
 13 14  2  0  0  0  0
 14 15  1  0  0  0  0
 15 16  2  0  0  0  0
 17 18  2  0  0  0  0
 17 25  1  0  0  0  0
 18 19  1  0  0  0  0
 19 20  2  0  0  0  0
 20 21  1  0  0  0  0
 20 24  1  0  0  0  0
 21 22  2  0  0  0  0
 22 23  1  0  0  0  0
 23 24  2  0  0  0  0
 24 25  1  0  0  0  0
 26 27  2  0  0  0  0
 27 28  1  0  0  0  0
 28 29  1  0  0  0  0
  1 30  1  0  0  0  0
  1 31  1  0  0  0  0
  1 32  1  0  0  0  0
  4 33  1  0  0  0  0
  5 34  1  0  0  0  0
  5 35  1  0  0  0  0
 11 36  1  0  0  0  0
 13 37  1  0  0  0  0
 14 38  1  0  0  0  0
 18 39  1  0  0  0  0
 19 40  1  0  0  0  0
 21 41  1  0  0  0  0
 25 42  1  0  0  0  0
 25 43  1  0  0  0  0
 26 44  1  0  0  0  0
 29 45  1  0  0  0  0
 29 46  1  0  0  0  0
 29 47  1  0  0  0  0
M  END
> <IC50[nM]>
3.8

$$$$
CHEMBL3265017
  -OEChem-05192314333D
 Structure written by MMmdl.
 47 51  0     0  0  0  0  0  0999 V2000
   -4.2568   -3.1045   13.5692 C   0  0  0  0  0  0  0  0  0  0  0  0
   -3.8735   -2.3609   14.7157 O   0  0  0  0  0  0  0  0  0  0  0  0
   -2.5254   -2.1112   14.8167 C   0  0  0  0  0  0  0  0  0  0  0  0
   -1.7461   -2.8700   15.6816 C   0  0  0  0  0  0  0  0  0  0  0  0
   -0.3903   -2.6103   15.8137 C   0  0  0  0  0  0  0  0  0  0  0  0
    0.2206   -1.5848   15.0868 C   0  0  0  0  0  0  0  0  0  0  0  0
    1.6038   -1.3598   15.3228 N   0  0  0  0  0  0  0  0  0  0  0  0
    2.5359   -0.4458   14.7609 C   0  0  0  0  0  0  0  0  0  0  0  0
    2.1794    0.3745   13.7258 N   0  0  0  0  0  0  0  0  0  0  0  0
    3.1126    1.2387   13.2174 C   0  0  0  0  0  0  0  0  0  0  0  0
    4.4180    1.2838   13.7013 C   0  0  0  0  0  0  0  0  0  0  0  0
    4.7460    0.4885   14.7593 N   0  0  0  0  0  0  0  0  0  0  0  0
    5.8978    0.3783   15.4862 C   0  0  0  0  0  0  0  0  0  0  0  0
    5.5892   -0.5252   16.5282 C   0  0  0  0  0  0  0  0  0  0  0  0
    4.3768   -1.0429   16.3726 N   0  0  0  0  0  0  0  0  0  0  0  0
    3.8366   -0.3928   15.3256 C   0  0  0  0  0  0  0  0  0  0  0  0
    2.6368    2.1616   12.1201 C   0  0  0  0  0  0  0  0  0  0  0  0
    3.5454    2.6408   11.1618 C   0  0  0  0  0  0  0  0  0  0  0  0
    3.1453    3.4625   10.1097 C   0  0  0  0  0  0  0  0  0  0  0  0
    1.7994    3.8163   10.0176 C   0  0  0  0  0  0  0  0  0  0  0  0
    0.9914    4.5941    9.1197 C   0  0  0  0  0  0  0  0  0  0  0  0
   -0.2494    4.6053    9.5133 N   0  0  0  0  0  0  0  0  0  0  0  0
   -0.3372    3.8935   10.6271 N   0  0  0  0  0  0  0  0  0  0  0  0
    0.8851    3.3607   10.9950 C   0  0  0  0  0  0  0  0  0  0  0  0
    1.2726    2.5413   12.0626 C   0  0  0  0  0  0  0  0  0  0  0  0
   -0.5549   -0.8187   14.1915 C   0  0  0  0  0  0  0  0  0  0  0  0
   -1.9439   -1.0882   14.0610 C   0  0  0  0  0  0  0  0  0  0  0  0
   -2.7521   -0.3548   13.2056 O   0  0  0  0  0  0  0  0  0  0  0  0
   -2.2313    0.6456   12.3518 C   0  0  0  0  0  0  0  0  0  0  0  0
   -5.3467   -3.2534   13.5756 H   0  0  0  0  0  0  0  0  0  0  0  0
   -3.9673   -2.5542   12.6618 H   0  0  0  0  0  0  0  0  0  0  0  0
   -3.7532   -4.0824   13.5813 H   0  0  0  0  0  0  0  0  0  0  0  0
   -2.1987   -3.6662   16.2539 H   0  0  0  0  0  0  0  0  0  0  0  0
    0.2026   -3.2097   16.4887 H   0  0  0  0  0  0  0  0  0  0  0  0
    5.1530    1.9333   13.2492 H   0  0  0  0  0  0  0  0  0  0  0  0
    6.8398    0.8742   15.3039 H   0  0  0  0  0  0  0  0  0  0  0  0
    6.2538   -0.7636   17.3454 H   0  0  0  0  0  0  0  0  0  0  0  0
    4.5861    2.3639   11.2429 H   0  0  0  0  0  0  0  0  0  0  0  0
    3.8608    3.8171    9.3826 H   0  0  0  0  0  0  0  0  0  0  0  0
    1.3620    5.0994    8.2401 H   0  0  0  0  0  0  0  0  0  0  0  0
    0.6738    1.6202   12.0082 H   0  0  0  0  0  0  0  0  0  0  0  0
    1.0377    3.0769   12.9942 H   0  0  0  0  0  0  0  0  0  0  0  0
   -0.4609    0.2315   14.5048 H   0  0  0  0  0  0  0  0  0  0  0  0
   -0.1095   -0.9449   13.1937 H   0  0  0  0  0  0  0  0  0  0  0  0
   -3.0495    1.0924   11.7679 H   0  0  0  0  0  0  0  0  0  0  0  0
   -1.7436    1.4252   12.9555 H   0  0  0  0  0  0  0  0  0  0  0  0
   -1.4954    0.1973   11.6681 H   0  0  0  0  0  0  0  0  0  0  0  0
  1  2  1  0  0  0  0
  2  3  1  0  0  0  0
  3  4  1  0  0  0  0
  3 27  2  0  0  0  0
  4  5  2  0  0  0  0
  5  6  1  0  0  0  0
  6  7  2  0  0  0  0
  6 26  1  0  0  0  0
  7  8  1  0  0  0  0
  8  9  2  0  0  0  0
  8 16  1  0  0  0  0
  9 10  1  0  0  0  0
 10 11  2  0  0  0  0
 10 17  1  0  0  0  0
 11 12  1  0  0  0  0
 12 13  1  0  0  0  0
 12 16  1  0  0  0  0
 13 14  2  0  0  0  0
 14 15  1  0  0  0  0
 15 16  2  0  0  0  0
 17 18  2  0  0  0  0
 17 25  1  0  0  0  0
 18 19  1  0  0  0  0
 19 20  2  0  0  0  0
 20 21  1  0  0  0  0
 20 24  1  0  0  0  0
 21 22  2  0  0  0  0
 22 23  1  0  0  0  0
 23 24  2  0  0  0  0
 24 25  1  0  0  0  0
 26 27  1  0  0  0  0
 27 28  1  0  0  0  0
 28 29  1  0  0  0  0
  1 30  1  0  0  0  0
  1 31  1  0  0  0  0
  1 32  1  0  0  0  0
  4 33  1  0  0  0  0
  5 34  1  0  0  0  0
 11 35  1  0  0  0  0
 13 36  1  0  0  0  0
 14 37  1  0  0  0  0
 18 38  1  0  0  0  0
 19 39  1  0  0  0  0
 21 40  1  0  0  0  0
 25 41  1  0  0  0  0
 25 42  1  0  0  0  0
 26 43  1  0  0  0  0
 26 44  1  0  0  0  0
 29 45  1  0  0  0  0
 29 46  1  0  0  0  0
 29 47  1  0  0  0  0
M  END
> <IC50[nM]>
3.8

$$$$
CHEMBL3265017
  -OEChem-05192314333D
 Structure written by MMmdl.
 47 51  0     1  0  0  0  0  0999 V2000
   -4.2568   -3.1045   13.5692 C   0  0  0  0  0  0  0  0  0  0  0  0
   -3.8735   -2.3609   14.7157 O   0  0  0  0  0  0  0  0  0  0  0  0
   -2.5254   -2.1112   14.8167 C   0  0  3  0  0  0  0  0  0  0  0  0
   -1.7461   -2.8700   15.6816 C   0  0  0  0  0  0  0  0  0  0  0  0
   -0.3903   -2.6103   15.8137 C   0  0  0  0  0  0  0  0  0  0  0  0
    0.2206   -1.5848   15.0868 C   0  0  0  0  0  0  0  0  0  0  0  0
    1.6038   -1.3598   15.3228 N   0  0  0  0  0  0  0  0  0  0  0  0
    2.5359   -0.4458   14.7609 C   0  0  0  0  0  0  0  0  0  0  0  0
    2.1794    0.3745   13.7258 N   0  0  0  0  0  0  0  0  0  0  0  0
    3.1126    1.2387   13.2174 C   0  0  0  0  0  0  0  0  0  0  0  0
    4.4180    1.2838   13.7013 C   0  0  0  0  0  0  0  0  0  0  0  0
    4.7460    0.4885   14.7593 N   0  0  0  0  0  0  0  0  0  0  0  0
    5.8978    0.3783   15.4862 C   0  0  0  0  0  0  0  0  0  0  0  0
    5.5892   -0.5252   16.5282 C   0  0  0  0  0  0  0  0  0  0  0  0
    4.3768   -1.0429   16.3726 N   0  0  0  0  0  0  0  0  0  0  0  0
    3.8366   -0.3928   15.3256 C   0  0  0  0  0  0  0  0  0  0  0  0
    2.6368    2.1616   12.1201 C   0  0  3  0  0  0  0  0  0  0  0  0
    3.5454    2.6408   11.1618 C   0  0  0  0  0  0  0  0  0  0  0  0
    3.1453    3.4625   10.1097 C   0  0  0  0  0  0  0  0  0  0  0  0
    1.7994    3.8163   10.0176 C   0  0  0  0  0  0  0  0  0  0  0  0
    0.9914    4.5941    9.1197 C   0  0  0  0  0  0  0  0  0  0  0  0
   -0.2494    4.6053    9.5133 N   0  0  0  0  0  0  0  0  0  0  0  0
   -0.3372    3.8935   10.6271 N   0  0  0  0  0  0  0  0  0  0  0  0
    0.8851    3.3607   10.9950 C   0  0  0  0  0  0  0  0  0  0  0  0
    1.2726    2.5413   12.0626 C   0  0  0  0  0  0  0  0  0  0  0  0
   -0.5549   -0.8187   14.1915 C   0  0  0  0  0  0  0  0  0  0  0  0
   -1.9439   -1.0882   14.0610 C   0  0  0  0  0  0  0  0  0  0  0  0
   -2.7521   -0.3548   13.2056 O   0  0  0  0  0  0  0  0  0  0  0  0
   -2.2313    0.6456   12.3518 C   0  0  0  0  0  0  0  0  0  0  0  0
   -5.3467   -3.2534   13.5756 H   0  0  0  0  0  0  0  0  0  0  0  0
   -3.9673   -2.5542   12.6618 H   0  0  0  0  0  0  0  0  0  0  0  0
   -3.7532   -4.0824   13.5813 H   0  0  0  0  0  0  0  0  0  0  0  0
   -2.3284   -2.8273   14.0053 H   0  0  0  0  0  0  0  0  0  0  0  0
   -2.1987   -3.6662   16.2539 H   0  0  0  0  0  0  0  0  0  0  0  0
    0.2026   -3.2097   16.4887 H   0  0  0  0  0  0  0  0  0  0  0  0
    5.1530    1.9333   13.2492 H   0  0  0  0  0  0  0  0  0  0  0  0
    6.8398    0.8742   15.3039 H   0  0  0  0  0  0  0  0  0  0  0  0
    6.2538   -0.7636   17.3454 H   0  0  0  0  0  0  0  0  0  0  0  0
    2.4218    1.2920   11.4817 H   0  0  0  0  0  0  0  0  0  0  0  0
    4.5861    2.3639   11.2429 H   0  0  0  0  0  0  0  0  0  0  0  0
    3.8608    3.8171    9.3826 H   0  0  0  0  0  0  0  0  0  0  0  0
    1.3620    5.0994    8.2401 H   0  0  0  0  0  0  0  0  0  0  0  0
    0.5637    2.2135   12.8085 H   0  0  0  0  0  0  0  0  0  0  0  0
   -0.0962   -0.0330   13.6095 H   0  0  0  0  0  0  0  0  0  0  0  0
   -3.0495    1.0924   11.7679 H   0  0  0  0  0  0  0  0  0  0  0  0
   -1.7436    1.4252   12.9555 H   0  0  0  0  0  0  0  0  0  0  0  0
   -1.4954    0.1973   11.6681 H   0  0  0  0  0  0  0  0  0  0  0  0
  1  2  1  0  0  0  0
  2  3  1  0  0  0  0
  3  4  1  0  0  0  0
  3 27  1  0  0  0  0
  4  5  2  0  0  0  0
  5  6  1  0  0  0  0
  6  7  2  0  0  0  0
  6 26  1  0  0  0  0
  7  8  1  0  0  0  0
  8  9  2  0  0  0  0
  8 16  1  0  0  0  0
  9 10  1  0  0  0  0
 10 11  2  0  0  0  0
 10 17  1  0  0  0  0
 11 12  1  0  0  0  0
 12 13  1  0  0  0  0
 12 16  1  0  0  0  0
 13 14  2  0  0  0  0
 14 15  1  0  0  0  0
 15 16  2  0  0  0  0
 17 18  1  0  0  0  0
 17 25  1  0  0  0  0
 18 19  2  0  0  0  0
 19 20  1  0  0  0  0
 20 21  2  0  0  0  0
 20 24  1  0  0  0  0
 21 22  1  0  0  0  0
 22 23  2  0  0  0  0
 23 24  1  0  0  0  0
 24 25  2  0  0  0  0
 26 27  2  0  0  0  0
 27 28  1  0  0  0  0
 28 29  1  0  0  0  0
  1 30  1  0  0  0  0
  1 31  1  0  0  0  0
  1 32  1  0  0  0  0
  3 33  1  0  0  0  0
  4 34  1  0  0  0  0
  5 35  1  0  0  0  0
 11 36  1  0  0  0  0
 13 37  1  0  0  0  0
 14 38  1  0  0  0  0
 17 39  1  0  0  0  0
 18 40  1  0  0  0  0
 19 41  1  0  0  0  0
 21 42  1  0  0  0  0
 25 43  1  0  0  0  0
 26 44  1  0  0  0  0
 29 45  1  0  0  0  0
 29 46  1  0  0  0  0
 29 47  1  0  0  0  0
M  END
> <IC50[nM]>
3.8

$$$$
CHEMBL3265017
  -OEChem-05192314333D
 Structure written by MMmdl.
 47 51  0     1  0  0  0  0  0999 V2000
   -4.2568   -3.1045   13.5692 C   0  0  0  0  0  0  0  0  0  0  0  0
   -3.8735   -2.3609   14.7157 O   0  0  0  0  0  0  0  0  0  0  0  0
   -2.5254   -2.1112   14.8167 C   0  0  3  0  0  0  0  0  0  0  0  0
   -1.7461   -2.8700   15.6816 C   0  0  0  0  0  0  0  0  0  0  0  0
   -0.3903   -2.6103   15.8137 C   0  0  0  0  0  0  0  0  0  0  0  0
    0.2206   -1.5848   15.0868 C   0  0  0  0  0  0  0  0  0  0  0  0
    1.6038   -1.3598   15.3228 N   0  0  0  0  0  0  0  0  0  0  0  0
    2.5359   -0.4458   14.7609 C   0  0  0  0  0  0  0  0  0  0  0  0
    2.1794    0.3745   13.7258 N   0  0  0  0  0  0  0  0  0  0  0  0
    3.1126    1.2387   13.2174 C   0  0  0  0  0  0  0  0  0  0  0  0
    4.4180    1.2838   13.7013 C   0  0  0  0  0  0  0  0  0  0  0  0
    4.7460    0.4885   14.7593 N   0  0  0  0  0  0  0  0  0  0  0  0
    5.8978    0.3783   15.4862 C   0  0  0  0  0  0  0  0  0  0  0  0
    5.5892   -0.5252   16.5282 C   0  0  0  0  0  0  0  0  0  0  0  0
    4.3768   -1.0429   16.3726 N   0  0  0  0  0  0  0  0  0  0  0  0
    3.8366   -0.3928   15.3256 C   0  0  0  0  0  0  0  0  0  0  0  0
    2.6368    2.1616   12.1201 C   0  0  0  0  0  0  0  0  0  0  0  0
    3.5454    2.6408   11.1618 C   0  0  0  0  0  0  0  0  0  0  0  0
    3.1453    3.4625   10.1097 C   0  0  0  0  0  0  0  0  0  0  0  0
    1.7994    3.8163   10.0176 C   0  0  0  0  0  0  0  0  0  0  0  0
    0.9914    4.5941    9.1197 C   0  0  0  0  0  0  0  0  0  0  0  0
   -0.2494    4.6053    9.5133 N   0  0  0  0  0  0  0  0  0  0  0  0
   -0.3372    3.8935   10.6271 N   0  0  0  0  0  0  0  0  0  0  0  0
    0.8851    3.3607   10.9950 C   0  0  3  0  0  0  0  0  0  0  0  0
    1.2726    2.5413   12.0626 C   0  0  0  0  0  0  0  0  0  0  0  0
   -0.5549   -0.8187   14.1915 C   0  0  0  0  0  0  0  0  0  0  0  0
   -1.9439   -1.0882   14.0610 C   0  0  0  0  0  0  0  0  0  0  0  0
   -2.7521   -0.3548   13.2056 O   0  0  0  0  0  0  0  0  0  0  0  0
   -2.2313    0.6456   12.3518 C   0  0  0  0  0  0  0  0  0  0  0  0
   -5.3467   -3.2534   13.5756 H   0  0  0  0  0  0  0  0  0  0  0  0
   -3.9673   -2.5542   12.6618 H   0  0  0  0  0  0  0  0  0  0  0  0
   -3.7532   -4.0824   13.5813 H   0  0  0  0  0  0  0  0  0  0  0  0
   -2.3284   -2.8273   14.0053 H   0  0  0  0  0  0  0  0  0  0  0  0
   -2.1987   -3.6662   16.2539 H   0  0  0  0  0  0  0  0  0  0  0  0
    0.2026   -3.2097   16.4887 H   0  0  0  0  0  0  0  0  0  0  0  0
    5.1530    1.9333   13.2492 H   0  0  0  0  0  0  0  0  0  0  0  0
    6.8398    0.8742   15.3039 H   0  0  0  0  0  0  0  0  0  0  0  0
    6.2538   -0.7636   17.3454 H   0  0  0  0  0  0  0  0  0  0  0  0
    4.5861    2.3639   11.2429 H   0  0  0  0  0  0  0  0  0  0  0  0
    3.8608    3.8171    9.3826 H   0  0  0  0  0  0  0  0  0  0  0  0
    1.3620    5.0994    8.2401 H   0  0  0  0  0  0  0  0  0  0  0  0
    1.0912    4.2530   11.6044 H   0  0  0  0  0  0  0  0  0  0  0  0
    0.5637    2.2135   12.8085 H   0  0  0  0  0  0  0  0  0  0  0  0
   -0.0962   -0.0330   13.6095 H   0  0  0  0  0  0  0  0  0  0  0  0
   -3.0495    1.0924   11.7679 H   0  0  0  0  0  0  0  0  0  0  0  0
   -1.7436    1.4252   12.9555 H   0  0  0  0  0  0  0  0  0  0  0  0
   -1.4954    0.1973   11.6681 H   0  0  0  0  0  0  0  0  0  0  0  0
  1  2  1  0  0  0  0
  2  3  1  0  0  0  0
  3  4  1  0  0  0  0
  3 27  1  0  0  0  0
  4  5  2  0  0  0  0
  5  6  1  0  0  0  0
  6  7  2  0  0  0  0
  6 26  1  0  0  0  0
  7  8  1  0  0  0  0
  8  9  2  0  0  0  0
  8 16  1  0  0  0  0
  9 10  1  0  0  0  0
 10 11  2  0  0  0  0
 10 17  1  0  0  0  0
 11 12  1  0  0  0  0
 12 13  1  0  0  0  0
 12 16  1  0  0  0  0
 13 14  2  0  0  0  0
 14 15  1  0  0  0  0
 15 16  2  0  0  0  0
 17 18  1  0  0  0  0
 17 25  2  0  0  0  0
 18 19  2  0  0  0  0
 19 20  1  0  0  0  0
 20 21  2  0  0  0  0
 20 24  1  0  0  0  0
 21 22  1  0  0  0  0
 22 23  2  0  0  0  0
 23 24  1  0  0  0  0
 24 25  1  0  0  0  0
 26 27  2  0  0  0  0
 27 28  1  0  0  0  0
 28 29  1  0  0  0  0
  1 30  1  0  0  0  0
  1 31  1  0  0  0  0
  1 32  1  0  0  0  0
  3 33  1  0  0  0  0
  4 34  1  0  0  0  0
  5 35  1  0  0  0  0
 11 36  1  0  0  0  0
 13 37  1  0  0  0  0
 14 38  1  0  0  0  0
 18 39  1  0  0  0  0
 19 40  1  0  0  0  0
 21 41  1  0  0  0  0
 24 42  1  0  0  0  0
 25 43  1  0  0  0  0
 26 44  1  0  0  0  0
 29 45  1  0  0  0  0
 29 46  1  0  0  0  0
 29 47  1  0  0  0  0
M  END
> <IC50[nM]>
3.8

$$$$
CHEMBL3265017
  -OEChem-05192314333D
 Structure written by MMmdl.
 47 51  0     1  0  0  0  0  0999 V2000
   -4.2568   -3.1045   13.5692 C   0  0  0  0  0  0  0  0  0  0  0  0
   -3.8735   -2.3609   14.7157 O   0  0  0  0  0  0  0  0  0  0  0  0
   -2.5254   -2.1112   14.8167 C   0  0  0  0  0  0  0  0  0  0  0  0
   -1.7461   -2.8700   15.6816 C   0  0  0  0  0  0  0  0  0  0  0  0
   -0.3903   -2.6103   15.8137 C   0  0  0  0  0  0  0  0  0  0  0  0
    0.2206   -1.5848   15.0868 C   0  0  0  0  0  0  0  0  0  0  0  0
    1.6038   -1.3598   15.3228 N   0  0  0  0  0  0  0  0  0  0  0  0
    2.5359   -0.4458   14.7609 C   0  0  0  0  0  0  0  0  0  0  0  0
    2.1794    0.3745   13.7258 N   0  0  0  0  0  0  0  0  0  0  0  0
    3.1126    1.2387   13.2174 C   0  0  0  0  0  0  0  0  0  0  0  0
    4.4180    1.2838   13.7013 C   0  0  0  0  0  0  0  0  0  0  0  0
    4.7460    0.4885   14.7593 N   0  0  0  0  0  0  0  0  0  0  0  0
    5.8978    0.3783   15.4862 C   0  0  0  0  0  0  0  0  0  0  0  0
    5.5892   -0.5252   16.5282 C   0  0  0  0  0  0  0  0  0  0  0  0
    4.3768   -1.0429   16.3726 N   0  0  0  0  0  0  0  0  0  0  0  0
    3.8366   -0.3928   15.3256 C   0  0  0  0  0  0  0  0  0  0  0  0
    2.6368    2.1616   12.1201 C   0  0  3  0  0  0  0  0  0  0  0  0
    3.5454    2.6408   11.1618 C   0  0  0  0  0  0  0  0  0  0  0  0
    3.1453    3.4625   10.1097 C   0  0  0  0  0  0  0  0  0  0  0  0
    1.7994    3.8163   10.0176 C   0  0  0  0  0  0  0  0  0  0  0  0
    0.9914    4.5941    9.1197 C   0  0  0  0  0  0  0  0  0  0  0  0
   -0.2494    4.6053    9.5133 N   0  0  0  0  0  0  0  0  0  0  0  0
   -0.3372    3.8935   10.6271 N   0  0  0  0  0  0  0  0  0  0  0  0
    0.8851    3.3607   10.9950 C   0  0  0  0  0  0  0  0  0  0  0  0
    1.2726    2.5413   12.0626 C   0  0  0  0  0  0  0  0  0  0  0  0
   -0.5549   -0.8187   14.1915 C   0  0  0  0  0  0  0  0  0  0  0  0
   -1.9439   -1.0882   14.0610 C   0  0  0  0  0  0  0  0  0  0  0  0
   -2.7521   -0.3548   13.2056 O   0  0  0  0  0  0  0  0  0  0  0  0
   -2.2313    0.6456   12.3518 C   0  0  0  0  0  0  0  0  0  0  0  0
   -5.3467   -3.2534   13.5756 H   0  0  0  0  0  0  0  0  0  0  0  0
   -3.9673   -2.5542   12.6618 H   0  0  0  0  0  0  0  0  0  0  0  0
   -3.7532   -4.0824   13.5813 H   0  0  0  0  0  0  0  0  0  0  0  0
   -2.1987   -3.6662   16.2539 H   0  0  0  0  0  0  0  0  0  0  0  0
   -0.2170   -2.3863   16.8766 H   0  0  0  0  0  0  0  0  0  0  0  0
    0.1337   -3.5393   15.5446 H   0  0  0  0  0  0  0  0  0  0  0  0
    5.1530    1.9333   13.2492 H   0  0  0  0  0  0  0  0  0  0  0  0
    6.8398    0.8742   15.3039 H   0  0  0  0  0  0  0  0  0  0  0  0
    6.2538   -0.7636   17.3454 H   0  0  0  0  0  0  0  0  0  0  0  0
    2.4218    1.2920   11.4817 H   0  0  0  0  0  0  0  0  0  0  0  0
    4.5861    2.3639   11.2429 H   0  0  0  0  0  0  0  0  0  0  0  0
    3.8608    3.8171    9.3826 H   0  0  0  0  0  0  0  0  0  0  0  0
    1.3620    5.0994    8.2401 H   0  0  0  0  0  0  0  0  0  0  0  0
    0.5637    2.2135   12.8085 H   0  0  0  0  0  0  0  0  0  0  0  0
   -0.0962   -0.0330   13.6095 H   0  0  0  0  0  0  0  0  0  0  0  0
   -3.0495    1.0924   11.7679 H   0  0  0  0  0  0  0  0  0  0  0  0
   -1.7436    1.4252   12.9555 H   0  0  0  0  0  0  0  0  0  0  0  0
   -1.4954    0.1973   11.6681 H   0  0  0  0  0  0  0  0  0  0  0  0
  1  2  1  0  0  0  0
  2  3  1  0  0  0  0
  3  4  2  0  0  0  0
  3 27  1  0  0  0  0
  4  5  1  0  0  0  0
  5  6  1  0  0  0  0
  6  7  2  0  0  0  0
  6 26  1  0  0  0  0
  7  8  1  0  0  0  0
  8  9  2  0  0  0  0
  8 16  1  0  0  0  0
  9 10  1  0  0  0  0
 10 11  2  0  0  0  0
 10 17  1  0  0  0  0
 11 12  1  0  0  0  0
 12 13  1  0  0  0  0
 12 16  1  0  0  0  0
 13 14  2  0  0  0  0
 14 15  1  0  0  0  0
 15 16  2  0  0  0  0
 17 18  1  0  0  0  0
 17 25  1  0  0  0  0
 18 19  2  0  0  0  0
 19 20  1  0  0  0  0
 20 21  2  0  0  0  0
 20 24  1  0  0  0  0
 21 22  1  0  0  0  0
 22 23  2  0  0  0  0
 23 24  1  0  0  0  0
 24 25  2  0  0  0  0
 26 27  2  0  0  0  0
 27 28  1  0  0  0  0
 28 29  1  0  0  0  0
  1 30  1  0  0  0  0
  1 31  1  0  0  0  0
  1 32  1  0  0  0  0
  4 33  1  0  0  0  0
  5 34  1  0  0  0  0
  5 35  1  0  0  0  0
 11 36  1  0  0  0  0
 13 37  1  0  0  0  0
 14 38  1  0  0  0  0
 17 39  1  0  0  0  0
 18 40  1  0  0  0  0
 19 41  1  0  0  0  0
 21 42  1  0  0  0  0
 25 43  1  0  0  0  0
 26 44  1  0  0  0  0
 29 45  1  0  0  0  0
 29 46  1  0  0  0  0
 29 47  1  0  0  0  0
M  END
> <IC50[nM]>
3.8

$$$$
CHEMBL3265017
  -OEChem-05192314333D
 Structure written by MMmdl.
 47 51  0     1  0  0  0  0  0999 V2000
   -4.2568   -3.1045   13.5692 C   0  0  0  0  0  0  0  0  0  0  0  0
   -3.8735   -2.3609   14.7157 O   0  0  0  0  0  0  0  0  0  0  0  0
   -2.5254   -2.1112   14.8167 C   0  0  0  0  0  0  0  0  0  0  0  0
   -1.7461   -2.8700   15.6816 C   0  0  0  0  0  0  0  0  0  0  0  0
   -0.3903   -2.6103   15.8137 C   0  0  0  0  0  0  0  0  0  0  0  0
    0.2206   -1.5848   15.0868 C   0  0  0  0  0  0  0  0  0  0  0  0
    1.6038   -1.3598   15.3228 N   0  0  0  0  0  0  0  0  0  0  0  0
    2.5359   -0.4458   14.7609 C   0  0  0  0  0  0  0  0  0  0  0  0
    2.1794    0.3745   13.7258 N   0  0  0  0  0  0  0  0  0  0  0  0
    3.1126    1.2387   13.2174 C   0  0  0  0  0  0  0  0  0  0  0  0
    4.4180    1.2838   13.7013 C   0  0  0  0  0  0  0  0  0  0  0  0
    4.7460    0.4885   14.7593 N   0  0  0  0  0  0  0  0  0  0  0  0
    5.8978    0.3783   15.4862 C   0  0  0  0  0  0  0  0  0  0  0  0
    5.5892   -0.5252   16.5282 C   0  0  0  0  0  0  0  0  0  0  0  0
    4.3768   -1.0429   16.3726 N   0  0  0  0  0  0  0  0  0  0  0  0
    3.8366   -0.3928   15.3256 C   0  0  0  0  0  0  0  0  0  0  0  0
    2.6368    2.1616   12.1201 C   0  0  0  0  0  0  0  0  0  0  0  0
    3.5454    2.6408   11.1618 C   0  0  0  0  0  0  0  0  0  0  0  0
    3.1453    3.4625   10.1097 C   0  0  0  0  0  0  0  0  0  0  0  0
    1.7994    3.8163   10.0176 C   0  0  0  0  0  0  0  0  0  0  0  0
    0.9914    4.5941    9.1197 C   0  0  0  0  0  0  0  0  0  0  0  0
   -0.2494    4.6053    9.5133 N   0  0  0  0  0  0  0  0  0  0  0  0
   -0.3372    3.8935   10.6271 N   0  0  0  0  0  0  0  0  0  0  0  0
    0.8851    3.3607   10.9950 C   0  0  3  0  0  0  0  0  0  0  0  0
    1.2726    2.5413   12.0626 C   0  0  0  0  0  0  0  0  0  0  0  0
   -0.5549   -0.8187   14.1915 C   0  0  0  0  0  0  0  0  0  0  0  0
   -1.9439   -1.0882   14.0610 C   0  0  0  0  0  0  0  0  0  0  0  0
   -2.7521   -0.3548   13.2056 O   0  0  0  0  0  0  0  0  0  0  0  0
   -2.2313    0.6456   12.3518 C   0  0  0  0  0  0  0  0  0  0  0  0
   -5.3467   -3.2534   13.5756 H   0  0  0  0  0  0  0  0  0  0  0  0
   -3.9673   -2.5542   12.6618 H   0  0  0  0  0  0  0  0  0  0  0  0
   -3.7532   -4.0824   13.5813 H   0  0  0  0  0  0  0  0  0  0  0  0
   -2.1987   -3.6662   16.2539 H   0  0  0  0  0  0  0  0  0  0  0  0
   -0.2170   -2.3863   16.8766 H   0  0  0  0  0  0  0  0  0  0  0  0
    0.1337   -3.5393   15.5446 H   0  0  0  0  0  0  0  0  0  0  0  0
    5.1530    1.9333   13.2492 H   0  0  0  0  0  0  0  0  0  0  0  0
    6.8398    0.8742   15.3039 H   0  0  0  0  0  0  0  0  0  0  0  0
    6.2538   -0.7636   17.3454 H   0  0  0  0  0  0  0  0  0  0  0  0
    4.5861    2.3639   11.2429 H   0  0  0  0  0  0  0  0  0  0  0  0
    3.8608    3.8171    9.3826 H   0  0  0  0  0  0  0  0  0  0  0  0
    1.3620    5.0994    8.2401 H   0  0  0  0  0  0  0  0  0  0  0  0
    1.0912    4.2530   11.6044 H   0  0  0  0  0  0  0  0  0  0  0  0
    0.5637    2.2135   12.8085 H   0  0  0  0  0  0  0  0  0  0  0  0
   -0.0962   -0.0330   13.6095 H   0  0  0  0  0  0  0  0  0  0  0  0
   -3.0495    1.0924   11.7679 H   0  0  0  0  0  0  0  0  0  0  0  0
   -1.7436    1.4252   12.9555 H   0  0  0  0  0  0  0  0  0  0  0  0
   -1.4954    0.1973   11.6681 H   0  0  0  0  0  0  0  0  0  0  0  0
  1  2  1  0  0  0  0
  2  3  1  0  0  0  0
  3  4  2  0  0  0  0
  3 27  1  0  0  0  0
  4  5  1  0  0  0  0
  5  6  1  0  0  0  0
  6  7  2  0  0  0  0
  6 26  1  0  0  0  0
  7  8  1  0  0  0  0
  8  9  2  0  0  0  0
  8 16  1  0  0  0  0
  9 10  1  0  0  0  0
 10 11  2  0  0  0  0
 10 17  1  0  0  0  0
 11 12  1  0  0  0  0
 12 13  1  0  0  0  0
 12 16  1  0  0  0  0
 13 14  2  0  0  0  0
 14 15  1  0  0  0  0
 15 16  2  0  0  0  0
 17 18  1  0  0  0  0
 17 25  2  0  0  0  0
 18 19  2  0  0  0  0
 19 20  1  0  0  0  0
 20 21  2  0  0  0  0
 20 24  1  0  0  0  0
 21 22  1  0  0  0  0
 22 23  2  0  0  0  0
 23 24  1  0  0  0  0
 24 25  1  0  0  0  0
 26 27  2  0  0  0  0
 27 28  1  0  0  0  0
 28 29  1  0  0  0  0
  1 30  1  0  0  0  0
  1 31  1  0  0  0  0
  1 32  1  0  0  0  0
  4 33  1  0  0  0  0
  5 34  1  0  0  0  0
  5 35  1  0  0  0  0
 11 36  1  0  0  0  0
 13 37  1  0  0  0  0
 14 38  1  0  0  0  0
 18 39  1  0  0  0  0
 19 40  1  0  0  0  0
 21 41  1  0  0  0  0
 24 42  1  0  0  0  0
 25 43  1  0  0  0  0
 26 44  1  0  0  0  0
 29 45  1  0  0  0  0
 29 46  1  0  0  0  0
 29 47  1  0  0  0  0
M  END
> <IC50[nM]>
3.8

$$$$
CHEMBL3265017
  -OEChem-05192314333D
 Structure written by MMmdl.
 47 51  0     1  0  0  0  0  0999 V2000
   -4.2568   -3.1045   13.5692 C   0  0  0  0  0  0  0  0  0  0  0  0
   -3.8735   -2.3609   14.7157 O   0  0  0  0  0  0  0  0  0  0  0  0
   -2.5254   -2.1112   14.8167 C   0  0  3  0  0  0  0  0  0  0  0  0
   -1.7461   -2.8700   15.6816 C   0  0  0  0  0  0  0  0  0  0  0  0
   -0.3903   -2.6103   15.8137 C   0  0  0  0  0  0  0  0  0  0  0  0
    0.2206   -1.5848   15.0868 C   0  0  0  0  0  0  0  0  0  0  0  0
    1.6038   -1.3598   15.3228 N   0  0  0  0  0  0  0  0  0  0  0  0
    2.5359   -0.4458   14.7609 C   0  0  0  0  0  0  0  0  0  0  0  0
    2.1794    0.3745   13.7258 N   0  0  0  0  0  0  0  0  0  0  0  0
    3.1126    1.2387   13.2174 C   0  0  0  0  0  0  0  0  0  0  0  0
    4.4180    1.2838   13.7013 C   0  0  0  0  0  0  0  0  0  0  0  0
    4.7460    0.4885   14.7593 N   0  0  0  0  0  0  0  0  0  0  0  0
    5.8978    0.3783   15.4862 C   0  0  0  0  0  0  0  0  0  0  0  0
    5.5892   -0.5252   16.5282 C   0  0  0  0  0  0  0  0  0  0  0  0
    4.3768   -1.0429   16.3726 N   0  0  0  0  0  0  0  0  0  0  0  0
    3.8366   -0.3928   15.3256 C   0  0  0  0  0  0  0  0  0  0  0  0
    2.6368    2.1616   12.1201 C   0  0  0  0  0  0  0  0  0  0  0  0
    3.5454    2.6408   11.1618 C   0  0  0  0  0  0  0  0  0  0  0  0
    3.1453    3.4625   10.1097 C   0  0  0  0  0  0  0  0  0  0  0  0
    1.7994    3.8163   10.0176 C   0  0  0  0  0  0  0  0  0  0  0  0
    0.9914    4.5941    9.1197 C   0  0  0  0  0  0  0  0  0  0  0  0
   -0.2494    4.6053    9.5133 N   0  0  0  0  0  0  0  0  0  0  0  0
   -0.3372    3.8935   10.6271 N   0  0  0  0  0  0  0  0  0  0  0  0
    0.8851    3.3607   10.9950 C   0  0  0  0  0  0  0  0  0  0  0  0
    1.2726    2.5413   12.0626 C   0  0  0  0  0  0  0  0  0  0  0  0
   -0.5549   -0.8187   14.1915 C   0  0  0  0  0  0  0  0  0  0  0  0
   -1.9439   -1.0882   14.0610 C   0  0  0  0  0  0  0  0  0  0  0  0
   -2.7521   -0.3548   13.2056 O   0  0  0  0  0  0  0  0  0  0  0  0
   -2.2313    0.6456   12.3518 C   0  0  0  0  0  0  0  0  0  0  0  0
   -5.3467   -3.2534   13.5756 H   0  0  0  0  0  0  0  0  0  0  0  0
   -3.9673   -2.5542   12.6618 H   0  0  0  0  0  0  0  0  0  0  0  0
   -3.7532   -4.0824   13.5813 H   0  0  0  0  0  0  0  0  0  0  0  0
   -2.3284   -2.8273   14.0053 H   0  0  0  0  0  0  0  0  0  0  0  0
   -2.1987   -3.6662   16.2539 H   0  0  0  0  0  0  0  0  0  0  0  0
    0.2026   -3.2097   16.4887 H   0  0  0  0  0  0  0  0  0  0  0  0
    5.1530    1.9333   13.2492 H   0  0  0  0  0  0  0  0  0  0  0  0
    6.8398    0.8742   15.3039 H   0  0  0  0  0  0  0  0  0  0  0  0
    6.2538   -0.7636   17.3454 H   0  0  0  0  0  0  0  0  0  0  0  0
    4.5861    2.3639   11.2429 H   0  0  0  0  0  0  0  0  0  0  0  0
    3.7219    4.3959   10.1890 H   0  0  0  0  0  0  0  0  0  0  0  0
    3.4102    2.9461    9.1753 H   0  0  0  0  0  0  0  0  0  0  0  0
    1.3620    5.0994    8.2401 H   0  0  0  0  0  0  0  0  0  0  0  0
    0.5637    2.2135   12.8085 H   0  0  0  0  0  0  0  0  0  0  0  0
   -0.0962   -0.0330   13.6095 H   0  0  0  0  0  0  0  0  0  0  0  0
   -3.0495    1.0924   11.7679 H   0  0  0  0  0  0  0  0  0  0  0  0
   -1.7436    1.4252   12.9555 H   0  0  0  0  0  0  0  0  0  0  0  0
   -1.4954    0.1973   11.6681 H   0  0  0  0  0  0  0  0  0  0  0  0
  1  2  1  0  0  0  0
  2  3  1  0  0  0  0
  3  4  1  0  0  0  0
  3 27  1  0  0  0  0
  4  5  2  0  0  0  0
  5  6  1  0  0  0  0
  6  7  2  0  0  0  0
  6 26  1  0  0  0  0
  7  8  1  0  0  0  0
  8  9  2  0  0  0  0
  8 16  1  0  0  0  0
  9 10  1  0  0  0  0
 10 11  2  0  0  0  0
 10 17  1  0  0  0  0
 11 12  1  0  0  0  0
 12 13  1  0  0  0  0
 12 16  1  0  0  0  0
 13 14  2  0  0  0  0
 14 15  1  0  0  0  0
 15 16  2  0  0  0  0
 17 18  2  0  0  0  0
 17 25  1  0  0  0  0
 18 19  1  0  0  0  0
 19 20  1  0  0  0  0
 20 21  2  0  0  0  0
 20 24  1  0  0  0  0
 21 22  1  0  0  0  0
 22 23  2  0  0  0  0
 23 24  1  0  0  0  0
 24 25  2  0  0  0  0
 26 27  2  0  0  0  0
 27 28  1  0  0  0  0
 28 29  1  0  0  0  0
  1 30  1  0  0  0  0
  1 31  1  0  0  0  0
  1 32  1  0  0  0  0
  3 33  1  0  0  0  0
  4 34  1  0  0  0  0
  5 35  1  0  0  0  0
 11 36  1  0  0  0  0
 13 37  1  0  0  0  0
 14 38  1  0  0  0  0
 18 39  1  0  0  0  0
 19 40  1  0  0  0  0
 19 41  1  0  0  0  0
 21 42  1  0  0  0  0
 25 43  1  0  0  0  0
 26 44  1  0  0  0  0
 29 45  1  0  0  0  0
 29 46  1  0  0  0  0
 29 47  1  0  0  0  0
M  END
> <IC50[nM]>
3.8

$$$$
CHEMBL3265017
  -OEChem-05192314333D
 Structure written by MMmdl.
 47 51  0     0  0  0  0  0  0999 V2000
   -4.2568   -3.1045   13.5692 C   0  0  0  0  0  0  0  0  0  0  0  0
   -3.8735   -2.3609   14.7157 O   0  0  0  0  0  0  0  0  0  0  0  0
   -2.5254   -2.1112   14.8167 C   0  0  0  0  0  0  0  0  0  0  0  0
   -1.7461   -2.8700   15.6816 C   0  0  0  0  0  0  0  0  0  0  0  0
   -0.3903   -2.6103   15.8137 C   0  0  0  0  0  0  0  0  0  0  0  0
    0.2206   -1.5848   15.0868 C   0  0  0  0  0  0  0  0  0  0  0  0
    1.6038   -1.3598   15.3228 N   0  0  0  0  0  0  0  0  0  0  0  0
    2.5359   -0.4458   14.7609 C   0  0  0  0  0  0  0  0  0  0  0  0
    2.1794    0.3745   13.7258 N   0  0  0  0  0  0  0  0  0  0  0  0
    3.1126    1.2387   13.2174 C   0  0  0  0  0  0  0  0  0  0  0  0
    4.4180    1.2838   13.7013 C   0  0  0  0  0  0  0  0  0  0  0  0
    4.7460    0.4885   14.7593 N   0  0  0  0  0  0  0  0  0  0  0  0
    5.8978    0.3783   15.4862 C   0  0  0  0  0  0  0  0  0  0  0  0
    5.5892   -0.5252   16.5282 C   0  0  0  0  0  0  0  0  0  0  0  0
    4.3768   -1.0429   16.3726 N   0  0  0  0  0  0  0  0  0  0  0  0
    3.8366   -0.3928   15.3256 C   0  0  0  0  0  0  0  0  0  0  0  0
    2.6368    2.1616   12.1201 C   0  0  0  0  0  0  0  0  0  0  0  0
    3.5454    2.6408   11.1618 C   0  0  0  0  0  0  0  0  0  0  0  0
    3.1453    3.4625   10.1097 C   0  0  0  0  0  0  0  0  0  0  0  0
    1.7994    3.8163   10.0176 C   0  0  0  0  0  0  0  0  0  0  0  0
    0.9914    4.5941    9.1197 C   0  0  0  0  0  0  0  0  0  0  0  0
   -0.2494    4.6053    9.5133 N   0  0  0  0  0  0  0  0  0  0  0  0
   -0.3372    3.8935   10.6271 N   0  0  0  0  0  0  0  0  0  0  0  0
    0.8851    3.3607   10.9950 C   0  0  0  0  0  0  0  0  0  0  0  0
    1.2726    2.5413   12.0626 C   0  0  0  0  0  0  0  0  0  0  0  0
   -0.5549   -0.8187   14.1915 C   0  0  0  0  0  0  0  0  0  0  0  0
   -1.9439   -1.0882   14.0610 C   0  0  0  0  0  0  0  0  0  0  0  0
   -2.7521   -0.3548   13.2056 O   0  0  0  0  0  0  0  0  0  0  0  0
   -2.2313    0.6456   12.3518 C   0  0  0  0  0  0  0  0  0  0  0  0
   -5.3467   -3.2534   13.5756 H   0  0  0  0  0  0  0  0  0  0  0  0
   -3.9673   -2.5542   12.6618 H   0  0  0  0  0  0  0  0  0  0  0  0
   -3.7532   -4.0824   13.5813 H   0  0  0  0  0  0  0  0  0  0  0  0
   -2.1987   -3.6662   16.2539 H   0  0  0  0  0  0  0  0  0  0  0  0
   -0.2170   -2.3863   16.8766 H   0  0  0  0  0  0  0  0  0  0  0  0
    0.1337   -3.5393   15.5446 H   0  0  0  0  0  0  0  0  0  0  0  0
    5.1530    1.9333   13.2492 H   0  0  0  0  0  0  0  0  0  0  0  0
    6.8398    0.8742   15.3039 H   0  0  0  0  0  0  0  0  0  0  0  0
    6.2538   -0.7636   17.3454 H   0  0  0  0  0  0  0  0  0  0  0  0
    4.5861    2.3639   11.2429 H   0  0  0  0  0  0  0  0  0  0  0  0
    3.7219    4.3959   10.1890 H   0  0  0  0  0  0  0  0  0  0  0  0
    3.4102    2.9461    9.1753 H   0  0  0  0  0  0  0  0  0  0  0  0
    1.3620    5.0994    8.2401 H   0  0  0  0  0  0  0  0  0  0  0  0
    0.5637    2.2135   12.8085 H   0  0  0  0  0  0  0  0  0  0  0  0
   -0.0962   -0.0330   13.6095 H   0  0  0  0  0  0  0  0  0  0  0  0
   -3.0495    1.0924   11.7679 H   0  0  0  0  0  0  0  0  0  0  0  0
   -1.7436    1.4252   12.9555 H   0  0  0  0  0  0  0  0  0  0  0  0
   -1.4954    0.1973   11.6681 H   0  0  0  0  0  0  0  0  0  0  0  0
  1  2  1  0  0  0  0
  2  3  1  0  0  0  0
  3  4  2  0  0  0  0
  3 27  1  0  0  0  0
  4  5  1  0  0  0  0
  5  6  1  0  0  0  0
  6  7  2  0  0  0  0
  6 26  1  0  0  0  0
  7  8  1  0  0  0  0
  8  9  2  0  0  0  0
  8 16  1  0  0  0  0
  9 10  1  0  0  0  0
 10 11  2  0  0  0  0
 10 17  1  0  0  0  0
 11 12  1  0  0  0  0
 12 13  1  0  0  0  0
 12 16  1  0  0  0  0
 13 14  2  0  0  0  0
 14 15  1  0  0  0  0
 15 16  2  0  0  0  0
 17 18  2  0  0  0  0
 17 25  1  0  0  0  0
 18 19  1  0  0  0  0
 19 20  1  0  0  0  0
 20 21  2  0  0  0  0
 20 24  1  0  0  0  0
 21 22  1  0  0  0  0
 22 23  2  0  0  0  0
 23 24  1  0  0  0  0
 24 25  2  0  0  0  0
 26 27  2  0  0  0  0
 27 28  1  0  0  0  0
 28 29  1  0  0  0  0
  1 30  1  0  0  0  0
  1 31  1  0  0  0  0
  1 32  1  0  0  0  0
  4 33  1  0  0  0  0
  5 34  1  0  0  0  0
  5 35  1  0  0  0  0
 11 36  1  0  0  0  0
 13 37  1  0  0  0  0
 14 38  1  0  0  0  0
 18 39  1  0  0  0  0
 19 40  1  0  0  0  0
 19 41  1  0  0  0  0
 21 42  1  0  0  0  0
 25 43  1  0  0  0  0
 26 44  1  0  0  0  0
 29 45  1  0  0  0  0
 29 46  1  0  0  0  0
 29 47  1  0  0  0  0
M  END
> <IC50[nM]>
3.8

$$$$
CHEMBL3265017
  -OEChem-05192314333D
 Structure written by MMmdl.
 47 51  0     1  0  0  0  0  0999 V2000
   -4.2568   -3.1045   13.5692 C   0  0  0  0  0  0  0  0  0  0  0  0
   -3.8735   -2.3609   14.7157 O   0  0  0  0  0  0  0  0  0  0  0  0
   -2.5254   -2.1112   14.8167 C   0  0  0  0  0  0  0  0  0  0  0  0
   -1.7461   -2.8700   15.6816 C   0  0  0  0  0  0  0  0  0  0  0  0
   -0.3903   -2.6103   15.8137 C   0  0  0  0  0  0  0  0  0  0  0  0
    0.2206   -1.5848   15.0868 C   0  0  0  0  0  0  0  0  0  0  0  0
    1.6038   -1.3598   15.3228 N   0  0  0  0  0  0  0  0  0  0  0  0
    2.5359   -0.4458   14.7609 C   0  0  0  0  0  0  0  0  0  0  0  0
    2.1794    0.3745   13.7258 N   0  0  0  0  0  0  0  0  0  0  0  0
    3.1126    1.2387   13.2174 C   0  0  0  0  0  0  0  0  0  0  0  0
    4.4180    1.2838   13.7013 C   0  0  0  0  0  0  0  0  0  0  0  0
    4.7460    0.4885   14.7593 N   0  0  0  0  0  0  0  0  0  0  0  0
    5.8978    0.3783   15.4862 C   0  0  0  0  0  0  0  0  0  0  0  0
    5.5892   -0.5252   16.5282 C   0  0  0  0  0  0  0  0  0  0  0  0
    4.3768   -1.0429   16.3726 N   0  0  0  0  0  0  0  0  0  0  0  0
    3.8366   -0.3928   15.3256 C   0  0  0  0  0  0  0  0  0  0  0  0
    2.6368    2.1616   12.1201 C   0  0  3  0  0  0  0  0  0  0  0  0
    3.5454    2.6408   11.1618 C   0  0  0  0  0  0  0  0  0  0  0  0
    3.1453    3.4625   10.1097 C   0  0  0  0  0  0  0  0  0  0  0  0
    1.7994    3.8163   10.0176 C   0  0  0  0  0  0  0  0  0  0  0  0
    0.9914    4.5941    9.1197 C   0  0  0  0  0  0  0  0  0  0  0  0
   -0.2494    4.6053    9.5133 N   0  0  0  0  0  0  0  0  0  0  0  0
   -0.3372    3.8935   10.6271 N   0  0  0  0  0  0  0  0  0  0  0  0
    0.8851    3.3607   10.9950 C   0  0  0  0  0  0  0  0  0  0  0  0
    1.2726    2.5413   12.0626 C   0  0  0  0  0  0  0  0  0  0  0  0
   -0.5549   -0.8187   14.1915 C   0  0  0  0  0  0  0  0  0  0  0  0
   -1.9439   -1.0882   14.0610 C   0  0  0  0  0  0  0  0  0  0  0  0
   -2.7521   -0.3548   13.2056 O   0  0  0  0  0  0  0  0  0  0  0  0
   -2.2313    0.6456   12.3518 C   0  0  0  0  0  0  0  0  0  0  0  0
   -5.3467   -3.2534   13.5756 H   0  0  0  0  0  0  0  0  0  0  0  0
   -3.9673   -2.5542   12.6618 H   0  0  0  0  0  0  0  0  0  0  0  0
   -3.7532   -4.0824   13.5813 H   0  0  0  0  0  0  0  0  0  0  0  0
   -2.1987   -3.6662   16.2539 H   0  0  0  0  0  0  0  0  0  0  0  0
    0.2026   -3.2097   16.4887 H   0  0  0  0  0  0  0  0  0  0  0  0
    5.1530    1.9333   13.2492 H   0  0  0  0  0  0  0  0  0  0  0  0
    6.8398    0.8742   15.3039 H   0  0  0  0  0  0  0  0  0  0  0  0
    6.2538   -0.7636   17.3454 H   0  0  0  0  0  0  0  0  0  0  0  0
    2.4218    1.2920   11.4817 H   0  0  0  0  0  0  0  0  0  0  0  0
    4.5861    2.3639   11.2429 H   0  0  0  0  0  0  0  0  0  0  0  0
    3.8608    3.8171    9.3826 H   0  0  0  0  0  0  0  0  0  0  0  0
    1.3620    5.0994    8.2401 H   0  0  0  0  0  0  0  0  0  0  0  0
    0.5637    2.2135   12.8085 H   0  0  0  0  0  0  0  0  0  0  0  0
   -0.4609    0.2315   14.5048 H   0  0  0  0  0  0  0  0  0  0  0  0
   -0.1095   -0.9449   13.1937 H   0  0  0  0  0  0  0  0  0  0  0  0
   -3.0495    1.0924   11.7679 H   0  0  0  0  0  0  0  0  0  0  0  0
   -1.7436    1.4252   12.9555 H   0  0  0  0  0  0  0  0  0  0  0  0
   -1.4954    0.1973   11.6681 H   0  0  0  0  0  0  0  0  0  0  0  0
  1  2  1  0  0  0  0
  2  3  1  0  0  0  0
  3  4  1  0  0  0  0
  3 27  2  0  0  0  0
  4  5  2  0  0  0  0
  5  6  1  0  0  0  0
  6  7  2  0  0  0  0
  6 26  1  0  0  0  0
  7  8  1  0  0  0  0
  8  9  2  0  0  0  0
  8 16  1  0  0  0  0
  9 10  1  0  0  0  0
 10 11  2  0  0  0  0
 10 17  1  0  0  0  0
 11 12  1  0  0  0  0
 12 13  1  0  0  0  0
 12 16  1  0  0  0  0
 13 14  2  0  0  0  0
 14 15  1  0  0  0  0
 15 16  2  0  0  0  0
 17 18  1  0  0  0  0
 17 25  1  0  0  0  0
 18 19  2  0  0  0  0
 19 20  1  0  0  0  0
 20 21  2  0  0  0  0
 20 24  1  0  0  0  0
 21 22  1  0  0  0  0
 22 23  2  0  0  0  0
 23 24  1  0  0  0  0
 24 25  2  0  0  0  0
 26 27  1  0  0  0  0
 27 28  1  0  0  0  0
 28 29  1  0  0  0  0
  1 30  1  0  0  0  0
  1 31  1  0  0  0  0
  1 32  1  0  0  0  0
  4 33  1  0  0  0  0
  5 34  1  0  0  0  0
 11 35  1  0  0  0  0
 13 36  1  0  0  0  0
 14 37  1  0  0  0  0
 17 38  1  0  0  0  0
 18 39  1  0  0  0  0
 19 40  1  0  0  0  0
 21 41  1  0  0  0  0
 25 42  1  0  0  0  0
 26 43  1  0  0  0  0
 26 44  1  0  0  0  0
 29 45  1  0  0  0  0
 29 46  1  0  0  0  0
 29 47  1  0  0  0  0
M  END
> <IC50[nM]>
3.8

$$$$
CHEMBL3265017
  -OEChem-05192314333D
 Structure written by MMmdl.
 47 51  0     1  0  0  0  0  0999 V2000
   -4.2568   -3.1045   13.5692 C   0  0  0  0  0  0  0  0  0  0  0  0
   -3.8735   -2.3609   14.7157 O   0  0  0  0  0  0  0  0  0  0  0  0
   -2.5254   -2.1112   14.8167 C   0  0  0  0  0  0  0  0  0  0  0  0
   -1.7461   -2.8700   15.6816 C   0  0  0  0  0  0  0  0  0  0  0  0
   -0.3903   -2.6103   15.8137 C   0  0  0  0  0  0  0  0  0  0  0  0
    0.2206   -1.5848   15.0868 C   0  0  0  0  0  0  0  0  0  0  0  0
    1.6038   -1.3598   15.3228 N   0  0  0  0  0  0  0  0  0  0  0  0
    2.5359   -0.4458   14.7609 C   0  0  0  0  0  0  0  0  0  0  0  0
    2.1794    0.3745   13.7258 N   0  0  0  0  0  0  0  0  0  0  0  0
    3.1126    1.2387   13.2174 C   0  0  0  0  0  0  0  0  0  0  0  0
    4.4180    1.2838   13.7013 C   0  0  0  0  0  0  0  0  0  0  0  0
    4.7460    0.4885   14.7593 N   0  0  0  0  0  0  0  0  0  0  0  0
    5.8978    0.3783   15.4862 C   0  0  0  0  0  0  0  0  0  0  0  0
    5.5892   -0.5252   16.5282 C   0  0  0  0  0  0  0  0  0  0  0  0
    4.3768   -1.0429   16.3726 N   0  0  0  0  0  0  0  0  0  0  0  0
    3.8366   -0.3928   15.3256 C   0  0  0  0  0  0  0  0  0  0  0  0
    2.6368    2.1616   12.1201 C   0  0  0  0  0  0  0  0  0  0  0  0
    3.5454    2.6408   11.1618 C   0  0  0  0  0  0  0  0  0  0  0  0
    3.1453    3.4625   10.1097 C   0  0  0  0  0  0  0  0  0  0  0  0
    1.7994    3.8163   10.0176 C   0  0  0  0  0  0  0  0  0  0  0  0
    0.9914    4.5941    9.1197 C   0  0  0  0  0  0  0  0  0  0  0  0
   -0.2494    4.6053    9.5133 N   0  0  0  0  0  0  0  0  0  0  0  0
   -0.3372    3.8935   10.6271 N   0  0  0  0  0  0  0  0  0  0  0  0
    0.8851    3.3607   10.9950 C   0  0  3  0  0  0  0  0  0  0  0  0
    1.2726    2.5413   12.0626 C   0  0  0  0  0  0  0  0  0  0  0  0
   -0.5549   -0.8187   14.1915 C   0  0  0  0  0  0  0  0  0  0  0  0
   -1.9439   -1.0882   14.0610 C   0  0  0  0  0  0  0  0  0  0  0  0
   -2.7521   -0.3548   13.2056 O   0  0  0  0  0  0  0  0  0  0  0  0
   -2.2313    0.6456   12.3518 C   0  0  0  0  0  0  0  0  0  0  0  0
   -5.3467   -3.2534   13.5756 H   0  0  0  0  0  0  0  0  0  0  0  0
   -3.9673   -2.5542   12.6618 H   0  0  0  0  0  0  0  0  0  0  0  0
   -3.7532   -4.0824   13.5813 H   0  0  0  0  0  0  0  0  0  0  0  0
   -2.1987   -3.6662   16.2539 H   0  0  0  0  0  0  0  0  0  0  0  0
    0.2026   -3.2097   16.4887 H   0  0  0  0  0  0  0  0  0  0  0  0
    5.1530    1.9333   13.2492 H   0  0  0  0  0  0  0  0  0  0  0  0
    6.8398    0.8742   15.3039 H   0  0  0  0  0  0  0  0  0  0  0  0
    6.2538   -0.7636   17.3454 H   0  0  0  0  0  0  0  0  0  0  0  0
    4.5861    2.3639   11.2429 H   0  0  0  0  0  0  0  0  0  0  0  0
    3.8608    3.8171    9.3826 H   0  0  0  0  0  0  0  0  0  0  0  0
    1.3620    5.0994    8.2401 H   0  0  0  0  0  0  0  0  0  0  0  0
    1.0912    4.2530   11.6044 H   0  0  0  0  0  0  0  0  0  0  0  0
    0.5637    2.2135   12.8085 H   0  0  0  0  0  0  0  0  0  0  0  0
   -0.4609    0.2315   14.5048 H   0  0  0  0  0  0  0  0  0  0  0  0
   -0.1095   -0.9449   13.1937 H   0  0  0  0  0  0  0  0  0  0  0  0
   -3.0495    1.0924   11.7679 H   0  0  0  0  0  0  0  0  0  0  0  0
   -1.7436    1.4252   12.9555 H   0  0  0  0  0  0  0  0  0  0  0  0
   -1.4954    0.1973   11.6681 H   0  0  0  0  0  0  0  0  0  0  0  0
  1  2  1  0  0  0  0
  2  3  1  0  0  0  0
  3  4  1  0  0  0  0
  3 27  2  0  0  0  0
  4  5  2  0  0  0  0
  5  6  1  0  0  0  0
  6  7  2  0  0  0  0
  6 26  1  0  0  0  0
  7  8  1  0  0  0  0
  8  9  2  0  0  0  0
  8 16  1  0  0  0  0
  9 10  1  0  0  0  0
 10 11  2  0  0  0  0
 10 17  1  0  0  0  0
 11 12  1  0  0  0  0
 12 13  1  0  0  0  0
 12 16  1  0  0  0  0
 13 14  2  0  0  0  0
 14 15  1  0  0  0  0
 15 16  2  0  0  0  0
 17 18  1  0  0  0  0
 17 25  2  0  0  0  0
 18 19  2  0  0  0  0
 19 20  1  0  0  0  0
 20 21  2  0  0  0  0
 20 24  1  0  0  0  0
 21 22  1  0  0  0  0
 22 23  2  0  0  0  0
 23 24  1  0  0  0  0
 24 25  1  0  0  0  0
 26 27  1  0  0  0  0
 27 28  1  0  0  0  0
 28 29  1  0  0  0  0
  1 30  1  0  0  0  0
  1 31  1  0  0  0  0
  1 32  1  0  0  0  0
  4 33  1  0  0  0  0
  5 34  1  0  0  0  0
 11 35  1  0  0  0  0
 13 36  1  0  0  0  0
 14 37  1  0  0  0  0
 18 38  1  0  0  0  0
 19 39  1  0  0  0  0
 21 40  1  0  0  0  0
 24 41  1  0  0  0  0
 25 42  1  0  0  0  0
 26 43  1  0  0  0  0
 26 44  1  0  0  0  0
 29 45  1  0  0  0  0
 29 46  1  0  0  0  0
 29 47  1  0  0  0  0
M  END
> <IC50[nM]>
3.8

$$$$
CHEMBL3265017
  -OEChem-05192314333D
 Structure written by MMmdl.
 47 51  0     0  0  0  0  0  0999 V2000
   -4.2568   -3.1045   13.5692 C   0  0  0  0  0  0  0  0  0  0  0  0
   -3.8735   -2.3609   14.7157 O   0  0  0  0  0  0  0  0  0  0  0  0
   -2.5254   -2.1112   14.8167 C   0  0  0  0  0  0  0  0  0  0  0  0
   -1.7461   -2.8700   15.6816 C   0  0  0  0  0  0  0  0  0  0  0  0
   -0.3903   -2.6103   15.8137 C   0  0  0  0  0  0  0  0  0  0  0  0
    0.2206   -1.5848   15.0868 C   0  0  0  0  0  0  0  0  0  0  0  0
    1.6038   -1.3598   15.3228 N   0  0  0  0  0  0  0  0  0  0  0  0
    2.5359   -0.4458   14.7609 C   0  0  0  0  0  0  0  0  0  0  0  0
    2.1794    0.3745   13.7258 N   0  0  0  0  0  0  0  0  0  0  0  0
    3.1126    1.2387   13.2174 C   0  0  0  0  0  0  0  0  0  0  0  0
    4.4180    1.2838   13.7013 C   0  0  0  0  0  0  0  0  0  0  0  0
    4.7460    0.4885   14.7593 N   0  0  0  0  0  0  0  0  0  0  0  0
    5.8978    0.3783   15.4862 C   0  0  0  0  0  0  0  0  0  0  0  0
    5.5892   -0.5252   16.5282 C   0  0  0  0  0  0  0  0  0  0  0  0
    4.3768   -1.0429   16.3726 N   0  0  0  0  0  0  0  0  0  0  0  0
    3.8366   -0.3928   15.3256 C   0  0  0  0  0  0  0  0  0  0  0  0
    2.6368    2.1616   12.1201 C   0  0  0  0  0  0  0  0  0  0  0  0
    3.5454    2.6408   11.1618 C   0  0  0  0  0  0  0  0  0  0  0  0
    3.1453    3.4625   10.1097 C   0  0  0  0  0  0  0  0  0  0  0  0
    1.7994    3.8163   10.0176 C   0  0  0  0  0  0  0  0  0  0  0  0
    0.9914    4.5941    9.1197 C   0  0  0  0  0  0  0  0  0  0  0  0
   -0.2494    4.6053    9.5133 N   0  0  0  0  0  0  0  0  0  0  0  0
   -0.3372    3.8935   10.6271 N   0  0  0  0  0  0  0  0  0  0  0  0
    0.8851    3.3607   10.9950 C   0  0  0  0  0  0  0  0  0  0  0  0
    1.2726    2.5413   12.0626 C   0  0  0  0  0  0  0  0  0  0  0  0
   -0.5549   -0.8187   14.1915 C   0  0  0  0  0  0  0  0  0  0  0  0
   -1.9439   -1.0882   14.0610 C   0  0  0  0  0  0  0  0  0  0  0  0
   -2.7521   -0.3548   13.2056 O   0  0  0  0  0  0  0  0  0  0  0  0
   -2.2313    0.6456   12.3518 C   0  0  0  0  0  0  0  0  0  0  0  0
   -5.3467   -3.2534   13.5756 H   0  0  0  0  0  0  0  0  0  0  0  0
   -3.9673   -2.5542   12.6618 H   0  0  0  0  0  0  0  0  0  0  0  0
   -3.7532   -4.0824   13.5813 H   0  0  0  0  0  0  0  0  0  0  0  0
   -2.1987   -3.6662   16.2539 H   0  0  0  0  0  0  0  0  0  0  0  0
    0.2026   -3.2097   16.4887 H   0  0  0  0  0  0  0  0  0  0  0  0
    5.1530    1.9333   13.2492 H   0  0  0  0  0  0  0  0  0  0  0  0
    6.8398    0.8742   15.3039 H   0  0  0  0  0  0  0  0  0  0  0  0
    6.2538   -0.7636   17.3454 H   0  0  0  0  0  0  0  0  0  0  0  0
    4.5861    2.3639   11.2429 H   0  0  0  0  0  0  0  0  0  0  0  0
    3.7219    4.3959   10.1890 H   0  0  0  0  0  0  0  0  0  0  0  0
    3.4102    2.9461    9.1753 H   0  0  0  0  0  0  0  0  0  0  0  0
    1.3620    5.0994    8.2401 H   0  0  0  0  0  0  0  0  0  0  0  0
    0.5637    2.2135   12.8085 H   0  0  0  0  0  0  0  0  0  0  0  0
   -0.4609    0.2315   14.5048 H   0  0  0  0  0  0  0  0  0  0  0  0
   -0.1095   -0.9449   13.1937 H   0  0  0  0  0  0  0  0  0  0  0  0
   -3.0495    1.0924   11.7679 H   0  0  0  0  0  0  0  0  0  0  0  0
   -1.7436    1.4252   12.9555 H   0  0  0  0  0  0  0  0  0  0  0  0
   -1.4954    0.1973   11.6681 H   0  0  0  0  0  0  0  0  0  0  0  0
  1  2  1  0  0  0  0
  2  3  1  0  0  0  0
  3  4  1  0  0  0  0
  3 27  2  0  0  0  0
  4  5  2  0  0  0  0
  5  6  1  0  0  0  0
  6  7  2  0  0  0  0
  6 26  1  0  0  0  0
  7  8  1  0  0  0  0
  8  9  2  0  0  0  0
  8 16  1  0  0  0  0
  9 10  1  0  0  0  0
 10 11  2  0  0  0  0
 10 17  1  0  0  0  0
 11 12  1  0  0  0  0
 12 13  1  0  0  0  0
 12 16  1  0  0  0  0
 13 14  2  0  0  0  0
 14 15  1  0  0  0  0
 15 16  2  0  0  0  0
 17 18  2  0  0  0  0
 17 25  1  0  0  0  0
 18 19  1  0  0  0  0
 19 20  1  0  0  0  0
 20 21  2  0  0  0  0
 20 24  1  0  0  0  0
 21 22  1  0  0  0  0
 22 23  2  0  0  0  0
 23 24  1  0  0  0  0
 24 25  2  0  0  0  0
 26 27  1  0  0  0  0
 27 28  1  0  0  0  0
 28 29  1  0  0  0  0
  1 30  1  0  0  0  0
  1 31  1  0  0  0  0
  1 32  1  0  0  0  0
  4 33  1  0  0  0  0
  5 34  1  0  0  0  0
 11 35  1  0  0  0  0
 13 36  1  0  0  0  0
 14 37  1  0  0  0  0
 18 38  1  0  0  0  0
 19 39  1  0  0  0  0
 19 40  1  0  0  0  0
 21 41  1  0  0  0  0
 25 42  1  0  0  0  0
 26 43  1  0  0  0  0
 26 44  1  0  0  0  0
 29 45  1  0  0  0  0
 29 46  1  0  0  0  0
 29 47  1  0  0  0  0
M  END
> <IC50[nM]>
3.8

$$$$
