CHEMBL3265027
  -OEChem-05192314333D
 Structure written by MMmdl.
 39 43  0     0  0  0  0  0  0999 V2000
    1.6124   -1.3917   15.3063 N   0  0  0  0  0  0  0  0  0  0  0  0
    0.2249   -1.5978   15.0814 C   0  0  0  0  0  0  0  0  0  0  0  0
   -0.5442   -0.8150   14.1982 C   0  0  0  0  0  0  0  0  0  0  0  0
   -1.9142   -1.0738   14.0573 C   0  0  0  0  0  0  0  0  0  0  0  0
   -2.5121   -2.0998   14.7912 C   0  0  0  0  0  0  0  0  0  0  0  0
   -1.7536   -2.8696   15.6610 C   0  0  0  0  0  0  0  0  0  0  0  0
   -0.3955   -2.6216   15.8033 C   0  0  0  0  0  0  0  0  0  0  0  0
    2.5315   -0.4491   14.7651 C   0  0  0  0  0  0  0  0  0  0  0  0
    2.1583    0.3961   13.7551 N   0  0  0  0  0  0  0  0  0  0  0  0
    3.0948    1.2419   13.2245 C   0  0  0  0  0  0  0  0  0  0  0  0
    4.4047    1.2813   13.6954 C   0  0  0  0  0  0  0  0  0  0  0  0
    4.7386    0.4915   14.7531 N   0  0  0  0  0  0  0  0  0  0  0  0
    5.8960    0.3859   15.4809 C   0  0  0  0  0  0  0  0  0  0  0  0
    5.5970   -0.5411   16.5116 C   0  0  0  0  0  0  0  0  0  0  0  0
    4.3870   -1.0586   16.3541 N   0  0  0  0  0  0  0  0  0  0  0  0
    3.8354   -0.3959   15.3220 C   0  0  0  0  0  0  0  0  0  0  0  0
    2.6241    2.1558   12.1223 C   0  0  0  0  0  0  0  0  0  0  0  0
    3.5409    2.6448   11.1668 C   0  0  0  0  0  0  0  0  0  0  0  0
    3.1526    3.4655   10.1090 C   0  0  0  0  0  0  0  0  0  0  0  0
    1.8070    3.8204   10.0137 C   0  0  0  0  0  0  0  0  0  0  0  0
    0.9973    4.6040    9.1190 C   0  0  0  0  0  0  0  0  0  0  0  0
   -0.2435    4.6079    9.5202 N   0  0  0  0  0  0  0  0  0  0  0  0
   -0.3316    3.8816   10.6309 N   0  0  0  0  0  0  0  0  0  0  0  0
    0.8832    3.3484   10.9943 C   0  0  0  0  0  0  0  0  0  0  0  0
    1.2619    2.5173   12.0545 C   0  0  0  0  0  0  0  0  0  0  0  0
    2.0177   -2.0249   15.9657 H   0  0  0  0  0  0  0  0  0  0  0  0
   -0.0807   -0.0200   13.6329 H   0  0  0  0  0  0  0  0  0  0  0  0
   -2.5084   -0.4785   13.3798 H   0  0  0  0  0  0  0  0  0  0  0  0
   -3.5686   -2.2949   14.6815 H   0  0  0  0  0  0  0  0  0  0  0  0
   -2.2200   -3.6620   16.2275 H   0  0  0  0  0  0  0  0  0  0  0  0
    0.1892   -3.2270   16.4801 H   0  0  0  0  0  0  0  0  0  0  0  0
    5.1390    1.9237   13.2322 H   0  0  0  0  0  0  0  0  0  0  0  0
    6.8313    0.8972   15.3071 H   0  0  0  0  0  0  0  0  0  0  0  0
    6.2679   -0.7926   17.3197 H   0  0  0  0  0  0  0  0  0  0  0  0
    4.5821    2.3729   11.2587 H   0  0  0  0  0  0  0  0  0  0  0  0
    3.8726    3.8163    9.3844 H   0  0  0  0  0  0  0  0  0  0  0  0
    1.3643    5.1154    8.2414 H   0  0  0  0  0  0  0  0  0  0  0  0
   -1.1799    3.7400   11.1411 H   0  0  0  0  0  0  0  0  0  0  0  0
    0.5465    2.1696   12.7851 H   0  0  0  0  0  0  0  0  0  0  0  0
  1  2  1  0  0  0  0
  1  8  1  0  0  0  0
  2  3  2  0  0  0  0
  2  7  1  0  0  0  0
  3  4  1  0  0  0  0
  4  5  2  0  0  0  0
  5  6  1  0  0  0  0
  6  7  2  0  0  0  0
  8  9  2  0  0  0  0
  8 16  1  0  0  0  0
  9 10  1  0  0  0  0
 10 11  2  0  0  0  0
 10 17  1  0  0  0  0
 11 12  1  0  0  0  0
 12 13  1  0  0  0  0
 12 16  1  0  0  0  0
 13 14  2  0  0  0  0
 14 15  1  0  0  0  0
 15 16  2  0  0  0  0
 17 18  2  0  0  0  0
 17 25  1  0  0  0  0
 18 19  1  0  0  0  0
 19 20  2  0  0  0  0
 20 21  1  0  0  0  0
 20 24  1  0  0  0  0
 21 22  2  0  0  0  0
 22 23  1  0  0  0  0
 23 24  1  0  0  0  0
 24 25  2  0  0  0  0
  1 26  1  0  0  0  0
  3 27  1  0  0  0  0
  4 28  1  0  0  0  0
  5 29  1  0  0  0  0
  6 30  1  0  0  0  0
  7 31  1  0  0  0  0
 11 32  1  0  0  0  0
 13 33  1  0  0  0  0
 14 34  1  0  0  0  0
 18 35  1  0  0  0  0
 19 36  1  0  0  0  0
 21 37  1  0  0  0  0
 23 38  1  0  0  0  0
 25 39  1  0  0  0  0
M  END
> <IC50[nM]>
26.8

$$$$
CHEMBL3265027
  -OEChem-05192314333D
 Structure written by MMmdl.
 39 43  0     0  0  0  0  0  0999 V2000
    1.6124   -1.3917   15.3063 N   0  0  0  0  0  0  0  0  0  0  0  0
    0.2249   -1.5978   15.0814 C   0  0  0  0  0  0  0  0  0  0  0  0
   -0.5442   -0.8150   14.1982 C   0  0  0  0  0  0  0  0  0  0  0  0
   -1.9142   -1.0738   14.0573 C   0  0  0  0  0  0  0  0  0  0  0  0
   -2.5121   -2.0998   14.7912 C   0  0  0  0  0  0  0  0  0  0  0  0
   -1.7536   -2.8696   15.6610 C   0  0  0  0  0  0  0  0  0  0  0  0
   -0.3955   -2.6216   15.8033 C   0  0  0  0  0  0  0  0  0  0  0  0
    2.5315   -0.4491   14.7651 C   0  0  0  0  0  0  0  0  0  0  0  0
    2.1583    0.3961   13.7551 N   0  0  0  0  0  0  0  0  0  0  0  0
    3.0948    1.2419   13.2245 C   0  0  0  0  0  0  0  0  0  0  0  0
    4.4047    1.2813   13.6954 C   0  0  0  0  0  0  0  0  0  0  0  0
    4.7386    0.4915   14.7531 N   0  0  0  0  0  0  0  0  0  0  0  0
    5.8960    0.3859   15.4809 C   0  0  0  0  0  0  0  0  0  0  0  0
    5.5970   -0.5411   16.5116 C   0  0  0  0  0  0  0  0  0  0  0  0
    4.3870   -1.0586   16.3541 N   0  0  0  0  0  0  0  0  0  0  0  0
    3.8354   -0.3959   15.3220 C   0  0  0  0  0  0  0  0  0  0  0  0
    2.6241    2.1558   12.1223 C   0  0  0  0  0  0  0  0  0  0  0  0
    3.5409    2.6448   11.1668 C   0  0  0  0  0  0  0  0  0  0  0  0
    3.1526    3.4655   10.1090 C   0  0  0  0  0  0  0  0  0  0  0  0
    1.8070    3.8204   10.0137 C   0  0  0  0  0  0  0  0  0  0  0  0
    0.9973    4.6040    9.1190 C   0  0  0  0  0  0  0  0  0  0  0  0
   -0.2435    4.6079    9.5202 N   0  0  0  0  0  0  0  0  0  0  0  0
   -0.3316    3.8816   10.6309 N   0  0  0  0  0  0  0  0  0  0  0  0
    0.8832    3.3484   10.9943 C   0  0  0  0  0  0  0  0  0  0  0  0
    1.2619    2.5173   12.0545 C   0  0  0  0  0  0  0  0  0  0  0  0
    2.0177   -2.0249   15.9657 H   0  0  0  0  0  0  0  0  0  0  0  0
   -0.0807   -0.0200   13.6329 H   0  0  0  0  0  0  0  0  0  0  0  0
   -2.5084   -0.4785   13.3798 H   0  0  0  0  0  0  0  0  0  0  0  0
   -3.5686   -2.2949   14.6815 H   0  0  0  0  0  0  0  0  0  0  0  0
   -2.2200   -3.6620   16.2275 H   0  0  0  0  0  0  0  0  0  0  0  0
    0.1892   -3.2270   16.4801 H   0  0  0  0  0  0  0  0  0  0  0  0
    5.1390    1.9237   13.2322 H   0  0  0  0  0  0  0  0  0  0  0  0
    6.8313    0.8972   15.3071 H   0  0  0  0  0  0  0  0  0  0  0  0
    6.2679   -0.7926   17.3197 H   0  0  0  0  0  0  0  0  0  0  0  0
    4.5821    2.3729   11.2587 H   0  0  0  0  0  0  0  0  0  0  0  0
    3.8726    3.8163    9.3844 H   0  0  0  0  0  0  0  0  0  0  0  0
    1.3643    5.1154    8.2414 H   0  0  0  0  0  0  0  0  0  0  0  0
   -1.0017    5.0781    9.0685 H   0  0  0  0  0  0  0  0  0  0  0  0
    0.5465    2.1696   12.7851 H   0  0  0  0  0  0  0  0  0  0  0  0
  1  2  1  0  0  0  0
  1  8  1  0  0  0  0
  2  3  2  0  0  0  0
  2  7  1  0  0  0  0
  3  4  1  0  0  0  0
  4  5  2  0  0  0  0
  5  6  1  0  0  0  0
  6  7  2  0  0  0  0
  8  9  2  0  0  0  0
  8 16  1  0  0  0  0
  9 10  1  0  0  0  0
 10 11  2  0  0  0  0
 10 17  1  0  0  0  0
 11 12  1  0  0  0  0
 12 13  1  0  0  0  0
 12 16  1  0  0  0  0
 13 14  2  0  0  0  0
 14 15  1  0  0  0  0
 15 16  2  0  0  0  0
 17 18  1  0  0  0  0
 17 25  2  0  0  0  0
 18 19  2  0  0  0  0
 19 20  1  0  0  0  0
 20 21  2  0  0  0  0
 20 24  1  0  0  0  0
 21 22  1  0  0  0  0
 22 23  1  0  0  0  0
 23 24  2  0  0  0  0
 24 25  1  0  0  0  0
  1 26  1  0  0  0  0
  3 27  1  0  0  0  0
  4 28  1  0  0  0  0
  5 29  1  0  0  0  0
  6 30  1  0  0  0  0
  7 31  1  0  0  0  0
 11 32  1  0  0  0  0
 13 33  1  0  0  0  0
 14 34  1  0  0  0  0
 18 35  1  0  0  0  0
 19 36  1  0  0  0  0
 21 37  1  0  0  0  0
 22 38  1  0  0  0  0
 25 39  1  0  0  0  0
M  END
> <IC50[nM]>
26.8

$$$$
CHEMBL3265027
  -OEChem-05192314333D
 Structure written by MMmdl.
 39 43  0     0  0  0  0  0  0999 V2000
    1.6124   -1.3917   15.3063 N   0  0  0  0  0  0  0  0  0  0  0  0
    0.2249   -1.5978   15.0814 C   0  0  0  0  0  0  0  0  0  0  0  0
   -0.5442   -0.8150   14.1982 C   0  0  0  0  0  0  0  0  0  0  0  0
   -1.9142   -1.0738   14.0573 C   0  0  0  0  0  0  0  0  0  0  0  0
   -2.5121   -2.0998   14.7912 C   0  0  0  0  0  0  0  0  0  0  0  0
   -1.7536   -2.8696   15.6610 C   0  0  0  0  0  0  0  0  0  0  0  0
   -0.3955   -2.6216   15.8033 C   0  0  0  0  0  0  0  0  0  0  0  0
    2.5315   -0.4491   14.7651 C   0  0  0  0  0  0  0  0  0  0  0  0
    2.1583    0.3961   13.7551 N   0  0  0  0  0  0  0  0  0  0  0  0
    3.0948    1.2419   13.2245 C   0  0  0  0  0  0  0  0  0  0  0  0
    4.4047    1.2813   13.6954 C   0  0  0  0  0  0  0  0  0  0  0  0
    4.7386    0.4915   14.7531 N   0  0  0  0  0  0  0  0  0  0  0  0
    5.8960    0.3859   15.4809 C   0  0  0  0  0  0  0  0  0  0  0  0
    5.5970   -0.5411   16.5116 C   0  0  0  0  0  0  0  0  0  0  0  0
    4.3870   -1.0586   16.3541 N   0  0  0  0  0  0  0  0  0  0  0  0
    3.8354   -0.3959   15.3220 C   0  0  0  0  0  0  0  0  0  0  0  0
    2.6241    2.1558   12.1223 C   0  0  0  0  0  0  0  0  0  0  0  0
    3.5409    2.6448   11.1668 C   0  0  0  0  0  0  0  0  0  0  0  0
    3.1526    3.4655   10.1090 C   0  0  0  0  0  0  0  0  0  0  0  0
    1.8070    3.8204   10.0137 C   0  0  0  0  0  0  0  0  0  0  0  0
    0.9973    4.6040    9.1190 C   0  0  0  0  0  0  0  0  0  0  0  0
   -0.2435    4.6079    9.5202 N   0  0  0  0  0  0  0  0  0  0  0  0
   -0.3316    3.8816   10.6309 N   0  0  0  0  0  0  0  0  0  0  0  0
    0.8832    3.3484   10.9943 C   0  0  0  0  0  0  0  0  0  0  0  0
    1.2619    2.5173   12.0545 C   0  0  0  0  0  0  0  0  0  0  0  0
   -0.0807   -0.0200   13.6329 H   0  0  0  0  0  0  0  0  0  0  0  0
   -2.5084   -0.4785   13.3798 H   0  0  0  0  0  0  0  0  0  0  0  0
   -3.5686   -2.2949   14.6815 H   0  0  0  0  0  0  0  0  0  0  0  0
   -2.2200   -3.6620   16.2275 H   0  0  0  0  0  0  0  0  0  0  0  0
    0.1892   -3.2270   16.4801 H   0  0  0  0  0  0  0  0  0  0  0  0
    1.2192    0.3957   13.4113 H   0  0  0  0  0  0  0  0  0  0  0  0
    5.1390    1.9237   13.2322 H   0  0  0  0  0  0  0  0  0  0  0  0
    6.8313    0.8972   15.3071 H   0  0  0  0  0  0  0  0  0  0  0  0
    6.2679   -0.7926   17.3197 H   0  0  0  0  0  0  0  0  0  0  0  0
    4.5821    2.3729   11.2587 H   0  0  0  0  0  0  0  0  0  0  0  0
    3.8726    3.8163    9.3844 H   0  0  0  0  0  0  0  0  0  0  0  0
    1.3643    5.1154    8.2414 H   0  0  0  0  0  0  0  0  0  0  0  0
   -1.1799    3.7400   11.1411 H   0  0  0  0  0  0  0  0  0  0  0  0
    0.5465    2.1696   12.7851 H   0  0  0  0  0  0  0  0  0  0  0  0
  1  2  1  0  0  0  0
  1  8  2  0  0  0  0
  2  3  2  0  0  0  0
  2  7  1  0  0  0  0
  3  4  1  0  0  0  0
  4  5  2  0  0  0  0
  5  6  1  0  0  0  0
  6  7  2  0  0  0  0
  8  9  1  0  0  0  0
  8 16  1  0  0  0  0
  9 10  1  0  0  0  0
 10 11  2  0  0  0  0
 10 17  1  0  0  0  0
 11 12  1  0  0  0  0
 12 13  1  0  0  0  0
 12 16  1  0  0  0  0
 13 14  2  0  0  0  0
 14 15  1  0  0  0  0
 15 16  2  0  0  0  0
 17 18  2  0  0  0  0
 17 25  1  0  0  0  0
 18 19  1  0  0  0  0
 19 20  2  0  0  0  0
 20 21  1  0  0  0  0
 20 24  1  0  0  0  0
 21 22  2  0  0  0  0
 22 23  1  0  0  0  0
 23 24  1  0  0  0  0
 24 25  2  0  0  0  0
  3 26  1  0  0  0  0
  4 27  1  0  0  0  0
  5 28  1  0  0  0  0
  6 29  1  0  0  0  0
  7 30  1  0  0  0  0
  9 31  1  0  0  0  0
 11 32  1  0  0  0  0
 13 33  1  0  0  0  0
 14 34  1  0  0  0  0
 18 35  1  0  0  0  0
 19 36  1  0  0  0  0
 21 37  1  0  0  0  0
 23 38  1  0  0  0  0
 25 39  1  0  0  0  0
M  END
> <IC50[nM]>
26.8

$$$$
CHEMBL3265027
  -OEChem-05192314333D
 Structure written by MMmdl.
 39 43  0     0  0  0  0  0  0999 V2000
    1.6124   -1.3917   15.3063 N   0  0  0  0  0  0  0  0  0  0  0  0
    0.2249   -1.5978   15.0814 C   0  0  0  0  0  0  0  0  0  0  0  0
   -0.5442   -0.8150   14.1982 C   0  0  0  0  0  0  0  0  0  0  0  0
   -1.9142   -1.0738   14.0573 C   0  0  0  0  0  0  0  0  0  0  0  0
   -2.5121   -2.0998   14.7912 C   0  0  0  0  0  0  0  0  0  0  0  0
   -1.7536   -2.8696   15.6610 C   0  0  0  0  0  0  0  0  0  0  0  0
   -0.3955   -2.6216   15.8033 C   0  0  0  0  0  0  0  0  0  0  0  0
    2.5315   -0.4491   14.7651 C   0  0  0  0  0  0  0  0  0  0  0  0
    2.1583    0.3961   13.7551 N   0  0  0  0  0  0  0  0  0  0  0  0
    3.0948    1.2419   13.2245 C   0  0  0  0  0  0  0  0  0  0  0  0
    4.4047    1.2813   13.6954 C   0  0  0  0  0  0  0  0  0  0  0  0
    4.7386    0.4915   14.7531 N   0  0  0  0  0  0  0  0  0  0  0  0
    5.8960    0.3859   15.4809 C   0  0  0  0  0  0  0  0  0  0  0  0
    5.5970   -0.5411   16.5116 C   0  0  0  0  0  0  0  0  0  0  0  0
    4.3870   -1.0586   16.3541 N   0  0  0  0  0  0  0  0  0  0  0  0
    3.8354   -0.3959   15.3220 C   0  0  0  0  0  0  0  0  0  0  0  0
    2.6241    2.1558   12.1223 C   0  0  0  0  0  0  0  0  0  0  0  0
    3.5409    2.6448   11.1668 C   0  0  0  0  0  0  0  0  0  0  0  0
    3.1526    3.4655   10.1090 C   0  0  0  0  0  0  0  0  0  0  0  0
    1.8070    3.8204   10.0137 C   0  0  0  0  0  0  0  0  0  0  0  0
    0.9973    4.6040    9.1190 C   0  0  0  0  0  0  0  0  0  0  0  0
   -0.2435    4.6079    9.5202 N   0  0  0  0  0  0  0  0  0  0  0  0
   -0.3316    3.8816   10.6309 N   0  0  0  0  0  0  0  0  0  0  0  0
    0.8832    3.3484   10.9943 C   0  0  0  0  0  0  0  0  0  0  0  0
    1.2619    2.5173   12.0545 C   0  0  0  0  0  0  0  0  0  0  0  0
   -0.0807   -0.0200   13.6329 H   0  0  0  0  0  0  0  0  0  0  0  0
   -2.5084   -0.4785   13.3798 H   0  0  0  0  0  0  0  0  0  0  0  0
   -3.5686   -2.2949   14.6815 H   0  0  0  0  0  0  0  0  0  0  0  0
   -2.2200   -3.6620   16.2275 H   0  0  0  0  0  0  0  0  0  0  0  0
    0.1892   -3.2270   16.4801 H   0  0  0  0  0  0  0  0  0  0  0  0
    1.2192    0.3957   13.4113 H   0  0  0  0  0  0  0  0  0  0  0  0
    5.1390    1.9237   13.2322 H   0  0  0  0  0  0  0  0  0  0  0  0
    6.8313    0.8972   15.3071 H   0  0  0  0  0  0  0  0  0  0  0  0
    6.2679   -0.7926   17.3197 H   0  0  0  0  0  0  0  0  0  0  0  0
    4.5821    2.3729   11.2587 H   0  0  0  0  0  0  0  0  0  0  0  0
    3.8726    3.8163    9.3844 H   0  0  0  0  0  0  0  0  0  0  0  0
    1.3643    5.1154    8.2414 H   0  0  0  0  0  0  0  0  0  0  0  0
   -1.0017    5.0781    9.0685 H   0  0  0  0  0  0  0  0  0  0  0  0
    0.5465    2.1696   12.7851 H   0  0  0  0  0  0  0  0  0  0  0  0
  1  2  1  0  0  0  0
  1  8  2  0  0  0  0
  2  3  2  0  0  0  0
  2  7  1  0  0  0  0
  3  4  1  0  0  0  0
  4  5  2  0  0  0  0
  5  6  1  0  0  0  0
  6  7  2  0  0  0  0
  8  9  1  0  0  0  0
  8 16  1  0  0  0  0
  9 10  1  0  0  0  0
 10 11  2  0  0  0  0
 10 17  1  0  0  0  0
 11 12  1  0  0  0  0
 12 13  1  0  0  0  0
 12 16  1  0  0  0  0
 13 14  2  0  0  0  0
 14 15  1  0  0  0  0
 15 16  2  0  0  0  0
 17 18  1  0  0  0  0
 17 25  2  0  0  0  0
 18 19  2  0  0  0  0
 19 20  1  0  0  0  0
 20 21  2  0  0  0  0
 20 24  1  0  0  0  0
 21 22  1  0  0  0  0
 22 23  1  0  0  0  0
 23 24  2  0  0  0  0
 24 25  1  0  0  0  0
  3 26  1  0  0  0  0
  4 27  1  0  0  0  0
  5 28  1  0  0  0  0
  6 29  1  0  0  0  0
  7 30  1  0  0  0  0
  9 31  1  0  0  0  0
 11 32  1  0  0  0  0
 13 33  1  0  0  0  0
 14 34  1  0  0  0  0
 18 35  1  0  0  0  0
 19 36  1  0  0  0  0
 21 37  1  0  0  0  0
 22 38  1  0  0  0  0
 25 39  1  0  0  0  0
M  END
> <IC50[nM]>
26.8

$$$$
CHEMBL3265027
  -OEChem-05192314333D
 Structure written by MMmdl.
 39 43  0     0  0  0  0  0  0999 V2000
    1.6124   -1.3917   15.3063 N   0  0  0  0  0  0  0  0  0  0  0  0
    0.2249   -1.5978   15.0814 C   0  0  0  0  0  0  0  0  0  0  0  0
   -0.5442   -0.8150   14.1982 C   0  0  0  0  0  0  0  0  0  0  0  0
   -1.9142   -1.0738   14.0573 C   0  0  0  0  0  0  0  0  0  0  0  0
   -2.5121   -2.0998   14.7912 C   0  0  0  0  0  0  0  0  0  0  0  0
   -1.7536   -2.8696   15.6610 C   0  0  0  0  0  0  0  0  0  0  0  0
   -0.3955   -2.6216   15.8033 C   0  0  0  0  0  0  0  0  0  0  0  0
    2.5315   -0.4491   14.7651 C   0  0  0  0  0  0  0  0  0  0  0  0
    2.1583    0.3961   13.7551 N   0  0  0  0  0  0  0  0  0  0  0  0
    3.0948    1.2419   13.2245 C   0  0  0  0  0  0  0  0  0  0  0  0
    4.4047    1.2813   13.6954 C   0  0  0  0  0  0  0  0  0  0  0  0
    4.7386    0.4915   14.7531 N   0  0  0  0  0  0  0  0  0  0  0  0
    5.8960    0.3859   15.4809 C   0  0  0  0  0  0  0  0  0  0  0  0
    5.5970   -0.5411   16.5116 C   0  0  0  0  0  0  0  0  0  0  0  0
    4.3870   -1.0586   16.3541 N   0  0  0  0  0  0  0  0  0  0  0  0
    3.8354   -0.3959   15.3220 C   0  0  0  0  0  0  0  0  0  0  0  0
    2.6241    2.1558   12.1223 C   0  0  0  0  0  0  0  0  0  0  0  0
    3.5409    2.6448   11.1668 C   0  0  0  0  0  0  0  0  0  0  0  0
    3.1526    3.4655   10.1090 C   0  0  0  0  0  0  0  0  0  0  0  0
    1.8070    3.8204   10.0137 C   0  0  0  0  0  0  0  0  0  0  0  0
    0.9973    4.6040    9.1190 C   0  0  0  0  0  0  0  0  0  0  0  0
   -0.2435    4.6079    9.5202 N   0  0  0  0  0  0  0  0  0  0  0  0
   -0.3316    3.8816   10.6309 N   0  0  0  0  0  0  0  0  0  0  0  0
    0.8832    3.3484   10.9943 C   0  0  0  0  0  0  0  0  0  0  0  0
    1.2619    2.5173   12.0545 C   0  0  0  0  0  0  0  0  0  0  0  0
    2.0177   -2.0249   15.9657 H   0  0  0  0  0  0  0  0  0  0  0  0
   -0.0807   -0.0200   13.6329 H   0  0  0  0  0  0  0  0  0  0  0  0
   -2.5084   -0.4785   13.3798 H   0  0  0  0  0  0  0  0  0  0  0  0
   -3.5686   -2.2949   14.6815 H   0  0  0  0  0  0  0  0  0  0  0  0
   -2.2200   -3.6620   16.2275 H   0  0  0  0  0  0  0  0  0  0  0  0
    0.1892   -3.2270   16.4801 H   0  0  0  0  0  0  0  0  0  0  0  0
    5.1390    1.9237   13.2322 H   0  0  0  0  0  0  0  0  0  0  0  0
    6.8313    0.8972   15.3071 H   0  0  0  0  0  0  0  0  0  0  0  0
    6.2679   -0.7926   17.3197 H   0  0  0  0  0  0  0  0  0  0  0  0
    4.5821    2.3729   11.2587 H   0  0  0  0  0  0  0  0  0  0  0  0
    3.8726    3.8163    9.3844 H   0  0  0  0  0  0  0  0  0  0  0  0
    1.3753    5.6368    9.0973 H   0  0  0  0  0  0  0  0  0  0  0  0
    1.0510    4.1726    8.1085 H   0  0  0  0  0  0  0  0  0  0  0  0
    0.5465    2.1696   12.7851 H   0  0  0  0  0  0  0  0  0  0  0  0
  1  2  1  0  0  0  0
  1  8  1  0  0  0  0
  2  3  2  0  0  0  0
  2  7  1  0  0  0  0
  3  4  1  0  0  0  0
  4  5  2  0  0  0  0
  5  6  1  0  0  0  0
  6  7  2  0  0  0  0
  8  9  2  0  0  0  0
  8 16  1  0  0  0  0
  9 10  1  0  0  0  0
 10 11  2  0  0  0  0
 10 17  1  0  0  0  0
 11 12  1  0  0  0  0
 12 13  1  0  0  0  0
 12 16  1  0  0  0  0
 13 14  2  0  0  0  0
 14 15  1  0  0  0  0
 15 16  2  0  0  0  0
 17 18  2  0  0  0  0
 17 25  1  0  0  0  0
 18 19  1  0  0  0  0
 19 20  2  0  0  0  0
 20 21  1  0  0  0  0
 20 24  1  0  0  0  0
 21 22  1  0  0  0  0
 22 23  2  0  0  0  0
 23 24  1  0  0  0  0
 24 25  2  0  0  0  0
  1 26  1  0  0  0  0
  3 27  1  0  0  0  0
  4 28  1  0  0  0  0
  5 29  1  0  0  0  0
  6 30  1  0  0  0  0
  7 31  1  0  0  0  0
 11 32  1  0  0  0  0
 13 33  1  0  0  0  0
 14 34  1  0  0  0  0
 18 35  1  0  0  0  0
 19 36  1  0  0  0  0
 21 37  1  0  0  0  0
 21 38  1  0  0  0  0
 25 39  1  0  0  0  0
M  END
> <IC50[nM]>
26.8

$$$$
CHEMBL3265027
  -OEChem-05192314333D
 Structure written by MMmdl.
 39 43  0     0  0  0  0  0  0999 V2000
    1.6124   -1.3917   15.3063 N   0  0  0  0  0  0  0  0  0  0  0  0
    0.2249   -1.5978   15.0814 C   0  0  0  0  0  0  0  0  0  0  0  0
   -0.5442   -0.8150   14.1982 C   0  0  0  0  0  0  0  0  0  0  0  0
   -1.9142   -1.0738   14.0573 C   0  0  0  0  0  0  0  0  0  0  0  0
   -2.5121   -2.0998   14.7912 C   0  0  0  0  0  0  0  0  0  0  0  0
   -1.7536   -2.8696   15.6610 C   0  0  0  0  0  0  0  0  0  0  0  0
   -0.3955   -2.6216   15.8033 C   0  0  0  0  0  0  0  0  0  0  0  0
    2.5315   -0.4491   14.7651 C   0  0  0  0  0  0  0  0  0  0  0  0
    2.1583    0.3961   13.7551 N   0  0  0  0  0  0  0  0  0  0  0  0
    3.0948    1.2419   13.2245 C   0  0  0  0  0  0  0  0  0  0  0  0
    4.4047    1.2813   13.6954 C   0  0  0  0  0  0  0  0  0  0  0  0
    4.7386    0.4915   14.7531 N   0  0  0  0  0  0  0  0  0  0  0  0
    5.8960    0.3859   15.4809 C   0  0  0  0  0  0  0  0  0  0  0  0
    5.5970   -0.5411   16.5116 C   0  0  0  0  0  0  0  0  0  0  0  0
    4.3870   -1.0586   16.3541 N   0  0  0  0  0  0  0  0  0  0  0  0
    3.8354   -0.3959   15.3220 C   0  0  0  0  0  0  0  0  0  0  0  0
    2.6241    2.1558   12.1223 C   0  0  0  0  0  0  0  0  0  0  0  0
    3.5409    2.6448   11.1668 C   0  0  0  0  0  0  0  0  0  0  0  0
    3.1526    3.4655   10.1090 C   0  0  0  0  0  0  0  0  0  0  0  0
    1.8070    3.8204   10.0137 C   0  0  0  0  0  0  0  0  0  0  0  0
    0.9973    4.6040    9.1190 C   0  0  0  0  0  0  0  0  0  0  0  0
   -0.2435    4.6079    9.5202 N   0  0  0  0  0  0  0  0  0  0  0  0
   -0.3316    3.8816   10.6309 N   0  0  0  0  0  0  0  0  0  0  0  0
    0.8832    3.3484   10.9943 C   0  0  0  0  0  0  0  0  0  0  0  0
    1.2619    2.5173   12.0545 C   0  0  0  0  0  0  0  0  0  0  0  0
   -0.0807   -0.0200   13.6329 H   0  0  0  0  0  0  0  0  0  0  0  0
   -2.5084   -0.4785   13.3798 H   0  0  0  0  0  0  0  0  0  0  0  0
   -3.5686   -2.2949   14.6815 H   0  0  0  0  0  0  0  0  0  0  0  0
   -2.2200   -3.6620   16.2275 H   0  0  0  0  0  0  0  0  0  0  0  0
    0.1892   -3.2270   16.4801 H   0  0  0  0  0  0  0  0  0  0  0  0
    1.2192    0.3957   13.4113 H   0  0  0  0  0  0  0  0  0  0  0  0
    5.1390    1.9237   13.2322 H   0  0  0  0  0  0  0  0  0  0  0  0
    6.8313    0.8972   15.3071 H   0  0  0  0  0  0  0  0  0  0  0  0
    6.2679   -0.7926   17.3197 H   0  0  0  0  0  0  0  0  0  0  0  0
    4.5821    2.3729   11.2587 H   0  0  0  0  0  0  0  0  0  0  0  0
    3.8726    3.8163    9.3844 H   0  0  0  0  0  0  0  0  0  0  0  0
    1.3753    5.6368    9.0973 H   0  0  0  0  0  0  0  0  0  0  0  0
    1.0510    4.1726    8.1085 H   0  0  0  0  0  0  0  0  0  0  0  0
    0.5465    2.1696   12.7851 H   0  0  0  0  0  0  0  0  0  0  0  0
  1  2  1  0  0  0  0
  1  8  2  0  0  0  0
  2  3  2  0  0  0  0
  2  7  1  0  0  0  0
  3  4  1  0  0  0  0
  4  5  2  0  0  0  0
  5  6  1  0  0  0  0
  6  7  2  0  0  0  0
  8  9  1  0  0  0  0
  8 16  1  0  0  0  0
  9 10  1  0  0  0  0
 10 11  2  0  0  0  0
 10 17  1  0  0  0  0
 11 12  1  0  0  0  0
 12 13  1  0  0  0  0
 12 16  1  0  0  0  0
 13 14  2  0  0  0  0
 14 15  1  0  0  0  0
 15 16  2  0  0  0  0
 17 18  2  0  0  0  0
 17 25  1  0  0  0  0
 18 19  1  0  0  0  0
 19 20  2  0  0  0  0
 20 21  1  0  0  0  0
 20 24  1  0  0  0  0
 21 22  1  0  0  0  0
 22 23  2  0  0  0  0
 23 24  1  0  0  0  0
 24 25  2  0  0  0  0
  3 26  1  0  0  0  0
  4 27  1  0  0  0  0
  5 28  1  0  0  0  0
  6 29  1  0  0  0  0
  7 30  1  0  0  0  0
  9 31  1  0  0  0  0
 11 32  1  0  0  0  0
 13 33  1  0  0  0  0
 14 34  1  0  0  0  0
 18 35  1  0  0  0  0
 19 36  1  0  0  0  0
 21 37  1  0  0  0  0
 21 38  1  0  0  0  0
 25 39  1  0  0  0  0
M  END
> <IC50[nM]>
26.8

$$$$
CHEMBL3265027
  -OEChem-05192314333D
 Structure written by MMmdl.
 39 43  0     0  0  0  0  0  0999 V2000
    1.6124   -1.3917   15.3063 N   0  0  0  0  0  0  0  0  0  0  0  0
    0.2249   -1.5978   15.0814 C   0  0  0  0  0  0  0  0  0  0  0  0
   -0.5442   -0.8150   14.1982 C   0  0  0  0  0  0  0  0  0  0  0  0
   -1.9142   -1.0738   14.0573 C   0  0  0  0  0  0  0  0  0  0  0  0
   -2.5121   -2.0998   14.7912 C   0  0  0  0  0  0  0  0  0  0  0  0
   -1.7536   -2.8696   15.6610 C   0  0  0  0  0  0  0  0  0  0  0  0
   -0.3955   -2.6216   15.8033 C   0  0  0  0  0  0  0  0  0  0  0  0
    2.5315   -0.4491   14.7651 C   0  0  0  0  0  0  0  0  0  0  0  0
    2.1583    0.3961   13.7551 N   0  0  0  0  0  0  0  0  0  0  0  0
    3.0948    1.2419   13.2245 C   0  0  0  0  0  0  0  0  0  0  0  0
    4.4047    1.2813   13.6954 C   0  0  0  0  0  0  0  0  0  0  0  0
    4.7386    0.4915   14.7531 N   0  0  0  0  0  0  0  0  0  0  0  0
    5.8960    0.3859   15.4809 C   0  0  0  0  0  0  0  0  0  0  0  0
    5.5970   -0.5411   16.5116 C   0  0  0  0  0  0  0  0  0  0  0  0
    4.3870   -1.0586   16.3541 N   0  0  0  0  0  0  0  0  0  0  0  0
    3.8354   -0.3959   15.3220 C   0  0  0  0  0  0  0  0  0  0  0  0
    2.6241    2.1558   12.1223 C   0  0  0  0  0  0  0  0  0  0  0  0
    3.5409    2.6448   11.1668 C   0  0  0  0  0  0  0  0  0  0  0  0
    3.1526    3.4655   10.1090 C   0  0  0  0  0  0  0  0  0  0  0  0
    1.8070    3.8204   10.0137 C   0  0  0  0  0  0  0  0  0  0  0  0
    0.9973    4.6040    9.1190 C   0  0  0  0  0  0  0  0  0  0  0  0
   -0.2435    4.6079    9.5202 N   0  0  0  0  0  0  0  0  0  0  0  0
   -0.3316    3.8816   10.6309 N   0  0  0  0  0  0  0  0  0  0  0  0
    0.8832    3.3484   10.9943 C   0  0  0  0  0  0  0  0  0  0  0  0
    1.2619    2.5173   12.0545 C   0  0  0  0  0  0  0  0  0  0  0  0
   -0.0807   -0.0200   13.6329 H   0  0  0  0  0  0  0  0  0  0  0  0
   -2.5084   -0.4785   13.3798 H   0  0  0  0  0  0  0  0  0  0  0  0
   -3.5686   -2.2949   14.6815 H   0  0  0  0  0  0  0  0  0  0  0  0
   -2.2200   -3.6620   16.2275 H   0  0  0  0  0  0  0  0  0  0  0  0
    0.1892   -3.2270   16.4801 H   0  0  0  0  0  0  0  0  0  0  0  0
    5.0594    0.9971   12.8584 H   0  0  0  0  0  0  0  0  0  0  0  0
    4.6136    2.3210   13.9877 H   0  0  0  0  0  0  0  0  0  0  0  0
    6.8313    0.8972   15.3071 H   0  0  0  0  0  0  0  0  0  0  0  0
    6.2679   -0.7926   17.3197 H   0  0  0  0  0  0  0  0  0  0  0  0
    4.5821    2.3729   11.2587 H   0  0  0  0  0  0  0  0  0  0  0  0
    3.8726    3.8163    9.3844 H   0  0  0  0  0  0  0  0  0  0  0  0
    1.3643    5.1154    8.2414 H   0  0  0  0  0  0  0  0  0  0  0  0
   -1.1799    3.7400   11.1411 H   0  0  0  0  0  0  0  0  0  0  0  0
    0.5465    2.1696   12.7851 H   0  0  0  0  0  0  0  0  0  0  0  0
  1  2  1  0  0  0  0
  1  8  2  0  0  0  0
  2  3  2  0  0  0  0
  2  7  1  0  0  0  0
  3  4  1  0  0  0  0
  4  5  2  0  0  0  0
  5  6  1  0  0  0  0
  6  7  2  0  0  0  0
  8  9  1  0  0  0  0
  8 16  1  0  0  0  0
  9 10  2  0  0  0  0
 10 11  1  0  0  0  0
 10 17  1  0  0  0  0
 11 12  1  0  0  0  0
 12 13  1  0  0  0  0
 12 16  1  0  0  0  0
 13 14  2  0  0  0  0
 14 15  1  0  0  0  0
 15 16  2  0  0  0  0
 17 18  2  0  0  0  0
 17 25  1  0  0  0  0
 18 19  1  0  0  0  0
 19 20  2  0  0  0  0
 20 21  1  0  0  0  0
 20 24  1  0  0  0  0
 21 22  2  0  0  0  0
 22 23  1  0  0  0  0
 23 24  1  0  0  0  0
 24 25  2  0  0  0  0
  3 26  1  0  0  0  0
  4 27  1  0  0  0  0
  5 28  1  0  0  0  0
  6 29  1  0  0  0  0
  7 30  1  0  0  0  0
 11 31  1  0  0  0  0
 11 32  1  0  0  0  0
 13 33  1  0  0  0  0
 14 34  1  0  0  0  0
 18 35  1  0  0  0  0
 19 36  1  0  0  0  0
 21 37  1  0  0  0  0
 23 38  1  0  0  0  0
 25 39  1  0  0  0  0
M  END
> <IC50[nM]>
26.8

$$$$
CHEMBL3265027
  -OEChem-05192314333D
 Structure written by MMmdl.
 39 43  0     0  0  0  0  0  0999 V2000
    1.6124   -1.3917   15.3063 N   0  0  0  0  0  0  0  0  0  0  0  0
    0.2249   -1.5978   15.0814 C   0  0  0  0  0  0  0  0  0  0  0  0
   -0.5442   -0.8150   14.1982 C   0  0  0  0  0  0  0  0  0  0  0  0
   -1.9142   -1.0738   14.0573 C   0  0  0  0  0  0  0  0  0  0  0  0
   -2.5121   -2.0998   14.7912 C   0  0  0  0  0  0  0  0  0  0  0  0
   -1.7536   -2.8696   15.6610 C   0  0  0  0  0  0  0  0  0  0  0  0
   -0.3955   -2.6216   15.8033 C   0  0  0  0  0  0  0  0  0  0  0  0
    2.5315   -0.4491   14.7651 C   0  0  0  0  0  0  0  0  0  0  0  0
    2.1583    0.3961   13.7551 N   0  0  0  0  0  0  0  0  0  0  0  0
    3.0948    1.2419   13.2245 C   0  0  0  0  0  0  0  0  0  0  0  0
    4.4047    1.2813   13.6954 C   0  0  0  0  0  0  0  0  0  0  0  0
    4.7386    0.4915   14.7531 N   0  0  0  0  0  0  0  0  0  0  0  0
    5.8960    0.3859   15.4809 C   0  0  0  0  0  0  0  0  0  0  0  0
    5.5970   -0.5411   16.5116 C   0  0  0  0  0  0  0  0  0  0  0  0
    4.3870   -1.0586   16.3541 N   0  0  0  0  0  0  0  0  0  0  0  0
    3.8354   -0.3959   15.3220 C   0  0  0  0  0  0  0  0  0  0  0  0
    2.6241    2.1558   12.1223 C   0  0  0  0  0  0  0  0  0  0  0  0
    3.5409    2.6448   11.1668 C   0  0  0  0  0  0  0  0  0  0  0  0
    3.1526    3.4655   10.1090 C   0  0  0  0  0  0  0  0  0  0  0  0
    1.8070    3.8204   10.0137 C   0  0  0  0  0  0  0  0  0  0  0  0
    0.9973    4.6040    9.1190 C   0  0  0  0  0  0  0  0  0  0  0  0
   -0.2435    4.6079    9.5202 N   0  0  0  0  0  0  0  0  0  0  0  0
   -0.3316    3.8816   10.6309 N   0  0  0  0  0  0  0  0  0  0  0  0
    0.8832    3.3484   10.9943 C   0  0  0  0  0  0  0  0  0  0  0  0
    1.2619    2.5173   12.0545 C   0  0  0  0  0  0  0  0  0  0  0  0
   -0.0807   -0.0200   13.6329 H   0  0  0  0  0  0  0  0  0  0  0  0
   -2.5084   -0.4785   13.3798 H   0  0  0  0  0  0  0  0  0  0  0  0
   -3.5686   -2.2949   14.6815 H   0  0  0  0  0  0  0  0  0  0  0  0
   -2.2200   -3.6620   16.2275 H   0  0  0  0  0  0  0  0  0  0  0  0
    0.1892   -3.2270   16.4801 H   0  0  0  0  0  0  0  0  0  0  0  0
    5.0594    0.9971   12.8584 H   0  0  0  0  0  0  0  0  0  0  0  0
    4.6136    2.3210   13.9877 H   0  0  0  0  0  0  0  0  0  0  0  0
    6.8313    0.8972   15.3071 H   0  0  0  0  0  0  0  0  0  0  0  0
    6.2679   -0.7926   17.3197 H   0  0  0  0  0  0  0  0  0  0  0  0
    4.5821    2.3729   11.2587 H   0  0  0  0  0  0  0  0  0  0  0  0
    3.8726    3.8163    9.3844 H   0  0  0  0  0  0  0  0  0  0  0  0
    1.3643    5.1154    8.2414 H   0  0  0  0  0  0  0  0  0  0  0  0
   -1.0017    5.0781    9.0685 H   0  0  0  0  0  0  0  0  0  0  0  0
    0.5465    2.1696   12.7851 H   0  0  0  0  0  0  0  0  0  0  0  0
  1  2  1  0  0  0  0
  1  8  2  0  0  0  0
  2  3  2  0  0  0  0
  2  7  1  0  0  0  0
  3  4  1  0  0  0  0
  4  5  2  0  0  0  0
  5  6  1  0  0  0  0
  6  7  2  0  0  0  0
  8  9  1  0  0  0  0
  8 16  1  0  0  0  0
  9 10  2  0  0  0  0
 10 11  1  0  0  0  0
 10 17  1  0  0  0  0
 11 12  1  0  0  0  0
 12 13  1  0  0  0  0
 12 16  1  0  0  0  0
 13 14  2  0  0  0  0
 14 15  1  0  0  0  0
 15 16  2  0  0  0  0
 17 18  1  0  0  0  0
 17 25  2  0  0  0  0
 18 19  2  0  0  0  0
 19 20  1  0  0  0  0
 20 21  2  0  0  0  0
 20 24  1  0  0  0  0
 21 22  1  0  0  0  0
 22 23  1  0  0  0  0
 23 24  2  0  0  0  0
 24 25  1  0  0  0  0
  3 26  1  0  0  0  0
  4 27  1  0  0  0  0
  5 28  1  0  0  0  0
  6 29  1  0  0  0  0
  7 30  1  0  0  0  0
 11 31  1  0  0  0  0
 11 32  1  0  0  0  0
 13 33  1  0  0  0  0
 14 34  1  0  0  0  0
 18 35  1  0  0  0  0
 19 36  1  0  0  0  0
 21 37  1  0  0  0  0
 22 38  1  0  0  0  0
 25 39  1  0  0  0  0
M  END
> <IC50[nM]>
26.8

$$$$
CHEMBL3265027
  -OEChem-05192314333D
 Structure written by MMmdl.
 39 43  0     0  0  0  0  0  0999 V2000
    1.6124   -1.3917   15.3063 N   0  0  0  0  0  0  0  0  0  0  0  0
    0.2249   -1.5978   15.0814 C   0  0  0  0  0  0  0  0  0  0  0  0
   -0.5442   -0.8150   14.1982 C   0  0  0  0  0  0  0  0  0  0  0  0
   -1.9142   -1.0738   14.0573 C   0  0  0  0  0  0  0  0  0  0  0  0
   -2.5121   -2.0998   14.7912 C   0  0  0  0  0  0  0  0  0  0  0  0
   -1.7536   -2.8696   15.6610 C   0  0  0  0  0  0  0  0  0  0  0  0
   -0.3955   -2.6216   15.8033 C   0  0  0  0  0  0  0  0  0  0  0  0
    2.5315   -0.4491   14.7651 C   0  0  0  0  0  0  0  0  0  0  0  0
    2.1583    0.3961   13.7551 N   0  0  0  0  0  0  0  0  0  0  0  0
    3.0948    1.2419   13.2245 C   0  0  0  0  0  0  0  0  0  0  0  0
    4.4047    1.2813   13.6954 C   0  0  0  0  0  0  0  0  0  0  0  0
    4.7386    0.4915   14.7531 N   0  0  0  0  0  0  0  0  0  0  0  0
    5.8960    0.3859   15.4809 C   0  0  0  0  0  0  0  0  0  0  0  0
    5.5970   -0.5411   16.5116 C   0  0  0  0  0  0  0  0  0  0  0  0
    4.3870   -1.0586   16.3541 N   0  0  0  0  0  0  0  0  0  0  0  0
    3.8354   -0.3959   15.3220 C   0  0  0  0  0  0  0  0  0  0  0  0
    2.6241    2.1558   12.1223 C   0  0  0  0  0  0  0  0  0  0  0  0
    3.5409    2.6448   11.1668 C   0  0  0  0  0  0  0  0  0  0  0  0
    3.1526    3.4655   10.1090 C   0  0  0  0  0  0  0  0  0  0  0  0
    1.8070    3.8204   10.0137 C   0  0  0  0  0  0  0  0  0  0  0  0
    0.9973    4.6040    9.1190 C   0  0  0  0  0  0  0  0  0  0  0  0
   -0.2435    4.6079    9.5202 N   0  0  0  0  0  0  0  0  0  0  0  0
   -0.3316    3.8816   10.6309 N   0  0  0  0  0  0  0  0  0  0  0  0
    0.8832    3.3484   10.9943 C   0  0  0  0  0  0  0  0  0  0  0  0
    1.2619    2.5173   12.0545 C   0  0  0  0  0  0  0  0  0  0  0  0
   -0.0807   -0.0200   13.6329 H   0  0  0  0  0  0  0  0  0  0  0  0
   -2.5084   -0.4785   13.3798 H   0  0  0  0  0  0  0  0  0  0  0  0
   -3.3091   -1.6366   15.3914 H   0  0  0  0  0  0  0  0  0  0  0  0
   -2.9576   -2.7924   14.0620 H   0  0  0  0  0  0  0  0  0  0  0  0
   -2.2200   -3.6620   16.2275 H   0  0  0  0  0  0  0  0  0  0  0  0
    0.1892   -3.2270   16.4801 H   0  0  0  0  0  0  0  0  0  0  0  0
    5.1390    1.9237   13.2322 H   0  0  0  0  0  0  0  0  0  0  0  0
    6.8313    0.8972   15.3071 H   0  0  0  0  0  0  0  0  0  0  0  0
    6.2679   -0.7926   17.3197 H   0  0  0  0  0  0  0  0  0  0  0  0
    4.5821    2.3729   11.2587 H   0  0  0  0  0  0  0  0  0  0  0  0
    3.8726    3.8163    9.3844 H   0  0  0  0  0  0  0  0  0  0  0  0
    1.3643    5.1154    8.2414 H   0  0  0  0  0  0  0  0  0  0  0  0
   -1.1799    3.7400   11.1411 H   0  0  0  0  0  0  0  0  0  0  0  0
    0.5465    2.1696   12.7851 H   0  0  0  0  0  0  0  0  0  0  0  0
  1  2  2  0  0  0  0
  1  8  1  0  0  0  0
  2  3  1  0  0  0  0
  2  7  1  0  0  0  0
  3  4  2  0  0  0  0
  4  5  1  0  0  0  0
  5  6  1  0  0  0  0
  6  7  2  0  0  0  0
  8  9  2  0  0  0  0
  8 16  1  0  0  0  0
  9 10  1  0  0  0  0
 10 11  2  0  0  0  0
 10 17  1  0  0  0  0
 11 12  1  0  0  0  0
 12 13  1  0  0  0  0
 12 16  1  0  0  0  0
 13 14  2  0  0  0  0
 14 15  1  0  0  0  0
 15 16  2  0  0  0  0
 17 18  2  0  0  0  0
 17 25  1  0  0  0  0
 18 19  1  0  0  0  0
 19 20  2  0  0  0  0
 20 21  1  0  0  0  0
 20 24  1  0  0  0  0
 21 22  2  0  0  0  0
 22 23  1  0  0  0  0
 23 24  1  0  0  0  0
 24 25  2  0  0  0  0
  3 26  1  0  0  0  0
  4 27  1  0  0  0  0
  5 28  1  0  0  0  0
  5 29  1  0  0  0  0
  6 30  1  0  0  0  0
  7 31  1  0  0  0  0
 11 32  1  0  0  0  0
 13 33  1  0  0  0  0
 14 34  1  0  0  0  0
 18 35  1  0  0  0  0
 19 36  1  0  0  0  0
 21 37  1  0  0  0  0
 23 38  1  0  0  0  0
 25 39  1  0  0  0  0
M  END
> <IC50[nM]>
26.8

$$$$
CHEMBL3265027
  -OEChem-05192314333D
 Structure written by MMmdl.
 39 43  0     0  0  0  0  0  0999 V2000
    1.6124   -1.3917   15.3063 N   0  0  0  0  0  0  0  0  0  0  0  0
    0.2249   -1.5978   15.0814 C   0  0  0  0  0  0  0  0  0  0  0  0
   -0.5442   -0.8150   14.1982 C   0  0  0  0  0  0  0  0  0  0  0  0
   -1.9142   -1.0738   14.0573 C   0  0  0  0  0  0  0  0  0  0  0  0
   -2.5121   -2.0998   14.7912 C   0  0  0  0  0  0  0  0  0  0  0  0
   -1.7536   -2.8696   15.6610 C   0  0  0  0  0  0  0  0  0  0  0  0
   -0.3955   -2.6216   15.8033 C   0  0  0  0  0  0  0  0  0  0  0  0
    2.5315   -0.4491   14.7651 C   0  0  0  0  0  0  0  0  0  0  0  0
    2.1583    0.3961   13.7551 N   0  0  0  0  0  0  0  0  0  0  0  0
    3.0948    1.2419   13.2245 C   0  0  0  0  0  0  0  0  0  0  0  0
    4.4047    1.2813   13.6954 C   0  0  0  0  0  0  0  0  0  0  0  0
    4.7386    0.4915   14.7531 N   0  0  0  0  0  0  0  0  0  0  0  0
    5.8960    0.3859   15.4809 C   0  0  0  0  0  0  0  0  0  0  0  0
    5.5970   -0.5411   16.5116 C   0  0  0  0  0  0  0  0  0  0  0  0
    4.3870   -1.0586   16.3541 N   0  0  0  0  0  0  0  0  0  0  0  0
    3.8354   -0.3959   15.3220 C   0  0  0  0  0  0  0  0  0  0  0  0
    2.6241    2.1558   12.1223 C   0  0  0  0  0  0  0  0  0  0  0  0
    3.5409    2.6448   11.1668 C   0  0  0  0  0  0  0  0  0  0  0  0
    3.1526    3.4655   10.1090 C   0  0  0  0  0  0  0  0  0  0  0  0
    1.8070    3.8204   10.0137 C   0  0  0  0  0  0  0  0  0  0  0  0
    0.9973    4.6040    9.1190 C   0  0  0  0  0  0  0  0  0  0  0  0
   -0.2435    4.6079    9.5202 N   0  0  0  0  0  0  0  0  0  0  0  0
   -0.3316    3.8816   10.6309 N   0  0  0  0  0  0  0  0  0  0  0  0
    0.8832    3.3484   10.9943 C   0  0  0  0  0  0  0  0  0  0  0  0
    1.2619    2.5173   12.0545 C   0  0  0  0  0  0  0  0  0  0  0  0
   -0.0807   -0.0200   13.6329 H   0  0  0  0  0  0  0  0  0  0  0  0
   -2.5084   -0.4785   13.3798 H   0  0  0  0  0  0  0  0  0  0  0  0
   -3.3091   -1.6366   15.3914 H   0  0  0  0  0  0  0  0  0  0  0  0
   -2.9576   -2.7924   14.0620 H   0  0  0  0  0  0  0  0  0  0  0  0
   -2.2200   -3.6620   16.2275 H   0  0  0  0  0  0  0  0  0  0  0  0
    0.1892   -3.2270   16.4801 H   0  0  0  0  0  0  0  0  0  0  0  0
    5.1390    1.9237   13.2322 H   0  0  0  0  0  0  0  0  0  0  0  0
    6.8313    0.8972   15.3071 H   0  0  0  0  0  0  0  0  0  0  0  0
    6.2679   -0.7926   17.3197 H   0  0  0  0  0  0  0  0  0  0  0  0
    4.5821    2.3729   11.2587 H   0  0  0  0  0  0  0  0  0  0  0  0
    3.8726    3.8163    9.3844 H   0  0  0  0  0  0  0  0  0  0  0  0
    1.3643    5.1154    8.2414 H   0  0  0  0  0  0  0  0  0  0  0  0
   -1.0017    5.0781    9.0685 H   0  0  0  0  0  0  0  0  0  0  0  0
    0.5465    2.1696   12.7851 H   0  0  0  0  0  0  0  0  0  0  0  0
  1  2  2  0  0  0  0
  1  8  1  0  0  0  0
  2  3  1  0  0  0  0
  2  7  1  0  0  0  0
  3  4  2  0  0  0  0
  4  5  1  0  0  0  0
  5  6  1  0  0  0  0
  6  7  2  0  0  0  0
  8  9  2  0  0  0  0
  8 16  1  0  0  0  0
  9 10  1  0  0  0  0
 10 11  2  0  0  0  0
 10 17  1  0  0  0  0
 11 12  1  0  0  0  0
 12 13  1  0  0  0  0
 12 16  1  0  0  0  0
 13 14  2  0  0  0  0
 14 15  1  0  0  0  0
 15 16  2  0  0  0  0
 17 18  1  0  0  0  0
 17 25  2  0  0  0  0
 18 19  2  0  0  0  0
 19 20  1  0  0  0  0
 20 21  2  0  0  0  0
 20 24  1  0  0  0  0
 21 22  1  0  0  0  0
 22 23  1  0  0  0  0
 23 24  2  0  0  0  0
 24 25  1  0  0  0  0
  3 26  1  0  0  0  0
  4 27  1  0  0  0  0
  5 28  1  0  0  0  0
  5 29  1  0  0  0  0
  6 30  1  0  0  0  0
  7 31  1  0  0  0  0
 11 32  1  0  0  0  0
 13 33  1  0  0  0  0
 14 34  1  0  0  0  0
 18 35  1  0  0  0  0
 19 36  1  0  0  0  0
 21 37  1  0  0  0  0
 22 38  1  0  0  0  0
 25 39  1  0  0  0  0
M  END
> <IC50[nM]>
26.8

$$$$
CHEMBL3265027
  -OEChem-05192314333D
 Structure written by MMmdl.
 39 43  0     0  0  0  0  0  0999 V2000
    1.6124   -1.3917   15.3063 N   0  0  0  0  0  0  0  0  0  0  0  0
    0.2249   -1.5978   15.0814 C   0  0  0  0  0  0  0  0  0  0  0  0
   -0.5442   -0.8150   14.1982 C   0  0  0  0  0  0  0  0  0  0  0  0
   -1.9142   -1.0738   14.0573 C   0  0  0  0  0  0  0  0  0  0  0  0
   -2.5121   -2.0998   14.7912 C   0  0  0  0  0  0  0  0  0  0  0  0
   -1.7536   -2.8696   15.6610 C   0  0  0  0  0  0  0  0  0  0  0  0
   -0.3955   -2.6216   15.8033 C   0  0  0  0  0  0  0  0  0  0  0  0
    2.5315   -0.4491   14.7651 C   0  0  0  0  0  0  0  0  0  0  0  0
    2.1583    0.3961   13.7551 N   0  0  0  0  0  0  0  0  0  0  0  0
    3.0948    1.2419   13.2245 C   0  0  0  0  0  0  0  0  0  0  0  0
    4.4047    1.2813   13.6954 C   0  0  0  0  0  0  0  0  0  0  0  0
    4.7386    0.4915   14.7531 N   0  0  0  0  0  0  0  0  0  0  0  0
    5.8960    0.3859   15.4809 C   0  0  0  0  0  0  0  0  0  0  0  0
    5.5970   -0.5411   16.5116 C   0  0  0  0  0  0  0  0  0  0  0  0
    4.3870   -1.0586   16.3541 N   0  0  0  0  0  0  0  0  0  0  0  0
    3.8354   -0.3959   15.3220 C   0  0  0  0  0  0  0  0  0  0  0  0
    2.6241    2.1558   12.1223 C   0  0  0  0  0  0  0  0  0  0  0  0
    3.5409    2.6448   11.1668 C   0  0  0  0  0  0  0  0  0  0  0  0
    3.1526    3.4655   10.1090 C   0  0  0  0  0  0  0  0  0  0  0  0
    1.8070    3.8204   10.0137 C   0  0  0  0  0  0  0  0  0  0  0  0
    0.9973    4.6040    9.1190 C   0  0  0  0  0  0  0  0  0  0  0  0
   -0.2435    4.6079    9.5202 N   0  0  0  0  0  0  0  0  0  0  0  0
   -0.3316    3.8816   10.6309 N   0  0  0  0  0  0  0  0  0  0  0  0
    0.8832    3.3484   10.9943 C   0  0  0  0  0  0  0  0  0  0  0  0
    1.2619    2.5173   12.0545 C   0  0  0  0  0  0  0  0  0  0  0  0
   -0.0807   -0.0200   13.6329 H   0  0  0  0  0  0  0  0  0  0  0  0
   -2.5084   -0.4785   13.3798 H   0  0  0  0  0  0  0  0  0  0  0  0
   -3.5686   -2.2949   14.6815 H   0  0  0  0  0  0  0  0  0  0  0  0
   -2.2200   -3.6620   16.2275 H   0  0  0  0  0  0  0  0  0  0  0  0
    0.1234   -3.5536   15.5348 H   0  0  0  0  0  0  0  0  0  0  0  0
   -0.2267   -2.4016   16.8678 H   0  0  0  0  0  0  0  0  0  0  0  0
    5.1390    1.9237   13.2322 H   0  0  0  0  0  0  0  0  0  0  0  0
    6.8313    0.8972   15.3071 H   0  0  0  0  0  0  0  0  0  0  0  0
    6.2679   -0.7926   17.3197 H   0  0  0  0  0  0  0  0  0  0  0  0
    4.5821    2.3729   11.2587 H   0  0  0  0  0  0  0  0  0  0  0  0
    3.8726    3.8163    9.3844 H   0  0  0  0  0  0  0  0  0  0  0  0
    1.3643    5.1154    8.2414 H   0  0  0  0  0  0  0  0  0  0  0  0
   -1.1799    3.7400   11.1411 H   0  0  0  0  0  0  0  0  0  0  0  0
    0.5465    2.1696   12.7851 H   0  0  0  0  0  0  0  0  0  0  0  0
  1  2  2  0  0  0  0
  1  8  1  0  0  0  0
  2  3  1  0  0  0  0
  2  7  1  0  0  0  0
  3  4  2  0  0  0  0
  4  5  1  0  0  0  0
  5  6  2  0  0  0  0
  6  7  1  0  0  0  0
  8  9  2  0  0  0  0
  8 16  1  0  0  0  0
  9 10  1  0  0  0  0
 10 11  2  0  0  0  0
 10 17  1  0  0  0  0
 11 12  1  0  0  0  0
 12 13  1  0  0  0  0
 12 16  1  0  0  0  0
 13 14  2  0  0  0  0
 14 15  1  0  0  0  0
 15 16  2  0  0  0  0
 17 18  2  0  0  0  0
 17 25  1  0  0  0  0
 18 19  1  0  0  0  0
 19 20  2  0  0  0  0
 20 21  1  0  0  0  0
 20 24  1  0  0  0  0
 21 22  2  0  0  0  0
 22 23  1  0  0  0  0
 23 24  1  0  0  0  0
 24 25  2  0  0  0  0
  3 26  1  0  0  0  0
  4 27  1  0  0  0  0
  5 28  1  0  0  0  0
  6 29  1  0  0  0  0
  7 30  1  0  0  0  0
  7 31  1  0  0  0  0
 11 32  1  0  0  0  0
 13 33  1  0  0  0  0
 14 34  1  0  0  0  0
 18 35  1  0  0  0  0
 19 36  1  0  0  0  0
 21 37  1  0  0  0  0
 23 38  1  0  0  0  0
 25 39  1  0  0  0  0
M  END
> <IC50[nM]>
26.8

$$$$
CHEMBL3265027
  -OEChem-05192314333D
 Structure written by MMmdl.
 39 43  0     0  0  0  0  0  0999 V2000
    1.6124   -1.3917   15.3063 N   0  0  0  0  0  0  0  0  0  0  0  0
    0.2249   -1.5978   15.0814 C   0  0  0  0  0  0  0  0  0  0  0  0
   -0.5442   -0.8150   14.1982 C   0  0  0  0  0  0  0  0  0  0  0  0
   -1.9142   -1.0738   14.0573 C   0  0  0  0  0  0  0  0  0  0  0  0
   -2.5121   -2.0998   14.7912 C   0  0  0  0  0  0  0  0  0  0  0  0
   -1.7536   -2.8696   15.6610 C   0  0  0  0  0  0  0  0  0  0  0  0
   -0.3955   -2.6216   15.8033 C   0  0  0  0  0  0  0  0  0  0  0  0
    2.5315   -0.4491   14.7651 C   0  0  0  0  0  0  0  0  0  0  0  0
    2.1583    0.3961   13.7551 N   0  0  0  0  0  0  0  0  0  0  0  0
    3.0948    1.2419   13.2245 C   0  0  0  0  0  0  0  0  0  0  0  0
    4.4047    1.2813   13.6954 C   0  0  0  0  0  0  0  0  0  0  0  0
    4.7386    0.4915   14.7531 N   0  0  0  0  0  0  0  0  0  0  0  0
    5.8960    0.3859   15.4809 C   0  0  0  0  0  0  0  0  0  0  0  0
    5.5970   -0.5411   16.5116 C   0  0  0  0  0  0  0  0  0  0  0  0
    4.3870   -1.0586   16.3541 N   0  0  0  0  0  0  0  0  0  0  0  0
    3.8354   -0.3959   15.3220 C   0  0  0  0  0  0  0  0  0  0  0  0
    2.6241    2.1558   12.1223 C   0  0  0  0  0  0  0  0  0  0  0  0
    3.5409    2.6448   11.1668 C   0  0  0  0  0  0  0  0  0  0  0  0
    3.1526    3.4655   10.1090 C   0  0  0  0  0  0  0  0  0  0  0  0
    1.8070    3.8204   10.0137 C   0  0  0  0  0  0  0  0  0  0  0  0
    0.9973    4.6040    9.1190 C   0  0  0  0  0  0  0  0  0  0  0  0
   -0.2435    4.6079    9.5202 N   0  0  0  0  0  0  0  0  0  0  0  0
   -0.3316    3.8816   10.6309 N   0  0  0  0  0  0  0  0  0  0  0  0
    0.8832    3.3484   10.9943 C   0  0  0  0  0  0  0  0  0  0  0  0
    1.2619    2.5173   12.0545 C   0  0  0  0  0  0  0  0  0  0  0  0
   -0.0807   -0.0200   13.6329 H   0  0  0  0  0  0  0  0  0  0  0  0
   -2.5084   -0.4785   13.3798 H   0  0  0  0  0  0  0  0  0  0  0  0
   -3.5686   -2.2949   14.6815 H   0  0  0  0  0  0  0  0  0  0  0  0
   -2.2200   -3.6620   16.2275 H   0  0  0  0  0  0  0  0  0  0  0  0
    0.1234   -3.5536   15.5348 H   0  0  0  0  0  0  0  0  0  0  0  0
   -0.2267   -2.4016   16.8678 H   0  0  0  0  0  0  0  0  0  0  0  0
    5.1390    1.9237   13.2322 H   0  0  0  0  0  0  0  0  0  0  0  0
    6.8313    0.8972   15.3071 H   0  0  0  0  0  0  0  0  0  0  0  0
    6.2679   -0.7926   17.3197 H   0  0  0  0  0  0  0  0  0  0  0  0
    4.5821    2.3729   11.2587 H   0  0  0  0  0  0  0  0  0  0  0  0
    3.8726    3.8163    9.3844 H   0  0  0  0  0  0  0  0  0  0  0  0
    1.3643    5.1154    8.2414 H   0  0  0  0  0  0  0  0  0  0  0  0
   -1.0017    5.0781    9.0685 H   0  0  0  0  0  0  0  0  0  0  0  0
    0.5465    2.1696   12.7851 H   0  0  0  0  0  0  0  0  0  0  0  0
  1  2  2  0  0  0  0
  1  8  1  0  0  0  0
  2  3  1  0  0  0  0
  2  7  1  0  0  0  0
  3  4  2  0  0  0  0
  4  5  1  0  0  0  0
  5  6  2  0  0  0  0
  6  7  1  0  0  0  0
  8  9  2  0  0  0  0
  8 16  1  0  0  0  0
  9 10  1  0  0  0  0
 10 11  2  0  0  0  0
 10 17  1  0  0  0  0
 11 12  1  0  0  0  0
 12 13  1  0  0  0  0
 12 16  1  0  0  0  0
 13 14  2  0  0  0  0
 14 15  1  0  0  0  0
 15 16  2  0  0  0  0
 17 18  1  0  0  0  0
 17 25  2  0  0  0  0
 18 19  2  0  0  0  0
 19 20  1  0  0  0  0
 20 21  2  0  0  0  0
 20 24  1  0  0  0  0
 21 22  1  0  0  0  0
 22 23  1  0  0  0  0
 23 24  2  0  0  0  0
 24 25  1  0  0  0  0
  3 26  1  0  0  0  0
  4 27  1  0  0  0  0
  5 28  1  0  0  0  0
  6 29  1  0  0  0  0
  7 30  1  0  0  0  0
  7 31  1  0  0  0  0
 11 32  1  0  0  0  0
 13 33  1  0  0  0  0
 14 34  1  0  0  0  0
 18 35  1  0  0  0  0
 19 36  1  0  0  0  0
 21 37  1  0  0  0  0
 22 38  1  0  0  0  0
 25 39  1  0  0  0  0
M  END
> <IC50[nM]>
26.8

$$$$
CHEMBL3265027
  -OEChem-05192314333D
 Structure written by MMmdl.
 39 43  0     0  0  0  0  0  0999 V2000
    1.6124   -1.3917   15.3063 N   0  0  0  0  0  0  0  0  0  0  0  0
    0.2249   -1.5978   15.0814 C   0  0  0  0  0  0  0  0  0  0  0  0
   -0.5442   -0.8150   14.1982 C   0  0  0  0  0  0  0  0  0  0  0  0
   -1.9142   -1.0738   14.0573 C   0  0  0  0  0  0  0  0  0  0  0  0
   -2.5121   -2.0998   14.7912 C   0  0  0  0  0  0  0  0  0  0  0  0
   -1.7536   -2.8696   15.6610 C   0  0  0  0  0  0  0  0  0  0  0  0
   -0.3955   -2.6216   15.8033 C   0  0  0  0  0  0  0  0  0  0  0  0
    2.5315   -0.4491   14.7651 C   0  0  0  0  0  0  0  0  0  0  0  0
    2.1583    0.3961   13.7551 N   0  0  0  0  0  0  0  0  0  0  0  0
    3.0948    1.2419   13.2245 C   0  0  0  0  0  0  0  0  0  0  0  0
    4.4047    1.2813   13.6954 C   0  0  0  0  0  0  0  0  0  0  0  0
    4.7386    0.4915   14.7531 N   0  0  0  0  0  0  0  0  0  0  0  0
    5.8960    0.3859   15.4809 C   0  0  0  0  0  0  0  0  0  0  0  0
    5.5970   -0.5411   16.5116 C   0  0  0  0  0  0  0  0  0  0  0  0
    4.3870   -1.0586   16.3541 N   0  0  0  0  0  0  0  0  0  0  0  0
    3.8354   -0.3959   15.3220 C   0  0  0  0  0  0  0  0  0  0  0  0
    2.6241    2.1558   12.1223 C   0  0  0  0  0  0  0  0  0  0  0  0
    3.5409    2.6448   11.1668 C   0  0  0  0  0  0  0  0  0  0  0  0
    3.1526    3.4655   10.1090 C   0  0  0  0  0  0  0  0  0  0  0  0
    1.8070    3.8204   10.0137 C   0  0  0  0  0  0  0  0  0  0  0  0
    0.9973    4.6040    9.1190 C   0  0  0  0  0  0  0  0  0  0  0  0
   -0.2435    4.6079    9.5202 N   0  0  0  0  0  0  0  0  0  0  0  0
   -0.3316    3.8816   10.6309 N   0  0  0  0  0  0  0  0  0  0  0  0
    0.8832    3.3484   10.9943 C   0  0  0  0  0  0  0  0  0  0  0  0
    1.2619    2.5173   12.0545 C   0  0  0  0  0  0  0  0  0  0  0  0
   -0.0807   -0.0200   13.6329 H   0  0  0  0  0  0  0  0  0  0  0  0
   -2.5084   -0.4785   13.3798 H   0  0  0  0  0  0  0  0  0  0  0  0
   -3.5686   -2.2949   14.6815 H   0  0  0  0  0  0  0  0  0  0  0  0
   -2.2200   -3.6620   16.2275 H   0  0  0  0  0  0  0  0  0  0  0  0
    0.1892   -3.2270   16.4801 H   0  0  0  0  0  0  0  0  0  0  0  0
    5.0594    0.9971   12.8584 H   0  0  0  0  0  0  0  0  0  0  0  0
    4.6136    2.3210   13.9877 H   0  0  0  0  0  0  0  0  0  0  0  0
    6.8313    0.8972   15.3071 H   0  0  0  0  0  0  0  0  0  0  0  0
    6.2679   -0.7926   17.3197 H   0  0  0  0  0  0  0  0  0  0  0  0
    4.5821    2.3729   11.2587 H   0  0  0  0  0  0  0  0  0  0  0  0
    3.8726    3.8163    9.3844 H   0  0  0  0  0  0  0  0  0  0  0  0
    1.3753    5.6368    9.0973 H   0  0  0  0  0  0  0  0  0  0  0  0
    1.0510    4.1726    8.1085 H   0  0  0  0  0  0  0  0  0  0  0  0
    0.5465    2.1696   12.7851 H   0  0  0  0  0  0  0  0  0  0  0  0
  1  2  1  0  0  0  0
  1  8  2  0  0  0  0
  2  3  2  0  0  0  0
  2  7  1  0  0  0  0
  3  4  1  0  0  0  0
  4  5  2  0  0  0  0
  5  6  1  0  0  0  0
  6  7  2  0  0  0  0
  8  9  1  0  0  0  0
  8 16  1  0  0  0  0
  9 10  2  0  0  0  0
 10 11  1  0  0  0  0
 10 17  1  0  0  0  0
 11 12  1  0  0  0  0
 12 13  1  0  0  0  0
 12 16  1  0  0  0  0
 13 14  2  0  0  0  0
 14 15  1  0  0  0  0
 15 16  2  0  0  0  0
 17 18  2  0  0  0  0
 17 25  1  0  0  0  0
 18 19  1  0  0  0  0
 19 20  2  0  0  0  0
 20 21  1  0  0  0  0
 20 24  1  0  0  0  0
 21 22  1  0  0  0  0
 22 23  2  0  0  0  0
 23 24  1  0  0  0  0
 24 25  2  0  0  0  0
  3 26  1  0  0  0  0
  4 27  1  0  0  0  0
  5 28  1  0  0  0  0
  6 29  1  0  0  0  0
  7 30  1  0  0  0  0
 11 31  1  0  0  0  0
 11 32  1  0  0  0  0
 13 33  1  0  0  0  0
 14 34  1  0  0  0  0
 18 35  1  0  0  0  0
 19 36  1  0  0  0  0
 21 37  1  0  0  0  0
 21 38  1  0  0  0  0
 25 39  1  0  0  0  0
M  END
> <IC50[nM]>
26.8

$$$$
CHEMBL3265027
  -OEChem-05192314333D
 Structure written by MMmdl.
 39 43  0     0  0  0  0  0  0999 V2000
    1.6124   -1.3917   15.3063 N   0  0  0  0  0  0  0  0  0  0  0  0
    0.2249   -1.5978   15.0814 C   0  0  0  0  0  0  0  0  0  0  0  0
   -0.5442   -0.8150   14.1982 C   0  0  0  0  0  0  0  0  0  0  0  0
   -1.9142   -1.0738   14.0573 C   0  0  0  0  0  0  0  0  0  0  0  0
   -2.5121   -2.0998   14.7912 C   0  0  0  0  0  0  0  0  0  0  0  0
   -1.7536   -2.8696   15.6610 C   0  0  0  0  0  0  0  0  0  0  0  0
   -0.3955   -2.6216   15.8033 C   0  0  0  0  0  0  0  0  0  0  0  0
    2.5315   -0.4491   14.7651 C   0  0  0  0  0  0  0  0  0  0  0  0
    2.1583    0.3961   13.7551 N   0  0  0  0  0  0  0  0  0  0  0  0
    3.0948    1.2419   13.2245 C   0  0  0  0  0  0  0  0  0  0  0  0
    4.4047    1.2813   13.6954 C   0  0  0  0  0  0  0  0  0  0  0  0
    4.7386    0.4915   14.7531 N   0  0  0  0  0  0  0  0  0  0  0  0
    5.8960    0.3859   15.4809 C   0  0  0  0  0  0  0  0  0  0  0  0
    5.5970   -0.5411   16.5116 C   0  0  0  0  0  0  0  0  0  0  0  0
    4.3870   -1.0586   16.3541 N   0  0  0  0  0  0  0  0  0  0  0  0
    3.8354   -0.3959   15.3220 C   0  0  0  0  0  0  0  0  0  0  0  0
    2.6241    2.1558   12.1223 C   0  0  0  0  0  0  0  0  0  0  0  0
    3.5409    2.6448   11.1668 C   0  0  0  0  0  0  0  0  0  0  0  0
    3.1526    3.4655   10.1090 C   0  0  0  0  0  0  0  0  0  0  0  0
    1.8070    3.8204   10.0137 C   0  0  0  0  0  0  0  0  0  0  0  0
    0.9973    4.6040    9.1190 C   0  0  0  0  0  0  0  0  0  0  0  0
   -0.2435    4.6079    9.5202 N   0  0  0  0  0  0  0  0  0  0  0  0
   -0.3316    3.8816   10.6309 N   0  0  0  0  0  0  0  0  0  0  0  0
    0.8832    3.3484   10.9943 C   0  0  0  0  0  0  0  0  0  0  0  0
    1.2619    2.5173   12.0545 C   0  0  0  0  0  0  0  0  0  0  0  0
    2.0177   -2.0249   15.9657 H   0  0  0  0  0  0  0  0  0  0  0  0
   -0.0807   -0.0200   13.6329 H   0  0  0  0  0  0  0  0  0  0  0  0
   -2.5084   -0.4785   13.3798 H   0  0  0  0  0  0  0  0  0  0  0  0
   -3.5686   -2.2949   14.6815 H   0  0  0  0  0  0  0  0  0  0  0  0
   -2.2200   -3.6620   16.2275 H   0  0  0  0  0  0  0  0  0  0  0  0
    0.1892   -3.2270   16.4801 H   0  0  0  0  0  0  0  0  0  0  0  0
    5.0594    0.9971   12.8584 H   0  0  0  0  0  0  0  0  0  0  0  0
    4.6136    2.3210   13.9877 H   0  0  0  0  0  0  0  0  0  0  0  0
    6.8313    0.8972   15.3071 H   0  0  0  0  0  0  0  0  0  0  0  0
    6.2679   -0.7926   17.3197 H   0  0  0  0  0  0  0  0  0  0  0  0
    4.5821    2.3729   11.2587 H   0  0  0  0  0  0  0  0  0  0  0  0
    3.8726    3.8163    9.3844 H   0  0  0  0  0  0  0  0  0  0  0  0
    1.3643    5.1154    8.2414 H   0  0  0  0  0  0  0  0  0  0  0  0
    0.5465    2.1696   12.7851 H   0  0  0  0  0  0  0  0  0  0  0  0
  1  2  1  0  0  0  0
  1  8  1  0  0  0  0
  2  3  2  0  0  0  0
  2  7  1  0  0  0  0
  3  4  1  0  0  0  0
  4  5  2  0  0  0  0
  5  6  1  0  0  0  0
  6  7  2  0  0  0  0
  8  9  2  0  0  0  0
  8 16  1  0  0  0  0
  9 10  1  0  0  0  0
 10 11  1  0  0  0  0
 10 17  2  0  0  0  0
 11 12  1  0  0  0  0
 12 13  1  0  0  0  0
 12 16  1  0  0  0  0
 13 14  2  0  0  0  0
 14 15  1  0  0  0  0
 15 16  2  0  0  0  0
 17 18  1  0  0  0  0
 17 25  1  0  0  0  0
 18 19  2  0  0  0  0
 19 20  1  0  0  0  0
 20 21  2  0  0  0  0
 20 24  1  0  0  0  0
 21 22  1  0  0  0  0
 22 23  2  0  0  0  0
 23 24  1  0  0  0  0
 24 25  2  0  0  0  0
  1 26  1  0  0  0  0
  3 27  1  0  0  0  0
  4 28  1  0  0  0  0
  5 29  1  0  0  0  0
  6 30  1  0  0  0  0
  7 31  1  0  0  0  0
 11 32  1  0  0  0  0
 11 33  1  0  0  0  0
 13 34  1  0  0  0  0
 14 35  1  0  0  0  0
 18 36  1  0  0  0  0
 19 37  1  0  0  0  0
 21 38  1  0  0  0  0
 25 39  1  0  0  0  0
M  END
> <IC50[nM]>
26.8

$$$$
CHEMBL3265027
  -OEChem-05192314333D
 Structure written by MMmdl.
 39 43  0     0  0  0  0  0  0999 V2000
    1.6124   -1.3917   15.3063 N   0  0  0  0  0  0  0  0  0  0  0  0
    0.2249   -1.5978   15.0814 C   0  0  0  0  0  0  0  0  0  0  0  0
   -0.5442   -0.8150   14.1982 C   0  0  0  0  0  0  0  0  0  0  0  0
   -1.9142   -1.0738   14.0573 C   0  0  0  0  0  0  0  0  0  0  0  0
   -2.5121   -2.0998   14.7912 C   0  0  0  0  0  0  0  0  0  0  0  0
   -1.7536   -2.8696   15.6610 C   0  0  0  0  0  0  0  0  0  0  0  0
   -0.3955   -2.6216   15.8033 C   0  0  0  0  0  0  0  0  0  0  0  0
    2.5315   -0.4491   14.7651 C   0  0  0  0  0  0  0  0  0  0  0  0
    2.1583    0.3961   13.7551 N   0  0  0  0  0  0  0  0  0  0  0  0
    3.0948    1.2419   13.2245 C   0  0  0  0  0  0  0  0  0  0  0  0
    4.4047    1.2813   13.6954 C   0  0  0  0  0  0  0  0  0  0  0  0
    4.7386    0.4915   14.7531 N   0  0  0  0  0  0  0  0  0  0  0  0
    5.8960    0.3859   15.4809 C   0  0  0  0  0  0  0  0  0  0  0  0
    5.5970   -0.5411   16.5116 C   0  0  0  0  0  0  0  0  0  0  0  0
    4.3870   -1.0586   16.3541 N   0  0  0  0  0  0  0  0  0  0  0  0
    3.8354   -0.3959   15.3220 C   0  0  0  0  0  0  0  0  0  0  0  0
    2.6241    2.1558   12.1223 C   0  0  0  0  0  0  0  0  0  0  0  0
    3.5409    2.6448   11.1668 C   0  0  0  0  0  0  0  0  0  0  0  0
    3.1526    3.4655   10.1090 C   0  0  0  0  0  0  0  0  0  0  0  0
    1.8070    3.8204   10.0137 C   0  0  0  0  0  0  0  0  0  0  0  0
    0.9973    4.6040    9.1190 C   0  0  0  0  0  0  0  0  0  0  0  0
   -0.2435    4.6079    9.5202 N   0  0  0  0  0  0  0  0  0  0  0  0
   -0.3316    3.8816   10.6309 N   0  0  0  0  0  0  0  0  0  0  0  0
    0.8832    3.3484   10.9943 C   0  0  0  0  0  0  0  0  0  0  0  0
    1.2619    2.5173   12.0545 C   0  0  0  0  0  0  0  0  0  0  0  0
   -0.0807   -0.0200   13.6329 H   0  0  0  0  0  0  0  0  0  0  0  0
   -2.5084   -0.4785   13.3798 H   0  0  0  0  0  0  0  0  0  0  0  0
   -3.5686   -2.2949   14.6815 H   0  0  0  0  0  0  0  0  0  0  0  0
   -2.2200   -3.6620   16.2275 H   0  0  0  0  0  0  0  0  0  0  0  0
    0.1892   -3.2270   16.4801 H   0  0  0  0  0  0  0  0  0  0  0  0
    1.2192    0.3957   13.4113 H   0  0  0  0  0  0  0  0  0  0  0  0
    5.0594    0.9971   12.8584 H   0  0  0  0  0  0  0  0  0  0  0  0
    4.6136    2.3210   13.9877 H   0  0  0  0  0  0  0  0  0  0  0  0
    6.8313    0.8972   15.3071 H   0  0  0  0  0  0  0  0  0  0  0  0
    6.2679   -0.7926   17.3197 H   0  0  0  0  0  0  0  0  0  0  0  0
    4.5821    2.3729   11.2587 H   0  0  0  0  0  0  0  0  0  0  0  0
    3.8726    3.8163    9.3844 H   0  0  0  0  0  0  0  0  0  0  0  0
    1.3643    5.1154    8.2414 H   0  0  0  0  0  0  0  0  0  0  0  0
    0.5465    2.1696   12.7851 H   0  0  0  0  0  0  0  0  0  0  0  0
  1  2  1  0  0  0  0
  1  8  2  0  0  0  0
  2  3  2  0  0  0  0
  2  7  1  0  0  0  0
  3  4  1  0  0  0  0
  4  5  2  0  0  0  0
  5  6  1  0  0  0  0
  6  7  2  0  0  0  0
  8  9  1  0  0  0  0
  8 16  1  0  0  0  0
  9 10  1  0  0  0  0
 10 11  1  0  0  0  0
 10 17  2  0  0  0  0
 11 12  1  0  0  0  0
 12 13  1  0  0  0  0
 12 16  1  0  0  0  0
 13 14  2  0  0  0  0
 14 15  1  0  0  0  0
 15 16  2  0  0  0  0
 17 18  1  0  0  0  0
 17 25  1  0  0  0  0
 18 19  2  0  0  0  0
 19 20  1  0  0  0  0
 20 21  2  0  0  0  0
 20 24  1  0  0  0  0
 21 22  1  0  0  0  0
 22 23  2  0  0  0  0
 23 24  1  0  0  0  0
 24 25  2  0  0  0  0
  3 26  1  0  0  0  0
  4 27  1  0  0  0  0
  5 28  1  0  0  0  0
  6 29  1  0  0  0  0
  7 30  1  0  0  0  0
  9 31  1  0  0  0  0
 11 32  1  0  0  0  0
 11 33  1  0  0  0  0
 13 34  1  0  0  0  0
 14 35  1  0  0  0  0
 18 36  1  0  0  0  0
 19 37  1  0  0  0  0
 21 38  1  0  0  0  0
 25 39  1  0  0  0  0
M  END
> <IC50[nM]>
26.8

$$$$
CHEMBL3265027
  -OEChem-05192314333D
 Structure written by MMmdl.
 39 43  0     0  0  0  0  0  0999 V2000
    1.6124   -1.3917   15.3063 N   0  0  0  0  0  0  0  0  0  0  0  0
    0.2249   -1.5978   15.0814 C   0  0  0  0  0  0  0  0  0  0  0  0
   -0.5442   -0.8150   14.1982 C   0  0  0  0  0  0  0  0  0  0  0  0
   -1.9142   -1.0738   14.0573 C   0  0  0  0  0  0  0  0  0  0  0  0
   -2.5121   -2.0998   14.7912 C   0  0  0  0  0  0  0  0  0  0  0  0
   -1.7536   -2.8696   15.6610 C   0  0  0  0  0  0  0  0  0  0  0  0
   -0.3955   -2.6216   15.8033 C   0  0  0  0  0  0  0  0  0  0  0  0
    2.5315   -0.4491   14.7651 C   0  0  0  0  0  0  0  0  0  0  0  0
    2.1583    0.3961   13.7551 N   0  0  0  0  0  0  0  0  0  0  0  0
    3.0948    1.2419   13.2245 C   0  0  0  0  0  0  0  0  0  0  0  0
    4.4047    1.2813   13.6954 C   0  0  0  0  0  0  0  0  0  0  0  0
    4.7386    0.4915   14.7531 N   0  0  0  0  0  0  0  0  0  0  0  0
    5.8960    0.3859   15.4809 C   0  0  0  0  0  0  0  0  0  0  0  0
    5.5970   -0.5411   16.5116 C   0  0  0  0  0  0  0  0  0  0  0  0
    4.3870   -1.0586   16.3541 N   0  0  0  0  0  0  0  0  0  0  0  0
    3.8354   -0.3959   15.3220 C   0  0  0  0  0  0  0  0  0  0  0  0
    2.6241    2.1558   12.1223 C   0  0  0  0  0  0  0  0  0  0  0  0
    3.5409    2.6448   11.1668 C   0  0  0  0  0  0  0  0  0  0  0  0
    3.1526    3.4655   10.1090 C   0  0  0  0  0  0  0  0  0  0  0  0
    1.8070    3.8204   10.0137 C   0  0  0  0  0  0  0  0  0  0  0  0
    0.9973    4.6040    9.1190 C   0  0  0  0  0  0  0  0  0  0  0  0
   -0.2435    4.6079    9.5202 N   0  0  0  0  0  0  0  0  0  0  0  0
   -0.3316    3.8816   10.6309 N   0  0  0  0  0  0  0  0  0  0  0  0
    0.8832    3.3484   10.9943 C   0  0  0  0  0  0  0  0  0  0  0  0
    1.2619    2.5173   12.0545 C   0  0  0  0  0  0  0  0  0  0  0  0
   -0.0807   -0.0200   13.6329 H   0  0  0  0  0  0  0  0  0  0  0  0
   -2.5084   -0.4785   13.3798 H   0  0  0  0  0  0  0  0  0  0  0  0
   -3.3091   -1.6366   15.3914 H   0  0  0  0  0  0  0  0  0  0  0  0
   -2.9576   -2.7924   14.0620 H   0  0  0  0  0  0  0  0  0  0  0  0
   -2.2200   -3.6620   16.2275 H   0  0  0  0  0  0  0  0  0  0  0  0
    0.1892   -3.2270   16.4801 H   0  0  0  0  0  0  0  0  0  0  0  0
    5.1390    1.9237   13.2322 H   0  0  0  0  0  0  0  0  0  0  0  0
    6.8313    0.8972   15.3071 H   0  0  0  0  0  0  0  0  0  0  0  0
    6.2679   -0.7926   17.3197 H   0  0  0  0  0  0  0  0  0  0  0  0
    4.5821    2.3729   11.2587 H   0  0  0  0  0  0  0  0  0  0  0  0
    3.8726    3.8163    9.3844 H   0  0  0  0  0  0  0  0  0  0  0  0
    1.3753    5.6368    9.0973 H   0  0  0  0  0  0  0  0  0  0  0  0
    1.0510    4.1726    8.1085 H   0  0  0  0  0  0  0  0  0  0  0  0
    0.5465    2.1696   12.7851 H   0  0  0  0  0  0  0  0  0  0  0  0
  1  2  2  0  0  0  0
  1  8  1  0  0  0  0
  2  3  1  0  0  0  0
  2  7  1  0  0  0  0
  3  4  2  0  0  0  0
  4  5  1  0  0  0  0
  5  6  1  0  0  0  0
  6  7  2  0  0  0  0
  8  9  2  0  0  0  0
  8 16  1  0  0  0  0
  9 10  1  0  0  0  0
 10 11  2  0  0  0  0
 10 17  1  0  0  0  0
 11 12  1  0  0  0  0
 12 13  1  0  0  0  0
 12 16  1  0  0  0  0
 13 14  2  0  0  0  0
 14 15  1  0  0  0  0
 15 16  2  0  0  0  0
 17 18  2  0  0  0  0
 17 25  1  0  0  0  0
 18 19  1  0  0  0  0
 19 20  2  0  0  0  0
 20 21  1  0  0  0  0
 20 24  1  0  0  0  0
 21 22  1  0  0  0  0
 22 23  2  0  0  0  0
 23 24  1  0  0  0  0
 24 25  2  0  0  0  0
  3 26  1  0  0  0  0
  4 27  1  0  0  0  0
  5 28  1  0  0  0  0
  5 29  1  0  0  0  0
  6 30  1  0  0  0  0
  7 31  1  0  0  0  0
 11 32  1  0  0  0  0
 13 33  1  0  0  0  0
 14 34  1  0  0  0  0
 18 35  1  0  0  0  0
 19 36  1  0  0  0  0
 21 37  1  0  0  0  0
 21 38  1  0  0  0  0
 25 39  1  0  0  0  0
M  END
> <IC50[nM]>
26.8

$$$$
CHEMBL3265027
  -OEChem-05192314333D
 Structure written by MMmdl.
 39 43  0     0  0  0  0  0  0999 V2000
    1.6124   -1.3917   15.3063 N   0  0  0  0  0  0  0  0  0  0  0  0
    0.2249   -1.5978   15.0814 C   0  0  0  0  0  0  0  0  0  0  0  0
   -0.5442   -0.8150   14.1982 C   0  0  0  0  0  0  0  0  0  0  0  0
   -1.9142   -1.0738   14.0573 C   0  0  0  0  0  0  0  0  0  0  0  0
   -2.5121   -2.0998   14.7912 C   0  0  0  0  0  0  0  0  0  0  0  0
   -1.7536   -2.8696   15.6610 C   0  0  0  0  0  0  0  0  0  0  0  0
   -0.3955   -2.6216   15.8033 C   0  0  0  0  0  0  0  0  0  0  0  0
    2.5315   -0.4491   14.7651 C   0  0  0  0  0  0  0  0  0  0  0  0
    2.1583    0.3961   13.7551 N   0  0  0  0  0  0  0  0  0  0  0  0
    3.0948    1.2419   13.2245 C   0  0  0  0  0  0  0  0  0  0  0  0
    4.4047    1.2813   13.6954 C   0  0  0  0  0  0  0  0  0  0  0  0
    4.7386    0.4915   14.7531 N   0  0  0  0  0  0  0  0  0  0  0  0
    5.8960    0.3859   15.4809 C   0  0  0  0  0  0  0  0  0  0  0  0
    5.5970   -0.5411   16.5116 C   0  0  0  0  0  0  0  0  0  0  0  0
    4.3870   -1.0586   16.3541 N   0  0  0  0  0  0  0  0  0  0  0  0
    3.8354   -0.3959   15.3220 C   0  0  0  0  0  0  0  0  0  0  0  0
    2.6241    2.1558   12.1223 C   0  0  0  0  0  0  0  0  0  0  0  0
    3.5409    2.6448   11.1668 C   0  0  0  0  0  0  0  0  0  0  0  0
    3.1526    3.4655   10.1090 C   0  0  0  0  0  0  0  0  0  0  0  0
    1.8070    3.8204   10.0137 C   0  0  0  0  0  0  0  0  0  0  0  0
    0.9973    4.6040    9.1190 C   0  0  0  0  0  0  0  0  0  0  0  0
   -0.2435    4.6079    9.5202 N   0  0  0  0  0  0  0  0  0  0  0  0
   -0.3316    3.8816   10.6309 N   0  0  0  0  0  0  0  0  0  0  0  0
    0.8832    3.3484   10.9943 C   0  0  0  0  0  0  0  0  0  0  0  0
    1.2619    2.5173   12.0545 C   0  0  0  0  0  0  0  0  0  0  0  0
   -0.0807   -0.0200   13.6329 H   0  0  0  0  0  0  0  0  0  0  0  0
   -2.5084   -0.4785   13.3798 H   0  0  0  0  0  0  0  0  0  0  0  0
   -3.5686   -2.2949   14.6815 H   0  0  0  0  0  0  0  0  0  0  0  0
   -2.2200   -3.6620   16.2275 H   0  0  0  0  0  0  0  0  0  0  0  0
    0.1234   -3.5536   15.5348 H   0  0  0  0  0  0  0  0  0  0  0  0
   -0.2267   -2.4016   16.8678 H   0  0  0  0  0  0  0  0  0  0  0  0
    5.1390    1.9237   13.2322 H   0  0  0  0  0  0  0  0  0  0  0  0
    6.8313    0.8972   15.3071 H   0  0  0  0  0  0  0  0  0  0  0  0
    6.2679   -0.7926   17.3197 H   0  0  0  0  0  0  0  0  0  0  0  0
    4.5821    2.3729   11.2587 H   0  0  0  0  0  0  0  0  0  0  0  0
    3.8726    3.8163    9.3844 H   0  0  0  0  0  0  0  0  0  0  0  0
    1.3753    5.6368    9.0973 H   0  0  0  0  0  0  0  0  0  0  0  0
    1.0510    4.1726    8.1085 H   0  0  0  0  0  0  0  0  0  0  0  0
    0.5465    2.1696   12.7851 H   0  0  0  0  0  0  0  0  0  0  0  0
  1  2  2  0  0  0  0
  1  8  1  0  0  0  0
  2  3  1  0  0  0  0
  2  7  1  0  0  0  0
  3  4  2  0  0  0  0
  4  5  1  0  0  0  0
  5  6  2  0  0  0  0
  6  7  1  0  0  0  0
  8  9  2  0  0  0  0
  8 16  1  0  0  0  0
  9 10  1  0  0  0  0
 10 11  2  0  0  0  0
 10 17  1  0  0  0  0
 11 12  1  0  0  0  0
 12 13  1  0  0  0  0
 12 16  1  0  0  0  0
 13 14  2  0  0  0  0
 14 15  1  0  0  0  0
 15 16  2  0  0  0  0
 17 18  2  0  0  0  0
 17 25  1  0  0  0  0
 18 19  1  0  0  0  0
 19 20  2  0  0  0  0
 20 21  1  0  0  0  0
 20 24  1  0  0  0  0
 21 22  1  0  0  0  0
 22 23  2  0  0  0  0
 23 24  1  0  0  0  0
 24 25  2  0  0  0  0
  3 26  1  0  0  0  0
  4 27  1  0  0  0  0
  5 28  1  0  0  0  0
  6 29  1  0  0  0  0
  7 30  1  0  0  0  0
  7 31  1  0  0  0  0
 11 32  1  0  0  0  0
 13 33  1  0  0  0  0
 14 34  1  0  0  0  0
 18 35  1  0  0  0  0
 19 36  1  0  0  0  0
 21 37  1  0  0  0  0
 21 38  1  0  0  0  0
 25 39  1  0  0  0  0
M  END
> <IC50[nM]>
26.8

$$$$
CHEMBL3265027
  -OEChem-05192314333D
 Structure written by MMmdl.
 39 43  0     1  0  0  0  0  0999 V2000
    1.6124   -1.3917   15.3063 N   0  0  0  0  0  0  0  0  0  0  0  0
    0.2249   -1.5978   15.0814 C   0  0  0  0  0  0  0  0  0  0  0  0
   -0.5442   -0.8150   14.1982 C   0  0  0  0  0  0  0  0  0  0  0  0
   -1.9142   -1.0738   14.0573 C   0  0  0  0  0  0  0  0  0  0  0  0
   -2.5121   -2.0998   14.7912 C   0  0  0  0  0  0  0  0  0  0  0  0
   -1.7536   -2.8696   15.6610 C   0  0  0  0  0  0  0  0  0  0  0  0
   -0.3955   -2.6216   15.8033 C   0  0  0  0  0  0  0  0  0  0  0  0
    2.5315   -0.4491   14.7651 C   0  0  0  0  0  0  0  0  0  0  0  0
    2.1583    0.3961   13.7551 N   0  0  0  0  0  0  0  0  0  0  0  0
    3.0948    1.2419   13.2245 C   0  0  0  0  0  0  0  0  0  0  0  0
    4.4047    1.2813   13.6954 C   0  0  0  0  0  0  0  0  0  0  0  0
    4.7386    0.4915   14.7531 N   0  0  0  0  0  0  0  0  0  0  0  0
    5.8960    0.3859   15.4809 C   0  0  0  0  0  0  0  0  0  0  0  0
    5.5970   -0.5411   16.5116 C   0  0  0  0  0  0  0  0  0  0  0  0
    4.3870   -1.0586   16.3541 N   0  0  0  0  0  0  0  0  0  0  0  0
    3.8354   -0.3959   15.3220 C   0  0  0  0  0  0  0  0  0  0  0  0
    2.6241    2.1558   12.1223 C   0  0  0  0  0  0  0  0  0  0  0  0
    3.5409    2.6448   11.1668 C   0  0  0  0  0  0  0  0  0  0  0  0
    3.1526    3.4655   10.1090 C   0  0  0  0  0  0  0  0  0  0  0  0
    1.8070    3.8204   10.0137 C   0  0  3  0  0  0  0  0  0  0  0  0
    0.9973    4.6040    9.1190 C   0  0  0  0  0  0  0  0  0  0  0  0
   -0.2435    4.6079    9.5202 N   0  0  0  0  0  0  0  0  0  0  0  0
   -0.3316    3.8816   10.6309 N   0  0  0  0  0  0  0  0  0  0  0  0
    0.8832    3.3484   10.9943 C   0  0  0  0  0  0  0  0  0  0  0  0
    1.2619    2.5173   12.0545 C   0  0  0  0  0  0  0  0  0  0  0  0
    2.0177   -2.0249   15.9657 H   0  0  0  0  0  0  0  0  0  0  0  0
   -0.0807   -0.0200   13.6329 H   0  0  0  0  0  0  0  0  0  0  0  0
   -2.5084   -0.4785   13.3798 H   0  0  0  0  0  0  0  0  0  0  0  0
   -3.5686   -2.2949   14.6815 H   0  0  0  0  0  0  0  0  0  0  0  0
   -2.2200   -3.6620   16.2275 H   0  0  0  0  0  0  0  0  0  0  0  0
    0.1892   -3.2270   16.4801 H   0  0  0  0  0  0  0  0  0  0  0  0
    5.1390    1.9237   13.2322 H   0  0  0  0  0  0  0  0  0  0  0  0
    6.8313    0.8972   15.3071 H   0  0  0  0  0  0  0  0  0  0  0  0
    6.2679   -0.7926   17.3197 H   0  0  0  0  0  0  0  0  0  0  0  0
    4.5821    2.3729   11.2587 H   0  0  0  0  0  0  0  0  0  0  0  0
    3.8726    3.8163    9.3844 H   0  0  0  0  0  0  0  0  0  0  0  0
    1.9991    4.7150   10.6243 H   0  0  0  0  0  0  0  0  0  0  0  0
    1.3643    5.1154    8.2414 H   0  0  0  0  0  0  0  0  0  0  0  0
    0.5465    2.1696   12.7851 H   0  0  0  0  0  0  0  0  0  0  0  0
  1  2  1  0  0  0  0
  1  8  1  0  0  0  0
  2  3  2  0  0  0  0
  2  7  1  0  0  0  0
  3  4  1  0  0  0  0
  4  5  2  0  0  0  0
  5  6  1  0  0  0  0
  6  7  2  0  0  0  0
  8  9  2  0  0  0  0
  8 16  1  0  0  0  0
  9 10  1  0  0  0  0
 10 11  2  0  0  0  0
 10 17  1  0  0  0  0
 11 12  1  0  0  0  0
 12 13  1  0  0  0  0
 12 16  1  0  0  0  0
 13 14  2  0  0  0  0
 14 15  1  0  0  0  0
 15 16  2  0  0  0  0
 17 18  1  0  0  0  0
 17 25  2  0  0  0  0
 18 19  2  0  0  0  0
 19 20  1  0  0  0  0
 20 21  1  0  0  0  0
 20 24  1  0  0  0  0
 21 22  2  0  0  0  0
 22 23  1  0  0  0  0
 23 24  2  0  0  0  0
 24 25  1  0  0  0  0
  1 26  1  0  0  0  0
  3 27  1  0  0  0  0
  4 28  1  0  0  0  0
  5 29  1  0  0  0  0
  6 30  1  0  0  0  0
  7 31  1  0  0  0  0
 11 32  1  0  0  0  0
 13 33  1  0  0  0  0
 14 34  1  0  0  0  0
 18 35  1  0  0  0  0
 19 36  1  0  0  0  0
 20 37  1  0  0  0  0
 21 38  1  0  0  0  0
 25 39  1  0  0  0  0
M  END
> <IC50[nM]>
26.8

$$$$
CHEMBL3265027
  -OEChem-05192314333D
 Structure written by MMmdl.
 39 43  0     0  0  0  0  0  0999 V2000
    1.6124   -1.3917   15.3063 N   0  0  0  0  0  0  0  0  0  0  0  0
    0.2249   -1.5978   15.0814 C   0  0  0  0  0  0  0  0  0  0  0  0
   -0.5442   -0.8150   14.1982 C   0  0  0  0  0  0  0  0  0  0  0  0
   -1.9142   -1.0738   14.0573 C   0  0  0  0  0  0  0  0  0  0  0  0
   -2.5121   -2.0998   14.7912 C   0  0  0  0  0  0  0  0  0  0  0  0
   -1.7536   -2.8696   15.6610 C   0  0  0  0  0  0  0  0  0  0  0  0
   -0.3955   -2.6216   15.8033 C   0  0  0  0  0  0  0  0  0  0  0  0
    2.5315   -0.4491   14.7651 C   0  0  0  0  0  0  0  0  0  0  0  0
    2.1583    0.3961   13.7551 N   0  0  0  0  0  0  0  0  0  0  0  0
    3.0948    1.2419   13.2245 C   0  0  0  0  0  0  0  0  0  0  0  0
    4.4047    1.2813   13.6954 C   0  0  0  0  0  0  0  0  0  0  0  0
    4.7386    0.4915   14.7531 N   0  0  0  0  0  0  0  0  0  0  0  0
    5.8960    0.3859   15.4809 C   0  0  0  0  0  0  0  0  0  0  0  0
    5.5970   -0.5411   16.5116 C   0  0  0  0  0  0  0  0  0  0  0  0
    4.3870   -1.0586   16.3541 N   0  0  0  0  0  0  0  0  0  0  0  0
    3.8354   -0.3959   15.3220 C   0  0  0  0  0  0  0  0  0  0  0  0
    2.6241    2.1558   12.1223 C   0  0  0  0  0  0  0  0  0  0  0  0
    3.5409    2.6448   11.1668 C   0  0  0  0  0  0  0  0  0  0  0  0
    3.1526    3.4655   10.1090 C   0  0  0  0  0  0  0  0  0  0  0  0
    1.8070    3.8204   10.0137 C   0  0  0  0  0  0  0  0  0  0  0  0
    0.9973    4.6040    9.1190 C   0  0  0  0  0  0  0  0  0  0  0  0
   -0.2435    4.6079    9.5202 N   0  0  0  0  0  0  0  0  0  0  0  0
   -0.3316    3.8816   10.6309 N   0  0  0  0  0  0  0  0  0  0  0  0
    0.8832    3.3484   10.9943 C   0  0  0  0  0  0  0  0  0  0  0  0
    1.2619    2.5173   12.0545 C   0  0  0  0  0  0  0  0  0  0  0  0
    2.0177   -2.0249   15.9657 H   0  0  0  0  0  0  0  0  0  0  0  0
   -0.0807   -0.0200   13.6329 H   0  0  0  0  0  0  0  0  0  0  0  0
   -2.5084   -0.4785   13.3798 H   0  0  0  0  0  0  0  0  0  0  0  0
   -3.5686   -2.2949   14.6815 H   0  0  0  0  0  0  0  0  0  0  0  0
   -2.2200   -3.6620   16.2275 H   0  0  0  0  0  0  0  0  0  0  0  0
    0.1892   -3.2270   16.4801 H   0  0  0  0  0  0  0  0  0  0  0  0
    5.1390    1.9237   13.2322 H   0  0  0  0  0  0  0  0  0  0  0  0
    6.8313    0.8972   15.3071 H   0  0  0  0  0  0  0  0  0  0  0  0
    6.2679   -0.7926   17.3197 H   0  0  0  0  0  0  0  0  0  0  0  0
    4.2975    3.2102   11.7306 H   0  0  0  0  0  0  0  0  0  0  0  0
    4.0088    1.7597   10.7111 H   0  0  0  0  0  0  0  0  0  0  0  0
    3.8726    3.8163    9.3844 H   0  0  0  0  0  0  0  0  0  0  0  0
    1.3643    5.1154    8.2414 H   0  0  0  0  0  0  0  0  0  0  0  0
    0.5465    2.1696   12.7851 H   0  0  0  0  0  0  0  0  0  0  0  0
  1  2  1  0  0  0  0
  1  8  1  0  0  0  0
  2  3  2  0  0  0  0
  2  7  1  0  0  0  0
  3  4  1  0  0  0  0
  4  5  2  0  0  0  0
  5  6  1  0  0  0  0
  6  7  2  0  0  0  0
  8  9  2  0  0  0  0
  8 16  1  0  0  0  0
  9 10  1  0  0  0  0
 10 11  2  0  0  0  0
 10 17  1  0  0  0  0
 11 12  1  0  0  0  0
 12 13  1  0  0  0  0
 12 16  1  0  0  0  0
 13 14  2  0  0  0  0
 14 15  1  0  0  0  0
 15 16  2  0  0  0  0
 17 18  1  0  0  0  0
 17 25  2  0  0  0  0
 18 19  1  0  0  0  0
 19 20  2  0  0  0  0
 20 21  1  0  0  0  0
 20 24  1  0  0  0  0
 21 22  2  0  0  0  0
 22 23  1  0  0  0  0
 23 24  2  0  0  0  0
 24 25  1  0  0  0  0
  1 26  1  0  0  0  0
  3 27  1  0  0  0  0
  4 28  1  0  0  0  0
  5 29  1  0  0  0  0
  6 30  1  0  0  0  0
  7 31  1  0  0  0  0
 11 32  1  0  0  0  0
 13 33  1  0  0  0  0
 14 34  1  0  0  0  0
 18 35  1  0  0  0  0
 18 36  1  0  0  0  0
 19 37  1  0  0  0  0
 21 38  1  0  0  0  0
 25 39  1  0  0  0  0
M  END
> <IC50[nM]>
26.8

$$$$
CHEMBL3265027
  -OEChem-05192314333D
 Structure written by MMmdl.
 39 43  0     0  0  0  0  0  0999 V2000
    1.6124   -1.3917   15.3063 N   0  0  0  0  0  0  0  0  0  0  0  0
    0.2249   -1.5978   15.0814 C   0  0  0  0  0  0  0  0  0  0  0  0
   -0.5442   -0.8150   14.1982 C   0  0  0  0  0  0  0  0  0  0  0  0
   -1.9142   -1.0738   14.0573 C   0  0  0  0  0  0  0  0  0  0  0  0
   -2.5121   -2.0998   14.7912 C   0  0  0  0  0  0  0  0  0  0  0  0
   -1.7536   -2.8696   15.6610 C   0  0  0  0  0  0  0  0  0  0  0  0
   -0.3955   -2.6216   15.8033 C   0  0  0  0  0  0  0  0  0  0  0  0
    2.5315   -0.4491   14.7651 C   0  0  0  0  0  0  0  0  0  0  0  0
    2.1583    0.3961   13.7551 N   0  0  0  0  0  0  0  0  0  0  0  0
    3.0948    1.2419   13.2245 C   0  0  0  0  0  0  0  0  0  0  0  0
    4.4047    1.2813   13.6954 C   0  0  0  0  0  0  0  0  0  0  0  0
    4.7386    0.4915   14.7531 N   0  0  0  0  0  0  0  0  0  0  0  0
    5.8960    0.3859   15.4809 C   0  0  0  0  0  0  0  0  0  0  0  0
    5.5970   -0.5411   16.5116 C   0  0  0  0  0  0  0  0  0  0  0  0
    4.3870   -1.0586   16.3541 N   0  0  0  0  0  0  0  0  0  0  0  0
    3.8354   -0.3959   15.3220 C   0  0  0  0  0  0  0  0  0  0  0  0
    2.6241    2.1558   12.1223 C   0  0  0  0  0  0  0  0  0  0  0  0
    3.5409    2.6448   11.1668 C   0  0  0  0  0  0  0  0  0  0  0  0
    3.1526    3.4655   10.1090 C   0  0  0  0  0  0  0  0  0  0  0  0
    1.8070    3.8204   10.0137 C   0  0  0  0  0  0  0  0  0  0  0  0
    0.9973    4.6040    9.1190 C   0  0  0  0  0  0  0  0  0  0  0  0
   -0.2435    4.6079    9.5202 N   0  0  0  0  0  0  0  0  0  0  0  0
   -0.3316    3.8816   10.6309 N   0  0  0  0  0  0  0  0  0  0  0  0
    0.8832    3.3484   10.9943 C   0  0  0  0  0  0  0  0  0  0  0  0
    1.2619    2.5173   12.0545 C   0  0  0  0  0  0  0  0  0  0  0  0
    2.0177   -2.0249   15.9657 H   0  0  0  0  0  0  0  0  0  0  0  0
   -0.0807   -0.0200   13.6329 H   0  0  0  0  0  0  0  0  0  0  0  0
   -2.5084   -0.4785   13.3798 H   0  0  0  0  0  0  0  0  0  0  0  0
   -3.5686   -2.2949   14.6815 H   0  0  0  0  0  0  0  0  0  0  0  0
   -2.2200   -3.6620   16.2275 H   0  0  0  0  0  0  0  0  0  0  0  0
    0.1892   -3.2270   16.4801 H   0  0  0  0  0  0  0  0  0  0  0  0
    5.1390    1.9237   13.2322 H   0  0  0  0  0  0  0  0  0  0  0  0
    6.8313    0.8972   15.3071 H   0  0  0  0  0  0  0  0  0  0  0  0
    6.2679   -0.7926   17.3197 H   0  0  0  0  0  0  0  0  0  0  0  0
    4.5821    2.3729   11.2587 H   0  0  0  0  0  0  0  0  0  0  0  0
    3.8726    3.8163    9.3844 H   0  0  0  0  0  0  0  0  0  0  0  0
    1.3643    5.1154    8.2414 H   0  0  0  0  0  0  0  0  0  0  0  0
    0.6747    1.5903   11.9772 H   0  0  0  0  0  0  0  0  0  0  0  0
    1.0077    3.0353   12.9910 H   0  0  0  0  0  0  0  0  0  0  0  0
  1  2  1  0  0  0  0
  1  8  1  0  0  0  0
  2  3  2  0  0  0  0
  2  7  1  0  0  0  0
  3  4  1  0  0  0  0
  4  5  2  0  0  0  0
  5  6  1  0  0  0  0
  6  7  2  0  0  0  0
  8  9  2  0  0  0  0
  8 16  1  0  0  0  0
  9 10  1  0  0  0  0
 10 11  2  0  0  0  0
 10 17  1  0  0  0  0
 11 12  1  0  0  0  0
 12 13  1  0  0  0  0
 12 16  1  0  0  0  0
 13 14  2  0  0  0  0
 14 15  1  0  0  0  0
 15 16  2  0  0  0  0
 17 18  2  0  0  0  0
 17 25  1  0  0  0  0
 18 19  1  0  0  0  0
 19 20  2  0  0  0  0
 20 21  1  0  0  0  0
 20 24  1  0  0  0  0
 21 22  2  0  0  0  0
 22 23  1  0  0  0  0
 23 24  2  0  0  0  0
 24 25  1  0  0  0  0
  1 26  1  0  0  0  0
  3 27  1  0  0  0  0
  4 28  1  0  0  0  0
  5 29  1  0  0  0  0
  6 30  1  0  0  0  0
  7 31  1  0  0  0  0
 11 32  1  0  0  0  0
 13 33  1  0  0  0  0
 14 34  1  0  0  0  0
 18 35  1  0  0  0  0
 19 36  1  0  0  0  0
 21 37  1  0  0  0  0
 25 38  1  0  0  0  0
 25 39  1  0  0  0  0
M  END
> <IC50[nM]>
26.8

$$$$
CHEMBL3265027
  -OEChem-05192314333D
 Structure written by MMmdl.
 39 43  0     1  0  0  0  0  0999 V2000
    1.6124   -1.3917   15.3063 N   0  0  0  0  0  0  0  0  0  0  0  0
    0.2249   -1.5978   15.0814 C   0  0  0  0  0  0  0  0  0  0  0  0
   -0.5442   -0.8150   14.1982 C   0  0  0  0  0  0  0  0  0  0  0  0
   -1.9142   -1.0738   14.0573 C   0  0  0  0  0  0  0  0  0  0  0  0
   -2.5121   -2.0998   14.7912 C   0  0  0  0  0  0  0  0  0  0  0  0
   -1.7536   -2.8696   15.6610 C   0  0  0  0  0  0  0  0  0  0  0  0
   -0.3955   -2.6216   15.8033 C   0  0  0  0  0  0  0  0  0  0  0  0
    2.5315   -0.4491   14.7651 C   0  0  0  0  0  0  0  0  0  0  0  0
    2.1583    0.3961   13.7551 N   0  0  0  0  0  0  0  0  0  0  0  0
    3.0948    1.2419   13.2245 C   0  0  0  0  0  0  0  0  0  0  0  0
    4.4047    1.2813   13.6954 C   0  0  0  0  0  0  0  0  0  0  0  0
    4.7386    0.4915   14.7531 N   0  0  0  0  0  0  0  0  0  0  0  0
    5.8960    0.3859   15.4809 C   0  0  0  0  0  0  0  0  0  0  0  0
    5.5970   -0.5411   16.5116 C   0  0  0  0  0  0  0  0  0  0  0  0
    4.3870   -1.0586   16.3541 N   0  0  0  0  0  0  0  0  0  0  0  0
    3.8354   -0.3959   15.3220 C   0  0  0  0  0  0  0  0  0  0  0  0
    2.6241    2.1558   12.1223 C   0  0  3  0  0  0  0  0  0  0  0  0
    3.5409    2.6448   11.1668 C   0  0  0  0  0  0  0  0  0  0  0  0
    3.1526    3.4655   10.1090 C   0  0  0  0  0  0  0  0  0  0  0  0
    1.8070    3.8204   10.0137 C   0  0  0  0  0  0  0  0  0  0  0  0
    0.9973    4.6040    9.1190 C   0  0  0  0  0  0  0  0  0  0  0  0
   -0.2435    4.6079    9.5202 N   0  0  0  0  0  0  0  0  0  0  0  0
   -0.3316    3.8816   10.6309 N   0  0  0  0  0  0  0  0  0  0  0  0
    0.8832    3.3484   10.9943 C   0  0  0  0  0  0  0  0  0  0  0  0
    1.2619    2.5173   12.0545 C   0  0  0  0  0  0  0  0  0  0  0  0
    2.0177   -2.0249   15.9657 H   0  0  0  0  0  0  0  0  0  0  0  0
   -0.0807   -0.0200   13.6329 H   0  0  0  0  0  0  0  0  0  0  0  0
   -2.5084   -0.4785   13.3798 H   0  0  0  0  0  0  0  0  0  0  0  0
   -3.5686   -2.2949   14.6815 H   0  0  0  0  0  0  0  0  0  0  0  0
   -2.2200   -3.6620   16.2275 H   0  0  0  0  0  0  0  0  0  0  0  0
    0.1892   -3.2270   16.4801 H   0  0  0  0  0  0  0  0  0  0  0  0
    5.1390    1.9237   13.2322 H   0  0  0  0  0  0  0  0  0  0  0  0
    6.8313    0.8972   15.3071 H   0  0  0  0  0  0  0  0  0  0  0  0
    6.2679   -0.7926   17.3197 H   0  0  0  0  0  0  0  0  0  0  0  0
    2.4242    1.2827   11.4837 H   0  0  0  0  0  0  0  0  0  0  0  0
    4.5821    2.3729   11.2587 H   0  0  0  0  0  0  0  0  0  0  0  0
    3.8726    3.8163    9.3844 H   0  0  0  0  0  0  0  0  0  0  0  0
    1.3643    5.1154    8.2414 H   0  0  0  0  0  0  0  0  0  0  0  0
    0.5465    2.1696   12.7851 H   0  0  0  0  0  0  0  0  0  0  0  0
  1  2  1  0  0  0  0
  1  8  1  0  0  0  0
  2  3  2  0  0  0  0
  2  7  1  0  0  0  0
  3  4  1  0  0  0  0
  4  5  2  0  0  0  0
  5  6  1  0  0  0  0
  6  7  2  0  0  0  0
  8  9  2  0  0  0  0
  8 16  1  0  0  0  0
  9 10  1  0  0  0  0
 10 11  2  0  0  0  0
 10 17  1  0  0  0  0
 11 12  1  0  0  0  0
 12 13  1  0  0  0  0
 12 16  1  0  0  0  0
 13 14  2  0  0  0  0
 14 15  1  0  0  0  0
 15 16  2  0  0  0  0
 17 18  1  0  0  0  0
 17 25  1  0  0  0  0
 18 19  2  0  0  0  0
 19 20  1  0  0  0  0
 20 21  2  0  0  0  0
 20 24  1  0  0  0  0
 21 22  1  0  0  0  0
 22 23  2  0  0  0  0
 23 24  1  0  0  0  0
 24 25  2  0  0  0  0
  1 26  1  0  0  0  0
  3 27  1  0  0  0  0
  4 28  1  0  0  0  0
  5 29  1  0  0  0  0
  6 30  1  0  0  0  0
  7 31  1  0  0  0  0
 11 32  1  0  0  0  0
 13 33  1  0  0  0  0
 14 34  1  0  0  0  0
 17 35  1  0  0  0  0
 18 36  1  0  0  0  0
 19 37  1  0  0  0  0
 21 38  1  0  0  0  0
 25 39  1  0  0  0  0
M  END
> <IC50[nM]>
26.8

$$$$
CHEMBL3265027
  -OEChem-05192314333D
 Structure written by MMmdl.
 39 43  0     1  0  0  0  0  0999 V2000
    1.6124   -1.3917   15.3063 N   0  0  0  0  0  0  0  0  0  0  0  0
    0.2249   -1.5978   15.0814 C   0  0  0  0  0  0  0  0  0  0  0  0
   -0.5442   -0.8150   14.1982 C   0  0  0  0  0  0  0  0  0  0  0  0
   -1.9142   -1.0738   14.0573 C   0  0  0  0  0  0  0  0  0  0  0  0
   -2.5121   -2.0998   14.7912 C   0  0  0  0  0  0  0  0  0  0  0  0
   -1.7536   -2.8696   15.6610 C   0  0  0  0  0  0  0  0  0  0  0  0
   -0.3955   -2.6216   15.8033 C   0  0  0  0  0  0  0  0  0  0  0  0
    2.5315   -0.4491   14.7651 C   0  0  0  0  0  0  0  0  0  0  0  0
    2.1583    0.3961   13.7551 N   0  0  0  0  0  0  0  0  0  0  0  0
    3.0948    1.2419   13.2245 C   0  0  0  0  0  0  0  0  0  0  0  0
    4.4047    1.2813   13.6954 C   0  0  0  0  0  0  0  0  0  0  0  0
    4.7386    0.4915   14.7531 N   0  0  0  0  0  0  0  0  0  0  0  0
    5.8960    0.3859   15.4809 C   0  0  0  0  0  0  0  0  0  0  0  0
    5.5970   -0.5411   16.5116 C   0  0  0  0  0  0  0  0  0  0  0  0
    4.3870   -1.0586   16.3541 N   0  0  0  0  0  0  0  0  0  0  0  0
    3.8354   -0.3959   15.3220 C   0  0  0  0  0  0  0  0  0  0  0  0
    2.6241    2.1558   12.1223 C   0  0  0  0  0  0  0  0  0  0  0  0
    3.5409    2.6448   11.1668 C   0  0  0  0  0  0  0  0  0  0  0  0
    3.1526    3.4655   10.1090 C   0  0  0  0  0  0  0  0  0  0  0  0
    1.8070    3.8204   10.0137 C   0  0  0  0  0  0  0  0  0  0  0  0
    0.9973    4.6040    9.1190 C   0  0  0  0  0  0  0  0  0  0  0  0
   -0.2435    4.6079    9.5202 N   0  0  0  0  0  0  0  0  0  0  0  0
   -0.3316    3.8816   10.6309 N   0  0  0  0  0  0  0  0  0  0  0  0
    0.8832    3.3484   10.9943 C   0  0  3  0  0  0  0  0  0  0  0  0
    1.2619    2.5173   12.0545 C   0  0  0  0  0  0  0  0  0  0  0  0
    2.0177   -2.0249   15.9657 H   0  0  0  0  0  0  0  0  0  0  0  0
   -0.0807   -0.0200   13.6329 H   0  0  0  0  0  0  0  0  0  0  0  0
   -2.5084   -0.4785   13.3798 H   0  0  0  0  0  0  0  0  0  0  0  0
   -3.5686   -2.2949   14.6815 H   0  0  0  0  0  0  0  0  0  0  0  0
   -2.2200   -3.6620   16.2275 H   0  0  0  0  0  0  0  0  0  0  0  0
    0.1892   -3.2270   16.4801 H   0  0  0  0  0  0  0  0  0  0  0  0
    5.1390    1.9237   13.2322 H   0  0  0  0  0  0  0  0  0  0  0  0
    6.8313    0.8972   15.3071 H   0  0  0  0  0  0  0  0  0  0  0  0
    6.2679   -0.7926   17.3197 H   0  0  0  0  0  0  0  0  0  0  0  0
    4.5821    2.3729   11.2587 H   0  0  0  0  0  0  0  0  0  0  0  0
    3.8726    3.8163    9.3844 H   0  0  0  0  0  0  0  0  0  0  0  0
    1.3643    5.1154    8.2414 H   0  0  0  0  0  0  0  0  0  0  0  0
    1.0874    4.2338   11.6142 H   0  0  0  0  0  0  0  0  0  0  0  0
    0.5465    2.1696   12.7851 H   0  0  0  0  0  0  0  0  0  0  0  0
  1  2  1  0  0  0  0
  1  8  1  0  0  0  0
  2  3  2  0  0  0  0
  2  7  1  0  0  0  0
  3  4  1  0  0  0  0
  4  5  2  0  0  0  0
  5  6  1  0  0  0  0
  6  7  2  0  0  0  0
  8  9  2  0  0  0  0
  8 16  1  0  0  0  0
  9 10  1  0  0  0  0
 10 11  2  0  0  0  0
 10 17  1  0  0  0  0
 11 12  1  0  0  0  0
 12 13  1  0  0  0  0
 12 16  1  0  0  0  0
 13 14  2  0  0  0  0
 14 15  1  0  0  0  0
 15 16  2  0  0  0  0
 17 18  1  0  0  0  0
 17 25  2  0  0  0  0
 18 19  2  0  0  0  0
 19 20  1  0  0  0  0
 20 21  2  0  0  0  0
 20 24  1  0  0  0  0
 21 22  1  0  0  0  0
 22 23  2  0  0  0  0
 23 24  1  0  0  0  0
 24 25  1  0  0  0  0
  1 26  1  0  0  0  0
  3 27  1  0  0  0  0
  4 28  1  0  0  0  0
  5 29  1  0  0  0  0
  6 30  1  0  0  0  0
  7 31  1  0  0  0  0
 11 32  1  0  0  0  0
 13 33  1  0  0  0  0
 14 34  1  0  0  0  0
 18 35  1  0  0  0  0
 19 36  1  0  0  0  0
 21 37  1  0  0  0  0
 24 38  1  0  0  0  0
 25 39  1  0  0  0  0
M  END
> <IC50[nM]>
26.8

$$$$
CHEMBL3265027
  -OEChem-05192314333D
 Structure written by MMmdl.
 39 43  0     0  0  0  0  0  0999 V2000
    1.6124   -1.3917   15.3063 N   0  0  0  0  0  0  0  0  0  0  0  0
    0.2249   -1.5978   15.0814 C   0  0  0  0  0  0  0  0  0  0  0  0
   -0.5442   -0.8150   14.1982 C   0  0  0  0  0  0  0  0  0  0  0  0
   -1.9142   -1.0738   14.0573 C   0  0  0  0  0  0  0  0  0  0  0  0
   -2.5121   -2.0998   14.7912 C   0  0  0  0  0  0  0  0  0  0  0  0
   -1.7536   -2.8696   15.6610 C   0  0  0  0  0  0  0  0  0  0  0  0
   -0.3955   -2.6216   15.8033 C   0  0  0  0  0  0  0  0  0  0  0  0
    2.5315   -0.4491   14.7651 C   0  0  0  0  0  0  0  0  0  0  0  0
    2.1583    0.3961   13.7551 N   0  0  0  0  0  0  0  0  0  0  0  0
    3.0948    1.2419   13.2245 C   0  0  0  0  0  0  0  0  0  0  0  0
    4.4047    1.2813   13.6954 C   0  0  0  0  0  0  0  0  0  0  0  0
    4.7386    0.4915   14.7531 N   0  0  0  0  0  0  0  0  0  0  0  0
    5.8960    0.3859   15.4809 C   0  0  0  0  0  0  0  0  0  0  0  0
    5.5970   -0.5411   16.5116 C   0  0  0  0  0  0  0  0  0  0  0  0
    4.3870   -1.0586   16.3541 N   0  0  0  0  0  0  0  0  0  0  0  0
    3.8354   -0.3959   15.3220 C   0  0  0  0  0  0  0  0  0  0  0  0
    2.6241    2.1558   12.1223 C   0  0  0  0  0  0  0  0  0  0  0  0
    3.5409    2.6448   11.1668 C   0  0  0  0  0  0  0  0  0  0  0  0
    3.1526    3.4655   10.1090 C   0  0  0  0  0  0  0  0  0  0  0  0
    1.8070    3.8204   10.0137 C   0  0  0  0  0  0  0  0  0  0  0  0
    0.9973    4.6040    9.1190 C   0  0  0  0  0  0  0  0  0  0  0  0
   -0.2435    4.6079    9.5202 N   0  0  0  0  0  0  0  0  0  0  0  0
   -0.3316    3.8816   10.6309 N   0  0  0  0  0  0  0  0  0  0  0  0
    0.8832    3.3484   10.9943 C   0  0  0  0  0  0  0  0  0  0  0  0
    1.2619    2.5173   12.0545 C   0  0  0  0  0  0  0  0  0  0  0  0
    2.0177   -2.0249   15.9657 H   0  0  0  0  0  0  0  0  0  0  0  0
   -0.0807   -0.0200   13.6329 H   0  0  0  0  0  0  0  0  0  0  0  0
   -2.5084   -0.4785   13.3798 H   0  0  0  0  0  0  0  0  0  0  0  0
   -3.5686   -2.2949   14.6815 H   0  0  0  0  0  0  0  0  0  0  0  0
   -2.2200   -3.6620   16.2275 H   0  0  0  0  0  0  0  0  0  0  0  0
    0.1892   -3.2270   16.4801 H   0  0  0  0  0  0  0  0  0  0  0  0
    5.1390    1.9237   13.2322 H   0  0  0  0  0  0  0  0  0  0  0  0
    6.8313    0.8972   15.3071 H   0  0  0  0  0  0  0  0  0  0  0  0
    6.2679   -0.7926   17.3197 H   0  0  0  0  0  0  0  0  0  0  0  0
    4.5821    2.3729   11.2587 H   0  0  0  0  0  0  0  0  0  0  0  0
    3.7315    4.3974   10.1888 H   0  0  0  0  0  0  0  0  0  0  0  0
    3.4204    2.9461    9.1770 H   0  0  0  0  0  0  0  0  0  0  0  0
    1.3643    5.1154    8.2414 H   0  0  0  0  0  0  0  0  0  0  0  0
    0.5465    2.1696   12.7851 H   0  0  0  0  0  0  0  0  0  0  0  0
  1  2  1  0  0  0  0
  1  8  1  0  0  0  0
  2  3  2  0  0  0  0
  2  7  1  0  0  0  0
  3  4  1  0  0  0  0
  4  5  2  0  0  0  0
  5  6  1  0  0  0  0
  6  7  2  0  0  0  0
  8  9  2  0  0  0  0
  8 16  1  0  0  0  0
  9 10  1  0  0  0  0
 10 11  2  0  0  0  0
 10 17  1  0  0  0  0
 11 12  1  0  0  0  0
 12 13  1  0  0  0  0
 12 16  1  0  0  0  0
 13 14  2  0  0  0  0
 14 15  1  0  0  0  0
 15 16  2  0  0  0  0
 17 18  2  0  0  0  0
 17 25  1  0  0  0  0
 18 19  1  0  0  0  0
 19 20  1  0  0  0  0
 20 21  2  0  0  0  0
 20 24  1  0  0  0  0
 21 22  1  0  0  0  0
 22 23  2  0  0  0  0
 23 24  1  0  0  0  0
 24 25  2  0  0  0  0
  1 26  1  0  0  0  0
  3 27  1  0  0  0  0
  4 28  1  0  0  0  0
  5 29  1  0  0  0  0
  6 30  1  0  0  0  0
  7 31  1  0  0  0  0
 11 32  1  0  0  0  0
 13 33  1  0  0  0  0
 14 34  1  0  0  0  0
 18 35  1  0  0  0  0
 19 36  1  0  0  0  0
 19 37  1  0  0  0  0
 21 38  1  0  0  0  0
 25 39  1  0  0  0  0
M  END
> <IC50[nM]>
26.8

$$$$
CHEMBL3265027
  -OEChem-05192314333D
 Structure written by MMmdl.
 39 43  0     1  0  0  0  0  0999 V2000
    1.6124   -1.3917   15.3063 N   0  0  0  0  0  0  0  0  0  0  0  0
    0.2249   -1.5978   15.0814 C   0  0  0  0  0  0  0  0  0  0  0  0
   -0.5442   -0.8150   14.1982 C   0  0  0  0  0  0  0  0  0  0  0  0
   -1.9142   -1.0738   14.0573 C   0  0  0  0  0  0  0  0  0  0  0  0
   -2.5121   -2.0998   14.7912 C   0  0  0  0  0  0  0  0  0  0  0  0
   -1.7536   -2.8696   15.6610 C   0  0  0  0  0  0  0  0  0  0  0  0
   -0.3955   -2.6216   15.8033 C   0  0  0  0  0  0  0  0  0  0  0  0
    2.5315   -0.4491   14.7651 C   0  0  0  0  0  0  0  0  0  0  0  0
    2.1583    0.3961   13.7551 N   0  0  0  0  0  0  0  0  0  0  0  0
    3.0948    1.2419   13.2245 C   0  0  0  0  0  0  0  0  0  0  0  0
    4.4047    1.2813   13.6954 C   0  0  0  0  0  0  0  0  0  0  0  0
    4.7386    0.4915   14.7531 N   0  0  0  0  0  0  0  0  0  0  0  0
    5.8960    0.3859   15.4809 C   0  0  0  0  0  0  0  0  0  0  0  0
    5.5970   -0.5411   16.5116 C   0  0  0  0  0  0  0  0  0  0  0  0
    4.3870   -1.0586   16.3541 N   0  0  0  0  0  0  0  0  0  0  0  0
    3.8354   -0.3959   15.3220 C   0  0  0  0  0  0  0  0  0  0  0  0
    2.6241    2.1558   12.1223 C   0  0  0  0  0  0  0  0  0  0  0  0
    3.5409    2.6448   11.1668 C   0  0  0  0  0  0  0  0  0  0  0  0
    3.1526    3.4655   10.1090 C   0  0  0  0  0  0  0  0  0  0  0  0
    1.8070    3.8204   10.0137 C   0  0  3  0  0  0  0  0  0  0  0  0
    0.9973    4.6040    9.1190 C   0  0  0  0  0  0  0  0  0  0  0  0
   -0.2435    4.6079    9.5202 N   0  0  0  0  0  0  0  0  0  0  0  0
   -0.3316    3.8816   10.6309 N   0  0  0  0  0  0  0  0  0  0  0  0
    0.8832    3.3484   10.9943 C   0  0  0  0  0  0  0  0  0  0  0  0
    1.2619    2.5173   12.0545 C   0  0  0  0  0  0  0  0  0  0  0  0
   -0.0807   -0.0200   13.6329 H   0  0  0  0  0  0  0  0  0  0  0  0
   -2.5084   -0.4785   13.3798 H   0  0  0  0  0  0  0  0  0  0  0  0
   -3.5686   -2.2949   14.6815 H   0  0  0  0  0  0  0  0  0  0  0  0
   -2.2200   -3.6620   16.2275 H   0  0  0  0  0  0  0  0  0  0  0  0
    0.1892   -3.2270   16.4801 H   0  0  0  0  0  0  0  0  0  0  0  0
    1.2192    0.3957   13.4113 H   0  0  0  0  0  0  0  0  0  0  0  0
    5.1390    1.9237   13.2322 H   0  0  0  0  0  0  0  0  0  0  0  0
    6.8313    0.8972   15.3071 H   0  0  0  0  0  0  0  0  0  0  0  0
    6.2679   -0.7926   17.3197 H   0  0  0  0  0  0  0  0  0  0  0  0
    4.5821    2.3729   11.2587 H   0  0  0  0  0  0  0  0  0  0  0  0
    3.8726    3.8163    9.3844 H   0  0  0  0  0  0  0  0  0  0  0  0
    1.9991    4.7150   10.6243 H   0  0  0  0  0  0  0  0  0  0  0  0
    1.3643    5.1154    8.2414 H   0  0  0  0  0  0  0  0  0  0  0  0
    0.5465    2.1696   12.7851 H   0  0  0  0  0  0  0  0  0  0  0  0
  1  2  1  0  0  0  0
  1  8  2  0  0  0  0
  2  3  2  0  0  0  0
  2  7  1  0  0  0  0
  3  4  1  0  0  0  0
  4  5  2  0  0  0  0
  5  6  1  0  0  0  0
  6  7  2  0  0  0  0
  8  9  1  0  0  0  0
  8 16  1  0  0  0  0
  9 10  1  0  0  0  0
 10 11  2  0  0  0  0
 10 17  1  0  0  0  0
 11 12  1  0  0  0  0
 12 13  1  0  0  0  0
 12 16  1  0  0  0  0
 13 14  2  0  0  0  0
 14 15  1  0  0  0  0
 15 16  2  0  0  0  0
 17 18  1  0  0  0  0
 17 25  2  0  0  0  0
 18 19  2  0  0  0  0
 19 20  1  0  0  0  0
 20 21  1  0  0  0  0
 20 24  1  0  0  0  0
 21 22  2  0  0  0  0
 22 23  1  0  0  0  0
 23 24  2  0  0  0  0
 24 25  1  0  0  0  0
  3 26  1  0  0  0  0
  4 27  1  0  0  0  0
  5 28  1  0  0  0  0
  6 29  1  0  0  0  0
  7 30  1  0  0  0  0
  9 31  1  0  0  0  0
 11 32  1  0  0  0  0
 13 33  1  0  0  0  0
 14 34  1  0  0  0  0
 18 35  1  0  0  0  0
 19 36  1  0  0  0  0
 20 37  1  0  0  0  0
 21 38  1  0  0  0  0
 25 39  1  0  0  0  0
M  END
> <IC50[nM]>
26.8

$$$$
CHEMBL3265027
  -OEChem-05192314333D
 Structure written by MMmdl.
 39 43  0     0  0  0  0  0  0999 V2000
    1.6124   -1.3917   15.3063 N   0  0  0  0  0  0  0  0  0  0  0  0
    0.2249   -1.5978   15.0814 C   0  0  0  0  0  0  0  0  0  0  0  0
   -0.5442   -0.8150   14.1982 C   0  0  0  0  0  0  0  0  0  0  0  0
   -1.9142   -1.0738   14.0573 C   0  0  0  0  0  0  0  0  0  0  0  0
   -2.5121   -2.0998   14.7912 C   0  0  0  0  0  0  0  0  0  0  0  0
   -1.7536   -2.8696   15.6610 C   0  0  0  0  0  0  0  0  0  0  0  0
   -0.3955   -2.6216   15.8033 C   0  0  0  0  0  0  0  0  0  0  0  0
    2.5315   -0.4491   14.7651 C   0  0  0  0  0  0  0  0  0  0  0  0
    2.1583    0.3961   13.7551 N   0  0  0  0  0  0  0  0  0  0  0  0
    3.0948    1.2419   13.2245 C   0  0  0  0  0  0  0  0  0  0  0  0
    4.4047    1.2813   13.6954 C   0  0  0  0  0  0  0  0  0  0  0  0
    4.7386    0.4915   14.7531 N   0  0  0  0  0  0  0  0  0  0  0  0
    5.8960    0.3859   15.4809 C   0  0  0  0  0  0  0  0  0  0  0  0
    5.5970   -0.5411   16.5116 C   0  0  0  0  0  0  0  0  0  0  0  0
    4.3870   -1.0586   16.3541 N   0  0  0  0  0  0  0  0  0  0  0  0
    3.8354   -0.3959   15.3220 C   0  0  0  0  0  0  0  0  0  0  0  0
    2.6241    2.1558   12.1223 C   0  0  0  0  0  0  0  0  0  0  0  0
    3.5409    2.6448   11.1668 C   0  0  0  0  0  0  0  0  0  0  0  0
    3.1526    3.4655   10.1090 C   0  0  0  0  0  0  0  0  0  0  0  0
    1.8070    3.8204   10.0137 C   0  0  0  0  0  0  0  0  0  0  0  0
    0.9973    4.6040    9.1190 C   0  0  0  0  0  0  0  0  0  0  0  0
   -0.2435    4.6079    9.5202 N   0  0  0  0  0  0  0  0  0  0  0  0
   -0.3316    3.8816   10.6309 N   0  0  0  0  0  0  0  0  0  0  0  0
    0.8832    3.3484   10.9943 C   0  0  0  0  0  0  0  0  0  0  0  0
    1.2619    2.5173   12.0545 C   0  0  0  0  0  0  0  0  0  0  0  0
   -0.0807   -0.0200   13.6329 H   0  0  0  0  0  0  0  0  0  0  0  0
   -2.5084   -0.4785   13.3798 H   0  0  0  0  0  0  0  0  0  0  0  0
   -3.5686   -2.2949   14.6815 H   0  0  0  0  0  0  0  0  0  0  0  0
   -2.2200   -3.6620   16.2275 H   0  0  0  0  0  0  0  0  0  0  0  0
    0.1892   -3.2270   16.4801 H   0  0  0  0  0  0  0  0  0  0  0  0
    1.2192    0.3957   13.4113 H   0  0  0  0  0  0  0  0  0  0  0  0
    5.1390    1.9237   13.2322 H   0  0  0  0  0  0  0  0  0  0  0  0
    6.8313    0.8972   15.3071 H   0  0  0  0  0  0  0  0  0  0  0  0
    6.2679   -0.7926   17.3197 H   0  0  0  0  0  0  0  0  0  0  0  0
    4.2975    3.2102   11.7306 H   0  0  0  0  0  0  0  0  0  0  0  0
    4.0088    1.7597   10.7111 H   0  0  0  0  0  0  0  0  0  0  0  0
    3.8726    3.8163    9.3844 H   0  0  0  0  0  0  0  0  0  0  0  0
    1.3643    5.1154    8.2414 H   0  0  0  0  0  0  0  0  0  0  0  0
    0.5465    2.1696   12.7851 H   0  0  0  0  0  0  0  0  0  0  0  0
  1  2  1  0  0  0  0
  1  8  2  0  0  0  0
  2  3  2  0  0  0  0
  2  7  1  0  0  0  0
  3  4  1  0  0  0  0
  4  5  2  0  0  0  0
  5  6  1  0  0  0  0
  6  7  2  0  0  0  0
  8  9  1  0  0  0  0
  8 16  1  0  0  0  0
  9 10  1  0  0  0  0
 10 11  2  0  0  0  0
 10 17  1  0  0  0  0
 11 12  1  0  0  0  0
 12 13  1  0  0  0  0
 12 16  1  0  0  0  0
 13 14  2  0  0  0  0
 14 15  1  0  0  0  0
 15 16  2  0  0  0  0
 17 18  1  0  0  0  0
 17 25  2  0  0  0  0
 18 19  1  0  0  0  0
 19 20  2  0  0  0  0
 20 21  1  0  0  0  0
 20 24  1  0  0  0  0
 21 22  2  0  0  0  0
 22 23  1  0  0  0  0
 23 24  2  0  0  0  0
 24 25  1  0  0  0  0
  3 26  1  0  0  0  0
  4 27  1  0  0  0  0
  5 28  1  0  0  0  0
  6 29  1  0  0  0  0
  7 30  1  0  0  0  0
  9 31  1  0  0  0  0
 11 32  1  0  0  0  0
 13 33  1  0  0  0  0
 14 34  1  0  0  0  0
 18 35  1  0  0  0  0
 18 36  1  0  0  0  0
 19 37  1  0  0  0  0
 21 38  1  0  0  0  0
 25 39  1  0  0  0  0
M  END
> <IC50[nM]>
26.8

$$$$
CHEMBL3265027
  -OEChem-05192314333D
 Structure written by MMmdl.
 39 43  0     0  0  0  0  0  0999 V2000
    1.6124   -1.3917   15.3063 N   0  0  0  0  0  0  0  0  0  0  0  0
    0.2249   -1.5978   15.0814 C   0  0  0  0  0  0  0  0  0  0  0  0
   -0.5442   -0.8150   14.1982 C   0  0  0  0  0  0  0  0  0  0  0  0
   -1.9142   -1.0738   14.0573 C   0  0  0  0  0  0  0  0  0  0  0  0
   -2.5121   -2.0998   14.7912 C   0  0  0  0  0  0  0  0  0  0  0  0
   -1.7536   -2.8696   15.6610 C   0  0  0  0  0  0  0  0  0  0  0  0
   -0.3955   -2.6216   15.8033 C   0  0  0  0  0  0  0  0  0  0  0  0
    2.5315   -0.4491   14.7651 C   0  0  0  0  0  0  0  0  0  0  0  0
    2.1583    0.3961   13.7551 N   0  0  0  0  0  0  0  0  0  0  0  0
    3.0948    1.2419   13.2245 C   0  0  0  0  0  0  0  0  0  0  0  0
    4.4047    1.2813   13.6954 C   0  0  0  0  0  0  0  0  0  0  0  0
    4.7386    0.4915   14.7531 N   0  0  0  0  0  0  0  0  0  0  0  0
    5.8960    0.3859   15.4809 C   0  0  0  0  0  0  0  0  0  0  0  0
    5.5970   -0.5411   16.5116 C   0  0  0  0  0  0  0  0  0  0  0  0
    4.3870   -1.0586   16.3541 N   0  0  0  0  0  0  0  0  0  0  0  0
    3.8354   -0.3959   15.3220 C   0  0  0  0  0  0  0  0  0  0  0  0
    2.6241    2.1558   12.1223 C   0  0  0  0  0  0  0  0  0  0  0  0
    3.5409    2.6448   11.1668 C   0  0  0  0  0  0  0  0  0  0  0  0
    3.1526    3.4655   10.1090 C   0  0  0  0  0  0  0  0  0  0  0  0
    1.8070    3.8204   10.0137 C   0  0  0  0  0  0  0  0  0  0  0  0
    0.9973    4.6040    9.1190 C   0  0  0  0  0  0  0  0  0  0  0  0
   -0.2435    4.6079    9.5202 N   0  0  0  0  0  0  0  0  0  0  0  0
   -0.3316    3.8816   10.6309 N   0  0  0  0  0  0  0  0  0  0  0  0
    0.8832    3.3484   10.9943 C   0  0  0  0  0  0  0  0  0  0  0  0
    1.2619    2.5173   12.0545 C   0  0  0  0  0  0  0  0  0  0  0  0
   -0.0807   -0.0200   13.6329 H   0  0  0  0  0  0  0  0  0  0  0  0
   -2.5084   -0.4785   13.3798 H   0  0  0  0  0  0  0  0  0  0  0  0
   -3.5686   -2.2949   14.6815 H   0  0  0  0  0  0  0  0  0  0  0  0
   -2.2200   -3.6620   16.2275 H   0  0  0  0  0  0  0  0  0  0  0  0
    0.1892   -3.2270   16.4801 H   0  0  0  0  0  0  0  0  0  0  0  0
    1.2192    0.3957   13.4113 H   0  0  0  0  0  0  0  0  0  0  0  0
    5.1390    1.9237   13.2322 H   0  0  0  0  0  0  0  0  0  0  0  0
    6.8313    0.8972   15.3071 H   0  0  0  0  0  0  0  0  0  0  0  0
    6.2679   -0.7926   17.3197 H   0  0  0  0  0  0  0  0  0  0  0  0
    4.5821    2.3729   11.2587 H   0  0  0  0  0  0  0  0  0  0  0  0
    3.8726    3.8163    9.3844 H   0  0  0  0  0  0  0  0  0  0  0  0
    1.3643    5.1154    8.2414 H   0  0  0  0  0  0  0  0  0  0  0  0
    0.6747    1.5903   11.9772 H   0  0  0  0  0  0  0  0  0  0  0  0
    1.0077    3.0353   12.9910 H   0  0  0  0  0  0  0  0  0  0  0  0
  1  2  1  0  0  0  0
  1  8  2  0  0  0  0
  2  3  2  0  0  0  0
  2  7  1  0  0  0  0
  3  4  1  0  0  0  0
  4  5  2  0  0  0  0
  5  6  1  0  0  0  0
  6  7  2  0  0  0  0
  8  9  1  0  0  0  0
  8 16  1  0  0  0  0
  9 10  1  0  0  0  0
 10 11  2  0  0  0  0
 10 17  1  0  0  0  0
 11 12  1  0  0  0  0
 12 13  1  0  0  0  0
 12 16  1  0  0  0  0
 13 14  2  0  0  0  0
 14 15  1  0  0  0  0
 15 16  2  0  0  0  0
 17 18  2  0  0  0  0
 17 25  1  0  0  0  0
 18 19  1  0  0  0  0
 19 20  2  0  0  0  0
 20 21  1  0  0  0  0
 20 24  1  0  0  0  0
 21 22  2  0  0  0  0
 22 23  1  0  0  0  0
 23 24  2  0  0  0  0
 24 25  1  0  0  0  0
  3 26  1  0  0  0  0
  4 27  1  0  0  0  0
  5 28  1  0  0  0  0
  6 29  1  0  0  0  0
  7 30  1  0  0  0  0
  9 31  1  0  0  0  0
 11 32  1  0  0  0  0
 13 33  1  0  0  0  0
 14 34  1  0  0  0  0
 18 35  1  0  0  0  0
 19 36  1  0  0  0  0
 21 37  1  0  0  0  0
 25 38  1  0  0  0  0
 25 39  1  0  0  0  0
M  END
> <IC50[nM]>
26.8

$$$$
CHEMBL3265027
  -OEChem-05192314333D
 Structure written by MMmdl.
 39 43  0     1  0  0  0  0  0999 V2000
    1.6124   -1.3917   15.3063 N   0  0  0  0  0  0  0  0  0  0  0  0
    0.2249   -1.5978   15.0814 C   0  0  0  0  0  0  0  0  0  0  0  0
   -0.5442   -0.8150   14.1982 C   0  0  0  0  0  0  0  0  0  0  0  0
   -1.9142   -1.0738   14.0573 C   0  0  0  0  0  0  0  0  0  0  0  0
   -2.5121   -2.0998   14.7912 C   0  0  0  0  0  0  0  0  0  0  0  0
   -1.7536   -2.8696   15.6610 C   0  0  0  0  0  0  0  0  0  0  0  0
   -0.3955   -2.6216   15.8033 C   0  0  0  0  0  0  0  0  0  0  0  0
    2.5315   -0.4491   14.7651 C   0  0  0  0  0  0  0  0  0  0  0  0
    2.1583    0.3961   13.7551 N   0  0  0  0  0  0  0  0  0  0  0  0
    3.0948    1.2419   13.2245 C   0  0  0  0  0  0  0  0  0  0  0  0
    4.4047    1.2813   13.6954 C   0  0  0  0  0  0  0  0  0  0  0  0
    4.7386    0.4915   14.7531 N   0  0  0  0  0  0  0  0  0  0  0  0
    5.8960    0.3859   15.4809 C   0  0  0  0  0  0  0  0  0  0  0  0
    5.5970   -0.5411   16.5116 C   0  0  0  0  0  0  0  0  0  0  0  0
    4.3870   -1.0586   16.3541 N   0  0  0  0  0  0  0  0  0  0  0  0
    3.8354   -0.3959   15.3220 C   0  0  0  0  0  0  0  0  0  0  0  0
    2.6241    2.1558   12.1223 C   0  0  3  0  0  0  0  0  0  0  0  0
    3.5409    2.6448   11.1668 C   0  0  0  0  0  0  0  0  0  0  0  0
    3.1526    3.4655   10.1090 C   0  0  0  0  0  0  0  0  0  0  0  0
    1.8070    3.8204   10.0137 C   0  0  0  0  0  0  0  0  0  0  0  0
    0.9973    4.6040    9.1190 C   0  0  0  0  0  0  0  0  0  0  0  0
   -0.2435    4.6079    9.5202 N   0  0  0  0  0  0  0  0  0  0  0  0
   -0.3316    3.8816   10.6309 N   0  0  0  0  0  0  0  0  0  0  0  0
    0.8832    3.3484   10.9943 C   0  0  0  0  0  0  0  0  0  0  0  0
    1.2619    2.5173   12.0545 C   0  0  0  0  0  0  0  0  0  0  0  0
   -0.0807   -0.0200   13.6329 H   0  0  0  0  0  0  0  0  0  0  0  0
   -2.5084   -0.4785   13.3798 H   0  0  0  0  0  0  0  0  0  0  0  0
   -3.5686   -2.2949   14.6815 H   0  0  0  0  0  0  0  0  0  0  0  0
   -2.2200   -3.6620   16.2275 H   0  0  0  0  0  0  0  0  0  0  0  0
    0.1892   -3.2270   16.4801 H   0  0  0  0  0  0  0  0  0  0  0  0
    1.2192    0.3957   13.4113 H   0  0  0  0  0  0  0  0  0  0  0  0
    5.1390    1.9237   13.2322 H   0  0  0  0  0  0  0  0  0  0  0  0
    6.8313    0.8972   15.3071 H   0  0  0  0  0  0  0  0  0  0  0  0
    6.2679   -0.7926   17.3197 H   0  0  0  0  0  0  0  0  0  0  0  0
    2.4242    1.2827   11.4837 H   0  0  0  0  0  0  0  0  0  0  0  0
    4.5821    2.3729   11.2587 H   0  0  0  0  0  0  0  0  0  0  0  0
    3.8726    3.8163    9.3844 H   0  0  0  0  0  0  0  0  0  0  0  0
    1.3643    5.1154    8.2414 H   0  0  0  0  0  0  0  0  0  0  0  0
    0.5465    2.1696   12.7851 H   0  0  0  0  0  0  0  0  0  0  0  0
  1  2  1  0  0  0  0
  1  8  2  0  0  0  0
  2  3  2  0  0  0  0
  2  7  1  0  0  0  0
  3  4  1  0  0  0  0
  4  5  2  0  0  0  0
  5  6  1  0  0  0  0
  6  7  2  0  0  0  0
  8  9  1  0  0  0  0
  8 16  1  0  0  0  0
  9 10  1  0  0  0  0
 10 11  2  0  0  0  0
 10 17  1  0  0  0  0
 11 12  1  0  0  0  0
 12 13  1  0  0  0  0
 12 16  1  0  0  0  0
 13 14  2  0  0  0  0
 14 15  1  0  0  0  0
 15 16  2  0  0  0  0
 17 18  1  0  0  0  0
 17 25  1  0  0  0  0
 18 19  2  0  0  0  0
 19 20  1  0  0  0  0
 20 21  2  0  0  0  0
 20 24  1  0  0  0  0
 21 22  1  0  0  0  0
 22 23  2  0  0  0  0
 23 24  1  0  0  0  0
 24 25  2  0  0  0  0
  3 26  1  0  0  0  0
  4 27  1  0  0  0  0
  5 28  1  0  0  0  0
  6 29  1  0  0  0  0
  7 30  1  0  0  0  0
  9 31  1  0  0  0  0
 11 32  1  0  0  0  0
 13 33  1  0  0  0  0
 14 34  1  0  0  0  0
 17 35  1  0  0  0  0
 18 36  1  0  0  0  0
 19 37  1  0  0  0  0
 21 38  1  0  0  0  0
 25 39  1  0  0  0  0
M  END
> <IC50[nM]>
26.8

$$$$
CHEMBL3265027
  -OEChem-05192314333D
 Structure written by MMmdl.
 39 43  0     1  0  0  0  0  0999 V2000
    1.6124   -1.3917   15.3063 N   0  0  0  0  0  0  0  0  0  0  0  0
    0.2249   -1.5978   15.0814 C   0  0  0  0  0  0  0  0  0  0  0  0
   -0.5442   -0.8150   14.1982 C   0  0  0  0  0  0  0  0  0  0  0  0
   -1.9142   -1.0738   14.0573 C   0  0  0  0  0  0  0  0  0  0  0  0
   -2.5121   -2.0998   14.7912 C   0  0  0  0  0  0  0  0  0  0  0  0
   -1.7536   -2.8696   15.6610 C   0  0  0  0  0  0  0  0  0  0  0  0
   -0.3955   -2.6216   15.8033 C   0  0  0  0  0  0  0  0  0  0  0  0
    2.5315   -0.4491   14.7651 C   0  0  0  0  0  0  0  0  0  0  0  0
    2.1583    0.3961   13.7551 N   0  0  0  0  0  0  0  0  0  0  0  0
    3.0948    1.2419   13.2245 C   0  0  0  0  0  0  0  0  0  0  0  0
    4.4047    1.2813   13.6954 C   0  0  0  0  0  0  0  0  0  0  0  0
    4.7386    0.4915   14.7531 N   0  0  0  0  0  0  0  0  0  0  0  0
    5.8960    0.3859   15.4809 C   0  0  0  0  0  0  0  0  0  0  0  0
    5.5970   -0.5411   16.5116 C   0  0  0  0  0  0  0  0  0  0  0  0
    4.3870   -1.0586   16.3541 N   0  0  0  0  0  0  0  0  0  0  0  0
    3.8354   -0.3959   15.3220 C   0  0  0  0  0  0  0  0  0  0  0  0
    2.6241    2.1558   12.1223 C   0  0  0  0  0  0  0  0  0  0  0  0
    3.5409    2.6448   11.1668 C   0  0  0  0  0  0  0  0  0  0  0  0
    3.1526    3.4655   10.1090 C   0  0  0  0  0  0  0  0  0  0  0  0
    1.8070    3.8204   10.0137 C   0  0  0  0  0  0  0  0  0  0  0  0
    0.9973    4.6040    9.1190 C   0  0  0  0  0  0  0  0  0  0  0  0
   -0.2435    4.6079    9.5202 N   0  0  0  0  0  0  0  0  0  0  0  0
   -0.3316    3.8816   10.6309 N   0  0  0  0  0  0  0  0  0  0  0  0
    0.8832    3.3484   10.9943 C   0  0  3  0  0  0  0  0  0  0  0  0
    1.2619    2.5173   12.0545 C   0  0  0  0  0  0  0  0  0  0  0  0
   -0.0807   -0.0200   13.6329 H   0  0  0  0  0  0  0  0  0  0  0  0
   -2.5084   -0.4785   13.3798 H   0  0  0  0  0  0  0  0  0  0  0  0
   -3.5686   -2.2949   14.6815 H   0  0  0  0  0  0  0  0  0  0  0  0
   -2.2200   -3.6620   16.2275 H   0  0  0  0  0  0  0  0  0  0  0  0
    0.1892   -3.2270   16.4801 H   0  0  0  0  0  0  0  0  0  0  0  0
    1.2192    0.3957   13.4113 H   0  0  0  0  0  0  0  0  0  0  0  0
    5.1390    1.9237   13.2322 H   0  0  0  0  0  0  0  0  0  0  0  0
    6.8313    0.8972   15.3071 H   0  0  0  0  0  0  0  0  0  0  0  0
    6.2679   -0.7926   17.3197 H   0  0  0  0  0  0  0  0  0  0  0  0
    4.5821    2.3729   11.2587 H   0  0  0  0  0  0  0  0  0  0  0  0
    3.8726    3.8163    9.3844 H   0  0  0  0  0  0  0  0  0  0  0  0
    1.3643    5.1154    8.2414 H   0  0  0  0  0  0  0  0  0  0  0  0
    1.0874    4.2338   11.6142 H   0  0  0  0  0  0  0  0  0  0  0  0
    0.5465    2.1696   12.7851 H   0  0  0  0  0  0  0  0  0  0  0  0
  1  2  1  0  0  0  0
  1  8  2  0  0  0  0
  2  3  2  0  0  0  0
  2  7  1  0  0  0  0
  3  4  1  0  0  0  0
  4  5  2  0  0  0  0
  5  6  1  0  0  0  0
  6  7  2  0  0  0  0
  8  9  1  0  0  0  0
  8 16  1  0  0  0  0
  9 10  1  0  0  0  0
 10 11  2  0  0  0  0
 10 17  1  0  0  0  0
 11 12  1  0  0  0  0
 12 13  1  0  0  0  0
 12 16  1  0  0  0  0
 13 14  2  0  0  0  0
 14 15  1  0  0  0  0
 15 16  2  0  0  0  0
 17 18  1  0  0  0  0
 17 25  2  0  0  0  0
 18 19  2  0  0  0  0
 19 20  1  0  0  0  0
 20 21  2  0  0  0  0
 20 24  1  0  0  0  0
 21 22  1  0  0  0  0
 22 23  2  0  0  0  0
 23 24  1  0  0  0  0
 24 25  1  0  0  0  0
  3 26  1  0  0  0  0
  4 27  1  0  0  0  0
  5 28  1  0  0  0  0
  6 29  1  0  0  0  0
  7 30  1  0  0  0  0
  9 31  1  0  0  0  0
 11 32  1  0  0  0  0
 13 33  1  0  0  0  0
 14 34  1  0  0  0  0
 18 35  1  0  0  0  0
 19 36  1  0  0  0  0
 21 37  1  0  0  0  0
 24 38  1  0  0  0  0
 25 39  1  0  0  0  0
M  END
> <IC50[nM]>
26.8

$$$$
CHEMBL3265027
  -OEChem-05192314333D
 Structure written by MMmdl.
 39 43  0     0  0  0  0  0  0999 V2000
    1.6124   -1.3917   15.3063 N   0  0  0  0  0  0  0  0  0  0  0  0
    0.2249   -1.5978   15.0814 C   0  0  0  0  0  0  0  0  0  0  0  0
   -0.5442   -0.8150   14.1982 C   0  0  0  0  0  0  0  0  0  0  0  0
   -1.9142   -1.0738   14.0573 C   0  0  0  0  0  0  0  0  0  0  0  0
   -2.5121   -2.0998   14.7912 C   0  0  0  0  0  0  0  0  0  0  0  0
   -1.7536   -2.8696   15.6610 C   0  0  0  0  0  0  0  0  0  0  0  0
   -0.3955   -2.6216   15.8033 C   0  0  0  0  0  0  0  0  0  0  0  0
    2.5315   -0.4491   14.7651 C   0  0  0  0  0  0  0  0  0  0  0  0
    2.1583    0.3961   13.7551 N   0  0  0  0  0  0  0  0  0  0  0  0
    3.0948    1.2419   13.2245 C   0  0  0  0  0  0  0  0  0  0  0  0
    4.4047    1.2813   13.6954 C   0  0  0  0  0  0  0  0  0  0  0  0
    4.7386    0.4915   14.7531 N   0  0  0  0  0  0  0  0  0  0  0  0
    5.8960    0.3859   15.4809 C   0  0  0  0  0  0  0  0  0  0  0  0
    5.5970   -0.5411   16.5116 C   0  0  0  0  0  0  0  0  0  0  0  0
    4.3870   -1.0586   16.3541 N   0  0  0  0  0  0  0  0  0  0  0  0
    3.8354   -0.3959   15.3220 C   0  0  0  0  0  0  0  0  0  0  0  0
    2.6241    2.1558   12.1223 C   0  0  0  0  0  0  0  0  0  0  0  0
    3.5409    2.6448   11.1668 C   0  0  0  0  0  0  0  0  0  0  0  0
    3.1526    3.4655   10.1090 C   0  0  0  0  0  0  0  0  0  0  0  0
    1.8070    3.8204   10.0137 C   0  0  0  0  0  0  0  0  0  0  0  0
    0.9973    4.6040    9.1190 C   0  0  0  0  0  0  0  0  0  0  0  0
   -0.2435    4.6079    9.5202 N   0  0  0  0  0  0  0  0  0  0  0  0
   -0.3316    3.8816   10.6309 N   0  0  0  0  0  0  0  0  0  0  0  0
    0.8832    3.3484   10.9943 C   0  0  0  0  0  0  0  0  0  0  0  0
    1.2619    2.5173   12.0545 C   0  0  0  0  0  0  0  0  0  0  0  0
   -0.0807   -0.0200   13.6329 H   0  0  0  0  0  0  0  0  0  0  0  0
   -2.5084   -0.4785   13.3798 H   0  0  0  0  0  0  0  0  0  0  0  0
   -3.5686   -2.2949   14.6815 H   0  0  0  0  0  0  0  0  0  0  0  0
   -2.2200   -3.6620   16.2275 H   0  0  0  0  0  0  0  0  0  0  0  0
    0.1892   -3.2270   16.4801 H   0  0  0  0  0  0  0  0  0  0  0  0
    1.2192    0.3957   13.4113 H   0  0  0  0  0  0  0  0  0  0  0  0
    5.1390    1.9237   13.2322 H   0  0  0  0  0  0  0  0  0  0  0  0
    6.8313    0.8972   15.3071 H   0  0  0  0  0  0  0  0  0  0  0  0
    6.2679   -0.7926   17.3197 H   0  0  0  0  0  0  0  0  0  0  0  0
    4.5821    2.3729   11.2587 H   0  0  0  0  0  0  0  0  0  0  0  0
    3.7315    4.3974   10.1888 H   0  0  0  0  0  0  0  0  0  0  0  0
    3.4204    2.9461    9.1770 H   0  0  0  0  0  0  0  0  0  0  0  0
    1.3643    5.1154    8.2414 H   0  0  0  0  0  0  0  0  0  0  0  0
    0.5465    2.1696   12.7851 H   0  0  0  0  0  0  0  0  0  0  0  0
  1  2  1  0  0  0  0
  1  8  2  0  0  0  0
  2  3  2  0  0  0  0
  2  7  1  0  0  0  0
  3  4  1  0  0  0  0
  4  5  2  0  0  0  0
  5  6  1  0  0  0  0
  6  7  2  0  0  0  0
  8  9  1  0  0  0  0
  8 16  1  0  0  0  0
  9 10  1  0  0  0  0
 10 11  2  0  0  0  0
 10 17  1  0  0  0  0
 11 12  1  0  0  0  0
 12 13  1  0  0  0  0
 12 16  1  0  0  0  0
 13 14  2  0  0  0  0
 14 15  1  0  0  0  0
 15 16  2  0  0  0  0
 17 18  2  0  0  0  0
 17 25  1  0  0  0  0
 18 19  1  0  0  0  0
 19 20  1  0  0  0  0
 20 21  2  0  0  0  0
 20 24  1  0  0  0  0
 21 22  1  0  0  0  0
 22 23  2  0  0  0  0
 23 24  1  0  0  0  0
 24 25  2  0  0  0  0
  3 26  1  0  0  0  0
  4 27  1  0  0  0  0
  5 28  1  0  0  0  0
  6 29  1  0  0  0  0
  7 30  1  0  0  0  0
  9 31  1  0  0  0  0
 11 32  1  0  0  0  0
 13 33  1  0  0  0  0
 14 34  1  0  0  0  0
 18 35  1  0  0  0  0
 19 36  1  0  0  0  0
 19 37  1  0  0  0  0
 21 38  1  0  0  0  0
 25 39  1  0  0  0  0
M  END
> <IC50[nM]>
26.8

$$$$
CHEMBL3265027
  -OEChem-05192314333D
 Structure written by MMmdl.
 39 43  0     1  0  0  0  0  0999 V2000
    1.6124   -1.3917   15.3063 N   0  0  0  0  0  0  0  0  0  0  0  0
    0.2249   -1.5978   15.0814 C   0  0  0  0  0  0  0  0  0  0  0  0
   -0.5442   -0.8150   14.1982 C   0  0  0  0  0  0  0  0  0  0  0  0
   -1.9142   -1.0738   14.0573 C   0  0  0  0  0  0  0  0  0  0  0  0
   -2.5121   -2.0998   14.7912 C   0  0  0  0  0  0  0  0  0  0  0  0
   -1.7536   -2.8696   15.6610 C   0  0  0  0  0  0  0  0  0  0  0  0
   -0.3955   -2.6216   15.8033 C   0  0  0  0  0  0  0  0  0  0  0  0
    2.5315   -0.4491   14.7651 C   0  0  0  0  0  0  0  0  0  0  0  0
    2.1583    0.3961   13.7551 N   0  0  0  0  0  0  0  0  0  0  0  0
    3.0948    1.2419   13.2245 C   0  0  0  0  0  0  0  0  0  0  0  0
    4.4047    1.2813   13.6954 C   0  0  0  0  0  0  0  0  0  0  0  0
    4.7386    0.4915   14.7531 N   0  0  0  0  0  0  0  0  0  0  0  0
    5.8960    0.3859   15.4809 C   0  0  0  0  0  0  0  0  0  0  0  0
    5.5970   -0.5411   16.5116 C   0  0  0  0  0  0  0  0  0  0  0  0
    4.3870   -1.0586   16.3541 N   0  0  0  0  0  0  0  0  0  0  0  0
    3.8354   -0.3959   15.3220 C   0  0  0  0  0  0  0  0  0  0  0  0
    2.6241    2.1558   12.1223 C   0  0  0  0  0  0  0  0  0  0  0  0
    3.5409    2.6448   11.1668 C   0  0  0  0  0  0  0  0  0  0  0  0
    3.1526    3.4655   10.1090 C   0  0  0  0  0  0  0  0  0  0  0  0
    1.8070    3.8204   10.0137 C   0  0  3  0  0  0  0  0  0  0  0  0
    0.9973    4.6040    9.1190 C   0  0  0  0  0  0  0  0  0  0  0  0
   -0.2435    4.6079    9.5202 N   0  0  0  0  0  0  0  0  0  0  0  0
   -0.3316    3.8816   10.6309 N   0  0  0  0  0  0  0  0  0  0  0  0
    0.8832    3.3484   10.9943 C   0  0  0  0  0  0  0  0  0  0  0  0
    1.2619    2.5173   12.0545 C   0  0  0  0  0  0  0  0  0  0  0  0
   -0.0807   -0.0200   13.6329 H   0  0  0  0  0  0  0  0  0  0  0  0
   -2.5084   -0.4785   13.3798 H   0  0  0  0  0  0  0  0  0  0  0  0
   -3.5686   -2.2949   14.6815 H   0  0  0  0  0  0  0  0  0  0  0  0
   -2.2200   -3.6620   16.2275 H   0  0  0  0  0  0  0  0  0  0  0  0
    0.1892   -3.2270   16.4801 H   0  0  0  0  0  0  0  0  0  0  0  0
    5.0594    0.9971   12.8584 H   0  0  0  0  0  0  0  0  0  0  0  0
    4.6136    2.3210   13.9877 H   0  0  0  0  0  0  0  0  0  0  0  0
    6.8313    0.8972   15.3071 H   0  0  0  0  0  0  0  0  0  0  0  0
    6.2679   -0.7926   17.3197 H   0  0  0  0  0  0  0  0  0  0  0  0
    4.5821    2.3729   11.2587 H   0  0  0  0  0  0  0  0  0  0  0  0
    3.8726    3.8163    9.3844 H   0  0  0  0  0  0  0  0  0  0  0  0
    1.9991    4.7150   10.6243 H   0  0  0  0  0  0  0  0  0  0  0  0
    1.3643    5.1154    8.2414 H   0  0  0  0  0  0  0  0  0  0  0  0
    0.5465    2.1696   12.7851 H   0  0  0  0  0  0  0  0  0  0  0  0
  1  2  1  0  0  0  0
  1  8  2  0  0  0  0
  2  3  2  0  0  0  0
  2  7  1  0  0  0  0
  3  4  1  0  0  0  0
  4  5  2  0  0  0  0
  5  6  1  0  0  0  0
  6  7  2  0  0  0  0
  8  9  1  0  0  0  0
  8 16  1  0  0  0  0
  9 10  2  0  0  0  0
 10 11  1  0  0  0  0
 10 17  1  0  0  0  0
 11 12  1  0  0  0  0
 12 13  1  0  0  0  0
 12 16  1  0  0  0  0
 13 14  2  0  0  0  0
 14 15  1  0  0  0  0
 15 16  2  0  0  0  0
 17 18  1  0  0  0  0
 17 25  2  0  0  0  0
 18 19  2  0  0  0  0
 19 20  1  0  0  0  0
 20 21  1  0  0  0  0
 20 24  1  0  0  0  0
 21 22  2  0  0  0  0
 22 23  1  0  0  0  0
 23 24  2  0  0  0  0
 24 25  1  0  0  0  0
  3 26  1  0  0  0  0
  4 27  1  0  0  0  0
  5 28  1  0  0  0  0
  6 29  1  0  0  0  0
  7 30  1  0  0  0  0
 11 31  1  0  0  0  0
 11 32  1  0  0  0  0
 13 33  1  0  0  0  0
 14 34  1  0  0  0  0
 18 35  1  0  0  0  0
 19 36  1  0  0  0  0
 20 37  1  0  0  0  0
 21 38  1  0  0  0  0
 25 39  1  0  0  0  0
M  END
> <IC50[nM]>
26.8

$$$$
CHEMBL3265027
  -OEChem-05192314333D
 Structure written by MMmdl.
 39 43  0     0  0  0  0  0  0999 V2000
    1.6124   -1.3917   15.3063 N   0  0  0  0  0  0  0  0  0  0  0  0
    0.2249   -1.5978   15.0814 C   0  0  0  0  0  0  0  0  0  0  0  0
   -0.5442   -0.8150   14.1982 C   0  0  0  0  0  0  0  0  0  0  0  0
   -1.9142   -1.0738   14.0573 C   0  0  0  0  0  0  0  0  0  0  0  0
   -2.5121   -2.0998   14.7912 C   0  0  0  0  0  0  0  0  0  0  0  0
   -1.7536   -2.8696   15.6610 C   0  0  0  0  0  0  0  0  0  0  0  0
   -0.3955   -2.6216   15.8033 C   0  0  0  0  0  0  0  0  0  0  0  0
    2.5315   -0.4491   14.7651 C   0  0  0  0  0  0  0  0  0  0  0  0
    2.1583    0.3961   13.7551 N   0  0  0  0  0  0  0  0  0  0  0  0
    3.0948    1.2419   13.2245 C   0  0  0  0  0  0  0  0  0  0  0  0
    4.4047    1.2813   13.6954 C   0  0  0  0  0  0  0  0  0  0  0  0
    4.7386    0.4915   14.7531 N   0  0  0  0  0  0  0  0  0  0  0  0
    5.8960    0.3859   15.4809 C   0  0  0  0  0  0  0  0  0  0  0  0
    5.5970   -0.5411   16.5116 C   0  0  0  0  0  0  0  0  0  0  0  0
    4.3870   -1.0586   16.3541 N   0  0  0  0  0  0  0  0  0  0  0  0
    3.8354   -0.3959   15.3220 C   0  0  0  0  0  0  0  0  0  0  0  0
    2.6241    2.1558   12.1223 C   0  0  0  0  0  0  0  0  0  0  0  0
    3.5409    2.6448   11.1668 C   0  0  0  0  0  0  0  0  0  0  0  0
    3.1526    3.4655   10.1090 C   0  0  0  0  0  0  0  0  0  0  0  0
    1.8070    3.8204   10.0137 C   0  0  0  0  0  0  0  0  0  0  0  0
    0.9973    4.6040    9.1190 C   0  0  0  0  0  0  0  0  0  0  0  0
   -0.2435    4.6079    9.5202 N   0  0  0  0  0  0  0  0  0  0  0  0
   -0.3316    3.8816   10.6309 N   0  0  0  0  0  0  0  0  0  0  0  0
    0.8832    3.3484   10.9943 C   0  0  0  0  0  0  0  0  0  0  0  0
    1.2619    2.5173   12.0545 C   0  0  0  0  0  0  0  0  0  0  0  0
   -0.0807   -0.0200   13.6329 H   0  0  0  0  0  0  0  0  0  0  0  0
   -2.5084   -0.4785   13.3798 H   0  0  0  0  0  0  0  0  0  0  0  0
   -3.5686   -2.2949   14.6815 H   0  0  0  0  0  0  0  0  0  0  0  0
   -2.2200   -3.6620   16.2275 H   0  0  0  0  0  0  0  0  0  0  0  0
    0.1892   -3.2270   16.4801 H   0  0  0  0  0  0  0  0  0  0  0  0
    5.0594    0.9971   12.8584 H   0  0  0  0  0  0  0  0  0  0  0  0
    4.6136    2.3210   13.9877 H   0  0  0  0  0  0  0  0  0  0  0  0
    6.8313    0.8972   15.3071 H   0  0  0  0  0  0  0  0  0  0  0  0
    6.2679   -0.7926   17.3197 H   0  0  0  0  0  0  0  0  0  0  0  0
    4.2975    3.2102   11.7306 H   0  0  0  0  0  0  0  0  0  0  0  0
    4.0088    1.7597   10.7111 H   0  0  0  0  0  0  0  0  0  0  0  0
    3.8726    3.8163    9.3844 H   0  0  0  0  0  0  0  0  0  0  0  0
    1.3643    5.1154    8.2414 H   0  0  0  0  0  0  0  0  0  0  0  0
    0.5465    2.1696   12.7851 H   0  0  0  0  0  0  0  0  0  0  0  0
  1  2  1  0  0  0  0
  1  8  2  0  0  0  0
  2  3  2  0  0  0  0
  2  7  1  0  0  0  0
  3  4  1  0  0  0  0
  4  5  2  0  0  0  0
  5  6  1  0  0  0  0
  6  7  2  0  0  0  0
  8  9  1  0  0  0  0
  8 16  1  0  0  0  0
  9 10  2  0  0  0  0
 10 11  1  0  0  0  0
 10 17  1  0  0  0  0
 11 12  1  0  0  0  0
 12 13  1  0  0  0  0
 12 16  1  0  0  0  0
 13 14  2  0  0  0  0
 14 15  1  0  0  0  0
 15 16  2  0  0  0  0
 17 18  1  0  0  0  0
 17 25  2  0  0  0  0
 18 19  1  0  0  0  0
 19 20  2  0  0  0  0
 20 21  1  0  0  0  0
 20 24  1  0  0  0  0
 21 22  2  0  0  0  0
 22 23  1  0  0  0  0
 23 24  2  0  0  0  0
 24 25  1  0  0  0  0
  3 26  1  0  0  0  0
  4 27  1  0  0  0  0
  5 28  1  0  0  0  0
  6 29  1  0  0  0  0
  7 30  1  0  0  0  0
 11 31  1  0  0  0  0
 11 32  1  0  0  0  0
 13 33  1  0  0  0  0
 14 34  1  0  0  0  0
 18 35  1  0  0  0  0
 18 36  1  0  0  0  0
 19 37  1  0  0  0  0
 21 38  1  0  0  0  0
 25 39  1  0  0  0  0
M  END
> <IC50[nM]>
26.8

$$$$
CHEMBL3265027
  -OEChem-05192314333D
 Structure written by MMmdl.
 39 43  0     0  0  0  0  0  0999 V2000
    1.6124   -1.3917   15.3063 N   0  0  0  0  0  0  0  0  0  0  0  0
    0.2249   -1.5978   15.0814 C   0  0  0  0  0  0  0  0  0  0  0  0
   -0.5442   -0.8150   14.1982 C   0  0  0  0  0  0  0  0  0  0  0  0
   -1.9142   -1.0738   14.0573 C   0  0  0  0  0  0  0  0  0  0  0  0
   -2.5121   -2.0998   14.7912 C   0  0  0  0  0  0  0  0  0  0  0  0
   -1.7536   -2.8696   15.6610 C   0  0  0  0  0  0  0  0  0  0  0  0
   -0.3955   -2.6216   15.8033 C   0  0  0  0  0  0  0  0  0  0  0  0
    2.5315   -0.4491   14.7651 C   0  0  0  0  0  0  0  0  0  0  0  0
    2.1583    0.3961   13.7551 N   0  0  0  0  0  0  0  0  0  0  0  0
    3.0948    1.2419   13.2245 C   0  0  0  0  0  0  0  0  0  0  0  0
    4.4047    1.2813   13.6954 C   0  0  0  0  0  0  0  0  0  0  0  0
    4.7386    0.4915   14.7531 N   0  0  0  0  0  0  0  0  0  0  0  0
    5.8960    0.3859   15.4809 C   0  0  0  0  0  0  0  0  0  0  0  0
    5.5970   -0.5411   16.5116 C   0  0  0  0  0  0  0  0  0  0  0  0
    4.3870   -1.0586   16.3541 N   0  0  0  0  0  0  0  0  0  0  0  0
    3.8354   -0.3959   15.3220 C   0  0  0  0  0  0  0  0  0  0  0  0
    2.6241    2.1558   12.1223 C   0  0  0  0  0  0  0  0  0  0  0  0
    3.5409    2.6448   11.1668 C   0  0  0  0  0  0  0  0  0  0  0  0
    3.1526    3.4655   10.1090 C   0  0  0  0  0  0  0  0  0  0  0  0
    1.8070    3.8204   10.0137 C   0  0  0  0  0  0  0  0  0  0  0  0
    0.9973    4.6040    9.1190 C   0  0  0  0  0  0  0  0  0  0  0  0
   -0.2435    4.6079    9.5202 N   0  0  0  0  0  0  0  0  0  0  0  0
   -0.3316    3.8816   10.6309 N   0  0  0  0  0  0  0  0  0  0  0  0
    0.8832    3.3484   10.9943 C   0  0  0  0  0  0  0  0  0  0  0  0
    1.2619    2.5173   12.0545 C   0  0  0  0  0  0  0  0  0  0  0  0
   -0.0807   -0.0200   13.6329 H   0  0  0  0  0  0  0  0  0  0  0  0
   -2.5084   -0.4785   13.3798 H   0  0  0  0  0  0  0  0  0  0  0  0
   -3.5686   -2.2949   14.6815 H   0  0  0  0  0  0  0  0  0  0  0  0
   -2.2200   -3.6620   16.2275 H   0  0  0  0  0  0  0  0  0  0  0  0
    0.1892   -3.2270   16.4801 H   0  0  0  0  0  0  0  0  0  0  0  0
    5.0594    0.9971   12.8584 H   0  0  0  0  0  0  0  0  0  0  0  0
    4.6136    2.3210   13.9877 H   0  0  0  0  0  0  0  0  0  0  0  0
    6.8313    0.8972   15.3071 H   0  0  0  0  0  0  0  0  0  0  0  0
    6.2679   -0.7926   17.3197 H   0  0  0  0  0  0  0  0  0  0  0  0
    4.5821    2.3729   11.2587 H   0  0  0  0  0  0  0  0  0  0  0  0
    3.8726    3.8163    9.3844 H   0  0  0  0  0  0  0  0  0  0  0  0
    1.3643    5.1154    8.2414 H   0  0  0  0  0  0  0  0  0  0  0  0
    0.6747    1.5903   11.9772 H   0  0  0  0  0  0  0  0  0  0  0  0
    1.0077    3.0353   12.9910 H   0  0  0  0  0  0  0  0  0  0  0  0
  1  2  1  0  0  0  0
  1  8  2  0  0  0  0
  2  3  2  0  0  0  0
  2  7  1  0  0  0  0
  3  4  1  0  0  0  0
  4  5  2  0  0  0  0
  5  6  1  0  0  0  0
  6  7  2  0  0  0  0
  8  9  1  0  0  0  0
  8 16  1  0  0  0  0
  9 10  2  0  0  0  0
 10 11  1  0  0  0  0
 10 17  1  0  0  0  0
 11 12  1  0  0  0  0
 12 13  1  0  0  0  0
 12 16  1  0  0  0  0
 13 14  2  0  0  0  0
 14 15  1  0  0  0  0
 15 16  2  0  0  0  0
 17 18  2  0  0  0  0
 17 25  1  0  0  0  0
 18 19  1  0  0  0  0
 19 20  2  0  0  0  0
 20 21  1  0  0  0  0
 20 24  1  0  0  0  0
 21 22  2  0  0  0  0
 22 23  1  0  0  0  0
 23 24  2  0  0  0  0
 24 25  1  0  0  0  0
  3 26  1  0  0  0  0
  4 27  1  0  0  0  0
  5 28  1  0  0  0  0
  6 29  1  0  0  0  0
  7 30  1  0  0  0  0
 11 31  1  0  0  0  0
 11 32  1  0  0  0  0
 13 33  1  0  0  0  0
 14 34  1  0  0  0  0
 18 35  1  0  0  0  0
 19 36  1  0  0  0  0
 21 37  1  0  0  0  0
 25 38  1  0  0  0  0
 25 39  1  0  0  0  0
M  END
> <IC50[nM]>
26.8

$$$$
CHEMBL3265027
  -OEChem-05192314333D
 Structure written by MMmdl.
 39 43  0     1  0  0  0  0  0999 V2000
    1.6124   -1.3917   15.3063 N   0  0  0  0  0  0  0  0  0  0  0  0
    0.2249   -1.5978   15.0814 C   0  0  0  0  0  0  0  0  0  0  0  0
   -0.5442   -0.8150   14.1982 C   0  0  0  0  0  0  0  0  0  0  0  0
   -1.9142   -1.0738   14.0573 C   0  0  0  0  0  0  0  0  0  0  0  0
   -2.5121   -2.0998   14.7912 C   0  0  0  0  0  0  0  0  0  0  0  0
   -1.7536   -2.8696   15.6610 C   0  0  0  0  0  0  0  0  0  0  0  0
   -0.3955   -2.6216   15.8033 C   0  0  0  0  0  0  0  0  0  0  0  0
    2.5315   -0.4491   14.7651 C   0  0  0  0  0  0  0  0  0  0  0  0
    2.1583    0.3961   13.7551 N   0  0  0  0  0  0  0  0  0  0  0  0
    3.0948    1.2419   13.2245 C   0  0  0  0  0  0  0  0  0  0  0  0
    4.4047    1.2813   13.6954 C   0  0  0  0  0  0  0  0  0  0  0  0
    4.7386    0.4915   14.7531 N   0  0  0  0  0  0  0  0  0  0  0  0
    5.8960    0.3859   15.4809 C   0  0  0  0  0  0  0  0  0  0  0  0
    5.5970   -0.5411   16.5116 C   0  0  0  0  0  0  0  0  0  0  0  0
    4.3870   -1.0586   16.3541 N   0  0  0  0  0  0  0  0  0  0  0  0
    3.8354   -0.3959   15.3220 C   0  0  0  0  0  0  0  0  0  0  0  0
    2.6241    2.1558   12.1223 C   0  0  3  0  0  0  0  0  0  0  0  0
    3.5409    2.6448   11.1668 C   0  0  0  0  0  0  0  0  0  0  0  0
    3.1526    3.4655   10.1090 C   0  0  0  0  0  0  0  0  0  0  0  0
    1.8070    3.8204   10.0137 C   0  0  0  0  0  0  0  0  0  0  0  0
    0.9973    4.6040    9.1190 C   0  0  0  0  0  0  0  0  0  0  0  0
   -0.2435    4.6079    9.5202 N   0  0  0  0  0  0  0  0  0  0  0  0
   -0.3316    3.8816   10.6309 N   0  0  0  0  0  0  0  0  0  0  0  0
    0.8832    3.3484   10.9943 C   0  0  0  0  0  0  0  0  0  0  0  0
    1.2619    2.5173   12.0545 C   0  0  0  0  0  0  0  0  0  0  0  0
   -0.0807   -0.0200   13.6329 H   0  0  0  0  0  0  0  0  0  0  0  0
   -2.5084   -0.4785   13.3798 H   0  0  0  0  0  0  0  0  0  0  0  0
   -3.5686   -2.2949   14.6815 H   0  0  0  0  0  0  0  0  0  0  0  0
   -2.2200   -3.6620   16.2275 H   0  0  0  0  0  0  0  0  0  0  0  0
    0.1892   -3.2270   16.4801 H   0  0  0  0  0  0  0  0  0  0  0  0
    5.0594    0.9971   12.8584 H   0  0  0  0  0  0  0  0  0  0  0  0
    4.6136    2.3210   13.9877 H   0  0  0  0  0  0  0  0  0  0  0  0
    6.8313    0.8972   15.3071 H   0  0  0  0  0  0  0  0  0  0  0  0
    6.2679   -0.7926   17.3197 H   0  0  0  0  0  0  0  0  0  0  0  0
    2.4242    1.2827   11.4837 H   0  0  0  0  0  0  0  0  0  0  0  0
    4.5821    2.3729   11.2587 H   0  0  0  0  0  0  0  0  0  0  0  0
    3.8726    3.8163    9.3844 H   0  0  0  0  0  0  0  0  0  0  0  0
    1.3643    5.1154    8.2414 H   0  0  0  0  0  0  0  0  0  0  0  0
    0.5465    2.1696   12.7851 H   0  0  0  0  0  0  0  0  0  0  0  0
  1  2  1  0  0  0  0
  1  8  2  0  0  0  0
  2  3  2  0  0  0  0
  2  7  1  0  0  0  0
  3  4  1  0  0  0  0
  4  5  2  0  0  0  0
  5  6  1  0  0  0  0
  6  7  2  0  0  0  0
  8  9  1  0  0  0  0
  8 16  1  0  0  0  0
  9 10  2  0  0  0  0
 10 11  1  0  0  0  0
 10 17  1  0  0  0  0
 11 12  1  0  0  0  0
 12 13  1  0  0  0  0
 12 16  1  0  0  0  0
 13 14  2  0  0  0  0
 14 15  1  0  0  0  0
 15 16  2  0  0  0  0
 17 18  1  0  0  0  0
 17 25  1  0  0  0  0
 18 19  2  0  0  0  0
 19 20  1  0  0  0  0
 20 21  2  0  0  0  0
 20 24  1  0  0  0  0
 21 22  1  0  0  0  0
 22 23  2  0  0  0  0
 23 24  1  0  0  0  0
 24 25  2  0  0  0  0
  3 26  1  0  0  0  0
  4 27  1  0  0  0  0
  5 28  1  0  0  0  0
  6 29  1  0  0  0  0
  7 30  1  0  0  0  0
 11 31  1  0  0  0  0
 11 32  1  0  0  0  0
 13 33  1  0  0  0  0
 14 34  1  0  0  0  0
 17 35  1  0  0  0  0
 18 36  1  0  0  0  0
 19 37  1  0  0  0  0
 21 38  1  0  0  0  0
 25 39  1  0  0  0  0
M  END
> <IC50[nM]>
26.8

$$$$
CHEMBL3265027
  -OEChem-05192314333D
 Structure written by MMmdl.
 39 43  0     1  0  0  0  0  0999 V2000
    1.6124   -1.3917   15.3063 N   0  0  0  0  0  0  0  0  0  0  0  0
    0.2249   -1.5978   15.0814 C   0  0  0  0  0  0  0  0  0  0  0  0
   -0.5442   -0.8150   14.1982 C   0  0  0  0  0  0  0  0  0  0  0  0
   -1.9142   -1.0738   14.0573 C   0  0  0  0  0  0  0  0  0  0  0  0
   -2.5121   -2.0998   14.7912 C   0  0  0  0  0  0  0  0  0  0  0  0
   -1.7536   -2.8696   15.6610 C   0  0  0  0  0  0  0  0  0  0  0  0
   -0.3955   -2.6216   15.8033 C   0  0  0  0  0  0  0  0  0  0  0  0
    2.5315   -0.4491   14.7651 C   0  0  0  0  0  0  0  0  0  0  0  0
    2.1583    0.3961   13.7551 N   0  0  0  0  0  0  0  0  0  0  0  0
    3.0948    1.2419   13.2245 C   0  0  0  0  0  0  0  0  0  0  0  0
    4.4047    1.2813   13.6954 C   0  0  0  0  0  0  0  0  0  0  0  0
    4.7386    0.4915   14.7531 N   0  0  0  0  0  0  0  0  0  0  0  0
    5.8960    0.3859   15.4809 C   0  0  0  0  0  0  0  0  0  0  0  0
    5.5970   -0.5411   16.5116 C   0  0  0  0  0  0  0  0  0  0  0  0
    4.3870   -1.0586   16.3541 N   0  0  0  0  0  0  0  0  0  0  0  0
    3.8354   -0.3959   15.3220 C   0  0  0  0  0  0  0  0  0  0  0  0
    2.6241    2.1558   12.1223 C   0  0  0  0  0  0  0  0  0  0  0  0
    3.5409    2.6448   11.1668 C   0  0  0  0  0  0  0  0  0  0  0  0
    3.1526    3.4655   10.1090 C   0  0  0  0  0  0  0  0  0  0  0  0
    1.8070    3.8204   10.0137 C   0  0  0  0  0  0  0  0  0  0  0  0
    0.9973    4.6040    9.1190 C   0  0  0  0  0  0  0  0  0  0  0  0
   -0.2435    4.6079    9.5202 N   0  0  0  0  0  0  0  0  0  0  0  0
   -0.3316    3.8816   10.6309 N   0  0  0  0  0  0  0  0  0  0  0  0
    0.8832    3.3484   10.9943 C   0  0  3  0  0  0  0  0  0  0  0  0
    1.2619    2.5173   12.0545 C   0  0  0  0  0  0  0  0  0  0  0  0
   -0.0807   -0.0200   13.6329 H   0  0  0  0  0  0  0  0  0  0  0  0
   -2.5084   -0.4785   13.3798 H   0  0  0  0  0  0  0  0  0  0  0  0
   -3.5686   -2.2949   14.6815 H   0  0  0  0  0  0  0  0  0  0  0  0
   -2.2200   -3.6620   16.2275 H   0  0  0  0  0  0  0  0  0  0  0  0
    0.1892   -3.2270   16.4801 H   0  0  0  0  0  0  0  0  0  0  0  0
    5.0594    0.9971   12.8584 H   0  0  0  0  0  0  0  0  0  0  0  0
    4.6136    2.3210   13.9877 H   0  0  0  0  0  0  0  0  0  0  0  0
    6.8313    0.8972   15.3071 H   0  0  0  0  0  0  0  0  0  0  0  0
    6.2679   -0.7926   17.3197 H   0  0  0  0  0  0  0  0  0  0  0  0
    4.5821    2.3729   11.2587 H   0  0  0  0  0  0  0  0  0  0  0  0
    3.8726    3.8163    9.3844 H   0  0  0  0  0  0  0  0  0  0  0  0
    1.3643    5.1154    8.2414 H   0  0  0  0  0  0  0  0  0  0  0  0
    1.0874    4.2338   11.6142 H   0  0  0  0  0  0  0  0  0  0  0  0
    0.5465    2.1696   12.7851 H   0  0  0  0  0  0  0  0  0  0  0  0
  1  2  1  0  0  0  0
  1  8  2  0  0  0  0
  2  3  2  0  0  0  0
  2  7  1  0  0  0  0
  3  4  1  0  0  0  0
  4  5  2  0  0  0  0
  5  6  1  0  0  0  0
  6  7  2  0  0  0  0
  8  9  1  0  0  0  0
  8 16  1  0  0  0  0
  9 10  2  0  0  0  0
 10 11  1  0  0  0  0
 10 17  1  0  0  0  0
 11 12  1  0  0  0  0
 12 13  1  0  0  0  0
 12 16  1  0  0  0  0
 13 14  2  0  0  0  0
 14 15  1  0  0  0  0
 15 16  2  0  0  0  0
 17 18  1  0  0  0  0
 17 25  2  0  0  0  0
 18 19  2  0  0  0  0
 19 20  1  0  0  0  0
 20 21  2  0  0  0  0
 20 24  1  0  0  0  0
 21 22  1  0  0  0  0
 22 23  2  0  0  0  0
 23 24  1  0  0  0  0
 24 25  1  0  0  0  0
  3 26  1  0  0  0  0
  4 27  1  0  0  0  0
  5 28  1  0  0  0  0
  6 29  1  0  0  0  0
  7 30  1  0  0  0  0
 11 31  1  0  0  0  0
 11 32  1  0  0  0  0
 13 33  1  0  0  0  0
 14 34  1  0  0  0  0
 18 35  1  0  0  0  0
 19 36  1  0  0  0  0
 21 37  1  0  0  0  0
 24 38  1  0  0  0  0
 25 39  1  0  0  0  0
M  END
> <IC50[nM]>
26.8

$$$$
CHEMBL3265027
  -OEChem-05192314333D
 Structure written by MMmdl.
 39 43  0     0  0  0  0  0  0999 V2000
    1.6124   -1.3917   15.3063 N   0  0  0  0  0  0  0  0  0  0  0  0
    0.2249   -1.5978   15.0814 C   0  0  0  0  0  0  0  0  0  0  0  0
   -0.5442   -0.8150   14.1982 C   0  0  0  0  0  0  0  0  0  0  0  0
   -1.9142   -1.0738   14.0573 C   0  0  0  0  0  0  0  0  0  0  0  0
   -2.5121   -2.0998   14.7912 C   0  0  0  0  0  0  0  0  0  0  0  0
   -1.7536   -2.8696   15.6610 C   0  0  0  0  0  0  0  0  0  0  0  0
   -0.3955   -2.6216   15.8033 C   0  0  0  0  0  0  0  0  0  0  0  0
    2.5315   -0.4491   14.7651 C   0  0  0  0  0  0  0  0  0  0  0  0
    2.1583    0.3961   13.7551 N   0  0  0  0  0  0  0  0  0  0  0  0
    3.0948    1.2419   13.2245 C   0  0  0  0  0  0  0  0  0  0  0  0
    4.4047    1.2813   13.6954 C   0  0  0  0  0  0  0  0  0  0  0  0
    4.7386    0.4915   14.7531 N   0  0  0  0  0  0  0  0  0  0  0  0
    5.8960    0.3859   15.4809 C   0  0  0  0  0  0  0  0  0  0  0  0
    5.5970   -0.5411   16.5116 C   0  0  0  0  0  0  0  0  0  0  0  0
    4.3870   -1.0586   16.3541 N   0  0  0  0  0  0  0  0  0  0  0  0
    3.8354   -0.3959   15.3220 C   0  0  0  0  0  0  0  0  0  0  0  0
    2.6241    2.1558   12.1223 C   0  0  0  0  0  0  0  0  0  0  0  0
    3.5409    2.6448   11.1668 C   0  0  0  0  0  0  0  0  0  0  0  0
    3.1526    3.4655   10.1090 C   0  0  0  0  0  0  0  0  0  0  0  0
    1.8070    3.8204   10.0137 C   0  0  0  0  0  0  0  0  0  0  0  0
    0.9973    4.6040    9.1190 C   0  0  0  0  0  0  0  0  0  0  0  0
   -0.2435    4.6079    9.5202 N   0  0  0  0  0  0  0  0  0  0  0  0
   -0.3316    3.8816   10.6309 N   0  0  0  0  0  0  0  0  0  0  0  0
    0.8832    3.3484   10.9943 C   0  0  0  0  0  0  0  0  0  0  0  0
    1.2619    2.5173   12.0545 C   0  0  0  0  0  0  0  0  0  0  0  0
   -0.0807   -0.0200   13.6329 H   0  0  0  0  0  0  0  0  0  0  0  0
   -2.5084   -0.4785   13.3798 H   0  0  0  0  0  0  0  0  0  0  0  0
   -3.5686   -2.2949   14.6815 H   0  0  0  0  0  0  0  0  0  0  0  0
   -2.2200   -3.6620   16.2275 H   0  0  0  0  0  0  0  0  0  0  0  0
    0.1892   -3.2270   16.4801 H   0  0  0  0  0  0  0  0  0  0  0  0
    5.0594    0.9971   12.8584 H   0  0  0  0  0  0  0  0  0  0  0  0
    4.6136    2.3210   13.9877 H   0  0  0  0  0  0  0  0  0  0  0  0
    6.8313    0.8972   15.3071 H   0  0  0  0  0  0  0  0  0  0  0  0
    6.2679   -0.7926   17.3197 H   0  0  0  0  0  0  0  0  0  0  0  0
    4.5821    2.3729   11.2587 H   0  0  0  0  0  0  0  0  0  0  0  0
    3.7315    4.3974   10.1888 H   0  0  0  0  0  0  0  0  0  0  0  0
    3.4204    2.9461    9.1770 H   0  0  0  0  0  0  0  0  0  0  0  0
    1.3643    5.1154    8.2414 H   0  0  0  0  0  0  0  0  0  0  0  0
    0.5465    2.1696   12.7851 H   0  0  0  0  0  0  0  0  0  0  0  0
  1  2  1  0  0  0  0
  1  8  2  0  0  0  0
  2  3  2  0  0  0  0
  2  7  1  0  0  0  0
  3  4  1  0  0  0  0
  4  5  2  0  0  0  0
  5  6  1  0  0  0  0
  6  7  2  0  0  0  0
  8  9  1  0  0  0  0
  8 16  1  0  0  0  0
  9 10  2  0  0  0  0
 10 11  1  0  0  0  0
 10 17  1  0  0  0  0
 11 12  1  0  0  0  0
 12 13  1  0  0  0  0
 12 16  1  0  0  0  0
 13 14  2  0  0  0  0
 14 15  1  0  0  0  0
 15 16  2  0  0  0  0
 17 18  2  0  0  0  0
 17 25  1  0  0  0  0
 18 19  1  0  0  0  0
 19 20  1  0  0  0  0
 20 21  2  0  0  0  0
 20 24  1  0  0  0  0
 21 22  1  0  0  0  0
 22 23  2  0  0  0  0
 23 24  1  0  0  0  0
 24 25  2  0  0  0  0
  3 26  1  0  0  0  0
  4 27  1  0  0  0  0
  5 28  1  0  0  0  0
  6 29  1  0  0  0  0
  7 30  1  0  0  0  0
 11 31  1  0  0  0  0
 11 32  1  0  0  0  0
 13 33  1  0  0  0  0
 14 34  1  0  0  0  0
 18 35  1  0  0  0  0
 19 36  1  0  0  0  0
 19 37  1  0  0  0  0
 21 38  1  0  0  0  0
 25 39  1  0  0  0  0
M  END
> <IC50[nM]>
26.8

$$$$
CHEMBL3265027
  -OEChem-05192314333D
 Structure written by MMmdl.
 39 43  0     0  0  0  0  0  0999 V2000
    1.6124   -1.3917   15.3063 N   0  0  0  0  0  0  0  0  0  0  0  0
    0.2249   -1.5978   15.0814 C   0  0  0  0  0  0  0  0  0  0  0  0
   -0.5442   -0.8150   14.1982 C   0  0  0  0  0  0  0  0  0  0  0  0
   -1.9142   -1.0738   14.0573 C   0  0  0  0  0  0  0  0  0  0  0  0
   -2.5121   -2.0998   14.7912 C   0  0  0  0  0  0  0  0  0  0  0  0
   -1.7536   -2.8696   15.6610 C   0  0  0  0  0  0  0  0  0  0  0  0
   -0.3955   -2.6216   15.8033 C   0  0  0  0  0  0  0  0  0  0  0  0
    2.5315   -0.4491   14.7651 C   0  0  0  0  0  0  0  0  0  0  0  0
    2.1583    0.3961   13.7551 N   0  0  0  0  0  0  0  0  0  0  0  0
    3.0948    1.2419   13.2245 C   0  0  0  0  0  0  0  0  0  0  0  0
    4.4047    1.2813   13.6954 C   0  0  0  0  0  0  0  0  0  0  0  0
    4.7386    0.4915   14.7531 N   0  0  0  0  0  0  0  0  0  0  0  0
    5.8960    0.3859   15.4809 C   0  0  0  0  0  0  0  0  0  0  0  0
    5.5970   -0.5411   16.5116 C   0  0  0  0  0  0  0  0  0  0  0  0
    4.3870   -1.0586   16.3541 N   0  0  0  0  0  0  0  0  0  0  0  0
    3.8354   -0.3959   15.3220 C   0  0  0  0  0  0  0  0  0  0  0  0
    2.6241    2.1558   12.1223 C   0  0  0  0  0  0  0  0  0  0  0  0
    3.5409    2.6448   11.1668 C   0  0  0  0  0  0  0  0  0  0  0  0
    3.1526    3.4655   10.1090 C   0  0  0  0  0  0  0  0  0  0  0  0
    1.8070    3.8204   10.0137 C   0  0  0  0  0  0  0  0  0  0  0  0
    0.9973    4.6040    9.1190 C   0  0  0  0  0  0  0  0  0  0  0  0
   -0.2435    4.6079    9.5202 N   0  0  0  0  0  0  0  0  0  0  0  0
   -0.3316    3.8816   10.6309 N   0  0  0  0  0  0  0  0  0  0  0  0
    0.8832    3.3484   10.9943 C   0  0  0  0  0  0  0  0  0  0  0  0
    1.2619    2.5173   12.0545 C   0  0  0  0  0  0  0  0  0  0  0  0
   -0.0807   -0.0200   13.6329 H   0  0  0  0  0  0  0  0  0  0  0  0
   -2.5084   -0.4785   13.3798 H   0  0  0  0  0  0  0  0  0  0  0  0
   -3.3091   -1.6366   15.3914 H   0  0  0  0  0  0  0  0  0  0  0  0
   -2.9576   -2.7924   14.0620 H   0  0  0  0  0  0  0  0  0  0  0  0
   -2.2200   -3.6620   16.2275 H   0  0  0  0  0  0  0  0  0  0  0  0
    0.1892   -3.2270   16.4801 H   0  0  0  0  0  0  0  0  0  0  0  0
    5.0594    0.9971   12.8584 H   0  0  0  0  0  0  0  0  0  0  0  0
    4.6136    2.3210   13.9877 H   0  0  0  0  0  0  0  0  0  0  0  0
    6.8313    0.8972   15.3071 H   0  0  0  0  0  0  0  0  0  0  0  0
    6.2679   -0.7926   17.3197 H   0  0  0  0  0  0  0  0  0  0  0  0
    4.5821    2.3729   11.2587 H   0  0  0  0  0  0  0  0  0  0  0  0
    3.8726    3.8163    9.3844 H   0  0  0  0  0  0  0  0  0  0  0  0
    1.3643    5.1154    8.2414 H   0  0  0  0  0  0  0  0  0  0  0  0
    0.5465    2.1696   12.7851 H   0  0  0  0  0  0  0  0  0  0  0  0
  1  2  2  0  0  0  0
  1  8  1  0  0  0  0
  2  3  1  0  0  0  0
  2  7  1  0  0  0  0
  3  4  2  0  0  0  0
  4  5  1  0  0  0  0
  5  6  1  0  0  0  0
  6  7  2  0  0  0  0
  8  9  2  0  0  0  0
  8 16  1  0  0  0  0
  9 10  1  0  0  0  0
 10 11  1  0  0  0  0
 10 17  2  0  0  0  0
 11 12  1  0  0  0  0
 12 13  1  0  0  0  0
 12 16  1  0  0  0  0
 13 14  2  0  0  0  0
 14 15  1  0  0  0  0
 15 16  2  0  0  0  0
 17 18  1  0  0  0  0
 17 25  1  0  0  0  0
 18 19  2  0  0  0  0
 19 20  1  0  0  0  0
 20 21  2  0  0  0  0
 20 24  1  0  0  0  0
 21 22  1  0  0  0  0
 22 23  2  0  0  0  0
 23 24  1  0  0  0  0
 24 25  2  0  0  0  0
  3 26  1  0  0  0  0
  4 27  1  0  0  0  0
  5 28  1  0  0  0  0
  5 29  1  0  0  0  0
  6 30  1  0  0  0  0
  7 31  1  0  0  0  0
 11 32  1  0  0  0  0
 11 33  1  0  0  0  0
 13 34  1  0  0  0  0
 14 35  1  0  0  0  0
 18 36  1  0  0  0  0
 19 37  1  0  0  0  0
 21 38  1  0  0  0  0
 25 39  1  0  0  0  0
M  END
> <IC50[nM]>
26.8

$$$$
CHEMBL3265027
  -OEChem-05192314333D
 Structure written by MMmdl.
 39 43  0     0  0  0  0  0  0999 V2000
    1.6124   -1.3917   15.3063 N   0  0  0  0  0  0  0  0  0  0  0  0
    0.2249   -1.5978   15.0814 C   0  0  0  0  0  0  0  0  0  0  0  0
   -0.5442   -0.8150   14.1982 C   0  0  0  0  0  0  0  0  0  0  0  0
   -1.9142   -1.0738   14.0573 C   0  0  0  0  0  0  0  0  0  0  0  0
   -2.5121   -2.0998   14.7912 C   0  0  0  0  0  0  0  0  0  0  0  0
   -1.7536   -2.8696   15.6610 C   0  0  0  0  0  0  0  0  0  0  0  0
   -0.3955   -2.6216   15.8033 C   0  0  0  0  0  0  0  0  0  0  0  0
    2.5315   -0.4491   14.7651 C   0  0  0  0  0  0  0  0  0  0  0  0
    2.1583    0.3961   13.7551 N   0  0  0  0  0  0  0  0  0  0  0  0
    3.0948    1.2419   13.2245 C   0  0  0  0  0  0  0  0  0  0  0  0
    4.4047    1.2813   13.6954 C   0  0  0  0  0  0  0  0  0  0  0  0
    4.7386    0.4915   14.7531 N   0  0  0  0  0  0  0  0  0  0  0  0
    5.8960    0.3859   15.4809 C   0  0  0  0  0  0  0  0  0  0  0  0
    5.5970   -0.5411   16.5116 C   0  0  0  0  0  0  0  0  0  0  0  0
    4.3870   -1.0586   16.3541 N   0  0  0  0  0  0  0  0  0  0  0  0
    3.8354   -0.3959   15.3220 C   0  0  0  0  0  0  0  0  0  0  0  0
    2.6241    2.1558   12.1223 C   0  0  0  0  0  0  0  0  0  0  0  0
    3.5409    2.6448   11.1668 C   0  0  0  0  0  0  0  0  0  0  0  0
    3.1526    3.4655   10.1090 C   0  0  0  0  0  0  0  0  0  0  0  0
    1.8070    3.8204   10.0137 C   0  0  0  0  0  0  0  0  0  0  0  0
    0.9973    4.6040    9.1190 C   0  0  0  0  0  0  0  0  0  0  0  0
   -0.2435    4.6079    9.5202 N   0  0  0  0  0  0  0  0  0  0  0  0
   -0.3316    3.8816   10.6309 N   0  0  0  0  0  0  0  0  0  0  0  0
    0.8832    3.3484   10.9943 C   0  0  0  0  0  0  0  0  0  0  0  0
    1.2619    2.5173   12.0545 C   0  0  0  0  0  0  0  0  0  0  0  0
   -0.0807   -0.0200   13.6329 H   0  0  0  0  0  0  0  0  0  0  0  0
   -2.5084   -0.4785   13.3798 H   0  0  0  0  0  0  0  0  0  0  0  0
   -3.5686   -2.2949   14.6815 H   0  0  0  0  0  0  0  0  0  0  0  0
   -2.2200   -3.6620   16.2275 H   0  0  0  0  0  0  0  0  0  0  0  0
    0.1234   -3.5536   15.5348 H   0  0  0  0  0  0  0  0  0  0  0  0
   -0.2267   -2.4016   16.8678 H   0  0  0  0  0  0  0  0  0  0  0  0
    5.0594    0.9971   12.8584 H   0  0  0  0  0  0  0  0  0  0  0  0
    4.6136    2.3210   13.9877 H   0  0  0  0  0  0  0  0  0  0  0  0
    6.8313    0.8972   15.3071 H   0  0  0  0  0  0  0  0  0  0  0  0
    6.2679   -0.7926   17.3197 H   0  0  0  0  0  0  0  0  0  0  0  0
    4.5821    2.3729   11.2587 H   0  0  0  0  0  0  0  0  0  0  0  0
    3.8726    3.8163    9.3844 H   0  0  0  0  0  0  0  0  0  0  0  0
    1.3643    5.1154    8.2414 H   0  0  0  0  0  0  0  0  0  0  0  0
    0.5465    2.1696   12.7851 H   0  0  0  0  0  0  0  0  0  0  0  0
  1  2  2  0  0  0  0
  1  8  1  0  0  0  0
  2  3  1  0  0  0  0
  2  7  1  0  0  0  0
  3  4  2  0  0  0  0
  4  5  1  0  0  0  0
  5  6  2  0  0  0  0
  6  7  1  0  0  0  0
  8  9  2  0  0  0  0
  8 16  1  0  0  0  0
  9 10  1  0  0  0  0
 10 11  1  0  0  0  0
 10 17  2  0  0  0  0
 11 12  1  0  0  0  0
 12 13  1  0  0  0  0
 12 16  1  0  0  0  0
 13 14  2  0  0  0  0
 14 15  1  0  0  0  0
 15 16  2  0  0  0  0
 17 18  1  0  0  0  0
 17 25  1  0  0  0  0
 18 19  2  0  0  0  0
 19 20  1  0  0  0  0
 20 21  2  0  0  0  0
 20 24  1  0  0  0  0
 21 22  1  0  0  0  0
 22 23  2  0  0  0  0
 23 24  1  0  0  0  0
 24 25  2  0  0  0  0
  3 26  1  0  0  0  0
  4 27  1  0  0  0  0
  5 28  1  0  0  0  0
  6 29  1  0  0  0  0
  7 30  1  0  0  0  0
  7 31  1  0  0  0  0
 11 32  1  0  0  0  0
 11 33  1  0  0  0  0
 13 34  1  0  0  0  0
 14 35  1  0  0  0  0
 18 36  1  0  0  0  0
 19 37  1  0  0  0  0
 21 38  1  0  0  0  0
 25 39  1  0  0  0  0
M  END
> <IC50[nM]>
26.8

$$$$
CHEMBL3265027
  -OEChem-05192314333D
 Structure written by MMmdl.
 39 43  0     1  0  0  0  0  0999 V2000
    1.6124   -1.3917   15.3063 N   0  0  0  0  0  0  0  0  0  0  0  0
    0.2249   -1.5978   15.0814 C   0  0  0  0  0  0  0  0  0  0  0  0
   -0.5442   -0.8150   14.1982 C   0  0  0  0  0  0  0  0  0  0  0  0
   -1.9142   -1.0738   14.0573 C   0  0  0  0  0  0  0  0  0  0  0  0
   -2.5121   -2.0998   14.7912 C   0  0  0  0  0  0  0  0  0  0  0  0
   -1.7536   -2.8696   15.6610 C   0  0  0  0  0  0  0  0  0  0  0  0
   -0.3955   -2.6216   15.8033 C   0  0  0  0  0  0  0  0  0  0  0  0
    2.5315   -0.4491   14.7651 C   0  0  0  0  0  0  0  0  0  0  0  0
    2.1583    0.3961   13.7551 N   0  0  0  0  0  0  0  0  0  0  0  0
    3.0948    1.2419   13.2245 C   0  0  0  0  0  0  0  0  0  0  0  0
    4.4047    1.2813   13.6954 C   0  0  0  0  0  0  0  0  0  0  0  0
    4.7386    0.4915   14.7531 N   0  0  0  0  0  0  0  0  0  0  0  0
    5.8960    0.3859   15.4809 C   0  0  0  0  0  0  0  0  0  0  0  0
    5.5970   -0.5411   16.5116 C   0  0  0  0  0  0  0  0  0  0  0  0
    4.3870   -1.0586   16.3541 N   0  0  0  0  0  0  0  0  0  0  0  0
    3.8354   -0.3959   15.3220 C   0  0  0  0  0  0  0  0  0  0  0  0
    2.6241    2.1558   12.1223 C   0  0  0  0  0  0  0  0  0  0  0  0
    3.5409    2.6448   11.1668 C   0  0  0  0  0  0  0  0  0  0  0  0
    3.1526    3.4655   10.1090 C   0  0  0  0  0  0  0  0  0  0  0  0
    1.8070    3.8204   10.0137 C   0  0  3  0  0  0  0  0  0  0  0  0
    0.9973    4.6040    9.1190 C   0  0  0  0  0  0  0  0  0  0  0  0
   -0.2435    4.6079    9.5202 N   0  0  0  0  0  0  0  0  0  0  0  0
   -0.3316    3.8816   10.6309 N   0  0  0  0  0  0  0  0  0  0  0  0
    0.8832    3.3484   10.9943 C   0  0  0  0  0  0  0  0  0  0  0  0
    1.2619    2.5173   12.0545 C   0  0  0  0  0  0  0  0  0  0  0  0
   -0.0807   -0.0200   13.6329 H   0  0  0  0  0  0  0  0  0  0  0  0
   -2.5084   -0.4785   13.3798 H   0  0  0  0  0  0  0  0  0  0  0  0
   -3.3091   -1.6366   15.3914 H   0  0  0  0  0  0  0  0  0  0  0  0
   -2.9576   -2.7924   14.0620 H   0  0  0  0  0  0  0  0  0  0  0  0
   -2.2200   -3.6620   16.2275 H   0  0  0  0  0  0  0  0  0  0  0  0
    0.1892   -3.2270   16.4801 H   0  0  0  0  0  0  0  0  0  0  0  0
    5.1390    1.9237   13.2322 H   0  0  0  0  0  0  0  0  0  0  0  0
    6.8313    0.8972   15.3071 H   0  0  0  0  0  0  0  0  0  0  0  0
    6.2679   -0.7926   17.3197 H   0  0  0  0  0  0  0  0  0  0  0  0
    4.5821    2.3729   11.2587 H   0  0  0  0  0  0  0  0  0  0  0  0
    3.8726    3.8163    9.3844 H   0  0  0  0  0  0  0  0  0  0  0  0
    1.9991    4.7150   10.6243 H   0  0  0  0  0  0  0  0  0  0  0  0
    1.3643    5.1154    8.2414 H   0  0  0  0  0  0  0  0  0  0  0  0
    0.5465    2.1696   12.7851 H   0  0  0  0  0  0  0  0  0  0  0  0
  1  2  2  0  0  0  0
  1  8  1  0  0  0  0
  2  3  1  0  0  0  0
  2  7  1  0  0  0  0
  3  4  2  0  0  0  0
  4  5  1  0  0  0  0
  5  6  1  0  0  0  0
  6  7  2  0  0  0  0
  8  9  2  0  0  0  0
  8 16  1  0  0  0  0
  9 10  1  0  0  0  0
 10 11  2  0  0  0  0
 10 17  1  0  0  0  0
 11 12  1  0  0  0  0
 12 13  1  0  0  0  0
 12 16  1  0  0  0  0
 13 14  2  0  0  0  0
 14 15  1  0  0  0  0
 15 16  2  0  0  0  0
 17 18  1  0  0  0  0
 17 25  2  0  0  0  0
 18 19  2  0  0  0  0
 19 20  1  0  0  0  0
 20 21  1  0  0  0  0
 20 24  1  0  0  0  0
 21 22  2  0  0  0  0
 22 23  1  0  0  0  0
 23 24  2  0  0  0  0
 24 25  1  0  0  0  0
  3 26  1  0  0  0  0
  4 27  1  0  0  0  0
  5 28  1  0  0  0  0
  5 29  1  0  0  0  0
  6 30  1  0  0  0  0
  7 31  1  0  0  0  0
 11 32  1  0  0  0  0
 13 33  1  0  0  0  0
 14 34  1  0  0  0  0
 18 35  1  0  0  0  0
 19 36  1  0  0  0  0
 20 37  1  0  0  0  0
 21 38  1  0  0  0  0
 25 39  1  0  0  0  0
M  END
> <IC50[nM]>
26.8

$$$$
CHEMBL3265027
  -OEChem-05192314333D
 Structure written by MMmdl.
 39 43  0     1  0  0  0  0  0999 V2000
    1.6124   -1.3917   15.3063 N   0  0  0  0  0  0  0  0  0  0  0  0
    0.2249   -1.5978   15.0814 C   0  0  0  0  0  0  0  0  0  0  0  0
   -0.5442   -0.8150   14.1982 C   0  0  0  0  0  0  0  0  0  0  0  0
   -1.9142   -1.0738   14.0573 C   0  0  0  0  0  0  0  0  0  0  0  0
   -2.5121   -2.0998   14.7912 C   0  0  0  0  0  0  0  0  0  0  0  0
   -1.7536   -2.8696   15.6610 C   0  0  0  0  0  0  0  0  0  0  0  0
   -0.3955   -2.6216   15.8033 C   0  0  0  0  0  0  0  0  0  0  0  0
    2.5315   -0.4491   14.7651 C   0  0  0  0  0  0  0  0  0  0  0  0
    2.1583    0.3961   13.7551 N   0  0  0  0  0  0  0  0  0  0  0  0
    3.0948    1.2419   13.2245 C   0  0  0  0  0  0  0  0  0  0  0  0
    4.4047    1.2813   13.6954 C   0  0  0  0  0  0  0  0  0  0  0  0
    4.7386    0.4915   14.7531 N   0  0  0  0  0  0  0  0  0  0  0  0
    5.8960    0.3859   15.4809 C   0  0  0  0  0  0  0  0  0  0  0  0
    5.5970   -0.5411   16.5116 C   0  0  0  0  0  0  0  0  0  0  0  0
    4.3870   -1.0586   16.3541 N   0  0  0  0  0  0  0  0  0  0  0  0
    3.8354   -0.3959   15.3220 C   0  0  0  0  0  0  0  0  0  0  0  0
    2.6241    2.1558   12.1223 C   0  0  0  0  0  0  0  0  0  0  0  0
    3.5409    2.6448   11.1668 C   0  0  0  0  0  0  0  0  0  0  0  0
    3.1526    3.4655   10.1090 C   0  0  0  0  0  0  0  0  0  0  0  0
    1.8070    3.8204   10.0137 C   0  0  3  0  0  0  0  0  0  0  0  0
    0.9973    4.6040    9.1190 C   0  0  0  0  0  0  0  0  0  0  0  0
   -0.2435    4.6079    9.5202 N   0  0  0  0  0  0  0  0  0  0  0  0
   -0.3316    3.8816   10.6309 N   0  0  0  0  0  0  0  0  0  0  0  0
    0.8832    3.3484   10.9943 C   0  0  0  0  0  0  0  0  0  0  0  0
    1.2619    2.5173   12.0545 C   0  0  0  0  0  0  0  0  0  0  0  0
   -0.0807   -0.0200   13.6329 H   0  0  0  0  0  0  0  0  0  0  0  0
   -2.5084   -0.4785   13.3798 H   0  0  0  0  0  0  0  0  0  0  0  0
   -3.5686   -2.2949   14.6815 H   0  0  0  0  0  0  0  0  0  0  0  0
   -2.2200   -3.6620   16.2275 H   0  0  0  0  0  0  0  0  0  0  0  0
    0.1234   -3.5536   15.5348 H   0  0  0  0  0  0  0  0  0  0  0  0
   -0.2267   -2.4016   16.8678 H   0  0  0  0  0  0  0  0  0  0  0  0
    5.1390    1.9237   13.2322 H   0  0  0  0  0  0  0  0  0  0  0  0
    6.8313    0.8972   15.3071 H   0  0  0  0  0  0  0  0  0  0  0  0
    6.2679   -0.7926   17.3197 H   0  0  0  0  0  0  0  0  0  0  0  0
    4.5821    2.3729   11.2587 H   0  0  0  0  0  0  0  0  0  0  0  0
    3.8726    3.8163    9.3844 H   0  0  0  0  0  0  0  0  0  0  0  0
    1.9991    4.7150   10.6243 H   0  0  0  0  0  0  0  0  0  0  0  0
    1.3643    5.1154    8.2414 H   0  0  0  0  0  0  0  0  0  0  0  0
    0.5465    2.1696   12.7851 H   0  0  0  0  0  0  0  0  0  0  0  0
  1  2  2  0  0  0  0
  1  8  1  0  0  0  0
  2  3  1  0  0  0  0
  2  7  1  0  0  0  0
  3  4  2  0  0  0  0
  4  5  1  0  0  0  0
  5  6  2  0  0  0  0
  6  7  1  0  0  0  0
  8  9  2  0  0  0  0
  8 16  1  0  0  0  0
  9 10  1  0  0  0  0
 10 11  2  0  0  0  0
 10 17  1  0  0  0  0
 11 12  1  0  0  0  0
 12 13  1  0  0  0  0
 12 16  1  0  0  0  0
 13 14  2  0  0  0  0
 14 15  1  0  0  0  0
 15 16  2  0  0  0  0
 17 18  1  0  0  0  0
 17 25  2  0  0  0  0
 18 19  2  0  0  0  0
 19 20  1  0  0  0  0
 20 21  1  0  0  0  0
 20 24  1  0  0  0  0
 21 22  2  0  0  0  0
 22 23  1  0  0  0  0
 23 24  2  0  0  0  0
 24 25  1  0  0  0  0
  3 26  1  0  0  0  0
  4 27  1  0  0  0  0
  5 28  1  0  0  0  0
  6 29  1  0  0  0  0
  7 30  1  0  0  0  0
  7 31  1  0  0  0  0
 11 32  1  0  0  0  0
 13 33  1  0  0  0  0
 14 34  1  0  0  0  0
 18 35  1  0  0  0  0
 19 36  1  0  0  0  0
 20 37  1  0  0  0  0
 21 38  1  0  0  0  0
 25 39  1  0  0  0  0
M  END
> <IC50[nM]>
26.8

$$$$
CHEMBL3265027
  -OEChem-05192314333D
 Structure written by MMmdl.
 39 43  0     0  0  0  0  0  0999 V2000
    1.6124   -1.3917   15.3063 N   0  0  0  0  0  0  0  0  0  0  0  0
    0.2249   -1.5978   15.0814 C   0  0  0  0  0  0  0  0  0  0  0  0
   -0.5442   -0.8150   14.1982 C   0  0  0  0  0  0  0  0  0  0  0  0
   -1.9142   -1.0738   14.0573 C   0  0  0  0  0  0  0  0  0  0  0  0
   -2.5121   -2.0998   14.7912 C   0  0  0  0  0  0  0  0  0  0  0  0
   -1.7536   -2.8696   15.6610 C   0  0  0  0  0  0  0  0  0  0  0  0
   -0.3955   -2.6216   15.8033 C   0  0  0  0  0  0  0  0  0  0  0  0
    2.5315   -0.4491   14.7651 C   0  0  0  0  0  0  0  0  0  0  0  0
    2.1583    0.3961   13.7551 N   0  0  0  0  0  0  0  0  0  0  0  0
    3.0948    1.2419   13.2245 C   0  0  0  0  0  0  0  0  0  0  0  0
    4.4047    1.2813   13.6954 C   0  0  0  0  0  0  0  0  0  0  0  0
    4.7386    0.4915   14.7531 N   0  0  0  0  0  0  0  0  0  0  0  0
    5.8960    0.3859   15.4809 C   0  0  0  0  0  0  0  0  0  0  0  0
    5.5970   -0.5411   16.5116 C   0  0  0  0  0  0  0  0  0  0  0  0
    4.3870   -1.0586   16.3541 N   0  0  0  0  0  0  0  0  0  0  0  0
    3.8354   -0.3959   15.3220 C   0  0  0  0  0  0  0  0  0  0  0  0
    2.6241    2.1558   12.1223 C   0  0  0  0  0  0  0  0  0  0  0  0
    3.5409    2.6448   11.1668 C   0  0  0  0  0  0  0  0  0  0  0  0
    3.1526    3.4655   10.1090 C   0  0  0  0  0  0  0  0  0  0  0  0
    1.8070    3.8204   10.0137 C   0  0  0  0  0  0  0  0  0  0  0  0
    0.9973    4.6040    9.1190 C   0  0  0  0  0  0  0  0  0  0  0  0
   -0.2435    4.6079    9.5202 N   0  0  0  0  0  0  0  0  0  0  0  0
   -0.3316    3.8816   10.6309 N   0  0  0  0  0  0  0  0  0  0  0  0
    0.8832    3.3484   10.9943 C   0  0  0  0  0  0  0  0  0  0  0  0
    1.2619    2.5173   12.0545 C   0  0  0  0  0  0  0  0  0  0  0  0
   -0.0807   -0.0200   13.6329 H   0  0  0  0  0  0  0  0  0  0  0  0
   -2.5084   -0.4785   13.3798 H   0  0  0  0  0  0  0  0  0  0  0  0
   -3.3091   -1.6366   15.3914 H   0  0  0  0  0  0  0  0  0  0  0  0
   -2.9576   -2.7924   14.0620 H   0  0  0  0  0  0  0  0  0  0  0  0
   -2.2200   -3.6620   16.2275 H   0  0  0  0  0  0  0  0  0  0  0  0
    0.1892   -3.2270   16.4801 H   0  0  0  0  0  0  0  0  0  0  0  0
    5.1390    1.9237   13.2322 H   0  0  0  0  0  0  0  0  0  0  0  0
    6.8313    0.8972   15.3071 H   0  0  0  0  0  0  0  0  0  0  0  0
    6.2679   -0.7926   17.3197 H   0  0  0  0  0  0  0  0  0  0  0  0
    4.2975    3.2102   11.7306 H   0  0  0  0  0  0  0  0  0  0  0  0
    4.0088    1.7597   10.7111 H   0  0  0  0  0  0  0  0  0  0  0  0
    3.8726    3.8163    9.3844 H   0  0  0  0  0  0  0  0  0  0  0  0
    1.3643    5.1154    8.2414 H   0  0  0  0  0  0  0  0  0  0  0  0
    0.5465    2.1696   12.7851 H   0  0  0  0  0  0  0  0  0  0  0  0
  1  2  2  0  0  0  0
  1  8  1  0  0  0  0
  2  3  1  0  0  0  0
  2  7  1  0  0  0  0
  3  4  2  0  0  0  0
  4  5  1  0  0  0  0
  5  6  1  0  0  0  0
  6  7  2  0  0  0  0
  8  9  2  0  0  0  0
  8 16  1  0  0  0  0
  9 10  1  0  0  0  0
 10 11  2  0  0  0  0
 10 17  1  0  0  0  0
 11 12  1  0  0  0  0
 12 13  1  0  0  0  0
 12 16  1  0  0  0  0
 13 14  2  0  0  0  0
 14 15  1  0  0  0  0
 15 16  2  0  0  0  0
 17 18  1  0  0  0  0
 17 25  2  0  0  0  0
 18 19  1  0  0  0  0
 19 20  2  0  0  0  0
 20 21  1  0  0  0  0
 20 24  1  0  0  0  0
 21 22  2  0  0  0  0
 22 23  1  0  0  0  0
 23 24  2  0  0  0  0
 24 25  1  0  0  0  0
  3 26  1  0  0  0  0
  4 27  1  0  0  0  0
  5 28  1  0  0  0  0
  5 29  1  0  0  0  0
  6 30  1  0  0  0  0
  7 31  1  0  0  0  0
 11 32  1  0  0  0  0
 13 33  1  0  0  0  0
 14 34  1  0  0  0  0
 18 35  1  0  0  0  0
 18 36  1  0  0  0  0
 19 37  1  0  0  0  0
 21 38  1  0  0  0  0
 25 39  1  0  0  0  0
M  END
> <IC50[nM]>
26.8

$$$$
CHEMBL3265027
  -OEChem-05192314333D
 Structure written by MMmdl.
 39 43  0     0  0  0  0  0  0999 V2000
    1.6124   -1.3917   15.3063 N   0  0  0  0  0  0  0  0  0  0  0  0
    0.2249   -1.5978   15.0814 C   0  0  0  0  0  0  0  0  0  0  0  0
   -0.5442   -0.8150   14.1982 C   0  0  0  0  0  0  0  0  0  0  0  0
   -1.9142   -1.0738   14.0573 C   0  0  0  0  0  0  0  0  0  0  0  0
   -2.5121   -2.0998   14.7912 C   0  0  0  0  0  0  0  0  0  0  0  0
   -1.7536   -2.8696   15.6610 C   0  0  0  0  0  0  0  0  0  0  0  0
   -0.3955   -2.6216   15.8033 C   0  0  0  0  0  0  0  0  0  0  0  0
    2.5315   -0.4491   14.7651 C   0  0  0  0  0  0  0  0  0  0  0  0
    2.1583    0.3961   13.7551 N   0  0  0  0  0  0  0  0  0  0  0  0
    3.0948    1.2419   13.2245 C   0  0  0  0  0  0  0  0  0  0  0  0
    4.4047    1.2813   13.6954 C   0  0  0  0  0  0  0  0  0  0  0  0
    4.7386    0.4915   14.7531 N   0  0  0  0  0  0  0  0  0  0  0  0
    5.8960    0.3859   15.4809 C   0  0  0  0  0  0  0  0  0  0  0  0
    5.5970   -0.5411   16.5116 C   0  0  0  0  0  0  0  0  0  0  0  0
    4.3870   -1.0586   16.3541 N   0  0  0  0  0  0  0  0  0  0  0  0
    3.8354   -0.3959   15.3220 C   0  0  0  0  0  0  0  0  0  0  0  0
    2.6241    2.1558   12.1223 C   0  0  0  0  0  0  0  0  0  0  0  0
    3.5409    2.6448   11.1668 C   0  0  0  0  0  0  0  0  0  0  0  0
    3.1526    3.4655   10.1090 C   0  0  0  0  0  0  0  0  0  0  0  0
    1.8070    3.8204   10.0137 C   0  0  0  0  0  0  0  0  0  0  0  0
    0.9973    4.6040    9.1190 C   0  0  0  0  0  0  0  0  0  0  0  0
   -0.2435    4.6079    9.5202 N   0  0  0  0  0  0  0  0  0  0  0  0
   -0.3316    3.8816   10.6309 N   0  0  0  0  0  0  0  0  0  0  0  0
    0.8832    3.3484   10.9943 C   0  0  0  0  0  0  0  0  0  0  0  0
    1.2619    2.5173   12.0545 C   0  0  0  0  0  0  0  0  0  0  0  0
   -0.0807   -0.0200   13.6329 H   0  0  0  0  0  0  0  0  0  0  0  0
   -2.5084   -0.4785   13.3798 H   0  0  0  0  0  0  0  0  0  0  0  0
   -3.5686   -2.2949   14.6815 H   0  0  0  0  0  0  0  0  0  0  0  0
   -2.2200   -3.6620   16.2275 H   0  0  0  0  0  0  0  0  0  0  0  0
    0.1234   -3.5536   15.5348 H   0  0  0  0  0  0  0  0  0  0  0  0
   -0.2267   -2.4016   16.8678 H   0  0  0  0  0  0  0  0  0  0  0  0
    5.1390    1.9237   13.2322 H   0  0  0  0  0  0  0  0  0  0  0  0
    6.8313    0.8972   15.3071 H   0  0  0  0  0  0  0  0  0  0  0  0
    6.2679   -0.7926   17.3197 H   0  0  0  0  0  0  0  0  0  0  0  0
    4.2975    3.2102   11.7306 H   0  0  0  0  0  0  0  0  0  0  0  0
    4.0088    1.7597   10.7111 H   0  0  0  0  0  0  0  0  0  0  0  0
    3.8726    3.8163    9.3844 H   0  0  0  0  0  0  0  0  0  0  0  0
    1.3643    5.1154    8.2414 H   0  0  0  0  0  0  0  0  0  0  0  0
    0.5465    2.1696   12.7851 H   0  0  0  0  0  0  0  0  0  0  0  0
  1  2  2  0  0  0  0
  1  8  1  0  0  0  0
  2  3  1  0  0  0  0
  2  7  1  0  0  0  0
  3  4  2  0  0  0  0
  4  5  1  0  0  0  0
  5  6  2  0  0  0  0
  6  7  1  0  0  0  0
  8  9  2  0  0  0  0
  8 16  1  0  0  0  0
  9 10  1  0  0  0  0
 10 11  2  0  0  0  0
 10 17  1  0  0  0  0
 11 12  1  0  0  0  0
 12 13  1  0  0  0  0
 12 16  1  0  0  0  0
 13 14  2  0  0  0  0
 14 15  1  0  0  0  0
 15 16  2  0  0  0  0
 17 18  1  0  0  0  0
 17 25  2  0  0  0  0
 18 19  1  0  0  0  0
 19 20  2  0  0  0  0
 20 21  1  0  0  0  0
 20 24  1  0  0  0  0
 21 22  2  0  0  0  0
 22 23  1  0  0  0  0
 23 24  2  0  0  0  0
 24 25  1  0  0  0  0
  3 26  1  0  0  0  0
  4 27  1  0  0  0  0
  5 28  1  0  0  0  0
  6 29  1  0  0  0  0
  7 30  1  0  0  0  0
  7 31  1  0  0  0  0
 11 32  1  0  0  0  0
 13 33  1  0  0  0  0
 14 34  1  0  0  0  0
 18 35  1  0  0  0  0
 18 36  1  0  0  0  0
 19 37  1  0  0  0  0
 21 38  1  0  0  0  0
 25 39  1  0  0  0  0
M  END
> <IC50[nM]>
26.8

$$$$
CHEMBL3265027
  -OEChem-05192314333D
 Structure written by MMmdl.
 39 43  0     0  0  0  0  0  0999 V2000
    1.6124   -1.3917   15.3063 N   0  0  0  0  0  0  0  0  0  0  0  0
    0.2249   -1.5978   15.0814 C   0  0  0  0  0  0  0  0  0  0  0  0
   -0.5442   -0.8150   14.1982 C   0  0  0  0  0  0  0  0  0  0  0  0
   -1.9142   -1.0738   14.0573 C   0  0  0  0  0  0  0  0  0  0  0  0
   -2.5121   -2.0998   14.7912 C   0  0  0  0  0  0  0  0  0  0  0  0
   -1.7536   -2.8696   15.6610 C   0  0  0  0  0  0  0  0  0  0  0  0
   -0.3955   -2.6216   15.8033 C   0  0  0  0  0  0  0  0  0  0  0  0
    2.5315   -0.4491   14.7651 C   0  0  0  0  0  0  0  0  0  0  0  0
    2.1583    0.3961   13.7551 N   0  0  0  0  0  0  0  0  0  0  0  0
    3.0948    1.2419   13.2245 C   0  0  0  0  0  0  0  0  0  0  0  0
    4.4047    1.2813   13.6954 C   0  0  0  0  0  0  0  0  0  0  0  0
    4.7386    0.4915   14.7531 N   0  0  0  0  0  0  0  0  0  0  0  0
    5.8960    0.3859   15.4809 C   0  0  0  0  0  0  0  0  0  0  0  0
    5.5970   -0.5411   16.5116 C   0  0  0  0  0  0  0  0  0  0  0  0
    4.3870   -1.0586   16.3541 N   0  0  0  0  0  0  0  0  0  0  0  0
    3.8354   -0.3959   15.3220 C   0  0  0  0  0  0  0  0  0  0  0  0
    2.6241    2.1558   12.1223 C   0  0  0  0  0  0  0  0  0  0  0  0
    3.5409    2.6448   11.1668 C   0  0  0  0  0  0  0  0  0  0  0  0
    3.1526    3.4655   10.1090 C   0  0  0  0  0  0  0  0  0  0  0  0
    1.8070    3.8204   10.0137 C   0  0  0  0  0  0  0  0  0  0  0  0
    0.9973    4.6040    9.1190 C   0  0  0  0  0  0  0  0  0  0  0  0
   -0.2435    4.6079    9.5202 N   0  0  0  0  0  0  0  0  0  0  0  0
   -0.3316    3.8816   10.6309 N   0  0  0  0  0  0  0  0  0  0  0  0
    0.8832    3.3484   10.9943 C   0  0  0  0  0  0  0  0  0  0  0  0
    1.2619    2.5173   12.0545 C   0  0  0  0  0  0  0  0  0  0  0  0
   -0.0807   -0.0200   13.6329 H   0  0  0  0  0  0  0  0  0  0  0  0
   -2.5084   -0.4785   13.3798 H   0  0  0  0  0  0  0  0  0  0  0  0
   -3.3091   -1.6366   15.3914 H   0  0  0  0  0  0  0  0  0  0  0  0
   -2.9576   -2.7924   14.0620 H   0  0  0  0  0  0  0  0  0  0  0  0
   -2.2200   -3.6620   16.2275 H   0  0  0  0  0  0  0  0  0  0  0  0
    0.1892   -3.2270   16.4801 H   0  0  0  0  0  0  0  0  0  0  0  0
    5.1390    1.9237   13.2322 H   0  0  0  0  0  0  0  0  0  0  0  0
    6.8313    0.8972   15.3071 H   0  0  0  0  0  0  0  0  0  0  0  0
    6.2679   -0.7926   17.3197 H   0  0  0  0  0  0  0  0  0  0  0  0
    4.5821    2.3729   11.2587 H   0  0  0  0  0  0  0  0  0  0  0  0
    3.8726    3.8163    9.3844 H   0  0  0  0  0  0  0  0  0  0  0  0
    1.3643    5.1154    8.2414 H   0  0  0  0  0  0  0  0  0  0  0  0
    0.6747    1.5903   11.9772 H   0  0  0  0  0  0  0  0  0  0  0  0
    1.0077    3.0353   12.9910 H   0  0  0  0  0  0  0  0  0  0  0  0
  1  2  2  0  0  0  0
  1  8  1  0  0  0  0
  2  3  1  0  0  0  0
  2  7  1  0  0  0  0
  3  4  2  0  0  0  0
  4  5  1  0  0  0  0
  5  6  1  0  0  0  0
  6  7  2  0  0  0  0
  8  9  2  0  0  0  0
  8 16  1  0  0  0  0
  9 10  1  0  0  0  0
 10 11  2  0  0  0  0
 10 17  1  0  0  0  0
 11 12  1  0  0  0  0
 12 13  1  0  0  0  0
 12 16  1  0  0  0  0
 13 14  2  0  0  0  0
 14 15  1  0  0  0  0
 15 16  2  0  0  0  0
 17 18  2  0  0  0  0
 17 25  1  0  0  0  0
 18 19  1  0  0  0  0
 19 20  2  0  0  0  0
 20 21  1  0  0  0  0
 20 24  1  0  0  0  0
 21 22  2  0  0  0  0
 22 23  1  0  0  0  0
 23 24  2  0  0  0  0
 24 25  1  0  0  0  0
  3 26  1  0  0  0  0
  4 27  1  0  0  0  0
  5 28  1  0  0  0  0
  5 29  1  0  0  0  0
  6 30  1  0  0  0  0
  7 31  1  0  0  0  0
 11 32  1  0  0  0  0
 13 33  1  0  0  0  0
 14 34  1  0  0  0  0
 18 35  1  0  0  0  0
 19 36  1  0  0  0  0
 21 37  1  0  0  0  0
 25 38  1  0  0  0  0
 25 39  1  0  0  0  0
M  END
> <IC50[nM]>
26.8

$$$$
CHEMBL3265027
  -OEChem-05192314333D
 Structure written by MMmdl.
 39 43  0     0  0  0  0  0  0999 V2000
    1.6124   -1.3917   15.3063 N   0  0  0  0  0  0  0  0  0  0  0  0
    0.2249   -1.5978   15.0814 C   0  0  0  0  0  0  0  0  0  0  0  0
   -0.5442   -0.8150   14.1982 C   0  0  0  0  0  0  0  0  0  0  0  0
   -1.9142   -1.0738   14.0573 C   0  0  0  0  0  0  0  0  0  0  0  0
   -2.5121   -2.0998   14.7912 C   0  0  0  0  0  0  0  0  0  0  0  0
   -1.7536   -2.8696   15.6610 C   0  0  0  0  0  0  0  0  0  0  0  0
   -0.3955   -2.6216   15.8033 C   0  0  0  0  0  0  0  0  0  0  0  0
    2.5315   -0.4491   14.7651 C   0  0  0  0  0  0  0  0  0  0  0  0
    2.1583    0.3961   13.7551 N   0  0  0  0  0  0  0  0  0  0  0  0
    3.0948    1.2419   13.2245 C   0  0  0  0  0  0  0  0  0  0  0  0
    4.4047    1.2813   13.6954 C   0  0  0  0  0  0  0  0  0  0  0  0
    4.7386    0.4915   14.7531 N   0  0  0  0  0  0  0  0  0  0  0  0
    5.8960    0.3859   15.4809 C   0  0  0  0  0  0  0  0  0  0  0  0
    5.5970   -0.5411   16.5116 C   0  0  0  0  0  0  0  0  0  0  0  0
    4.3870   -1.0586   16.3541 N   0  0  0  0  0  0  0  0  0  0  0  0
    3.8354   -0.3959   15.3220 C   0  0  0  0  0  0  0  0  0  0  0  0
    2.6241    2.1558   12.1223 C   0  0  0  0  0  0  0  0  0  0  0  0
    3.5409    2.6448   11.1668 C   0  0  0  0  0  0  0  0  0  0  0  0
    3.1526    3.4655   10.1090 C   0  0  0  0  0  0  0  0  0  0  0  0
    1.8070    3.8204   10.0137 C   0  0  0  0  0  0  0  0  0  0  0  0
    0.9973    4.6040    9.1190 C   0  0  0  0  0  0  0  0  0  0  0  0
   -0.2435    4.6079    9.5202 N   0  0  0  0  0  0  0  0  0  0  0  0
   -0.3316    3.8816   10.6309 N   0  0  0  0  0  0  0  0  0  0  0  0
    0.8832    3.3484   10.9943 C   0  0  0  0  0  0  0  0  0  0  0  0
    1.2619    2.5173   12.0545 C   0  0  0  0  0  0  0  0  0  0  0  0
   -0.0807   -0.0200   13.6329 H   0  0  0  0  0  0  0  0  0  0  0  0
   -2.5084   -0.4785   13.3798 H   0  0  0  0  0  0  0  0  0  0  0  0
   -3.5686   -2.2949   14.6815 H   0  0  0  0  0  0  0  0  0  0  0  0
   -2.2200   -3.6620   16.2275 H   0  0  0  0  0  0  0  0  0  0  0  0
    0.1234   -3.5536   15.5348 H   0  0  0  0  0  0  0  0  0  0  0  0
   -0.2267   -2.4016   16.8678 H   0  0  0  0  0  0  0  0  0  0  0  0
    5.1390    1.9237   13.2322 H   0  0  0  0  0  0  0  0  0  0  0  0
    6.8313    0.8972   15.3071 H   0  0  0  0  0  0  0  0  0  0  0  0
    6.2679   -0.7926   17.3197 H   0  0  0  0  0  0  0  0  0  0  0  0
    4.5821    2.3729   11.2587 H   0  0  0  0  0  0  0  0  0  0  0  0
    3.8726    3.8163    9.3844 H   0  0  0  0  0  0  0  0  0  0  0  0
    1.3643    5.1154    8.2414 H   0  0  0  0  0  0  0  0  0  0  0  0
    0.6747    1.5903   11.9772 H   0  0  0  0  0  0  0  0  0  0  0  0
    1.0077    3.0353   12.9910 H   0  0  0  0  0  0  0  0  0  0  0  0
  1  2  2  0  0  0  0
  1  8  1  0  0  0  0
  2  3  1  0  0  0  0
  2  7  1  0  0  0  0
  3  4  2  0  0  0  0
  4  5  1  0  0  0  0
  5  6  2  0  0  0  0
  6  7  1  0  0  0  0
  8  9  2  0  0  0  0
  8 16  1  0  0  0  0
  9 10  1  0  0  0  0
 10 11  2  0  0  0  0
 10 17  1  0  0  0  0
 11 12  1  0  0  0  0
 12 13  1  0  0  0  0
 12 16  1  0  0  0  0
 13 14  2  0  0  0  0
 14 15  1  0  0  0  0
 15 16  2  0  0  0  0
 17 18  2  0  0  0  0
 17 25  1  0  0  0  0
 18 19  1  0  0  0  0
 19 20  2  0  0  0  0
 20 21  1  0  0  0  0
 20 24  1  0  0  0  0
 21 22  2  0  0  0  0
 22 23  1  0  0  0  0
 23 24  2  0  0  0  0
 24 25  1  0  0  0  0
  3 26  1  0  0  0  0
  4 27  1  0  0  0  0
  5 28  1  0  0  0  0
  6 29  1  0  0  0  0
  7 30  1  0  0  0  0
  7 31  1  0  0  0  0
 11 32  1  0  0  0  0
 13 33  1  0  0  0  0
 14 34  1  0  0  0  0
 18 35  1  0  0  0  0
 19 36  1  0  0  0  0
 21 37  1  0  0  0  0
 25 38  1  0  0  0  0
 25 39  1  0  0  0  0
M  END
> <IC50[nM]>
26.8

$$$$
CHEMBL3265027
  -OEChem-05192314333D
 Structure written by MMmdl.
 39 43  0     1  0  0  0  0  0999 V2000
    1.6124   -1.3917   15.3063 N   0  0  0  0  0  0  0  0  0  0  0  0
    0.2249   -1.5978   15.0814 C   0  0  0  0  0  0  0  0  0  0  0  0
   -0.5442   -0.8150   14.1982 C   0  0  0  0  0  0  0  0  0  0  0  0
   -1.9142   -1.0738   14.0573 C   0  0  0  0  0  0  0  0  0  0  0  0
   -2.5121   -2.0998   14.7912 C   0  0  0  0  0  0  0  0  0  0  0  0
   -1.7536   -2.8696   15.6610 C   0  0  0  0  0  0  0  0  0  0  0  0
   -0.3955   -2.6216   15.8033 C   0  0  0  0  0  0  0  0  0  0  0  0
    2.5315   -0.4491   14.7651 C   0  0  0  0  0  0  0  0  0  0  0  0
    2.1583    0.3961   13.7551 N   0  0  0  0  0  0  0  0  0  0  0  0
    3.0948    1.2419   13.2245 C   0  0  0  0  0  0  0  0  0  0  0  0
    4.4047    1.2813   13.6954 C   0  0  0  0  0  0  0  0  0  0  0  0
    4.7386    0.4915   14.7531 N   0  0  0  0  0  0  0  0  0  0  0  0
    5.8960    0.3859   15.4809 C   0  0  0  0  0  0  0  0  0  0  0  0
    5.5970   -0.5411   16.5116 C   0  0  0  0  0  0  0  0  0  0  0  0
    4.3870   -1.0586   16.3541 N   0  0  0  0  0  0  0  0  0  0  0  0
    3.8354   -0.3959   15.3220 C   0  0  0  0  0  0  0  0  0  0  0  0
    2.6241    2.1558   12.1223 C   0  0  3  0  0  0  0  0  0  0  0  0
    3.5409    2.6448   11.1668 C   0  0  0  0  0  0  0  0  0  0  0  0
    3.1526    3.4655   10.1090 C   0  0  0  0  0  0  0  0  0  0  0  0
    1.8070    3.8204   10.0137 C   0  0  0  0  0  0  0  0  0  0  0  0
    0.9973    4.6040    9.1190 C   0  0  0  0  0  0  0  0  0  0  0  0
   -0.2435    4.6079    9.5202 N   0  0  0  0  0  0  0  0  0  0  0  0
   -0.3316    3.8816   10.6309 N   0  0  0  0  0  0  0  0  0  0  0  0
    0.8832    3.3484   10.9943 C   0  0  0  0  0  0  0  0  0  0  0  0
    1.2619    2.5173   12.0545 C   0  0  0  0  0  0  0  0  0  0  0  0
   -0.0807   -0.0200   13.6329 H   0  0  0  0  0  0  0  0  0  0  0  0
   -2.5084   -0.4785   13.3798 H   0  0  0  0  0  0  0  0  0  0  0  0
   -3.3091   -1.6366   15.3914 H   0  0  0  0  0  0  0  0  0  0  0  0
   -2.9576   -2.7924   14.0620 H   0  0  0  0  0  0  0  0  0  0  0  0
   -2.2200   -3.6620   16.2275 H   0  0  0  0  0  0  0  0  0  0  0  0
    0.1892   -3.2270   16.4801 H   0  0  0  0  0  0  0  0  0  0  0  0
    5.1390    1.9237   13.2322 H   0  0  0  0  0  0  0  0  0  0  0  0
    6.8313    0.8972   15.3071 H   0  0  0  0  0  0  0  0  0  0  0  0
    6.2679   -0.7926   17.3197 H   0  0  0  0  0  0  0  0  0  0  0  0
    2.4242    1.2827   11.4837 H   0  0  0  0  0  0  0  0  0  0  0  0
    4.5821    2.3729   11.2587 H   0  0  0  0  0  0  0  0  0  0  0  0
    3.8726    3.8163    9.3844 H   0  0  0  0  0  0  0  0  0  0  0  0
    1.3643    5.1154    8.2414 H   0  0  0  0  0  0  0  0  0  0  0  0
    0.5465    2.1696   12.7851 H   0  0  0  0  0  0  0  0  0  0  0  0
  1  2  2  0  0  0  0
  1  8  1  0  0  0  0
  2  3  1  0  0  0  0
  2  7  1  0  0  0  0
  3  4  2  0  0  0  0
  4  5  1  0  0  0  0
  5  6  1  0  0  0  0
  6  7  2  0  0  0  0
  8  9  2  0  0  0  0
  8 16  1  0  0  0  0
  9 10  1  0  0  0  0
 10 11  2  0  0  0  0
 10 17  1  0  0  0  0
 11 12  1  0  0  0  0
 12 13  1  0  0  0  0
 12 16  1  0  0  0  0
 13 14  2  0  0  0  0
 14 15  1  0  0  0  0
 15 16  2  0  0  0  0
 17 18  1  0  0  0  0
 17 25  1  0  0  0  0
 18 19  2  0  0  0  0
 19 20  1  0  0  0  0
 20 21  2  0  0  0  0
 20 24  1  0  0  0  0
 21 22  1  0  0  0  0
 22 23  2  0  0  0  0
 23 24  1  0  0  0  0
 24 25  2  0  0  0  0
  3 26  1  0  0  0  0
  4 27  1  0  0  0  0
  5 28  1  0  0  0  0
  5 29  1  0  0  0  0
  6 30  1  0  0  0  0
  7 31  1  0  0  0  0
 11 32  1  0  0  0  0
 13 33  1  0  0  0  0
 14 34  1  0  0  0  0
 17 35  1  0  0  0  0
 18 36  1  0  0  0  0
 19 37  1  0  0  0  0
 21 38  1  0  0  0  0
 25 39  1  0  0  0  0
M  END
> <IC50[nM]>
26.8

$$$$
CHEMBL3265027
  -OEChem-05192314333D
 Structure written by MMmdl.
 39 43  0     1  0  0  0  0  0999 V2000
    1.6124   -1.3917   15.3063 N   0  0  0  0  0  0  0  0  0  0  0  0
    0.2249   -1.5978   15.0814 C   0  0  0  0  0  0  0  0  0  0  0  0
   -0.5442   -0.8150   14.1982 C   0  0  0  0  0  0  0  0  0  0  0  0
   -1.9142   -1.0738   14.0573 C   0  0  0  0  0  0  0  0  0  0  0  0
   -2.5121   -2.0998   14.7912 C   0  0  0  0  0  0  0  0  0  0  0  0
   -1.7536   -2.8696   15.6610 C   0  0  0  0  0  0  0  0  0  0  0  0
   -0.3955   -2.6216   15.8033 C   0  0  0  0  0  0  0  0  0  0  0  0
    2.5315   -0.4491   14.7651 C   0  0  0  0  0  0  0  0  0  0  0  0
    2.1583    0.3961   13.7551 N   0  0  0  0  0  0  0  0  0  0  0  0
    3.0948    1.2419   13.2245 C   0  0  0  0  0  0  0  0  0  0  0  0
    4.4047    1.2813   13.6954 C   0  0  0  0  0  0  0  0  0  0  0  0
    4.7386    0.4915   14.7531 N   0  0  0  0  0  0  0  0  0  0  0  0
    5.8960    0.3859   15.4809 C   0  0  0  0  0  0  0  0  0  0  0  0
    5.5970   -0.5411   16.5116 C   0  0  0  0  0  0  0  0  0  0  0  0
    4.3870   -1.0586   16.3541 N   0  0  0  0  0  0  0  0  0  0  0  0
    3.8354   -0.3959   15.3220 C   0  0  0  0  0  0  0  0  0  0  0  0
    2.6241    2.1558   12.1223 C   0  0  0  0  0  0  0  0  0  0  0  0
    3.5409    2.6448   11.1668 C   0  0  0  0  0  0  0  0  0  0  0  0
    3.1526    3.4655   10.1090 C   0  0  0  0  0  0  0  0  0  0  0  0
    1.8070    3.8204   10.0137 C   0  0  0  0  0  0  0  0  0  0  0  0
    0.9973    4.6040    9.1190 C   0  0  0  0  0  0  0  0  0  0  0  0
   -0.2435    4.6079    9.5202 N   0  0  0  0  0  0  0  0  0  0  0  0
   -0.3316    3.8816   10.6309 N   0  0  0  0  0  0  0  0  0  0  0  0
    0.8832    3.3484   10.9943 C   0  0  3  0  0  0  0  0  0  0  0  0
    1.2619    2.5173   12.0545 C   0  0  0  0  0  0  0  0  0  0  0  0
   -0.0807   -0.0200   13.6329 H   0  0  0  0  0  0  0  0  0  0  0  0
   -2.5084   -0.4785   13.3798 H   0  0  0  0  0  0  0  0  0  0  0  0
   -3.3091   -1.6366   15.3914 H   0  0  0  0  0  0  0  0  0  0  0  0
   -2.9576   -2.7924   14.0620 H   0  0  0  0  0  0  0  0  0  0  0  0
   -2.2200   -3.6620   16.2275 H   0  0  0  0  0  0  0  0  0  0  0  0
    0.1892   -3.2270   16.4801 H   0  0  0  0  0  0  0  0  0  0  0  0
    5.1390    1.9237   13.2322 H   0  0  0  0  0  0  0  0  0  0  0  0
    6.8313    0.8972   15.3071 H   0  0  0  0  0  0  0  0  0  0  0  0
    6.2679   -0.7926   17.3197 H   0  0  0  0  0  0  0  0  0  0  0  0
    4.5821    2.3729   11.2587 H   0  0  0  0  0  0  0  0  0  0  0  0
    3.8726    3.8163    9.3844 H   0  0  0  0  0  0  0  0  0  0  0  0
    1.3643    5.1154    8.2414 H   0  0  0  0  0  0  0  0  0  0  0  0
    1.0874    4.2338   11.6142 H   0  0  0  0  0  0  0  0  0  0  0  0
    0.5465    2.1696   12.7851 H   0  0  0  0  0  0  0  0  0  0  0  0
  1  2  2  0  0  0  0
  1  8  1  0  0  0  0
  2  3  1  0  0  0  0
  2  7  1  0  0  0  0
  3  4  2  0  0  0  0
  4  5  1  0  0  0  0
  5  6  1  0  0  0  0
  6  7  2  0  0  0  0
  8  9  2  0  0  0  0
  8 16  1  0  0  0  0
  9 10  1  0  0  0  0
 10 11  2  0  0  0  0
 10 17  1  0  0  0  0
 11 12  1  0  0  0  0
 12 13  1  0  0  0  0
 12 16  1  0  0  0  0
 13 14  2  0  0  0  0
 14 15  1  0  0  0  0
 15 16  2  0  0  0  0
 17 18  1  0  0  0  0
 17 25  2  0  0  0  0
 18 19  2  0  0  0  0
 19 20  1  0  0  0  0
 20 21  2  0  0  0  0
 20 24  1  0  0  0  0
 21 22  1  0  0  0  0
 22 23  2  0  0  0  0
 23 24  1  0  0  0  0
 24 25  1  0  0  0  0
  3 26  1  0  0  0  0
  4 27  1  0  0  0  0
  5 28  1  0  0  0  0
  5 29  1  0  0  0  0
  6 30  1  0  0  0  0
  7 31  1  0  0  0  0
 11 32  1  0  0  0  0
 13 33  1  0  0  0  0
 14 34  1  0  0  0  0
 18 35  1  0  0  0  0
 19 36  1  0  0  0  0
 21 37  1  0  0  0  0
 24 38  1  0  0  0  0
 25 39  1  0  0  0  0
M  END
> <IC50[nM]>
26.8

$$$$
CHEMBL3265027
  -OEChem-05192314333D
 Structure written by MMmdl.
 39 43  0     1  0  0  0  0  0999 V2000
    1.6124   -1.3917   15.3063 N   0  0  0  0  0  0  0  0  0  0  0  0
    0.2249   -1.5978   15.0814 C   0  0  0  0  0  0  0  0  0  0  0  0
   -0.5442   -0.8150   14.1982 C   0  0  0  0  0  0  0  0  0  0  0  0
   -1.9142   -1.0738   14.0573 C   0  0  0  0  0  0  0  0  0  0  0  0
   -2.5121   -2.0998   14.7912 C   0  0  0  0  0  0  0  0  0  0  0  0
   -1.7536   -2.8696   15.6610 C   0  0  0  0  0  0  0  0  0  0  0  0
   -0.3955   -2.6216   15.8033 C   0  0  0  0  0  0  0  0  0  0  0  0
    2.5315   -0.4491   14.7651 C   0  0  0  0  0  0  0  0  0  0  0  0
    2.1583    0.3961   13.7551 N   0  0  0  0  0  0  0  0  0  0  0  0
    3.0948    1.2419   13.2245 C   0  0  0  0  0  0  0  0  0  0  0  0
    4.4047    1.2813   13.6954 C   0  0  0  0  0  0  0  0  0  0  0  0
    4.7386    0.4915   14.7531 N   0  0  0  0  0  0  0  0  0  0  0  0
    5.8960    0.3859   15.4809 C   0  0  0  0  0  0  0  0  0  0  0  0
    5.5970   -0.5411   16.5116 C   0  0  0  0  0  0  0  0  0  0  0  0
    4.3870   -1.0586   16.3541 N   0  0  0  0  0  0  0  0  0  0  0  0
    3.8354   -0.3959   15.3220 C   0  0  0  0  0  0  0  0  0  0  0  0
    2.6241    2.1558   12.1223 C   0  0  3  0  0  0  0  0  0  0  0  0
    3.5409    2.6448   11.1668 C   0  0  0  0  0  0  0  0  0  0  0  0
    3.1526    3.4655   10.1090 C   0  0  0  0  0  0  0  0  0  0  0  0
    1.8070    3.8204   10.0137 C   0  0  0  0  0  0  0  0  0  0  0  0
    0.9973    4.6040    9.1190 C   0  0  0  0  0  0  0  0  0  0  0  0
   -0.2435    4.6079    9.5202 N   0  0  0  0  0  0  0  0  0  0  0  0
   -0.3316    3.8816   10.6309 N   0  0  0  0  0  0  0  0  0  0  0  0
    0.8832    3.3484   10.9943 C   0  0  0  0  0  0  0  0  0  0  0  0
    1.2619    2.5173   12.0545 C   0  0  0  0  0  0  0  0  0  0  0  0
   -0.0807   -0.0200   13.6329 H   0  0  0  0  0  0  0  0  0  0  0  0
   -2.5084   -0.4785   13.3798 H   0  0  0  0  0  0  0  0  0  0  0  0
   -3.5686   -2.2949   14.6815 H   0  0  0  0  0  0  0  0  0  0  0  0
   -2.2200   -3.6620   16.2275 H   0  0  0  0  0  0  0  0  0  0  0  0
    0.1234   -3.5536   15.5348 H   0  0  0  0  0  0  0  0  0  0  0  0
   -0.2267   -2.4016   16.8678 H   0  0  0  0  0  0  0  0  0  0  0  0
    5.1390    1.9237   13.2322 H   0  0  0  0  0  0  0  0  0  0  0  0
    6.8313    0.8972   15.3071 H   0  0  0  0  0  0  0  0  0  0  0  0
    6.2679   -0.7926   17.3197 H   0  0  0  0  0  0  0  0  0  0  0  0
    2.4242    1.2827   11.4837 H   0  0  0  0  0  0  0  0  0  0  0  0
    4.5821    2.3729   11.2587 H   0  0  0  0  0  0  0  0  0  0  0  0
    3.8726    3.8163    9.3844 H   0  0  0  0  0  0  0  0  0  0  0  0
    1.3643    5.1154    8.2414 H   0  0  0  0  0  0  0  0  0  0  0  0
    0.5465    2.1696   12.7851 H   0  0  0  0  0  0  0  0  0  0  0  0
  1  2  2  0  0  0  0
  1  8  1  0  0  0  0
  2  3  1  0  0  0  0
  2  7  1  0  0  0  0
  3  4  2  0  0  0  0
  4  5  1  0  0  0  0
  5  6  2  0  0  0  0
  6  7  1  0  0  0  0
  8  9  2  0  0  0  0
  8 16  1  0  0  0  0
  9 10  1  0  0  0  0
 10 11  2  0  0  0  0
 10 17  1  0  0  0  0
 11 12  1  0  0  0  0
 12 13  1  0  0  0  0
 12 16  1  0  0  0  0
 13 14  2  0  0  0  0
 14 15  1  0  0  0  0
 15 16  2  0  0  0  0
 17 18  1  0  0  0  0
 17 25  1  0  0  0  0
 18 19  2  0  0  0  0
 19 20  1  0  0  0  0
 20 21  2  0  0  0  0
 20 24  1  0  0  0  0
 21 22  1  0  0  0  0
 22 23  2  0  0  0  0
 23 24  1  0  0  0  0
 24 25  2  0  0  0  0
  3 26  1  0  0  0  0
  4 27  1  0  0  0  0
  5 28  1  0  0  0  0
  6 29  1  0  0  0  0
  7 30  1  0  0  0  0
  7 31  1  0  0  0  0
 11 32  1  0  0  0  0
 13 33  1  0  0  0  0
 14 34  1  0  0  0  0
 17 35  1  0  0  0  0
 18 36  1  0  0  0  0
 19 37  1  0  0  0  0
 21 38  1  0  0  0  0
 25 39  1  0  0  0  0
M  END
> <IC50[nM]>
26.8

$$$$
CHEMBL3265027
  -OEChem-05192314333D
 Structure written by MMmdl.
 39 43  0     1  0  0  0  0  0999 V2000
    1.6124   -1.3917   15.3063 N   0  0  0  0  0  0  0  0  0  0  0  0
    0.2249   -1.5978   15.0814 C   0  0  0  0  0  0  0  0  0  0  0  0
   -0.5442   -0.8150   14.1982 C   0  0  0  0  0  0  0  0  0  0  0  0
   -1.9142   -1.0738   14.0573 C   0  0  0  0  0  0  0  0  0  0  0  0
   -2.5121   -2.0998   14.7912 C   0  0  0  0  0  0  0  0  0  0  0  0
   -1.7536   -2.8696   15.6610 C   0  0  0  0  0  0  0  0  0  0  0  0
   -0.3955   -2.6216   15.8033 C   0  0  0  0  0  0  0  0  0  0  0  0
    2.5315   -0.4491   14.7651 C   0  0  0  0  0  0  0  0  0  0  0  0
    2.1583    0.3961   13.7551 N   0  0  0  0  0  0  0  0  0  0  0  0
    3.0948    1.2419   13.2245 C   0  0  0  0  0  0  0  0  0  0  0  0
    4.4047    1.2813   13.6954 C   0  0  0  0  0  0  0  0  0  0  0  0
    4.7386    0.4915   14.7531 N   0  0  0  0  0  0  0  0  0  0  0  0
    5.8960    0.3859   15.4809 C   0  0  0  0  0  0  0  0  0  0  0  0
    5.5970   -0.5411   16.5116 C   0  0  0  0  0  0  0  0  0  0  0  0
    4.3870   -1.0586   16.3541 N   0  0  0  0  0  0  0  0  0  0  0  0
    3.8354   -0.3959   15.3220 C   0  0  0  0  0  0  0  0  0  0  0  0
    2.6241    2.1558   12.1223 C   0  0  0  0  0  0  0  0  0  0  0  0
    3.5409    2.6448   11.1668 C   0  0  0  0  0  0  0  0  0  0  0  0
    3.1526    3.4655   10.1090 C   0  0  0  0  0  0  0  0  0  0  0  0
    1.8070    3.8204   10.0137 C   0  0  0  0  0  0  0  0  0  0  0  0
    0.9973    4.6040    9.1190 C   0  0  0  0  0  0  0  0  0  0  0  0
   -0.2435    4.6079    9.5202 N   0  0  0  0  0  0  0  0  0  0  0  0
   -0.3316    3.8816   10.6309 N   0  0  0  0  0  0  0  0  0  0  0  0
    0.8832    3.3484   10.9943 C   0  0  3  0  0  0  0  0  0  0  0  0
    1.2619    2.5173   12.0545 C   0  0  0  0  0  0  0  0  0  0  0  0
   -0.0807   -0.0200   13.6329 H   0  0  0  0  0  0  0  0  0  0  0  0
   -2.5084   -0.4785   13.3798 H   0  0  0  0  0  0  0  0  0  0  0  0
   -3.5686   -2.2949   14.6815 H   0  0  0  0  0  0  0  0  0  0  0  0
   -2.2200   -3.6620   16.2275 H   0  0  0  0  0  0  0  0  0  0  0  0
    0.1234   -3.5536   15.5348 H   0  0  0  0  0  0  0  0  0  0  0  0
   -0.2267   -2.4016   16.8678 H   0  0  0  0  0  0  0  0  0  0  0  0
    5.1390    1.9237   13.2322 H   0  0  0  0  0  0  0  0  0  0  0  0
    6.8313    0.8972   15.3071 H   0  0  0  0  0  0  0  0  0  0  0  0
    6.2679   -0.7926   17.3197 H   0  0  0  0  0  0  0  0  0  0  0  0
    4.5821    2.3729   11.2587 H   0  0  0  0  0  0  0  0  0  0  0  0
    3.8726    3.8163    9.3844 H   0  0  0  0  0  0  0  0  0  0  0  0
    1.3643    5.1154    8.2414 H   0  0  0  0  0  0  0  0  0  0  0  0
    1.0874    4.2338   11.6142 H   0  0  0  0  0  0  0  0  0  0  0  0
    0.5465    2.1696   12.7851 H   0  0  0  0  0  0  0  0  0  0  0  0
  1  2  2  0  0  0  0
  1  8  1  0  0  0  0
  2  3  1  0  0  0  0
  2  7  1  0  0  0  0
  3  4  2  0  0  0  0
  4  5  1  0  0  0  0
  5  6  2  0  0  0  0
  6  7  1  0  0  0  0
  8  9  2  0  0  0  0
  8 16  1  0  0  0  0
  9 10  1  0  0  0  0
 10 11  2  0  0  0  0
 10 17  1  0  0  0  0
 11 12  1  0  0  0  0
 12 13  1  0  0  0  0
 12 16  1  0  0  0  0
 13 14  2  0  0  0  0
 14 15  1  0  0  0  0
 15 16  2  0  0  0  0
 17 18  1  0  0  0  0
 17 25  2  0  0  0  0
 18 19  2  0  0  0  0
 19 20  1  0  0  0  0
 20 21  2  0  0  0  0
 20 24  1  0  0  0  0
 21 22  1  0  0  0  0
 22 23  2  0  0  0  0
 23 24  1  0  0  0  0
 24 25  1  0  0  0  0
  3 26  1  0  0  0  0
  4 27  1  0  0  0  0
  5 28  1  0  0  0  0
  6 29  1  0  0  0  0
  7 30  1  0  0  0  0
  7 31  1  0  0  0  0
 11 32  1  0  0  0  0
 13 33  1  0  0  0  0
 14 34  1  0  0  0  0
 18 35  1  0  0  0  0
 19 36  1  0  0  0  0
 21 37  1  0  0  0  0
 24 38  1  0  0  0  0
 25 39  1  0  0  0  0
M  END
> <IC50[nM]>
26.8

$$$$
CHEMBL3265027
  -OEChem-05192314333D
 Structure written by MMmdl.
 39 43  0     0  0  0  0  0  0999 V2000
    1.6124   -1.3917   15.3063 N   0  0  0  0  0  0  0  0  0  0  0  0
    0.2249   -1.5978   15.0814 C   0  0  0  0  0  0  0  0  0  0  0  0
   -0.5442   -0.8150   14.1982 C   0  0  0  0  0  0  0  0  0  0  0  0
   -1.9142   -1.0738   14.0573 C   0  0  0  0  0  0  0  0  0  0  0  0
   -2.5121   -2.0998   14.7912 C   0  0  0  0  0  0  0  0  0  0  0  0
   -1.7536   -2.8696   15.6610 C   0  0  0  0  0  0  0  0  0  0  0  0
   -0.3955   -2.6216   15.8033 C   0  0  0  0  0  0  0  0  0  0  0  0
    2.5315   -0.4491   14.7651 C   0  0  0  0  0  0  0  0  0  0  0  0
    2.1583    0.3961   13.7551 N   0  0  0  0  0  0  0  0  0  0  0  0
    3.0948    1.2419   13.2245 C   0  0  0  0  0  0  0  0  0  0  0  0
    4.4047    1.2813   13.6954 C   0  0  0  0  0  0  0  0  0  0  0  0
    4.7386    0.4915   14.7531 N   0  0  0  0  0  0  0  0  0  0  0  0
    5.8960    0.3859   15.4809 C   0  0  0  0  0  0  0  0  0  0  0  0
    5.5970   -0.5411   16.5116 C   0  0  0  0  0  0  0  0  0  0  0  0
    4.3870   -1.0586   16.3541 N   0  0  0  0  0  0  0  0  0  0  0  0
    3.8354   -0.3959   15.3220 C   0  0  0  0  0  0  0  0  0  0  0  0
    2.6241    2.1558   12.1223 C   0  0  0  0  0  0  0  0  0  0  0  0
    3.5409    2.6448   11.1668 C   0  0  0  0  0  0  0  0  0  0  0  0
    3.1526    3.4655   10.1090 C   0  0  0  0  0  0  0  0  0  0  0  0
    1.8070    3.8204   10.0137 C   0  0  0  0  0  0  0  0  0  0  0  0
    0.9973    4.6040    9.1190 C   0  0  0  0  0  0  0  0  0  0  0  0
   -0.2435    4.6079    9.5202 N   0  0  0  0  0  0  0  0  0  0  0  0
   -0.3316    3.8816   10.6309 N   0  0  0  0  0  0  0  0  0  0  0  0
    0.8832    3.3484   10.9943 C   0  0  0  0  0  0  0  0  0  0  0  0
    1.2619    2.5173   12.0545 C   0  0  0  0  0  0  0  0  0  0  0  0
   -0.0807   -0.0200   13.6329 H   0  0  0  0  0  0  0  0  0  0  0  0
   -2.5084   -0.4785   13.3798 H   0  0  0  0  0  0  0  0  0  0  0  0
   -3.3091   -1.6366   15.3914 H   0  0  0  0  0  0  0  0  0  0  0  0
   -2.9576   -2.7924   14.0620 H   0  0  0  0  0  0  0  0  0  0  0  0
   -2.2200   -3.6620   16.2275 H   0  0  0  0  0  0  0  0  0  0  0  0
    0.1892   -3.2270   16.4801 H   0  0  0  0  0  0  0  0  0  0  0  0
    5.1390    1.9237   13.2322 H   0  0  0  0  0  0  0  0  0  0  0  0
    6.8313    0.8972   15.3071 H   0  0  0  0  0  0  0  0  0  0  0  0
    6.2679   -0.7926   17.3197 H   0  0  0  0  0  0  0  0  0  0  0  0
    4.5821    2.3729   11.2587 H   0  0  0  0  0  0  0  0  0  0  0  0
    3.7315    4.3974   10.1888 H   0  0  0  0  0  0  0  0  0  0  0  0
    3.4204    2.9461    9.1770 H   0  0  0  0  0  0  0  0  0  0  0  0
    1.3643    5.1154    8.2414 H   0  0  0  0  0  0  0  0  0  0  0  0
    0.5465    2.1696   12.7851 H   0  0  0  0  0  0  0  0  0  0  0  0
  1  2  2  0  0  0  0
  1  8  1  0  0  0  0
  2  3  1  0  0  0  0
  2  7  1  0  0  0  0
  3  4  2  0  0  0  0
  4  5  1  0  0  0  0
  5  6  1  0  0  0  0
  6  7  2  0  0  0  0
  8  9  2  0  0  0  0
  8 16  1  0  0  0  0
  9 10  1  0  0  0  0
 10 11  2  0  0  0  0
 10 17  1  0  0  0  0
 11 12  1  0  0  0  0
 12 13  1  0  0  0  0
 12 16  1  0  0  0  0
 13 14  2  0  0  0  0
 14 15  1  0  0  0  0
 15 16  2  0  0  0  0
 17 18  2  0  0  0  0
 17 25  1  0  0  0  0
 18 19  1  0  0  0  0
 19 20  1  0  0  0  0
 20 21  2  0  0  0  0
 20 24  1  0  0  0  0
 21 22  1  0  0  0  0
 22 23  2  0  0  0  0
 23 24  1  0  0  0  0
 24 25  2  0  0  0  0
  3 26  1  0  0  0  0
  4 27  1  0  0  0  0
  5 28  1  0  0  0  0
  5 29  1  0  0  0  0
  6 30  1  0  0  0  0
  7 31  1  0  0  0  0
 11 32  1  0  0  0  0
 13 33  1  0  0  0  0
 14 34  1  0  0  0  0
 18 35  1  0  0  0  0
 19 36  1  0  0  0  0
 19 37  1  0  0  0  0
 21 38  1  0  0  0  0
 25 39  1  0  0  0  0
M  END
> <IC50[nM]>
26.8

$$$$
CHEMBL3265027
  -OEChem-05192314333D
 Structure written by MMmdl.
 39 43  0     0  0  0  0  0  0999 V2000
    1.6124   -1.3917   15.3063 N   0  0  0  0  0  0  0  0  0  0  0  0
    0.2249   -1.5978   15.0814 C   0  0  0  0  0  0  0  0  0  0  0  0
   -0.5442   -0.8150   14.1982 C   0  0  0  0  0  0  0  0  0  0  0  0
   -1.9142   -1.0738   14.0573 C   0  0  0  0  0  0  0  0  0  0  0  0
   -2.5121   -2.0998   14.7912 C   0  0  0  0  0  0  0  0  0  0  0  0
   -1.7536   -2.8696   15.6610 C   0  0  0  0  0  0  0  0  0  0  0  0
   -0.3955   -2.6216   15.8033 C   0  0  0  0  0  0  0  0  0  0  0  0
    2.5315   -0.4491   14.7651 C   0  0  0  0  0  0  0  0  0  0  0  0
    2.1583    0.3961   13.7551 N   0  0  0  0  0  0  0  0  0  0  0  0
    3.0948    1.2419   13.2245 C   0  0  0  0  0  0  0  0  0  0  0  0
    4.4047    1.2813   13.6954 C   0  0  0  0  0  0  0  0  0  0  0  0
    4.7386    0.4915   14.7531 N   0  0  0  0  0  0  0  0  0  0  0  0
    5.8960    0.3859   15.4809 C   0  0  0  0  0  0  0  0  0  0  0  0
    5.5970   -0.5411   16.5116 C   0  0  0  0  0  0  0  0  0  0  0  0
    4.3870   -1.0586   16.3541 N   0  0  0  0  0  0  0  0  0  0  0  0
    3.8354   -0.3959   15.3220 C   0  0  0  0  0  0  0  0  0  0  0  0
    2.6241    2.1558   12.1223 C   0  0  0  0  0  0  0  0  0  0  0  0
    3.5409    2.6448   11.1668 C   0  0  0  0  0  0  0  0  0  0  0  0
    3.1526    3.4655   10.1090 C   0  0  0  0  0  0  0  0  0  0  0  0
    1.8070    3.8204   10.0137 C   0  0  0  0  0  0  0  0  0  0  0  0
    0.9973    4.6040    9.1190 C   0  0  0  0  0  0  0  0  0  0  0  0
   -0.2435    4.6079    9.5202 N   0  0  0  0  0  0  0  0  0  0  0  0
   -0.3316    3.8816   10.6309 N   0  0  0  0  0  0  0  0  0  0  0  0
    0.8832    3.3484   10.9943 C   0  0  0  0  0  0  0  0  0  0  0  0
    1.2619    2.5173   12.0545 C   0  0  0  0  0  0  0  0  0  0  0  0
   -0.0807   -0.0200   13.6329 H   0  0  0  0  0  0  0  0  0  0  0  0
   -2.5084   -0.4785   13.3798 H   0  0  0  0  0  0  0  0  0  0  0  0
   -3.5686   -2.2949   14.6815 H   0  0  0  0  0  0  0  0  0  0  0  0
   -2.2200   -3.6620   16.2275 H   0  0  0  0  0  0  0  0  0  0  0  0
    0.1234   -3.5536   15.5348 H   0  0  0  0  0  0  0  0  0  0  0  0
   -0.2267   -2.4016   16.8678 H   0  0  0  0  0  0  0  0  0  0  0  0
    5.1390    1.9237   13.2322 H   0  0  0  0  0  0  0  0  0  0  0  0
    6.8313    0.8972   15.3071 H   0  0  0  0  0  0  0  0  0  0  0  0
    6.2679   -0.7926   17.3197 H   0  0  0  0  0  0  0  0  0  0  0  0
    4.5821    2.3729   11.2587 H   0  0  0  0  0  0  0  0  0  0  0  0
    3.7315    4.3974   10.1888 H   0  0  0  0  0  0  0  0  0  0  0  0
    3.4204    2.9461    9.1770 H   0  0  0  0  0  0  0  0  0  0  0  0
    1.3643    5.1154    8.2414 H   0  0  0  0  0  0  0  0  0  0  0  0
    0.5465    2.1696   12.7851 H   0  0  0  0  0  0  0  0  0  0  0  0
  1  2  2  0  0  0  0
  1  8  1  0  0  0  0
  2  3  1  0  0  0  0
  2  7  1  0  0  0  0
  3  4  2  0  0  0  0
  4  5  1  0  0  0  0
  5  6  2  0  0  0  0
  6  7  1  0  0  0  0
  8  9  2  0  0  0  0
  8 16  1  0  0  0  0
  9 10  1  0  0  0  0
 10 11  2  0  0  0  0
 10 17  1  0  0  0  0
 11 12  1  0  0  0  0
 12 13  1  0  0  0  0
 12 16  1  0  0  0  0
 13 14  2  0  0  0  0
 14 15  1  0  0  0  0
 15 16  2  0  0  0  0
 17 18  2  0  0  0  0
 17 25  1  0  0  0  0
 18 19  1  0  0  0  0
 19 20  1  0  0  0  0
 20 21  2  0  0  0  0
 20 24  1  0  0  0  0
 21 22  1  0  0  0  0
 22 23  2  0  0  0  0
 23 24  1  0  0  0  0
 24 25  2  0  0  0  0
  3 26  1  0  0  0  0
  4 27  1  0  0  0  0
  5 28  1  0  0  0  0
  6 29  1  0  0  0  0
  7 30  1  0  0  0  0
  7 31  1  0  0  0  0
 11 32  1  0  0  0  0
 13 33  1  0  0  0  0
 14 34  1  0  0  0  0
 18 35  1  0  0  0  0
 19 36  1  0  0  0  0
 19 37  1  0  0  0  0
 21 38  1  0  0  0  0
 25 39  1  0  0  0  0
M  END
> <IC50[nM]>
26.8

$$$$
