CHEMBL3265002
  -OEChem-05192314333D
 Structure written by MMmdl.
 65 70  0     0  0  0  0  0  0999 V2000
   -4.2555   -3.1029   13.5707 C   0  0  0  0  0  0  0  0  0  0  0  0
   -3.8740   -2.3535   14.7166 O   0  0  0  0  0  0  0  0  0  0  0  0
   -2.5261   -2.1057   14.8053 C   0  0  0  0  0  0  0  0  0  0  0  0
   -1.7497   -2.8673   15.6804 C   0  0  0  0  0  0  0  0  0  0  0  0
   -0.3863   -2.6106   15.8150 C   0  0  0  0  0  0  0  0  0  0  0  0
    0.2220   -1.5829   15.0890 C   0  0  0  0  0  0  0  0  0  0  0  0
    1.5930   -1.3491   15.3060 N   0  0  0  0  0  0  0  0  0  0  0  0
    2.5452   -0.4689   14.7536 C   0  0  0  0  0  0  0  0  0  0  0  0
    2.2178    0.3551   13.7190 N   0  0  0  0  0  0  0  0  0  0  0  0
    3.1227    1.2406   13.2181 C   0  0  0  0  0  0  0  0  0  0  0  0
    4.4207    1.3039   13.7175 C   0  0  0  0  0  0  0  0  0  0  0  0
    4.7482    0.4921   14.7654 N   0  0  0  0  0  0  0  0  0  0  0  0
    5.8898    0.3836   15.5035 C   0  0  0  0  0  0  0  0  0  0  0  0
    5.5715   -0.5089   16.5177 C   0  0  0  0  0  0  0  0  0  0  0  0
    4.3818   -1.0543   16.3920 N   0  0  0  0  0  0  0  0  0  0  0  0
    3.8330   -0.4170   15.3252 C   0  0  0  0  0  0  0  0  0  0  0  0
    2.6564    2.1560   12.1340 C   0  0  0  0  0  0  0  0  0  0  0  0
    3.5566    2.6280   11.1666 C   0  0  0  0  0  0  0  0  0  0  0  0
    3.1294    3.4499   10.1277 C   0  0  0  0  0  0  0  0  0  0  0  0
    1.7879    3.8078   10.0318 C   0  0  0  0  0  0  0  0  0  0  0  0
    0.8660    3.3707   10.9895 C   0  0  0  0  0  0  0  0  0  0  0  0
    1.3140    2.5576   12.0419 C   0  0  0  0  0  0  0  0  0  0  0  0
   -0.5783    3.7648   10.8956 C   0  0  0  0  0  0  0  0  0  0  0  0
   -1.3033    3.5740    9.9236 O   0  0  0  0  0  0  0  0  0  0  0  0
   -1.0030    4.3609   12.0101 N   0  0  0  0  0  0  0  0  0  0  0  0
   -2.3543    4.8635   12.2406 C   0  0  0  0  0  0  0  0  0  0  0  0
   -2.5836    5.8118   13.2304 C   0  0  0  0  0  0  0  0  0  0  0  0
   -3.8699    6.2902   13.4498 C   0  0  0  0  0  0  0  0  0  0  0  0
   -4.9269    5.8204   12.6794 C   0  0  0  0  0  0  0  0  0  0  0  0
   -4.6976    4.8721   11.6896 C   0  0  0  0  0  0  0  0  0  0  0  0
   -3.4113    4.3936   11.4701 C   0  0  0  0  0  0  0  0  0  0  0  0
   -6.3151    6.3368   12.9162 C   0  0  0  0  0  0  0  0  0  0  0  0
   -6.6950    7.2261   13.8051 N   0  0  0  0  0  0  0  0  0  0  0  0
   -8.0029    7.3574   13.6369 C   0  0  0  0  0  0  0  0  0  0  0  0
   -8.4734    6.5379   12.6216 C   0  0  0  0  0  0  0  0  0  0  0  0
   -7.3627    5.8801   12.1626 N   0  0  0  0  0  0  0  0  0  0  0  0
   -0.5664   -0.8256   14.2115 C   0  0  0  0  0  0  0  0  0  0  0  0
   -1.9389   -1.0760   14.0580 C   0  0  0  0  0  0  0  0  0  0  0  0
   -2.6991   -0.3052   13.2021 O   0  0  0  0  0  0  0  0  0  0  0  0
   -2.0020    0.6746   12.5251 C   0  0  0  0  0  0  0  0  0  0  0  0
   -5.3448   -3.2555   13.5777 H   0  0  0  0  0  0  0  0  0  0  0  0
   -3.9681   -2.5543   12.6616 H   0  0  0  0  0  0  0  0  0  0  0  0
   -3.7486   -4.0790   13.5856 H   0  0  0  0  0  0  0  0  0  0  0  0
   -2.2073   -3.6587   16.2555 H   0  0  0  0  0  0  0  0  0  0  0  0
    0.2066   -3.2125   16.4877 H   0  0  0  0  0  0  0  0  0  0  0  0
    1.9791   -1.9422   16.0125 H   0  0  0  0  0  0  0  0  0  0  0  0
    5.1484    1.9765   13.2880 H   0  0  0  0  0  0  0  0  0  0  0  0
    6.8331    0.8820   15.3359 H   0  0  0  0  0  0  0  0  0  0  0  0
    6.2400   -0.7347   17.3354 H   0  0  0  0  0  0  0  0  0  0  0  0
    4.5981    2.3490   11.2292 H   0  0  0  0  0  0  0  0  0  0  0  0
    3.8383    3.8096    9.3966 H   0  0  0  0  0  0  0  0  0  0  0  0
    1.4559    4.4276    9.2120 H   0  0  0  0  0  0  0  0  0  0  0  0
    0.6121    2.2342   12.7963 H   0  0  0  0  0  0  0  0  0  0  0  0
   -0.3402    4.4732   12.7504 H   0  0  0  0  0  0  0  0  0  0  0  0
   -1.7622    6.1770   13.8291 H   0  0  0  0  0  0  0  0  0  0  0  0
   -4.0481    7.0271   14.2190 H   0  0  0  0  0  0  0  0  0  0  0  0
   -5.5190    4.5070   11.0910 H   0  0  0  0  0  0  0  0  0  0  0  0
   -3.2331    3.6567   10.7009 H   0  0  0  0  0  0  0  0  0  0  0  0
   -8.6257    8.0208   14.2187 H   0  0  0  0  0  0  0  0  0  0  0  0
   -9.4901    6.4400   12.2706 H   0  0  0  0  0  0  0  0  0  0  0  0
   -7.3250    5.2039   11.4268 H   0  0  0  0  0  0  0  0  0  0  0  0
   -0.1075   -0.0318   13.6408 H   0  0  0  0  0  0  0  0  0  0  0  0
   -2.6909    1.2310   11.8726 H   0  0  0  0  0  0  0  0  0  0  0  0
   -1.5443    1.3652   13.2487 H   0  0  0  0  0  0  0  0  0  0  0  0
   -1.2146    0.2087   11.9144 H   0  0  0  0  0  0  0  0  0  0  0  0
  1  2  1  0  0  0  0
  2  3  1  0  0  0  0
  3  4  2  0  0  0  0
  3 38  1  0  0  0  0
  4  5  1  0  0  0  0
  5  6  2  0  0  0  0
  6  7  1  0  0  0  0
  6 37  1  0  0  0  0
  7  8  1  0  0  0  0
  8  9  2  0  0  0  0
  8 16  1  0  0  0  0
  9 10  1  0  0  0  0
 10 11  2  0  0  0  0
 10 17  1  0  0  0  0
 11 12  1  0  0  0  0
 12 13  1  0  0  0  0
 12 16  1  0  0  0  0
 13 14  2  0  0  0  0
 14 15  1  0  0  0  0
 15 16  2  0  0  0  0
 17 18  2  0  0  0  0
 17 22  1  0  0  0  0
 18 19  1  0  0  0  0
 19 20  2  0  0  0  0
 20 21  1  0  0  0  0
 21 22  2  0  0  0  0
 21 23  1  0  0  0  0
 23 24  2  0  0  0  0
 23 25  1  0  0  0  0
 25 26  1  0  0  0  0
 26 27  2  0  0  0  0
 26 31  1  0  0  0  0
 27 28  1  0  0  0  0
 28 29  2  0  0  0  0
 29 30  1  0  0  0  0
 29 32  1  0  0  0  0
 30 31  2  0  0  0  0
 32 33  2  0  0  0  0
 32 36  1  0  0  0  0
 33 34  1  0  0  0  0
 34 35  2  0  0  0  0
 35 36  1  0  0  0  0
 37 38  2  0  0  0  0
 38 39  1  0  0  0  0
 39 40  1  0  0  0  0
  1 41  1  0  0  0  0
  1 42  1  0  0  0  0
  1 43  1  0  0  0  0
  4 44  1  0  0  0  0
  5 45  1  0  0  0  0
  7 46  1  0  0  0  0
 11 47  1  0  0  0  0
 13 48  1  0  0  0  0
 14 49  1  0  0  0  0
 18 50  1  0  0  0  0
 19 51  1  0  0  0  0
 20 52  1  0  0  0  0
 22 53  1  0  0  0  0
 25 54  1  0  0  0  0
 27 55  1  0  0  0  0
 28 56  1  0  0  0  0
 30 57  1  0  0  0  0
 31 58  1  0  0  0  0
 34 59  1  0  0  0  0
 35 60  1  0  0  0  0
 36 61  1  0  0  0  0
 37 62  1  0  0  0  0
 40 63  1  0  0  0  0
 40 64  1  0  0  0  0
 40 65  1  0  0  0  0
M  END
> <IC50[nM]>
16.5

$$$$
