CHEMBL3265022
  -OEChem-05192314333D
 Structure written by MMmdl.
 50 54  0     0  0  0  0  0  0999 V2000
   -4.2567   -3.1047   13.5688 C   0  0  0  0  0  0  0  0  0  0  0  0
   -3.8734   -2.3604   14.7149 O   0  0  0  0  0  0  0  0  0  0  0  0
   -2.5253   -2.1111   14.8171 C   0  0  0  0  0  0  0  0  0  0  0  0
   -1.7475   -2.8730   15.6782 C   0  0  0  0  0  0  0  0  0  0  0  0
   -0.3907   -2.6182   15.8081 C   0  0  0  0  0  0  0  0  0  0  0  0
    0.2216   -1.5894   15.0857 C   0  0  0  0  0  0  0  0  0  0  0  0
    1.6073   -1.3712   15.3149 N   0  0  0  0  0  0  0  0  0  0  0  0
    2.5355   -0.4471   14.7615 C   0  0  0  0  0  0  0  0  0  0  0  0
    2.1757    0.3798   13.7323 N   0  0  0  0  0  0  0  0  0  0  0  0
    3.1108    1.2385   13.2179 C   0  0  0  0  0  0  0  0  0  0  0  0
    4.4177    1.2796   13.6973 C   0  0  0  0  0  0  0  0  0  0  0  0
    4.7459    0.4877   14.7580 N   0  0  0  0  0  0  0  0  0  0  0  0
    5.8989    0.3777   15.4842 C   0  0  0  0  0  0  0  0  0  0  0  0
    5.5905   -0.5278   16.5266 C   0  0  0  0  0  0  0  0  0  0  0  0
    4.3783   -1.0442   16.3710 N   0  0  0  0  0  0  0  0  0  0  0  0
    3.8361   -0.3924   15.3256 C   0  0  0  0  0  0  0  0  0  0  0  0
    2.6345    2.1599   12.1209 C   0  0  0  0  0  0  0  0  0  0  0  0
    3.5455    2.6449   11.1653 C   0  0  0  0  0  0  0  0  0  0  0  0
    3.1472    3.4641   10.1113 C   0  0  0  0  0  0  0  0  0  0  0  0
    1.8026    3.8166   10.0162 C   0  0  0  0  0  0  0  0  0  0  0  0
    0.9964    4.5969    9.1149 C   0  0  0  0  0  0  0  0  0  0  0  0
   -0.2457    4.6110    9.5049 N   0  0  0  0  0  0  0  0  0  0  0  0
   -0.3357    3.9010   10.6180 N   0  0  0  0  0  0  0  0  0  0  0  0
   -1.6267    3.7825   11.2689 C   0  0  0  0  0  0  0  0  0  0  0  0
    0.8830    3.3583   10.9929 C   0  0  0  0  0  0  0  0  0  0  0  0
    1.2696    2.5335   12.0602 C   0  0  0  0  0  0  0  0  0  0  0  0
   -0.5547   -0.8145   14.1988 C   0  0  0  0  0  0  0  0  0  0  0  0
   -1.9437   -1.0858   14.0662 C   0  0  0  0  0  0  0  0  0  0  0  0
   -2.7514   -0.3534   13.2139 O   0  0  0  0  0  0  0  0  0  0  0  0
   -2.2220    0.6070   12.3331 C   0  0  0  0  0  0  0  0  0  0  0  0
   -5.3467   -3.2528   13.5748 H   0  0  0  0  0  0  0  0  0  0  0  0
   -3.9664   -2.5554   12.6611 H   0  0  0  0  0  0  0  0  0  0  0  0
   -3.7538   -4.0829   13.5820 H   0  0  0  0  0  0  0  0  0  0  0  0
   -2.2017   -3.6686   16.2501 H   0  0  0  0  0  0  0  0  0  0  0  0
    0.2023   -3.2237   16.4775 H   0  0  0  0  0  0  0  0  0  0  0  0
    2.0059   -1.9854   15.9960 H   0  0  0  0  0  0  0  0  0  0  0  0
    5.1541    1.9236   13.2397 H   0  0  0  0  0  0  0  0  0  0  0  0
    6.8405    0.8741   15.3018 H   0  0  0  0  0  0  0  0  0  0  0  0
    6.2555   -0.7676   17.3431 H   0  0  0  0  0  0  0  0  0  0  0  0
    4.5873    2.3735   11.2514 H   0  0  0  0  0  0  0  0  0  0  0  0
    3.8639    3.8177    9.3849 H   0  0  0  0  0  0  0  0  0  0  0  0
    1.3702    5.1013    8.2361 H   0  0  0  0  0  0  0  0  0  0  0  0
   -2.3803    4.3408   10.6941 H   0  0  0  0  0  0  0  0  0  0  0  0
   -1.9157    2.7224   11.3196 H   0  0  0  0  0  0  0  0  0  0  0  0
   -1.5631    4.1943   12.2869 H   0  0  0  0  0  0  0  0  0  0  0  0
    0.5590    2.1989   12.8014 H   0  0  0  0  0  0  0  0  0  0  0  0
   -0.0976   -0.0217   13.6253 H   0  0  0  0  0  0  0  0  0  0  0  0
   -3.0383    1.0642   11.7546 H   0  0  0  0  0  0  0  0  0  0  0  0
   -1.7008    1.3854   12.9097 H   0  0  0  0  0  0  0  0  0  0  0  0
   -1.5124    0.1227   11.6461 H   0  0  0  0  0  0  0  0  0  0  0  0
  1  2  1  0  0  0  0
  2  3  1  0  0  0  0
  3  4  2  0  0  0  0
  3 28  1  0  0  0  0
  4  5  1  0  0  0  0
  5  6  2  0  0  0  0
  6  7  1  0  0  0  0
  6 27  1  0  0  0  0
  7  8  1  0  0  0  0
  8  9  2  0  0  0  0
  8 16  1  0  0  0  0
  9 10  1  0  0  0  0
 10 11  2  0  0  0  0
 10 17  1  0  0  0  0
 11 12  1  0  0  0  0
 12 13  1  0  0  0  0
 12 16  1  0  0  0  0
 13 14  2  0  0  0  0
 14 15  1  0  0  0  0
 15 16  2  0  0  0  0
 17 18  2  0  0  0  0
 17 26  1  0  0  0  0
 18 19  1  0  0  0  0
 19 20  2  0  0  0  0
 20 21  1  0  0  0  0
 20 25  1  0  0  0  0
 21 22  2  0  0  0  0
 22 23  1  0  0  0  0
 23 24  1  0  0  0  0
 23 25  1  0  0  0  0
 25 26  2  0  0  0  0
 27 28  2  0  0  0  0
 28 29  1  0  0  0  0
 29 30  1  0  0  0  0
  1 31  1  0  0  0  0
  1 32  1  0  0  0  0
  1 33  1  0  0  0  0
  4 34  1  0  0  0  0
  5 35  1  0  0  0  0
  7 36  1  0  0  0  0
 11 37  1  0  0  0  0
 13 38  1  0  0  0  0
 14 39  1  0  0  0  0
 18 40  1  0  0  0  0
 19 41  1  0  0  0  0
 21 42  1  0  0  0  0
 24 43  1  0  0  0  0
 24 44  1  0  0  0  0
 24 45  1  0  0  0  0
 26 46  1  0  0  0  0
 27 47  1  0  0  0  0
 30 48  1  0  0  0  0
 30 49  1  0  0  0  0
 30 50  1  0  0  0  0
M  END
> <IC50[nM]>
12.3

$$$$
CHEMBL3265022
  -OEChem-05192314333D
 Structure written by MMmdl.
 50 54  0     0  0  0  0  0  0999 V2000
   -4.2567   -3.1047   13.5688 C   0  0  0  0  0  0  0  0  0  0  0  0
   -3.8734   -2.3604   14.7149 O   0  0  0  0  0  0  0  0  0  0  0  0
   -2.5253   -2.1111   14.8171 C   0  0  0  0  0  0  0  0  0  0  0  0
   -1.7475   -2.8730   15.6782 C   0  0  0  0  0  0  0  0  0  0  0  0
   -0.3907   -2.6182   15.8081 C   0  0  0  0  0  0  0  0  0  0  0  0
    0.2216   -1.5894   15.0857 C   0  0  0  0  0  0  0  0  0  0  0  0
    1.6073   -1.3712   15.3149 N   0  0  0  0  0  0  0  0  0  0  0  0
    2.5355   -0.4471   14.7615 C   0  0  0  0  0  0  0  0  0  0  0  0
    2.1757    0.3798   13.7323 N   0  0  0  0  0  0  0  0  0  0  0  0
    3.1108    1.2385   13.2179 C   0  0  0  0  0  0  0  0  0  0  0  0
    4.4177    1.2796   13.6973 C   0  0  0  0  0  0  0  0  0  0  0  0
    4.7459    0.4877   14.7580 N   0  0  0  0  0  0  0  0  0  0  0  0
    5.8989    0.3777   15.4842 C   0  0  0  0  0  0  0  0  0  0  0  0
    5.5905   -0.5278   16.5266 C   0  0  0  0  0  0  0  0  0  0  0  0
    4.3783   -1.0442   16.3710 N   0  0  0  0  0  0  0  0  0  0  0  0
    3.8361   -0.3924   15.3256 C   0  0  0  0  0  0  0  0  0  0  0  0
    2.6345    2.1599   12.1209 C   0  0  0  0  0  0  0  0  0  0  0  0
    3.5455    2.6449   11.1653 C   0  0  0  0  0  0  0  0  0  0  0  0
    3.1472    3.4641   10.1113 C   0  0  0  0  0  0  0  0  0  0  0  0
    1.8026    3.8166   10.0162 C   0  0  0  0  0  0  0  0  0  0  0  0
    0.9964    4.5969    9.1149 C   0  0  0  0  0  0  0  0  0  0  0  0
   -0.2457    4.6110    9.5049 N   0  0  0  0  0  0  0  0  0  0  0  0
   -0.3357    3.9010   10.6180 N   0  0  0  0  0  0  0  0  0  0  0  0
   -1.6267    3.7825   11.2689 C   0  0  0  0  0  0  0  0  0  0  0  0
    0.8830    3.3583   10.9929 C   0  0  0  0  0  0  0  0  0  0  0  0
    1.2696    2.5335   12.0602 C   0  0  0  0  0  0  0  0  0  0  0  0
   -0.5547   -0.8145   14.1988 C   0  0  0  0  0  0  0  0  0  0  0  0
   -1.9437   -1.0858   14.0662 C   0  0  0  0  0  0  0  0  0  0  0  0
   -2.7514   -0.3534   13.2139 O   0  0  0  0  0  0  0  0  0  0  0  0
   -2.2220    0.6070   12.3331 C   0  0  0  0  0  0  0  0  0  0  0  0
   -5.3467   -3.2528   13.5748 H   0  0  0  0  0  0  0  0  0  0  0  0
   -3.9664   -2.5554   12.6611 H   0  0  0  0  0  0  0  0  0  0  0  0
   -3.7538   -4.0829   13.5820 H   0  0  0  0  0  0  0  0  0  0  0  0
   -2.2017   -3.6686   16.2501 H   0  0  0  0  0  0  0  0  0  0  0  0
    0.2023   -3.2237   16.4775 H   0  0  0  0  0  0  0  0  0  0  0  0
    1.2469    0.3576   13.3624 H   0  0  0  0  0  0  0  0  0  0  0  0
    5.1541    1.9236   13.2397 H   0  0  0  0  0  0  0  0  0  0  0  0
    6.8405    0.8741   15.3018 H   0  0  0  0  0  0  0  0  0  0  0  0
    6.2555   -0.7676   17.3431 H   0  0  0  0  0  0  0  0  0  0  0  0
    4.5873    2.3735   11.2514 H   0  0  0  0  0  0  0  0  0  0  0  0
    3.8639    3.8177    9.3849 H   0  0  0  0  0  0  0  0  0  0  0  0
    1.3702    5.1013    8.2361 H   0  0  0  0  0  0  0  0  0  0  0  0
   -2.3803    4.3408   10.6941 H   0  0  0  0  0  0  0  0  0  0  0  0
   -1.9157    2.7224   11.3196 H   0  0  0  0  0  0  0  0  0  0  0  0
   -1.5631    4.1943   12.2869 H   0  0  0  0  0  0  0  0  0  0  0  0
    0.5590    2.1989   12.8014 H   0  0  0  0  0  0  0  0  0  0  0  0
   -0.0976   -0.0217   13.6253 H   0  0  0  0  0  0  0  0  0  0  0  0
   -3.0383    1.0642   11.7546 H   0  0  0  0  0  0  0  0  0  0  0  0
   -1.7008    1.3854   12.9097 H   0  0  0  0  0  0  0  0  0  0  0  0
   -1.5124    0.1227   11.6461 H   0  0  0  0  0  0  0  0  0  0  0  0
  1  2  1  0  0  0  0
  2  3  1  0  0  0  0
  3  4  2  0  0  0  0
  3 28  1  0  0  0  0
  4  5  1  0  0  0  0
  5  6  2  0  0  0  0
  6  7  1  0  0  0  0
  6 27  1  0  0  0  0
  7  8  2  0  0  0  0
  8  9  1  0  0  0  0
  8 16  1  0  0  0  0
  9 10  1  0  0  0  0
 10 11  2  0  0  0  0
 10 17  1  0  0  0  0
 11 12  1  0  0  0  0
 12 13  1  0  0  0  0
 12 16  1  0  0  0  0
 13 14  2  0  0  0  0
 14 15  1  0  0  0  0
 15 16  2  0  0  0  0
 17 18  2  0  0  0  0
 17 26  1  0  0  0  0
 18 19  1  0  0  0  0
 19 20  2  0  0  0  0
 20 21  1  0  0  0  0
 20 25  1  0  0  0  0
 21 22  2  0  0  0  0
 22 23  1  0  0  0  0
 23 24  1  0  0  0  0
 23 25  1  0  0  0  0
 25 26  2  0  0  0  0
 27 28  2  0  0  0  0
 28 29  1  0  0  0  0
 29 30  1  0  0  0  0
  1 31  1  0  0  0  0
  1 32  1  0  0  0  0
  1 33  1  0  0  0  0
  4 34  1  0  0  0  0
  5 35  1  0  0  0  0
  9 36  1  0  0  0  0
 11 37  1  0  0  0  0
 13 38  1  0  0  0  0
 14 39  1  0  0  0  0
 18 40  1  0  0  0  0
 19 41  1  0  0  0  0
 21 42  1  0  0  0  0
 24 43  1  0  0  0  0
 24 44  1  0  0  0  0
 24 45  1  0  0  0  0
 26 46  1  0  0  0  0
 27 47  1  0  0  0  0
 30 48  1  0  0  0  0
 30 49  1  0  0  0  0
 30 50  1  0  0  0  0
M  END
> <IC50[nM]>
12.3

$$$$
CHEMBL3265022
  -OEChem-05192314333D
 Structure written by MMmdl.
 50 54  0     0  0  0  0  0  0999 V2000
   -4.2567   -3.1047   13.5688 C   0  0  0  0  0  0  0  0  0  0  0  0
   -3.8734   -2.3604   14.7149 O   0  0  0  0  0  0  0  0  0  0  0  0
   -2.5253   -2.1111   14.8171 C   0  0  0  0  0  0  0  0  0  0  0  0
   -1.7475   -2.8730   15.6782 C   0  0  0  0  0  0  0  0  0  0  0  0
   -0.3907   -2.6182   15.8081 C   0  0  0  0  0  0  0  0  0  0  0  0
    0.2216   -1.5894   15.0857 C   0  0  0  0  0  0  0  0  0  0  0  0
    1.6073   -1.3712   15.3149 N   0  0  0  0  0  0  0  0  0  0  0  0
    2.5355   -0.4471   14.7615 C   0  0  0  0  0  0  0  0  0  0  0  0
    2.1757    0.3798   13.7323 N   0  0  0  0  0  0  0  0  0  0  0  0
    3.1108    1.2385   13.2179 C   0  0  0  0  0  0  0  0  0  0  0  0
    4.4177    1.2796   13.6973 C   0  0  0  0  0  0  0  0  0  0  0  0
    4.7459    0.4877   14.7580 N   0  0  0  0  0  0  0  0  0  0  0  0
    5.8989    0.3777   15.4842 C   0  0  0  0  0  0  0  0  0  0  0  0
    5.5905   -0.5278   16.5266 C   0  0  0  0  0  0  0  0  0  0  0  0
    4.3783   -1.0442   16.3710 N   0  0  0  0  0  0  0  0  0  0  0  0
    3.8361   -0.3924   15.3256 C   0  0  0  0  0  0  0  0  0  0  0  0
    2.6345    2.1599   12.1209 C   0  0  0  0  0  0  0  0  0  0  0  0
    3.5455    2.6449   11.1653 C   0  0  0  0  0  0  0  0  0  0  0  0
    3.1472    3.4641   10.1113 C   0  0  0  0  0  0  0  0  0  0  0  0
    1.8026    3.8166   10.0162 C   0  0  0  0  0  0  0  0  0  0  0  0
    0.9964    4.5969    9.1149 C   0  0  0  0  0  0  0  0  0  0  0  0
   -0.2457    4.6110    9.5049 N   0  0  0  0  0  0  0  0  0  0  0  0
   -0.3357    3.9010   10.6180 N   0  0  0  0  0  0  0  0  0  0  0  0
   -1.6267    3.7825   11.2689 C   0  0  0  0  0  0  0  0  0  0  0  0
    0.8830    3.3583   10.9929 C   0  0  0  0  0  0  0  0  0  0  0  0
    1.2696    2.5335   12.0602 C   0  0  0  0  0  0  0  0  0  0  0  0
   -0.5547   -0.8145   14.1988 C   0  0  0  0  0  0  0  0  0  0  0  0
   -1.9437   -1.0858   14.0662 C   0  0  0  0  0  0  0  0  0  0  0  0
   -2.7514   -0.3534   13.2139 O   0  0  0  0  0  0  0  0  0  0  0  0
   -2.2220    0.6070   12.3331 C   0  0  0  0  0  0  0  0  0  0  0  0
   -5.3467   -3.2528   13.5748 H   0  0  0  0  0  0  0  0  0  0  0  0
   -3.9664   -2.5554   12.6611 H   0  0  0  0  0  0  0  0  0  0  0  0
   -3.7538   -4.0829   13.5820 H   0  0  0  0  0  0  0  0  0  0  0  0
   -2.2017   -3.6686   16.2501 H   0  0  0  0  0  0  0  0  0  0  0  0
    0.2023   -3.2237   16.4775 H   0  0  0  0  0  0  0  0  0  0  0  0
    5.0784    0.9973   12.8643 H   0  0  0  0  0  0  0  0  0  0  0  0
    4.6231    2.3193   13.9921 H   0  0  0  0  0  0  0  0  0  0  0  0
    6.8405    0.8741   15.3018 H   0  0  0  0  0  0  0  0  0  0  0  0
    6.2555   -0.7676   17.3431 H   0  0  0  0  0  0  0  0  0  0  0  0
    4.5873    2.3735   11.2514 H   0  0  0  0  0  0  0  0  0  0  0  0
    3.8639    3.8177    9.3849 H   0  0  0  0  0  0  0  0  0  0  0  0
    1.3702    5.1013    8.2361 H   0  0  0  0  0  0  0  0  0  0  0  0
   -2.3803    4.3408   10.6941 H   0  0  0  0  0  0  0  0  0  0  0  0
   -1.9157    2.7224   11.3196 H   0  0  0  0  0  0  0  0  0  0  0  0
   -1.5631    4.1943   12.2869 H   0  0  0  0  0  0  0  0  0  0  0  0
    0.5590    2.1989   12.8014 H   0  0  0  0  0  0  0  0  0  0  0  0
   -0.0976   -0.0217   13.6253 H   0  0  0  0  0  0  0  0  0  0  0  0
   -3.0383    1.0642   11.7546 H   0  0  0  0  0  0  0  0  0  0  0  0
   -1.7008    1.3854   12.9097 H   0  0  0  0  0  0  0  0  0  0  0  0
   -1.5124    0.1227   11.6461 H   0  0  0  0  0  0  0  0  0  0  0  0
  1  2  1  0  0  0  0
  2  3  1  0  0  0  0
  3  4  2  0  0  0  0
  3 28  1  0  0  0  0
  4  5  1  0  0  0  0
  5  6  2  0  0  0  0
  6  7  1  0  0  0  0
  6 27  1  0  0  0  0
  7  8  2  0  0  0  0
  8  9  1  0  0  0  0
  8 16  1  0  0  0  0
  9 10  2  0  0  0  0
 10 11  1  0  0  0  0
 10 17  1  0  0  0  0
 11 12  1  0  0  0  0
 12 13  1  0  0  0  0
 12 16  1  0  0  0  0
 13 14  2  0  0  0  0
 14 15  1  0  0  0  0
 15 16  2  0  0  0  0
 17 18  2  0  0  0  0
 17 26  1  0  0  0  0
 18 19  1  0  0  0  0
 19 20  2  0  0  0  0
 20 21  1  0  0  0  0
 20 25  1  0  0  0  0
 21 22  2  0  0  0  0
 22 23  1  0  0  0  0
 23 24  1  0  0  0  0
 23 25  1  0  0  0  0
 25 26  2  0  0  0  0
 27 28  2  0  0  0  0
 28 29  1  0  0  0  0
 29 30  1  0  0  0  0
  1 31  1  0  0  0  0
  1 32  1  0  0  0  0
  1 33  1  0  0  0  0
  4 34  1  0  0  0  0
  5 35  1  0  0  0  0
 11 36  1  0  0  0  0
 11 37  1  0  0  0  0
 13 38  1  0  0  0  0
 14 39  1  0  0  0  0
 18 40  1  0  0  0  0
 19 41  1  0  0  0  0
 21 42  1  0  0  0  0
 24 43  1  0  0  0  0
 24 44  1  0  0  0  0
 24 45  1  0  0  0  0
 26 46  1  0  0  0  0
 27 47  1  0  0  0  0
 30 48  1  0  0  0  0
 30 49  1  0  0  0  0
 30 50  1  0  0  0  0
M  END
> <IC50[nM]>
12.3

$$$$
CHEMBL3265022
  -OEChem-05192314333D
 Structure written by MMmdl.
 50 54  0     1  0  0  0  0  0999 V2000
   -4.2567   -3.1047   13.5688 C   0  0  0  0  0  0  0  0  0  0  0  0
   -3.8734   -2.3604   14.7149 O   0  0  0  0  0  0  0  0  0  0  0  0
   -2.5253   -2.1111   14.8171 C   0  0  3  0  0  0  0  0  0  0  0  0
   -1.7475   -2.8730   15.6782 C   0  0  0  0  0  0  0  0  0  0  0  0
   -0.3907   -2.6182   15.8081 C   0  0  0  0  0  0  0  0  0  0  0  0
    0.2216   -1.5894   15.0857 C   0  0  0  0  0  0  0  0  0  0  0  0
    1.6073   -1.3712   15.3149 N   0  0  0  0  0  0  0  0  0  0  0  0
    2.5355   -0.4471   14.7615 C   0  0  0  0  0  0  0  0  0  0  0  0
    2.1757    0.3798   13.7323 N   0  0  0  0  0  0  0  0  0  0  0  0
    3.1108    1.2385   13.2179 C   0  0  0  0  0  0  0  0  0  0  0  0
    4.4177    1.2796   13.6973 C   0  0  0  0  0  0  0  0  0  0  0  0
    4.7459    0.4877   14.7580 N   0  0  0  0  0  0  0  0  0  0  0  0
    5.8989    0.3777   15.4842 C   0  0  0  0  0  0  0  0  0  0  0  0
    5.5905   -0.5278   16.5266 C   0  0  0  0  0  0  0  0  0  0  0  0
    4.3783   -1.0442   16.3710 N   0  0  0  0  0  0  0  0  0  0  0  0
    3.8361   -0.3924   15.3256 C   0  0  0  0  0  0  0  0  0  0  0  0
    2.6345    2.1599   12.1209 C   0  0  0  0  0  0  0  0  0  0  0  0
    3.5455    2.6449   11.1653 C   0  0  0  0  0  0  0  0  0  0  0  0
    3.1472    3.4641   10.1113 C   0  0  0  0  0  0  0  0  0  0  0  0
    1.8026    3.8166   10.0162 C   0  0  0  0  0  0  0  0  0  0  0  0
    0.9964    4.5969    9.1149 C   0  0  0  0  0  0  0  0  0  0  0  0
   -0.2457    4.6110    9.5049 N   0  0  0  0  0  0  0  0  0  0  0  0
   -0.3357    3.9010   10.6180 N   0  0  0  0  0  0  0  0  0  0  0  0
   -1.6267    3.7825   11.2689 C   0  0  0  0  0  0  0  0  0  0  0  0
    0.8830    3.3583   10.9929 C   0  0  0  0  0  0  0  0  0  0  0  0
    1.2696    2.5335   12.0602 C   0  0  0  0  0  0  0  0  0  0  0  0
   -0.5547   -0.8145   14.1988 C   0  0  0  0  0  0  0  0  0  0  0  0
   -1.9437   -1.0858   14.0662 C   0  0  0  0  0  0  0  0  0  0  0  0
   -2.7514   -0.3534   13.2139 O   0  0  0  0  0  0  0  0  0  0  0  0
   -2.2220    0.6070   12.3331 C   0  0  0  0  0  0  0  0  0  0  0  0
   -5.3467   -3.2528   13.5748 H   0  0  0  0  0  0  0  0  0  0  0  0
   -3.9664   -2.5554   12.6611 H   0  0  0  0  0  0  0  0  0  0  0  0
   -3.7538   -4.0829   13.5820 H   0  0  0  0  0  0  0  0  0  0  0  0
   -2.3282   -2.8239   14.0028 H   0  0  0  0  0  0  0  0  0  0  0  0
   -2.2017   -3.6686   16.2501 H   0  0  0  0  0  0  0  0  0  0  0  0
    0.2023   -3.2237   16.4775 H   0  0  0  0  0  0  0  0  0  0  0  0
    5.1541    1.9236   13.2397 H   0  0  0  0  0  0  0  0  0  0  0  0
    6.8405    0.8741   15.3018 H   0  0  0  0  0  0  0  0  0  0  0  0
    6.2555   -0.7676   17.3431 H   0  0  0  0  0  0  0  0  0  0  0  0
    4.5873    2.3735   11.2514 H   0  0  0  0  0  0  0  0  0  0  0  0
    3.8639    3.8177    9.3849 H   0  0  0  0  0  0  0  0  0  0  0  0
    1.3702    5.1013    8.2361 H   0  0  0  0  0  0  0  0  0  0  0  0
   -2.3803    4.3408   10.6941 H   0  0  0  0  0  0  0  0  0  0  0  0
   -1.9157    2.7224   11.3196 H   0  0  0  0  0  0  0  0  0  0  0  0
   -1.5631    4.1943   12.2869 H   0  0  0  0  0  0  0  0  0  0  0  0
    0.5590    2.1989   12.8014 H   0  0  0  0  0  0  0  0  0  0  0  0
   -0.0976   -0.0217   13.6253 H   0  0  0  0  0  0  0  0  0  0  0  0
   -3.0383    1.0642   11.7546 H   0  0  0  0  0  0  0  0  0  0  0  0
   -1.7008    1.3854   12.9097 H   0  0  0  0  0  0  0  0  0  0  0  0
   -1.5124    0.1227   11.6461 H   0  0  0  0  0  0  0  0  0  0  0  0
  1  2  1  0  0  0  0
  2  3  1  0  0  0  0
  3  4  1  0  0  0  0
  3 28  1  0  0  0  0
  4  5  2  0  0  0  0
  5  6  1  0  0  0  0
  6  7  2  0  0  0  0
  6 27  1  0  0  0  0
  7  8  1  0  0  0  0
  8  9  2  0  0  0  0
  8 16  1  0  0  0  0
  9 10  1  0  0  0  0
 10 11  2  0  0  0  0
 10 17  1  0  0  0  0
 11 12  1  0  0  0  0
 12 13  1  0  0  0  0
 12 16  1  0  0  0  0
 13 14  2  0  0  0  0
 14 15  1  0  0  0  0
 15 16  2  0  0  0  0
 17 18  2  0  0  0  0
 17 26  1  0  0  0  0
 18 19  1  0  0  0  0
 19 20  2  0  0  0  0
 20 21  1  0  0  0  0
 20 25  1  0  0  0  0
 21 22  2  0  0  0  0
 22 23  1  0  0  0  0
 23 24  1  0  0  0  0
 23 25  1  0  0  0  0
 25 26  2  0  0  0  0
 27 28  2  0  0  0  0
 28 29  1  0  0  0  0
 29 30  1  0  0  0  0
  1 31  1  0  0  0  0
  1 32  1  0  0  0  0
  1 33  1  0  0  0  0
  3 34  1  0  0  0  0
  4 35  1  0  0  0  0
  5 36  1  0  0  0  0
 11 37  1  0  0  0  0
 13 38  1  0  0  0  0
 14 39  1  0  0  0  0
 18 40  1  0  0  0  0
 19 41  1  0  0  0  0
 21 42  1  0  0  0  0
 24 43  1  0  0  0  0
 24 44  1  0  0  0  0
 24 45  1  0  0  0  0
 26 46  1  0  0  0  0
 27 47  1  0  0  0  0
 30 48  1  0  0  0  0
 30 49  1  0  0  0  0
 30 50  1  0  0  0  0
M  END
> <IC50[nM]>
12.3

$$$$
CHEMBL3265022
  -OEChem-05192314333D
 Structure written by MMmdl.
 50 54  0     0  0  0  0  0  0999 V2000
   -4.2567   -3.1047   13.5688 C   0  0  0  0  0  0  0  0  0  0  0  0
   -3.8734   -2.3604   14.7149 O   0  0  0  0  0  0  0  0  0  0  0  0
   -2.5253   -2.1111   14.8171 C   0  0  0  0  0  0  0  0  0  0  0  0
   -1.7475   -2.8730   15.6782 C   0  0  0  0  0  0  0  0  0  0  0  0
   -0.3907   -2.6182   15.8081 C   0  0  0  0  0  0  0  0  0  0  0  0
    0.2216   -1.5894   15.0857 C   0  0  0  0  0  0  0  0  0  0  0  0
    1.6073   -1.3712   15.3149 N   0  0  0  0  0  0  0  0  0  0  0  0
    2.5355   -0.4471   14.7615 C   0  0  0  0  0  0  0  0  0  0  0  0
    2.1757    0.3798   13.7323 N   0  0  0  0  0  0  0  0  0  0  0  0
    3.1108    1.2385   13.2179 C   0  0  0  0  0  0  0  0  0  0  0  0
    4.4177    1.2796   13.6973 C   0  0  0  0  0  0  0  0  0  0  0  0
    4.7459    0.4877   14.7580 N   0  0  0  0  0  0  0  0  0  0  0  0
    5.8989    0.3777   15.4842 C   0  0  0  0  0  0  0  0  0  0  0  0
    5.5905   -0.5278   16.5266 C   0  0  0  0  0  0  0  0  0  0  0  0
    4.3783   -1.0442   16.3710 N   0  0  0  0  0  0  0  0  0  0  0  0
    3.8361   -0.3924   15.3256 C   0  0  0  0  0  0  0  0  0  0  0  0
    2.6345    2.1599   12.1209 C   0  0  0  0  0  0  0  0  0  0  0  0
    3.5455    2.6449   11.1653 C   0  0  0  0  0  0  0  0  0  0  0  0
    3.1472    3.4641   10.1113 C   0  0  0  0  0  0  0  0  0  0  0  0
    1.8026    3.8166   10.0162 C   0  0  0  0  0  0  0  0  0  0  0  0
    0.9964    4.5969    9.1149 C   0  0  0  0  0  0  0  0  0  0  0  0
   -0.2457    4.6110    9.5049 N   0  0  0  0  0  0  0  0  0  0  0  0
   -0.3357    3.9010   10.6180 N   0  0  0  0  0  0  0  0  0  0  0  0
   -1.6267    3.7825   11.2689 C   0  0  0  0  0  0  0  0  0  0  0  0
    0.8830    3.3583   10.9929 C   0  0  0  0  0  0  0  0  0  0  0  0
    1.2696    2.5335   12.0602 C   0  0  0  0  0  0  0  0  0  0  0  0
   -0.5547   -0.8145   14.1988 C   0  0  0  0  0  0  0  0  0  0  0  0
   -1.9437   -1.0858   14.0662 C   0  0  0  0  0  0  0  0  0  0  0  0
   -2.7514   -0.3534   13.2139 O   0  0  0  0  0  0  0  0  0  0  0  0
   -2.2220    0.6070   12.3331 C   0  0  0  0  0  0  0  0  0  0  0  0
   -5.3467   -3.2528   13.5748 H   0  0  0  0  0  0  0  0  0  0  0  0
   -3.9664   -2.5554   12.6611 H   0  0  0  0  0  0  0  0  0  0  0  0
   -3.7538   -4.0829   13.5820 H   0  0  0  0  0  0  0  0  0  0  0  0
   -2.2017   -3.6686   16.2501 H   0  0  0  0  0  0  0  0  0  0  0  0
   -0.2137   -2.4015   16.8719 H   0  0  0  0  0  0  0  0  0  0  0  0
    0.1297   -3.5470   15.5316 H   0  0  0  0  0  0  0  0  0  0  0  0
    5.1541    1.9236   13.2397 H   0  0  0  0  0  0  0  0  0  0  0  0
    6.8405    0.8741   15.3018 H   0  0  0  0  0  0  0  0  0  0  0  0
    6.2555   -0.7676   17.3431 H   0  0  0  0  0  0  0  0  0  0  0  0
    4.5873    2.3735   11.2514 H   0  0  0  0  0  0  0  0  0  0  0  0
    3.8639    3.8177    9.3849 H   0  0  0  0  0  0  0  0  0  0  0  0
    1.3702    5.1013    8.2361 H   0  0  0  0  0  0  0  0  0  0  0  0
   -2.3803    4.3408   10.6941 H   0  0  0  0  0  0  0  0  0  0  0  0
   -1.9157    2.7224   11.3196 H   0  0  0  0  0  0  0  0  0  0  0  0
   -1.5631    4.1943   12.2869 H   0  0  0  0  0  0  0  0  0  0  0  0
    0.5590    2.1989   12.8014 H   0  0  0  0  0  0  0  0  0  0  0  0
   -0.0976   -0.0217   13.6253 H   0  0  0  0  0  0  0  0  0  0  0  0
   -3.0383    1.0642   11.7546 H   0  0  0  0  0  0  0  0  0  0  0  0
   -1.7008    1.3854   12.9097 H   0  0  0  0  0  0  0  0  0  0  0  0
   -1.5124    0.1227   11.6461 H   0  0  0  0  0  0  0  0  0  0  0  0
  1  2  1  0  0  0  0
  2  3  1  0  0  0  0
  3  4  2  0  0  0  0
  3 28  1  0  0  0  0
  4  5  1  0  0  0  0
  5  6  1  0  0  0  0
  6  7  2  0  0  0  0
  6 27  1  0  0  0  0
  7  8  1  0  0  0  0
  8  9  2  0  0  0  0
  8 16  1  0  0  0  0
  9 10  1  0  0  0  0
 10 11  2  0  0  0  0
 10 17  1  0  0  0  0
 11 12  1  0  0  0  0
 12 13  1  0  0  0  0
 12 16  1  0  0  0  0
 13 14  2  0  0  0  0
 14 15  1  0  0  0  0
 15 16  2  0  0  0  0
 17 18  2  0  0  0  0
 17 26  1  0  0  0  0
 18 19  1  0  0  0  0
 19 20  2  0  0  0  0
 20 21  1  0  0  0  0
 20 25  1  0  0  0  0
 21 22  2  0  0  0  0
 22 23  1  0  0  0  0
 23 24  1  0  0  0  0
 23 25  1  0  0  0  0
 25 26  2  0  0  0  0
 27 28  2  0  0  0  0
 28 29  1  0  0  0  0
 29 30  1  0  0  0  0
  1 31  1  0  0  0  0
  1 32  1  0  0  0  0
  1 33  1  0  0  0  0
  4 34  1  0  0  0  0
  5 35  1  0  0  0  0
  5 36  1  0  0  0  0
 11 37  1  0  0  0  0
 13 38  1  0  0  0  0
 14 39  1  0  0  0  0
 18 40  1  0  0  0  0
 19 41  1  0  0  0  0
 21 42  1  0  0  0  0
 24 43  1  0  0  0  0
 24 44  1  0  0  0  0
 24 45  1  0  0  0  0
 26 46  1  0  0  0  0
 27 47  1  0  0  0  0
 30 48  1  0  0  0  0
 30 49  1  0  0  0  0
 30 50  1  0  0  0  0
M  END
> <IC50[nM]>
12.3

$$$$
CHEMBL3265022
  -OEChem-05192314333D
 Structure written by MMmdl.
 50 54  0     0  0  0  0  0  0999 V2000
   -4.2567   -3.1047   13.5688 C   0  0  0  0  0  0  0  0  0  0  0  0
   -3.8734   -2.3604   14.7149 O   0  0  0  0  0  0  0  0  0  0  0  0
   -2.5253   -2.1111   14.8171 C   0  0  0  0  0  0  0  0  0  0  0  0
   -1.7475   -2.8730   15.6782 C   0  0  0  0  0  0  0  0  0  0  0  0
   -0.3907   -2.6182   15.8081 C   0  0  0  0  0  0  0  0  0  0  0  0
    0.2216   -1.5894   15.0857 C   0  0  0  0  0  0  0  0  0  0  0  0
    1.6073   -1.3712   15.3149 N   0  0  0  0  0  0  0  0  0  0  0  0
    2.5355   -0.4471   14.7615 C   0  0  0  0  0  0  0  0  0  0  0  0
    2.1757    0.3798   13.7323 N   0  0  0  0  0  0  0  0  0  0  0  0
    3.1108    1.2385   13.2179 C   0  0  0  0  0  0  0  0  0  0  0  0
    4.4177    1.2796   13.6973 C   0  0  0  0  0  0  0  0  0  0  0  0
    4.7459    0.4877   14.7580 N   0  0  0  0  0  0  0  0  0  0  0  0
    5.8989    0.3777   15.4842 C   0  0  0  0  0  0  0  0  0  0  0  0
    5.5905   -0.5278   16.5266 C   0  0  0  0  0  0  0  0  0  0  0  0
    4.3783   -1.0442   16.3710 N   0  0  0  0  0  0  0  0  0  0  0  0
    3.8361   -0.3924   15.3256 C   0  0  0  0  0  0  0  0  0  0  0  0
    2.6345    2.1599   12.1209 C   0  0  0  0  0  0  0  0  0  0  0  0
    3.5455    2.6449   11.1653 C   0  0  0  0  0  0  0  0  0  0  0  0
    3.1472    3.4641   10.1113 C   0  0  0  0  0  0  0  0  0  0  0  0
    1.8026    3.8166   10.0162 C   0  0  0  0  0  0  0  0  0  0  0  0
    0.9964    4.5969    9.1149 C   0  0  0  0  0  0  0  0  0  0  0  0
   -0.2457    4.6110    9.5049 N   0  0  0  0  0  0  0  0  0  0  0  0
   -0.3357    3.9010   10.6180 N   0  0  0  0  0  0  0  0  0  0  0  0
   -1.6267    3.7825   11.2689 C   0  0  0  0  0  0  0  0  0  0  0  0
    0.8830    3.3583   10.9929 C   0  0  0  0  0  0  0  0  0  0  0  0
    1.2696    2.5335   12.0602 C   0  0  0  0  0  0  0  0  0  0  0  0
   -0.5547   -0.8145   14.1988 C   0  0  0  0  0  0  0  0  0  0  0  0
   -1.9437   -1.0858   14.0662 C   0  0  0  0  0  0  0  0  0  0  0  0
   -2.7514   -0.3534   13.2139 O   0  0  0  0  0  0  0  0  0  0  0  0
   -2.2220    0.6070   12.3331 C   0  0  0  0  0  0  0  0  0  0  0  0
   -5.3467   -3.2528   13.5748 H   0  0  0  0  0  0  0  0  0  0  0  0
   -3.9664   -2.5554   12.6611 H   0  0  0  0  0  0  0  0  0  0  0  0
   -3.7538   -4.0829   13.5820 H   0  0  0  0  0  0  0  0  0  0  0  0
   -2.2017   -3.6686   16.2501 H   0  0  0  0  0  0  0  0  0  0  0  0
    0.2023   -3.2237   16.4775 H   0  0  0  0  0  0  0  0  0  0  0  0
    5.1541    1.9236   13.2397 H   0  0  0  0  0  0  0  0  0  0  0  0
    6.8405    0.8741   15.3018 H   0  0  0  0  0  0  0  0  0  0  0  0
    6.2555   -0.7676   17.3431 H   0  0  0  0  0  0  0  0  0  0  0  0
    4.5873    2.3735   11.2514 H   0  0  0  0  0  0  0  0  0  0  0  0
    3.8639    3.8177    9.3849 H   0  0  0  0  0  0  0  0  0  0  0  0
    1.3702    5.1013    8.2361 H   0  0  0  0  0  0  0  0  0  0  0  0
   -2.3803    4.3408   10.6941 H   0  0  0  0  0  0  0  0  0  0  0  0
   -1.9157    2.7224   11.3196 H   0  0  0  0  0  0  0  0  0  0  0  0
   -1.5631    4.1943   12.2869 H   0  0  0  0  0  0  0  0  0  0  0  0
    0.5590    2.1989   12.8014 H   0  0  0  0  0  0  0  0  0  0  0  0
   -0.4625    0.2324   14.5235 H   0  0  0  0  0  0  0  0  0  0  0  0
   -0.1093   -0.9290   13.1996 H   0  0  0  0  0  0  0  0  0  0  0  0
   -3.0383    1.0642   11.7546 H   0  0  0  0  0  0  0  0  0  0  0  0
   -1.7008    1.3854   12.9097 H   0  0  0  0  0  0  0  0  0  0  0  0
   -1.5124    0.1227   11.6461 H   0  0  0  0  0  0  0  0  0  0  0  0
  1  2  1  0  0  0  0
  2  3  1  0  0  0  0
  3  4  1  0  0  0  0
  3 28  2  0  0  0  0
  4  5  2  0  0  0  0
  5  6  1  0  0  0  0
  6  7  2  0  0  0  0
  6 27  1  0  0  0  0
  7  8  1  0  0  0  0
  8  9  2  0  0  0  0
  8 16  1  0  0  0  0
  9 10  1  0  0  0  0
 10 11  2  0  0  0  0
 10 17  1  0  0  0  0
 11 12  1  0  0  0  0
 12 13  1  0  0  0  0
 12 16  1  0  0  0  0
 13 14  2  0  0  0  0
 14 15  1  0  0  0  0
 15 16  2  0  0  0  0
 17 18  2  0  0  0  0
 17 26  1  0  0  0  0
 18 19  1  0  0  0  0
 19 20  2  0  0  0  0
 20 21  1  0  0  0  0
 20 25  1  0  0  0  0
 21 22  2  0  0  0  0
 22 23  1  0  0  0  0
 23 24  1  0  0  0  0
 23 25  1  0  0  0  0
 25 26  2  0  0  0  0
 27 28  1  0  0  0  0
 28 29  1  0  0  0  0
 29 30  1  0  0  0  0
  1 31  1  0  0  0  0
  1 32  1  0  0  0  0
  1 33  1  0  0  0  0
  4 34  1  0  0  0  0
  5 35  1  0  0  0  0
 11 36  1  0  0  0  0
 13 37  1  0  0  0  0
 14 38  1  0  0  0  0
 18 39  1  0  0  0  0
 19 40  1  0  0  0  0
 21 41  1  0  0  0  0
 24 42  1  0  0  0  0
 24 43  1  0  0  0  0
 24 44  1  0  0  0  0
 26 45  1  0  0  0  0
 27 46  1  0  0  0  0
 27 47  1  0  0  0  0
 30 48  1  0  0  0  0
 30 49  1  0  0  0  0
 30 50  1  0  0  0  0
M  END
> <IC50[nM]>
12.3

$$$$
