CHEMBL3265028
  -OEChem-05192314333D
 Structure written by MMmdl.
 43 47  0     0  0  0  0  0  0999 V2000
   -1.9509    0.6794   12.3551 C   0  0  0  0  0  0  0  0  0  0  0  0
   -2.6175   -0.2972   13.1574 O   0  0  0  0  0  0  0  0  0  0  0  0
   -1.8696   -1.0545   14.0449 C   0  0  0  0  0  0  0  0  0  0  0  0
   -2.5006   -2.0822   14.7698 C   0  0  0  0  0  0  0  0  0  0  0  0
   -1.7540   -2.8524   15.6585 C   0  0  0  0  0  0  0  0  0  0  0  0
   -0.3950   -2.6038   15.8322 C   0  0  0  0  0  0  0  0  0  0  0  0
    0.2324   -1.5851   15.1260 C   0  0  0  0  0  0  0  0  0  0  0  0
    1.6168   -1.3648   15.3699 N   0  0  0  0  0  0  0  0  0  0  0  0
    2.5420   -0.4570   14.7968 C   0  0  0  0  0  0  0  0  0  0  0  0
    2.1720    0.3831   13.7786 N   0  0  0  0  0  0  0  0  0  0  0  0
    3.1103    1.2383   13.2419 C   0  0  0  0  0  0  0  0  0  0  0  0
    4.3968    1.2792   13.7037 C   0  0  0  0  0  0  0  0  0  0  0  0
    4.7381    0.4944   14.7692 N   0  0  0  0  0  0  0  0  0  0  0  0
    5.8928    0.3893   15.4752 C   0  0  0  0  0  0  0  0  0  0  0  0
    5.6110   -0.5494   16.5068 C   0  0  0  0  0  0  0  0  0  0  0  0
    4.4002   -1.0741   16.3612 N   0  0  0  0  0  0  0  0  0  0  0  0
    3.8444   -0.3918   15.3407 C   0  0  0  0  0  0  0  0  0  0  0  0
    2.6282    2.1384   12.1226 C   0  0  0  0  0  0  0  0  0  0  0  0
    3.5442    2.6282   11.1721 C   0  0  0  0  0  0  0  0  0  0  0  0
    3.1497    3.4552   10.1130 C   0  0  0  0  0  0  0  0  0  0  0  0
    1.8035    3.8107   10.0226 C   0  0  0  0  0  0  0  0  0  0  0  0
    0.9910    4.6054    9.1269 C   0  0  0  0  0  0  0  0  0  0  0  0
   -0.2498    4.6130    9.5297 N   0  0  0  0  0  0  0  0  0  0  0  0
   -0.3276    3.8827   10.6287 N   0  0  0  0  0  0  0  0  0  0  0  0
    0.8922    3.3455   10.9868 C   0  0  0  0  0  0  0  0  0  0  0  0
    1.2628    2.5119   12.0466 C   0  0  0  0  0  0  0  0  0  0  0  0
   -0.5121   -0.8124   14.2226 C   0  0  0  0  0  0  0  0  0  0  0  0
   -2.6836    1.1877   11.7110 H   0  0  0  0  0  0  0  0  0  0  0  0
   -1.4618    1.4178   13.0075 H   0  0  0  0  0  0  0  0  0  0  0  0
   -1.1937    0.1846   11.7292 H   0  0  0  0  0  0  0  0  0  0  0  0
   -3.5555   -2.2724   14.6382 H   0  0  0  0  0  0  0  0  0  0  0  0
   -2.2311   -3.6455   16.2150 H   0  0  0  0  0  0  0  0  0  0  0  0
    0.1761   -3.2079   16.5216 H   0  0  0  0  0  0  0  0  0  0  0  0
    2.0079   -1.9582   16.0734 H   0  0  0  0  0  0  0  0  0  0  0  0
    5.1294    1.9197   13.2352 H   0  0  0  0  0  0  0  0  0  0  0  0
    6.8235    0.9061   15.2933 H   0  0  0  0  0  0  0  0  0  0  0  0
    6.2935   -0.8022   17.3047 H   0  0  0  0  0  0  0  0  0  0  0  0
    4.5857    2.3571   11.2628 H   0  0  0  0  0  0  0  0  0  0  0  0
    3.8671    3.8078    9.3868 H   0  0  0  0  0  0  0  0  0  0  0  0
    1.3590    5.1186    8.2507 H   0  0  0  0  0  0  0  0  0  0  0  0
   -1.1733    3.7362   11.1418 H   0  0  0  0  0  0  0  0  0  0  0  0
    0.5419    2.1684   12.7738 H   0  0  0  0  0  0  0  0  0  0  0  0
   -0.0286   -0.0257   13.6625 H   0  0  0  0  0  0  0  0  0  0  0  0
  1  2  1  0  0  0  0
  2  3  1  0  0  0  0
  3  4  2  0  0  0  0
  3 27  1  0  0  0  0
  4  5  1  0  0  0  0
  5  6  2  0  0  0  0
  6  7  1  0  0  0  0
  7  8  1  0  0  0  0
  7 27  2  0  0  0  0
  8  9  1  0  0  0  0
  9 10  2  0  0  0  0
  9 17  1  0  0  0  0
 10 11  1  0  0  0  0
 11 12  2  0  0  0  0
 11 18  1  0  0  0  0
 12 13  1  0  0  0  0
 13 14  1  0  0  0  0
 13 17  1  0  0  0  0
 14 15  2  0  0  0  0
 15 16  1  0  0  0  0
 16 17  2  0  0  0  0
 18 19  2  0  0  0  0
 18 26  1  0  0  0  0
 19 20  1  0  0  0  0
 20 21  2  0  0  0  0
 21 22  1  0  0  0  0
 21 25  1  0  0  0  0
 22 23  2  0  0  0  0
 23 24  1  0  0  0  0
 24 25  1  0  0  0  0
 25 26  2  0  0  0  0
  1 28  1  0  0  0  0
  1 29  1  0  0  0  0
  1 30  1  0  0  0  0
  4 31  1  0  0  0  0
  5 32  1  0  0  0  0
  6 33  1  0  0  0  0
  8 34  1  0  0  0  0
 12 35  1  0  0  0  0
 14 36  1  0  0  0  0
 15 37  1  0  0  0  0
 19 38  1  0  0  0  0
 20 39  1  0  0  0  0
 22 40  1  0  0  0  0
 24 41  1  0  0  0  0
 26 42  1  0  0  0  0
 27 43  1  0  0  0  0
M  END
> <IC50[nM]>
8.5

$$$$
CHEMBL3265028
  -OEChem-05192314333D
 Structure written by MMmdl.
 43 47  0     0  0  0  0  0  0999 V2000
   -1.9509    0.6794   12.3551 C   0  0  0  0  0  0  0  0  0  0  0  0
   -2.6175   -0.2972   13.1574 O   0  0  0  0  0  0  0  0  0  0  0  0
   -1.8696   -1.0545   14.0449 C   0  0  0  0  0  0  0  0  0  0  0  0
   -2.5006   -2.0822   14.7698 C   0  0  0  0  0  0  0  0  0  0  0  0
   -1.7540   -2.8524   15.6585 C   0  0  0  0  0  0  0  0  0  0  0  0
   -0.3950   -2.6038   15.8322 C   0  0  0  0  0  0  0  0  0  0  0  0
    0.2324   -1.5851   15.1260 C   0  0  0  0  0  0  0  0  0  0  0  0
    1.6168   -1.3648   15.3699 N   0  0  0  0  0  0  0  0  0  0  0  0
    2.5420   -0.4570   14.7968 C   0  0  0  0  0  0  0  0  0  0  0  0
    2.1720    0.3831   13.7786 N   0  0  0  0  0  0  0  0  0  0  0  0
    3.1103    1.2383   13.2419 C   0  0  0  0  0  0  0  0  0  0  0  0
    4.3968    1.2792   13.7037 C   0  0  0  0  0  0  0  0  0  0  0  0
    4.7381    0.4944   14.7692 N   0  0  0  0  0  0  0  0  0  0  0  0
    5.8928    0.3893   15.4752 C   0  0  0  0  0  0  0  0  0  0  0  0
    5.6110   -0.5494   16.5068 C   0  0  0  0  0  0  0  0  0  0  0  0
    4.4002   -1.0741   16.3612 N   0  0  0  0  0  0  0  0  0  0  0  0
    3.8444   -0.3918   15.3407 C   0  0  0  0  0  0  0  0  0  0  0  0
    2.6282    2.1384   12.1226 C   0  0  0  0  0  0  0  0  0  0  0  0
    3.5442    2.6282   11.1721 C   0  0  0  0  0  0  0  0  0  0  0  0
    3.1497    3.4552   10.1130 C   0  0  0  0  0  0  0  0  0  0  0  0
    1.8035    3.8107   10.0226 C   0  0  0  0  0  0  0  0  0  0  0  0
    0.9910    4.6054    9.1269 C   0  0  0  0  0  0  0  0  0  0  0  0
   -0.2498    4.6130    9.5297 N   0  0  0  0  0  0  0  0  0  0  0  0
   -0.3276    3.8827   10.6287 N   0  0  0  0  0  0  0  0  0  0  0  0
    0.8922    3.3455   10.9868 C   0  0  0  0  0  0  0  0  0  0  0  0
    1.2628    2.5119   12.0466 C   0  0  0  0  0  0  0  0  0  0  0  0
   -0.5121   -0.8124   14.2226 C   0  0  0  0  0  0  0  0  0  0  0  0
   -2.6836    1.1877   11.7110 H   0  0  0  0  0  0  0  0  0  0  0  0
   -1.4618    1.4178   13.0075 H   0  0  0  0  0  0  0  0  0  0  0  0
   -1.1937    0.1846   11.7292 H   0  0  0  0  0  0  0  0  0  0  0  0
   -3.5555   -2.2724   14.6382 H   0  0  0  0  0  0  0  0  0  0  0  0
   -2.2311   -3.6455   16.2150 H   0  0  0  0  0  0  0  0  0  0  0  0
    0.1761   -3.2079   16.5216 H   0  0  0  0  0  0  0  0  0  0  0  0
    2.0079   -1.9582   16.0734 H   0  0  0  0  0  0  0  0  0  0  0  0
    5.1294    1.9197   13.2352 H   0  0  0  0  0  0  0  0  0  0  0  0
    6.8235    0.9061   15.2933 H   0  0  0  0  0  0  0  0  0  0  0  0
    6.2935   -0.8022   17.3047 H   0  0  0  0  0  0  0  0  0  0  0  0
    4.5857    2.3571   11.2628 H   0  0  0  0  0  0  0  0  0  0  0  0
    3.8671    3.8078    9.3868 H   0  0  0  0  0  0  0  0  0  0  0  0
    1.3590    5.1186    8.2507 H   0  0  0  0  0  0  0  0  0  0  0  0
   -1.0091    5.0881    9.0849 H   0  0  0  0  0  0  0  0  0  0  0  0
    0.5419    2.1684   12.7738 H   0  0  0  0  0  0  0  0  0  0  0  0
   -0.0286   -0.0257   13.6625 H   0  0  0  0  0  0  0  0  0  0  0  0
  1  2  1  0  0  0  0
  2  3  1  0  0  0  0
  3  4  2  0  0  0  0
  3 27  1  0  0  0  0
  4  5  1  0  0  0  0
  5  6  2  0  0  0  0
  6  7  1  0  0  0  0
  7  8  1  0  0  0  0
  7 27  2  0  0  0  0
  8  9  1  0  0  0  0
  9 10  2  0  0  0  0
  9 17  1  0  0  0  0
 10 11  1  0  0  0  0
 11 12  2  0  0  0  0
 11 18  1  0  0  0  0
 12 13  1  0  0  0  0
 13 14  1  0  0  0  0
 13 17  1  0  0  0  0
 14 15  2  0  0  0  0
 15 16  1  0  0  0  0
 16 17  2  0  0  0  0
 18 19  1  0  0  0  0
 18 26  2  0  0  0  0
 19 20  2  0  0  0  0
 20 21  1  0  0  0  0
 21 22  2  0  0  0  0
 21 25  1  0  0  0  0
 22 23  1  0  0  0  0
 23 24  1  0  0  0  0
 24 25  2  0  0  0  0
 25 26  1  0  0  0  0
  1 28  1  0  0  0  0
  1 29  1  0  0  0  0
  1 30  1  0  0  0  0
  4 31  1  0  0  0  0
  5 32  1  0  0  0  0
  6 33  1  0  0  0  0
  8 34  1  0  0  0  0
 12 35  1  0  0  0  0
 14 36  1  0  0  0  0
 15 37  1  0  0  0  0
 19 38  1  0  0  0  0
 20 39  1  0  0  0  0
 22 40  1  0  0  0  0
 23 41  1  0  0  0  0
 26 42  1  0  0  0  0
 27 43  1  0  0  0  0
M  END
> <IC50[nM]>
8.5

$$$$
CHEMBL3265028
  -OEChem-05192314333D
 Structure written by MMmdl.
 43 47  0     0  0  0  0  0  0999 V2000
   -1.9509    0.6794   12.3551 C   0  0  0  0  0  0  0  0  0  0  0  0
   -2.6175   -0.2972   13.1574 O   0  0  0  0  0  0  0  0  0  0  0  0
   -1.8696   -1.0545   14.0449 C   0  0  0  0  0  0  0  0  0  0  0  0
   -2.5006   -2.0822   14.7698 C   0  0  0  0  0  0  0  0  0  0  0  0
   -1.7540   -2.8524   15.6585 C   0  0  0  0  0  0  0  0  0  0  0  0
   -0.3950   -2.6038   15.8322 C   0  0  0  0  0  0  0  0  0  0  0  0
    0.2324   -1.5851   15.1260 C   0  0  0  0  0  0  0  0  0  0  0  0
    1.6168   -1.3648   15.3699 N   0  0  0  0  0  0  0  0  0  0  0  0
    2.5420   -0.4570   14.7968 C   0  0  0  0  0  0  0  0  0  0  0  0
    2.1720    0.3831   13.7786 N   0  0  0  0  0  0  0  0  0  0  0  0
    3.1103    1.2383   13.2419 C   0  0  0  0  0  0  0  0  0  0  0  0
    4.3968    1.2792   13.7037 C   0  0  0  0  0  0  0  0  0  0  0  0
    4.7381    0.4944   14.7692 N   0  0  0  0  0  0  0  0  0  0  0  0
    5.8928    0.3893   15.4752 C   0  0  0  0  0  0  0  0  0  0  0  0
    5.6110   -0.5494   16.5068 C   0  0  0  0  0  0  0  0  0  0  0  0
    4.4002   -1.0741   16.3612 N   0  0  0  0  0  0  0  0  0  0  0  0
    3.8444   -0.3918   15.3407 C   0  0  0  0  0  0  0  0  0  0  0  0
    2.6282    2.1384   12.1226 C   0  0  0  0  0  0  0  0  0  0  0  0
    3.5442    2.6282   11.1721 C   0  0  0  0  0  0  0  0  0  0  0  0
    3.1497    3.4552   10.1130 C   0  0  0  0  0  0  0  0  0  0  0  0
    1.8035    3.8107   10.0226 C   0  0  0  0  0  0  0  0  0  0  0  0
    0.9910    4.6054    9.1269 C   0  0  0  0  0  0  0  0  0  0  0  0
   -0.2498    4.6130    9.5297 N   0  0  0  0  0  0  0  0  0  0  0  0
   -0.3276    3.8827   10.6287 N   0  0  0  0  0  0  0  0  0  0  0  0
    0.8922    3.3455   10.9868 C   0  0  0  0  0  0  0  0  0  0  0  0
    1.2628    2.5119   12.0466 C   0  0  0  0  0  0  0  0  0  0  0  0
   -0.5121   -0.8124   14.2226 C   0  0  0  0  0  0  0  0  0  0  0  0
   -2.6836    1.1877   11.7110 H   0  0  0  0  0  0  0  0  0  0  0  0
   -1.4618    1.4178   13.0075 H   0  0  0  0  0  0  0  0  0  0  0  0
   -1.1937    0.1846   11.7292 H   0  0  0  0  0  0  0  0  0  0  0  0
   -3.5555   -2.2724   14.6382 H   0  0  0  0  0  0  0  0  0  0  0  0
   -2.2311   -3.6455   16.2150 H   0  0  0  0  0  0  0  0  0  0  0  0
    0.1761   -3.2079   16.5216 H   0  0  0  0  0  0  0  0  0  0  0  0
    1.2347    0.3756   13.4302 H   0  0  0  0  0  0  0  0  0  0  0  0
    5.1294    1.9197   13.2352 H   0  0  0  0  0  0  0  0  0  0  0  0
    6.8235    0.9061   15.2933 H   0  0  0  0  0  0  0  0  0  0  0  0
    6.2935   -0.8022   17.3047 H   0  0  0  0  0  0  0  0  0  0  0  0
    4.5857    2.3571   11.2628 H   0  0  0  0  0  0  0  0  0  0  0  0
    3.8671    3.8078    9.3868 H   0  0  0  0  0  0  0  0  0  0  0  0
    1.3590    5.1186    8.2507 H   0  0  0  0  0  0  0  0  0  0  0  0
   -1.1733    3.7362   11.1418 H   0  0  0  0  0  0  0  0  0  0  0  0
    0.5419    2.1684   12.7738 H   0  0  0  0  0  0  0  0  0  0  0  0
   -0.0286   -0.0257   13.6625 H   0  0  0  0  0  0  0  0  0  0  0  0
  1  2  1  0  0  0  0
  2  3  1  0  0  0  0
  3  4  2  0  0  0  0
  3 27  1  0  0  0  0
  4  5  1  0  0  0  0
  5  6  2  0  0  0  0
  6  7  1  0  0  0  0
  7  8  1  0  0  0  0
  7 27  2  0  0  0  0
  8  9  2  0  0  0  0
  9 10  1  0  0  0  0
  9 17  1  0  0  0  0
 10 11  1  0  0  0  0
 11 12  2  0  0  0  0
 11 18  1  0  0  0  0
 12 13  1  0  0  0  0
 13 14  1  0  0  0  0
 13 17  1  0  0  0  0
 14 15  2  0  0  0  0
 15 16  1  0  0  0  0
 16 17  2  0  0  0  0
 18 19  2  0  0  0  0
 18 26  1  0  0  0  0
 19 20  1  0  0  0  0
 20 21  2  0  0  0  0
 21 22  1  0  0  0  0
 21 25  1  0  0  0  0
 22 23  2  0  0  0  0
 23 24  1  0  0  0  0
 24 25  1  0  0  0  0
 25 26  2  0  0  0  0
  1 28  1  0  0  0  0
  1 29  1  0  0  0  0
  1 30  1  0  0  0  0
  4 31  1  0  0  0  0
  5 32  1  0  0  0  0
  6 33  1  0  0  0  0
 10 34  1  0  0  0  0
 12 35  1  0  0  0  0
 14 36  1  0  0  0  0
 15 37  1  0  0  0  0
 19 38  1  0  0  0  0
 20 39  1  0  0  0  0
 22 40  1  0  0  0  0
 24 41  1  0  0  0  0
 26 42  1  0  0  0  0
 27 43  1  0  0  0  0
M  END
> <IC50[nM]>
8.5

$$$$
CHEMBL3265028
  -OEChem-05192314333D
 Structure written by MMmdl.
 43 47  0     0  0  0  0  0  0999 V2000
   -1.9509    0.6794   12.3551 C   0  0  0  0  0  0  0  0  0  0  0  0
   -2.6175   -0.2972   13.1574 O   0  0  0  0  0  0  0  0  0  0  0  0
   -1.8696   -1.0545   14.0449 C   0  0  0  0  0  0  0  0  0  0  0  0
   -2.5006   -2.0822   14.7698 C   0  0  0  0  0  0  0  0  0  0  0  0
   -1.7540   -2.8524   15.6585 C   0  0  0  0  0  0  0  0  0  0  0  0
   -0.3950   -2.6038   15.8322 C   0  0  0  0  0  0  0  0  0  0  0  0
    0.2324   -1.5851   15.1260 C   0  0  0  0  0  0  0  0  0  0  0  0
    1.6168   -1.3648   15.3699 N   0  0  0  0  0  0  0  0  0  0  0  0
    2.5420   -0.4570   14.7968 C   0  0  0  0  0  0  0  0  0  0  0  0
    2.1720    0.3831   13.7786 N   0  0  0  0  0  0  0  0  0  0  0  0
    3.1103    1.2383   13.2419 C   0  0  0  0  0  0  0  0  0  0  0  0
    4.3968    1.2792   13.7037 C   0  0  0  0  0  0  0  0  0  0  0  0
    4.7381    0.4944   14.7692 N   0  0  0  0  0  0  0  0  0  0  0  0
    5.8928    0.3893   15.4752 C   0  0  0  0  0  0  0  0  0  0  0  0
    5.6110   -0.5494   16.5068 C   0  0  0  0  0  0  0  0  0  0  0  0
    4.4002   -1.0741   16.3612 N   0  0  0  0  0  0  0  0  0  0  0  0
    3.8444   -0.3918   15.3407 C   0  0  0  0  0  0  0  0  0  0  0  0
    2.6282    2.1384   12.1226 C   0  0  0  0  0  0  0  0  0  0  0  0
    3.5442    2.6282   11.1721 C   0  0  0  0  0  0  0  0  0  0  0  0
    3.1497    3.4552   10.1130 C   0  0  0  0  0  0  0  0  0  0  0  0
    1.8035    3.8107   10.0226 C   0  0  0  0  0  0  0  0  0  0  0  0
    0.9910    4.6054    9.1269 C   0  0  0  0  0  0  0  0  0  0  0  0
   -0.2498    4.6130    9.5297 N   0  0  0  0  0  0  0  0  0  0  0  0
   -0.3276    3.8827   10.6287 N   0  0  0  0  0  0  0  0  0  0  0  0
    0.8922    3.3455   10.9868 C   0  0  0  0  0  0  0  0  0  0  0  0
    1.2628    2.5119   12.0466 C   0  0  0  0  0  0  0  0  0  0  0  0
   -0.5121   -0.8124   14.2226 C   0  0  0  0  0  0  0  0  0  0  0  0
   -2.6836    1.1877   11.7110 H   0  0  0  0  0  0  0  0  0  0  0  0
   -1.4618    1.4178   13.0075 H   0  0  0  0  0  0  0  0  0  0  0  0
   -1.1937    0.1846   11.7292 H   0  0  0  0  0  0  0  0  0  0  0  0
   -3.5555   -2.2724   14.6382 H   0  0  0  0  0  0  0  0  0  0  0  0
   -2.2311   -3.6455   16.2150 H   0  0  0  0  0  0  0  0  0  0  0  0
    0.1761   -3.2079   16.5216 H   0  0  0  0  0  0  0  0  0  0  0  0
    1.2347    0.3756   13.4302 H   0  0  0  0  0  0  0  0  0  0  0  0
    5.1294    1.9197   13.2352 H   0  0  0  0  0  0  0  0  0  0  0  0
    6.8235    0.9061   15.2933 H   0  0  0  0  0  0  0  0  0  0  0  0
    6.2935   -0.8022   17.3047 H   0  0  0  0  0  0  0  0  0  0  0  0
    4.5857    2.3571   11.2628 H   0  0  0  0  0  0  0  0  0  0  0  0
    3.8671    3.8078    9.3868 H   0  0  0  0  0  0  0  0  0  0  0  0
    1.3590    5.1186    8.2507 H   0  0  0  0  0  0  0  0  0  0  0  0
   -1.0091    5.0881    9.0849 H   0  0  0  0  0  0  0  0  0  0  0  0
    0.5419    2.1684   12.7738 H   0  0  0  0  0  0  0  0  0  0  0  0
   -0.0286   -0.0257   13.6625 H   0  0  0  0  0  0  0  0  0  0  0  0
  1  2  1  0  0  0  0
  2  3  1  0  0  0  0
  3  4  2  0  0  0  0
  3 27  1  0  0  0  0
  4  5  1  0  0  0  0
  5  6  2  0  0  0  0
  6  7  1  0  0  0  0
  7  8  1  0  0  0  0
  7 27  2  0  0  0  0
  8  9  2  0  0  0  0
  9 10  1  0  0  0  0
  9 17  1  0  0  0  0
 10 11  1  0  0  0  0
 11 12  2  0  0  0  0
 11 18  1  0  0  0  0
 12 13  1  0  0  0  0
 13 14  1  0  0  0  0
 13 17  1  0  0  0  0
 14 15  2  0  0  0  0
 15 16  1  0  0  0  0
 16 17  2  0  0  0  0
 18 19  1  0  0  0  0
 18 26  2  0  0  0  0
 19 20  2  0  0  0  0
 20 21  1  0  0  0  0
 21 22  2  0  0  0  0
 21 25  1  0  0  0  0
 22 23  1  0  0  0  0
 23 24  1  0  0  0  0
 24 25  2  0  0  0  0
 25 26  1  0  0  0  0
  1 28  1  0  0  0  0
  1 29  1  0  0  0  0
  1 30  1  0  0  0  0
  4 31  1  0  0  0  0
  5 32  1  0  0  0  0
  6 33  1  0  0  0  0
 10 34  1  0  0  0  0
 12 35  1  0  0  0  0
 14 36  1  0  0  0  0
 15 37  1  0  0  0  0
 19 38  1  0  0  0  0
 20 39  1  0  0  0  0
 22 40  1  0  0  0  0
 23 41  1  0  0  0  0
 26 42  1  0  0  0  0
 27 43  1  0  0  0  0
M  END
> <IC50[nM]>
8.5

$$$$
CHEMBL3265028
  -OEChem-05192314333D
 Structure written by MMmdl.
 43 47  0     0  0  0  0  0  0999 V2000
   -1.9509    0.6794   12.3551 C   0  0  0  0  0  0  0  0  0  0  0  0
   -2.6175   -0.2972   13.1574 O   0  0  0  0  0  0  0  0  0  0  0  0
   -1.8696   -1.0545   14.0449 C   0  0  0  0  0  0  0  0  0  0  0  0
   -2.5006   -2.0822   14.7698 C   0  0  0  0  0  0  0  0  0  0  0  0
   -1.7540   -2.8524   15.6585 C   0  0  0  0  0  0  0  0  0  0  0  0
   -0.3950   -2.6038   15.8322 C   0  0  0  0  0  0  0  0  0  0  0  0
    0.2324   -1.5851   15.1260 C   0  0  0  0  0  0  0  0  0  0  0  0
    1.6168   -1.3648   15.3699 N   0  0  0  0  0  0  0  0  0  0  0  0
    2.5420   -0.4570   14.7968 C   0  0  0  0  0  0  0  0  0  0  0  0
    2.1720    0.3831   13.7786 N   0  0  0  0  0  0  0  0  0  0  0  0
    3.1103    1.2383   13.2419 C   0  0  0  0  0  0  0  0  0  0  0  0
    4.3968    1.2792   13.7037 C   0  0  0  0  0  0  0  0  0  0  0  0
    4.7381    0.4944   14.7692 N   0  0  0  0  0  0  0  0  0  0  0  0
    5.8928    0.3893   15.4752 C   0  0  0  0  0  0  0  0  0  0  0  0
    5.6110   -0.5494   16.5068 C   0  0  0  0  0  0  0  0  0  0  0  0
    4.4002   -1.0741   16.3612 N   0  0  0  0  0  0  0  0  0  0  0  0
    3.8444   -0.3918   15.3407 C   0  0  0  0  0  0  0  0  0  0  0  0
    2.6282    2.1384   12.1226 C   0  0  0  0  0  0  0  0  0  0  0  0
    3.5442    2.6282   11.1721 C   0  0  0  0  0  0  0  0  0  0  0  0
    3.1497    3.4552   10.1130 C   0  0  0  0  0  0  0  0  0  0  0  0
    1.8035    3.8107   10.0226 C   0  0  0  0  0  0  0  0  0  0  0  0
    0.9910    4.6054    9.1269 C   0  0  0  0  0  0  0  0  0  0  0  0
   -0.2498    4.6130    9.5297 N   0  0  0  0  0  0  0  0  0  0  0  0
   -0.3276    3.8827   10.6287 N   0  0  0  0  0  0  0  0  0  0  0  0
    0.8922    3.3455   10.9868 C   0  0  0  0  0  0  0  0  0  0  0  0
    1.2628    2.5119   12.0466 C   0  0  0  0  0  0  0  0  0  0  0  0
   -0.5121   -0.8124   14.2226 C   0  0  0  0  0  0  0  0  0  0  0  0
   -2.6836    1.1877   11.7110 H   0  0  0  0  0  0  0  0  0  0  0  0
   -1.4618    1.4178   13.0075 H   0  0  0  0  0  0  0  0  0  0  0  0
   -1.1937    0.1846   11.7292 H   0  0  0  0  0  0  0  0  0  0  0  0
   -3.5555   -2.2724   14.6382 H   0  0  0  0  0  0  0  0  0  0  0  0
   -2.2311   -3.6455   16.2150 H   0  0  0  0  0  0  0  0  0  0  0  0
    0.1761   -3.2079   16.5216 H   0  0  0  0  0  0  0  0  0  0  0  0
    2.0079   -1.9582   16.0734 H   0  0  0  0  0  0  0  0  0  0  0  0
    5.1294    1.9197   13.2352 H   0  0  0  0  0  0  0  0  0  0  0  0
    6.8235    0.9061   15.2933 H   0  0  0  0  0  0  0  0  0  0  0  0
    6.2935   -0.8022   17.3047 H   0  0  0  0  0  0  0  0  0  0  0  0
    4.5857    2.3571   11.2628 H   0  0  0  0  0  0  0  0  0  0  0  0
    3.8671    3.8078    9.3868 H   0  0  0  0  0  0  0  0  0  0  0  0
    1.3732    5.6367    9.1086 H   0  0  0  0  0  0  0  0  0  0  0  0
    1.0416    4.1776    8.1148 H   0  0  0  0  0  0  0  0  0  0  0  0
    0.5419    2.1684   12.7738 H   0  0  0  0  0  0  0  0  0  0  0  0
   -0.0286   -0.0257   13.6625 H   0  0  0  0  0  0  0  0  0  0  0  0
  1  2  1  0  0  0  0
  2  3  1  0  0  0  0
  3  4  2  0  0  0  0
  3 27  1  0  0  0  0
  4  5  1  0  0  0  0
  5  6  2  0  0  0  0
  6  7  1  0  0  0  0
  7  8  1  0  0  0  0
  7 27  2  0  0  0  0
  8  9  1  0  0  0  0
  9 10  2  0  0  0  0
  9 17  1  0  0  0  0
 10 11  1  0  0  0  0
 11 12  2  0  0  0  0
 11 18  1  0  0  0  0
 12 13  1  0  0  0  0
 13 14  1  0  0  0  0
 13 17  1  0  0  0  0
 14 15  2  0  0  0  0
 15 16  1  0  0  0  0
 16 17  2  0  0  0  0
 18 19  2  0  0  0  0
 18 26  1  0  0  0  0
 19 20  1  0  0  0  0
 20 21  2  0  0  0  0
 21 22  1  0  0  0  0
 21 25  1  0  0  0  0
 22 23  1  0  0  0  0
 23 24  2  0  0  0  0
 24 25  1  0  0  0  0
 25 26  2  0  0  0  0
  1 28  1  0  0  0  0
  1 29  1  0  0  0  0
  1 30  1  0  0  0  0
  4 31  1  0  0  0  0
  5 32  1  0  0  0  0
  6 33  1  0  0  0  0
  8 34  1  0  0  0  0
 12 35  1  0  0  0  0
 14 36  1  0  0  0  0
 15 37  1  0  0  0  0
 19 38  1  0  0  0  0
 20 39  1  0  0  0  0
 22 40  1  0  0  0  0
 22 41  1  0  0  0  0
 26 42  1  0  0  0  0
 27 43  1  0  0  0  0
M  END
> <IC50[nM]>
8.5

$$$$
CHEMBL3265028
  -OEChem-05192314333D
 Structure written by MMmdl.
 43 47  0     0  0  0  0  0  0999 V2000
   -1.9509    0.6794   12.3551 C   0  0  0  0  0  0  0  0  0  0  0  0
   -2.6175   -0.2972   13.1574 O   0  0  0  0  0  0  0  0  0  0  0  0
   -1.8696   -1.0545   14.0449 C   0  0  0  0  0  0  0  0  0  0  0  0
   -2.5006   -2.0822   14.7698 C   0  0  0  0  0  0  0  0  0  0  0  0
   -1.7540   -2.8524   15.6585 C   0  0  0  0  0  0  0  0  0  0  0  0
   -0.3950   -2.6038   15.8322 C   0  0  0  0  0  0  0  0  0  0  0  0
    0.2324   -1.5851   15.1260 C   0  0  0  0  0  0  0  0  0  0  0  0
    1.6168   -1.3648   15.3699 N   0  0  0  0  0  0  0  0  0  0  0  0
    2.5420   -0.4570   14.7968 C   0  0  0  0  0  0  0  0  0  0  0  0
    2.1720    0.3831   13.7786 N   0  0  0  0  0  0  0  0  0  0  0  0
    3.1103    1.2383   13.2419 C   0  0  0  0  0  0  0  0  0  0  0  0
    4.3968    1.2792   13.7037 C   0  0  0  0  0  0  0  0  0  0  0  0
    4.7381    0.4944   14.7692 N   0  0  0  0  0  0  0  0  0  0  0  0
    5.8928    0.3893   15.4752 C   0  0  0  0  0  0  0  0  0  0  0  0
    5.6110   -0.5494   16.5068 C   0  0  0  0  0  0  0  0  0  0  0  0
    4.4002   -1.0741   16.3612 N   0  0  0  0  0  0  0  0  0  0  0  0
    3.8444   -0.3918   15.3407 C   0  0  0  0  0  0  0  0  0  0  0  0
    2.6282    2.1384   12.1226 C   0  0  0  0  0  0  0  0  0  0  0  0
    3.5442    2.6282   11.1721 C   0  0  0  0  0  0  0  0  0  0  0  0
    3.1497    3.4552   10.1130 C   0  0  0  0  0  0  0  0  0  0  0  0
    1.8035    3.8107   10.0226 C   0  0  0  0  0  0  0  0  0  0  0  0
    0.9910    4.6054    9.1269 C   0  0  0  0  0  0  0  0  0  0  0  0
   -0.2498    4.6130    9.5297 N   0  0  0  0  0  0  0  0  0  0  0  0
   -0.3276    3.8827   10.6287 N   0  0  0  0  0  0  0  0  0  0  0  0
    0.8922    3.3455   10.9868 C   0  0  0  0  0  0  0  0  0  0  0  0
    1.2628    2.5119   12.0466 C   0  0  0  0  0  0  0  0  0  0  0  0
   -0.5121   -0.8124   14.2226 C   0  0  0  0  0  0  0  0  0  0  0  0
   -2.6836    1.1877   11.7110 H   0  0  0  0  0  0  0  0  0  0  0  0
   -1.4618    1.4178   13.0075 H   0  0  0  0  0  0  0  0  0  0  0  0
   -1.1937    0.1846   11.7292 H   0  0  0  0  0  0  0  0  0  0  0  0
   -3.5555   -2.2724   14.6382 H   0  0  0  0  0  0  0  0  0  0  0  0
   -2.2311   -3.6455   16.2150 H   0  0  0  0  0  0  0  0  0  0  0  0
    0.1761   -3.2079   16.5216 H   0  0  0  0  0  0  0  0  0  0  0  0
    1.2347    0.3756   13.4302 H   0  0  0  0  0  0  0  0  0  0  0  0
    5.1294    1.9197   13.2352 H   0  0  0  0  0  0  0  0  0  0  0  0
    6.8235    0.9061   15.2933 H   0  0  0  0  0  0  0  0  0  0  0  0
    6.2935   -0.8022   17.3047 H   0  0  0  0  0  0  0  0  0  0  0  0
    4.5857    2.3571   11.2628 H   0  0  0  0  0  0  0  0  0  0  0  0
    3.8671    3.8078    9.3868 H   0  0  0  0  0  0  0  0  0  0  0  0
    1.3732    5.6367    9.1086 H   0  0  0  0  0  0  0  0  0  0  0  0
    1.0416    4.1776    8.1148 H   0  0  0  0  0  0  0  0  0  0  0  0
    0.5419    2.1684   12.7738 H   0  0  0  0  0  0  0  0  0  0  0  0
   -0.0286   -0.0257   13.6625 H   0  0  0  0  0  0  0  0  0  0  0  0
  1  2  1  0  0  0  0
  2  3  1  0  0  0  0
  3  4  2  0  0  0  0
  3 27  1  0  0  0  0
  4  5  1  0  0  0  0
  5  6  2  0  0  0  0
  6  7  1  0  0  0  0
  7  8  1  0  0  0  0
  7 27  2  0  0  0  0
  8  9  2  0  0  0  0
  9 10  1  0  0  0  0
  9 17  1  0  0  0  0
 10 11  1  0  0  0  0
 11 12  2  0  0  0  0
 11 18  1  0  0  0  0
 12 13  1  0  0  0  0
 13 14  1  0  0  0  0
 13 17  1  0  0  0  0
 14 15  2  0  0  0  0
 15 16  1  0  0  0  0
 16 17  2  0  0  0  0
 18 19  2  0  0  0  0
 18 26  1  0  0  0  0
 19 20  1  0  0  0  0
 20 21  2  0  0  0  0
 21 22  1  0  0  0  0
 21 25  1  0  0  0  0
 22 23  1  0  0  0  0
 23 24  2  0  0  0  0
 24 25  1  0  0  0  0
 25 26  2  0  0  0  0
  1 28  1  0  0  0  0
  1 29  1  0  0  0  0
  1 30  1  0  0  0  0
  4 31  1  0  0  0  0
  5 32  1  0  0  0  0
  6 33  1  0  0  0  0
 10 34  1  0  0  0  0
 12 35  1  0  0  0  0
 14 36  1  0  0  0  0
 15 37  1  0  0  0  0
 19 38  1  0  0  0  0
 20 39  1  0  0  0  0
 22 40  1  0  0  0  0
 22 41  1  0  0  0  0
 26 42  1  0  0  0  0
 27 43  1  0  0  0  0
M  END
> <IC50[nM]>
8.5

$$$$
CHEMBL3265028
  -OEChem-05192314333D
 Structure written by MMmdl.
 43 47  0     0  0  0  0  0  0999 V2000
   -1.9509    0.6794   12.3551 C   0  0  0  0  0  0  0  0  0  0  0  0
   -2.6175   -0.2972   13.1574 O   0  0  0  0  0  0  0  0  0  0  0  0
   -1.8696   -1.0545   14.0449 C   0  0  0  0  0  0  0  0  0  0  0  0
   -2.5006   -2.0822   14.7698 C   0  0  0  0  0  0  0  0  0  0  0  0
   -1.7540   -2.8524   15.6585 C   0  0  0  0  0  0  0  0  0  0  0  0
   -0.3950   -2.6038   15.8322 C   0  0  0  0  0  0  0  0  0  0  0  0
    0.2324   -1.5851   15.1260 C   0  0  0  0  0  0  0  0  0  0  0  0
    1.6168   -1.3648   15.3699 N   0  0  0  0  0  0  0  0  0  0  0  0
    2.5420   -0.4570   14.7968 C   0  0  0  0  0  0  0  0  0  0  0  0
    2.1720    0.3831   13.7786 N   0  0  0  0  0  0  0  0  0  0  0  0
    3.1103    1.2383   13.2419 C   0  0  0  0  0  0  0  0  0  0  0  0
    4.3968    1.2792   13.7037 C   0  0  0  0  0  0  0  0  0  0  0  0
    4.7381    0.4944   14.7692 N   0  0  0  0  0  0  0  0  0  0  0  0
    5.8928    0.3893   15.4752 C   0  0  0  0  0  0  0  0  0  0  0  0
    5.6110   -0.5494   16.5068 C   0  0  0  0  0  0  0  0  0  0  0  0
    4.4002   -1.0741   16.3612 N   0  0  0  0  0  0  0  0  0  0  0  0
    3.8444   -0.3918   15.3407 C   0  0  0  0  0  0  0  0  0  0  0  0
    2.6282    2.1384   12.1226 C   0  0  0  0  0  0  0  0  0  0  0  0
    3.5442    2.6282   11.1721 C   0  0  0  0  0  0  0  0  0  0  0  0
    3.1497    3.4552   10.1130 C   0  0  0  0  0  0  0  0  0  0  0  0
    1.8035    3.8107   10.0226 C   0  0  0  0  0  0  0  0  0  0  0  0
    0.9910    4.6054    9.1269 C   0  0  0  0  0  0  0  0  0  0  0  0
   -0.2498    4.6130    9.5297 N   0  0  0  0  0  0  0  0  0  0  0  0
   -0.3276    3.8827   10.6287 N   0  0  0  0  0  0  0  0  0  0  0  0
    0.8922    3.3455   10.9868 C   0  0  0  0  0  0  0  0  0  0  0  0
    1.2628    2.5119   12.0466 C   0  0  0  0  0  0  0  0  0  0  0  0
   -0.5121   -0.8124   14.2226 C   0  0  0  0  0  0  0  0  0  0  0  0
   -2.6836    1.1877   11.7110 H   0  0  0  0  0  0  0  0  0  0  0  0
   -1.4618    1.4178   13.0075 H   0  0  0  0  0  0  0  0  0  0  0  0
   -1.1937    0.1846   11.7292 H   0  0  0  0  0  0  0  0  0  0  0  0
   -3.5555   -2.2724   14.6382 H   0  0  0  0  0  0  0  0  0  0  0  0
   -2.2311   -3.6455   16.2150 H   0  0  0  0  0  0  0  0  0  0  0  0
    0.1761   -3.2079   16.5216 H   0  0  0  0  0  0  0  0  0  0  0  0
    5.0502    0.9908   12.8671 H   0  0  0  0  0  0  0  0  0  0  0  0
    4.6050    2.3209   13.9893 H   0  0  0  0  0  0  0  0  0  0  0  0
    6.8235    0.9061   15.2933 H   0  0  0  0  0  0  0  0  0  0  0  0
    6.2935   -0.8022   17.3047 H   0  0  0  0  0  0  0  0  0  0  0  0
    4.5857    2.3571   11.2628 H   0  0  0  0  0  0  0  0  0  0  0  0
    3.8671    3.8078    9.3868 H   0  0  0  0  0  0  0  0  0  0  0  0
    1.3590    5.1186    8.2507 H   0  0  0  0  0  0  0  0  0  0  0  0
   -1.1733    3.7362   11.1418 H   0  0  0  0  0  0  0  0  0  0  0  0
    0.5419    2.1684   12.7738 H   0  0  0  0  0  0  0  0  0  0  0  0
   -0.0286   -0.0257   13.6625 H   0  0  0  0  0  0  0  0  0  0  0  0
  1  2  1  0  0  0  0
  2  3  1  0  0  0  0
  3  4  2  0  0  0  0
  3 27  1  0  0  0  0
  4  5  1  0  0  0  0
  5  6  2  0  0  0  0
  6  7  1  0  0  0  0
  7  8  1  0  0  0  0
  7 27  2  0  0  0  0
  8  9  2  0  0  0  0
  9 10  1  0  0  0  0
  9 17  1  0  0  0  0
 10 11  2  0  0  0  0
 11 12  1  0  0  0  0
 11 18  1  0  0  0  0
 12 13  1  0  0  0  0
 13 14  1  0  0  0  0
 13 17  1  0  0  0  0
 14 15  2  0  0  0  0
 15 16  1  0  0  0  0
 16 17  2  0  0  0  0
 18 19  2  0  0  0  0
 18 26  1  0  0  0  0
 19 20  1  0  0  0  0
 20 21  2  0  0  0  0
 21 22  1  0  0  0  0
 21 25  1  0  0  0  0
 22 23  2  0  0  0  0
 23 24  1  0  0  0  0
 24 25  1  0  0  0  0
 25 26  2  0  0  0  0
  1 28  1  0  0  0  0
  1 29  1  0  0  0  0
  1 30  1  0  0  0  0
  4 31  1  0  0  0  0
  5 32  1  0  0  0  0
  6 33  1  0  0  0  0
 12 34  1  0  0  0  0
 12 35  1  0  0  0  0
 14 36  1  0  0  0  0
 15 37  1  0  0  0  0
 19 38  1  0  0  0  0
 20 39  1  0  0  0  0
 22 40  1  0  0  0  0
 24 41  1  0  0  0  0
 26 42  1  0  0  0  0
 27 43  1  0  0  0  0
M  END
> <IC50[nM]>
8.5

$$$$
CHEMBL3265028
  -OEChem-05192314333D
 Structure written by MMmdl.
 43 47  0     0  0  0  0  0  0999 V2000
   -1.9509    0.6794   12.3551 C   0  0  0  0  0  0  0  0  0  0  0  0
   -2.6175   -0.2972   13.1574 O   0  0  0  0  0  0  0  0  0  0  0  0
   -1.8696   -1.0545   14.0449 C   0  0  0  0  0  0  0  0  0  0  0  0
   -2.5006   -2.0822   14.7698 C   0  0  0  0  0  0  0  0  0  0  0  0
   -1.7540   -2.8524   15.6585 C   0  0  0  0  0  0  0  0  0  0  0  0
   -0.3950   -2.6038   15.8322 C   0  0  0  0  0  0  0  0  0  0  0  0
    0.2324   -1.5851   15.1260 C   0  0  0  0  0  0  0  0  0  0  0  0
    1.6168   -1.3648   15.3699 N   0  0  0  0  0  0  0  0  0  0  0  0
    2.5420   -0.4570   14.7968 C   0  0  0  0  0  0  0  0  0  0  0  0
    2.1720    0.3831   13.7786 N   0  0  0  0  0  0  0  0  0  0  0  0
    3.1103    1.2383   13.2419 C   0  0  0  0  0  0  0  0  0  0  0  0
    4.3968    1.2792   13.7037 C   0  0  0  0  0  0  0  0  0  0  0  0
    4.7381    0.4944   14.7692 N   0  0  0  0  0  0  0  0  0  0  0  0
    5.8928    0.3893   15.4752 C   0  0  0  0  0  0  0  0  0  0  0  0
    5.6110   -0.5494   16.5068 C   0  0  0  0  0  0  0  0  0  0  0  0
    4.4002   -1.0741   16.3612 N   0  0  0  0  0  0  0  0  0  0  0  0
    3.8444   -0.3918   15.3407 C   0  0  0  0  0  0  0  0  0  0  0  0
    2.6282    2.1384   12.1226 C   0  0  0  0  0  0  0  0  0  0  0  0
    3.5442    2.6282   11.1721 C   0  0  0  0  0  0  0  0  0  0  0  0
    3.1497    3.4552   10.1130 C   0  0  0  0  0  0  0  0  0  0  0  0
    1.8035    3.8107   10.0226 C   0  0  0  0  0  0  0  0  0  0  0  0
    0.9910    4.6054    9.1269 C   0  0  0  0  0  0  0  0  0  0  0  0
   -0.2498    4.6130    9.5297 N   0  0  0  0  0  0  0  0  0  0  0  0
   -0.3276    3.8827   10.6287 N   0  0  0  0  0  0  0  0  0  0  0  0
    0.8922    3.3455   10.9868 C   0  0  0  0  0  0  0  0  0  0  0  0
    1.2628    2.5119   12.0466 C   0  0  0  0  0  0  0  0  0  0  0  0
   -0.5121   -0.8124   14.2226 C   0  0  0  0  0  0  0  0  0  0  0  0
   -2.6836    1.1877   11.7110 H   0  0  0  0  0  0  0  0  0  0  0  0
   -1.4618    1.4178   13.0075 H   0  0  0  0  0  0  0  0  0  0  0  0
   -1.1937    0.1846   11.7292 H   0  0  0  0  0  0  0  0  0  0  0  0
   -3.5555   -2.2724   14.6382 H   0  0  0  0  0  0  0  0  0  0  0  0
   -2.2311   -3.6455   16.2150 H   0  0  0  0  0  0  0  0  0  0  0  0
    0.1761   -3.2079   16.5216 H   0  0  0  0  0  0  0  0  0  0  0  0
    5.0502    0.9908   12.8671 H   0  0  0  0  0  0  0  0  0  0  0  0
    4.6050    2.3209   13.9893 H   0  0  0  0  0  0  0  0  0  0  0  0
    6.8235    0.9061   15.2933 H   0  0  0  0  0  0  0  0  0  0  0  0
    6.2935   -0.8022   17.3047 H   0  0  0  0  0  0  0  0  0  0  0  0
    4.5857    2.3571   11.2628 H   0  0  0  0  0  0  0  0  0  0  0  0
    3.8671    3.8078    9.3868 H   0  0  0  0  0  0  0  0  0  0  0  0
    1.3590    5.1186    8.2507 H   0  0  0  0  0  0  0  0  0  0  0  0
   -1.0091    5.0881    9.0849 H   0  0  0  0  0  0  0  0  0  0  0  0
    0.5419    2.1684   12.7738 H   0  0  0  0  0  0  0  0  0  0  0  0
   -0.0286   -0.0257   13.6625 H   0  0  0  0  0  0  0  0  0  0  0  0
  1  2  1  0  0  0  0
  2  3  1  0  0  0  0
  3  4  2  0  0  0  0
  3 27  1  0  0  0  0
  4  5  1  0  0  0  0
  5  6  2  0  0  0  0
  6  7  1  0  0  0  0
  7  8  1  0  0  0  0
  7 27  2  0  0  0  0
  8  9  2  0  0  0  0
  9 10  1  0  0  0  0
  9 17  1  0  0  0  0
 10 11  2  0  0  0  0
 11 12  1  0  0  0  0
 11 18  1  0  0  0  0
 12 13  1  0  0  0  0
 13 14  1  0  0  0  0
 13 17  1  0  0  0  0
 14 15  2  0  0  0  0
 15 16  1  0  0  0  0
 16 17  2  0  0  0  0
 18 19  1  0  0  0  0
 18 26  2  0  0  0  0
 19 20  2  0  0  0  0
 20 21  1  0  0  0  0
 21 22  2  0  0  0  0
 21 25  1  0  0  0  0
 22 23  1  0  0  0  0
 23 24  1  0  0  0  0
 24 25  2  0  0  0  0
 25 26  1  0  0  0  0
  1 28  1  0  0  0  0
  1 29  1  0  0  0  0
  1 30  1  0  0  0  0
  4 31  1  0  0  0  0
  5 32  1  0  0  0  0
  6 33  1  0  0  0  0
 12 34  1  0  0  0  0
 12 35  1  0  0  0  0
 14 36  1  0  0  0  0
 15 37  1  0  0  0  0
 19 38  1  0  0  0  0
 20 39  1  0  0  0  0
 22 40  1  0  0  0  0
 23 41  1  0  0  0  0
 26 42  1  0  0  0  0
 27 43  1  0  0  0  0
M  END
> <IC50[nM]>
8.5

$$$$
CHEMBL3265028
  -OEChem-05192314333D
 Structure written by MMmdl.
 43 47  0     0  0  0  0  0  0999 V2000
   -1.9509    0.6794   12.3551 C   0  0  0  0  0  0  0  0  0  0  0  0
   -2.6175   -0.2972   13.1574 O   0  0  0  0  0  0  0  0  0  0  0  0
   -1.8696   -1.0545   14.0449 C   0  0  0  0  0  0  0  0  0  0  0  0
   -2.5006   -2.0822   14.7698 C   0  0  0  0  0  0  0  0  0  0  0  0
   -1.7540   -2.8524   15.6585 C   0  0  0  0  0  0  0  0  0  0  0  0
   -0.3950   -2.6038   15.8322 C   0  0  0  0  0  0  0  0  0  0  0  0
    0.2324   -1.5851   15.1260 C   0  0  0  0  0  0  0  0  0  0  0  0
    1.6168   -1.3648   15.3699 N   0  0  0  0  0  0  0  0  0  0  0  0
    2.5420   -0.4570   14.7968 C   0  0  0  0  0  0  0  0  0  0  0  0
    2.1720    0.3831   13.7786 N   0  0  0  0  0  0  0  0  0  0  0  0
    3.1103    1.2383   13.2419 C   0  0  0  0  0  0  0  0  0  0  0  0
    4.3968    1.2792   13.7037 C   0  0  0  0  0  0  0  0  0  0  0  0
    4.7381    0.4944   14.7692 N   0  0  0  0  0  0  0  0  0  0  0  0
    5.8928    0.3893   15.4752 C   0  0  0  0  0  0  0  0  0  0  0  0
    5.6110   -0.5494   16.5068 C   0  0  0  0  0  0  0  0  0  0  0  0
    4.4002   -1.0741   16.3612 N   0  0  0  0  0  0  0  0  0  0  0  0
    3.8444   -0.3918   15.3407 C   0  0  0  0  0  0  0  0  0  0  0  0
    2.6282    2.1384   12.1226 C   0  0  0  0  0  0  0  0  0  0  0  0
    3.5442    2.6282   11.1721 C   0  0  0  0  0  0  0  0  0  0  0  0
    3.1497    3.4552   10.1130 C   0  0  0  0  0  0  0  0  0  0  0  0
    1.8035    3.8107   10.0226 C   0  0  0  0  0  0  0  0  0  0  0  0
    0.9910    4.6054    9.1269 C   0  0  0  0  0  0  0  0  0  0  0  0
   -0.2498    4.6130    9.5297 N   0  0  0  0  0  0  0  0  0  0  0  0
   -0.3276    3.8827   10.6287 N   0  0  0  0  0  0  0  0  0  0  0  0
    0.8922    3.3455   10.9868 C   0  0  0  0  0  0  0  0  0  0  0  0
    1.2628    2.5119   12.0466 C   0  0  0  0  0  0  0  0  0  0  0  0
   -0.5121   -0.8124   14.2226 C   0  0  0  0  0  0  0  0  0  0  0  0
   -2.6836    1.1877   11.7110 H   0  0  0  0  0  0  0  0  0  0  0  0
   -1.4618    1.4178   13.0075 H   0  0  0  0  0  0  0  0  0  0  0  0
   -1.1937    0.1846   11.7292 H   0  0  0  0  0  0  0  0  0  0  0  0
   -3.3078   -1.6140   15.3522 H   0  0  0  0  0  0  0  0  0  0  0  0
   -2.9341   -2.7741   14.0327 H   0  0  0  0  0  0  0  0  0  0  0  0
   -2.2311   -3.6455   16.2150 H   0  0  0  0  0  0  0  0  0  0  0  0
    0.1761   -3.2079   16.5216 H   0  0  0  0  0  0  0  0  0  0  0  0
    5.1294    1.9197   13.2352 H   0  0  0  0  0  0  0  0  0  0  0  0
    6.8235    0.9061   15.2933 H   0  0  0  0  0  0  0  0  0  0  0  0
    6.2935   -0.8022   17.3047 H   0  0  0  0  0  0  0  0  0  0  0  0
    4.5857    2.3571   11.2628 H   0  0  0  0  0  0  0  0  0  0  0  0
    3.8671    3.8078    9.3868 H   0  0  0  0  0  0  0  0  0  0  0  0
    1.3590    5.1186    8.2507 H   0  0  0  0  0  0  0  0  0  0  0  0
   -1.1733    3.7362   11.1418 H   0  0  0  0  0  0  0  0  0  0  0  0
    0.5419    2.1684   12.7738 H   0  0  0  0  0  0  0  0  0  0  0  0
   -0.0286   -0.0257   13.6625 H   0  0  0  0  0  0  0  0  0  0  0  0
  1  2  1  0  0  0  0
  2  3  1  0  0  0  0
  3  4  1  0  0  0  0
  3 27  2  0  0  0  0
  4  5  1  0  0  0  0
  5  6  2  0  0  0  0
  6  7  1  0  0  0  0
  7  8  2  0  0  0  0
  7 27  1  0  0  0  0
  8  9  1  0  0  0  0
  9 10  2  0  0  0  0
  9 17  1  0  0  0  0
 10 11  1  0  0  0  0
 11 12  2  0  0  0  0
 11 18  1  0  0  0  0
 12 13  1  0  0  0  0
 13 14  1  0  0  0  0
 13 17  1  0  0  0  0
 14 15  2  0  0  0  0
 15 16  1  0  0  0  0
 16 17  2  0  0  0  0
 18 19  2  0  0  0  0
 18 26  1  0  0  0  0
 19 20  1  0  0  0  0
 20 21  2  0  0  0  0
 21 22  1  0  0  0  0
 21 25  1  0  0  0  0
 22 23  2  0  0  0  0
 23 24  1  0  0  0  0
 24 25  1  0  0  0  0
 25 26  2  0  0  0  0
  1 28  1  0  0  0  0
  1 29  1  0  0  0  0
  1 30  1  0  0  0  0
  4 31  1  0  0  0  0
  4 32  1  0  0  0  0
  5 33  1  0  0  0  0
  6 34  1  0  0  0  0
 12 35  1  0  0  0  0
 14 36  1  0  0  0  0
 15 37  1  0  0  0  0
 19 38  1  0  0  0  0
 20 39  1  0  0  0  0
 22 40  1  0  0  0  0
 24 41  1  0  0  0  0
 26 42  1  0  0  0  0
 27 43  1  0  0  0  0
M  END
> <IC50[nM]>
8.5

$$$$
CHEMBL3265028
  -OEChem-05192314333D
 Structure written by MMmdl.
 43 47  0     0  0  0  0  0  0999 V2000
   -1.9509    0.6794   12.3551 C   0  0  0  0  0  0  0  0  0  0  0  0
   -2.6175   -0.2972   13.1574 O   0  0  0  0  0  0  0  0  0  0  0  0
   -1.8696   -1.0545   14.0449 C   0  0  0  0  0  0  0  0  0  0  0  0
   -2.5006   -2.0822   14.7698 C   0  0  0  0  0  0  0  0  0  0  0  0
   -1.7540   -2.8524   15.6585 C   0  0  0  0  0  0  0  0  0  0  0  0
   -0.3950   -2.6038   15.8322 C   0  0  0  0  0  0  0  0  0  0  0  0
    0.2324   -1.5851   15.1260 C   0  0  0  0  0  0  0  0  0  0  0  0
    1.6168   -1.3648   15.3699 N   0  0  0  0  0  0  0  0  0  0  0  0
    2.5420   -0.4570   14.7968 C   0  0  0  0  0  0  0  0  0  0  0  0
    2.1720    0.3831   13.7786 N   0  0  0  0  0  0  0  0  0  0  0  0
    3.1103    1.2383   13.2419 C   0  0  0  0  0  0  0  0  0  0  0  0
    4.3968    1.2792   13.7037 C   0  0  0  0  0  0  0  0  0  0  0  0
    4.7381    0.4944   14.7692 N   0  0  0  0  0  0  0  0  0  0  0  0
    5.8928    0.3893   15.4752 C   0  0  0  0  0  0  0  0  0  0  0  0
    5.6110   -0.5494   16.5068 C   0  0  0  0  0  0  0  0  0  0  0  0
    4.4002   -1.0741   16.3612 N   0  0  0  0  0  0  0  0  0  0  0  0
    3.8444   -0.3918   15.3407 C   0  0  0  0  0  0  0  0  0  0  0  0
    2.6282    2.1384   12.1226 C   0  0  0  0  0  0  0  0  0  0  0  0
    3.5442    2.6282   11.1721 C   0  0  0  0  0  0  0  0  0  0  0  0
    3.1497    3.4552   10.1130 C   0  0  0  0  0  0  0  0  0  0  0  0
    1.8035    3.8107   10.0226 C   0  0  0  0  0  0  0  0  0  0  0  0
    0.9910    4.6054    9.1269 C   0  0  0  0  0  0  0  0  0  0  0  0
   -0.2498    4.6130    9.5297 N   0  0  0  0  0  0  0  0  0  0  0  0
   -0.3276    3.8827   10.6287 N   0  0  0  0  0  0  0  0  0  0  0  0
    0.8922    3.3455   10.9868 C   0  0  0  0  0  0  0  0  0  0  0  0
    1.2628    2.5119   12.0466 C   0  0  0  0  0  0  0  0  0  0  0  0
   -0.5121   -0.8124   14.2226 C   0  0  0  0  0  0  0  0  0  0  0  0
   -2.6836    1.1877   11.7110 H   0  0  0  0  0  0  0  0  0  0  0  0
   -1.4618    1.4178   13.0075 H   0  0  0  0  0  0  0  0  0  0  0  0
   -1.1937    0.1846   11.7292 H   0  0  0  0  0  0  0  0  0  0  0  0
   -3.3078   -1.6140   15.3522 H   0  0  0  0  0  0  0  0  0  0  0  0
   -2.9341   -2.7741   14.0327 H   0  0  0  0  0  0  0  0  0  0  0  0
   -2.2311   -3.6455   16.2150 H   0  0  0  0  0  0  0  0  0  0  0  0
    0.1761   -3.2079   16.5216 H   0  0  0  0  0  0  0  0  0  0  0  0
    5.1294    1.9197   13.2352 H   0  0  0  0  0  0  0  0  0  0  0  0
    6.8235    0.9061   15.2933 H   0  0  0  0  0  0  0  0  0  0  0  0
    6.2935   -0.8022   17.3047 H   0  0  0  0  0  0  0  0  0  0  0  0
    4.5857    2.3571   11.2628 H   0  0  0  0  0  0  0  0  0  0  0  0
    3.8671    3.8078    9.3868 H   0  0  0  0  0  0  0  0  0  0  0  0
    1.3590    5.1186    8.2507 H   0  0  0  0  0  0  0  0  0  0  0  0
   -1.0091    5.0881    9.0849 H   0  0  0  0  0  0  0  0  0  0  0  0
    0.5419    2.1684   12.7738 H   0  0  0  0  0  0  0  0  0  0  0  0
   -0.0286   -0.0257   13.6625 H   0  0  0  0  0  0  0  0  0  0  0  0
  1  2  1  0  0  0  0
  2  3  1  0  0  0  0
  3  4  1  0  0  0  0
  3 27  2  0  0  0  0
  4  5  1  0  0  0  0
  5  6  2  0  0  0  0
  6  7  1  0  0  0  0
  7  8  2  0  0  0  0
  7 27  1  0  0  0  0
  8  9  1  0  0  0  0
  9 10  2  0  0  0  0
  9 17  1  0  0  0  0
 10 11  1  0  0  0  0
 11 12  2  0  0  0  0
 11 18  1  0  0  0  0
 12 13  1  0  0  0  0
 13 14  1  0  0  0  0
 13 17  1  0  0  0  0
 14 15  2  0  0  0  0
 15 16  1  0  0  0  0
 16 17  2  0  0  0  0
 18 19  1  0  0  0  0
 18 26  2  0  0  0  0
 19 20  2  0  0  0  0
 20 21  1  0  0  0  0
 21 22  2  0  0  0  0
 21 25  1  0  0  0  0
 22 23  1  0  0  0  0
 23 24  1  0  0  0  0
 24 25  2  0  0  0  0
 25 26  1  0  0  0  0
  1 28  1  0  0  0  0
  1 29  1  0  0  0  0
  1 30  1  0  0  0  0
  4 31  1  0  0  0  0
  4 32  1  0  0  0  0
  5 33  1  0  0  0  0
  6 34  1  0  0  0  0
 12 35  1  0  0  0  0
 14 36  1  0  0  0  0
 15 37  1  0  0  0  0
 19 38  1  0  0  0  0
 20 39  1  0  0  0  0
 22 40  1  0  0  0  0
 23 41  1  0  0  0  0
 26 42  1  0  0  0  0
 27 43  1  0  0  0  0
M  END
> <IC50[nM]>
8.5

$$$$
CHEMBL3265028
  -OEChem-05192314333D
 Structure written by MMmdl.
 43 47  0     0  0  0  0  0  0999 V2000
   -1.9509    0.6794   12.3551 C   0  0  0  0  0  0  0  0  0  0  0  0
   -2.6175   -0.2972   13.1574 O   0  0  0  0  0  0  0  0  0  0  0  0
   -1.8696   -1.0545   14.0449 C   0  0  0  0  0  0  0  0  0  0  0  0
   -2.5006   -2.0822   14.7698 C   0  0  0  0  0  0  0  0  0  0  0  0
   -1.7540   -2.8524   15.6585 C   0  0  0  0  0  0  0  0  0  0  0  0
   -0.3950   -2.6038   15.8322 C   0  0  0  0  0  0  0  0  0  0  0  0
    0.2324   -1.5851   15.1260 C   0  0  0  0  0  0  0  0  0  0  0  0
    1.6168   -1.3648   15.3699 N   0  0  0  0  0  0  0  0  0  0  0  0
    2.5420   -0.4570   14.7968 C   0  0  0  0  0  0  0  0  0  0  0  0
    2.1720    0.3831   13.7786 N   0  0  0  0  0  0  0  0  0  0  0  0
    3.1103    1.2383   13.2419 C   0  0  0  0  0  0  0  0  0  0  0  0
    4.3968    1.2792   13.7037 C   0  0  0  0  0  0  0  0  0  0  0  0
    4.7381    0.4944   14.7692 N   0  0  0  0  0  0  0  0  0  0  0  0
    5.8928    0.3893   15.4752 C   0  0  0  0  0  0  0  0  0  0  0  0
    5.6110   -0.5494   16.5068 C   0  0  0  0  0  0  0  0  0  0  0  0
    4.4002   -1.0741   16.3612 N   0  0  0  0  0  0  0  0  0  0  0  0
    3.8444   -0.3918   15.3407 C   0  0  0  0  0  0  0  0  0  0  0  0
    2.6282    2.1384   12.1226 C   0  0  0  0  0  0  0  0  0  0  0  0
    3.5442    2.6282   11.1721 C   0  0  0  0  0  0  0  0  0  0  0  0
    3.1497    3.4552   10.1130 C   0  0  0  0  0  0  0  0  0  0  0  0
    1.8035    3.8107   10.0226 C   0  0  0  0  0  0  0  0  0  0  0  0
    0.9910    4.6054    9.1269 C   0  0  0  0  0  0  0  0  0  0  0  0
   -0.2498    4.6130    9.5297 N   0  0  0  0  0  0  0  0  0  0  0  0
   -0.3276    3.8827   10.6287 N   0  0  0  0  0  0  0  0  0  0  0  0
    0.8922    3.3455   10.9868 C   0  0  0  0  0  0  0  0  0  0  0  0
    1.2628    2.5119   12.0466 C   0  0  0  0  0  0  0  0  0  0  0  0
   -0.5121   -0.8124   14.2226 C   0  0  0  0  0  0  0  0  0  0  0  0
   -2.6836    1.1877   11.7110 H   0  0  0  0  0  0  0  0  0  0  0  0
   -1.4618    1.4178   13.0075 H   0  0  0  0  0  0  0  0  0  0  0  0
   -1.1937    0.1846   11.7292 H   0  0  0  0  0  0  0  0  0  0  0  0
   -3.5555   -2.2724   14.6382 H   0  0  0  0  0  0  0  0  0  0  0  0
   -2.2311   -3.6455   16.2150 H   0  0  0  0  0  0  0  0  0  0  0  0
   -0.2492   -2.3829   16.8999 H   0  0  0  0  0  0  0  0  0  0  0  0
    0.1309   -3.5352   15.5753 H   0  0  0  0  0  0  0  0  0  0  0  0
    5.1294    1.9197   13.2352 H   0  0  0  0  0  0  0  0  0  0  0  0
    6.8235    0.9061   15.2933 H   0  0  0  0  0  0  0  0  0  0  0  0
    6.2935   -0.8022   17.3047 H   0  0  0  0  0  0  0  0  0  0  0  0
    4.5857    2.3571   11.2628 H   0  0  0  0  0  0  0  0  0  0  0  0
    3.8671    3.8078    9.3868 H   0  0  0  0  0  0  0  0  0  0  0  0
    1.3590    5.1186    8.2507 H   0  0  0  0  0  0  0  0  0  0  0  0
   -1.1733    3.7362   11.1418 H   0  0  0  0  0  0  0  0  0  0  0  0
    0.5419    2.1684   12.7738 H   0  0  0  0  0  0  0  0  0  0  0  0
   -0.0286   -0.0257   13.6625 H   0  0  0  0  0  0  0  0  0  0  0  0
  1  2  1  0  0  0  0
  2  3  1  0  0  0  0
  3  4  1  0  0  0  0
  3 27  2  0  0  0  0
  4  5  2  0  0  0  0
  5  6  1  0  0  0  0
  6  7  1  0  0  0  0
  7  8  2  0  0  0  0
  7 27  1  0  0  0  0
  8  9  1  0  0  0  0
  9 10  2  0  0  0  0
  9 17  1  0  0  0  0
 10 11  1  0  0  0  0
 11 12  2  0  0  0  0
 11 18  1  0  0  0  0
 12 13  1  0  0  0  0
 13 14  1  0  0  0  0
 13 17  1  0  0  0  0
 14 15  2  0  0  0  0
 15 16  1  0  0  0  0
 16 17  2  0  0  0  0
 18 19  2  0  0  0  0
 18 26  1  0  0  0  0
 19 20  1  0  0  0  0
 20 21  2  0  0  0  0
 21 22  1  0  0  0  0
 21 25  1  0  0  0  0
 22 23  2  0  0  0  0
 23 24  1  0  0  0  0
 24 25  1  0  0  0  0
 25 26  2  0  0  0  0
  1 28  1  0  0  0  0
  1 29  1  0  0  0  0
  1 30  1  0  0  0  0
  4 31  1  0  0  0  0
  5 32  1  0  0  0  0
  6 33  1  0  0  0  0
  6 34  1  0  0  0  0
 12 35  1  0  0  0  0
 14 36  1  0  0  0  0
 15 37  1  0  0  0  0
 19 38  1  0  0  0  0
 20 39  1  0  0  0  0
 22 40  1  0  0  0  0
 24 41  1  0  0  0  0
 26 42  1  0  0  0  0
 27 43  1  0  0  0  0
M  END
> <IC50[nM]>
8.5

$$$$
CHEMBL3265028
  -OEChem-05192314333D
 Structure written by MMmdl.
 43 47  0     0  0  0  0  0  0999 V2000
   -1.9509    0.6794   12.3551 C   0  0  0  0  0  0  0  0  0  0  0  0
   -2.6175   -0.2972   13.1574 O   0  0  0  0  0  0  0  0  0  0  0  0
   -1.8696   -1.0545   14.0449 C   0  0  0  0  0  0  0  0  0  0  0  0
   -2.5006   -2.0822   14.7698 C   0  0  0  0  0  0  0  0  0  0  0  0
   -1.7540   -2.8524   15.6585 C   0  0  0  0  0  0  0  0  0  0  0  0
   -0.3950   -2.6038   15.8322 C   0  0  0  0  0  0  0  0  0  0  0  0
    0.2324   -1.5851   15.1260 C   0  0  0  0  0  0  0  0  0  0  0  0
    1.6168   -1.3648   15.3699 N   0  0  0  0  0  0  0  0  0  0  0  0
    2.5420   -0.4570   14.7968 C   0  0  0  0  0  0  0  0  0  0  0  0
    2.1720    0.3831   13.7786 N   0  0  0  0  0  0  0  0  0  0  0  0
    3.1103    1.2383   13.2419 C   0  0  0  0  0  0  0  0  0  0  0  0
    4.3968    1.2792   13.7037 C   0  0  0  0  0  0  0  0  0  0  0  0
    4.7381    0.4944   14.7692 N   0  0  0  0  0  0  0  0  0  0  0  0
    5.8928    0.3893   15.4752 C   0  0  0  0  0  0  0  0  0  0  0  0
    5.6110   -0.5494   16.5068 C   0  0  0  0  0  0  0  0  0  0  0  0
    4.4002   -1.0741   16.3612 N   0  0  0  0  0  0  0  0  0  0  0  0
    3.8444   -0.3918   15.3407 C   0  0  0  0  0  0  0  0  0  0  0  0
    2.6282    2.1384   12.1226 C   0  0  0  0  0  0  0  0  0  0  0  0
    3.5442    2.6282   11.1721 C   0  0  0  0  0  0  0  0  0  0  0  0
    3.1497    3.4552   10.1130 C   0  0  0  0  0  0  0  0  0  0  0  0
    1.8035    3.8107   10.0226 C   0  0  0  0  0  0  0  0  0  0  0  0
    0.9910    4.6054    9.1269 C   0  0  0  0  0  0  0  0  0  0  0  0
   -0.2498    4.6130    9.5297 N   0  0  0  0  0  0  0  0  0  0  0  0
   -0.3276    3.8827   10.6287 N   0  0  0  0  0  0  0  0  0  0  0  0
    0.8922    3.3455   10.9868 C   0  0  0  0  0  0  0  0  0  0  0  0
    1.2628    2.5119   12.0466 C   0  0  0  0  0  0  0  0  0  0  0  0
   -0.5121   -0.8124   14.2226 C   0  0  0  0  0  0  0  0  0  0  0  0
   -2.6836    1.1877   11.7110 H   0  0  0  0  0  0  0  0  0  0  0  0
   -1.4618    1.4178   13.0075 H   0  0  0  0  0  0  0  0  0  0  0  0
   -1.1937    0.1846   11.7292 H   0  0  0  0  0  0  0  0  0  0  0  0
   -3.5555   -2.2724   14.6382 H   0  0  0  0  0  0  0  0  0  0  0  0
   -2.2311   -3.6455   16.2150 H   0  0  0  0  0  0  0  0  0  0  0  0
   -0.2492   -2.3829   16.8999 H   0  0  0  0  0  0  0  0  0  0  0  0
    0.1309   -3.5352   15.5753 H   0  0  0  0  0  0  0  0  0  0  0  0
    5.1294    1.9197   13.2352 H   0  0  0  0  0  0  0  0  0  0  0  0
    6.8235    0.9061   15.2933 H   0  0  0  0  0  0  0  0  0  0  0  0
    6.2935   -0.8022   17.3047 H   0  0  0  0  0  0  0  0  0  0  0  0
    4.5857    2.3571   11.2628 H   0  0  0  0  0  0  0  0  0  0  0  0
    3.8671    3.8078    9.3868 H   0  0  0  0  0  0  0  0  0  0  0  0
    1.3590    5.1186    8.2507 H   0  0  0  0  0  0  0  0  0  0  0  0
   -1.0091    5.0881    9.0849 H   0  0  0  0  0  0  0  0  0  0  0  0
    0.5419    2.1684   12.7738 H   0  0  0  0  0  0  0  0  0  0  0  0
   -0.0286   -0.0257   13.6625 H   0  0  0  0  0  0  0  0  0  0  0  0
  1  2  1  0  0  0  0
  2  3  1  0  0  0  0
  3  4  1  0  0  0  0
  3 27  2  0  0  0  0
  4  5  2  0  0  0  0
  5  6  1  0  0  0  0
  6  7  1  0  0  0  0
  7  8  2  0  0  0  0
  7 27  1  0  0  0  0
  8  9  1  0  0  0  0
  9 10  2  0  0  0  0
  9 17  1  0  0  0  0
 10 11  1  0  0  0  0
 11 12  2  0  0  0  0
 11 18  1  0  0  0  0
 12 13  1  0  0  0  0
 13 14  1  0  0  0  0
 13 17  1  0  0  0  0
 14 15  2  0  0  0  0
 15 16  1  0  0  0  0
 16 17  2  0  0  0  0
 18 19  1  0  0  0  0
 18 26  2  0  0  0  0
 19 20  2  0  0  0  0
 20 21  1  0  0  0  0
 21 22  2  0  0  0  0
 21 25  1  0  0  0  0
 22 23  1  0  0  0  0
 23 24  1  0  0  0  0
 24 25  2  0  0  0  0
 25 26  1  0  0  0  0
  1 28  1  0  0  0  0
  1 29  1  0  0  0  0
  1 30  1  0  0  0  0
  4 31  1  0  0  0  0
  5 32  1  0  0  0  0
  6 33  1  0  0  0  0
  6 34  1  0  0  0  0
 12 35  1  0  0  0  0
 14 36  1  0  0  0  0
 15 37  1  0  0  0  0
 19 38  1  0  0  0  0
 20 39  1  0  0  0  0
 22 40  1  0  0  0  0
 23 41  1  0  0  0  0
 26 42  1  0  0  0  0
 27 43  1  0  0  0  0
M  END
> <IC50[nM]>
8.5

$$$$
CHEMBL3265028
  -OEChem-05192314333D
 Structure written by MMmdl.
 43 47  0     0  0  0  0  0  0999 V2000
   -1.9509    0.6794   12.3551 C   0  0  0  0  0  0  0  0  0  0  0  0
   -2.6175   -0.2972   13.1574 O   0  0  0  0  0  0  0  0  0  0  0  0
   -1.8696   -1.0545   14.0449 C   0  0  0  0  0  0  0  0  0  0  0  0
   -2.5006   -2.0822   14.7698 C   0  0  0  0  0  0  0  0  0  0  0  0
   -1.7540   -2.8524   15.6585 C   0  0  0  0  0  0  0  0  0  0  0  0
   -0.3950   -2.6038   15.8322 C   0  0  0  0  0  0  0  0  0  0  0  0
    0.2324   -1.5851   15.1260 C   0  0  0  0  0  0  0  0  0  0  0  0
    1.6168   -1.3648   15.3699 N   0  0  0  0  0  0  0  0  0  0  0  0
    2.5420   -0.4570   14.7968 C   0  0  0  0  0  0  0  0  0  0  0  0
    2.1720    0.3831   13.7786 N   0  0  0  0  0  0  0  0  0  0  0  0
    3.1103    1.2383   13.2419 C   0  0  0  0  0  0  0  0  0  0  0  0
    4.3968    1.2792   13.7037 C   0  0  0  0  0  0  0  0  0  0  0  0
    4.7381    0.4944   14.7692 N   0  0  0  0  0  0  0  0  0  0  0  0
    5.8928    0.3893   15.4752 C   0  0  0  0  0  0  0  0  0  0  0  0
    5.6110   -0.5494   16.5068 C   0  0  0  0  0  0  0  0  0  0  0  0
    4.4002   -1.0741   16.3612 N   0  0  0  0  0  0  0  0  0  0  0  0
    3.8444   -0.3918   15.3407 C   0  0  0  0  0  0  0  0  0  0  0  0
    2.6282    2.1384   12.1226 C   0  0  0  0  0  0  0  0  0  0  0  0
    3.5442    2.6282   11.1721 C   0  0  0  0  0  0  0  0  0  0  0  0
    3.1497    3.4552   10.1130 C   0  0  0  0  0  0  0  0  0  0  0  0
    1.8035    3.8107   10.0226 C   0  0  0  0  0  0  0  0  0  0  0  0
    0.9910    4.6054    9.1269 C   0  0  0  0  0  0  0  0  0  0  0  0
   -0.2498    4.6130    9.5297 N   0  0  0  0  0  0  0  0  0  0  0  0
   -0.3276    3.8827   10.6287 N   0  0  0  0  0  0  0  0  0  0  0  0
    0.8922    3.3455   10.9868 C   0  0  0  0  0  0  0  0  0  0  0  0
    1.2628    2.5119   12.0466 C   0  0  0  0  0  0  0  0  0  0  0  0
   -0.5121   -0.8124   14.2226 C   0  0  0  0  0  0  0  0  0  0  0  0
   -2.6836    1.1877   11.7110 H   0  0  0  0  0  0  0  0  0  0  0  0
   -1.4618    1.4178   13.0075 H   0  0  0  0  0  0  0  0  0  0  0  0
   -1.1937    0.1846   11.7292 H   0  0  0  0  0  0  0  0  0  0  0  0
   -3.5555   -2.2724   14.6382 H   0  0  0  0  0  0  0  0  0  0  0  0
   -2.2311   -3.6455   16.2150 H   0  0  0  0  0  0  0  0  0  0  0  0
    0.1761   -3.2079   16.5216 H   0  0  0  0  0  0  0  0  0  0  0  0
    5.1294    1.9197   13.2352 H   0  0  0  0  0  0  0  0  0  0  0  0
    6.8235    0.9061   15.2933 H   0  0  0  0  0  0  0  0  0  0  0  0
    6.2935   -0.8022   17.3047 H   0  0  0  0  0  0  0  0  0  0  0  0
    4.5857    2.3571   11.2628 H   0  0  0  0  0  0  0  0  0  0  0  0
    3.8671    3.8078    9.3868 H   0  0  0  0  0  0  0  0  0  0  0  0
    1.3590    5.1186    8.2507 H   0  0  0  0  0  0  0  0  0  0  0  0
   -1.1733    3.7362   11.1418 H   0  0  0  0  0  0  0  0  0  0  0  0
    0.5419    2.1684   12.7738 H   0  0  0  0  0  0  0  0  0  0  0  0
   -0.0379   -0.9334   13.2375 H   0  0  0  0  0  0  0  0  0  0  0  0
   -0.4177    0.2338   14.5489 H   0  0  0  0  0  0  0  0  0  0  0  0
  1  2  1  0  0  0  0
  2  3  1  0  0  0  0
  3  4  2  0  0  0  0
  3 27  1  0  0  0  0
  4  5  1  0  0  0  0
  5  6  2  0  0  0  0
  6  7  1  0  0  0  0
  7  8  2  0  0  0  0
  7 27  1  0  0  0  0
  8  9  1  0  0  0  0
  9 10  2  0  0  0  0
  9 17  1  0  0  0  0
 10 11  1  0  0  0  0
 11 12  2  0  0  0  0
 11 18  1  0  0  0  0
 12 13  1  0  0  0  0
 13 14  1  0  0  0  0
 13 17  1  0  0  0  0
 14 15  2  0  0  0  0
 15 16  1  0  0  0  0
 16 17  2  0  0  0  0
 18 19  2  0  0  0  0
 18 26  1  0  0  0  0
 19 20  1  0  0  0  0
 20 21  2  0  0  0  0
 21 22  1  0  0  0  0
 21 25  1  0  0  0  0
 22 23  2  0  0  0  0
 23 24  1  0  0  0  0
 24 25  1  0  0  0  0
 25 26  2  0  0  0  0
  1 28  1  0  0  0  0
  1 29  1  0  0  0  0
  1 30  1  0  0  0  0
  4 31  1  0  0  0  0
  5 32  1  0  0  0  0
  6 33  1  0  0  0  0
 12 34  1  0  0  0  0
 14 35  1  0  0  0  0
 15 36  1  0  0  0  0
 19 37  1  0  0  0  0
 20 38  1  0  0  0  0
 22 39  1  0  0  0  0
 24 40  1  0  0  0  0
 26 41  1  0  0  0  0
 27 42  1  0  0  0  0
 27 43  1  0  0  0  0
M  END
> <IC50[nM]>
8.5

$$$$
CHEMBL3265028
  -OEChem-05192314333D
 Structure written by MMmdl.
 43 47  0     0  0  0  0  0  0999 V2000
   -1.9509    0.6794   12.3551 C   0  0  0  0  0  0  0  0  0  0  0  0
   -2.6175   -0.2972   13.1574 O   0  0  0  0  0  0  0  0  0  0  0  0
   -1.8696   -1.0545   14.0449 C   0  0  0  0  0  0  0  0  0  0  0  0
   -2.5006   -2.0822   14.7698 C   0  0  0  0  0  0  0  0  0  0  0  0
   -1.7540   -2.8524   15.6585 C   0  0  0  0  0  0  0  0  0  0  0  0
   -0.3950   -2.6038   15.8322 C   0  0  0  0  0  0  0  0  0  0  0  0
    0.2324   -1.5851   15.1260 C   0  0  0  0  0  0  0  0  0  0  0  0
    1.6168   -1.3648   15.3699 N   0  0  0  0  0  0  0  0  0  0  0  0
    2.5420   -0.4570   14.7968 C   0  0  0  0  0  0  0  0  0  0  0  0
    2.1720    0.3831   13.7786 N   0  0  0  0  0  0  0  0  0  0  0  0
    3.1103    1.2383   13.2419 C   0  0  0  0  0  0  0  0  0  0  0  0
    4.3968    1.2792   13.7037 C   0  0  0  0  0  0  0  0  0  0  0  0
    4.7381    0.4944   14.7692 N   0  0  0  0  0  0  0  0  0  0  0  0
    5.8928    0.3893   15.4752 C   0  0  0  0  0  0  0  0  0  0  0  0
    5.6110   -0.5494   16.5068 C   0  0  0  0  0  0  0  0  0  0  0  0
    4.4002   -1.0741   16.3612 N   0  0  0  0  0  0  0  0  0  0  0  0
    3.8444   -0.3918   15.3407 C   0  0  0  0  0  0  0  0  0  0  0  0
    2.6282    2.1384   12.1226 C   0  0  0  0  0  0  0  0  0  0  0  0
    3.5442    2.6282   11.1721 C   0  0  0  0  0  0  0  0  0  0  0  0
    3.1497    3.4552   10.1130 C   0  0  0  0  0  0  0  0  0  0  0  0
    1.8035    3.8107   10.0226 C   0  0  0  0  0  0  0  0  0  0  0  0
    0.9910    4.6054    9.1269 C   0  0  0  0  0  0  0  0  0  0  0  0
   -0.2498    4.6130    9.5297 N   0  0  0  0  0  0  0  0  0  0  0  0
   -0.3276    3.8827   10.6287 N   0  0  0  0  0  0  0  0  0  0  0  0
    0.8922    3.3455   10.9868 C   0  0  0  0  0  0  0  0  0  0  0  0
    1.2628    2.5119   12.0466 C   0  0  0  0  0  0  0  0  0  0  0  0
   -0.5121   -0.8124   14.2226 C   0  0  0  0  0  0  0  0  0  0  0  0
   -2.6836    1.1877   11.7110 H   0  0  0  0  0  0  0  0  0  0  0  0
   -1.4618    1.4178   13.0075 H   0  0  0  0  0  0  0  0  0  0  0  0
   -1.1937    0.1846   11.7292 H   0  0  0  0  0  0  0  0  0  0  0  0
   -3.5555   -2.2724   14.6382 H   0  0  0  0  0  0  0  0  0  0  0  0
   -2.2311   -3.6455   16.2150 H   0  0  0  0  0  0  0  0  0  0  0  0
    0.1761   -3.2079   16.5216 H   0  0  0  0  0  0  0  0  0  0  0  0
    5.1294    1.9197   13.2352 H   0  0  0  0  0  0  0  0  0  0  0  0
    6.8235    0.9061   15.2933 H   0  0  0  0  0  0  0  0  0  0  0  0
    6.2935   -0.8022   17.3047 H   0  0  0  0  0  0  0  0  0  0  0  0
    4.5857    2.3571   11.2628 H   0  0  0  0  0  0  0  0  0  0  0  0
    3.8671    3.8078    9.3868 H   0  0  0  0  0  0  0  0  0  0  0  0
    1.3590    5.1186    8.2507 H   0  0  0  0  0  0  0  0  0  0  0  0
   -1.0091    5.0881    9.0849 H   0  0  0  0  0  0  0  0  0  0  0  0
    0.5419    2.1684   12.7738 H   0  0  0  0  0  0  0  0  0  0  0  0
   -0.0379   -0.9334   13.2375 H   0  0  0  0  0  0  0  0  0  0  0  0
   -0.4177    0.2338   14.5489 H   0  0  0  0  0  0  0  0  0  0  0  0
  1  2  1  0  0  0  0
  2  3  1  0  0  0  0
  3  4  2  0  0  0  0
  3 27  1  0  0  0  0
  4  5  1  0  0  0  0
  5  6  2  0  0  0  0
  6  7  1  0  0  0  0
  7  8  2  0  0  0  0
  7 27  1  0  0  0  0
  8  9  1  0  0  0  0
  9 10  2  0  0  0  0
  9 17  1  0  0  0  0
 10 11  1  0  0  0  0
 11 12  2  0  0  0  0
 11 18  1  0  0  0  0
 12 13  1  0  0  0  0
 13 14  1  0  0  0  0
 13 17  1  0  0  0  0
 14 15  2  0  0  0  0
 15 16  1  0  0  0  0
 16 17  2  0  0  0  0
 18 19  1  0  0  0  0
 18 26  2  0  0  0  0
 19 20  2  0  0  0  0
 20 21  1  0  0  0  0
 21 22  2  0  0  0  0
 21 25  1  0  0  0  0
 22 23  1  0  0  0  0
 23 24  1  0  0  0  0
 24 25  2  0  0  0  0
 25 26  1  0  0  0  0
  1 28  1  0  0  0  0
  1 29  1  0  0  0  0
  1 30  1  0  0  0  0
  4 31  1  0  0  0  0
  5 32  1  0  0  0  0
  6 33  1  0  0  0  0
 12 34  1  0  0  0  0
 14 35  1  0  0  0  0
 15 36  1  0  0  0  0
 19 37  1  0  0  0  0
 20 38  1  0  0  0  0
 22 39  1  0  0  0  0
 23 40  1  0  0  0  0
 26 41  1  0  0  0  0
 27 42  1  0  0  0  0
 27 43  1  0  0  0  0
M  END
> <IC50[nM]>
8.5

$$$$
CHEMBL3265028
  -OEChem-05192314333D
 Structure written by MMmdl.
 43 47  0     0  0  0  0  0  0999 V2000
   -1.9509    0.6794   12.3551 C   0  0  0  0  0  0  0  0  0  0  0  0
   -2.6175   -0.2972   13.1574 O   0  0  0  0  0  0  0  0  0  0  0  0
   -1.8696   -1.0545   14.0449 C   0  0  0  0  0  0  0  0  0  0  0  0
   -2.5006   -2.0822   14.7698 C   0  0  0  0  0  0  0  0  0  0  0  0
   -1.7540   -2.8524   15.6585 C   0  0  0  0  0  0  0  0  0  0  0  0
   -0.3950   -2.6038   15.8322 C   0  0  0  0  0  0  0  0  0  0  0  0
    0.2324   -1.5851   15.1260 C   0  0  0  0  0  0  0  0  0  0  0  0
    1.6168   -1.3648   15.3699 N   0  0  0  0  0  0  0  0  0  0  0  0
    2.5420   -0.4570   14.7968 C   0  0  0  0  0  0  0  0  0  0  0  0
    2.1720    0.3831   13.7786 N   0  0  0  0  0  0  0  0  0  0  0  0
    3.1103    1.2383   13.2419 C   0  0  0  0  0  0  0  0  0  0  0  0
    4.3968    1.2792   13.7037 C   0  0  0  0  0  0  0  0  0  0  0  0
    4.7381    0.4944   14.7692 N   0  0  0  0  0  0  0  0  0  0  0  0
    5.8928    0.3893   15.4752 C   0  0  0  0  0  0  0  0  0  0  0  0
    5.6110   -0.5494   16.5068 C   0  0  0  0  0  0  0  0  0  0  0  0
    4.4002   -1.0741   16.3612 N   0  0  0  0  0  0  0  0  0  0  0  0
    3.8444   -0.3918   15.3407 C   0  0  0  0  0  0  0  0  0  0  0  0
    2.6282    2.1384   12.1226 C   0  0  0  0  0  0  0  0  0  0  0  0
    3.5442    2.6282   11.1721 C   0  0  0  0  0  0  0  0  0  0  0  0
    3.1497    3.4552   10.1130 C   0  0  0  0  0  0  0  0  0  0  0  0
    1.8035    3.8107   10.0226 C   0  0  0  0  0  0  0  0  0  0  0  0
    0.9910    4.6054    9.1269 C   0  0  0  0  0  0  0  0  0  0  0  0
   -0.2498    4.6130    9.5297 N   0  0  0  0  0  0  0  0  0  0  0  0
   -0.3276    3.8827   10.6287 N   0  0  0  0  0  0  0  0  0  0  0  0
    0.8922    3.3455   10.9868 C   0  0  0  0  0  0  0  0  0  0  0  0
    1.2628    2.5119   12.0466 C   0  0  0  0  0  0  0  0  0  0  0  0
   -0.5121   -0.8124   14.2226 C   0  0  0  0  0  0  0  0  0  0  0  0
   -2.6836    1.1877   11.7110 H   0  0  0  0  0  0  0  0  0  0  0  0
   -1.4618    1.4178   13.0075 H   0  0  0  0  0  0  0  0  0  0  0  0
   -1.1937    0.1846   11.7292 H   0  0  0  0  0  0  0  0  0  0  0  0
   -3.5555   -2.2724   14.6382 H   0  0  0  0  0  0  0  0  0  0  0  0
   -2.2311   -3.6455   16.2150 H   0  0  0  0  0  0  0  0  0  0  0  0
    0.1761   -3.2079   16.5216 H   0  0  0  0  0  0  0  0  0  0  0  0
    5.0502    0.9908   12.8671 H   0  0  0  0  0  0  0  0  0  0  0  0
    4.6050    2.3209   13.9893 H   0  0  0  0  0  0  0  0  0  0  0  0
    6.8235    0.9061   15.2933 H   0  0  0  0  0  0  0  0  0  0  0  0
    6.2935   -0.8022   17.3047 H   0  0  0  0  0  0  0  0  0  0  0  0
    4.5857    2.3571   11.2628 H   0  0  0  0  0  0  0  0  0  0  0  0
    3.8671    3.8078    9.3868 H   0  0  0  0  0  0  0  0  0  0  0  0
    1.3732    5.6367    9.1086 H   0  0  0  0  0  0  0  0  0  0  0  0
    1.0416    4.1776    8.1148 H   0  0  0  0  0  0  0  0  0  0  0  0
    0.5419    2.1684   12.7738 H   0  0  0  0  0  0  0  0  0  0  0  0
   -0.0286   -0.0257   13.6625 H   0  0  0  0  0  0  0  0  0  0  0  0
  1  2  1  0  0  0  0
  2  3  1  0  0  0  0
  3  4  2  0  0  0  0
  3 27  1  0  0  0  0
  4  5  1  0  0  0  0
  5  6  2  0  0  0  0
  6  7  1  0  0  0  0
  7  8  1  0  0  0  0
  7 27  2  0  0  0  0
  8  9  2  0  0  0  0
  9 10  1  0  0  0  0
  9 17  1  0  0  0  0
 10 11  2  0  0  0  0
 11 12  1  0  0  0  0
 11 18  1  0  0  0  0
 12 13  1  0  0  0  0
 13 14  1  0  0  0  0
 13 17  1  0  0  0  0
 14 15  2  0  0  0  0
 15 16  1  0  0  0  0
 16 17  2  0  0  0  0
 18 19  2  0  0  0  0
 18 26  1  0  0  0  0
 19 20  1  0  0  0  0
 20 21  2  0  0  0  0
 21 22  1  0  0  0  0
 21 25  1  0  0  0  0
 22 23  1  0  0  0  0
 23 24  2  0  0  0  0
 24 25  1  0  0  0  0
 25 26  2  0  0  0  0
  1 28  1  0  0  0  0
  1 29  1  0  0  0  0
  1 30  1  0  0  0  0
  4 31  1  0  0  0  0
  5 32  1  0  0  0  0
  6 33  1  0  0  0  0
 12 34  1  0  0  0  0
 12 35  1  0  0  0  0
 14 36  1  0  0  0  0
 15 37  1  0  0  0  0
 19 38  1  0  0  0  0
 20 39  1  0  0  0  0
 22 40  1  0  0  0  0
 22 41  1  0  0  0  0
 26 42  1  0  0  0  0
 27 43  1  0  0  0  0
M  END
> <IC50[nM]>
8.5

$$$$
CHEMBL3265028
  -OEChem-05192314333D
 Structure written by MMmdl.
 43 47  0     0  0  0  0  0  0999 V2000
   -1.9509    0.6794   12.3551 C   0  0  0  0  0  0  0  0  0  0  0  0
   -2.6175   -0.2972   13.1574 O   0  0  0  0  0  0  0  0  0  0  0  0
   -1.8696   -1.0545   14.0449 C   0  0  0  0  0  0  0  0  0  0  0  0
   -2.5006   -2.0822   14.7698 C   0  0  0  0  0  0  0  0  0  0  0  0
   -1.7540   -2.8524   15.6585 C   0  0  0  0  0  0  0  0  0  0  0  0
   -0.3950   -2.6038   15.8322 C   0  0  0  0  0  0  0  0  0  0  0  0
    0.2324   -1.5851   15.1260 C   0  0  0  0  0  0  0  0  0  0  0  0
    1.6168   -1.3648   15.3699 N   0  0  0  0  0  0  0  0  0  0  0  0
    2.5420   -0.4570   14.7968 C   0  0  0  0  0  0  0  0  0  0  0  0
    2.1720    0.3831   13.7786 N   0  0  0  0  0  0  0  0  0  0  0  0
    3.1103    1.2383   13.2419 C   0  0  0  0  0  0  0  0  0  0  0  0
    4.3968    1.2792   13.7037 C   0  0  0  0  0  0  0  0  0  0  0  0
    4.7381    0.4944   14.7692 N   0  0  0  0  0  0  0  0  0  0  0  0
    5.8928    0.3893   15.4752 C   0  0  0  0  0  0  0  0  0  0  0  0
    5.6110   -0.5494   16.5068 C   0  0  0  0  0  0  0  0  0  0  0  0
    4.4002   -1.0741   16.3612 N   0  0  0  0  0  0  0  0  0  0  0  0
    3.8444   -0.3918   15.3407 C   0  0  0  0  0  0  0  0  0  0  0  0
    2.6282    2.1384   12.1226 C   0  0  0  0  0  0  0  0  0  0  0  0
    3.5442    2.6282   11.1721 C   0  0  0  0  0  0  0  0  0  0  0  0
    3.1497    3.4552   10.1130 C   0  0  0  0  0  0  0  0  0  0  0  0
    1.8035    3.8107   10.0226 C   0  0  0  0  0  0  0  0  0  0  0  0
    0.9910    4.6054    9.1269 C   0  0  0  0  0  0  0  0  0  0  0  0
   -0.2498    4.6130    9.5297 N   0  0  0  0  0  0  0  0  0  0  0  0
   -0.3276    3.8827   10.6287 N   0  0  0  0  0  0  0  0  0  0  0  0
    0.8922    3.3455   10.9868 C   0  0  0  0  0  0  0  0  0  0  0  0
    1.2628    2.5119   12.0466 C   0  0  0  0  0  0  0  0  0  0  0  0
   -0.5121   -0.8124   14.2226 C   0  0  0  0  0  0  0  0  0  0  0  0
   -2.6836    1.1877   11.7110 H   0  0  0  0  0  0  0  0  0  0  0  0
   -1.4618    1.4178   13.0075 H   0  0  0  0  0  0  0  0  0  0  0  0
   -1.1937    0.1846   11.7292 H   0  0  0  0  0  0  0  0  0  0  0  0
   -3.5555   -2.2724   14.6382 H   0  0  0  0  0  0  0  0  0  0  0  0
   -2.2311   -3.6455   16.2150 H   0  0  0  0  0  0  0  0  0  0  0  0
    0.1761   -3.2079   16.5216 H   0  0  0  0  0  0  0  0  0  0  0  0
    2.0079   -1.9582   16.0734 H   0  0  0  0  0  0  0  0  0  0  0  0
    5.0502    0.9908   12.8671 H   0  0  0  0  0  0  0  0  0  0  0  0
    4.6050    2.3209   13.9893 H   0  0  0  0  0  0  0  0  0  0  0  0
    6.8235    0.9061   15.2933 H   0  0  0  0  0  0  0  0  0  0  0  0
    6.2935   -0.8022   17.3047 H   0  0  0  0  0  0  0  0  0  0  0  0
    4.5857    2.3571   11.2628 H   0  0  0  0  0  0  0  0  0  0  0  0
    3.8671    3.8078    9.3868 H   0  0  0  0  0  0  0  0  0  0  0  0
    1.3590    5.1186    8.2507 H   0  0  0  0  0  0  0  0  0  0  0  0
    0.5419    2.1684   12.7738 H   0  0  0  0  0  0  0  0  0  0  0  0
   -0.0286   -0.0257   13.6625 H   0  0  0  0  0  0  0  0  0  0  0  0
  1  2  1  0  0  0  0
  2  3  1  0  0  0  0
  3  4  2  0  0  0  0
  3 27  1  0  0  0  0
  4  5  1  0  0  0  0
  5  6  2  0  0  0  0
  6  7  1  0  0  0  0
  7  8  1  0  0  0  0
  7 27  2  0  0  0  0
  8  9  1  0  0  0  0
  9 10  2  0  0  0  0
  9 17  1  0  0  0  0
 10 11  1  0  0  0  0
 11 12  1  0  0  0  0
 11 18  2  0  0  0  0
 12 13  1  0  0  0  0
 13 14  1  0  0  0  0
 13 17  1  0  0  0  0
 14 15  2  0  0  0  0
 15 16  1  0  0  0  0
 16 17  2  0  0  0  0
 18 19  1  0  0  0  0
 18 26  1  0  0  0  0
 19 20  2  0  0  0  0
 20 21  1  0  0  0  0
 21 22  2  0  0  0  0
 21 25  1  0  0  0  0
 22 23  1  0  0  0  0
 23 24  2  0  0  0  0
 24 25  1  0  0  0  0
 25 26  2  0  0  0  0
  1 28  1  0  0  0  0
  1 29  1  0  0  0  0
  1 30  1  0  0  0  0
  4 31  1  0  0  0  0
  5 32  1  0  0  0  0
  6 33  1  0  0  0  0
  8 34  1  0  0  0  0
 12 35  1  0  0  0  0
 12 36  1  0  0  0  0
 14 37  1  0  0  0  0
 15 38  1  0  0  0  0
 19 39  1  0  0  0  0
 20 40  1  0  0  0  0
 22 41  1  0  0  0  0
 26 42  1  0  0  0  0
 27 43  1  0  0  0  0
M  END
> <IC50[nM]>
8.5

$$$$
CHEMBL3265028
  -OEChem-05192314333D
 Structure written by MMmdl.
 43 47  0     0  0  0  0  0  0999 V2000
   -1.9509    0.6794   12.3551 C   0  0  0  0  0  0  0  0  0  0  0  0
   -2.6175   -0.2972   13.1574 O   0  0  0  0  0  0  0  0  0  0  0  0
   -1.8696   -1.0545   14.0449 C   0  0  0  0  0  0  0  0  0  0  0  0
   -2.5006   -2.0822   14.7698 C   0  0  0  0  0  0  0  0  0  0  0  0
   -1.7540   -2.8524   15.6585 C   0  0  0  0  0  0  0  0  0  0  0  0
   -0.3950   -2.6038   15.8322 C   0  0  0  0  0  0  0  0  0  0  0  0
    0.2324   -1.5851   15.1260 C   0  0  0  0  0  0  0  0  0  0  0  0
    1.6168   -1.3648   15.3699 N   0  0  0  0  0  0  0  0  0  0  0  0
    2.5420   -0.4570   14.7968 C   0  0  0  0  0  0  0  0  0  0  0  0
    2.1720    0.3831   13.7786 N   0  0  0  0  0  0  0  0  0  0  0  0
    3.1103    1.2383   13.2419 C   0  0  0  0  0  0  0  0  0  0  0  0
    4.3968    1.2792   13.7037 C   0  0  0  0  0  0  0  0  0  0  0  0
    4.7381    0.4944   14.7692 N   0  0  0  0  0  0  0  0  0  0  0  0
    5.8928    0.3893   15.4752 C   0  0  0  0  0  0  0  0  0  0  0  0
    5.6110   -0.5494   16.5068 C   0  0  0  0  0  0  0  0  0  0  0  0
    4.4002   -1.0741   16.3612 N   0  0  0  0  0  0  0  0  0  0  0  0
    3.8444   -0.3918   15.3407 C   0  0  0  0  0  0  0  0  0  0  0  0
    2.6282    2.1384   12.1226 C   0  0  0  0  0  0  0  0  0  0  0  0
    3.5442    2.6282   11.1721 C   0  0  0  0  0  0  0  0  0  0  0  0
    3.1497    3.4552   10.1130 C   0  0  0  0  0  0  0  0  0  0  0  0
    1.8035    3.8107   10.0226 C   0  0  0  0  0  0  0  0  0  0  0  0
    0.9910    4.6054    9.1269 C   0  0  0  0  0  0  0  0  0  0  0  0
   -0.2498    4.6130    9.5297 N   0  0  0  0  0  0  0  0  0  0  0  0
   -0.3276    3.8827   10.6287 N   0  0  0  0  0  0  0  0  0  0  0  0
    0.8922    3.3455   10.9868 C   0  0  0  0  0  0  0  0  0  0  0  0
    1.2628    2.5119   12.0466 C   0  0  0  0  0  0  0  0  0  0  0  0
   -0.5121   -0.8124   14.2226 C   0  0  0  0  0  0  0  0  0  0  0  0
   -2.6836    1.1877   11.7110 H   0  0  0  0  0  0  0  0  0  0  0  0
   -1.4618    1.4178   13.0075 H   0  0  0  0  0  0  0  0  0  0  0  0
   -1.1937    0.1846   11.7292 H   0  0  0  0  0  0  0  0  0  0  0  0
   -3.5555   -2.2724   14.6382 H   0  0  0  0  0  0  0  0  0  0  0  0
   -2.2311   -3.6455   16.2150 H   0  0  0  0  0  0  0  0  0  0  0  0
    0.1761   -3.2079   16.5216 H   0  0  0  0  0  0  0  0  0  0  0  0
    1.2347    0.3756   13.4302 H   0  0  0  0  0  0  0  0  0  0  0  0
    5.0502    0.9908   12.8671 H   0  0  0  0  0  0  0  0  0  0  0  0
    4.6050    2.3209   13.9893 H   0  0  0  0  0  0  0  0  0  0  0  0
    6.8235    0.9061   15.2933 H   0  0  0  0  0  0  0  0  0  0  0  0
    6.2935   -0.8022   17.3047 H   0  0  0  0  0  0  0  0  0  0  0  0
    4.5857    2.3571   11.2628 H   0  0  0  0  0  0  0  0  0  0  0  0
    3.8671    3.8078    9.3868 H   0  0  0  0  0  0  0  0  0  0  0  0
    1.3590    5.1186    8.2507 H   0  0  0  0  0  0  0  0  0  0  0  0
    0.5419    2.1684   12.7738 H   0  0  0  0  0  0  0  0  0  0  0  0
   -0.0286   -0.0257   13.6625 H   0  0  0  0  0  0  0  0  0  0  0  0
  1  2  1  0  0  0  0
  2  3  1  0  0  0  0
  3  4  2  0  0  0  0
  3 27  1  0  0  0  0
  4  5  1  0  0  0  0
  5  6  2  0  0  0  0
  6  7  1  0  0  0  0
  7  8  1  0  0  0  0
  7 27  2  0  0  0  0
  8  9  2  0  0  0  0
  9 10  1  0  0  0  0
  9 17  1  0  0  0  0
 10 11  1  0  0  0  0
 11 12  1  0  0  0  0
 11 18  2  0  0  0  0
 12 13  1  0  0  0  0
 13 14  1  0  0  0  0
 13 17  1  0  0  0  0
 14 15  2  0  0  0  0
 15 16  1  0  0  0  0
 16 17  2  0  0  0  0
 18 19  1  0  0  0  0
 18 26  1  0  0  0  0
 19 20  2  0  0  0  0
 20 21  1  0  0  0  0
 21 22  2  0  0  0  0
 21 25  1  0  0  0  0
 22 23  1  0  0  0  0
 23 24  2  0  0  0  0
 24 25  1  0  0  0  0
 25 26  2  0  0  0  0
  1 28  1  0  0  0  0
  1 29  1  0  0  0  0
  1 30  1  0  0  0  0
  4 31  1  0  0  0  0
  5 32  1  0  0  0  0
  6 33  1  0  0  0  0
 10 34  1  0  0  0  0
 12 35  1  0  0  0  0
 12 36  1  0  0  0  0
 14 37  1  0  0  0  0
 15 38  1  0  0  0  0
 19 39  1  0  0  0  0
 20 40  1  0  0  0  0
 22 41  1  0  0  0  0
 26 42  1  0  0  0  0
 27 43  1  0  0  0  0
M  END
> <IC50[nM]>
8.5

$$$$
CHEMBL3265028
  -OEChem-05192314333D
 Structure written by MMmdl.
 43 47  0     0  0  0  0  0  0999 V2000
   -1.9509    0.6794   12.3551 C   0  0  0  0  0  0  0  0  0  0  0  0
   -2.6175   -0.2972   13.1574 O   0  0  0  0  0  0  0  0  0  0  0  0
   -1.8696   -1.0545   14.0449 C   0  0  0  0  0  0  0  0  0  0  0  0
   -2.5006   -2.0822   14.7698 C   0  0  0  0  0  0  0  0  0  0  0  0
   -1.7540   -2.8524   15.6585 C   0  0  0  0  0  0  0  0  0  0  0  0
   -0.3950   -2.6038   15.8322 C   0  0  0  0  0  0  0  0  0  0  0  0
    0.2324   -1.5851   15.1260 C   0  0  0  0  0  0  0  0  0  0  0  0
    1.6168   -1.3648   15.3699 N   0  0  0  0  0  0  0  0  0  0  0  0
    2.5420   -0.4570   14.7968 C   0  0  0  0  0  0  0  0  0  0  0  0
    2.1720    0.3831   13.7786 N   0  0  0  0  0  0  0  0  0  0  0  0
    3.1103    1.2383   13.2419 C   0  0  0  0  0  0  0  0  0  0  0  0
    4.3968    1.2792   13.7037 C   0  0  0  0  0  0  0  0  0  0  0  0
    4.7381    0.4944   14.7692 N   0  0  0  0  0  0  0  0  0  0  0  0
    5.8928    0.3893   15.4752 C   0  0  0  0  0  0  0  0  0  0  0  0
    5.6110   -0.5494   16.5068 C   0  0  0  0  0  0  0  0  0  0  0  0
    4.4002   -1.0741   16.3612 N   0  0  0  0  0  0  0  0  0  0  0  0
    3.8444   -0.3918   15.3407 C   0  0  0  0  0  0  0  0  0  0  0  0
    2.6282    2.1384   12.1226 C   0  0  0  0  0  0  0  0  0  0  0  0
    3.5442    2.6282   11.1721 C   0  0  0  0  0  0  0  0  0  0  0  0
    3.1497    3.4552   10.1130 C   0  0  0  0  0  0  0  0  0  0  0  0
    1.8035    3.8107   10.0226 C   0  0  0  0  0  0  0  0  0  0  0  0
    0.9910    4.6054    9.1269 C   0  0  0  0  0  0  0  0  0  0  0  0
   -0.2498    4.6130    9.5297 N   0  0  0  0  0  0  0  0  0  0  0  0
   -0.3276    3.8827   10.6287 N   0  0  0  0  0  0  0  0  0  0  0  0
    0.8922    3.3455   10.9868 C   0  0  0  0  0  0  0  0  0  0  0  0
    1.2628    2.5119   12.0466 C   0  0  0  0  0  0  0  0  0  0  0  0
   -0.5121   -0.8124   14.2226 C   0  0  0  0  0  0  0  0  0  0  0  0
   -2.6836    1.1877   11.7110 H   0  0  0  0  0  0  0  0  0  0  0  0
   -1.4618    1.4178   13.0075 H   0  0  0  0  0  0  0  0  0  0  0  0
   -1.1937    0.1846   11.7292 H   0  0  0  0  0  0  0  0  0  0  0  0
   -3.3078   -1.6140   15.3522 H   0  0  0  0  0  0  0  0  0  0  0  0
   -2.9341   -2.7741   14.0327 H   0  0  0  0  0  0  0  0  0  0  0  0
   -2.2311   -3.6455   16.2150 H   0  0  0  0  0  0  0  0  0  0  0  0
    0.1761   -3.2079   16.5216 H   0  0  0  0  0  0  0  0  0  0  0  0
    5.1294    1.9197   13.2352 H   0  0  0  0  0  0  0  0  0  0  0  0
    6.8235    0.9061   15.2933 H   0  0  0  0  0  0  0  0  0  0  0  0
    6.2935   -0.8022   17.3047 H   0  0  0  0  0  0  0  0  0  0  0  0
    4.5857    2.3571   11.2628 H   0  0  0  0  0  0  0  0  0  0  0  0
    3.8671    3.8078    9.3868 H   0  0  0  0  0  0  0  0  0  0  0  0
    1.3732    5.6367    9.1086 H   0  0  0  0  0  0  0  0  0  0  0  0
    1.0416    4.1776    8.1148 H   0  0  0  0  0  0  0  0  0  0  0  0
    0.5419    2.1684   12.7738 H   0  0  0  0  0  0  0  0  0  0  0  0
   -0.0286   -0.0257   13.6625 H   0  0  0  0  0  0  0  0  0  0  0  0
  1  2  1  0  0  0  0
  2  3  1  0  0  0  0
  3  4  1  0  0  0  0
  3 27  2  0  0  0  0
  4  5  1  0  0  0  0
  5  6  2  0  0  0  0
  6  7  1  0  0  0  0
  7  8  2  0  0  0  0
  7 27  1  0  0  0  0
  8  9  1  0  0  0  0
  9 10  2  0  0  0  0
  9 17  1  0  0  0  0
 10 11  1  0  0  0  0
 11 12  2  0  0  0  0
 11 18  1  0  0  0  0
 12 13  1  0  0  0  0
 13 14  1  0  0  0  0
 13 17  1  0  0  0  0
 14 15  2  0  0  0  0
 15 16  1  0  0  0  0
 16 17  2  0  0  0  0
 18 19  2  0  0  0  0
 18 26  1  0  0  0  0
 19 20  1  0  0  0  0
 20 21  2  0  0  0  0
 21 22  1  0  0  0  0
 21 25  1  0  0  0  0
 22 23  1  0  0  0  0
 23 24  2  0  0  0  0
 24 25  1  0  0  0  0
 25 26  2  0  0  0  0
  1 28  1  0  0  0  0
  1 29  1  0  0  0  0
  1 30  1  0  0  0  0
  4 31  1  0  0  0  0
  4 32  1  0  0  0  0
  5 33  1  0  0  0  0
  6 34  1  0  0  0  0
 12 35  1  0  0  0  0
 14 36  1  0  0  0  0
 15 37  1  0  0  0  0
 19 38  1  0  0  0  0
 20 39  1  0  0  0  0
 22 40  1  0  0  0  0
 22 41  1  0  0  0  0
 26 42  1  0  0  0  0
 27 43  1  0  0  0  0
M  END
> <IC50[nM]>
8.5

$$$$
CHEMBL3265028
  -OEChem-05192314333D
 Structure written by MMmdl.
 43 47  0     0  0  0  0  0  0999 V2000
   -1.9509    0.6794   12.3551 C   0  0  0  0  0  0  0  0  0  0  0  0
   -2.6175   -0.2972   13.1574 O   0  0  0  0  0  0  0  0  0  0  0  0
   -1.8696   -1.0545   14.0449 C   0  0  0  0  0  0  0  0  0  0  0  0
   -2.5006   -2.0822   14.7698 C   0  0  0  0  0  0  0  0  0  0  0  0
   -1.7540   -2.8524   15.6585 C   0  0  0  0  0  0  0  0  0  0  0  0
   -0.3950   -2.6038   15.8322 C   0  0  0  0  0  0  0  0  0  0  0  0
    0.2324   -1.5851   15.1260 C   0  0  0  0  0  0  0  0  0  0  0  0
    1.6168   -1.3648   15.3699 N   0  0  0  0  0  0  0  0  0  0  0  0
    2.5420   -0.4570   14.7968 C   0  0  0  0  0  0  0  0  0  0  0  0
    2.1720    0.3831   13.7786 N   0  0  0  0  0  0  0  0  0  0  0  0
    3.1103    1.2383   13.2419 C   0  0  0  0  0  0  0  0  0  0  0  0
    4.3968    1.2792   13.7037 C   0  0  0  0  0  0  0  0  0  0  0  0
    4.7381    0.4944   14.7692 N   0  0  0  0  0  0  0  0  0  0  0  0
    5.8928    0.3893   15.4752 C   0  0  0  0  0  0  0  0  0  0  0  0
    5.6110   -0.5494   16.5068 C   0  0  0  0  0  0  0  0  0  0  0  0
    4.4002   -1.0741   16.3612 N   0  0  0  0  0  0  0  0  0  0  0  0
    3.8444   -0.3918   15.3407 C   0  0  0  0  0  0  0  0  0  0  0  0
    2.6282    2.1384   12.1226 C   0  0  0  0  0  0  0  0  0  0  0  0
    3.5442    2.6282   11.1721 C   0  0  0  0  0  0  0  0  0  0  0  0
    3.1497    3.4552   10.1130 C   0  0  0  0  0  0  0  0  0  0  0  0
    1.8035    3.8107   10.0226 C   0  0  0  0  0  0  0  0  0  0  0  0
    0.9910    4.6054    9.1269 C   0  0  0  0  0  0  0  0  0  0  0  0
   -0.2498    4.6130    9.5297 N   0  0  0  0  0  0  0  0  0  0  0  0
   -0.3276    3.8827   10.6287 N   0  0  0  0  0  0  0  0  0  0  0  0
    0.8922    3.3455   10.9868 C   0  0  0  0  0  0  0  0  0  0  0  0
    1.2628    2.5119   12.0466 C   0  0  0  0  0  0  0  0  0  0  0  0
   -0.5121   -0.8124   14.2226 C   0  0  0  0  0  0  0  0  0  0  0  0
   -2.6836    1.1877   11.7110 H   0  0  0  0  0  0  0  0  0  0  0  0
   -1.4618    1.4178   13.0075 H   0  0  0  0  0  0  0  0  0  0  0  0
   -1.1937    0.1846   11.7292 H   0  0  0  0  0  0  0  0  0  0  0  0
   -3.5555   -2.2724   14.6382 H   0  0  0  0  0  0  0  0  0  0  0  0
   -2.2311   -3.6455   16.2150 H   0  0  0  0  0  0  0  0  0  0  0  0
   -0.2492   -2.3829   16.8999 H   0  0  0  0  0  0  0  0  0  0  0  0
    0.1309   -3.5352   15.5753 H   0  0  0  0  0  0  0  0  0  0  0  0
    5.1294    1.9197   13.2352 H   0  0  0  0  0  0  0  0  0  0  0  0
    6.8235    0.9061   15.2933 H   0  0  0  0  0  0  0  0  0  0  0  0
    6.2935   -0.8022   17.3047 H   0  0  0  0  0  0  0  0  0  0  0  0
    4.5857    2.3571   11.2628 H   0  0  0  0  0  0  0  0  0  0  0  0
    3.8671    3.8078    9.3868 H   0  0  0  0  0  0  0  0  0  0  0  0
    1.3732    5.6367    9.1086 H   0  0  0  0  0  0  0  0  0  0  0  0
    1.0416    4.1776    8.1148 H   0  0  0  0  0  0  0  0  0  0  0  0
    0.5419    2.1684   12.7738 H   0  0  0  0  0  0  0  0  0  0  0  0
   -0.0286   -0.0257   13.6625 H   0  0  0  0  0  0  0  0  0  0  0  0
  1  2  1  0  0  0  0
  2  3  1  0  0  0  0
  3  4  1  0  0  0  0
  3 27  2  0  0  0  0
  4  5  2  0  0  0  0
  5  6  1  0  0  0  0
  6  7  1  0  0  0  0
  7  8  2  0  0  0  0
  7 27  1  0  0  0  0
  8  9  1  0  0  0  0
  9 10  2  0  0  0  0
  9 17  1  0  0  0  0
 10 11  1  0  0  0  0
 11 12  2  0  0  0  0
 11 18  1  0  0  0  0
 12 13  1  0  0  0  0
 13 14  1  0  0  0  0
 13 17  1  0  0  0  0
 14 15  2  0  0  0  0
 15 16  1  0  0  0  0
 16 17  2  0  0  0  0
 18 19  2  0  0  0  0
 18 26  1  0  0  0  0
 19 20  1  0  0  0  0
 20 21  2  0  0  0  0
 21 22  1  0  0  0  0
 21 25  1  0  0  0  0
 22 23  1  0  0  0  0
 23 24  2  0  0  0  0
 24 25  1  0  0  0  0
 25 26  2  0  0  0  0
  1 28  1  0  0  0  0
  1 29  1  0  0  0  0
  1 30  1  0  0  0  0
  4 31  1  0  0  0  0
  5 32  1  0  0  0  0
  6 33  1  0  0  0  0
  6 34  1  0  0  0  0
 12 35  1  0  0  0  0
 14 36  1  0  0  0  0
 15 37  1  0  0  0  0
 19 38  1  0  0  0  0
 20 39  1  0  0  0  0
 22 40  1  0  0  0  0
 22 41  1  0  0  0  0
 26 42  1  0  0  0  0
 27 43  1  0  0  0  0
M  END
> <IC50[nM]>
8.5

$$$$
CHEMBL3265028
  -OEChem-05192314333D
 Structure written by MMmdl.
 43 47  0     0  0  0  0  0  0999 V2000
   -1.9509    0.6794   12.3551 C   0  0  0  0  0  0  0  0  0  0  0  0
   -2.6175   -0.2972   13.1574 O   0  0  0  0  0  0  0  0  0  0  0  0
   -1.8696   -1.0545   14.0449 C   0  0  0  0  0  0  0  0  0  0  0  0
   -2.5006   -2.0822   14.7698 C   0  0  0  0  0  0  0  0  0  0  0  0
   -1.7540   -2.8524   15.6585 C   0  0  0  0  0  0  0  0  0  0  0  0
   -0.3950   -2.6038   15.8322 C   0  0  0  0  0  0  0  0  0  0  0  0
    0.2324   -1.5851   15.1260 C   0  0  0  0  0  0  0  0  0  0  0  0
    1.6168   -1.3648   15.3699 N   0  0  0  0  0  0  0  0  0  0  0  0
    2.5420   -0.4570   14.7968 C   0  0  0  0  0  0  0  0  0  0  0  0
    2.1720    0.3831   13.7786 N   0  0  0  0  0  0  0  0  0  0  0  0
    3.1103    1.2383   13.2419 C   0  0  0  0  0  0  0  0  0  0  0  0
    4.3968    1.2792   13.7037 C   0  0  0  0  0  0  0  0  0  0  0  0
    4.7381    0.4944   14.7692 N   0  0  0  0  0  0  0  0  0  0  0  0
    5.8928    0.3893   15.4752 C   0  0  0  0  0  0  0  0  0  0  0  0
    5.6110   -0.5494   16.5068 C   0  0  0  0  0  0  0  0  0  0  0  0
    4.4002   -1.0741   16.3612 N   0  0  0  0  0  0  0  0  0  0  0  0
    3.8444   -0.3918   15.3407 C   0  0  0  0  0  0  0  0  0  0  0  0
    2.6282    2.1384   12.1226 C   0  0  0  0  0  0  0  0  0  0  0  0
    3.5442    2.6282   11.1721 C   0  0  0  0  0  0  0  0  0  0  0  0
    3.1497    3.4552   10.1130 C   0  0  0  0  0  0  0  0  0  0  0  0
    1.8035    3.8107   10.0226 C   0  0  0  0  0  0  0  0  0  0  0  0
    0.9910    4.6054    9.1269 C   0  0  0  0  0  0  0  0  0  0  0  0
   -0.2498    4.6130    9.5297 N   0  0  0  0  0  0  0  0  0  0  0  0
   -0.3276    3.8827   10.6287 N   0  0  0  0  0  0  0  0  0  0  0  0
    0.8922    3.3455   10.9868 C   0  0  0  0  0  0  0  0  0  0  0  0
    1.2628    2.5119   12.0466 C   0  0  0  0  0  0  0  0  0  0  0  0
   -0.5121   -0.8124   14.2226 C   0  0  0  0  0  0  0  0  0  0  0  0
   -2.6836    1.1877   11.7110 H   0  0  0  0  0  0  0  0  0  0  0  0
   -1.4618    1.4178   13.0075 H   0  0  0  0  0  0  0  0  0  0  0  0
   -1.1937    0.1846   11.7292 H   0  0  0  0  0  0  0  0  0  0  0  0
   -3.5555   -2.2724   14.6382 H   0  0  0  0  0  0  0  0  0  0  0  0
   -2.2311   -3.6455   16.2150 H   0  0  0  0  0  0  0  0  0  0  0  0
    0.1761   -3.2079   16.5216 H   0  0  0  0  0  0  0  0  0  0  0  0
    5.1294    1.9197   13.2352 H   0  0  0  0  0  0  0  0  0  0  0  0
    6.8235    0.9061   15.2933 H   0  0  0  0  0  0  0  0  0  0  0  0
    6.2935   -0.8022   17.3047 H   0  0  0  0  0  0  0  0  0  0  0  0
    4.5857    2.3571   11.2628 H   0  0  0  0  0  0  0  0  0  0  0  0
    3.8671    3.8078    9.3868 H   0  0  0  0  0  0  0  0  0  0  0  0
    1.3732    5.6367    9.1086 H   0  0  0  0  0  0  0  0  0  0  0  0
    1.0416    4.1776    8.1148 H   0  0  0  0  0  0  0  0  0  0  0  0
    0.5419    2.1684   12.7738 H   0  0  0  0  0  0  0  0  0  0  0  0
   -0.0379   -0.9334   13.2375 H   0  0  0  0  0  0  0  0  0  0  0  0
   -0.4177    0.2338   14.5489 H   0  0  0  0  0  0  0  0  0  0  0  0
  1  2  1  0  0  0  0
  2  3  1  0  0  0  0
  3  4  2  0  0  0  0
  3 27  1  0  0  0  0
  4  5  1  0  0  0  0
  5  6  2  0  0  0  0
  6  7  1  0  0  0  0
  7  8  2  0  0  0  0
  7 27  1  0  0  0  0
  8  9  1  0  0  0  0
  9 10  2  0  0  0  0
  9 17  1  0  0  0  0
 10 11  1  0  0  0  0
 11 12  2  0  0  0  0
 11 18  1  0  0  0  0
 12 13  1  0  0  0  0
 13 14  1  0  0  0  0
 13 17  1  0  0  0  0
 14 15  2  0  0  0  0
 15 16  1  0  0  0  0
 16 17  2  0  0  0  0
 18 19  2  0  0  0  0
 18 26  1  0  0  0  0
 19 20  1  0  0  0  0
 20 21  2  0  0  0  0
 21 22  1  0  0  0  0
 21 25  1  0  0  0  0
 22 23  1  0  0  0  0
 23 24  2  0  0  0  0
 24 25  1  0  0  0  0
 25 26  2  0  0  0  0
  1 28  1  0  0  0  0
  1 29  1  0  0  0  0
  1 30  1  0  0  0  0
  4 31  1  0  0  0  0
  5 32  1  0  0  0  0
  6 33  1  0  0  0  0
 12 34  1  0  0  0  0
 14 35  1  0  0  0  0
 15 36  1  0  0  0  0
 19 37  1  0  0  0  0
 20 38  1  0  0  0  0
 22 39  1  0  0  0  0
 22 40  1  0  0  0  0
 26 41  1  0  0  0  0
 27 42  1  0  0  0  0
 27 43  1  0  0  0  0
M  END
> <IC50[nM]>
8.5

$$$$
CHEMBL3265028
  -OEChem-05192314333D
 Structure written by MMmdl.
 43 47  0     1  0  0  0  0  0999 V2000
   -1.9509    0.6794   12.3551 C   0  0  0  0  0  0  0  0  0  0  0  0
   -2.6175   -0.2972   13.1574 O   0  0  0  0  0  0  0  0  0  0  0  0
   -1.8696   -1.0545   14.0449 C   0  0  0  0  0  0  0  0  0  0  0  0
   -2.5006   -2.0822   14.7698 C   0  0  0  0  0  0  0  0  0  0  0  0
   -1.7540   -2.8524   15.6585 C   0  0  0  0  0  0  0  0  0  0  0  0
   -0.3950   -2.6038   15.8322 C   0  0  0  0  0  0  0  0  0  0  0  0
    0.2324   -1.5851   15.1260 C   0  0  0  0  0  0  0  0  0  0  0  0
    1.6168   -1.3648   15.3699 N   0  0  0  0  0  0  0  0  0  0  0  0
    2.5420   -0.4570   14.7968 C   0  0  0  0  0  0  0  0  0  0  0  0
    2.1720    0.3831   13.7786 N   0  0  0  0  0  0  0  0  0  0  0  0
    3.1103    1.2383   13.2419 C   0  0  0  0  0  0  0  0  0  0  0  0
    4.3968    1.2792   13.7037 C   0  0  0  0  0  0  0  0  0  0  0  0
    4.7381    0.4944   14.7692 N   0  0  0  0  0  0  0  0  0  0  0  0
    5.8928    0.3893   15.4752 C   0  0  0  0  0  0  0  0  0  0  0  0
    5.6110   -0.5494   16.5068 C   0  0  0  0  0  0  0  0  0  0  0  0
    4.4002   -1.0741   16.3612 N   0  0  0  0  0  0  0  0  0  0  0  0
    3.8444   -0.3918   15.3407 C   0  0  0  0  0  0  0  0  0  0  0  0
    2.6282    2.1384   12.1226 C   0  0  0  0  0  0  0  0  0  0  0  0
    3.5442    2.6282   11.1721 C   0  0  0  0  0  0  0  0  0  0  0  0
    3.1497    3.4552   10.1130 C   0  0  0  0  0  0  0  0  0  0  0  0
    1.8035    3.8107   10.0226 C   0  0  3  0  0  0  0  0  0  0  0  0
    0.9910    4.6054    9.1269 C   0  0  0  0  0  0  0  0  0  0  0  0
   -0.2498    4.6130    9.5297 N   0  0  0  0  0  0  0  0  0  0  0  0
   -0.3276    3.8827   10.6287 N   0  0  0  0  0  0  0  0  0  0  0  0
    0.8922    3.3455   10.9868 C   0  0  0  0  0  0  0  0  0  0  0  0
    1.2628    2.5119   12.0466 C   0  0  0  0  0  0  0  0  0  0  0  0
   -0.5121   -0.8124   14.2226 C   0  0  0  0  0  0  0  0  0  0  0  0
   -2.6836    1.1877   11.7110 H   0  0  0  0  0  0  0  0  0  0  0  0
   -1.4618    1.4178   13.0075 H   0  0  0  0  0  0  0  0  0  0  0  0
   -1.1937    0.1846   11.7292 H   0  0  0  0  0  0  0  0  0  0  0  0
   -3.5555   -2.2724   14.6382 H   0  0  0  0  0  0  0  0  0  0  0  0
   -2.2311   -3.6455   16.2150 H   0  0  0  0  0  0  0  0  0  0  0  0
    0.1761   -3.2079   16.5216 H   0  0  0  0  0  0  0  0  0  0  0  0
    2.0079   -1.9582   16.0734 H   0  0  0  0  0  0  0  0  0  0  0  0
    5.1294    1.9197   13.2352 H   0  0  0  0  0  0  0  0  0  0  0  0
    6.8235    0.9061   15.2933 H   0  0  0  0  0  0  0  0  0  0  0  0
    6.2935   -0.8022   17.3047 H   0  0  0  0  0  0  0  0  0  0  0  0
    4.5857    2.3571   11.2628 H   0  0  0  0  0  0  0  0  0  0  0  0
    3.8671    3.8078    9.3868 H   0  0  0  0  0  0  0  0  0  0  0  0
    1.6091    2.9191    9.4083 H   0  0  0  0  0  0  0  0  0  0  0  0
    1.3590    5.1186    8.2507 H   0  0  0  0  0  0  0  0  0  0  0  0
    0.5419    2.1684   12.7738 H   0  0  0  0  0  0  0  0  0  0  0  0
   -0.0286   -0.0257   13.6625 H   0  0  0  0  0  0  0  0  0  0  0  0
  1  2  1  0  0  0  0
  2  3  1  0  0  0  0
  3  4  2  0  0  0  0
  3 27  1  0  0  0  0
  4  5  1  0  0  0  0
  5  6  2  0  0  0  0
  6  7  1  0  0  0  0
  7  8  1  0  0  0  0
  7 27  2  0  0  0  0
  8  9  1  0  0  0  0
  9 10  2  0  0  0  0
  9 17  1  0  0  0  0
 10 11  1  0  0  0  0
 11 12  2  0  0  0  0
 11 18  1  0  0  0  0
 12 13  1  0  0  0  0
 13 14  1  0  0  0  0
 13 17  1  0  0  0  0
 14 15  2  0  0  0  0
 15 16  1  0  0  0  0
 16 17  2  0  0  0  0
 18 19  1  0  0  0  0
 18 26  2  0  0  0  0
 19 20  2  0  0  0  0
 20 21  1  0  0  0  0
 21 22  1  0  0  0  0
 21 25  1  0  0  0  0
 22 23  2  0  0  0  0
 23 24  1  0  0  0  0
 24 25  2  0  0  0  0
 25 26  1  0  0  0  0
  1 28  1  0  0  0  0
  1 29  1  0  0  0  0
  1 30  1  0  0  0  0
  4 31  1  0  0  0  0
  5 32  1  0  0  0  0
  6 33  1  0  0  0  0
  8 34  1  0  0  0  0
 12 35  1  0  0  0  0
 14 36  1  0  0  0  0
 15 37  1  0  0  0  0
 19 38  1  0  0  0  0
 20 39  1  0  0  0  0
 21 40  1  0  0  0  0
 22 41  1  0  0  0  0
 26 42  1  0  0  0  0
 27 43  1  0  0  0  0
M  END
> <IC50[nM]>
8.5

$$$$
CHEMBL3265028
  -OEChem-05192314333D
 Structure written by MMmdl.
 43 47  0     0  0  0  0  0  0999 V2000
   -1.9509    0.6794   12.3551 C   0  0  0  0  0  0  0  0  0  0  0  0
   -2.6175   -0.2972   13.1574 O   0  0  0  0  0  0  0  0  0  0  0  0
   -1.8696   -1.0545   14.0449 C   0  0  0  0  0  0  0  0  0  0  0  0
   -2.5006   -2.0822   14.7698 C   0  0  0  0  0  0  0  0  0  0  0  0
   -1.7540   -2.8524   15.6585 C   0  0  0  0  0  0  0  0  0  0  0  0
   -0.3950   -2.6038   15.8322 C   0  0  0  0  0  0  0  0  0  0  0  0
    0.2324   -1.5851   15.1260 C   0  0  0  0  0  0  0  0  0  0  0  0
    1.6168   -1.3648   15.3699 N   0  0  0  0  0  0  0  0  0  0  0  0
    2.5420   -0.4570   14.7968 C   0  0  0  0  0  0  0  0  0  0  0  0
    2.1720    0.3831   13.7786 N   0  0  0  0  0  0  0  0  0  0  0  0
    3.1103    1.2383   13.2419 C   0  0  0  0  0  0  0  0  0  0  0  0
    4.3968    1.2792   13.7037 C   0  0  0  0  0  0  0  0  0  0  0  0
    4.7381    0.4944   14.7692 N   0  0  0  0  0  0  0  0  0  0  0  0
    5.8928    0.3893   15.4752 C   0  0  0  0  0  0  0  0  0  0  0  0
    5.6110   -0.5494   16.5068 C   0  0  0  0  0  0  0  0  0  0  0  0
    4.4002   -1.0741   16.3612 N   0  0  0  0  0  0  0  0  0  0  0  0
    3.8444   -0.3918   15.3407 C   0  0  0  0  0  0  0  0  0  0  0  0
    2.6282    2.1384   12.1226 C   0  0  0  0  0  0  0  0  0  0  0  0
    3.5442    2.6282   11.1721 C   0  0  0  0  0  0  0  0  0  0  0  0
    3.1497    3.4552   10.1130 C   0  0  0  0  0  0  0  0  0  0  0  0
    1.8035    3.8107   10.0226 C   0  0  0  0  0  0  0  0  0  0  0  0
    0.9910    4.6054    9.1269 C   0  0  0  0  0  0  0  0  0  0  0  0
   -0.2498    4.6130    9.5297 N   0  0  0  0  0  0  0  0  0  0  0  0
   -0.3276    3.8827   10.6287 N   0  0  0  0  0  0  0  0  0  0  0  0
    0.8922    3.3455   10.9868 C   0  0  0  0  0  0  0  0  0  0  0  0
    1.2628    2.5119   12.0466 C   0  0  0  0  0  0  0  0  0  0  0  0
   -0.5121   -0.8124   14.2226 C   0  0  0  0  0  0  0  0  0  0  0  0
   -2.6836    1.1877   11.7110 H   0  0  0  0  0  0  0  0  0  0  0  0
   -1.4618    1.4178   13.0075 H   0  0  0  0  0  0  0  0  0  0  0  0
   -1.1937    0.1846   11.7292 H   0  0  0  0  0  0  0  0  0  0  0  0
   -3.5555   -2.2724   14.6382 H   0  0  0  0  0  0  0  0  0  0  0  0
   -2.2311   -3.6455   16.2150 H   0  0  0  0  0  0  0  0  0  0  0  0
    0.1761   -3.2079   16.5216 H   0  0  0  0  0  0  0  0  0  0  0  0
    2.0079   -1.9582   16.0734 H   0  0  0  0  0  0  0  0  0  0  0  0
    5.1294    1.9197   13.2352 H   0  0  0  0  0  0  0  0  0  0  0  0
    6.8235    0.9061   15.2933 H   0  0  0  0  0  0  0  0  0  0  0  0
    6.2935   -0.8022   17.3047 H   0  0  0  0  0  0  0  0  0  0  0  0
    4.3005    3.1928   11.7371 H   0  0  0  0  0  0  0  0  0  0  0  0
    4.0128    1.7448   10.7137 H   0  0  0  0  0  0  0  0  0  0  0  0
    3.8671    3.8078    9.3868 H   0  0  0  0  0  0  0  0  0  0  0  0
    1.3590    5.1186    8.2507 H   0  0  0  0  0  0  0  0  0  0  0  0
    0.5419    2.1684   12.7738 H   0  0  0  0  0  0  0  0  0  0  0  0
   -0.0286   -0.0257   13.6625 H   0  0  0  0  0  0  0  0  0  0  0  0
  1  2  1  0  0  0  0
  2  3  1  0  0  0  0
  3  4  2  0  0  0  0
  3 27  1  0  0  0  0
  4  5  1  0  0  0  0
  5  6  2  0  0  0  0
  6  7  1  0  0  0  0
  7  8  1  0  0  0  0
  7 27  2  0  0  0  0
  8  9  1  0  0  0  0
  9 10  2  0  0  0  0
  9 17  1  0  0  0  0
 10 11  1  0  0  0  0
 11 12  2  0  0  0  0
 11 18  1  0  0  0  0
 12 13  1  0  0  0  0
 13 14  1  0  0  0  0
 13 17  1  0  0  0  0
 14 15  2  0  0  0  0
 15 16  1  0  0  0  0
 16 17  2  0  0  0  0
 18 19  1  0  0  0  0
 18 26  2  0  0  0  0
 19 20  1  0  0  0  0
 20 21  2  0  0  0  0
 21 22  1  0  0  0  0
 21 25  1  0  0  0  0
 22 23  2  0  0  0  0
 23 24  1  0  0  0  0
 24 25  2  0  0  0  0
 25 26  1  0  0  0  0
  1 28  1  0  0  0  0
  1 29  1  0  0  0  0
  1 30  1  0  0  0  0
  4 31  1  0  0  0  0
  5 32  1  0  0  0  0
  6 33  1  0  0  0  0
  8 34  1  0  0  0  0
 12 35  1  0  0  0  0
 14 36  1  0  0  0  0
 15 37  1  0  0  0  0
 19 38  1  0  0  0  0
 19 39  1  0  0  0  0
 20 40  1  0  0  0  0
 22 41  1  0  0  0  0
 26 42  1  0  0  0  0
 27 43  1  0  0  0  0
M  END
> <IC50[nM]>
8.5

$$$$
CHEMBL3265028
  -OEChem-05192314333D
 Structure written by MMmdl.
 43 47  0     0  0  0  0  0  0999 V2000
   -1.9509    0.6794   12.3551 C   0  0  0  0  0  0  0  0  0  0  0  0
   -2.6175   -0.2972   13.1574 O   0  0  0  0  0  0  0  0  0  0  0  0
   -1.8696   -1.0545   14.0449 C   0  0  0  0  0  0  0  0  0  0  0  0
   -2.5006   -2.0822   14.7698 C   0  0  0  0  0  0  0  0  0  0  0  0
   -1.7540   -2.8524   15.6585 C   0  0  0  0  0  0  0  0  0  0  0  0
   -0.3950   -2.6038   15.8322 C   0  0  0  0  0  0  0  0  0  0  0  0
    0.2324   -1.5851   15.1260 C   0  0  0  0  0  0  0  0  0  0  0  0
    1.6168   -1.3648   15.3699 N   0  0  0  0  0  0  0  0  0  0  0  0
    2.5420   -0.4570   14.7968 C   0  0  0  0  0  0  0  0  0  0  0  0
    2.1720    0.3831   13.7786 N   0  0  0  0  0  0  0  0  0  0  0  0
    3.1103    1.2383   13.2419 C   0  0  0  0  0  0  0  0  0  0  0  0
    4.3968    1.2792   13.7037 C   0  0  0  0  0  0  0  0  0  0  0  0
    4.7381    0.4944   14.7692 N   0  0  0  0  0  0  0  0  0  0  0  0
    5.8928    0.3893   15.4752 C   0  0  0  0  0  0  0  0  0  0  0  0
    5.6110   -0.5494   16.5068 C   0  0  0  0  0  0  0  0  0  0  0  0
    4.4002   -1.0741   16.3612 N   0  0  0  0  0  0  0  0  0  0  0  0
    3.8444   -0.3918   15.3407 C   0  0  0  0  0  0  0  0  0  0  0  0
    2.6282    2.1384   12.1226 C   0  0  0  0  0  0  0  0  0  0  0  0
    3.5442    2.6282   11.1721 C   0  0  0  0  0  0  0  0  0  0  0  0
    3.1497    3.4552   10.1130 C   0  0  0  0  0  0  0  0  0  0  0  0
    1.8035    3.8107   10.0226 C   0  0  0  0  0  0  0  0  0  0  0  0
    0.9910    4.6054    9.1269 C   0  0  0  0  0  0  0  0  0  0  0  0
   -0.2498    4.6130    9.5297 N   0  0  0  0  0  0  0  0  0  0  0  0
   -0.3276    3.8827   10.6287 N   0  0  0  0  0  0  0  0  0  0  0  0
    0.8922    3.3455   10.9868 C   0  0  0  0  0  0  0  0  0  0  0  0
    1.2628    2.5119   12.0466 C   0  0  0  0  0  0  0  0  0  0  0  0
   -0.5121   -0.8124   14.2226 C   0  0  0  0  0  0  0  0  0  0  0  0
   -2.6836    1.1877   11.7110 H   0  0  0  0  0  0  0  0  0  0  0  0
   -1.4618    1.4178   13.0075 H   0  0  0  0  0  0  0  0  0  0  0  0
   -1.1937    0.1846   11.7292 H   0  0  0  0  0  0  0  0  0  0  0  0
   -3.5555   -2.2724   14.6382 H   0  0  0  0  0  0  0  0  0  0  0  0
   -2.2311   -3.6455   16.2150 H   0  0  0  0  0  0  0  0  0  0  0  0
    0.1761   -3.2079   16.5216 H   0  0  0  0  0  0  0  0  0  0  0  0
    2.0079   -1.9582   16.0734 H   0  0  0  0  0  0  0  0  0  0  0  0
    5.1294    1.9197   13.2352 H   0  0  0  0  0  0  0  0  0  0  0  0
    6.8235    0.9061   15.2933 H   0  0  0  0  0  0  0  0  0  0  0  0
    6.2935   -0.8022   17.3047 H   0  0  0  0  0  0  0  0  0  0  0  0
    4.5857    2.3571   11.2628 H   0  0  0  0  0  0  0  0  0  0  0  0
    3.8671    3.8078    9.3868 H   0  0  0  0  0  0  0  0  0  0  0  0
    1.3590    5.1186    8.2507 H   0  0  0  0  0  0  0  0  0  0  0  0
    0.6699    1.5888   11.9661 H   0  0  0  0  0  0  0  0  0  0  0  0
    1.0079    3.0310   12.9823 H   0  0  0  0  0  0  0  0  0  0  0  0
   -0.0286   -0.0257   13.6625 H   0  0  0  0  0  0  0  0  0  0  0  0
  1  2  1  0  0  0  0
  2  3  1  0  0  0  0
  3  4  2  0  0  0  0
  3 27  1  0  0  0  0
  4  5  1  0  0  0  0
  5  6  2  0  0  0  0
  6  7  1  0  0  0  0
  7  8  1  0  0  0  0
  7 27  2  0  0  0  0
  8  9  1  0  0  0  0
  9 10  2  0  0  0  0
  9 17  1  0  0  0  0
 10 11  1  0  0  0  0
 11 12  2  0  0  0  0
 11 18  1  0  0  0  0
 12 13  1  0  0  0  0
 13 14  1  0  0  0  0
 13 17  1  0  0  0  0
 14 15  2  0  0  0  0
 15 16  1  0  0  0  0
 16 17  2  0  0  0  0
 18 19  2  0  0  0  0
 18 26  1  0  0  0  0
 19 20  1  0  0  0  0
 20 21  2  0  0  0  0
 21 22  1  0  0  0  0
 21 25  1  0  0  0  0
 22 23  2  0  0  0  0
 23 24  1  0  0  0  0
 24 25  2  0  0  0  0
 25 26  1  0  0  0  0
  1 28  1  0  0  0  0
  1 29  1  0  0  0  0
  1 30  1  0  0  0  0
  4 31  1  0  0  0  0
  5 32  1  0  0  0  0
  6 33  1  0  0  0  0
  8 34  1  0  0  0  0
 12 35  1  0  0  0  0
 14 36  1  0  0  0  0
 15 37  1  0  0  0  0
 19 38  1  0  0  0  0
 20 39  1  0  0  0  0
 22 40  1  0  0  0  0
 26 41  1  0  0  0  0
 26 42  1  0  0  0  0
 27 43  1  0  0  0  0
M  END
> <IC50[nM]>
8.5

$$$$
CHEMBL3265028
  -OEChem-05192314333D
 Structure written by MMmdl.
 43 47  0     1  0  0  0  0  0999 V2000
   -1.9509    0.6794   12.3551 C   0  0  0  0  0  0  0  0  0  0  0  0
   -2.6175   -0.2972   13.1574 O   0  0  0  0  0  0  0  0  0  0  0  0
   -1.8696   -1.0545   14.0449 C   0  0  0  0  0  0  0  0  0  0  0  0
   -2.5006   -2.0822   14.7698 C   0  0  0  0  0  0  0  0  0  0  0  0
   -1.7540   -2.8524   15.6585 C   0  0  0  0  0  0  0  0  0  0  0  0
   -0.3950   -2.6038   15.8322 C   0  0  0  0  0  0  0  0  0  0  0  0
    0.2324   -1.5851   15.1260 C   0  0  0  0  0  0  0  0  0  0  0  0
    1.6168   -1.3648   15.3699 N   0  0  0  0  0  0  0  0  0  0  0  0
    2.5420   -0.4570   14.7968 C   0  0  0  0  0  0  0  0  0  0  0  0
    2.1720    0.3831   13.7786 N   0  0  0  0  0  0  0  0  0  0  0  0
    3.1103    1.2383   13.2419 C   0  0  0  0  0  0  0  0  0  0  0  0
    4.3968    1.2792   13.7037 C   0  0  0  0  0  0  0  0  0  0  0  0
    4.7381    0.4944   14.7692 N   0  0  0  0  0  0  0  0  0  0  0  0
    5.8928    0.3893   15.4752 C   0  0  0  0  0  0  0  0  0  0  0  0
    5.6110   -0.5494   16.5068 C   0  0  0  0  0  0  0  0  0  0  0  0
    4.4002   -1.0741   16.3612 N   0  0  0  0  0  0  0  0  0  0  0  0
    3.8444   -0.3918   15.3407 C   0  0  0  0  0  0  0  0  0  0  0  0
    2.6282    2.1384   12.1226 C   0  0  3  0  0  0  0  0  0  0  0  0
    3.5442    2.6282   11.1721 C   0  0  0  0  0  0  0  0  0  0  0  0
    3.1497    3.4552   10.1130 C   0  0  0  0  0  0  0  0  0  0  0  0
    1.8035    3.8107   10.0226 C   0  0  0  0  0  0  0  0  0  0  0  0
    0.9910    4.6054    9.1269 C   0  0  0  0  0  0  0  0  0  0  0  0
   -0.2498    4.6130    9.5297 N   0  0  0  0  0  0  0  0  0  0  0  0
   -0.3276    3.8827   10.6287 N   0  0  0  0  0  0  0  0  0  0  0  0
    0.8922    3.3455   10.9868 C   0  0  0  0  0  0  0  0  0  0  0  0
    1.2628    2.5119   12.0466 C   0  0  0  0  0  0  0  0  0  0  0  0
   -0.5121   -0.8124   14.2226 C   0  0  0  0  0  0  0  0  0  0  0  0
   -2.6836    1.1877   11.7110 H   0  0  0  0  0  0  0  0  0  0  0  0
   -1.4618    1.4178   13.0075 H   0  0  0  0  0  0  0  0  0  0  0  0
   -1.1937    0.1846   11.7292 H   0  0  0  0  0  0  0  0  0  0  0  0
   -3.5555   -2.2724   14.6382 H   0  0  0  0  0  0  0  0  0  0  0  0
   -2.2311   -3.6455   16.2150 H   0  0  0  0  0  0  0  0  0  0  0  0
    0.1761   -3.2079   16.5216 H   0  0  0  0  0  0  0  0  0  0  0  0
    2.0079   -1.9582   16.0734 H   0  0  0  0  0  0  0  0  0  0  0  0
    5.1294    1.9197   13.2352 H   0  0  0  0  0  0  0  0  0  0  0  0
    6.8235    0.9061   15.2933 H   0  0  0  0  0  0  0  0  0  0  0  0
    6.2935   -0.8022   17.3047 H   0  0  0  0  0  0  0  0  0  0  0  0
    2.4309    1.2596   11.4911 H   0  0  0  0  0  0  0  0  0  0  0  0
    4.5857    2.3571   11.2628 H   0  0  0  0  0  0  0  0  0  0  0  0
    3.8671    3.8078    9.3868 H   0  0  0  0  0  0  0  0  0  0  0  0
    1.3590    5.1186    8.2507 H   0  0  0  0  0  0  0  0  0  0  0  0
    0.5419    2.1684   12.7738 H   0  0  0  0  0  0  0  0  0  0  0  0
   -0.0286   -0.0257   13.6625 H   0  0  0  0  0  0  0  0  0  0  0  0
  1  2  1  0  0  0  0
  2  3  1  0  0  0  0
  3  4  2  0  0  0  0
  3 27  1  0  0  0  0
  4  5  1  0  0  0  0
  5  6  2  0  0  0  0
  6  7  1  0  0  0  0
  7  8  1  0  0  0  0
  7 27  2  0  0  0  0
  8  9  1  0  0  0  0
  9 10  2  0  0  0  0
  9 17  1  0  0  0  0
 10 11  1  0  0  0  0
 11 12  2  0  0  0  0
 11 18  1  0  0  0  0
 12 13  1  0  0  0  0
 13 14  1  0  0  0  0
 13 17  1  0  0  0  0
 14 15  2  0  0  0  0
 15 16  1  0  0  0  0
 16 17  2  0  0  0  0
 18 19  1  0  0  0  0
 18 26  1  0  0  0  0
 19 20  2  0  0  0  0
 20 21  1  0  0  0  0
 21 22  2  0  0  0  0
 21 25  1  0  0  0  0
 22 23  1  0  0  0  0
 23 24  2  0  0  0  0
 24 25  1  0  0  0  0
 25 26  2  0  0  0  0
  1 28  1  0  0  0  0
  1 29  1  0  0  0  0
  1 30  1  0  0  0  0
  4 31  1  0  0  0  0
  5 32  1  0  0  0  0
  6 33  1  0  0  0  0
  8 34  1  0  0  0  0
 12 35  1  0  0  0  0
 14 36  1  0  0  0  0
 15 37  1  0  0  0  0
 18 38  1  0  0  0  0
 19 39  1  0  0  0  0
 20 40  1  0  0  0  0
 22 41  1  0  0  0  0
 26 42  1  0  0  0  0
 27 43  1  0  0  0  0
M  END
> <IC50[nM]>
8.5

$$$$
CHEMBL3265028
  -OEChem-05192314333D
 Structure written by MMmdl.
 43 47  0     1  0  0  0  0  0999 V2000
   -1.9509    0.6794   12.3551 C   0  0  0  0  0  0  0  0  0  0  0  0
   -2.6175   -0.2972   13.1574 O   0  0  0  0  0  0  0  0  0  0  0  0
   -1.8696   -1.0545   14.0449 C   0  0  0  0  0  0  0  0  0  0  0  0
   -2.5006   -2.0822   14.7698 C   0  0  0  0  0  0  0  0  0  0  0  0
   -1.7540   -2.8524   15.6585 C   0  0  0  0  0  0  0  0  0  0  0  0
   -0.3950   -2.6038   15.8322 C   0  0  0  0  0  0  0  0  0  0  0  0
    0.2324   -1.5851   15.1260 C   0  0  0  0  0  0  0  0  0  0  0  0
    1.6168   -1.3648   15.3699 N   0  0  0  0  0  0  0  0  0  0  0  0
    2.5420   -0.4570   14.7968 C   0  0  0  0  0  0  0  0  0  0  0  0
    2.1720    0.3831   13.7786 N   0  0  0  0  0  0  0  0  0  0  0  0
    3.1103    1.2383   13.2419 C   0  0  0  0  0  0  0  0  0  0  0  0
    4.3968    1.2792   13.7037 C   0  0  0  0  0  0  0  0  0  0  0  0
    4.7381    0.4944   14.7692 N   0  0  0  0  0  0  0  0  0  0  0  0
    5.8928    0.3893   15.4752 C   0  0  0  0  0  0  0  0  0  0  0  0
    5.6110   -0.5494   16.5068 C   0  0  0  0  0  0  0  0  0  0  0  0
    4.4002   -1.0741   16.3612 N   0  0  0  0  0  0  0  0  0  0  0  0
    3.8444   -0.3918   15.3407 C   0  0  0  0  0  0  0  0  0  0  0  0
    2.6282    2.1384   12.1226 C   0  0  0  0  0  0  0  0  0  0  0  0
    3.5442    2.6282   11.1721 C   0  0  0  0  0  0  0  0  0  0  0  0
    3.1497    3.4552   10.1130 C   0  0  0  0  0  0  0  0  0  0  0  0
    1.8035    3.8107   10.0226 C   0  0  0  0  0  0  0  0  0  0  0  0
    0.9910    4.6054    9.1269 C   0  0  0  0  0  0  0  0  0  0  0  0
   -0.2498    4.6130    9.5297 N   0  0  0  0  0  0  0  0  0  0  0  0
   -0.3276    3.8827   10.6287 N   0  0  0  0  0  0  0  0  0  0  0  0
    0.8922    3.3455   10.9868 C   0  0  3  0  0  0  0  0  0  0  0  0
    1.2628    2.5119   12.0466 C   0  0  0  0  0  0  0  0  0  0  0  0
   -0.5121   -0.8124   14.2226 C   0  0  0  0  0  0  0  0  0  0  0  0
   -2.6836    1.1877   11.7110 H   0  0  0  0  0  0  0  0  0  0  0  0
   -1.4618    1.4178   13.0075 H   0  0  0  0  0  0  0  0  0  0  0  0
   -1.1937    0.1846   11.7292 H   0  0  0  0  0  0  0  0  0  0  0  0
   -3.5555   -2.2724   14.6382 H   0  0  0  0  0  0  0  0  0  0  0  0
   -2.2311   -3.6455   16.2150 H   0  0  0  0  0  0  0  0  0  0  0  0
    0.1761   -3.2079   16.5216 H   0  0  0  0  0  0  0  0  0  0  0  0
    2.0079   -1.9582   16.0734 H   0  0  0  0  0  0  0  0  0  0  0  0
    5.1294    1.9197   13.2352 H   0  0  0  0  0  0  0  0  0  0  0  0
    6.8235    0.9061   15.2933 H   0  0  0  0  0  0  0  0  0  0  0  0
    6.2935   -0.8022   17.3047 H   0  0  0  0  0  0  0  0  0  0  0  0
    4.5857    2.3571   11.2628 H   0  0  0  0  0  0  0  0  0  0  0  0
    3.8671    3.8078    9.3868 H   0  0  0  0  0  0  0  0  0  0  0  0
    1.3590    5.1186    8.2507 H   0  0  0  0  0  0  0  0  0  0  0  0
    1.0990    4.2288   11.6089 H   0  0  0  0  0  0  0  0  0  0  0  0
    0.5419    2.1684   12.7738 H   0  0  0  0  0  0  0  0  0  0  0  0
   -0.0286   -0.0257   13.6625 H   0  0  0  0  0  0  0  0  0  0  0  0
  1  2  1  0  0  0  0
  2  3  1  0  0  0  0
  3  4  2  0  0  0  0
  3 27  1  0  0  0  0
  4  5  1  0  0  0  0
  5  6  2  0  0  0  0
  6  7  1  0  0  0  0
  7  8  1  0  0  0  0
  7 27  2  0  0  0  0
  8  9  1  0  0  0  0
  9 10  2  0  0  0  0
  9 17  1  0  0  0  0
 10 11  1  0  0  0  0
 11 12  2  0  0  0  0
 11 18  1  0  0  0  0
 12 13  1  0  0  0  0
 13 14  1  0  0  0  0
 13 17  1  0  0  0  0
 14 15  2  0  0  0  0
 15 16  1  0  0  0  0
 16 17  2  0  0  0  0
 18 19  1  0  0  0  0
 18 26  2  0  0  0  0
 19 20  2  0  0  0  0
 20 21  1  0  0  0  0
 21 22  2  0  0  0  0
 21 25  1  0  0  0  0
 22 23  1  0  0  0  0
 23 24  2  0  0  0  0
 24 25  1  0  0  0  0
 25 26  1  0  0  0  0
  1 28  1  0  0  0  0
  1 29  1  0  0  0  0
  1 30  1  0  0  0  0
  4 31  1  0  0  0  0
  5 32  1  0  0  0  0
  6 33  1  0  0  0  0
  8 34  1  0  0  0  0
 12 35  1  0  0  0  0
 14 36  1  0  0  0  0
 15 37  1  0  0  0  0
 19 38  1  0  0  0  0
 20 39  1  0  0  0  0
 22 40  1  0  0  0  0
 25 41  1  0  0  0  0
 26 42  1  0  0  0  0
 27 43  1  0  0  0  0
M  END
> <IC50[nM]>
8.5

$$$$
CHEMBL3265028
  -OEChem-05192314333D
 Structure written by MMmdl.
 43 47  0     0  0  0  0  0  0999 V2000
   -1.9509    0.6794   12.3551 C   0  0  0  0  0  0  0  0  0  0  0  0
   -2.6175   -0.2972   13.1574 O   0  0  0  0  0  0  0  0  0  0  0  0
   -1.8696   -1.0545   14.0449 C   0  0  0  0  0  0  0  0  0  0  0  0
   -2.5006   -2.0822   14.7698 C   0  0  0  0  0  0  0  0  0  0  0  0
   -1.7540   -2.8524   15.6585 C   0  0  0  0  0  0  0  0  0  0  0  0
   -0.3950   -2.6038   15.8322 C   0  0  0  0  0  0  0  0  0  0  0  0
    0.2324   -1.5851   15.1260 C   0  0  0  0  0  0  0  0  0  0  0  0
    1.6168   -1.3648   15.3699 N   0  0  0  0  0  0  0  0  0  0  0  0
    2.5420   -0.4570   14.7968 C   0  0  0  0  0  0  0  0  0  0  0  0
    2.1720    0.3831   13.7786 N   0  0  0  0  0  0  0  0  0  0  0  0
    3.1103    1.2383   13.2419 C   0  0  0  0  0  0  0  0  0  0  0  0
    4.3968    1.2792   13.7037 C   0  0  0  0  0  0  0  0  0  0  0  0
    4.7381    0.4944   14.7692 N   0  0  0  0  0  0  0  0  0  0  0  0
    5.8928    0.3893   15.4752 C   0  0  0  0  0  0  0  0  0  0  0  0
    5.6110   -0.5494   16.5068 C   0  0  0  0  0  0  0  0  0  0  0  0
    4.4002   -1.0741   16.3612 N   0  0  0  0  0  0  0  0  0  0  0  0
    3.8444   -0.3918   15.3407 C   0  0  0  0  0  0  0  0  0  0  0  0
    2.6282    2.1384   12.1226 C   0  0  0  0  0  0  0  0  0  0  0  0
    3.5442    2.6282   11.1721 C   0  0  0  0  0  0  0  0  0  0  0  0
    3.1497    3.4552   10.1130 C   0  0  0  0  0  0  0  0  0  0  0  0
    1.8035    3.8107   10.0226 C   0  0  0  0  0  0  0  0  0  0  0  0
    0.9910    4.6054    9.1269 C   0  0  0  0  0  0  0  0  0  0  0  0
   -0.2498    4.6130    9.5297 N   0  0  0  0  0  0  0  0  0  0  0  0
   -0.3276    3.8827   10.6287 N   0  0  0  0  0  0  0  0  0  0  0  0
    0.8922    3.3455   10.9868 C   0  0  0  0  0  0  0  0  0  0  0  0
    1.2628    2.5119   12.0466 C   0  0  0  0  0  0  0  0  0  0  0  0
   -0.5121   -0.8124   14.2226 C   0  0  0  0  0  0  0  0  0  0  0  0
   -2.6836    1.1877   11.7110 H   0  0  0  0  0  0  0  0  0  0  0  0
   -1.4618    1.4178   13.0075 H   0  0  0  0  0  0  0  0  0  0  0  0
   -1.1937    0.1846   11.7292 H   0  0  0  0  0  0  0  0  0  0  0  0
   -3.5555   -2.2724   14.6382 H   0  0  0  0  0  0  0  0  0  0  0  0
   -2.2311   -3.6455   16.2150 H   0  0  0  0  0  0  0  0  0  0  0  0
    0.1761   -3.2079   16.5216 H   0  0  0  0  0  0  0  0  0  0  0  0
    2.0079   -1.9582   16.0734 H   0  0  0  0  0  0  0  0  0  0  0  0
    5.1294    1.9197   13.2352 H   0  0  0  0  0  0  0  0  0  0  0  0
    6.8235    0.9061   15.2933 H   0  0  0  0  0  0  0  0  0  0  0  0
    6.2935   -0.8022   17.3047 H   0  0  0  0  0  0  0  0  0  0  0  0
    4.5857    2.3571   11.2628 H   0  0  0  0  0  0  0  0  0  0  0  0
    3.7288    4.3870   10.1931 H   0  0  0  0  0  0  0  0  0  0  0  0
    3.4143    2.9381    9.1789 H   0  0  0  0  0  0  0  0  0  0  0  0
    1.3590    5.1186    8.2507 H   0  0  0  0  0  0  0  0  0  0  0  0
    0.5419    2.1684   12.7738 H   0  0  0  0  0  0  0  0  0  0  0  0
   -0.0286   -0.0257   13.6625 H   0  0  0  0  0  0  0  0  0  0  0  0
  1  2  1  0  0  0  0
  2  3  1  0  0  0  0
  3  4  2  0  0  0  0
  3 27  1  0  0  0  0
  4  5  1  0  0  0  0
  5  6  2  0  0  0  0
  6  7  1  0  0  0  0
  7  8  1  0  0  0  0
  7 27  2  0  0  0  0
  8  9  1  0  0  0  0
  9 10  2  0  0  0  0
  9 17  1  0  0  0  0
 10 11  1  0  0  0  0
 11 12  2  0  0  0  0
 11 18  1  0  0  0  0
 12 13  1  0  0  0  0
 13 14  1  0  0  0  0
 13 17  1  0  0  0  0
 14 15  2  0  0  0  0
 15 16  1  0  0  0  0
 16 17  2  0  0  0  0
 18 19  2  0  0  0  0
 18 26  1  0  0  0  0
 19 20  1  0  0  0  0
 20 21  1  0  0  0  0
 21 22  2  0  0  0  0
 21 25  1  0  0  0  0
 22 23  1  0  0  0  0
 23 24  2  0  0  0  0
 24 25  1  0  0  0  0
 25 26  2  0  0  0  0
  1 28  1  0  0  0  0
  1 29  1  0  0  0  0
  1 30  1  0  0  0  0
  4 31  1  0  0  0  0
  5 32  1  0  0  0  0
  6 33  1  0  0  0  0
  8 34  1  0  0  0  0
 12 35  1  0  0  0  0
 14 36  1  0  0  0  0
 15 37  1  0  0  0  0
 19 38  1  0  0  0  0
 20 39  1  0  0  0  0
 20 40  1  0  0  0  0
 22 41  1  0  0  0  0
 26 42  1  0  0  0  0
 27 43  1  0  0  0  0
M  END
> <IC50[nM]>
8.5

$$$$
CHEMBL3265028
  -OEChem-05192314333D
 Structure written by MMmdl.
 43 47  0     1  0  0  0  0  0999 V2000
   -1.9509    0.6794   12.3551 C   0  0  0  0  0  0  0  0  0  0  0  0
   -2.6175   -0.2972   13.1574 O   0  0  0  0  0  0  0  0  0  0  0  0
   -1.8696   -1.0545   14.0449 C   0  0  0  0  0  0  0  0  0  0  0  0
   -2.5006   -2.0822   14.7698 C   0  0  0  0  0  0  0  0  0  0  0  0
   -1.7540   -2.8524   15.6585 C   0  0  0  0  0  0  0  0  0  0  0  0
   -0.3950   -2.6038   15.8322 C   0  0  0  0  0  0  0  0  0  0  0  0
    0.2324   -1.5851   15.1260 C   0  0  0  0  0  0  0  0  0  0  0  0
    1.6168   -1.3648   15.3699 N   0  0  0  0  0  0  0  0  0  0  0  0
    2.5420   -0.4570   14.7968 C   0  0  0  0  0  0  0  0  0  0  0  0
    2.1720    0.3831   13.7786 N   0  0  0  0  0  0  0  0  0  0  0  0
    3.1103    1.2383   13.2419 C   0  0  0  0  0  0  0  0  0  0  0  0
    4.3968    1.2792   13.7037 C   0  0  0  0  0  0  0  0  0  0  0  0
    4.7381    0.4944   14.7692 N   0  0  0  0  0  0  0  0  0  0  0  0
    5.8928    0.3893   15.4752 C   0  0  0  0  0  0  0  0  0  0  0  0
    5.6110   -0.5494   16.5068 C   0  0  0  0  0  0  0  0  0  0  0  0
    4.4002   -1.0741   16.3612 N   0  0  0  0  0  0  0  0  0  0  0  0
    3.8444   -0.3918   15.3407 C   0  0  0  0  0  0  0  0  0  0  0  0
    2.6282    2.1384   12.1226 C   0  0  0  0  0  0  0  0  0  0  0  0
    3.5442    2.6282   11.1721 C   0  0  0  0  0  0  0  0  0  0  0  0
    3.1497    3.4552   10.1130 C   0  0  0  0  0  0  0  0  0  0  0  0
    1.8035    3.8107   10.0226 C   0  0  3  0  0  0  0  0  0  0  0  0
    0.9910    4.6054    9.1269 C   0  0  0  0  0  0  0  0  0  0  0  0
   -0.2498    4.6130    9.5297 N   0  0  0  0  0  0  0  0  0  0  0  0
   -0.3276    3.8827   10.6287 N   0  0  0  0  0  0  0  0  0  0  0  0
    0.8922    3.3455   10.9868 C   0  0  0  0  0  0  0  0  0  0  0  0
    1.2628    2.5119   12.0466 C   0  0  0  0  0  0  0  0  0  0  0  0
   -0.5121   -0.8124   14.2226 C   0  0  0  0  0  0  0  0  0  0  0  0
   -2.6836    1.1877   11.7110 H   0  0  0  0  0  0  0  0  0  0  0  0
   -1.4618    1.4178   13.0075 H   0  0  0  0  0  0  0  0  0  0  0  0
   -1.1937    0.1846   11.7292 H   0  0  0  0  0  0  0  0  0  0  0  0
   -3.5555   -2.2724   14.6382 H   0  0  0  0  0  0  0  0  0  0  0  0
   -2.2311   -3.6455   16.2150 H   0  0  0  0  0  0  0  0  0  0  0  0
    0.1761   -3.2079   16.5216 H   0  0  0  0  0  0  0  0  0  0  0  0
    1.2347    0.3756   13.4302 H   0  0  0  0  0  0  0  0  0  0  0  0
    5.1294    1.9197   13.2352 H   0  0  0  0  0  0  0  0  0  0  0  0
    6.8235    0.9061   15.2933 H   0  0  0  0  0  0  0  0  0  0  0  0
    6.2935   -0.8022   17.3047 H   0  0  0  0  0  0  0  0  0  0  0  0
    4.5857    2.3571   11.2628 H   0  0  0  0  0  0  0  0  0  0  0  0
    3.8671    3.8078    9.3868 H   0  0  0  0  0  0  0  0  0  0  0  0
    1.6091    2.9191    9.4083 H   0  0  0  0  0  0  0  0  0  0  0  0
    1.3590    5.1186    8.2507 H   0  0  0  0  0  0  0  0  0  0  0  0
    0.5419    2.1684   12.7738 H   0  0  0  0  0  0  0  0  0  0  0  0
   -0.0286   -0.0257   13.6625 H   0  0  0  0  0  0  0  0  0  0  0  0
  1  2  1  0  0  0  0
  2  3  1  0  0  0  0
  3  4  2  0  0  0  0
  3 27  1  0  0  0  0
  4  5  1  0  0  0  0
  5  6  2  0  0  0  0
  6  7  1  0  0  0  0
  7  8  1  0  0  0  0
  7 27  2  0  0  0  0
  8  9  2  0  0  0  0
  9 10  1  0  0  0  0
  9 17  1  0  0  0  0
 10 11  1  0  0  0  0
 11 12  2  0  0  0  0
 11 18  1  0  0  0  0
 12 13  1  0  0  0  0
 13 14  1  0  0  0  0
 13 17  1  0  0  0  0
 14 15  2  0  0  0  0
 15 16  1  0  0  0  0
 16 17  2  0  0  0  0
 18 19  1  0  0  0  0
 18 26  2  0  0  0  0
 19 20  2  0  0  0  0
 20 21  1  0  0  0  0
 21 22  1  0  0  0  0
 21 25  1  0  0  0  0
 22 23  2  0  0  0  0
 23 24  1  0  0  0  0
 24 25  2  0  0  0  0
 25 26  1  0  0  0  0
  1 28  1  0  0  0  0
  1 29  1  0  0  0  0
  1 30  1  0  0  0  0
  4 31  1  0  0  0  0
  5 32  1  0  0  0  0
  6 33  1  0  0  0  0
 10 34  1  0  0  0  0
 12 35  1  0  0  0  0
 14 36  1  0  0  0  0
 15 37  1  0  0  0  0
 19 38  1  0  0  0  0
 20 39  1  0  0  0  0
 21 40  1  0  0  0  0
 22 41  1  0  0  0  0
 26 42  1  0  0  0  0
 27 43  1  0  0  0  0
M  END
> <IC50[nM]>
8.5

$$$$
CHEMBL3265028
  -OEChem-05192314333D
 Structure written by MMmdl.
 43 47  0     0  0  0  0  0  0999 V2000
   -1.9509    0.6794   12.3551 C   0  0  0  0  0  0  0  0  0  0  0  0
   -2.6175   -0.2972   13.1574 O   0  0  0  0  0  0  0  0  0  0  0  0
   -1.8696   -1.0545   14.0449 C   0  0  0  0  0  0  0  0  0  0  0  0
   -2.5006   -2.0822   14.7698 C   0  0  0  0  0  0  0  0  0  0  0  0
   -1.7540   -2.8524   15.6585 C   0  0  0  0  0  0  0  0  0  0  0  0
   -0.3950   -2.6038   15.8322 C   0  0  0  0  0  0  0  0  0  0  0  0
    0.2324   -1.5851   15.1260 C   0  0  0  0  0  0  0  0  0  0  0  0
    1.6168   -1.3648   15.3699 N   0  0  0  0  0  0  0  0  0  0  0  0
    2.5420   -0.4570   14.7968 C   0  0  0  0  0  0  0  0  0  0  0  0
    2.1720    0.3831   13.7786 N   0  0  0  0  0  0  0  0  0  0  0  0
    3.1103    1.2383   13.2419 C   0  0  0  0  0  0  0  0  0  0  0  0
    4.3968    1.2792   13.7037 C   0  0  0  0  0  0  0  0  0  0  0  0
    4.7381    0.4944   14.7692 N   0  0  0  0  0  0  0  0  0  0  0  0
    5.8928    0.3893   15.4752 C   0  0  0  0  0  0  0  0  0  0  0  0
    5.6110   -0.5494   16.5068 C   0  0  0  0  0  0  0  0  0  0  0  0
    4.4002   -1.0741   16.3612 N   0  0  0  0  0  0  0  0  0  0  0  0
    3.8444   -0.3918   15.3407 C   0  0  0  0  0  0  0  0  0  0  0  0
    2.6282    2.1384   12.1226 C   0  0  0  0  0  0  0  0  0  0  0  0
    3.5442    2.6282   11.1721 C   0  0  0  0  0  0  0  0  0  0  0  0
    3.1497    3.4552   10.1130 C   0  0  0  0  0  0  0  0  0  0  0  0
    1.8035    3.8107   10.0226 C   0  0  0  0  0  0  0  0  0  0  0  0
    0.9910    4.6054    9.1269 C   0  0  0  0  0  0  0  0  0  0  0  0
   -0.2498    4.6130    9.5297 N   0  0  0  0  0  0  0  0  0  0  0  0
   -0.3276    3.8827   10.6287 N   0  0  0  0  0  0  0  0  0  0  0  0
    0.8922    3.3455   10.9868 C   0  0  0  0  0  0  0  0  0  0  0  0
    1.2628    2.5119   12.0466 C   0  0  0  0  0  0  0  0  0  0  0  0
   -0.5121   -0.8124   14.2226 C   0  0  0  0  0  0  0  0  0  0  0  0
   -2.6836    1.1877   11.7110 H   0  0  0  0  0  0  0  0  0  0  0  0
   -1.4618    1.4178   13.0075 H   0  0  0  0  0  0  0  0  0  0  0  0
   -1.1937    0.1846   11.7292 H   0  0  0  0  0  0  0  0  0  0  0  0
   -3.5555   -2.2724   14.6382 H   0  0  0  0  0  0  0  0  0  0  0  0
   -2.2311   -3.6455   16.2150 H   0  0  0  0  0  0  0  0  0  0  0  0
    0.1761   -3.2079   16.5216 H   0  0  0  0  0  0  0  0  0  0  0  0
    1.2347    0.3756   13.4302 H   0  0  0  0  0  0  0  0  0  0  0  0
    5.1294    1.9197   13.2352 H   0  0  0  0  0  0  0  0  0  0  0  0
    6.8235    0.9061   15.2933 H   0  0  0  0  0  0  0  0  0  0  0  0
    6.2935   -0.8022   17.3047 H   0  0  0  0  0  0  0  0  0  0  0  0
    4.3005    3.1928   11.7371 H   0  0  0  0  0  0  0  0  0  0  0  0
    4.0128    1.7448   10.7137 H   0  0  0  0  0  0  0  0  0  0  0  0
    3.8671    3.8078    9.3868 H   0  0  0  0  0  0  0  0  0  0  0  0
    1.3590    5.1186    8.2507 H   0  0  0  0  0  0  0  0  0  0  0  0
    0.5419    2.1684   12.7738 H   0  0  0  0  0  0  0  0  0  0  0  0
   -0.0286   -0.0257   13.6625 H   0  0  0  0  0  0  0  0  0  0  0  0
  1  2  1  0  0  0  0
  2  3  1  0  0  0  0
  3  4  2  0  0  0  0
  3 27  1  0  0  0  0
  4  5  1  0  0  0  0
  5  6  2  0  0  0  0
  6  7  1  0  0  0  0
  7  8  1  0  0  0  0
  7 27  2  0  0  0  0
  8  9  2  0  0  0  0
  9 10  1  0  0  0  0
  9 17  1  0  0  0  0
 10 11  1  0  0  0  0
 11 12  2  0  0  0  0
 11 18  1  0  0  0  0
 12 13  1  0  0  0  0
 13 14  1  0  0  0  0
 13 17  1  0  0  0  0
 14 15  2  0  0  0  0
 15 16  1  0  0  0  0
 16 17  2  0  0  0  0
 18 19  1  0  0  0  0
 18 26  2  0  0  0  0
 19 20  1  0  0  0  0
 20 21  2  0  0  0  0
 21 22  1  0  0  0  0
 21 25  1  0  0  0  0
 22 23  2  0  0  0  0
 23 24  1  0  0  0  0
 24 25  2  0  0  0  0
 25 26  1  0  0  0  0
  1 28  1  0  0  0  0
  1 29  1  0  0  0  0
  1 30  1  0  0  0  0
  4 31  1  0  0  0  0
  5 32  1  0  0  0  0
  6 33  1  0  0  0  0
 10 34  1  0  0  0  0
 12 35  1  0  0  0  0
 14 36  1  0  0  0  0
 15 37  1  0  0  0  0
 19 38  1  0  0  0  0
 19 39  1  0  0  0  0
 20 40  1  0  0  0  0
 22 41  1  0  0  0  0
 26 42  1  0  0  0  0
 27 43  1  0  0  0  0
M  END
> <IC50[nM]>
8.5

$$$$
CHEMBL3265028
  -OEChem-05192314333D
 Structure written by MMmdl.
 43 47  0     0  0  0  0  0  0999 V2000
   -1.9509    0.6794   12.3551 C   0  0  0  0  0  0  0  0  0  0  0  0
   -2.6175   -0.2972   13.1574 O   0  0  0  0  0  0  0  0  0  0  0  0
   -1.8696   -1.0545   14.0449 C   0  0  0  0  0  0  0  0  0  0  0  0
   -2.5006   -2.0822   14.7698 C   0  0  0  0  0  0  0  0  0  0  0  0
   -1.7540   -2.8524   15.6585 C   0  0  0  0  0  0  0  0  0  0  0  0
   -0.3950   -2.6038   15.8322 C   0  0  0  0  0  0  0  0  0  0  0  0
    0.2324   -1.5851   15.1260 C   0  0  0  0  0  0  0  0  0  0  0  0
    1.6168   -1.3648   15.3699 N   0  0  0  0  0  0  0  0  0  0  0  0
    2.5420   -0.4570   14.7968 C   0  0  0  0  0  0  0  0  0  0  0  0
    2.1720    0.3831   13.7786 N   0  0  0  0  0  0  0  0  0  0  0  0
    3.1103    1.2383   13.2419 C   0  0  0  0  0  0  0  0  0  0  0  0
    4.3968    1.2792   13.7037 C   0  0  0  0  0  0  0  0  0  0  0  0
    4.7381    0.4944   14.7692 N   0  0  0  0  0  0  0  0  0  0  0  0
    5.8928    0.3893   15.4752 C   0  0  0  0  0  0  0  0  0  0  0  0
    5.6110   -0.5494   16.5068 C   0  0  0  0  0  0  0  0  0  0  0  0
    4.4002   -1.0741   16.3612 N   0  0  0  0  0  0  0  0  0  0  0  0
    3.8444   -0.3918   15.3407 C   0  0  0  0  0  0  0  0  0  0  0  0
    2.6282    2.1384   12.1226 C   0  0  0  0  0  0  0  0  0  0  0  0
    3.5442    2.6282   11.1721 C   0  0  0  0  0  0  0  0  0  0  0  0
    3.1497    3.4552   10.1130 C   0  0  0  0  0  0  0  0  0  0  0  0
    1.8035    3.8107   10.0226 C   0  0  0  0  0  0  0  0  0  0  0  0
    0.9910    4.6054    9.1269 C   0  0  0  0  0  0  0  0  0  0  0  0
   -0.2498    4.6130    9.5297 N   0  0  0  0  0  0  0  0  0  0  0  0
   -0.3276    3.8827   10.6287 N   0  0  0  0  0  0  0  0  0  0  0  0
    0.8922    3.3455   10.9868 C   0  0  0  0  0  0  0  0  0  0  0  0
    1.2628    2.5119   12.0466 C   0  0  0  0  0  0  0  0  0  0  0  0
   -0.5121   -0.8124   14.2226 C   0  0  0  0  0  0  0  0  0  0  0  0
   -2.6836    1.1877   11.7110 H   0  0  0  0  0  0  0  0  0  0  0  0
   -1.4618    1.4178   13.0075 H   0  0  0  0  0  0  0  0  0  0  0  0
   -1.1937    0.1846   11.7292 H   0  0  0  0  0  0  0  0  0  0  0  0
   -3.5555   -2.2724   14.6382 H   0  0  0  0  0  0  0  0  0  0  0  0
   -2.2311   -3.6455   16.2150 H   0  0  0  0  0  0  0  0  0  0  0  0
    0.1761   -3.2079   16.5216 H   0  0  0  0  0  0  0  0  0  0  0  0
    1.2347    0.3756   13.4302 H   0  0  0  0  0  0  0  0  0  0  0  0
    5.1294    1.9197   13.2352 H   0  0  0  0  0  0  0  0  0  0  0  0
    6.8235    0.9061   15.2933 H   0  0  0  0  0  0  0  0  0  0  0  0
    6.2935   -0.8022   17.3047 H   0  0  0  0  0  0  0  0  0  0  0  0
    4.5857    2.3571   11.2628 H   0  0  0  0  0  0  0  0  0  0  0  0
    3.8671    3.8078    9.3868 H   0  0  0  0  0  0  0  0  0  0  0  0
    1.3590    5.1186    8.2507 H   0  0  0  0  0  0  0  0  0  0  0  0
    0.6699    1.5888   11.9661 H   0  0  0  0  0  0  0  0  0  0  0  0
    1.0079    3.0310   12.9823 H   0  0  0  0  0  0  0  0  0  0  0  0
   -0.0286   -0.0257   13.6625 H   0  0  0  0  0  0  0  0  0  0  0  0
  1  2  1  0  0  0  0
  2  3  1  0  0  0  0
  3  4  2  0  0  0  0
  3 27  1  0  0  0  0
  4  5  1  0  0  0  0
  5  6  2  0  0  0  0
  6  7  1  0  0  0  0
  7  8  1  0  0  0  0
  7 27  2  0  0  0  0
  8  9  2  0  0  0  0
  9 10  1  0  0  0  0
  9 17  1  0  0  0  0
 10 11  1  0  0  0  0
 11 12  2  0  0  0  0
 11 18  1  0  0  0  0
 12 13  1  0  0  0  0
 13 14  1  0  0  0  0
 13 17  1  0  0  0  0
 14 15  2  0  0  0  0
 15 16  1  0  0  0  0
 16 17  2  0  0  0  0
 18 19  2  0  0  0  0
 18 26  1  0  0  0  0
 19 20  1  0  0  0  0
 20 21  2  0  0  0  0
 21 22  1  0  0  0  0
 21 25  1  0  0  0  0
 22 23  2  0  0  0  0
 23 24  1  0  0  0  0
 24 25  2  0  0  0  0
 25 26  1  0  0  0  0
  1 28  1  0  0  0  0
  1 29  1  0  0  0  0
  1 30  1  0  0  0  0
  4 31  1  0  0  0  0
  5 32  1  0  0  0  0
  6 33  1  0  0  0  0
 10 34  1  0  0  0  0
 12 35  1  0  0  0  0
 14 36  1  0  0  0  0
 15 37  1  0  0  0  0
 19 38  1  0  0  0  0
 20 39  1  0  0  0  0
 22 40  1  0  0  0  0
 26 41  1  0  0  0  0
 26 42  1  0  0  0  0
 27 43  1  0  0  0  0
M  END
> <IC50[nM]>
8.5

$$$$
CHEMBL3265028
  -OEChem-05192314333D
 Structure written by MMmdl.
 43 47  0     1  0  0  0  0  0999 V2000
   -1.9509    0.6794   12.3551 C   0  0  0  0  0  0  0  0  0  0  0  0
   -2.6175   -0.2972   13.1574 O   0  0  0  0  0  0  0  0  0  0  0  0
   -1.8696   -1.0545   14.0449 C   0  0  0  0  0  0  0  0  0  0  0  0
   -2.5006   -2.0822   14.7698 C   0  0  0  0  0  0  0  0  0  0  0  0
   -1.7540   -2.8524   15.6585 C   0  0  0  0  0  0  0  0  0  0  0  0
   -0.3950   -2.6038   15.8322 C   0  0  0  0  0  0  0  0  0  0  0  0
    0.2324   -1.5851   15.1260 C   0  0  0  0  0  0  0  0  0  0  0  0
    1.6168   -1.3648   15.3699 N   0  0  0  0  0  0  0  0  0  0  0  0
    2.5420   -0.4570   14.7968 C   0  0  0  0  0  0  0  0  0  0  0  0
    2.1720    0.3831   13.7786 N   0  0  0  0  0  0  0  0  0  0  0  0
    3.1103    1.2383   13.2419 C   0  0  0  0  0  0  0  0  0  0  0  0
    4.3968    1.2792   13.7037 C   0  0  0  0  0  0  0  0  0  0  0  0
    4.7381    0.4944   14.7692 N   0  0  0  0  0  0  0  0  0  0  0  0
    5.8928    0.3893   15.4752 C   0  0  0  0  0  0  0  0  0  0  0  0
    5.6110   -0.5494   16.5068 C   0  0  0  0  0  0  0  0  0  0  0  0
    4.4002   -1.0741   16.3612 N   0  0  0  0  0  0  0  0  0  0  0  0
    3.8444   -0.3918   15.3407 C   0  0  0  0  0  0  0  0  0  0  0  0
    2.6282    2.1384   12.1226 C   0  0  3  0  0  0  0  0  0  0  0  0
    3.5442    2.6282   11.1721 C   0  0  0  0  0  0  0  0  0  0  0  0
    3.1497    3.4552   10.1130 C   0  0  0  0  0  0  0  0  0  0  0  0
    1.8035    3.8107   10.0226 C   0  0  0  0  0  0  0  0  0  0  0  0
    0.9910    4.6054    9.1269 C   0  0  0  0  0  0  0  0  0  0  0  0
   -0.2498    4.6130    9.5297 N   0  0  0  0  0  0  0  0  0  0  0  0
   -0.3276    3.8827   10.6287 N   0  0  0  0  0  0  0  0  0  0  0  0
    0.8922    3.3455   10.9868 C   0  0  0  0  0  0  0  0  0  0  0  0
    1.2628    2.5119   12.0466 C   0  0  0  0  0  0  0  0  0  0  0  0
   -0.5121   -0.8124   14.2226 C   0  0  0  0  0  0  0  0  0  0  0  0
   -2.6836    1.1877   11.7110 H   0  0  0  0  0  0  0  0  0  0  0  0
   -1.4618    1.4178   13.0075 H   0  0  0  0  0  0  0  0  0  0  0  0
   -1.1937    0.1846   11.7292 H   0  0  0  0  0  0  0  0  0  0  0  0
   -3.5555   -2.2724   14.6382 H   0  0  0  0  0  0  0  0  0  0  0  0
   -2.2311   -3.6455   16.2150 H   0  0  0  0  0  0  0  0  0  0  0  0
    0.1761   -3.2079   16.5216 H   0  0  0  0  0  0  0  0  0  0  0  0
    1.2347    0.3756   13.4302 H   0  0  0  0  0  0  0  0  0  0  0  0
    5.1294    1.9197   13.2352 H   0  0  0  0  0  0  0  0  0  0  0  0
    6.8235    0.9061   15.2933 H   0  0  0  0  0  0  0  0  0  0  0  0
    6.2935   -0.8022   17.3047 H   0  0  0  0  0  0  0  0  0  0  0  0
    2.4309    1.2596   11.4911 H   0  0  0  0  0  0  0  0  0  0  0  0
    4.5857    2.3571   11.2628 H   0  0  0  0  0  0  0  0  0  0  0  0
    3.8671    3.8078    9.3868 H   0  0  0  0  0  0  0  0  0  0  0  0
    1.3590    5.1186    8.2507 H   0  0  0  0  0  0  0  0  0  0  0  0
    0.5419    2.1684   12.7738 H   0  0  0  0  0  0  0  0  0  0  0  0
   -0.0286   -0.0257   13.6625 H   0  0  0  0  0  0  0  0  0  0  0  0
  1  2  1  0  0  0  0
  2  3  1  0  0  0  0
  3  4  2  0  0  0  0
  3 27  1  0  0  0  0
  4  5  1  0  0  0  0
  5  6  2  0  0  0  0
  6  7  1  0  0  0  0
  7  8  1  0  0  0  0
  7 27  2  0  0  0  0
  8  9  2  0  0  0  0
  9 10  1  0  0  0  0
  9 17  1  0  0  0  0
 10 11  1  0  0  0  0
 11 12  2  0  0  0  0
 11 18  1  0  0  0  0
 12 13  1  0  0  0  0
 13 14  1  0  0  0  0
 13 17  1  0  0  0  0
 14 15  2  0  0  0  0
 15 16  1  0  0  0  0
 16 17  2  0  0  0  0
 18 19  1  0  0  0  0
 18 26  1  0  0  0  0
 19 20  2  0  0  0  0
 20 21  1  0  0  0  0
 21 22  2  0  0  0  0
 21 25  1  0  0  0  0
 22 23  1  0  0  0  0
 23 24  2  0  0  0  0
 24 25  1  0  0  0  0
 25 26  2  0  0  0  0
  1 28  1  0  0  0  0
  1 29  1  0  0  0  0
  1 30  1  0  0  0  0
  4 31  1  0  0  0  0
  5 32  1  0  0  0  0
  6 33  1  0  0  0  0
 10 34  1  0  0  0  0
 12 35  1  0  0  0  0
 14 36  1  0  0  0  0
 15 37  1  0  0  0  0
 18 38  1  0  0  0  0
 19 39  1  0  0  0  0
 20 40  1  0  0  0  0
 22 41  1  0  0  0  0
 26 42  1  0  0  0  0
 27 43  1  0  0  0  0
M  END
> <IC50[nM]>
8.5

$$$$
CHEMBL3265028
  -OEChem-05192314333D
 Structure written by MMmdl.
 43 47  0     1  0  0  0  0  0999 V2000
   -1.9509    0.6794   12.3551 C   0  0  0  0  0  0  0  0  0  0  0  0
   -2.6175   -0.2972   13.1574 O   0  0  0  0  0  0  0  0  0  0  0  0
   -1.8696   -1.0545   14.0449 C   0  0  0  0  0  0  0  0  0  0  0  0
   -2.5006   -2.0822   14.7698 C   0  0  0  0  0  0  0  0  0  0  0  0
   -1.7540   -2.8524   15.6585 C   0  0  0  0  0  0  0  0  0  0  0  0
   -0.3950   -2.6038   15.8322 C   0  0  0  0  0  0  0  0  0  0  0  0
    0.2324   -1.5851   15.1260 C   0  0  0  0  0  0  0  0  0  0  0  0
    1.6168   -1.3648   15.3699 N   0  0  0  0  0  0  0  0  0  0  0  0
    2.5420   -0.4570   14.7968 C   0  0  0  0  0  0  0  0  0  0  0  0
    2.1720    0.3831   13.7786 N   0  0  0  0  0  0  0  0  0  0  0  0
    3.1103    1.2383   13.2419 C   0  0  0  0  0  0  0  0  0  0  0  0
    4.3968    1.2792   13.7037 C   0  0  0  0  0  0  0  0  0  0  0  0
    4.7381    0.4944   14.7692 N   0  0  0  0  0  0  0  0  0  0  0  0
    5.8928    0.3893   15.4752 C   0  0  0  0  0  0  0  0  0  0  0  0
    5.6110   -0.5494   16.5068 C   0  0  0  0  0  0  0  0  0  0  0  0
    4.4002   -1.0741   16.3612 N   0  0  0  0  0  0  0  0  0  0  0  0
    3.8444   -0.3918   15.3407 C   0  0  0  0  0  0  0  0  0  0  0  0
    2.6282    2.1384   12.1226 C   0  0  0  0  0  0  0  0  0  0  0  0
    3.5442    2.6282   11.1721 C   0  0  0  0  0  0  0  0  0  0  0  0
    3.1497    3.4552   10.1130 C   0  0  0  0  0  0  0  0  0  0  0  0
    1.8035    3.8107   10.0226 C   0  0  0  0  0  0  0  0  0  0  0  0
    0.9910    4.6054    9.1269 C   0  0  0  0  0  0  0  0  0  0  0  0
   -0.2498    4.6130    9.5297 N   0  0  0  0  0  0  0  0  0  0  0  0
   -0.3276    3.8827   10.6287 N   0  0  0  0  0  0  0  0  0  0  0  0
    0.8922    3.3455   10.9868 C   0  0  3  0  0  0  0  0  0  0  0  0
    1.2628    2.5119   12.0466 C   0  0  0  0  0  0  0  0  0  0  0  0
   -0.5121   -0.8124   14.2226 C   0  0  0  0  0  0  0  0  0  0  0  0
   -2.6836    1.1877   11.7110 H   0  0  0  0  0  0  0  0  0  0  0  0
   -1.4618    1.4178   13.0075 H   0  0  0  0  0  0  0  0  0  0  0  0
   -1.1937    0.1846   11.7292 H   0  0  0  0  0  0  0  0  0  0  0  0
   -3.5555   -2.2724   14.6382 H   0  0  0  0  0  0  0  0  0  0  0  0
   -2.2311   -3.6455   16.2150 H   0  0  0  0  0  0  0  0  0  0  0  0
    0.1761   -3.2079   16.5216 H   0  0  0  0  0  0  0  0  0  0  0  0
    1.2347    0.3756   13.4302 H   0  0  0  0  0  0  0  0  0  0  0  0
    5.1294    1.9197   13.2352 H   0  0  0  0  0  0  0  0  0  0  0  0
    6.8235    0.9061   15.2933 H   0  0  0  0  0  0  0  0  0  0  0  0
    6.2935   -0.8022   17.3047 H   0  0  0  0  0  0  0  0  0  0  0  0
    4.5857    2.3571   11.2628 H   0  0  0  0  0  0  0  0  0  0  0  0
    3.8671    3.8078    9.3868 H   0  0  0  0  0  0  0  0  0  0  0  0
    1.3590    5.1186    8.2507 H   0  0  0  0  0  0  0  0  0  0  0  0
    1.0990    4.2288   11.6089 H   0  0  0  0  0  0  0  0  0  0  0  0
    0.5419    2.1684   12.7738 H   0  0  0  0  0  0  0  0  0  0  0  0
   -0.0286   -0.0257   13.6625 H   0  0  0  0  0  0  0  0  0  0  0  0
  1  2  1  0  0  0  0
  2  3  1  0  0  0  0
  3  4  2  0  0  0  0
  3 27  1  0  0  0  0
  4  5  1  0  0  0  0
  5  6  2  0  0  0  0
  6  7  1  0  0  0  0
  7  8  1  0  0  0  0
  7 27  2  0  0  0  0
  8  9  2  0  0  0  0
  9 10  1  0  0  0  0
  9 17  1  0  0  0  0
 10 11  1  0  0  0  0
 11 12  2  0  0  0  0
 11 18  1  0  0  0  0
 12 13  1  0  0  0  0
 13 14  1  0  0  0  0
 13 17  1  0  0  0  0
 14 15  2  0  0  0  0
 15 16  1  0  0  0  0
 16 17  2  0  0  0  0
 18 19  1  0  0  0  0
 18 26  2  0  0  0  0
 19 20  2  0  0  0  0
 20 21  1  0  0  0  0
 21 22  2  0  0  0  0
 21 25  1  0  0  0  0
 22 23  1  0  0  0  0
 23 24  2  0  0  0  0
 24 25  1  0  0  0  0
 25 26  1  0  0  0  0
  1 28  1  0  0  0  0
  1 29  1  0  0  0  0
  1 30  1  0  0  0  0
  4 31  1  0  0  0  0
  5 32  1  0  0  0  0
  6 33  1  0  0  0  0
 10 34  1  0  0  0  0
 12 35  1  0  0  0  0
 14 36  1  0  0  0  0
 15 37  1  0  0  0  0
 19 38  1  0  0  0  0
 20 39  1  0  0  0  0
 22 40  1  0  0  0  0
 25 41  1  0  0  0  0
 26 42  1  0  0  0  0
 27 43  1  0  0  0  0
M  END
> <IC50[nM]>
8.5

$$$$
CHEMBL3265028
  -OEChem-05192314333D
 Structure written by MMmdl.
 43 47  0     0  0  0  0  0  0999 V2000
   -1.9509    0.6794   12.3551 C   0  0  0  0  0  0  0  0  0  0  0  0
   -2.6175   -0.2972   13.1574 O   0  0  0  0  0  0  0  0  0  0  0  0
   -1.8696   -1.0545   14.0449 C   0  0  0  0  0  0  0  0  0  0  0  0
   -2.5006   -2.0822   14.7698 C   0  0  0  0  0  0  0  0  0  0  0  0
   -1.7540   -2.8524   15.6585 C   0  0  0  0  0  0  0  0  0  0  0  0
   -0.3950   -2.6038   15.8322 C   0  0  0  0  0  0  0  0  0  0  0  0
    0.2324   -1.5851   15.1260 C   0  0  0  0  0  0  0  0  0  0  0  0
    1.6168   -1.3648   15.3699 N   0  0  0  0  0  0  0  0  0  0  0  0
    2.5420   -0.4570   14.7968 C   0  0  0  0  0  0  0  0  0  0  0  0
    2.1720    0.3831   13.7786 N   0  0  0  0  0  0  0  0  0  0  0  0
    3.1103    1.2383   13.2419 C   0  0  0  0  0  0  0  0  0  0  0  0
    4.3968    1.2792   13.7037 C   0  0  0  0  0  0  0  0  0  0  0  0
    4.7381    0.4944   14.7692 N   0  0  0  0  0  0  0  0  0  0  0  0
    5.8928    0.3893   15.4752 C   0  0  0  0  0  0  0  0  0  0  0  0
    5.6110   -0.5494   16.5068 C   0  0  0  0  0  0  0  0  0  0  0  0
    4.4002   -1.0741   16.3612 N   0  0  0  0  0  0  0  0  0  0  0  0
    3.8444   -0.3918   15.3407 C   0  0  0  0  0  0  0  0  0  0  0  0
    2.6282    2.1384   12.1226 C   0  0  0  0  0  0  0  0  0  0  0  0
    3.5442    2.6282   11.1721 C   0  0  0  0  0  0  0  0  0  0  0  0
    3.1497    3.4552   10.1130 C   0  0  0  0  0  0  0  0  0  0  0  0
    1.8035    3.8107   10.0226 C   0  0  0  0  0  0  0  0  0  0  0  0
    0.9910    4.6054    9.1269 C   0  0  0  0  0  0  0  0  0  0  0  0
   -0.2498    4.6130    9.5297 N   0  0  0  0  0  0  0  0  0  0  0  0
   -0.3276    3.8827   10.6287 N   0  0  0  0  0  0  0  0  0  0  0  0
    0.8922    3.3455   10.9868 C   0  0  0  0  0  0  0  0  0  0  0  0
    1.2628    2.5119   12.0466 C   0  0  0  0  0  0  0  0  0  0  0  0
   -0.5121   -0.8124   14.2226 C   0  0  0  0  0  0  0  0  0  0  0  0
   -2.6836    1.1877   11.7110 H   0  0  0  0  0  0  0  0  0  0  0  0
   -1.4618    1.4178   13.0075 H   0  0  0  0  0  0  0  0  0  0  0  0
   -1.1937    0.1846   11.7292 H   0  0  0  0  0  0  0  0  0  0  0  0
   -3.5555   -2.2724   14.6382 H   0  0  0  0  0  0  0  0  0  0  0  0
   -2.2311   -3.6455   16.2150 H   0  0  0  0  0  0  0  0  0  0  0  0
    0.1761   -3.2079   16.5216 H   0  0  0  0  0  0  0  0  0  0  0  0
    1.2347    0.3756   13.4302 H   0  0  0  0  0  0  0  0  0  0  0  0
    5.1294    1.9197   13.2352 H   0  0  0  0  0  0  0  0  0  0  0  0
    6.8235    0.9061   15.2933 H   0  0  0  0  0  0  0  0  0  0  0  0
    6.2935   -0.8022   17.3047 H   0  0  0  0  0  0  0  0  0  0  0  0
    4.5857    2.3571   11.2628 H   0  0  0  0  0  0  0  0  0  0  0  0
    3.7288    4.3870   10.1931 H   0  0  0  0  0  0  0  0  0  0  0  0
    3.4143    2.9381    9.1789 H   0  0  0  0  0  0  0  0  0  0  0  0
    1.3590    5.1186    8.2507 H   0  0  0  0  0  0  0  0  0  0  0  0
    0.5419    2.1684   12.7738 H   0  0  0  0  0  0  0  0  0  0  0  0
   -0.0286   -0.0257   13.6625 H   0  0  0  0  0  0  0  0  0  0  0  0
  1  2  1  0  0  0  0
  2  3  1  0  0  0  0
  3  4  2  0  0  0  0
  3 27  1  0  0  0  0
  4  5  1  0  0  0  0
  5  6  2  0  0  0  0
  6  7  1  0  0  0  0
  7  8  1  0  0  0  0
  7 27  2  0  0  0  0
  8  9  2  0  0  0  0
  9 10  1  0  0  0  0
  9 17  1  0  0  0  0
 10 11  1  0  0  0  0
 11 12  2  0  0  0  0
 11 18  1  0  0  0  0
 12 13  1  0  0  0  0
 13 14  1  0  0  0  0
 13 17  1  0  0  0  0
 14 15  2  0  0  0  0
 15 16  1  0  0  0  0
 16 17  2  0  0  0  0
 18 19  2  0  0  0  0
 18 26  1  0  0  0  0
 19 20  1  0  0  0  0
 20 21  1  0  0  0  0
 21 22  2  0  0  0  0
 21 25  1  0  0  0  0
 22 23  1  0  0  0  0
 23 24  2  0  0  0  0
 24 25  1  0  0  0  0
 25 26  2  0  0  0  0
  1 28  1  0  0  0  0
  1 29  1  0  0  0  0
  1 30  1  0  0  0  0
  4 31  1  0  0  0  0
  5 32  1  0  0  0  0
  6 33  1  0  0  0  0
 10 34  1  0  0  0  0
 12 35  1  0  0  0  0
 14 36  1  0  0  0  0
 15 37  1  0  0  0  0
 19 38  1  0  0  0  0
 20 39  1  0  0  0  0
 20 40  1  0  0  0  0
 22 41  1  0  0  0  0
 26 42  1  0  0  0  0
 27 43  1  0  0  0  0
M  END
> <IC50[nM]>
8.5

$$$$
CHEMBL3265028
  -OEChem-05192314333D
 Structure written by MMmdl.
 43 47  0     1  0  0  0  0  0999 V2000
   -1.9509    0.6794   12.3551 C   0  0  0  0  0  0  0  0  0  0  0  0
   -2.6175   -0.2972   13.1574 O   0  0  0  0  0  0  0  0  0  0  0  0
   -1.8696   -1.0545   14.0449 C   0  0  0  0  0  0  0  0  0  0  0  0
   -2.5006   -2.0822   14.7698 C   0  0  0  0  0  0  0  0  0  0  0  0
   -1.7540   -2.8524   15.6585 C   0  0  0  0  0  0  0  0  0  0  0  0
   -0.3950   -2.6038   15.8322 C   0  0  0  0  0  0  0  0  0  0  0  0
    0.2324   -1.5851   15.1260 C   0  0  0  0  0  0  0  0  0  0  0  0
    1.6168   -1.3648   15.3699 N   0  0  0  0  0  0  0  0  0  0  0  0
    2.5420   -0.4570   14.7968 C   0  0  0  0  0  0  0  0  0  0  0  0
    2.1720    0.3831   13.7786 N   0  0  0  0  0  0  0  0  0  0  0  0
    3.1103    1.2383   13.2419 C   0  0  0  0  0  0  0  0  0  0  0  0
    4.3968    1.2792   13.7037 C   0  0  0  0  0  0  0  0  0  0  0  0
    4.7381    0.4944   14.7692 N   0  0  0  0  0  0  0  0  0  0  0  0
    5.8928    0.3893   15.4752 C   0  0  0  0  0  0  0  0  0  0  0  0
    5.6110   -0.5494   16.5068 C   0  0  0  0  0  0  0  0  0  0  0  0
    4.4002   -1.0741   16.3612 N   0  0  0  0  0  0  0  0  0  0  0  0
    3.8444   -0.3918   15.3407 C   0  0  0  0  0  0  0  0  0  0  0  0
    2.6282    2.1384   12.1226 C   0  0  0  0  0  0  0  0  0  0  0  0
    3.5442    2.6282   11.1721 C   0  0  0  0  0  0  0  0  0  0  0  0
    3.1497    3.4552   10.1130 C   0  0  0  0  0  0  0  0  0  0  0  0
    1.8035    3.8107   10.0226 C   0  0  3  0  0  0  0  0  0  0  0  0
    0.9910    4.6054    9.1269 C   0  0  0  0  0  0  0  0  0  0  0  0
   -0.2498    4.6130    9.5297 N   0  0  0  0  0  0  0  0  0  0  0  0
   -0.3276    3.8827   10.6287 N   0  0  0  0  0  0  0  0  0  0  0  0
    0.8922    3.3455   10.9868 C   0  0  0  0  0  0  0  0  0  0  0  0
    1.2628    2.5119   12.0466 C   0  0  0  0  0  0  0  0  0  0  0  0
   -0.5121   -0.8124   14.2226 C   0  0  0  0  0  0  0  0  0  0  0  0
   -2.6836    1.1877   11.7110 H   0  0  0  0  0  0  0  0  0  0  0  0
   -1.4618    1.4178   13.0075 H   0  0  0  0  0  0  0  0  0  0  0  0
   -1.1937    0.1846   11.7292 H   0  0  0  0  0  0  0  0  0  0  0  0
   -3.5555   -2.2724   14.6382 H   0  0  0  0  0  0  0  0  0  0  0  0
   -2.2311   -3.6455   16.2150 H   0  0  0  0  0  0  0  0  0  0  0  0
    0.1761   -3.2079   16.5216 H   0  0  0  0  0  0  0  0  0  0  0  0
    5.0502    0.9908   12.8671 H   0  0  0  0  0  0  0  0  0  0  0  0
    4.6050    2.3209   13.9893 H   0  0  0  0  0  0  0  0  0  0  0  0
    6.8235    0.9061   15.2933 H   0  0  0  0  0  0  0  0  0  0  0  0
    6.2935   -0.8022   17.3047 H   0  0  0  0  0  0  0  0  0  0  0  0
    4.5857    2.3571   11.2628 H   0  0  0  0  0  0  0  0  0  0  0  0
    3.8671    3.8078    9.3868 H   0  0  0  0  0  0  0  0  0  0  0  0
    1.6091    2.9191    9.4083 H   0  0  0  0  0  0  0  0  0  0  0  0
    1.3590    5.1186    8.2507 H   0  0  0  0  0  0  0  0  0  0  0  0
    0.5419    2.1684   12.7738 H   0  0  0  0  0  0  0  0  0  0  0  0
   -0.0286   -0.0257   13.6625 H   0  0  0  0  0  0  0  0  0  0  0  0
  1  2  1  0  0  0  0
  2  3  1  0  0  0  0
  3  4  2  0  0  0  0
  3 27  1  0  0  0  0
  4  5  1  0  0  0  0
  5  6  2  0  0  0  0
  6  7  1  0  0  0  0
  7  8  1  0  0  0  0
  7 27  2  0  0  0  0
  8  9  2  0  0  0  0
  9 10  1  0  0  0  0
  9 17  1  0  0  0  0
 10 11  2  0  0  0  0
 11 12  1  0  0  0  0
 11 18  1  0  0  0  0
 12 13  1  0  0  0  0
 13 14  1  0  0  0  0
 13 17  1  0  0  0  0
 14 15  2  0  0  0  0
 15 16  1  0  0  0  0
 16 17  2  0  0  0  0
 18 19  1  0  0  0  0
 18 26  2  0  0  0  0
 19 20  2  0  0  0  0
 20 21  1  0  0  0  0
 21 22  1  0  0  0  0
 21 25  1  0  0  0  0
 22 23  2  0  0  0  0
 23 24  1  0  0  0  0
 24 25  2  0  0  0  0
 25 26  1  0  0  0  0
  1 28  1  0  0  0  0
  1 29  1  0  0  0  0
  1 30  1  0  0  0  0
  4 31  1  0  0  0  0
  5 32  1  0  0  0  0
  6 33  1  0  0  0  0
 12 34  1  0  0  0  0
 12 35  1  0  0  0  0
 14 36  1  0  0  0  0
 15 37  1  0  0  0  0
 19 38  1  0  0  0  0
 20 39  1  0  0  0  0
 21 40  1  0  0  0  0
 22 41  1  0  0  0  0
 26 42  1  0  0  0  0
 27 43  1  0  0  0  0
M  END
> <IC50[nM]>
8.5

$$$$
CHEMBL3265028
  -OEChem-05192314333D
 Structure written by MMmdl.
 43 47  0     0  0  0  0  0  0999 V2000
   -1.9509    0.6794   12.3551 C   0  0  0  0  0  0  0  0  0  0  0  0
   -2.6175   -0.2972   13.1574 O   0  0  0  0  0  0  0  0  0  0  0  0
   -1.8696   -1.0545   14.0449 C   0  0  0  0  0  0  0  0  0  0  0  0
   -2.5006   -2.0822   14.7698 C   0  0  0  0  0  0  0  0  0  0  0  0
   -1.7540   -2.8524   15.6585 C   0  0  0  0  0  0  0  0  0  0  0  0
   -0.3950   -2.6038   15.8322 C   0  0  0  0  0  0  0  0  0  0  0  0
    0.2324   -1.5851   15.1260 C   0  0  0  0  0  0  0  0  0  0  0  0
    1.6168   -1.3648   15.3699 N   0  0  0  0  0  0  0  0  0  0  0  0
    2.5420   -0.4570   14.7968 C   0  0  0  0  0  0  0  0  0  0  0  0
    2.1720    0.3831   13.7786 N   0  0  0  0  0  0  0  0  0  0  0  0
    3.1103    1.2383   13.2419 C   0  0  0  0  0  0  0  0  0  0  0  0
    4.3968    1.2792   13.7037 C   0  0  0  0  0  0  0  0  0  0  0  0
    4.7381    0.4944   14.7692 N   0  0  0  0  0  0  0  0  0  0  0  0
    5.8928    0.3893   15.4752 C   0  0  0  0  0  0  0  0  0  0  0  0
    5.6110   -0.5494   16.5068 C   0  0  0  0  0  0  0  0  0  0  0  0
    4.4002   -1.0741   16.3612 N   0  0  0  0  0  0  0  0  0  0  0  0
    3.8444   -0.3918   15.3407 C   0  0  0  0  0  0  0  0  0  0  0  0
    2.6282    2.1384   12.1226 C   0  0  0  0  0  0  0  0  0  0  0  0
    3.5442    2.6282   11.1721 C   0  0  0  0  0  0  0  0  0  0  0  0
    3.1497    3.4552   10.1130 C   0  0  0  0  0  0  0  0  0  0  0  0
    1.8035    3.8107   10.0226 C   0  0  0  0  0  0  0  0  0  0  0  0
    0.9910    4.6054    9.1269 C   0  0  0  0  0  0  0  0  0  0  0  0
   -0.2498    4.6130    9.5297 N   0  0  0  0  0  0  0  0  0  0  0  0
   -0.3276    3.8827   10.6287 N   0  0  0  0  0  0  0  0  0  0  0  0
    0.8922    3.3455   10.9868 C   0  0  0  0  0  0  0  0  0  0  0  0
    1.2628    2.5119   12.0466 C   0  0  0  0  0  0  0  0  0  0  0  0
   -0.5121   -0.8124   14.2226 C   0  0  0  0  0  0  0  0  0  0  0  0
   -2.6836    1.1877   11.7110 H   0  0  0  0  0  0  0  0  0  0  0  0
   -1.4618    1.4178   13.0075 H   0  0  0  0  0  0  0  0  0  0  0  0
   -1.1937    0.1846   11.7292 H   0  0  0  0  0  0  0  0  0  0  0  0
   -3.5555   -2.2724   14.6382 H   0  0  0  0  0  0  0  0  0  0  0  0
   -2.2311   -3.6455   16.2150 H   0  0  0  0  0  0  0  0  0  0  0  0
    0.1761   -3.2079   16.5216 H   0  0  0  0  0  0  0  0  0  0  0  0
    5.0502    0.9908   12.8671 H   0  0  0  0  0  0  0  0  0  0  0  0
    4.6050    2.3209   13.9893 H   0  0  0  0  0  0  0  0  0  0  0  0
    6.8235    0.9061   15.2933 H   0  0  0  0  0  0  0  0  0  0  0  0
    6.2935   -0.8022   17.3047 H   0  0  0  0  0  0  0  0  0  0  0  0
    4.3005    3.1928   11.7371 H   0  0  0  0  0  0  0  0  0  0  0  0
    4.0128    1.7448   10.7137 H   0  0  0  0  0  0  0  0  0  0  0  0
    3.8671    3.8078    9.3868 H   0  0  0  0  0  0  0  0  0  0  0  0
    1.3590    5.1186    8.2507 H   0  0  0  0  0  0  0  0  0  0  0  0
    0.5419    2.1684   12.7738 H   0  0  0  0  0  0  0  0  0  0  0  0
   -0.0286   -0.0257   13.6625 H   0  0  0  0  0  0  0  0  0  0  0  0
  1  2  1  0  0  0  0
  2  3  1  0  0  0  0
  3  4  2  0  0  0  0
  3 27  1  0  0  0  0
  4  5  1  0  0  0  0
  5  6  2  0  0  0  0
  6  7  1  0  0  0  0
  7  8  1  0  0  0  0
  7 27  2  0  0  0  0
  8  9  2  0  0  0  0
  9 10  1  0  0  0  0
  9 17  1  0  0  0  0
 10 11  2  0  0  0  0
 11 12  1  0  0  0  0
 11 18  1  0  0  0  0
 12 13  1  0  0  0  0
 13 14  1  0  0  0  0
 13 17  1  0  0  0  0
 14 15  2  0  0  0  0
 15 16  1  0  0  0  0
 16 17  2  0  0  0  0
 18 19  1  0  0  0  0
 18 26  2  0  0  0  0
 19 20  1  0  0  0  0
 20 21  2  0  0  0  0
 21 22  1  0  0  0  0
 21 25  1  0  0  0  0
 22 23  2  0  0  0  0
 23 24  1  0  0  0  0
 24 25  2  0  0  0  0
 25 26  1  0  0  0  0
  1 28  1  0  0  0  0
  1 29  1  0  0  0  0
  1 30  1  0  0  0  0
  4 31  1  0  0  0  0
  5 32  1  0  0  0  0
  6 33  1  0  0  0  0
 12 34  1  0  0  0  0
 12 35  1  0  0  0  0
 14 36  1  0  0  0  0
 15 37  1  0  0  0  0
 19 38  1  0  0  0  0
 19 39  1  0  0  0  0
 20 40  1  0  0  0  0
 22 41  1  0  0  0  0
 26 42  1  0  0  0  0
 27 43  1  0  0  0  0
M  END
> <IC50[nM]>
8.5

$$$$
CHEMBL3265028
  -OEChem-05192314333D
 Structure written by MMmdl.
 43 47  0     0  0  0  0  0  0999 V2000
   -1.9509    0.6794   12.3551 C   0  0  0  0  0  0  0  0  0  0  0  0
   -2.6175   -0.2972   13.1574 O   0  0  0  0  0  0  0  0  0  0  0  0
   -1.8696   -1.0545   14.0449 C   0  0  0  0  0  0  0  0  0  0  0  0
   -2.5006   -2.0822   14.7698 C   0  0  0  0  0  0  0  0  0  0  0  0
   -1.7540   -2.8524   15.6585 C   0  0  0  0  0  0  0  0  0  0  0  0
   -0.3950   -2.6038   15.8322 C   0  0  0  0  0  0  0  0  0  0  0  0
    0.2324   -1.5851   15.1260 C   0  0  0  0  0  0  0  0  0  0  0  0
    1.6168   -1.3648   15.3699 N   0  0  0  0  0  0  0  0  0  0  0  0
    2.5420   -0.4570   14.7968 C   0  0  0  0  0  0  0  0  0  0  0  0
    2.1720    0.3831   13.7786 N   0  0  0  0  0  0  0  0  0  0  0  0
    3.1103    1.2383   13.2419 C   0  0  0  0  0  0  0  0  0  0  0  0
    4.3968    1.2792   13.7037 C   0  0  0  0  0  0  0  0  0  0  0  0
    4.7381    0.4944   14.7692 N   0  0  0  0  0  0  0  0  0  0  0  0
    5.8928    0.3893   15.4752 C   0  0  0  0  0  0  0  0  0  0  0  0
    5.6110   -0.5494   16.5068 C   0  0  0  0  0  0  0  0  0  0  0  0
    4.4002   -1.0741   16.3612 N   0  0  0  0  0  0  0  0  0  0  0  0
    3.8444   -0.3918   15.3407 C   0  0  0  0  0  0  0  0  0  0  0  0
    2.6282    2.1384   12.1226 C   0  0  0  0  0  0  0  0  0  0  0  0
    3.5442    2.6282   11.1721 C   0  0  0  0  0  0  0  0  0  0  0  0
    3.1497    3.4552   10.1130 C   0  0  0  0  0  0  0  0  0  0  0  0
    1.8035    3.8107   10.0226 C   0  0  0  0  0  0  0  0  0  0  0  0
    0.9910    4.6054    9.1269 C   0  0  0  0  0  0  0  0  0  0  0  0
   -0.2498    4.6130    9.5297 N   0  0  0  0  0  0  0  0  0  0  0  0
   -0.3276    3.8827   10.6287 N   0  0  0  0  0  0  0  0  0  0  0  0
    0.8922    3.3455   10.9868 C   0  0  0  0  0  0  0  0  0  0  0  0
    1.2628    2.5119   12.0466 C   0  0  0  0  0  0  0  0  0  0  0  0
   -0.5121   -0.8124   14.2226 C   0  0  0  0  0  0  0  0  0  0  0  0
   -2.6836    1.1877   11.7110 H   0  0  0  0  0  0  0  0  0  0  0  0
   -1.4618    1.4178   13.0075 H   0  0  0  0  0  0  0  0  0  0  0  0
   -1.1937    0.1846   11.7292 H   0  0  0  0  0  0  0  0  0  0  0  0
   -3.5555   -2.2724   14.6382 H   0  0  0  0  0  0  0  0  0  0  0  0
   -2.2311   -3.6455   16.2150 H   0  0  0  0  0  0  0  0  0  0  0  0
    0.1761   -3.2079   16.5216 H   0  0  0  0  0  0  0  0  0  0  0  0
    5.0502    0.9908   12.8671 H   0  0  0  0  0  0  0  0  0  0  0  0
    4.6050    2.3209   13.9893 H   0  0  0  0  0  0  0  0  0  0  0  0
    6.8235    0.9061   15.2933 H   0  0  0  0  0  0  0  0  0  0  0  0
    6.2935   -0.8022   17.3047 H   0  0  0  0  0  0  0  0  0  0  0  0
    4.5857    2.3571   11.2628 H   0  0  0  0  0  0  0  0  0  0  0  0
    3.8671    3.8078    9.3868 H   0  0  0  0  0  0  0  0  0  0  0  0
    1.3590    5.1186    8.2507 H   0  0  0  0  0  0  0  0  0  0  0  0
    0.6699    1.5888   11.9661 H   0  0  0  0  0  0  0  0  0  0  0  0
    1.0079    3.0310   12.9823 H   0  0  0  0  0  0  0  0  0  0  0  0
   -0.0286   -0.0257   13.6625 H   0  0  0  0  0  0  0  0  0  0  0  0
  1  2  1  0  0  0  0
  2  3  1  0  0  0  0
  3  4  2  0  0  0  0
  3 27  1  0  0  0  0
  4  5  1  0  0  0  0
  5  6  2  0  0  0  0
  6  7  1  0  0  0  0
  7  8  1  0  0  0  0
  7 27  2  0  0  0  0
  8  9  2  0  0  0  0
  9 10  1  0  0  0  0
  9 17  1  0  0  0  0
 10 11  2  0  0  0  0
 11 12  1  0  0  0  0
 11 18  1  0  0  0  0
 12 13  1  0  0  0  0
 13 14  1  0  0  0  0
 13 17  1  0  0  0  0
 14 15  2  0  0  0  0
 15 16  1  0  0  0  0
 16 17  2  0  0  0  0
 18 19  2  0  0  0  0
 18 26  1  0  0  0  0
 19 20  1  0  0  0  0
 20 21  2  0  0  0  0
 21 22  1  0  0  0  0
 21 25  1  0  0  0  0
 22 23  2  0  0  0  0
 23 24  1  0  0  0  0
 24 25  2  0  0  0  0
 25 26  1  0  0  0  0
  1 28  1  0  0  0  0
  1 29  1  0  0  0  0
  1 30  1  0  0  0  0
  4 31  1  0  0  0  0
  5 32  1  0  0  0  0
  6 33  1  0  0  0  0
 12 34  1  0  0  0  0
 12 35  1  0  0  0  0
 14 36  1  0  0  0  0
 15 37  1  0  0  0  0
 19 38  1  0  0  0  0
 20 39  1  0  0  0  0
 22 40  1  0  0  0  0
 26 41  1  0  0  0  0
 26 42  1  0  0  0  0
 27 43  1  0  0  0  0
M  END
> <IC50[nM]>
8.5

$$$$
CHEMBL3265028
  -OEChem-05192314333D
 Structure written by MMmdl.
 43 47  0     1  0  0  0  0  0999 V2000
   -1.9509    0.6794   12.3551 C   0  0  0  0  0  0  0  0  0  0  0  0
   -2.6175   -0.2972   13.1574 O   0  0  0  0  0  0  0  0  0  0  0  0
   -1.8696   -1.0545   14.0449 C   0  0  0  0  0  0  0  0  0  0  0  0
   -2.5006   -2.0822   14.7698 C   0  0  0  0  0  0  0  0  0  0  0  0
   -1.7540   -2.8524   15.6585 C   0  0  0  0  0  0  0  0  0  0  0  0
   -0.3950   -2.6038   15.8322 C   0  0  0  0  0  0  0  0  0  0  0  0
    0.2324   -1.5851   15.1260 C   0  0  0  0  0  0  0  0  0  0  0  0
    1.6168   -1.3648   15.3699 N   0  0  0  0  0  0  0  0  0  0  0  0
    2.5420   -0.4570   14.7968 C   0  0  0  0  0  0  0  0  0  0  0  0
    2.1720    0.3831   13.7786 N   0  0  0  0  0  0  0  0  0  0  0  0
    3.1103    1.2383   13.2419 C   0  0  0  0  0  0  0  0  0  0  0  0
    4.3968    1.2792   13.7037 C   0  0  0  0  0  0  0  0  0  0  0  0
    4.7381    0.4944   14.7692 N   0  0  0  0  0  0  0  0  0  0  0  0
    5.8928    0.3893   15.4752 C   0  0  0  0  0  0  0  0  0  0  0  0
    5.6110   -0.5494   16.5068 C   0  0  0  0  0  0  0  0  0  0  0  0
    4.4002   -1.0741   16.3612 N   0  0  0  0  0  0  0  0  0  0  0  0
    3.8444   -0.3918   15.3407 C   0  0  0  0  0  0  0  0  0  0  0  0
    2.6282    2.1384   12.1226 C   0  0  3  0  0  0  0  0  0  0  0  0
    3.5442    2.6282   11.1721 C   0  0  0  0  0  0  0  0  0  0  0  0
    3.1497    3.4552   10.1130 C   0  0  0  0  0  0  0  0  0  0  0  0
    1.8035    3.8107   10.0226 C   0  0  0  0  0  0  0  0  0  0  0  0
    0.9910    4.6054    9.1269 C   0  0  0  0  0  0  0  0  0  0  0  0
   -0.2498    4.6130    9.5297 N   0  0  0  0  0  0  0  0  0  0  0  0
   -0.3276    3.8827   10.6287 N   0  0  0  0  0  0  0  0  0  0  0  0
    0.8922    3.3455   10.9868 C   0  0  0  0  0  0  0  0  0  0  0  0
    1.2628    2.5119   12.0466 C   0  0  0  0  0  0  0  0  0  0  0  0
   -0.5121   -0.8124   14.2226 C   0  0  0  0  0  0  0  0  0  0  0  0
   -2.6836    1.1877   11.7110 H   0  0  0  0  0  0  0  0  0  0  0  0
   -1.4618    1.4178   13.0075 H   0  0  0  0  0  0  0  0  0  0  0  0
   -1.1937    0.1846   11.7292 H   0  0  0  0  0  0  0  0  0  0  0  0
   -3.5555   -2.2724   14.6382 H   0  0  0  0  0  0  0  0  0  0  0  0
   -2.2311   -3.6455   16.2150 H   0  0  0  0  0  0  0  0  0  0  0  0
    0.1761   -3.2079   16.5216 H   0  0  0  0  0  0  0  0  0  0  0  0
    5.0502    0.9908   12.8671 H   0  0  0  0  0  0  0  0  0  0  0  0
    4.6050    2.3209   13.9893 H   0  0  0  0  0  0  0  0  0  0  0  0
    6.8235    0.9061   15.2933 H   0  0  0  0  0  0  0  0  0  0  0  0
    6.2935   -0.8022   17.3047 H   0  0  0  0  0  0  0  0  0  0  0  0
    2.4309    1.2596   11.4911 H   0  0  0  0  0  0  0  0  0  0  0  0
    4.5857    2.3571   11.2628 H   0  0  0  0  0  0  0  0  0  0  0  0
    3.8671    3.8078    9.3868 H   0  0  0  0  0  0  0  0  0  0  0  0
    1.3590    5.1186    8.2507 H   0  0  0  0  0  0  0  0  0  0  0  0
    0.5419    2.1684   12.7738 H   0  0  0  0  0  0  0  0  0  0  0  0
   -0.0286   -0.0257   13.6625 H   0  0  0  0  0  0  0  0  0  0  0  0
  1  2  1  0  0  0  0
  2  3  1  0  0  0  0
  3  4  2  0  0  0  0
  3 27  1  0  0  0  0
  4  5  1  0  0  0  0
  5  6  2  0  0  0  0
  6  7  1  0  0  0  0
  7  8  1  0  0  0  0
  7 27  2  0  0  0  0
  8  9  2  0  0  0  0
  9 10  1  0  0  0  0
  9 17  1  0  0  0  0
 10 11  2  0  0  0  0
 11 12  1  0  0  0  0
 11 18  1  0  0  0  0
 12 13  1  0  0  0  0
 13 14  1  0  0  0  0
 13 17  1  0  0  0  0
 14 15  2  0  0  0  0
 15 16  1  0  0  0  0
 16 17  2  0  0  0  0
 18 19  1  0  0  0  0
 18 26  1  0  0  0  0
 19 20  2  0  0  0  0
 20 21  1  0  0  0  0
 21 22  2  0  0  0  0
 21 25  1  0  0  0  0
 22 23  1  0  0  0  0
 23 24  2  0  0  0  0
 24 25  1  0  0  0  0
 25 26  2  0  0  0  0
  1 28  1  0  0  0  0
  1 29  1  0  0  0  0
  1 30  1  0  0  0  0
  4 31  1  0  0  0  0
  5 32  1  0  0  0  0
  6 33  1  0  0  0  0
 12 34  1  0  0  0  0
 12 35  1  0  0  0  0
 14 36  1  0  0  0  0
 15 37  1  0  0  0  0
 18 38  1  0  0  0  0
 19 39  1  0  0  0  0
 20 40  1  0  0  0  0
 22 41  1  0  0  0  0
 26 42  1  0  0  0  0
 27 43  1  0  0  0  0
M  END
> <IC50[nM]>
8.5

$$$$
CHEMBL3265028
  -OEChem-05192314333D
 Structure written by MMmdl.
 43 47  0     1  0  0  0  0  0999 V2000
   -1.9509    0.6794   12.3551 C   0  0  0  0  0  0  0  0  0  0  0  0
   -2.6175   -0.2972   13.1574 O   0  0  0  0  0  0  0  0  0  0  0  0
   -1.8696   -1.0545   14.0449 C   0  0  0  0  0  0  0  0  0  0  0  0
   -2.5006   -2.0822   14.7698 C   0  0  0  0  0  0  0  0  0  0  0  0
   -1.7540   -2.8524   15.6585 C   0  0  0  0  0  0  0  0  0  0  0  0
   -0.3950   -2.6038   15.8322 C   0  0  0  0  0  0  0  0  0  0  0  0
    0.2324   -1.5851   15.1260 C   0  0  0  0  0  0  0  0  0  0  0  0
    1.6168   -1.3648   15.3699 N   0  0  0  0  0  0  0  0  0  0  0  0
    2.5420   -0.4570   14.7968 C   0  0  0  0  0  0  0  0  0  0  0  0
    2.1720    0.3831   13.7786 N   0  0  0  0  0  0  0  0  0  0  0  0
    3.1103    1.2383   13.2419 C   0  0  0  0  0  0  0  0  0  0  0  0
    4.3968    1.2792   13.7037 C   0  0  0  0  0  0  0  0  0  0  0  0
    4.7381    0.4944   14.7692 N   0  0  0  0  0  0  0  0  0  0  0  0
    5.8928    0.3893   15.4752 C   0  0  0  0  0  0  0  0  0  0  0  0
    5.6110   -0.5494   16.5068 C   0  0  0  0  0  0  0  0  0  0  0  0
    4.4002   -1.0741   16.3612 N   0  0  0  0  0  0  0  0  0  0  0  0
    3.8444   -0.3918   15.3407 C   0  0  0  0  0  0  0  0  0  0  0  0
    2.6282    2.1384   12.1226 C   0  0  0  0  0  0  0  0  0  0  0  0
    3.5442    2.6282   11.1721 C   0  0  0  0  0  0  0  0  0  0  0  0
    3.1497    3.4552   10.1130 C   0  0  0  0  0  0  0  0  0  0  0  0
    1.8035    3.8107   10.0226 C   0  0  0  0  0  0  0  0  0  0  0  0
    0.9910    4.6054    9.1269 C   0  0  0  0  0  0  0  0  0  0  0  0
   -0.2498    4.6130    9.5297 N   0  0  0  0  0  0  0  0  0  0  0  0
   -0.3276    3.8827   10.6287 N   0  0  0  0  0  0  0  0  0  0  0  0
    0.8922    3.3455   10.9868 C   0  0  3  0  0  0  0  0  0  0  0  0
    1.2628    2.5119   12.0466 C   0  0  0  0  0  0  0  0  0  0  0  0
   -0.5121   -0.8124   14.2226 C   0  0  0  0  0  0  0  0  0  0  0  0
   -2.6836    1.1877   11.7110 H   0  0  0  0  0  0  0  0  0  0  0  0
   -1.4618    1.4178   13.0075 H   0  0  0  0  0  0  0  0  0  0  0  0
   -1.1937    0.1846   11.7292 H   0  0  0  0  0  0  0  0  0  0  0  0
   -3.5555   -2.2724   14.6382 H   0  0  0  0  0  0  0  0  0  0  0  0
   -2.2311   -3.6455   16.2150 H   0  0  0  0  0  0  0  0  0  0  0  0
    0.1761   -3.2079   16.5216 H   0  0  0  0  0  0  0  0  0  0  0  0
    5.0502    0.9908   12.8671 H   0  0  0  0  0  0  0  0  0  0  0  0
    4.6050    2.3209   13.9893 H   0  0  0  0  0  0  0  0  0  0  0  0
    6.8235    0.9061   15.2933 H   0  0  0  0  0  0  0  0  0  0  0  0
    6.2935   -0.8022   17.3047 H   0  0  0  0  0  0  0  0  0  0  0  0
    4.5857    2.3571   11.2628 H   0  0  0  0  0  0  0  0  0  0  0  0
    3.8671    3.8078    9.3868 H   0  0  0  0  0  0  0  0  0  0  0  0
    1.3590    5.1186    8.2507 H   0  0  0  0  0  0  0  0  0  0  0  0
    1.0990    4.2288   11.6089 H   0  0  0  0  0  0  0  0  0  0  0  0
    0.5419    2.1684   12.7738 H   0  0  0  0  0  0  0  0  0  0  0  0
   -0.0286   -0.0257   13.6625 H   0  0  0  0  0  0  0  0  0  0  0  0
  1  2  1  0  0  0  0
  2  3  1  0  0  0  0
  3  4  2  0  0  0  0
  3 27  1  0  0  0  0
  4  5  1  0  0  0  0
  5  6  2  0  0  0  0
  6  7  1  0  0  0  0
  7  8  1  0  0  0  0
  7 27  2  0  0  0  0
  8  9  2  0  0  0  0
  9 10  1  0  0  0  0
  9 17  1  0  0  0  0
 10 11  2  0  0  0  0
 11 12  1  0  0  0  0
 11 18  1  0  0  0  0
 12 13  1  0  0  0  0
 13 14  1  0  0  0  0
 13 17  1  0  0  0  0
 14 15  2  0  0  0  0
 15 16  1  0  0  0  0
 16 17  2  0  0  0  0
 18 19  1  0  0  0  0
 18 26  2  0  0  0  0
 19 20  2  0  0  0  0
 20 21  1  0  0  0  0
 21 22  2  0  0  0  0
 21 25  1  0  0  0  0
 22 23  1  0  0  0  0
 23 24  2  0  0  0  0
 24 25  1  0  0  0  0
 25 26  1  0  0  0  0
  1 28  1  0  0  0  0
  1 29  1  0  0  0  0
  1 30  1  0  0  0  0
  4 31  1  0  0  0  0
  5 32  1  0  0  0  0
  6 33  1  0  0  0  0
 12 34  1  0  0  0  0
 12 35  1  0  0  0  0
 14 36  1  0  0  0  0
 15 37  1  0  0  0  0
 19 38  1  0  0  0  0
 20 39  1  0  0  0  0
 22 40  1  0  0  0  0
 25 41  1  0  0  0  0
 26 42  1  0  0  0  0
 27 43  1  0  0  0  0
M  END
> <IC50[nM]>
8.5

$$$$
CHEMBL3265028
  -OEChem-05192314333D
 Structure written by MMmdl.
 43 47  0     0  0  0  0  0  0999 V2000
   -1.9509    0.6794   12.3551 C   0  0  0  0  0  0  0  0  0  0  0  0
   -2.6175   -0.2972   13.1574 O   0  0  0  0  0  0  0  0  0  0  0  0
   -1.8696   -1.0545   14.0449 C   0  0  0  0  0  0  0  0  0  0  0  0
   -2.5006   -2.0822   14.7698 C   0  0  0  0  0  0  0  0  0  0  0  0
   -1.7540   -2.8524   15.6585 C   0  0  0  0  0  0  0  0  0  0  0  0
   -0.3950   -2.6038   15.8322 C   0  0  0  0  0  0  0  0  0  0  0  0
    0.2324   -1.5851   15.1260 C   0  0  0  0  0  0  0  0  0  0  0  0
    1.6168   -1.3648   15.3699 N   0  0  0  0  0  0  0  0  0  0  0  0
    2.5420   -0.4570   14.7968 C   0  0  0  0  0  0  0  0  0  0  0  0
    2.1720    0.3831   13.7786 N   0  0  0  0  0  0  0  0  0  0  0  0
    3.1103    1.2383   13.2419 C   0  0  0  0  0  0  0  0  0  0  0  0
    4.3968    1.2792   13.7037 C   0  0  0  0  0  0  0  0  0  0  0  0
    4.7381    0.4944   14.7692 N   0  0  0  0  0  0  0  0  0  0  0  0
    5.8928    0.3893   15.4752 C   0  0  0  0  0  0  0  0  0  0  0  0
    5.6110   -0.5494   16.5068 C   0  0  0  0  0  0  0  0  0  0  0  0
    4.4002   -1.0741   16.3612 N   0  0  0  0  0  0  0  0  0  0  0  0
    3.8444   -0.3918   15.3407 C   0  0  0  0  0  0  0  0  0  0  0  0
    2.6282    2.1384   12.1226 C   0  0  0  0  0  0  0  0  0  0  0  0
    3.5442    2.6282   11.1721 C   0  0  0  0  0  0  0  0  0  0  0  0
    3.1497    3.4552   10.1130 C   0  0  0  0  0  0  0  0  0  0  0  0
    1.8035    3.8107   10.0226 C   0  0  0  0  0  0  0  0  0  0  0  0
    0.9910    4.6054    9.1269 C   0  0  0  0  0  0  0  0  0  0  0  0
   -0.2498    4.6130    9.5297 N   0  0  0  0  0  0  0  0  0  0  0  0
   -0.3276    3.8827   10.6287 N   0  0  0  0  0  0  0  0  0  0  0  0
    0.8922    3.3455   10.9868 C   0  0  0  0  0  0  0  0  0  0  0  0
    1.2628    2.5119   12.0466 C   0  0  0  0  0  0  0  0  0  0  0  0
   -0.5121   -0.8124   14.2226 C   0  0  0  0  0  0  0  0  0  0  0  0
   -2.6836    1.1877   11.7110 H   0  0  0  0  0  0  0  0  0  0  0  0
   -1.4618    1.4178   13.0075 H   0  0  0  0  0  0  0  0  0  0  0  0
   -1.1937    0.1846   11.7292 H   0  0  0  0  0  0  0  0  0  0  0  0
   -3.5555   -2.2724   14.6382 H   0  0  0  0  0  0  0  0  0  0  0  0
   -2.2311   -3.6455   16.2150 H   0  0  0  0  0  0  0  0  0  0  0  0
    0.1761   -3.2079   16.5216 H   0  0  0  0  0  0  0  0  0  0  0  0
    5.0502    0.9908   12.8671 H   0  0  0  0  0  0  0  0  0  0  0  0
    4.6050    2.3209   13.9893 H   0  0  0  0  0  0  0  0  0  0  0  0
    6.8235    0.9061   15.2933 H   0  0  0  0  0  0  0  0  0  0  0  0
    6.2935   -0.8022   17.3047 H   0  0  0  0  0  0  0  0  0  0  0  0
    4.5857    2.3571   11.2628 H   0  0  0  0  0  0  0  0  0  0  0  0
    3.7288    4.3870   10.1931 H   0  0  0  0  0  0  0  0  0  0  0  0
    3.4143    2.9381    9.1789 H   0  0  0  0  0  0  0  0  0  0  0  0
    1.3590    5.1186    8.2507 H   0  0  0  0  0  0  0  0  0  0  0  0
    0.5419    2.1684   12.7738 H   0  0  0  0  0  0  0  0  0  0  0  0
   -0.0286   -0.0257   13.6625 H   0  0  0  0  0  0  0  0  0  0  0  0
  1  2  1  0  0  0  0
  2  3  1  0  0  0  0
  3  4  2  0  0  0  0
  3 27  1  0  0  0  0
  4  5  1  0  0  0  0
  5  6  2  0  0  0  0
  6  7  1  0  0  0  0
  7  8  1  0  0  0  0
  7 27  2  0  0  0  0
  8  9  2  0  0  0  0
  9 10  1  0  0  0  0
  9 17  1  0  0  0  0
 10 11  2  0  0  0  0
 11 12  1  0  0  0  0
 11 18  1  0  0  0  0
 12 13  1  0  0  0  0
 13 14  1  0  0  0  0
 13 17  1  0  0  0  0
 14 15  2  0  0  0  0
 15 16  1  0  0  0  0
 16 17  2  0  0  0  0
 18 19  2  0  0  0  0
 18 26  1  0  0  0  0
 19 20  1  0  0  0  0
 20 21  1  0  0  0  0
 21 22  2  0  0  0  0
 21 25  1  0  0  0  0
 22 23  1  0  0  0  0
 23 24  2  0  0  0  0
 24 25  1  0  0  0  0
 25 26  2  0  0  0  0
  1 28  1  0  0  0  0
  1 29  1  0  0  0  0
  1 30  1  0  0  0  0
  4 31  1  0  0  0  0
  5 32  1  0  0  0  0
  6 33  1  0  0  0  0
 12 34  1  0  0  0  0
 12 35  1  0  0  0  0
 14 36  1  0  0  0  0
 15 37  1  0  0  0  0
 19 38  1  0  0  0  0
 20 39  1  0  0  0  0
 20 40  1  0  0  0  0
 22 41  1  0  0  0  0
 26 42  1  0  0  0  0
 27 43  1  0  0  0  0
M  END
> <IC50[nM]>
8.5

$$$$
CHEMBL3265028
  -OEChem-05192314333D
 Structure written by MMmdl.
 43 47  0     0  0  0  0  0  0999 V2000
   -1.9509    0.6794   12.3551 C   0  0  0  0  0  0  0  0  0  0  0  0
   -2.6175   -0.2972   13.1574 O   0  0  0  0  0  0  0  0  0  0  0  0
   -1.8696   -1.0545   14.0449 C   0  0  0  0  0  0  0  0  0  0  0  0
   -2.5006   -2.0822   14.7698 C   0  0  0  0  0  0  0  0  0  0  0  0
   -1.7540   -2.8524   15.6585 C   0  0  0  0  0  0  0  0  0  0  0  0
   -0.3950   -2.6038   15.8322 C   0  0  0  0  0  0  0  0  0  0  0  0
    0.2324   -1.5851   15.1260 C   0  0  0  0  0  0  0  0  0  0  0  0
    1.6168   -1.3648   15.3699 N   0  0  0  0  0  0  0  0  0  0  0  0
    2.5420   -0.4570   14.7968 C   0  0  0  0  0  0  0  0  0  0  0  0
    2.1720    0.3831   13.7786 N   0  0  0  0  0  0  0  0  0  0  0  0
    3.1103    1.2383   13.2419 C   0  0  0  0  0  0  0  0  0  0  0  0
    4.3968    1.2792   13.7037 C   0  0  0  0  0  0  0  0  0  0  0  0
    4.7381    0.4944   14.7692 N   0  0  0  0  0  0  0  0  0  0  0  0
    5.8928    0.3893   15.4752 C   0  0  0  0  0  0  0  0  0  0  0  0
    5.6110   -0.5494   16.5068 C   0  0  0  0  0  0  0  0  0  0  0  0
    4.4002   -1.0741   16.3612 N   0  0  0  0  0  0  0  0  0  0  0  0
    3.8444   -0.3918   15.3407 C   0  0  0  0  0  0  0  0  0  0  0  0
    2.6282    2.1384   12.1226 C   0  0  0  0  0  0  0  0  0  0  0  0
    3.5442    2.6282   11.1721 C   0  0  0  0  0  0  0  0  0  0  0  0
    3.1497    3.4552   10.1130 C   0  0  0  0  0  0  0  0  0  0  0  0
    1.8035    3.8107   10.0226 C   0  0  0  0  0  0  0  0  0  0  0  0
    0.9910    4.6054    9.1269 C   0  0  0  0  0  0  0  0  0  0  0  0
   -0.2498    4.6130    9.5297 N   0  0  0  0  0  0  0  0  0  0  0  0
   -0.3276    3.8827   10.6287 N   0  0  0  0  0  0  0  0  0  0  0  0
    0.8922    3.3455   10.9868 C   0  0  0  0  0  0  0  0  0  0  0  0
    1.2628    2.5119   12.0466 C   0  0  0  0  0  0  0  0  0  0  0  0
   -0.5121   -0.8124   14.2226 C   0  0  0  0  0  0  0  0  0  0  0  0
   -2.6836    1.1877   11.7110 H   0  0  0  0  0  0  0  0  0  0  0  0
   -1.4618    1.4178   13.0075 H   0  0  0  0  0  0  0  0  0  0  0  0
   -1.1937    0.1846   11.7292 H   0  0  0  0  0  0  0  0  0  0  0  0
   -3.3078   -1.6140   15.3522 H   0  0  0  0  0  0  0  0  0  0  0  0
   -2.9341   -2.7741   14.0327 H   0  0  0  0  0  0  0  0  0  0  0  0
   -2.2311   -3.6455   16.2150 H   0  0  0  0  0  0  0  0  0  0  0  0
    0.1761   -3.2079   16.5216 H   0  0  0  0  0  0  0  0  0  0  0  0
    5.0502    0.9908   12.8671 H   0  0  0  0  0  0  0  0  0  0  0  0
    4.6050    2.3209   13.9893 H   0  0  0  0  0  0  0  0  0  0  0  0
    6.8235    0.9061   15.2933 H   0  0  0  0  0  0  0  0  0  0  0  0
    6.2935   -0.8022   17.3047 H   0  0  0  0  0  0  0  0  0  0  0  0
    4.5857    2.3571   11.2628 H   0  0  0  0  0  0  0  0  0  0  0  0
    3.8671    3.8078    9.3868 H   0  0  0  0  0  0  0  0  0  0  0  0
    1.3590    5.1186    8.2507 H   0  0  0  0  0  0  0  0  0  0  0  0
    0.5419    2.1684   12.7738 H   0  0  0  0  0  0  0  0  0  0  0  0
   -0.0286   -0.0257   13.6625 H   0  0  0  0  0  0  0  0  0  0  0  0
  1  2  1  0  0  0  0
  2  3  1  0  0  0  0
  3  4  1  0  0  0  0
  3 27  2  0  0  0  0
  4  5  1  0  0  0  0
  5  6  2  0  0  0  0
  6  7  1  0  0  0  0
  7  8  2  0  0  0  0
  7 27  1  0  0  0  0
  8  9  1  0  0  0  0
  9 10  2  0  0  0  0
  9 17  1  0  0  0  0
 10 11  1  0  0  0  0
 11 12  1  0  0  0  0
 11 18  2  0  0  0  0
 12 13  1  0  0  0  0
 13 14  1  0  0  0  0
 13 17  1  0  0  0  0
 14 15  2  0  0  0  0
 15 16  1  0  0  0  0
 16 17  2  0  0  0  0
 18 19  1  0  0  0  0
 18 26  1  0  0  0  0
 19 20  2  0  0  0  0
 20 21  1  0  0  0  0
 21 22  2  0  0  0  0
 21 25  1  0  0  0  0
 22 23  1  0  0  0  0
 23 24  2  0  0  0  0
 24 25  1  0  0  0  0
 25 26  2  0  0  0  0
  1 28  1  0  0  0  0
  1 29  1  0  0  0  0
  1 30  1  0  0  0  0
  4 31  1  0  0  0  0
  4 32  1  0  0  0  0
  5 33  1  0  0  0  0
  6 34  1  0  0  0  0
 12 35  1  0  0  0  0
 12 36  1  0  0  0  0
 14 37  1  0  0  0  0
 15 38  1  0  0  0  0
 19 39  1  0  0  0  0
 20 40  1  0  0  0  0
 22 41  1  0  0  0  0
 26 42  1  0  0  0  0
 27 43  1  0  0  0  0
M  END
> <IC50[nM]>
8.5

$$$$
CHEMBL3265028
  -OEChem-05192314333D
 Structure written by MMmdl.
 43 47  0     0  0  0  0  0  0999 V2000
   -1.9509    0.6794   12.3551 C   0  0  0  0  0  0  0  0  0  0  0  0
   -2.6175   -0.2972   13.1574 O   0  0  0  0  0  0  0  0  0  0  0  0
   -1.8696   -1.0545   14.0449 C   0  0  0  0  0  0  0  0  0  0  0  0
   -2.5006   -2.0822   14.7698 C   0  0  0  0  0  0  0  0  0  0  0  0
   -1.7540   -2.8524   15.6585 C   0  0  0  0  0  0  0  0  0  0  0  0
   -0.3950   -2.6038   15.8322 C   0  0  0  0  0  0  0  0  0  0  0  0
    0.2324   -1.5851   15.1260 C   0  0  0  0  0  0  0  0  0  0  0  0
    1.6168   -1.3648   15.3699 N   0  0  0  0  0  0  0  0  0  0  0  0
    2.5420   -0.4570   14.7968 C   0  0  0  0  0  0  0  0  0  0  0  0
    2.1720    0.3831   13.7786 N   0  0  0  0  0  0  0  0  0  0  0  0
    3.1103    1.2383   13.2419 C   0  0  0  0  0  0  0  0  0  0  0  0
    4.3968    1.2792   13.7037 C   0  0  0  0  0  0  0  0  0  0  0  0
    4.7381    0.4944   14.7692 N   0  0  0  0  0  0  0  0  0  0  0  0
    5.8928    0.3893   15.4752 C   0  0  0  0  0  0  0  0  0  0  0  0
    5.6110   -0.5494   16.5068 C   0  0  0  0  0  0  0  0  0  0  0  0
    4.4002   -1.0741   16.3612 N   0  0  0  0  0  0  0  0  0  0  0  0
    3.8444   -0.3918   15.3407 C   0  0  0  0  0  0  0  0  0  0  0  0
    2.6282    2.1384   12.1226 C   0  0  0  0  0  0  0  0  0  0  0  0
    3.5442    2.6282   11.1721 C   0  0  0  0  0  0  0  0  0  0  0  0
    3.1497    3.4552   10.1130 C   0  0  0  0  0  0  0  0  0  0  0  0
    1.8035    3.8107   10.0226 C   0  0  0  0  0  0  0  0  0  0  0  0
    0.9910    4.6054    9.1269 C   0  0  0  0  0  0  0  0  0  0  0  0
   -0.2498    4.6130    9.5297 N   0  0  0  0  0  0  0  0  0  0  0  0
   -0.3276    3.8827   10.6287 N   0  0  0  0  0  0  0  0  0  0  0  0
    0.8922    3.3455   10.9868 C   0  0  0  0  0  0  0  0  0  0  0  0
    1.2628    2.5119   12.0466 C   0  0  0  0  0  0  0  0  0  0  0  0
   -0.5121   -0.8124   14.2226 C   0  0  0  0  0  0  0  0  0  0  0  0
   -2.6836    1.1877   11.7110 H   0  0  0  0  0  0  0  0  0  0  0  0
   -1.4618    1.4178   13.0075 H   0  0  0  0  0  0  0  0  0  0  0  0
   -1.1937    0.1846   11.7292 H   0  0  0  0  0  0  0  0  0  0  0  0
   -3.5555   -2.2724   14.6382 H   0  0  0  0  0  0  0  0  0  0  0  0
   -2.2311   -3.6455   16.2150 H   0  0  0  0  0  0  0  0  0  0  0  0
   -0.2492   -2.3829   16.8999 H   0  0  0  0  0  0  0  0  0  0  0  0
    0.1309   -3.5352   15.5753 H   0  0  0  0  0  0  0  0  0  0  0  0
    5.0502    0.9908   12.8671 H   0  0  0  0  0  0  0  0  0  0  0  0
    4.6050    2.3209   13.9893 H   0  0  0  0  0  0  0  0  0  0  0  0
    6.8235    0.9061   15.2933 H   0  0  0  0  0  0  0  0  0  0  0  0
    6.2935   -0.8022   17.3047 H   0  0  0  0  0  0  0  0  0  0  0  0
    4.5857    2.3571   11.2628 H   0  0  0  0  0  0  0  0  0  0  0  0
    3.8671    3.8078    9.3868 H   0  0  0  0  0  0  0  0  0  0  0  0
    1.3590    5.1186    8.2507 H   0  0  0  0  0  0  0  0  0  0  0  0
    0.5419    2.1684   12.7738 H   0  0  0  0  0  0  0  0  0  0  0  0
   -0.0286   -0.0257   13.6625 H   0  0  0  0  0  0  0  0  0  0  0  0
  1  2  1  0  0  0  0
  2  3  1  0  0  0  0
  3  4  1  0  0  0  0
  3 27  2  0  0  0  0
  4  5  2  0  0  0  0
  5  6  1  0  0  0  0
  6  7  1  0  0  0  0
  7  8  2  0  0  0  0
  7 27  1  0  0  0  0
  8  9  1  0  0  0  0
  9 10  2  0  0  0  0
  9 17  1  0  0  0  0
 10 11  1  0  0  0  0
 11 12  1  0  0  0  0
 11 18  2  0  0  0  0
 12 13  1  0  0  0  0
 13 14  1  0  0  0  0
 13 17  1  0  0  0  0
 14 15  2  0  0  0  0
 15 16  1  0  0  0  0
 16 17  2  0  0  0  0
 18 19  1  0  0  0  0
 18 26  1  0  0  0  0
 19 20  2  0  0  0  0
 20 21  1  0  0  0  0
 21 22  2  0  0  0  0
 21 25  1  0  0  0  0
 22 23  1  0  0  0  0
 23 24  2  0  0  0  0
 24 25  1  0  0  0  0
 25 26  2  0  0  0  0
  1 28  1  0  0  0  0
  1 29  1  0  0  0  0
  1 30  1  0  0  0  0
  4 31  1  0  0  0  0
  5 32  1  0  0  0  0
  6 33  1  0  0  0  0
  6 34  1  0  0  0  0
 12 35  1  0  0  0  0
 12 36  1  0  0  0  0
 14 37  1  0  0  0  0
 15 38  1  0  0  0  0
 19 39  1  0  0  0  0
 20 40  1  0  0  0  0
 22 41  1  0  0  0  0
 26 42  1  0  0  0  0
 27 43  1  0  0  0  0
M  END
> <IC50[nM]>
8.5

$$$$
CHEMBL3265028
  -OEChem-05192314333D
 Structure written by MMmdl.
 43 47  0     0  0  0  0  0  0999 V2000
   -1.9509    0.6794   12.3551 C   0  0  0  0  0  0  0  0  0  0  0  0
   -2.6175   -0.2972   13.1574 O   0  0  0  0  0  0  0  0  0  0  0  0
   -1.8696   -1.0545   14.0449 C   0  0  0  0  0  0  0  0  0  0  0  0
   -2.5006   -2.0822   14.7698 C   0  0  0  0  0  0  0  0  0  0  0  0
   -1.7540   -2.8524   15.6585 C   0  0  0  0  0  0  0  0  0  0  0  0
   -0.3950   -2.6038   15.8322 C   0  0  0  0  0  0  0  0  0  0  0  0
    0.2324   -1.5851   15.1260 C   0  0  0  0  0  0  0  0  0  0  0  0
    1.6168   -1.3648   15.3699 N   0  0  0  0  0  0  0  0  0  0  0  0
    2.5420   -0.4570   14.7968 C   0  0  0  0  0  0  0  0  0  0  0  0
    2.1720    0.3831   13.7786 N   0  0  0  0  0  0  0  0  0  0  0  0
    3.1103    1.2383   13.2419 C   0  0  0  0  0  0  0  0  0  0  0  0
    4.3968    1.2792   13.7037 C   0  0  0  0  0  0  0  0  0  0  0  0
    4.7381    0.4944   14.7692 N   0  0  0  0  0  0  0  0  0  0  0  0
    5.8928    0.3893   15.4752 C   0  0  0  0  0  0  0  0  0  0  0  0
    5.6110   -0.5494   16.5068 C   0  0  0  0  0  0  0  0  0  0  0  0
    4.4002   -1.0741   16.3612 N   0  0  0  0  0  0  0  0  0  0  0  0
    3.8444   -0.3918   15.3407 C   0  0  0  0  0  0  0  0  0  0  0  0
    2.6282    2.1384   12.1226 C   0  0  0  0  0  0  0  0  0  0  0  0
    3.5442    2.6282   11.1721 C   0  0  0  0  0  0  0  0  0  0  0  0
    3.1497    3.4552   10.1130 C   0  0  0  0  0  0  0  0  0  0  0  0
    1.8035    3.8107   10.0226 C   0  0  0  0  0  0  0  0  0  0  0  0
    0.9910    4.6054    9.1269 C   0  0  0  0  0  0  0  0  0  0  0  0
   -0.2498    4.6130    9.5297 N   0  0  0  0  0  0  0  0  0  0  0  0
   -0.3276    3.8827   10.6287 N   0  0  0  0  0  0  0  0  0  0  0  0
    0.8922    3.3455   10.9868 C   0  0  0  0  0  0  0  0  0  0  0  0
    1.2628    2.5119   12.0466 C   0  0  0  0  0  0  0  0  0  0  0  0
   -0.5121   -0.8124   14.2226 C   0  0  0  0  0  0  0  0  0  0  0  0
   -2.6836    1.1877   11.7110 H   0  0  0  0  0  0  0  0  0  0  0  0
   -1.4618    1.4178   13.0075 H   0  0  0  0  0  0  0  0  0  0  0  0
   -1.1937    0.1846   11.7292 H   0  0  0  0  0  0  0  0  0  0  0  0
   -3.5555   -2.2724   14.6382 H   0  0  0  0  0  0  0  0  0  0  0  0
   -2.2311   -3.6455   16.2150 H   0  0  0  0  0  0  0  0  0  0  0  0
    0.1761   -3.2079   16.5216 H   0  0  0  0  0  0  0  0  0  0  0  0
    5.0502    0.9908   12.8671 H   0  0  0  0  0  0  0  0  0  0  0  0
    4.6050    2.3209   13.9893 H   0  0  0  0  0  0  0  0  0  0  0  0
    6.8235    0.9061   15.2933 H   0  0  0  0  0  0  0  0  0  0  0  0
    6.2935   -0.8022   17.3047 H   0  0  0  0  0  0  0  0  0  0  0  0
    4.5857    2.3571   11.2628 H   0  0  0  0  0  0  0  0  0  0  0  0
    3.8671    3.8078    9.3868 H   0  0  0  0  0  0  0  0  0  0  0  0
    1.3590    5.1186    8.2507 H   0  0  0  0  0  0  0  0  0  0  0  0
    0.5419    2.1684   12.7738 H   0  0  0  0  0  0  0  0  0  0  0  0
   -0.0379   -0.9334   13.2375 H   0  0  0  0  0  0  0  0  0  0  0  0
   -0.4177    0.2338   14.5489 H   0  0  0  0  0  0  0  0  0  0  0  0
  1  2  1  0  0  0  0
  2  3  1  0  0  0  0
  3  4  2  0  0  0  0
  3 27  1  0  0  0  0
  4  5  1  0  0  0  0
  5  6  2  0  0  0  0
  6  7  1  0  0  0  0
  7  8  2  0  0  0  0
  7 27  1  0  0  0  0
  8  9  1  0  0  0  0
  9 10  2  0  0  0  0
  9 17  1  0  0  0  0
 10 11  1  0  0  0  0
 11 12  1  0  0  0  0
 11 18  2  0  0  0  0
 12 13  1  0  0  0  0
 13 14  1  0  0  0  0
 13 17  1  0  0  0  0
 14 15  2  0  0  0  0
 15 16  1  0  0  0  0
 16 17  2  0  0  0  0
 18 19  1  0  0  0  0
 18 26  1  0  0  0  0
 19 20  2  0  0  0  0
 20 21  1  0  0  0  0
 21 22  2  0  0  0  0
 21 25  1  0  0  0  0
 22 23  1  0  0  0  0
 23 24  2  0  0  0  0
 24 25  1  0  0  0  0
 25 26  2  0  0  0  0
  1 28  1  0  0  0  0
  1 29  1  0  0  0  0
  1 30  1  0  0  0  0
  4 31  1  0  0  0  0
  5 32  1  0  0  0  0
  6 33  1  0  0  0  0
 12 34  1  0  0  0  0
 12 35  1  0  0  0  0
 14 36  1  0  0  0  0
 15 37  1  0  0  0  0
 19 38  1  0  0  0  0
 20 39  1  0  0  0  0
 22 40  1  0  0  0  0
 26 41  1  0  0  0  0
 27 42  1  0  0  0  0
 27 43  1  0  0  0  0
M  END
> <IC50[nM]>
8.5

$$$$
CHEMBL3265028
  -OEChem-05192314333D
 Structure written by MMmdl.
 43 47  0     1  0  0  0  0  0999 V2000
   -1.9509    0.6794   12.3551 C   0  0  0  0  0  0  0  0  0  0  0  0
   -2.6175   -0.2972   13.1574 O   0  0  0  0  0  0  0  0  0  0  0  0
   -1.8696   -1.0545   14.0449 C   0  0  0  0  0  0  0  0  0  0  0  0
   -2.5006   -2.0822   14.7698 C   0  0  0  0  0  0  0  0  0  0  0  0
   -1.7540   -2.8524   15.6585 C   0  0  0  0  0  0  0  0  0  0  0  0
   -0.3950   -2.6038   15.8322 C   0  0  0  0  0  0  0  0  0  0  0  0
    0.2324   -1.5851   15.1260 C   0  0  0  0  0  0  0  0  0  0  0  0
    1.6168   -1.3648   15.3699 N   0  0  0  0  0  0  0  0  0  0  0  0
    2.5420   -0.4570   14.7968 C   0  0  0  0  0  0  0  0  0  0  0  0
    2.1720    0.3831   13.7786 N   0  0  0  0  0  0  0  0  0  0  0  0
    3.1103    1.2383   13.2419 C   0  0  0  0  0  0  0  0  0  0  0  0
    4.3968    1.2792   13.7037 C   0  0  0  0  0  0  0  0  0  0  0  0
    4.7381    0.4944   14.7692 N   0  0  0  0  0  0  0  0  0  0  0  0
    5.8928    0.3893   15.4752 C   0  0  0  0  0  0  0  0  0  0  0  0
    5.6110   -0.5494   16.5068 C   0  0  0  0  0  0  0  0  0  0  0  0
    4.4002   -1.0741   16.3612 N   0  0  0  0  0  0  0  0  0  0  0  0
    3.8444   -0.3918   15.3407 C   0  0  0  0  0  0  0  0  0  0  0  0
    2.6282    2.1384   12.1226 C   0  0  0  0  0  0  0  0  0  0  0  0
    3.5442    2.6282   11.1721 C   0  0  0  0  0  0  0  0  0  0  0  0
    3.1497    3.4552   10.1130 C   0  0  0  0  0  0  0  0  0  0  0  0
    1.8035    3.8107   10.0226 C   0  0  3  0  0  0  0  0  0  0  0  0
    0.9910    4.6054    9.1269 C   0  0  0  0  0  0  0  0  0  0  0  0
   -0.2498    4.6130    9.5297 N   0  0  0  0  0  0  0  0  0  0  0  0
   -0.3276    3.8827   10.6287 N   0  0  0  0  0  0  0  0  0  0  0  0
    0.8922    3.3455   10.9868 C   0  0  0  0  0  0  0  0  0  0  0  0
    1.2628    2.5119   12.0466 C   0  0  0  0  0  0  0  0  0  0  0  0
   -0.5121   -0.8124   14.2226 C   0  0  0  0  0  0  0  0  0  0  0  0
   -2.6836    1.1877   11.7110 H   0  0  0  0  0  0  0  0  0  0  0  0
   -1.4618    1.4178   13.0075 H   0  0  0  0  0  0  0  0  0  0  0  0
   -1.1937    0.1846   11.7292 H   0  0  0  0  0  0  0  0  0  0  0  0
   -3.3078   -1.6140   15.3522 H   0  0  0  0  0  0  0  0  0  0  0  0
   -2.9341   -2.7741   14.0327 H   0  0  0  0  0  0  0  0  0  0  0  0
   -2.2311   -3.6455   16.2150 H   0  0  0  0  0  0  0  0  0  0  0  0
    0.1761   -3.2079   16.5216 H   0  0  0  0  0  0  0  0  0  0  0  0
    5.1294    1.9197   13.2352 H   0  0  0  0  0  0  0  0  0  0  0  0
    6.8235    0.9061   15.2933 H   0  0  0  0  0  0  0  0  0  0  0  0
    6.2935   -0.8022   17.3047 H   0  0  0  0  0  0  0  0  0  0  0  0
    4.5857    2.3571   11.2628 H   0  0  0  0  0  0  0  0  0  0  0  0
    3.8671    3.8078    9.3868 H   0  0  0  0  0  0  0  0  0  0  0  0
    1.6091    2.9191    9.4083 H   0  0  0  0  0  0  0  0  0  0  0  0
    1.3590    5.1186    8.2507 H   0  0  0  0  0  0  0  0  0  0  0  0
    0.5419    2.1684   12.7738 H   0  0  0  0  0  0  0  0  0  0  0  0
   -0.0286   -0.0257   13.6625 H   0  0  0  0  0  0  0  0  0  0  0  0
  1  2  1  0  0  0  0
  2  3  1  0  0  0  0
  3  4  1  0  0  0  0
  3 27  2  0  0  0  0
  4  5  1  0  0  0  0
  5  6  2  0  0  0  0
  6  7  1  0  0  0  0
  7  8  2  0  0  0  0
  7 27  1  0  0  0  0
  8  9  1  0  0  0  0
  9 10  2  0  0  0  0
  9 17  1  0  0  0  0
 10 11  1  0  0  0  0
 11 12  2  0  0  0  0
 11 18  1  0  0  0  0
 12 13  1  0  0  0  0
 13 14  1  0  0  0  0
 13 17  1  0  0  0  0
 14 15  2  0  0  0  0
 15 16  1  0  0  0  0
 16 17  2  0  0  0  0
 18 19  1  0  0  0  0
 18 26  2  0  0  0  0
 19 20  2  0  0  0  0
 20 21  1  0  0  0  0
 21 22  1  0  0  0  0
 21 25  1  0  0  0  0
 22 23  2  0  0  0  0
 23 24  1  0  0  0  0
 24 25  2  0  0  0  0
 25 26  1  0  0  0  0
  1 28  1  0  0  0  0
  1 29  1  0  0  0  0
  1 30  1  0  0  0  0
  4 31  1  0  0  0  0
  4 32  1  0  0  0  0
  5 33  1  0  0  0  0
  6 34  1  0  0  0  0
 12 35  1  0  0  0  0
 14 36  1  0  0  0  0
 15 37  1  0  0  0  0
 19 38  1  0  0  0  0
 20 39  1  0  0  0  0
 21 40  1  0  0  0  0
 22 41  1  0  0  0  0
 26 42  1  0  0  0  0
 27 43  1  0  0  0  0
M  END
> <IC50[nM]>
8.5

$$$$
CHEMBL3265028
  -OEChem-05192314333D
 Structure written by MMmdl.
 43 47  0     1  0  0  0  0  0999 V2000
   -1.9509    0.6794   12.3551 C   0  0  0  0  0  0  0  0  0  0  0  0
   -2.6175   -0.2972   13.1574 O   0  0  0  0  0  0  0  0  0  0  0  0
   -1.8696   -1.0545   14.0449 C   0  0  0  0  0  0  0  0  0  0  0  0
   -2.5006   -2.0822   14.7698 C   0  0  0  0  0  0  0  0  0  0  0  0
   -1.7540   -2.8524   15.6585 C   0  0  0  0  0  0  0  0  0  0  0  0
   -0.3950   -2.6038   15.8322 C   0  0  0  0  0  0  0  0  0  0  0  0
    0.2324   -1.5851   15.1260 C   0  0  0  0  0  0  0  0  0  0  0  0
    1.6168   -1.3648   15.3699 N   0  0  0  0  0  0  0  0  0  0  0  0
    2.5420   -0.4570   14.7968 C   0  0  0  0  0  0  0  0  0  0  0  0
    2.1720    0.3831   13.7786 N   0  0  0  0  0  0  0  0  0  0  0  0
    3.1103    1.2383   13.2419 C   0  0  0  0  0  0  0  0  0  0  0  0
    4.3968    1.2792   13.7037 C   0  0  0  0  0  0  0  0  0  0  0  0
    4.7381    0.4944   14.7692 N   0  0  0  0  0  0  0  0  0  0  0  0
    5.8928    0.3893   15.4752 C   0  0  0  0  0  0  0  0  0  0  0  0
    5.6110   -0.5494   16.5068 C   0  0  0  0  0  0  0  0  0  0  0  0
    4.4002   -1.0741   16.3612 N   0  0  0  0  0  0  0  0  0  0  0  0
    3.8444   -0.3918   15.3407 C   0  0  0  0  0  0  0  0  0  0  0  0
    2.6282    2.1384   12.1226 C   0  0  0  0  0  0  0  0  0  0  0  0
    3.5442    2.6282   11.1721 C   0  0  0  0  0  0  0  0  0  0  0  0
    3.1497    3.4552   10.1130 C   0  0  0  0  0  0  0  0  0  0  0  0
    1.8035    3.8107   10.0226 C   0  0  3  0  0  0  0  0  0  0  0  0
    0.9910    4.6054    9.1269 C   0  0  0  0  0  0  0  0  0  0  0  0
   -0.2498    4.6130    9.5297 N   0  0  0  0  0  0  0  0  0  0  0  0
   -0.3276    3.8827   10.6287 N   0  0  0  0  0  0  0  0  0  0  0  0
    0.8922    3.3455   10.9868 C   0  0  0  0  0  0  0  0  0  0  0  0
    1.2628    2.5119   12.0466 C   0  0  0  0  0  0  0  0  0  0  0  0
   -0.5121   -0.8124   14.2226 C   0  0  0  0  0  0  0  0  0  0  0  0
   -2.6836    1.1877   11.7110 H   0  0  0  0  0  0  0  0  0  0  0  0
   -1.4618    1.4178   13.0075 H   0  0  0  0  0  0  0  0  0  0  0  0
   -1.1937    0.1846   11.7292 H   0  0  0  0  0  0  0  0  0  0  0  0
   -3.5555   -2.2724   14.6382 H   0  0  0  0  0  0  0  0  0  0  0  0
   -2.2311   -3.6455   16.2150 H   0  0  0  0  0  0  0  0  0  0  0  0
   -0.2492   -2.3829   16.8999 H   0  0  0  0  0  0  0  0  0  0  0  0
    0.1309   -3.5352   15.5753 H   0  0  0  0  0  0  0  0  0  0  0  0
    5.1294    1.9197   13.2352 H   0  0  0  0  0  0  0  0  0  0  0  0
    6.8235    0.9061   15.2933 H   0  0  0  0  0  0  0  0  0  0  0  0
    6.2935   -0.8022   17.3047 H   0  0  0  0  0  0  0  0  0  0  0  0
    4.5857    2.3571   11.2628 H   0  0  0  0  0  0  0  0  0  0  0  0
    3.8671    3.8078    9.3868 H   0  0  0  0  0  0  0  0  0  0  0  0
    1.6091    2.9191    9.4083 H   0  0  0  0  0  0  0  0  0  0  0  0
    1.3590    5.1186    8.2507 H   0  0  0  0  0  0  0  0  0  0  0  0
    0.5419    2.1684   12.7738 H   0  0  0  0  0  0  0  0  0  0  0  0
   -0.0286   -0.0257   13.6625 H   0  0  0  0  0  0  0  0  0  0  0  0
  1  2  1  0  0  0  0
  2  3  1  0  0  0  0
  3  4  1  0  0  0  0
  3 27  2  0  0  0  0
  4  5  2  0  0  0  0
  5  6  1  0  0  0  0
  6  7  1  0  0  0  0
  7  8  2  0  0  0  0
  7 27  1  0  0  0  0
  8  9  1  0  0  0  0
  9 10  2  0  0  0  0
  9 17  1  0  0  0  0
 10 11  1  0  0  0  0
 11 12  2  0  0  0  0
 11 18  1  0  0  0  0
 12 13  1  0  0  0  0
 13 14  1  0  0  0  0
 13 17  1  0  0  0  0
 14 15  2  0  0  0  0
 15 16  1  0  0  0  0
 16 17  2  0  0  0  0
 18 19  1  0  0  0  0
 18 26  2  0  0  0  0
 19 20  2  0  0  0  0
 20 21  1  0  0  0  0
 21 22  1  0  0  0  0
 21 25  1  0  0  0  0
 22 23  2  0  0  0  0
 23 24  1  0  0  0  0
 24 25  2  0  0  0  0
 25 26  1  0  0  0  0
  1 28  1  0  0  0  0
  1 29  1  0  0  0  0
  1 30  1  0  0  0  0
  4 31  1  0  0  0  0
  5 32  1  0  0  0  0
  6 33  1  0  0  0  0
  6 34  1  0  0  0  0
 12 35  1  0  0  0  0
 14 36  1  0  0  0  0
 15 37  1  0  0  0  0
 19 38  1  0  0  0  0
 20 39  1  0  0  0  0
 21 40  1  0  0  0  0
 22 41  1  0  0  0  0
 26 42  1  0  0  0  0
 27 43  1  0  0  0  0
M  END
> <IC50[nM]>
8.5

$$$$
CHEMBL3265028
  -OEChem-05192314333D
 Structure written by MMmdl.
 43 47  0     0  0  0  0  0  0999 V2000
   -1.9509    0.6794   12.3551 C   0  0  0  0  0  0  0  0  0  0  0  0
   -2.6175   -0.2972   13.1574 O   0  0  0  0  0  0  0  0  0  0  0  0
   -1.8696   -1.0545   14.0449 C   0  0  0  0  0  0  0  0  0  0  0  0
   -2.5006   -2.0822   14.7698 C   0  0  0  0  0  0  0  0  0  0  0  0
   -1.7540   -2.8524   15.6585 C   0  0  0  0  0  0  0  0  0  0  0  0
   -0.3950   -2.6038   15.8322 C   0  0  0  0  0  0  0  0  0  0  0  0
    0.2324   -1.5851   15.1260 C   0  0  0  0  0  0  0  0  0  0  0  0
    1.6168   -1.3648   15.3699 N   0  0  0  0  0  0  0  0  0  0  0  0
    2.5420   -0.4570   14.7968 C   0  0  0  0  0  0  0  0  0  0  0  0
    2.1720    0.3831   13.7786 N   0  0  0  0  0  0  0  0  0  0  0  0
    3.1103    1.2383   13.2419 C   0  0  0  0  0  0  0  0  0  0  0  0
    4.3968    1.2792   13.7037 C   0  0  0  0  0  0  0  0  0  0  0  0
    4.7381    0.4944   14.7692 N   0  0  0  0  0  0  0  0  0  0  0  0
    5.8928    0.3893   15.4752 C   0  0  0  0  0  0  0  0  0  0  0  0
    5.6110   -0.5494   16.5068 C   0  0  0  0  0  0  0  0  0  0  0  0
    4.4002   -1.0741   16.3612 N   0  0  0  0  0  0  0  0  0  0  0  0
    3.8444   -0.3918   15.3407 C   0  0  0  0  0  0  0  0  0  0  0  0
    2.6282    2.1384   12.1226 C   0  0  0  0  0  0  0  0  0  0  0  0
    3.5442    2.6282   11.1721 C   0  0  0  0  0  0  0  0  0  0  0  0
    3.1497    3.4552   10.1130 C   0  0  0  0  0  0  0  0  0  0  0  0
    1.8035    3.8107   10.0226 C   0  0  0  0  0  0  0  0  0  0  0  0
    0.9910    4.6054    9.1269 C   0  0  0  0  0  0  0  0  0  0  0  0
   -0.2498    4.6130    9.5297 N   0  0  0  0  0  0  0  0  0  0  0  0
   -0.3276    3.8827   10.6287 N   0  0  0  0  0  0  0  0  0  0  0  0
    0.8922    3.3455   10.9868 C   0  0  0  0  0  0  0  0  0  0  0  0
    1.2628    2.5119   12.0466 C   0  0  0  0  0  0  0  0  0  0  0  0
   -0.5121   -0.8124   14.2226 C   0  0  0  0  0  0  0  0  0  0  0  0
   -2.6836    1.1877   11.7110 H   0  0  0  0  0  0  0  0  0  0  0  0
   -1.4618    1.4178   13.0075 H   0  0  0  0  0  0  0  0  0  0  0  0
   -1.1937    0.1846   11.7292 H   0  0  0  0  0  0  0  0  0  0  0  0
   -3.3078   -1.6140   15.3522 H   0  0  0  0  0  0  0  0  0  0  0  0
   -2.9341   -2.7741   14.0327 H   0  0  0  0  0  0  0  0  0  0  0  0
   -2.2311   -3.6455   16.2150 H   0  0  0  0  0  0  0  0  0  0  0  0
    0.1761   -3.2079   16.5216 H   0  0  0  0  0  0  0  0  0  0  0  0
    5.1294    1.9197   13.2352 H   0  0  0  0  0  0  0  0  0  0  0  0
    6.8235    0.9061   15.2933 H   0  0  0  0  0  0  0  0  0  0  0  0
    6.2935   -0.8022   17.3047 H   0  0  0  0  0  0  0  0  0  0  0  0
    4.3005    3.1928   11.7371 H   0  0  0  0  0  0  0  0  0  0  0  0
    4.0128    1.7448   10.7137 H   0  0  0  0  0  0  0  0  0  0  0  0
    3.8671    3.8078    9.3868 H   0  0  0  0  0  0  0  0  0  0  0  0
    1.3590    5.1186    8.2507 H   0  0  0  0  0  0  0  0  0  0  0  0
    0.5419    2.1684   12.7738 H   0  0  0  0  0  0  0  0  0  0  0  0
   -0.0286   -0.0257   13.6625 H   0  0  0  0  0  0  0  0  0  0  0  0
  1  2  1  0  0  0  0
  2  3  1  0  0  0  0
  3  4  1  0  0  0  0
  3 27  2  0  0  0  0
  4  5  1  0  0  0  0
  5  6  2  0  0  0  0
  6  7  1  0  0  0  0
  7  8  2  0  0  0  0
  7 27  1  0  0  0  0
  8  9  1  0  0  0  0
  9 10  2  0  0  0  0
  9 17  1  0  0  0  0
 10 11  1  0  0  0  0
 11 12  2  0  0  0  0
 11 18  1  0  0  0  0
 12 13  1  0  0  0  0
 13 14  1  0  0  0  0
 13 17  1  0  0  0  0
 14 15  2  0  0  0  0
 15 16  1  0  0  0  0
 16 17  2  0  0  0  0
 18 19  1  0  0  0  0
 18 26  2  0  0  0  0
 19 20  1  0  0  0  0
 20 21  2  0  0  0  0
 21 22  1  0  0  0  0
 21 25  1  0  0  0  0
 22 23  2  0  0  0  0
 23 24  1  0  0  0  0
 24 25  2  0  0  0  0
 25 26  1  0  0  0  0
  1 28  1  0  0  0  0
  1 29  1  0  0  0  0
  1 30  1  0  0  0  0
  4 31  1  0  0  0  0
  4 32  1  0  0  0  0
  5 33  1  0  0  0  0
  6 34  1  0  0  0  0
 12 35  1  0  0  0  0
 14 36  1  0  0  0  0
 15 37  1  0  0  0  0
 19 38  1  0  0  0  0
 19 39  1  0  0  0  0
 20 40  1  0  0  0  0
 22 41  1  0  0  0  0
 26 42  1  0  0  0  0
 27 43  1  0  0  0  0
M  END
> <IC50[nM]>
8.5

$$$$
CHEMBL3265028
  -OEChem-05192314333D
 Structure written by MMmdl.
 43 47  0     0  0  0  0  0  0999 V2000
   -1.9509    0.6794   12.3551 C   0  0  0  0  0  0  0  0  0  0  0  0
   -2.6175   -0.2972   13.1574 O   0  0  0  0  0  0  0  0  0  0  0  0
   -1.8696   -1.0545   14.0449 C   0  0  0  0  0  0  0  0  0  0  0  0
   -2.5006   -2.0822   14.7698 C   0  0  0  0  0  0  0  0  0  0  0  0
   -1.7540   -2.8524   15.6585 C   0  0  0  0  0  0  0  0  0  0  0  0
   -0.3950   -2.6038   15.8322 C   0  0  0  0  0  0  0  0  0  0  0  0
    0.2324   -1.5851   15.1260 C   0  0  0  0  0  0  0  0  0  0  0  0
    1.6168   -1.3648   15.3699 N   0  0  0  0  0  0  0  0  0  0  0  0
    2.5420   -0.4570   14.7968 C   0  0  0  0  0  0  0  0  0  0  0  0
    2.1720    0.3831   13.7786 N   0  0  0  0  0  0  0  0  0  0  0  0
    3.1103    1.2383   13.2419 C   0  0  0  0  0  0  0  0  0  0  0  0
    4.3968    1.2792   13.7037 C   0  0  0  0  0  0  0  0  0  0  0  0
    4.7381    0.4944   14.7692 N   0  0  0  0  0  0  0  0  0  0  0  0
    5.8928    0.3893   15.4752 C   0  0  0  0  0  0  0  0  0  0  0  0
    5.6110   -0.5494   16.5068 C   0  0  0  0  0  0  0  0  0  0  0  0
    4.4002   -1.0741   16.3612 N   0  0  0  0  0  0  0  0  0  0  0  0
    3.8444   -0.3918   15.3407 C   0  0  0  0  0  0  0  0  0  0  0  0
    2.6282    2.1384   12.1226 C   0  0  0  0  0  0  0  0  0  0  0  0
    3.5442    2.6282   11.1721 C   0  0  0  0  0  0  0  0  0  0  0  0
    3.1497    3.4552   10.1130 C   0  0  0  0  0  0  0  0  0  0  0  0
    1.8035    3.8107   10.0226 C   0  0  0  0  0  0  0  0  0  0  0  0
    0.9910    4.6054    9.1269 C   0  0  0  0  0  0  0  0  0  0  0  0
   -0.2498    4.6130    9.5297 N   0  0  0  0  0  0  0  0  0  0  0  0
   -0.3276    3.8827   10.6287 N   0  0  0  0  0  0  0  0  0  0  0  0
    0.8922    3.3455   10.9868 C   0  0  0  0  0  0  0  0  0  0  0  0
    1.2628    2.5119   12.0466 C   0  0  0  0  0  0  0  0  0  0  0  0
   -0.5121   -0.8124   14.2226 C   0  0  0  0  0  0  0  0  0  0  0  0
   -2.6836    1.1877   11.7110 H   0  0  0  0  0  0  0  0  0  0  0  0
   -1.4618    1.4178   13.0075 H   0  0  0  0  0  0  0  0  0  0  0  0
   -1.1937    0.1846   11.7292 H   0  0  0  0  0  0  0  0  0  0  0  0
   -3.5555   -2.2724   14.6382 H   0  0  0  0  0  0  0  0  0  0  0  0
   -2.2311   -3.6455   16.2150 H   0  0  0  0  0  0  0  0  0  0  0  0
   -0.2492   -2.3829   16.8999 H   0  0  0  0  0  0  0  0  0  0  0  0
    0.1309   -3.5352   15.5753 H   0  0  0  0  0  0  0  0  0  0  0  0
    5.1294    1.9197   13.2352 H   0  0  0  0  0  0  0  0  0  0  0  0
    6.8235    0.9061   15.2933 H   0  0  0  0  0  0  0  0  0  0  0  0
    6.2935   -0.8022   17.3047 H   0  0  0  0  0  0  0  0  0  0  0  0
    4.3005    3.1928   11.7371 H   0  0  0  0  0  0  0  0  0  0  0  0
    4.0128    1.7448   10.7137 H   0  0  0  0  0  0  0  0  0  0  0  0
    3.8671    3.8078    9.3868 H   0  0  0  0  0  0  0  0  0  0  0  0
    1.3590    5.1186    8.2507 H   0  0  0  0  0  0  0  0  0  0  0  0
    0.5419    2.1684   12.7738 H   0  0  0  0  0  0  0  0  0  0  0  0
   -0.0286   -0.0257   13.6625 H   0  0  0  0  0  0  0  0  0  0  0  0
  1  2  1  0  0  0  0
  2  3  1  0  0  0  0
  3  4  1  0  0  0  0
  3 27  2  0  0  0  0
  4  5  2  0  0  0  0
  5  6  1  0  0  0  0
  6  7  1  0  0  0  0
  7  8  2  0  0  0  0
  7 27  1  0  0  0  0
  8  9  1  0  0  0  0
  9 10  2  0  0  0  0
  9 17  1  0  0  0  0
 10 11  1  0  0  0  0
 11 12  2  0  0  0  0
 11 18  1  0  0  0  0
 12 13  1  0  0  0  0
 13 14  1  0  0  0  0
 13 17  1  0  0  0  0
 14 15  2  0  0  0  0
 15 16  1  0  0  0  0
 16 17  2  0  0  0  0
 18 19  1  0  0  0  0
 18 26  2  0  0  0  0
 19 20  1  0  0  0  0
 20 21  2  0  0  0  0
 21 22  1  0  0  0  0
 21 25  1  0  0  0  0
 22 23  2  0  0  0  0
 23 24  1  0  0  0  0
 24 25  2  0  0  0  0
 25 26  1  0  0  0  0
  1 28  1  0  0  0  0
  1 29  1  0  0  0  0
  1 30  1  0  0  0  0
  4 31  1  0  0  0  0
  5 32  1  0  0  0  0
  6 33  1  0  0  0  0
  6 34  1  0  0  0  0
 12 35  1  0  0  0  0
 14 36  1  0  0  0  0
 15 37  1  0  0  0  0
 19 38  1  0  0  0  0
 19 39  1  0  0  0  0
 20 40  1  0  0  0  0
 22 41  1  0  0  0  0
 26 42  1  0  0  0  0
 27 43  1  0  0  0  0
M  END
> <IC50[nM]>
8.5

$$$$
CHEMBL3265028
  -OEChem-05192314333D
 Structure written by MMmdl.
 43 47  0     1  0  0  0  0  0999 V2000
   -1.9509    0.6794   12.3551 C   0  0  0  0  0  0  0  0  0  0  0  0
   -2.6175   -0.2972   13.1574 O   0  0  0  0  0  0  0  0  0  0  0  0
   -1.8696   -1.0545   14.0449 C   0  0  0  0  0  0  0  0  0  0  0  0
   -2.5006   -2.0822   14.7698 C   0  0  0  0  0  0  0  0  0  0  0  0
   -1.7540   -2.8524   15.6585 C   0  0  0  0  0  0  0  0  0  0  0  0
   -0.3950   -2.6038   15.8322 C   0  0  0  0  0  0  0  0  0  0  0  0
    0.2324   -1.5851   15.1260 C   0  0  0  0  0  0  0  0  0  0  0  0
    1.6168   -1.3648   15.3699 N   0  0  0  0  0  0  0  0  0  0  0  0
    2.5420   -0.4570   14.7968 C   0  0  0  0  0  0  0  0  0  0  0  0
    2.1720    0.3831   13.7786 N   0  0  0  0  0  0  0  0  0  0  0  0
    3.1103    1.2383   13.2419 C   0  0  0  0  0  0  0  0  0  0  0  0
    4.3968    1.2792   13.7037 C   0  0  0  0  0  0  0  0  0  0  0  0
    4.7381    0.4944   14.7692 N   0  0  0  0  0  0  0  0  0  0  0  0
    5.8928    0.3893   15.4752 C   0  0  0  0  0  0  0  0  0  0  0  0
    5.6110   -0.5494   16.5068 C   0  0  0  0  0  0  0  0  0  0  0  0
    4.4002   -1.0741   16.3612 N   0  0  0  0  0  0  0  0  0  0  0  0
    3.8444   -0.3918   15.3407 C   0  0  0  0  0  0  0  0  0  0  0  0
    2.6282    2.1384   12.1226 C   0  0  0  0  0  0  0  0  0  0  0  0
    3.5442    2.6282   11.1721 C   0  0  0  0  0  0  0  0  0  0  0  0
    3.1497    3.4552   10.1130 C   0  0  0  0  0  0  0  0  0  0  0  0
    1.8035    3.8107   10.0226 C   0  0  3  0  0  0  0  0  0  0  0  0
    0.9910    4.6054    9.1269 C   0  0  0  0  0  0  0  0  0  0  0  0
   -0.2498    4.6130    9.5297 N   0  0  0  0  0  0  0  0  0  0  0  0
   -0.3276    3.8827   10.6287 N   0  0  0  0  0  0  0  0  0  0  0  0
    0.8922    3.3455   10.9868 C   0  0  0  0  0  0  0  0  0  0  0  0
    1.2628    2.5119   12.0466 C   0  0  0  0  0  0  0  0  0  0  0  0
   -0.5121   -0.8124   14.2226 C   0  0  0  0  0  0  0  0  0  0  0  0
   -2.6836    1.1877   11.7110 H   0  0  0  0  0  0  0  0  0  0  0  0
   -1.4618    1.4178   13.0075 H   0  0  0  0  0  0  0  0  0  0  0  0
   -1.1937    0.1846   11.7292 H   0  0  0  0  0  0  0  0  0  0  0  0
   -3.5555   -2.2724   14.6382 H   0  0  0  0  0  0  0  0  0  0  0  0
   -2.2311   -3.6455   16.2150 H   0  0  0  0  0  0  0  0  0  0  0  0
    0.1761   -3.2079   16.5216 H   0  0  0  0  0  0  0  0  0  0  0  0
    5.1294    1.9197   13.2352 H   0  0  0  0  0  0  0  0  0  0  0  0
    6.8235    0.9061   15.2933 H   0  0  0  0  0  0  0  0  0  0  0  0
    6.2935   -0.8022   17.3047 H   0  0  0  0  0  0  0  0  0  0  0  0
    4.5857    2.3571   11.2628 H   0  0  0  0  0  0  0  0  0  0  0  0
    3.8671    3.8078    9.3868 H   0  0  0  0  0  0  0  0  0  0  0  0
    1.6091    2.9191    9.4083 H   0  0  0  0  0  0  0  0  0  0  0  0
    1.3590    5.1186    8.2507 H   0  0  0  0  0  0  0  0  0  0  0  0
    0.5419    2.1684   12.7738 H   0  0  0  0  0  0  0  0  0  0  0  0
   -0.0379   -0.9334   13.2375 H   0  0  0  0  0  0  0  0  0  0  0  0
   -0.4177    0.2338   14.5489 H   0  0  0  0  0  0  0  0  0  0  0  0
  1  2  1  0  0  0  0
  2  3  1  0  0  0  0
  3  4  2  0  0  0  0
  3 27  1  0  0  0  0
  4  5  1  0  0  0  0
  5  6  2  0  0  0  0
  6  7  1  0  0  0  0
  7  8  2  0  0  0  0
  7 27  1  0  0  0  0
  8  9  1  0  0  0  0
  9 10  2  0  0  0  0
  9 17  1  0  0  0  0
 10 11  1  0  0  0  0
 11 12  2  0  0  0  0
 11 18  1  0  0  0  0
 12 13  1  0  0  0  0
 13 14  1  0  0  0  0
 13 17  1  0  0  0  0
 14 15  2  0  0  0  0
 15 16  1  0  0  0  0
 16 17  2  0  0  0  0
 18 19  1  0  0  0  0
 18 26  2  0  0  0  0
 19 20  2  0  0  0  0
 20 21  1  0  0  0  0
 21 22  1  0  0  0  0
 21 25  1  0  0  0  0
 22 23  2  0  0  0  0
 23 24  1  0  0  0  0
 24 25  2  0  0  0  0
 25 26  1  0  0  0  0
  1 28  1  0  0  0  0
  1 29  1  0  0  0  0
  1 30  1  0  0  0  0
  4 31  1  0  0  0  0
  5 32  1  0  0  0  0
  6 33  1  0  0  0  0
 12 34  1  0  0  0  0
 14 35  1  0  0  0  0
 15 36  1  0  0  0  0
 19 37  1  0  0  0  0
 20 38  1  0  0  0  0
 21 39  1  0  0  0  0
 22 40  1  0  0  0  0
 26 41  1  0  0  0  0
 27 42  1  0  0  0  0
 27 43  1  0  0  0  0
M  END
> <IC50[nM]>
8.5

$$$$
CHEMBL3265028
  -OEChem-05192314333D
 Structure written by MMmdl.
 43 47  0     0  0  0  0  0  0999 V2000
   -1.9509    0.6794   12.3551 C   0  0  0  0  0  0  0  0  0  0  0  0
   -2.6175   -0.2972   13.1574 O   0  0  0  0  0  0  0  0  0  0  0  0
   -1.8696   -1.0545   14.0449 C   0  0  0  0  0  0  0  0  0  0  0  0
   -2.5006   -2.0822   14.7698 C   0  0  0  0  0  0  0  0  0  0  0  0
   -1.7540   -2.8524   15.6585 C   0  0  0  0  0  0  0  0  0  0  0  0
   -0.3950   -2.6038   15.8322 C   0  0  0  0  0  0  0  0  0  0  0  0
    0.2324   -1.5851   15.1260 C   0  0  0  0  0  0  0  0  0  0  0  0
    1.6168   -1.3648   15.3699 N   0  0  0  0  0  0  0  0  0  0  0  0
    2.5420   -0.4570   14.7968 C   0  0  0  0  0  0  0  0  0  0  0  0
    2.1720    0.3831   13.7786 N   0  0  0  0  0  0  0  0  0  0  0  0
    3.1103    1.2383   13.2419 C   0  0  0  0  0  0  0  0  0  0  0  0
    4.3968    1.2792   13.7037 C   0  0  0  0  0  0  0  0  0  0  0  0
    4.7381    0.4944   14.7692 N   0  0  0  0  0  0  0  0  0  0  0  0
    5.8928    0.3893   15.4752 C   0  0  0  0  0  0  0  0  0  0  0  0
    5.6110   -0.5494   16.5068 C   0  0  0  0  0  0  0  0  0  0  0  0
    4.4002   -1.0741   16.3612 N   0  0  0  0  0  0  0  0  0  0  0  0
    3.8444   -0.3918   15.3407 C   0  0  0  0  0  0  0  0  0  0  0  0
    2.6282    2.1384   12.1226 C   0  0  0  0  0  0  0  0  0  0  0  0
    3.5442    2.6282   11.1721 C   0  0  0  0  0  0  0  0  0  0  0  0
    3.1497    3.4552   10.1130 C   0  0  0  0  0  0  0  0  0  0  0  0
    1.8035    3.8107   10.0226 C   0  0  0  0  0  0  0  0  0  0  0  0
    0.9910    4.6054    9.1269 C   0  0  0  0  0  0  0  0  0  0  0  0
   -0.2498    4.6130    9.5297 N   0  0  0  0  0  0  0  0  0  0  0  0
   -0.3276    3.8827   10.6287 N   0  0  0  0  0  0  0  0  0  0  0  0
    0.8922    3.3455   10.9868 C   0  0  0  0  0  0  0  0  0  0  0  0
    1.2628    2.5119   12.0466 C   0  0  0  0  0  0  0  0  0  0  0  0
   -0.5121   -0.8124   14.2226 C   0  0  0  0  0  0  0  0  0  0  0  0
   -2.6836    1.1877   11.7110 H   0  0  0  0  0  0  0  0  0  0  0  0
   -1.4618    1.4178   13.0075 H   0  0  0  0  0  0  0  0  0  0  0  0
   -1.1937    0.1846   11.7292 H   0  0  0  0  0  0  0  0  0  0  0  0
   -3.5555   -2.2724   14.6382 H   0  0  0  0  0  0  0  0  0  0  0  0
   -2.2311   -3.6455   16.2150 H   0  0  0  0  0  0  0  0  0  0  0  0
    0.1761   -3.2079   16.5216 H   0  0  0  0  0  0  0  0  0  0  0  0
    5.1294    1.9197   13.2352 H   0  0  0  0  0  0  0  0  0  0  0  0
    6.8235    0.9061   15.2933 H   0  0  0  0  0  0  0  0  0  0  0  0
    6.2935   -0.8022   17.3047 H   0  0  0  0  0  0  0  0  0  0  0  0
    4.3005    3.1928   11.7371 H   0  0  0  0  0  0  0  0  0  0  0  0
    4.0128    1.7448   10.7137 H   0  0  0  0  0  0  0  0  0  0  0  0
    3.8671    3.8078    9.3868 H   0  0  0  0  0  0  0  0  0  0  0  0
    1.3590    5.1186    8.2507 H   0  0  0  0  0  0  0  0  0  0  0  0
    0.5419    2.1684   12.7738 H   0  0  0  0  0  0  0  0  0  0  0  0
   -0.0379   -0.9334   13.2375 H   0  0  0  0  0  0  0  0  0  0  0  0
   -0.4177    0.2338   14.5489 H   0  0  0  0  0  0  0  0  0  0  0  0
  1  2  1  0  0  0  0
  2  3  1  0  0  0  0
  3  4  2  0  0  0  0
  3 27  1  0  0  0  0
  4  5  1  0  0  0  0
  5  6  2  0  0  0  0
  6  7  1  0  0  0  0
  7  8  2  0  0  0  0
  7 27  1  0  0  0  0
  8  9  1  0  0  0  0
  9 10  2  0  0  0  0
  9 17  1  0  0  0  0
 10 11  1  0  0  0  0
 11 12  2  0  0  0  0
 11 18  1  0  0  0  0
 12 13  1  0  0  0  0
 13 14  1  0  0  0  0
 13 17  1  0  0  0  0
 14 15  2  0  0  0  0
 15 16  1  0  0  0  0
 16 17  2  0  0  0  0
 18 19  1  0  0  0  0
 18 26  2  0  0  0  0
 19 20  1  0  0  0  0
 20 21  2  0  0  0  0
 21 22  1  0  0  0  0
 21 25  1  0  0  0  0
 22 23  2  0  0  0  0
 23 24  1  0  0  0  0
 24 25  2  0  0  0  0
 25 26  1  0  0  0  0
  1 28  1  0  0  0  0
  1 29  1  0  0  0  0
  1 30  1  0  0  0  0
  4 31  1  0  0  0  0
  5 32  1  0  0  0  0
  6 33  1  0  0  0  0
 12 34  1  0  0  0  0
 14 35  1  0  0  0  0
 15 36  1  0  0  0  0
 19 37  1  0  0  0  0
 19 38  1  0  0  0  0
 20 39  1  0  0  0  0
 22 40  1  0  0  0  0
 26 41  1  0  0  0  0
 27 42  1  0  0  0  0
 27 43  1  0  0  0  0
M  END
> <IC50[nM]>
8.5

$$$$
CHEMBL3265028
  -OEChem-05192314333D
 Structure written by MMmdl.
 43 47  0     0  0  0  0  0  0999 V2000
   -1.9509    0.6794   12.3551 C   0  0  0  0  0  0  0  0  0  0  0  0
   -2.6175   -0.2972   13.1574 O   0  0  0  0  0  0  0  0  0  0  0  0
   -1.8696   -1.0545   14.0449 C   0  0  0  0  0  0  0  0  0  0  0  0
   -2.5006   -2.0822   14.7698 C   0  0  0  0  0  0  0  0  0  0  0  0
   -1.7540   -2.8524   15.6585 C   0  0  0  0  0  0  0  0  0  0  0  0
   -0.3950   -2.6038   15.8322 C   0  0  0  0  0  0  0  0  0  0  0  0
    0.2324   -1.5851   15.1260 C   0  0  0  0  0  0  0  0  0  0  0  0
    1.6168   -1.3648   15.3699 N   0  0  0  0  0  0  0  0  0  0  0  0
    2.5420   -0.4570   14.7968 C   0  0  0  0  0  0  0  0  0  0  0  0
    2.1720    0.3831   13.7786 N   0  0  0  0  0  0  0  0  0  0  0  0
    3.1103    1.2383   13.2419 C   0  0  0  0  0  0  0  0  0  0  0  0
    4.3968    1.2792   13.7037 C   0  0  0  0  0  0  0  0  0  0  0  0
    4.7381    0.4944   14.7692 N   0  0  0  0  0  0  0  0  0  0  0  0
    5.8928    0.3893   15.4752 C   0  0  0  0  0  0  0  0  0  0  0  0
    5.6110   -0.5494   16.5068 C   0  0  0  0  0  0  0  0  0  0  0  0
    4.4002   -1.0741   16.3612 N   0  0  0  0  0  0  0  0  0  0  0  0
    3.8444   -0.3918   15.3407 C   0  0  0  0  0  0  0  0  0  0  0  0
    2.6282    2.1384   12.1226 C   0  0  0  0  0  0  0  0  0  0  0  0
    3.5442    2.6282   11.1721 C   0  0  0  0  0  0  0  0  0  0  0  0
    3.1497    3.4552   10.1130 C   0  0  0  0  0  0  0  0  0  0  0  0
    1.8035    3.8107   10.0226 C   0  0  0  0  0  0  0  0  0  0  0  0
    0.9910    4.6054    9.1269 C   0  0  0  0  0  0  0  0  0  0  0  0
   -0.2498    4.6130    9.5297 N   0  0  0  0  0  0  0  0  0  0  0  0
   -0.3276    3.8827   10.6287 N   0  0  0  0  0  0  0  0  0  0  0  0
    0.8922    3.3455   10.9868 C   0  0  0  0  0  0  0  0  0  0  0  0
    1.2628    2.5119   12.0466 C   0  0  0  0  0  0  0  0  0  0  0  0
   -0.5121   -0.8124   14.2226 C   0  0  0  0  0  0  0  0  0  0  0  0
   -2.6836    1.1877   11.7110 H   0  0  0  0  0  0  0  0  0  0  0  0
   -1.4618    1.4178   13.0075 H   0  0  0  0  0  0  0  0  0  0  0  0
   -1.1937    0.1846   11.7292 H   0  0  0  0  0  0  0  0  0  0  0  0
   -3.3078   -1.6140   15.3522 H   0  0  0  0  0  0  0  0  0  0  0  0
   -2.9341   -2.7741   14.0327 H   0  0  0  0  0  0  0  0  0  0  0  0
   -2.2311   -3.6455   16.2150 H   0  0  0  0  0  0  0  0  0  0  0  0
    0.1761   -3.2079   16.5216 H   0  0  0  0  0  0  0  0  0  0  0  0
    5.1294    1.9197   13.2352 H   0  0  0  0  0  0  0  0  0  0  0  0
    6.8235    0.9061   15.2933 H   0  0  0  0  0  0  0  0  0  0  0  0
    6.2935   -0.8022   17.3047 H   0  0  0  0  0  0  0  0  0  0  0  0
    4.5857    2.3571   11.2628 H   0  0  0  0  0  0  0  0  0  0  0  0
    3.8671    3.8078    9.3868 H   0  0  0  0  0  0  0  0  0  0  0  0
    1.3590    5.1186    8.2507 H   0  0  0  0  0  0  0  0  0  0  0  0
    0.6699    1.5888   11.9661 H   0  0  0  0  0  0  0  0  0  0  0  0
    1.0079    3.0310   12.9823 H   0  0  0  0  0  0  0  0  0  0  0  0
   -0.0286   -0.0257   13.6625 H   0  0  0  0  0  0  0  0  0  0  0  0
  1  2  1  0  0  0  0
  2  3  1  0  0  0  0
  3  4  1  0  0  0  0
  3 27  2  0  0  0  0
  4  5  1  0  0  0  0
  5  6  2  0  0  0  0
  6  7  1  0  0  0  0
  7  8  2  0  0  0  0
  7 27  1  0  0  0  0
  8  9  1  0  0  0  0
  9 10  2  0  0  0  0
  9 17  1  0  0  0  0
 10 11  1  0  0  0  0
 11 12  2  0  0  0  0
 11 18  1  0  0  0  0
 12 13  1  0  0  0  0
 13 14  1  0  0  0  0
 13 17  1  0  0  0  0
 14 15  2  0  0  0  0
 15 16  1  0  0  0  0
 16 17  2  0  0  0  0
 18 19  2  0  0  0  0
 18 26  1  0  0  0  0
 19 20  1  0  0  0  0
 20 21  2  0  0  0  0
 21 22  1  0  0  0  0
 21 25  1  0  0  0  0
 22 23  2  0  0  0  0
 23 24  1  0  0  0  0
 24 25  2  0  0  0  0
 25 26  1  0  0  0  0
  1 28  1  0  0  0  0
  1 29  1  0  0  0  0
  1 30  1  0  0  0  0
  4 31  1  0  0  0  0
  4 32  1  0  0  0  0
  5 33  1  0  0  0  0
  6 34  1  0  0  0  0
 12 35  1  0  0  0  0
 14 36  1  0  0  0  0
 15 37  1  0  0  0  0
 19 38  1  0  0  0  0
 20 39  1  0  0  0  0
 22 40  1  0  0  0  0
 26 41  1  0  0  0  0
 26 42  1  0  0  0  0
 27 43  1  0  0  0  0
M  END
> <IC50[nM]>
8.5

$$$$
CHEMBL3265028
  -OEChem-05192314333D
 Structure written by MMmdl.
 43 47  0     0  0  0  0  0  0999 V2000
   -1.9509    0.6794   12.3551 C   0  0  0  0  0  0  0  0  0  0  0  0
   -2.6175   -0.2972   13.1574 O   0  0  0  0  0  0  0  0  0  0  0  0
   -1.8696   -1.0545   14.0449 C   0  0  0  0  0  0  0  0  0  0  0  0
   -2.5006   -2.0822   14.7698 C   0  0  0  0  0  0  0  0  0  0  0  0
   -1.7540   -2.8524   15.6585 C   0  0  0  0  0  0  0  0  0  0  0  0
   -0.3950   -2.6038   15.8322 C   0  0  0  0  0  0  0  0  0  0  0  0
    0.2324   -1.5851   15.1260 C   0  0  0  0  0  0  0  0  0  0  0  0
    1.6168   -1.3648   15.3699 N   0  0  0  0  0  0  0  0  0  0  0  0
    2.5420   -0.4570   14.7968 C   0  0  0  0  0  0  0  0  0  0  0  0
    2.1720    0.3831   13.7786 N   0  0  0  0  0  0  0  0  0  0  0  0
    3.1103    1.2383   13.2419 C   0  0  0  0  0  0  0  0  0  0  0  0
    4.3968    1.2792   13.7037 C   0  0  0  0  0  0  0  0  0  0  0  0
    4.7381    0.4944   14.7692 N   0  0  0  0  0  0  0  0  0  0  0  0
    5.8928    0.3893   15.4752 C   0  0  0  0  0  0  0  0  0  0  0  0
    5.6110   -0.5494   16.5068 C   0  0  0  0  0  0  0  0  0  0  0  0
    4.4002   -1.0741   16.3612 N   0  0  0  0  0  0  0  0  0  0  0  0
    3.8444   -0.3918   15.3407 C   0  0  0  0  0  0  0  0  0  0  0  0
    2.6282    2.1384   12.1226 C   0  0  0  0  0  0  0  0  0  0  0  0
    3.5442    2.6282   11.1721 C   0  0  0  0  0  0  0  0  0  0  0  0
    3.1497    3.4552   10.1130 C   0  0  0  0  0  0  0  0  0  0  0  0
    1.8035    3.8107   10.0226 C   0  0  0  0  0  0  0  0  0  0  0  0
    0.9910    4.6054    9.1269 C   0  0  0  0  0  0  0  0  0  0  0  0
   -0.2498    4.6130    9.5297 N   0  0  0  0  0  0  0  0  0  0  0  0
   -0.3276    3.8827   10.6287 N   0  0  0  0  0  0  0  0  0  0  0  0
    0.8922    3.3455   10.9868 C   0  0  0  0  0  0  0  0  0  0  0  0
    1.2628    2.5119   12.0466 C   0  0  0  0  0  0  0  0  0  0  0  0
   -0.5121   -0.8124   14.2226 C   0  0  0  0  0  0  0  0  0  0  0  0
   -2.6836    1.1877   11.7110 H   0  0  0  0  0  0  0  0  0  0  0  0
   -1.4618    1.4178   13.0075 H   0  0  0  0  0  0  0  0  0  0  0  0
   -1.1937    0.1846   11.7292 H   0  0  0  0  0  0  0  0  0  0  0  0
   -3.5555   -2.2724   14.6382 H   0  0  0  0  0  0  0  0  0  0  0  0
   -2.2311   -3.6455   16.2150 H   0  0  0  0  0  0  0  0  0  0  0  0
   -0.2492   -2.3829   16.8999 H   0  0  0  0  0  0  0  0  0  0  0  0
    0.1309   -3.5352   15.5753 H   0  0  0  0  0  0  0  0  0  0  0  0
    5.1294    1.9197   13.2352 H   0  0  0  0  0  0  0  0  0  0  0  0
    6.8235    0.9061   15.2933 H   0  0  0  0  0  0  0  0  0  0  0  0
    6.2935   -0.8022   17.3047 H   0  0  0  0  0  0  0  0  0  0  0  0
    4.5857    2.3571   11.2628 H   0  0  0  0  0  0  0  0  0  0  0  0
    3.8671    3.8078    9.3868 H   0  0  0  0  0  0  0  0  0  0  0  0
    1.3590    5.1186    8.2507 H   0  0  0  0  0  0  0  0  0  0  0  0
    0.6699    1.5888   11.9661 H   0  0  0  0  0  0  0  0  0  0  0  0
    1.0079    3.0310   12.9823 H   0  0  0  0  0  0  0  0  0  0  0  0
   -0.0286   -0.0257   13.6625 H   0  0  0  0  0  0  0  0  0  0  0  0
  1  2  1  0  0  0  0
  2  3  1  0  0  0  0
  3  4  1  0  0  0  0
  3 27  2  0  0  0  0
  4  5  2  0  0  0  0
  5  6  1  0  0  0  0
  6  7  1  0  0  0  0
  7  8  2  0  0  0  0
  7 27  1  0  0  0  0
  8  9  1  0  0  0  0
  9 10  2  0  0  0  0
  9 17  1  0  0  0  0
 10 11  1  0  0  0  0
 11 12  2  0  0  0  0
 11 18  1  0  0  0  0
 12 13  1  0  0  0  0
 13 14  1  0  0  0  0
 13 17  1  0  0  0  0
 14 15  2  0  0  0  0
 15 16  1  0  0  0  0
 16 17  2  0  0  0  0
 18 19  2  0  0  0  0
 18 26  1  0  0  0  0
 19 20  1  0  0  0  0
 20 21  2  0  0  0  0
 21 22  1  0  0  0  0
 21 25  1  0  0  0  0
 22 23  2  0  0  0  0
 23 24  1  0  0  0  0
 24 25  2  0  0  0  0
 25 26  1  0  0  0  0
  1 28  1  0  0  0  0
  1 29  1  0  0  0  0
  1 30  1  0  0  0  0
  4 31  1  0  0  0  0
  5 32  1  0  0  0  0
  6 33  1  0  0  0  0
  6 34  1  0  0  0  0
 12 35  1  0  0  0  0
 14 36  1  0  0  0  0
 15 37  1  0  0  0  0
 19 38  1  0  0  0  0
 20 39  1  0  0  0  0
 22 40  1  0  0  0  0
 26 41  1  0  0  0  0
 26 42  1  0  0  0  0
 27 43  1  0  0  0  0
M  END
> <IC50[nM]>
8.5

$$$$
CHEMBL3265028
  -OEChem-05192314333D
 Structure written by MMmdl.
 43 47  0     0  0  0  0  0  0999 V2000
   -1.9509    0.6794   12.3551 C   0  0  0  0  0  0  0  0  0  0  0  0
   -2.6175   -0.2972   13.1574 O   0  0  0  0  0  0  0  0  0  0  0  0
   -1.8696   -1.0545   14.0449 C   0  0  0  0  0  0  0  0  0  0  0  0
   -2.5006   -2.0822   14.7698 C   0  0  0  0  0  0  0  0  0  0  0  0
   -1.7540   -2.8524   15.6585 C   0  0  0  0  0  0  0  0  0  0  0  0
   -0.3950   -2.6038   15.8322 C   0  0  0  0  0  0  0  0  0  0  0  0
    0.2324   -1.5851   15.1260 C   0  0  0  0  0  0  0  0  0  0  0  0
    1.6168   -1.3648   15.3699 N   0  0  0  0  0  0  0  0  0  0  0  0
    2.5420   -0.4570   14.7968 C   0  0  0  0  0  0  0  0  0  0  0  0
    2.1720    0.3831   13.7786 N   0  0  0  0  0  0  0  0  0  0  0  0
    3.1103    1.2383   13.2419 C   0  0  0  0  0  0  0  0  0  0  0  0
    4.3968    1.2792   13.7037 C   0  0  0  0  0  0  0  0  0  0  0  0
    4.7381    0.4944   14.7692 N   0  0  0  0  0  0  0  0  0  0  0  0
    5.8928    0.3893   15.4752 C   0  0  0  0  0  0  0  0  0  0  0  0
    5.6110   -0.5494   16.5068 C   0  0  0  0  0  0  0  0  0  0  0  0
    4.4002   -1.0741   16.3612 N   0  0  0  0  0  0  0  0  0  0  0  0
    3.8444   -0.3918   15.3407 C   0  0  0  0  0  0  0  0  0  0  0  0
    2.6282    2.1384   12.1226 C   0  0  0  0  0  0  0  0  0  0  0  0
    3.5442    2.6282   11.1721 C   0  0  0  0  0  0  0  0  0  0  0  0
    3.1497    3.4552   10.1130 C   0  0  0  0  0  0  0  0  0  0  0  0
    1.8035    3.8107   10.0226 C   0  0  0  0  0  0  0  0  0  0  0  0
    0.9910    4.6054    9.1269 C   0  0  0  0  0  0  0  0  0  0  0  0
   -0.2498    4.6130    9.5297 N   0  0  0  0  0  0  0  0  0  0  0  0
   -0.3276    3.8827   10.6287 N   0  0  0  0  0  0  0  0  0  0  0  0
    0.8922    3.3455   10.9868 C   0  0  0  0  0  0  0  0  0  0  0  0
    1.2628    2.5119   12.0466 C   0  0  0  0  0  0  0  0  0  0  0  0
   -0.5121   -0.8124   14.2226 C   0  0  0  0  0  0  0  0  0  0  0  0
   -2.6836    1.1877   11.7110 H   0  0  0  0  0  0  0  0  0  0  0  0
   -1.4618    1.4178   13.0075 H   0  0  0  0  0  0  0  0  0  0  0  0
   -1.1937    0.1846   11.7292 H   0  0  0  0  0  0  0  0  0  0  0  0
   -3.5555   -2.2724   14.6382 H   0  0  0  0  0  0  0  0  0  0  0  0
   -2.2311   -3.6455   16.2150 H   0  0  0  0  0  0  0  0  0  0  0  0
    0.1761   -3.2079   16.5216 H   0  0  0  0  0  0  0  0  0  0  0  0
    5.1294    1.9197   13.2352 H   0  0  0  0  0  0  0  0  0  0  0  0
    6.8235    0.9061   15.2933 H   0  0  0  0  0  0  0  0  0  0  0  0
    6.2935   -0.8022   17.3047 H   0  0  0  0  0  0  0  0  0  0  0  0
    4.5857    2.3571   11.2628 H   0  0  0  0  0  0  0  0  0  0  0  0
    3.8671    3.8078    9.3868 H   0  0  0  0  0  0  0  0  0  0  0  0
    1.3590    5.1186    8.2507 H   0  0  0  0  0  0  0  0  0  0  0  0
    0.6699    1.5888   11.9661 H   0  0  0  0  0  0  0  0  0  0  0  0
    1.0079    3.0310   12.9823 H   0  0  0  0  0  0  0  0  0  0  0  0
   -0.0379   -0.9334   13.2375 H   0  0  0  0  0  0  0  0  0  0  0  0
   -0.4177    0.2338   14.5489 H   0  0  0  0  0  0  0  0  0  0  0  0
  1  2  1  0  0  0  0
  2  3  1  0  0  0  0
  3  4  2  0  0  0  0
  3 27  1  0  0  0  0
  4  5  1  0  0  0  0
  5  6  2  0  0  0  0
  6  7  1  0  0  0  0
  7  8  2  0  0  0  0
  7 27  1  0  0  0  0
  8  9  1  0  0  0  0
  9 10  2  0  0  0  0
  9 17  1  0  0  0  0
 10 11  1  0  0  0  0
 11 12  2  0  0  0  0
 11 18  1  0  0  0  0
 12 13  1  0  0  0  0
 13 14  1  0  0  0  0
 13 17  1  0  0  0  0
 14 15  2  0  0  0  0
 15 16  1  0  0  0  0
 16 17  2  0  0  0  0
 18 19  2  0  0  0  0
 18 26  1  0  0  0  0
 19 20  1  0  0  0  0
 20 21  2  0  0  0  0
 21 22  1  0  0  0  0
 21 25  1  0  0  0  0
 22 23  2  0  0  0  0
 23 24  1  0  0  0  0
 24 25  2  0  0  0  0
 25 26  1  0  0  0  0
  1 28  1  0  0  0  0
  1 29  1  0  0  0  0
  1 30  1  0  0  0  0
  4 31  1  0  0  0  0
  5 32  1  0  0  0  0
  6 33  1  0  0  0  0
 12 34  1  0  0  0  0
 14 35  1  0  0  0  0
 15 36  1  0  0  0  0
 19 37  1  0  0  0  0
 20 38  1  0  0  0  0
 22 39  1  0  0  0  0
 26 40  1  0  0  0  0
 26 41  1  0  0  0  0
 27 42  1  0  0  0  0
 27 43  1  0  0  0  0
M  END
> <IC50[nM]>
8.5

$$$$
CHEMBL3265028
  -OEChem-05192314333D
 Structure written by MMmdl.
 43 47  0     1  0  0  0  0  0999 V2000
   -1.9509    0.6794   12.3551 C   0  0  0  0  0  0  0  0  0  0  0  0
   -2.6175   -0.2972   13.1574 O   0  0  0  0  0  0  0  0  0  0  0  0
   -1.8696   -1.0545   14.0449 C   0  0  0  0  0  0  0  0  0  0  0  0
   -2.5006   -2.0822   14.7698 C   0  0  0  0  0  0  0  0  0  0  0  0
   -1.7540   -2.8524   15.6585 C   0  0  0  0  0  0  0  0  0  0  0  0
   -0.3950   -2.6038   15.8322 C   0  0  0  0  0  0  0  0  0  0  0  0
    0.2324   -1.5851   15.1260 C   0  0  0  0  0  0  0  0  0  0  0  0
    1.6168   -1.3648   15.3699 N   0  0  0  0  0  0  0  0  0  0  0  0
    2.5420   -0.4570   14.7968 C   0  0  0  0  0  0  0  0  0  0  0  0
    2.1720    0.3831   13.7786 N   0  0  0  0  0  0  0  0  0  0  0  0
    3.1103    1.2383   13.2419 C   0  0  0  0  0  0  0  0  0  0  0  0
    4.3968    1.2792   13.7037 C   0  0  0  0  0  0  0  0  0  0  0  0
    4.7381    0.4944   14.7692 N   0  0  0  0  0  0  0  0  0  0  0  0
    5.8928    0.3893   15.4752 C   0  0  0  0  0  0  0  0  0  0  0  0
    5.6110   -0.5494   16.5068 C   0  0  0  0  0  0  0  0  0  0  0  0
    4.4002   -1.0741   16.3612 N   0  0  0  0  0  0  0  0  0  0  0  0
    3.8444   -0.3918   15.3407 C   0  0  0  0  0  0  0  0  0  0  0  0
    2.6282    2.1384   12.1226 C   0  0  3  0  0  0  0  0  0  0  0  0
    3.5442    2.6282   11.1721 C   0  0  0  0  0  0  0  0  0  0  0  0
    3.1497    3.4552   10.1130 C   0  0  0  0  0  0  0  0  0  0  0  0
    1.8035    3.8107   10.0226 C   0  0  0  0  0  0  0  0  0  0  0  0
    0.9910    4.6054    9.1269 C   0  0  0  0  0  0  0  0  0  0  0  0
   -0.2498    4.6130    9.5297 N   0  0  0  0  0  0  0  0  0  0  0  0
   -0.3276    3.8827   10.6287 N   0  0  0  0  0  0  0  0  0  0  0  0
    0.8922    3.3455   10.9868 C   0  0  0  0  0  0  0  0  0  0  0  0
    1.2628    2.5119   12.0466 C   0  0  0  0  0  0  0  0  0  0  0  0
   -0.5121   -0.8124   14.2226 C   0  0  0  0  0  0  0  0  0  0  0  0
   -2.6836    1.1877   11.7110 H   0  0  0  0  0  0  0  0  0  0  0  0
   -1.4618    1.4178   13.0075 H   0  0  0  0  0  0  0  0  0  0  0  0
   -1.1937    0.1846   11.7292 H   0  0  0  0  0  0  0  0  0  0  0  0
   -3.3078   -1.6140   15.3522 H   0  0  0  0  0  0  0  0  0  0  0  0
   -2.9341   -2.7741   14.0327 H   0  0  0  0  0  0  0  0  0  0  0  0
   -2.2311   -3.6455   16.2150 H   0  0  0  0  0  0  0  0  0  0  0  0
    0.1761   -3.2079   16.5216 H   0  0  0  0  0  0  0  0  0  0  0  0
    5.1294    1.9197   13.2352 H   0  0  0  0  0  0  0  0  0  0  0  0
    6.8235    0.9061   15.2933 H   0  0  0  0  0  0  0  0  0  0  0  0
    6.2935   -0.8022   17.3047 H   0  0  0  0  0  0  0  0  0  0  0  0
    2.4309    1.2596   11.4911 H   0  0  0  0  0  0  0  0  0  0  0  0
    4.5857    2.3571   11.2628 H   0  0  0  0  0  0  0  0  0  0  0  0
    3.8671    3.8078    9.3868 H   0  0  0  0  0  0  0  0  0  0  0  0
    1.3590    5.1186    8.2507 H   0  0  0  0  0  0  0  0  0  0  0  0
    0.5419    2.1684   12.7738 H   0  0  0  0  0  0  0  0  0  0  0  0
   -0.0286   -0.0257   13.6625 H   0  0  0  0  0  0  0  0  0  0  0  0
  1  2  1  0  0  0  0
  2  3  1  0  0  0  0
  3  4  1  0  0  0  0
  3 27  2  0  0  0  0
  4  5  1  0  0  0  0
  5  6  2  0  0  0  0
  6  7  1  0  0  0  0
  7  8  2  0  0  0  0
  7 27  1  0  0  0  0
  8  9  1  0  0  0  0
  9 10  2  0  0  0  0
  9 17  1  0  0  0  0
 10 11  1  0  0  0  0
 11 12  2  0  0  0  0
 11 18  1  0  0  0  0
 12 13  1  0  0  0  0
 13 14  1  0  0  0  0
 13 17  1  0  0  0  0
 14 15  2  0  0  0  0
 15 16  1  0  0  0  0
 16 17  2  0  0  0  0
 18 19  1  0  0  0  0
 18 26  1  0  0  0  0
 19 20  2  0  0  0  0
 20 21  1  0  0  0  0
 21 22  2  0  0  0  0
 21 25  1  0  0  0  0
 22 23  1  0  0  0  0
 23 24  2  0  0  0  0
 24 25  1  0  0  0  0
 25 26  2  0  0  0  0
  1 28  1  0  0  0  0
  1 29  1  0  0  0  0
  1 30  1  0  0  0  0
  4 31  1  0  0  0  0
  4 32  1  0  0  0  0
  5 33  1  0  0  0  0
  6 34  1  0  0  0  0
 12 35  1  0  0  0  0
 14 36  1  0  0  0  0
 15 37  1  0  0  0  0
 18 38  1  0  0  0  0
 19 39  1  0  0  0  0
 20 40  1  0  0  0  0
 22 41  1  0  0  0  0
 26 42  1  0  0  0  0
 27 43  1  0  0  0  0
M  END
> <IC50[nM]>
8.5

$$$$
CHEMBL3265028
  -OEChem-05192314333D
 Structure written by MMmdl.
 43 47  0     1  0  0  0  0  0999 V2000
   -1.9509    0.6794   12.3551 C   0  0  0  0  0  0  0  0  0  0  0  0
   -2.6175   -0.2972   13.1574 O   0  0  0  0  0  0  0  0  0  0  0  0
   -1.8696   -1.0545   14.0449 C   0  0  0  0  0  0  0  0  0  0  0  0
   -2.5006   -2.0822   14.7698 C   0  0  0  0  0  0  0  0  0  0  0  0
   -1.7540   -2.8524   15.6585 C   0  0  0  0  0  0  0  0  0  0  0  0
   -0.3950   -2.6038   15.8322 C   0  0  0  0  0  0  0  0  0  0  0  0
    0.2324   -1.5851   15.1260 C   0  0  0  0  0  0  0  0  0  0  0  0
    1.6168   -1.3648   15.3699 N   0  0  0  0  0  0  0  0  0  0  0  0
    2.5420   -0.4570   14.7968 C   0  0  0  0  0  0  0  0  0  0  0  0
    2.1720    0.3831   13.7786 N   0  0  0  0  0  0  0  0  0  0  0  0
    3.1103    1.2383   13.2419 C   0  0  0  0  0  0  0  0  0  0  0  0
    4.3968    1.2792   13.7037 C   0  0  0  0  0  0  0  0  0  0  0  0
    4.7381    0.4944   14.7692 N   0  0  0  0  0  0  0  0  0  0  0  0
    5.8928    0.3893   15.4752 C   0  0  0  0  0  0  0  0  0  0  0  0
    5.6110   -0.5494   16.5068 C   0  0  0  0  0  0  0  0  0  0  0  0
    4.4002   -1.0741   16.3612 N   0  0  0  0  0  0  0  0  0  0  0  0
    3.8444   -0.3918   15.3407 C   0  0  0  0  0  0  0  0  0  0  0  0
    2.6282    2.1384   12.1226 C   0  0  0  0  0  0  0  0  0  0  0  0
    3.5442    2.6282   11.1721 C   0  0  0  0  0  0  0  0  0  0  0  0
    3.1497    3.4552   10.1130 C   0  0  0  0  0  0  0  0  0  0  0  0
    1.8035    3.8107   10.0226 C   0  0  0  0  0  0  0  0  0  0  0  0
    0.9910    4.6054    9.1269 C   0  0  0  0  0  0  0  0  0  0  0  0
   -0.2498    4.6130    9.5297 N   0  0  0  0  0  0  0  0  0  0  0  0
   -0.3276    3.8827   10.6287 N   0  0  0  0  0  0  0  0  0  0  0  0
    0.8922    3.3455   10.9868 C   0  0  3  0  0  0  0  0  0  0  0  0
    1.2628    2.5119   12.0466 C   0  0  0  0  0  0  0  0  0  0  0  0
   -0.5121   -0.8124   14.2226 C   0  0  0  0  0  0  0  0  0  0  0  0
   -2.6836    1.1877   11.7110 H   0  0  0  0  0  0  0  0  0  0  0  0
   -1.4618    1.4178   13.0075 H   0  0  0  0  0  0  0  0  0  0  0  0
   -1.1937    0.1846   11.7292 H   0  0  0  0  0  0  0  0  0  0  0  0
   -3.3078   -1.6140   15.3522 H   0  0  0  0  0  0  0  0  0  0  0  0
   -2.9341   -2.7741   14.0327 H   0  0  0  0  0  0  0  0  0  0  0  0
   -2.2311   -3.6455   16.2150 H   0  0  0  0  0  0  0  0  0  0  0  0
    0.1761   -3.2079   16.5216 H   0  0  0  0  0  0  0  0  0  0  0  0
    5.1294    1.9197   13.2352 H   0  0  0  0  0  0  0  0  0  0  0  0
    6.8235    0.9061   15.2933 H   0  0  0  0  0  0  0  0  0  0  0  0
    6.2935   -0.8022   17.3047 H   0  0  0  0  0  0  0  0  0  0  0  0
    4.5857    2.3571   11.2628 H   0  0  0  0  0  0  0  0  0  0  0  0
    3.8671    3.8078    9.3868 H   0  0  0  0  0  0  0  0  0  0  0  0
    1.3590    5.1186    8.2507 H   0  0  0  0  0  0  0  0  0  0  0  0
    1.0990    4.2288   11.6089 H   0  0  0  0  0  0  0  0  0  0  0  0
    0.5419    2.1684   12.7738 H   0  0  0  0  0  0  0  0  0  0  0  0
   -0.0286   -0.0257   13.6625 H   0  0  0  0  0  0  0  0  0  0  0  0
  1  2  1  0  0  0  0
  2  3  1  0  0  0  0
  3  4  1  0  0  0  0
  3 27  2  0  0  0  0
  4  5  1  0  0  0  0
  5  6  2  0  0  0  0
  6  7  1  0  0  0  0
  7  8  2  0  0  0  0
  7 27  1  0  0  0  0
  8  9  1  0  0  0  0
  9 10  2  0  0  0  0
  9 17  1  0  0  0  0
 10 11  1  0  0  0  0
 11 12  2  0  0  0  0
 11 18  1  0  0  0  0
 12 13  1  0  0  0  0
 13 14  1  0  0  0  0
 13 17  1  0  0  0  0
 14 15  2  0  0  0  0
 15 16  1  0  0  0  0
 16 17  2  0  0  0  0
 18 19  1  0  0  0  0
 18 26  2  0  0  0  0
 19 20  2  0  0  0  0
 20 21  1  0  0  0  0
 21 22  2  0  0  0  0
 21 25  1  0  0  0  0
 22 23  1  0  0  0  0
 23 24  2  0  0  0  0
 24 25  1  0  0  0  0
 25 26  1  0  0  0  0
  1 28  1  0  0  0  0
  1 29  1  0  0  0  0
  1 30  1  0  0  0  0
  4 31  1  0  0  0  0
  4 32  1  0  0  0  0
  5 33  1  0  0  0  0
  6 34  1  0  0  0  0
 12 35  1  0  0  0  0
 14 36  1  0  0  0  0
 15 37  1  0  0  0  0
 19 38  1  0  0  0  0
 20 39  1  0  0  0  0
 22 40  1  0  0  0  0
 25 41  1  0  0  0  0
 26 42  1  0  0  0  0
 27 43  1  0  0  0  0
M  END
> <IC50[nM]>
8.5

$$$$
CHEMBL3265028
  -OEChem-05192314333D
 Structure written by MMmdl.
 43 47  0     1  0  0  0  0  0999 V2000
   -1.9509    0.6794   12.3551 C   0  0  0  0  0  0  0  0  0  0  0  0
   -2.6175   -0.2972   13.1574 O   0  0  0  0  0  0  0  0  0  0  0  0
   -1.8696   -1.0545   14.0449 C   0  0  0  0  0  0  0  0  0  0  0  0
   -2.5006   -2.0822   14.7698 C   0  0  0  0  0  0  0  0  0  0  0  0
   -1.7540   -2.8524   15.6585 C   0  0  0  0  0  0  0  0  0  0  0  0
   -0.3950   -2.6038   15.8322 C   0  0  0  0  0  0  0  0  0  0  0  0
    0.2324   -1.5851   15.1260 C   0  0  0  0  0  0  0  0  0  0  0  0
    1.6168   -1.3648   15.3699 N   0  0  0  0  0  0  0  0  0  0  0  0
    2.5420   -0.4570   14.7968 C   0  0  0  0  0  0  0  0  0  0  0  0
    2.1720    0.3831   13.7786 N   0  0  0  0  0  0  0  0  0  0  0  0
    3.1103    1.2383   13.2419 C   0  0  0  0  0  0  0  0  0  0  0  0
    4.3968    1.2792   13.7037 C   0  0  0  0  0  0  0  0  0  0  0  0
    4.7381    0.4944   14.7692 N   0  0  0  0  0  0  0  0  0  0  0  0
    5.8928    0.3893   15.4752 C   0  0  0  0  0  0  0  0  0  0  0  0
    5.6110   -0.5494   16.5068 C   0  0  0  0  0  0  0  0  0  0  0  0
    4.4002   -1.0741   16.3612 N   0  0  0  0  0  0  0  0  0  0  0  0
    3.8444   -0.3918   15.3407 C   0  0  0  0  0  0  0  0  0  0  0  0
    2.6282    2.1384   12.1226 C   0  0  3  0  0  0  0  0  0  0  0  0
    3.5442    2.6282   11.1721 C   0  0  0  0  0  0  0  0  0  0  0  0
    3.1497    3.4552   10.1130 C   0  0  0  0  0  0  0  0  0  0  0  0
    1.8035    3.8107   10.0226 C   0  0  0  0  0  0  0  0  0  0  0  0
    0.9910    4.6054    9.1269 C   0  0  0  0  0  0  0  0  0  0  0  0
   -0.2498    4.6130    9.5297 N   0  0  0  0  0  0  0  0  0  0  0  0
   -0.3276    3.8827   10.6287 N   0  0  0  0  0  0  0  0  0  0  0  0
    0.8922    3.3455   10.9868 C   0  0  0  0  0  0  0  0  0  0  0  0
    1.2628    2.5119   12.0466 C   0  0  0  0  0  0  0  0  0  0  0  0
   -0.5121   -0.8124   14.2226 C   0  0  0  0  0  0  0  0  0  0  0  0
   -2.6836    1.1877   11.7110 H   0  0  0  0  0  0  0  0  0  0  0  0
   -1.4618    1.4178   13.0075 H   0  0  0  0  0  0  0  0  0  0  0  0
   -1.1937    0.1846   11.7292 H   0  0  0  0  0  0  0  0  0  0  0  0
   -3.5555   -2.2724   14.6382 H   0  0  0  0  0  0  0  0  0  0  0  0
   -2.2311   -3.6455   16.2150 H   0  0  0  0  0  0  0  0  0  0  0  0
   -0.2492   -2.3829   16.8999 H   0  0  0  0  0  0  0  0  0  0  0  0
    0.1309   -3.5352   15.5753 H   0  0  0  0  0  0  0  0  0  0  0  0
    5.1294    1.9197   13.2352 H   0  0  0  0  0  0  0  0  0  0  0  0
    6.8235    0.9061   15.2933 H   0  0  0  0  0  0  0  0  0  0  0  0
    6.2935   -0.8022   17.3047 H   0  0  0  0  0  0  0  0  0  0  0  0
    2.4309    1.2596   11.4911 H   0  0  0  0  0  0  0  0  0  0  0  0
    4.5857    2.3571   11.2628 H   0  0  0  0  0  0  0  0  0  0  0  0
    3.8671    3.8078    9.3868 H   0  0  0  0  0  0  0  0  0  0  0  0
    1.3590    5.1186    8.2507 H   0  0  0  0  0  0  0  0  0  0  0  0
    0.5419    2.1684   12.7738 H   0  0  0  0  0  0  0  0  0  0  0  0
   -0.0286   -0.0257   13.6625 H   0  0  0  0  0  0  0  0  0  0  0  0
  1  2  1  0  0  0  0
  2  3  1  0  0  0  0
  3  4  1  0  0  0  0
  3 27  2  0  0  0  0
  4  5  2  0  0  0  0
  5  6  1  0  0  0  0
  6  7  1  0  0  0  0
  7  8  2  0  0  0  0
  7 27  1  0  0  0  0
  8  9  1  0  0  0  0
  9 10  2  0  0  0  0
  9 17  1  0  0  0  0
 10 11  1  0  0  0  0
 11 12  2  0  0  0  0
 11 18  1  0  0  0  0
 12 13  1  0  0  0  0
 13 14  1  0  0  0  0
 13 17  1  0  0  0  0
 14 15  2  0  0  0  0
 15 16  1  0  0  0  0
 16 17  2  0  0  0  0
 18 19  1  0  0  0  0
 18 26  1  0  0  0  0
 19 20  2  0  0  0  0
 20 21  1  0  0  0  0
 21 22  2  0  0  0  0
 21 25  1  0  0  0  0
 22 23  1  0  0  0  0
 23 24  2  0  0  0  0
 24 25  1  0  0  0  0
 25 26  2  0  0  0  0
  1 28  1  0  0  0  0
  1 29  1  0  0  0  0
  1 30  1  0  0  0  0
  4 31  1  0  0  0  0
  5 32  1  0  0  0  0
  6 33  1  0  0  0  0
  6 34  1  0  0  0  0
 12 35  1  0  0  0  0
 14 36  1  0  0  0  0
 15 37  1  0  0  0  0
 18 38  1  0  0  0  0
 19 39  1  0  0  0  0
 20 40  1  0  0  0  0
 22 41  1  0  0  0  0
 26 42  1  0  0  0  0
 27 43  1  0  0  0  0
M  END
> <IC50[nM]>
8.5

$$$$
CHEMBL3265028
  -OEChem-05192314333D
 Structure written by MMmdl.
 43 47  0     1  0  0  0  0  0999 V2000
   -1.9509    0.6794   12.3551 C   0  0  0  0  0  0  0  0  0  0  0  0
   -2.6175   -0.2972   13.1574 O   0  0  0  0  0  0  0  0  0  0  0  0
   -1.8696   -1.0545   14.0449 C   0  0  0  0  0  0  0  0  0  0  0  0
   -2.5006   -2.0822   14.7698 C   0  0  0  0  0  0  0  0  0  0  0  0
   -1.7540   -2.8524   15.6585 C   0  0  0  0  0  0  0  0  0  0  0  0
   -0.3950   -2.6038   15.8322 C   0  0  0  0  0  0  0  0  0  0  0  0
    0.2324   -1.5851   15.1260 C   0  0  0  0  0  0  0  0  0  0  0  0
    1.6168   -1.3648   15.3699 N   0  0  0  0  0  0  0  0  0  0  0  0
    2.5420   -0.4570   14.7968 C   0  0  0  0  0  0  0  0  0  0  0  0
    2.1720    0.3831   13.7786 N   0  0  0  0  0  0  0  0  0  0  0  0
    3.1103    1.2383   13.2419 C   0  0  0  0  0  0  0  0  0  0  0  0
    4.3968    1.2792   13.7037 C   0  0  0  0  0  0  0  0  0  0  0  0
    4.7381    0.4944   14.7692 N   0  0  0  0  0  0  0  0  0  0  0  0
    5.8928    0.3893   15.4752 C   0  0  0  0  0  0  0  0  0  0  0  0
    5.6110   -0.5494   16.5068 C   0  0  0  0  0  0  0  0  0  0  0  0
    4.4002   -1.0741   16.3612 N   0  0  0  0  0  0  0  0  0  0  0  0
    3.8444   -0.3918   15.3407 C   0  0  0  0  0  0  0  0  0  0  0  0
    2.6282    2.1384   12.1226 C   0  0  0  0  0  0  0  0  0  0  0  0
    3.5442    2.6282   11.1721 C   0  0  0  0  0  0  0  0  0  0  0  0
    3.1497    3.4552   10.1130 C   0  0  0  0  0  0  0  0  0  0  0  0
    1.8035    3.8107   10.0226 C   0  0  0  0  0  0  0  0  0  0  0  0
    0.9910    4.6054    9.1269 C   0  0  0  0  0  0  0  0  0  0  0  0
   -0.2498    4.6130    9.5297 N   0  0  0  0  0  0  0  0  0  0  0  0
   -0.3276    3.8827   10.6287 N   0  0  0  0  0  0  0  0  0  0  0  0
    0.8922    3.3455   10.9868 C   0  0  3  0  0  0  0  0  0  0  0  0
    1.2628    2.5119   12.0466 C   0  0  0  0  0  0  0  0  0  0  0  0
   -0.5121   -0.8124   14.2226 C   0  0  0  0  0  0  0  0  0  0  0  0
   -2.6836    1.1877   11.7110 H   0  0  0  0  0  0  0  0  0  0  0  0
   -1.4618    1.4178   13.0075 H   0  0  0  0  0  0  0  0  0  0  0  0
   -1.1937    0.1846   11.7292 H   0  0  0  0  0  0  0  0  0  0  0  0
   -3.5555   -2.2724   14.6382 H   0  0  0  0  0  0  0  0  0  0  0  0
   -2.2311   -3.6455   16.2150 H   0  0  0  0  0  0  0  0  0  0  0  0
   -0.2492   -2.3829   16.8999 H   0  0  0  0  0  0  0  0  0  0  0  0
    0.1309   -3.5352   15.5753 H   0  0  0  0  0  0  0  0  0  0  0  0
    5.1294    1.9197   13.2352 H   0  0  0  0  0  0  0  0  0  0  0  0
    6.8235    0.9061   15.2933 H   0  0  0  0  0  0  0  0  0  0  0  0
    6.2935   -0.8022   17.3047 H   0  0  0  0  0  0  0  0  0  0  0  0
    4.5857    2.3571   11.2628 H   0  0  0  0  0  0  0  0  0  0  0  0
    3.8671    3.8078    9.3868 H   0  0  0  0  0  0  0  0  0  0  0  0
    1.3590    5.1186    8.2507 H   0  0  0  0  0  0  0  0  0  0  0  0
    1.0990    4.2288   11.6089 H   0  0  0  0  0  0  0  0  0  0  0  0
    0.5419    2.1684   12.7738 H   0  0  0  0  0  0  0  0  0  0  0  0
   -0.0286   -0.0257   13.6625 H   0  0  0  0  0  0  0  0  0  0  0  0
  1  2  1  0  0  0  0
  2  3  1  0  0  0  0
  3  4  1  0  0  0  0
  3 27  2  0  0  0  0
  4  5  2  0  0  0  0
  5  6  1  0  0  0  0
  6  7  1  0  0  0  0
  7  8  2  0  0  0  0
  7 27  1  0  0  0  0
  8  9  1  0  0  0  0
  9 10  2  0  0  0  0
  9 17  1  0  0  0  0
 10 11  1  0  0  0  0
 11 12  2  0  0  0  0
 11 18  1  0  0  0  0
 12 13  1  0  0  0  0
 13 14  1  0  0  0  0
 13 17  1  0  0  0  0
 14 15  2  0  0  0  0
 15 16  1  0  0  0  0
 16 17  2  0  0  0  0
 18 19  1  0  0  0  0
 18 26  2  0  0  0  0
 19 20  2  0  0  0  0
 20 21  1  0  0  0  0
 21 22  2  0  0  0  0
 21 25  1  0  0  0  0
 22 23  1  0  0  0  0
 23 24  2  0  0  0  0
 24 25  1  0  0  0  0
 25 26  1  0  0  0  0
  1 28  1  0  0  0  0
  1 29  1  0  0  0  0
  1 30  1  0  0  0  0
  4 31  1  0  0  0  0
  5 32  1  0  0  0  0
  6 33  1  0  0  0  0
  6 34  1  0  0  0  0
 12 35  1  0  0  0  0
 14 36  1  0  0  0  0
 15 37  1  0  0  0  0
 19 38  1  0  0  0  0
 20 39  1  0  0  0  0
 22 40  1  0  0  0  0
 25 41  1  0  0  0  0
 26 42  1  0  0  0  0
 27 43  1  0  0  0  0
M  END
> <IC50[nM]>
8.5

$$$$
CHEMBL3265028
  -OEChem-05192314333D
 Structure written by MMmdl.
 43 47  0     0  0  0  0  0  0999 V2000
   -1.9509    0.6794   12.3551 C   0  0  0  0  0  0  0  0  0  0  0  0
   -2.6175   -0.2972   13.1574 O   0  0  0  0  0  0  0  0  0  0  0  0
   -1.8696   -1.0545   14.0449 C   0  0  0  0  0  0  0  0  0  0  0  0
   -2.5006   -2.0822   14.7698 C   0  0  0  0  0  0  0  0  0  0  0  0
   -1.7540   -2.8524   15.6585 C   0  0  0  0  0  0  0  0  0  0  0  0
   -0.3950   -2.6038   15.8322 C   0  0  0  0  0  0  0  0  0  0  0  0
    0.2324   -1.5851   15.1260 C   0  0  0  0  0  0  0  0  0  0  0  0
    1.6168   -1.3648   15.3699 N   0  0  0  0  0  0  0  0  0  0  0  0
    2.5420   -0.4570   14.7968 C   0  0  0  0  0  0  0  0  0  0  0  0
    2.1720    0.3831   13.7786 N   0  0  0  0  0  0  0  0  0  0  0  0
    3.1103    1.2383   13.2419 C   0  0  0  0  0  0  0  0  0  0  0  0
    4.3968    1.2792   13.7037 C   0  0  0  0  0  0  0  0  0  0  0  0
    4.7381    0.4944   14.7692 N   0  0  0  0  0  0  0  0  0  0  0  0
    5.8928    0.3893   15.4752 C   0  0  0  0  0  0  0  0  0  0  0  0
    5.6110   -0.5494   16.5068 C   0  0  0  0  0  0  0  0  0  0  0  0
    4.4002   -1.0741   16.3612 N   0  0  0  0  0  0  0  0  0  0  0  0
    3.8444   -0.3918   15.3407 C   0  0  0  0  0  0  0  0  0  0  0  0
    2.6282    2.1384   12.1226 C   0  0  0  0  0  0  0  0  0  0  0  0
    3.5442    2.6282   11.1721 C   0  0  0  0  0  0  0  0  0  0  0  0
    3.1497    3.4552   10.1130 C   0  0  0  0  0  0  0  0  0  0  0  0
    1.8035    3.8107   10.0226 C   0  0  0  0  0  0  0  0  0  0  0  0
    0.9910    4.6054    9.1269 C   0  0  0  0  0  0  0  0  0  0  0  0
   -0.2498    4.6130    9.5297 N   0  0  0  0  0  0  0  0  0  0  0  0
   -0.3276    3.8827   10.6287 N   0  0  0  0  0  0  0  0  0  0  0  0
    0.8922    3.3455   10.9868 C   0  0  0  0  0  0  0  0  0  0  0  0
    1.2628    2.5119   12.0466 C   0  0  0  0  0  0  0  0  0  0  0  0
   -0.5121   -0.8124   14.2226 C   0  0  0  0  0  0  0  0  0  0  0  0
   -2.6836    1.1877   11.7110 H   0  0  0  0  0  0  0  0  0  0  0  0
   -1.4618    1.4178   13.0075 H   0  0  0  0  0  0  0  0  0  0  0  0
   -1.1937    0.1846   11.7292 H   0  0  0  0  0  0  0  0  0  0  0  0
   -3.3078   -1.6140   15.3522 H   0  0  0  0  0  0  0  0  0  0  0  0
   -2.9341   -2.7741   14.0327 H   0  0  0  0  0  0  0  0  0  0  0  0
   -2.2311   -3.6455   16.2150 H   0  0  0  0  0  0  0  0  0  0  0  0
    0.1761   -3.2079   16.5216 H   0  0  0  0  0  0  0  0  0  0  0  0
    5.1294    1.9197   13.2352 H   0  0  0  0  0  0  0  0  0  0  0  0
    6.8235    0.9061   15.2933 H   0  0  0  0  0  0  0  0  0  0  0  0
    6.2935   -0.8022   17.3047 H   0  0  0  0  0  0  0  0  0  0  0  0
    4.5857    2.3571   11.2628 H   0  0  0  0  0  0  0  0  0  0  0  0
    3.7288    4.3870   10.1931 H   0  0  0  0  0  0  0  0  0  0  0  0
    3.4143    2.9381    9.1789 H   0  0  0  0  0  0  0  0  0  0  0  0
    1.3590    5.1186    8.2507 H   0  0  0  0  0  0  0  0  0  0  0  0
    0.5419    2.1684   12.7738 H   0  0  0  0  0  0  0  0  0  0  0  0
   -0.0286   -0.0257   13.6625 H   0  0  0  0  0  0  0  0  0  0  0  0
  1  2  1  0  0  0  0
  2  3  1  0  0  0  0
  3  4  1  0  0  0  0
  3 27  2  0  0  0  0
  4  5  1  0  0  0  0
  5  6  2  0  0  0  0
  6  7  1  0  0  0  0
  7  8  2  0  0  0  0
  7 27  1  0  0  0  0
  8  9  1  0  0  0  0
  9 10  2  0  0  0  0
  9 17  1  0  0  0  0
 10 11  1  0  0  0  0
 11 12  2  0  0  0  0
 11 18  1  0  0  0  0
 12 13  1  0  0  0  0
 13 14  1  0  0  0  0
 13 17  1  0  0  0  0
 14 15  2  0  0  0  0
 15 16  1  0  0  0  0
 16 17  2  0  0  0  0
 18 19  2  0  0  0  0
 18 26  1  0  0  0  0
 19 20  1  0  0  0  0
 20 21  1  0  0  0  0
 21 22  2  0  0  0  0
 21 25  1  0  0  0  0
 22 23  1  0  0  0  0
 23 24  2  0  0  0  0
 24 25  1  0  0  0  0
 25 26  2  0  0  0  0
  1 28  1  0  0  0  0
  1 29  1  0  0  0  0
  1 30  1  0  0  0  0
  4 31  1  0  0  0  0
  4 32  1  0  0  0  0
  5 33  1  0  0  0  0
  6 34  1  0  0  0  0
 12 35  1  0  0  0  0
 14 36  1  0  0  0  0
 15 37  1  0  0  0  0
 19 38  1  0  0  0  0
 20 39  1  0  0  0  0
 20 40  1  0  0  0  0
 22 41  1  0  0  0  0
 26 42  1  0  0  0  0
 27 43  1  0  0  0  0
M  END
> <IC50[nM]>
8.5

$$$$
CHEMBL3265028
  -OEChem-05192314333D
 Structure written by MMmdl.
 43 47  0     0  0  0  0  0  0999 V2000
   -1.9509    0.6794   12.3551 C   0  0  0  0  0  0  0  0  0  0  0  0
   -2.6175   -0.2972   13.1574 O   0  0  0  0  0  0  0  0  0  0  0  0
   -1.8696   -1.0545   14.0449 C   0  0  0  0  0  0  0  0  0  0  0  0
   -2.5006   -2.0822   14.7698 C   0  0  0  0  0  0  0  0  0  0  0  0
   -1.7540   -2.8524   15.6585 C   0  0  0  0  0  0  0  0  0  0  0  0
   -0.3950   -2.6038   15.8322 C   0  0  0  0  0  0  0  0  0  0  0  0
    0.2324   -1.5851   15.1260 C   0  0  0  0  0  0  0  0  0  0  0  0
    1.6168   -1.3648   15.3699 N   0  0  0  0  0  0  0  0  0  0  0  0
    2.5420   -0.4570   14.7968 C   0  0  0  0  0  0  0  0  0  0  0  0
    2.1720    0.3831   13.7786 N   0  0  0  0  0  0  0  0  0  0  0  0
    3.1103    1.2383   13.2419 C   0  0  0  0  0  0  0  0  0  0  0  0
    4.3968    1.2792   13.7037 C   0  0  0  0  0  0  0  0  0  0  0  0
    4.7381    0.4944   14.7692 N   0  0  0  0  0  0  0  0  0  0  0  0
    5.8928    0.3893   15.4752 C   0  0  0  0  0  0  0  0  0  0  0  0
    5.6110   -0.5494   16.5068 C   0  0  0  0  0  0  0  0  0  0  0  0
    4.4002   -1.0741   16.3612 N   0  0  0  0  0  0  0  0  0  0  0  0
    3.8444   -0.3918   15.3407 C   0  0  0  0  0  0  0  0  0  0  0  0
    2.6282    2.1384   12.1226 C   0  0  0  0  0  0  0  0  0  0  0  0
    3.5442    2.6282   11.1721 C   0  0  0  0  0  0  0  0  0  0  0  0
    3.1497    3.4552   10.1130 C   0  0  0  0  0  0  0  0  0  0  0  0
    1.8035    3.8107   10.0226 C   0  0  0  0  0  0  0  0  0  0  0  0
    0.9910    4.6054    9.1269 C   0  0  0  0  0  0  0  0  0  0  0  0
   -0.2498    4.6130    9.5297 N   0  0  0  0  0  0  0  0  0  0  0  0
   -0.3276    3.8827   10.6287 N   0  0  0  0  0  0  0  0  0  0  0  0
    0.8922    3.3455   10.9868 C   0  0  0  0  0  0  0  0  0  0  0  0
    1.2628    2.5119   12.0466 C   0  0  0  0  0  0  0  0  0  0  0  0
   -0.5121   -0.8124   14.2226 C   0  0  0  0  0  0  0  0  0  0  0  0
   -2.6836    1.1877   11.7110 H   0  0  0  0  0  0  0  0  0  0  0  0
   -1.4618    1.4178   13.0075 H   0  0  0  0  0  0  0  0  0  0  0  0
   -1.1937    0.1846   11.7292 H   0  0  0  0  0  0  0  0  0  0  0  0
   -3.5555   -2.2724   14.6382 H   0  0  0  0  0  0  0  0  0  0  0  0
   -2.2311   -3.6455   16.2150 H   0  0  0  0  0  0  0  0  0  0  0  0
   -0.2492   -2.3829   16.8999 H   0  0  0  0  0  0  0  0  0  0  0  0
    0.1309   -3.5352   15.5753 H   0  0  0  0  0  0  0  0  0  0  0  0
    5.1294    1.9197   13.2352 H   0  0  0  0  0  0  0  0  0  0  0  0
    6.8235    0.9061   15.2933 H   0  0  0  0  0  0  0  0  0  0  0  0
    6.2935   -0.8022   17.3047 H   0  0  0  0  0  0  0  0  0  0  0  0
    4.5857    2.3571   11.2628 H   0  0  0  0  0  0  0  0  0  0  0  0
    3.7288    4.3870   10.1931 H   0  0  0  0  0  0  0  0  0  0  0  0
    3.4143    2.9381    9.1789 H   0  0  0  0  0  0  0  0  0  0  0  0
    1.3590    5.1186    8.2507 H   0  0  0  0  0  0  0  0  0  0  0  0
    0.5419    2.1684   12.7738 H   0  0  0  0  0  0  0  0  0  0  0  0
   -0.0286   -0.0257   13.6625 H   0  0  0  0  0  0  0  0  0  0  0  0
  1  2  1  0  0  0  0
  2  3  1  0  0  0  0
  3  4  1  0  0  0  0
  3 27  2  0  0  0  0
  4  5  2  0  0  0  0
  5  6  1  0  0  0  0
  6  7  1  0  0  0  0
  7  8  2  0  0  0  0
  7 27  1  0  0  0  0
  8  9  1  0  0  0  0
  9 10  2  0  0  0  0
  9 17  1  0  0  0  0
 10 11  1  0  0  0  0
 11 12  2  0  0  0  0
 11 18  1  0  0  0  0
 12 13  1  0  0  0  0
 13 14  1  0  0  0  0
 13 17  1  0  0  0  0
 14 15  2  0  0  0  0
 15 16  1  0  0  0  0
 16 17  2  0  0  0  0
 18 19  2  0  0  0  0
 18 26  1  0  0  0  0
 19 20  1  0  0  0  0
 20 21  1  0  0  0  0
 21 22  2  0  0  0  0
 21 25  1  0  0  0  0
 22 23  1  0  0  0  0
 23 24  2  0  0  0  0
 24 25  1  0  0  0  0
 25 26  2  0  0  0  0
  1 28  1  0  0  0  0
  1 29  1  0  0  0  0
  1 30  1  0  0  0  0
  4 31  1  0  0  0  0
  5 32  1  0  0  0  0
  6 33  1  0  0  0  0
  6 34  1  0  0  0  0
 12 35  1  0  0  0  0
 14 36  1  0  0  0  0
 15 37  1  0  0  0  0
 19 38  1  0  0  0  0
 20 39  1  0  0  0  0
 20 40  1  0  0  0  0
 22 41  1  0  0  0  0
 26 42  1  0  0  0  0
 27 43  1  0  0  0  0
M  END
> <IC50[nM]>
8.5

$$$$
CHEMBL3265028
  -OEChem-05192314333D
 Structure written by MMmdl.
 43 47  0     1  0  0  0  0  0999 V2000
   -1.9509    0.6794   12.3551 C   0  0  0  0  0  0  0  0  0  0  0  0
   -2.6175   -0.2972   13.1574 O   0  0  0  0  0  0  0  0  0  0  0  0
   -1.8696   -1.0545   14.0449 C   0  0  0  0  0  0  0  0  0  0  0  0
   -2.5006   -2.0822   14.7698 C   0  0  0  0  0  0  0  0  0  0  0  0
   -1.7540   -2.8524   15.6585 C   0  0  0  0  0  0  0  0  0  0  0  0
   -0.3950   -2.6038   15.8322 C   0  0  0  0  0  0  0  0  0  0  0  0
    0.2324   -1.5851   15.1260 C   0  0  0  0  0  0  0  0  0  0  0  0
    1.6168   -1.3648   15.3699 N   0  0  0  0  0  0  0  0  0  0  0  0
    2.5420   -0.4570   14.7968 C   0  0  0  0  0  0  0  0  0  0  0  0
    2.1720    0.3831   13.7786 N   0  0  0  0  0  0  0  0  0  0  0  0
    3.1103    1.2383   13.2419 C   0  0  0  0  0  0  0  0  0  0  0  0
    4.3968    1.2792   13.7037 C   0  0  0  0  0  0  0  0  0  0  0  0
    4.7381    0.4944   14.7692 N   0  0  0  0  0  0  0  0  0  0  0  0
    5.8928    0.3893   15.4752 C   0  0  0  0  0  0  0  0  0  0  0  0
    5.6110   -0.5494   16.5068 C   0  0  0  0  0  0  0  0  0  0  0  0
    4.4002   -1.0741   16.3612 N   0  0  0  0  0  0  0  0  0  0  0  0
    3.8444   -0.3918   15.3407 C   0  0  0  0  0  0  0  0  0  0  0  0
    2.6282    2.1384   12.1226 C   0  0  3  0  0  0  0  0  0  0  0  0
    3.5442    2.6282   11.1721 C   0  0  0  0  0  0  0  0  0  0  0  0
    3.1497    3.4552   10.1130 C   0  0  0  0  0  0  0  0  0  0  0  0
    1.8035    3.8107   10.0226 C   0  0  0  0  0  0  0  0  0  0  0  0
    0.9910    4.6054    9.1269 C   0  0  0  0  0  0  0  0  0  0  0  0
   -0.2498    4.6130    9.5297 N   0  0  0  0  0  0  0  0  0  0  0  0
   -0.3276    3.8827   10.6287 N   0  0  0  0  0  0  0  0  0  0  0  0
    0.8922    3.3455   10.9868 C   0  0  0  0  0  0  0  0  0  0  0  0
    1.2628    2.5119   12.0466 C   0  0  0  0  0  0  0  0  0  0  0  0
   -0.5121   -0.8124   14.2226 C   0  0  0  0  0  0  0  0  0  0  0  0
   -2.6836    1.1877   11.7110 H   0  0  0  0  0  0  0  0  0  0  0  0
   -1.4618    1.4178   13.0075 H   0  0  0  0  0  0  0  0  0  0  0  0
   -1.1937    0.1846   11.7292 H   0  0  0  0  0  0  0  0  0  0  0  0
   -3.5555   -2.2724   14.6382 H   0  0  0  0  0  0  0  0  0  0  0  0
   -2.2311   -3.6455   16.2150 H   0  0  0  0  0  0  0  0  0  0  0  0
    0.1761   -3.2079   16.5216 H   0  0  0  0  0  0  0  0  0  0  0  0
    5.1294    1.9197   13.2352 H   0  0  0  0  0  0  0  0  0  0  0  0
    6.8235    0.9061   15.2933 H   0  0  0  0  0  0  0  0  0  0  0  0
    6.2935   -0.8022   17.3047 H   0  0  0  0  0  0  0  0  0  0  0  0
    2.4309    1.2596   11.4911 H   0  0  0  0  0  0  0  0  0  0  0  0
    4.5857    2.3571   11.2628 H   0  0  0  0  0  0  0  0  0  0  0  0
    3.8671    3.8078    9.3868 H   0  0  0  0  0  0  0  0  0  0  0  0
    1.3590    5.1186    8.2507 H   0  0  0  0  0  0  0  0  0  0  0  0
    0.5419    2.1684   12.7738 H   0  0  0  0  0  0  0  0  0  0  0  0
   -0.0379   -0.9334   13.2375 H   0  0  0  0  0  0  0  0  0  0  0  0
   -0.4177    0.2338   14.5489 H   0  0  0  0  0  0  0  0  0  0  0  0
  1  2  1  0  0  0  0
  2  3  1  0  0  0  0
  3  4  2  0  0  0  0
  3 27  1  0  0  0  0
  4  5  1  0  0  0  0
  5  6  2  0  0  0  0
  6  7  1  0  0  0  0
  7  8  2  0  0  0  0
  7 27  1  0  0  0  0
  8  9  1  0  0  0  0
  9 10  2  0  0  0  0
  9 17  1  0  0  0  0
 10 11  1  0  0  0  0
 11 12  2  0  0  0  0
 11 18  1  0  0  0  0
 12 13  1  0  0  0  0
 13 14  1  0  0  0  0
 13 17  1  0  0  0  0
 14 15  2  0  0  0  0
 15 16  1  0  0  0  0
 16 17  2  0  0  0  0
 18 19  1  0  0  0  0
 18 26  1  0  0  0  0
 19 20  2  0  0  0  0
 20 21  1  0  0  0  0
 21 22  2  0  0  0  0
 21 25  1  0  0  0  0
 22 23  1  0  0  0  0
 23 24  2  0  0  0  0
 24 25  1  0  0  0  0
 25 26  2  0  0  0  0
  1 28  1  0  0  0  0
  1 29  1  0  0  0  0
  1 30  1  0  0  0  0
  4 31  1  0  0  0  0
  5 32  1  0  0  0  0
  6 33  1  0  0  0  0
 12 34  1  0  0  0  0
 14 35  1  0  0  0  0
 15 36  1  0  0  0  0
 18 37  1  0  0  0  0
 19 38  1  0  0  0  0
 20 39  1  0  0  0  0
 22 40  1  0  0  0  0
 26 41  1  0  0  0  0
 27 42  1  0  0  0  0
 27 43  1  0  0  0  0
M  END
> <IC50[nM]>
8.5

$$$$
CHEMBL3265028
  -OEChem-05192314333D
 Structure written by MMmdl.
 43 47  0     1  0  0  0  0  0999 V2000
   -1.9509    0.6794   12.3551 C   0  0  0  0  0  0  0  0  0  0  0  0
   -2.6175   -0.2972   13.1574 O   0  0  0  0  0  0  0  0  0  0  0  0
   -1.8696   -1.0545   14.0449 C   0  0  0  0  0  0  0  0  0  0  0  0
   -2.5006   -2.0822   14.7698 C   0  0  0  0  0  0  0  0  0  0  0  0
   -1.7540   -2.8524   15.6585 C   0  0  0  0  0  0  0  0  0  0  0  0
   -0.3950   -2.6038   15.8322 C   0  0  0  0  0  0  0  0  0  0  0  0
    0.2324   -1.5851   15.1260 C   0  0  0  0  0  0  0  0  0  0  0  0
    1.6168   -1.3648   15.3699 N   0  0  0  0  0  0  0  0  0  0  0  0
    2.5420   -0.4570   14.7968 C   0  0  0  0  0  0  0  0  0  0  0  0
    2.1720    0.3831   13.7786 N   0  0  0  0  0  0  0  0  0  0  0  0
    3.1103    1.2383   13.2419 C   0  0  0  0  0  0  0  0  0  0  0  0
    4.3968    1.2792   13.7037 C   0  0  0  0  0  0  0  0  0  0  0  0
    4.7381    0.4944   14.7692 N   0  0  0  0  0  0  0  0  0  0  0  0
    5.8928    0.3893   15.4752 C   0  0  0  0  0  0  0  0  0  0  0  0
    5.6110   -0.5494   16.5068 C   0  0  0  0  0  0  0  0  0  0  0  0
    4.4002   -1.0741   16.3612 N   0  0  0  0  0  0  0  0  0  0  0  0
    3.8444   -0.3918   15.3407 C   0  0  0  0  0  0  0  0  0  0  0  0
    2.6282    2.1384   12.1226 C   0  0  0  0  0  0  0  0  0  0  0  0
    3.5442    2.6282   11.1721 C   0  0  0  0  0  0  0  0  0  0  0  0
    3.1497    3.4552   10.1130 C   0  0  0  0  0  0  0  0  0  0  0  0
    1.8035    3.8107   10.0226 C   0  0  0  0  0  0  0  0  0  0  0  0
    0.9910    4.6054    9.1269 C   0  0  0  0  0  0  0  0  0  0  0  0
   -0.2498    4.6130    9.5297 N   0  0  0  0  0  0  0  0  0  0  0  0
   -0.3276    3.8827   10.6287 N   0  0  0  0  0  0  0  0  0  0  0  0
    0.8922    3.3455   10.9868 C   0  0  3  0  0  0  0  0  0  0  0  0
    1.2628    2.5119   12.0466 C   0  0  0  0  0  0  0  0  0  0  0  0
   -0.5121   -0.8124   14.2226 C   0  0  0  0  0  0  0  0  0  0  0  0
   -2.6836    1.1877   11.7110 H   0  0  0  0  0  0  0  0  0  0  0  0
   -1.4618    1.4178   13.0075 H   0  0  0  0  0  0  0  0  0  0  0  0
   -1.1937    0.1846   11.7292 H   0  0  0  0  0  0  0  0  0  0  0  0
   -3.5555   -2.2724   14.6382 H   0  0  0  0  0  0  0  0  0  0  0  0
   -2.2311   -3.6455   16.2150 H   0  0  0  0  0  0  0  0  0  0  0  0
    0.1761   -3.2079   16.5216 H   0  0  0  0  0  0  0  0  0  0  0  0
    5.1294    1.9197   13.2352 H   0  0  0  0  0  0  0  0  0  0  0  0
    6.8235    0.9061   15.2933 H   0  0  0  0  0  0  0  0  0  0  0  0
    6.2935   -0.8022   17.3047 H   0  0  0  0  0  0  0  0  0  0  0  0
    4.5857    2.3571   11.2628 H   0  0  0  0  0  0  0  0  0  0  0  0
    3.8671    3.8078    9.3868 H   0  0  0  0  0  0  0  0  0  0  0  0
    1.3590    5.1186    8.2507 H   0  0  0  0  0  0  0  0  0  0  0  0
    1.0990    4.2288   11.6089 H   0  0  0  0  0  0  0  0  0  0  0  0
    0.5419    2.1684   12.7738 H   0  0  0  0  0  0  0  0  0  0  0  0
   -0.0379   -0.9334   13.2375 H   0  0  0  0  0  0  0  0  0  0  0  0
   -0.4177    0.2338   14.5489 H   0  0  0  0  0  0  0  0  0  0  0  0
  1  2  1  0  0  0  0
  2  3  1  0  0  0  0
  3  4  2  0  0  0  0
  3 27  1  0  0  0  0
  4  5  1  0  0  0  0
  5  6  2  0  0  0  0
  6  7  1  0  0  0  0
  7  8  2  0  0  0  0
  7 27  1  0  0  0  0
  8  9  1  0  0  0  0
  9 10  2  0  0  0  0
  9 17  1  0  0  0  0
 10 11  1  0  0  0  0
 11 12  2  0  0  0  0
 11 18  1  0  0  0  0
 12 13  1  0  0  0  0
 13 14  1  0  0  0  0
 13 17  1  0  0  0  0
 14 15  2  0  0  0  0
 15 16  1  0  0  0  0
 16 17  2  0  0  0  0
 18 19  1  0  0  0  0
 18 26  2  0  0  0  0
 19 20  2  0  0  0  0
 20 21  1  0  0  0  0
 21 22  2  0  0  0  0
 21 25  1  0  0  0  0
 22 23  1  0  0  0  0
 23 24  2  0  0  0  0
 24 25  1  0  0  0  0
 25 26  1  0  0  0  0
  1 28  1  0  0  0  0
  1 29  1  0  0  0  0
  1 30  1  0  0  0  0
  4 31  1  0  0  0  0
  5 32  1  0  0  0  0
  6 33  1  0  0  0  0
 12 34  1  0  0  0  0
 14 35  1  0  0  0  0
 15 36  1  0  0  0  0
 19 37  1  0  0  0  0
 20 38  1  0  0  0  0
 22 39  1  0  0  0  0
 25 40  1  0  0  0  0
 26 41  1  0  0  0  0
 27 42  1  0  0  0  0
 27 43  1  0  0  0  0
M  END
> <IC50[nM]>
8.5

$$$$
CHEMBL3265028
  -OEChem-05192314333D
 Structure written by MMmdl.
 43 47  0     0  0  0  0  0  0999 V2000
   -1.9509    0.6794   12.3551 C   0  0  0  0  0  0  0  0  0  0  0  0
   -2.6175   -0.2972   13.1574 O   0  0  0  0  0  0  0  0  0  0  0  0
   -1.8696   -1.0545   14.0449 C   0  0  0  0  0  0  0  0  0  0  0  0
   -2.5006   -2.0822   14.7698 C   0  0  0  0  0  0  0  0  0  0  0  0
   -1.7540   -2.8524   15.6585 C   0  0  0  0  0  0  0  0  0  0  0  0
   -0.3950   -2.6038   15.8322 C   0  0  0  0  0  0  0  0  0  0  0  0
    0.2324   -1.5851   15.1260 C   0  0  0  0  0  0  0  0  0  0  0  0
    1.6168   -1.3648   15.3699 N   0  0  0  0  0  0  0  0  0  0  0  0
    2.5420   -0.4570   14.7968 C   0  0  0  0  0  0  0  0  0  0  0  0
    2.1720    0.3831   13.7786 N   0  0  0  0  0  0  0  0  0  0  0  0
    3.1103    1.2383   13.2419 C   0  0  0  0  0  0  0  0  0  0  0  0
    4.3968    1.2792   13.7037 C   0  0  0  0  0  0  0  0  0  0  0  0
    4.7381    0.4944   14.7692 N   0  0  0  0  0  0  0  0  0  0  0  0
    5.8928    0.3893   15.4752 C   0  0  0  0  0  0  0  0  0  0  0  0
    5.6110   -0.5494   16.5068 C   0  0  0  0  0  0  0  0  0  0  0  0
    4.4002   -1.0741   16.3612 N   0  0  0  0  0  0  0  0  0  0  0  0
    3.8444   -0.3918   15.3407 C   0  0  0  0  0  0  0  0  0  0  0  0
    2.6282    2.1384   12.1226 C   0  0  0  0  0  0  0  0  0  0  0  0
    3.5442    2.6282   11.1721 C   0  0  0  0  0  0  0  0  0  0  0  0
    3.1497    3.4552   10.1130 C   0  0  0  0  0  0  0  0  0  0  0  0
    1.8035    3.8107   10.0226 C   0  0  0  0  0  0  0  0  0  0  0  0
    0.9910    4.6054    9.1269 C   0  0  0  0  0  0  0  0  0  0  0  0
   -0.2498    4.6130    9.5297 N   0  0  0  0  0  0  0  0  0  0  0  0
   -0.3276    3.8827   10.6287 N   0  0  0  0  0  0  0  0  0  0  0  0
    0.8922    3.3455   10.9868 C   0  0  0  0  0  0  0  0  0  0  0  0
    1.2628    2.5119   12.0466 C   0  0  0  0  0  0  0  0  0  0  0  0
   -0.5121   -0.8124   14.2226 C   0  0  0  0  0  0  0  0  0  0  0  0
   -2.6836    1.1877   11.7110 H   0  0  0  0  0  0  0  0  0  0  0  0
   -1.4618    1.4178   13.0075 H   0  0  0  0  0  0  0  0  0  0  0  0
   -1.1937    0.1846   11.7292 H   0  0  0  0  0  0  0  0  0  0  0  0
   -3.5555   -2.2724   14.6382 H   0  0  0  0  0  0  0  0  0  0  0  0
   -2.2311   -3.6455   16.2150 H   0  0  0  0  0  0  0  0  0  0  0  0
    0.1761   -3.2079   16.5216 H   0  0  0  0  0  0  0  0  0  0  0  0
    5.1294    1.9197   13.2352 H   0  0  0  0  0  0  0  0  0  0  0  0
    6.8235    0.9061   15.2933 H   0  0  0  0  0  0  0  0  0  0  0  0
    6.2935   -0.8022   17.3047 H   0  0  0  0  0  0  0  0  0  0  0  0
    4.5857    2.3571   11.2628 H   0  0  0  0  0  0  0  0  0  0  0  0
    3.7288    4.3870   10.1931 H   0  0  0  0  0  0  0  0  0  0  0  0
    3.4143    2.9381    9.1789 H   0  0  0  0  0  0  0  0  0  0  0  0
    1.3590    5.1186    8.2507 H   0  0  0  0  0  0  0  0  0  0  0  0
    0.5419    2.1684   12.7738 H   0  0  0  0  0  0  0  0  0  0  0  0
   -0.0379   -0.9334   13.2375 H   0  0  0  0  0  0  0  0  0  0  0  0
   -0.4177    0.2338   14.5489 H   0  0  0  0  0  0  0  0  0  0  0  0
  1  2  1  0  0  0  0
  2  3  1  0  0  0  0
  3  4  2  0  0  0  0
  3 27  1  0  0  0  0
  4  5  1  0  0  0  0
  5  6  2  0  0  0  0
  6  7  1  0  0  0  0
  7  8  2  0  0  0  0
  7 27  1  0  0  0  0
  8  9  1  0  0  0  0
  9 10  2  0  0  0  0
  9 17  1  0  0  0  0
 10 11  1  0  0  0  0
 11 12  2  0  0  0  0
 11 18  1  0  0  0  0
 12 13  1  0  0  0  0
 13 14  1  0  0  0  0
 13 17  1  0  0  0  0
 14 15  2  0  0  0  0
 15 16  1  0  0  0  0
 16 17  2  0  0  0  0
 18 19  2  0  0  0  0
 18 26  1  0  0  0  0
 19 20  1  0  0  0  0
 20 21  1  0  0  0  0
 21 22  2  0  0  0  0
 21 25  1  0  0  0  0
 22 23  1  0  0  0  0
 23 24  2  0  0  0  0
 24 25  1  0  0  0  0
 25 26  2  0  0  0  0
  1 28  1  0  0  0  0
  1 29  1  0  0  0  0
  1 30  1  0  0  0  0
  4 31  1  0  0  0  0
  5 32  1  0  0  0  0
  6 33  1  0  0  0  0
 12 34  1  0  0  0  0
 14 35  1  0  0  0  0
 15 36  1  0  0  0  0
 19 37  1  0  0  0  0
 20 38  1  0  0  0  0
 20 39  1  0  0  0  0
 22 40  1  0  0  0  0
 26 41  1  0  0  0  0
 27 42  1  0  0  0  0
 27 43  1  0  0  0  0
M  END
> <IC50[nM]>
8.5

$$$$
