CHEMBL3265025
  -OEChem-05192314333D
 Structure written by MMmdl.
 50 54  0     0  0  0  0  0  0999 V2000
   -4.2554   -3.1070   13.5667 C   0  0  0  0  0  0  0  0  0  0  0  0
   -3.8739   -2.3555   14.7096 O   0  0  0  0  0  0  0  0  0  0  0  0
   -2.5267   -2.1066   14.8132 C   0  0  0  0  0  0  0  0  0  0  0  0
   -1.7520   -2.8715   15.6749 C   0  0  0  0  0  0  0  0  0  0  0  0
   -0.3933   -2.6145   15.8117 C   0  0  0  0  0  0  0  0  0  0  0  0
    0.2196   -1.5878   15.0897 C   0  0  0  0  0  0  0  0  0  0  0  0
    1.6042   -1.3666   15.3298 N   0  0  0  0  0  0  0  0  0  0  0  0
    2.5249   -0.4338   14.7828 C   0  0  0  0  0  0  0  0  0  0  0  0
    2.1518    0.4044   13.7691 N   0  0  0  0  0  0  0  0  0  0  0  0
    3.0983    1.2388   13.2332 C   0  0  0  0  0  0  0  0  0  0  0  0
    4.4000    1.2764   13.7009 C   0  0  0  0  0  0  0  0  0  0  0  0
    4.7368    0.4928   14.7596 N   0  0  0  0  0  0  0  0  0  0  0  0
    5.8926    0.3911   15.4808 C   0  0  0  0  0  0  0  0  0  0  0  0
    5.6027   -0.5483   16.5053 C   0  0  0  0  0  0  0  0  0  0  0  0
    4.3885   -1.0602   16.3544 N   0  0  0  0  0  0  0  0  0  0  0  0
    3.8325   -0.3883   15.3309 C   0  0  0  0  0  0  0  0  0  0  0  0
    2.6407    2.1399   12.1271 C   0  0  0  0  0  0  0  0  0  0  0  0
    3.5584    2.6399   11.1674 C   0  0  0  0  0  0  0  0  0  0  0  0
    3.1117    3.4654   10.1220 C   0  0  0  0  0  0  0  0  0  0  0  0
    1.7626    3.8038   10.0403 C   0  0  0  0  0  0  0  0  0  0  0  0
    1.2975    4.6116    9.0072 N   0  0  0  0  0  0  0  0  0  0  0  0
   -0.0065    4.8513    8.7182 C   0  0  0  0  0  0  0  0  0  0  0  0
   -0.4123    5.6311    7.8553 O   0  0  0  0  0  0  0  0  0  0  0  0
   -0.9274    3.9668    9.6249 C   0  0  0  0  0  0  0  0  0  0  0  0
   -0.4391    3.7019   10.9584 O   0  0  0  0  0  0  0  0  0  0  0  0
    0.8806    3.3365   10.9991 C   0  0  0  0  0  0  0  0  0  0  0  0
    1.2955    2.5129   12.0280 C   0  0  0  0  0  0  0  0  0  0  0  0
   -0.5548   -0.8136   14.1938 C   0  0  0  0  0  0  0  0  0  0  0  0
   -1.9407   -1.0774   14.0650 C   0  0  0  0  0  0  0  0  0  0  0  0
   -2.7433   -0.3209   13.2263 O   0  0  0  0  0  0  0  0  0  0  0  0
   -2.1991    0.3702   12.1141 C   0  0  0  0  0  0  0  0  0  0  0  0
   -5.3455   -3.2544   13.5712 H   0  0  0  0  0  0  0  0  0  0  0  0
   -3.9628   -2.5635   12.6562 H   0  0  0  0  0  0  0  0  0  0  0  0
   -3.7532   -4.0854   13.5870 H   0  0  0  0  0  0  0  0  0  0  0  0
   -2.2076   -3.6701   16.2416 H   0  0  0  0  0  0  0  0  0  0  0  0
    0.1972   -3.2172   16.4859 H   0  0  0  0  0  0  0  0  0  0  0  0
    2.0031   -1.9819   16.0097 H   0  0  0  0  0  0  0  0  0  0  0  0
    5.1344    1.9160   13.2339 H   0  0  0  0  0  0  0  0  0  0  0  0
    6.8233    0.9114   15.3092 H   0  0  0  0  0  0  0  0  0  0  0  0
    6.2818   -0.8115   17.3028 H   0  0  0  0  0  0  0  0  0  0  0  0
    4.6052    2.3847   11.2409 H   0  0  0  0  0  0  0  0  0  0  0  0
    3.8100    3.8355    9.3860 H   0  0  0  0  0  0  0  0  0  0  0  0
    1.9828    5.0533    8.4282 H   0  0  0  0  0  0  0  0  0  0  0  0
   -1.8979    4.4764    9.7172 H   0  0  0  0  0  0  0  0  0  0  0  0
   -1.0677    2.9997    9.1199 H   0  0  0  0  0  0  0  0  0  0  0  0
    0.5815    2.1569   12.7559 H   0  0  0  0  0  0  0  0  0  0  0  0
   -0.0934   -0.0284   13.6132 H   0  0  0  0  0  0  0  0  0  0  0  0
   -3.0020    0.9048   11.5853 H   0  0  0  0  0  0  0  0  0  0  0  0
   -1.4464    1.0922   12.4637 H   0  0  0  0  0  0  0  0  0  0  0  0
   -1.7263   -0.3503   11.4304 H   0  0  0  0  0  0  0  0  0  0  0  0
  1  2  1  0  0  0  0
  2  3  1  0  0  0  0
  3  4  2  0  0  0  0
  3 29  1  0  0  0  0
  4  5  1  0  0  0  0
  5  6  2  0  0  0  0
  6  7  1  0  0  0  0
  6 28  1  0  0  0  0
  7  8  1  0  0  0  0
  8  9  2  0  0  0  0
  8 16  1  0  0  0  0
  9 10  1  0  0  0  0
 10 11  2  0  0  0  0
 10 17  1  0  0  0  0
 11 12  1  0  0  0  0
 12 13  1  0  0  0  0
 12 16  1  0  0  0  0
 13 14  2  0  0  0  0
 14 15  1  0  0  0  0
 15 16  2  0  0  0  0
 17 18  2  0  0  0  0
 17 27  1  0  0  0  0
 18 19  1  0  0  0  0
 19 20  2  0  0  0  0
 20 21  1  0  0  0  0
 20 26  1  0  0  0  0
 21 22  1  0  0  0  0
 22 23  2  0  0  0  0
 22 24  1  0  0  0  0
 24 25  1  0  0  0  0
 25 26  1  0  0  0  0
 26 27  2  0  0  0  0
 28 29  2  0  0  0  0
 29 30  1  0  0  0  0
 30 31  1  0  0  0  0
  1 32  1  0  0  0  0
  1 33  1  0  0  0  0
  1 34  1  0  0  0  0
  4 35  1  0  0  0  0
  5 36  1  0  0  0  0
  7 37  1  0  0  0  0
 11 38  1  0  0  0  0
 13 39  1  0  0  0  0
 14 40  1  0  0  0  0
 18 41  1  0  0  0  0
 19 42  1  0  0  0  0
 21 43  1  0  0  0  0
 24 44  1  0  0  0  0
 24 45  1  0  0  0  0
 27 46  1  0  0  0  0
 28 47  1  0  0  0  0
 31 48  1  0  0  0  0
 31 49  1  0  0  0  0
 31 50  1  0  0  0  0
M  END
> <IC50[nM]>
33.4

$$$$
CHEMBL3265025
  -OEChem-05192314333D
 Structure written by MMmdl.
 50 54  0     0  0  0  0  0  0999 V2000
   -4.2554   -3.1070   13.5667 C   0  0  0  0  0  0  0  0  0  0  0  0
   -3.8739   -2.3555   14.7096 O   0  0  0  0  0  0  0  0  0  0  0  0
   -2.5267   -2.1066   14.8132 C   0  0  0  0  0  0  0  0  0  0  0  0
   -1.7520   -2.8715   15.6749 C   0  0  0  0  0  0  0  0  0  0  0  0
   -0.3933   -2.6145   15.8117 C   0  0  0  0  0  0  0  0  0  0  0  0
    0.2196   -1.5878   15.0897 C   0  0  0  0  0  0  0  0  0  0  0  0
    1.6042   -1.3666   15.3298 N   0  0  0  0  0  0  0  0  0  0  0  0
    2.5249   -0.4338   14.7828 C   0  0  0  0  0  0  0  0  0  0  0  0
    2.1518    0.4044   13.7691 N   0  0  0  0  0  0  0  0  0  0  0  0
    3.0983    1.2388   13.2332 C   0  0  0  0  0  0  0  0  0  0  0  0
    4.4000    1.2764   13.7009 C   0  0  0  0  0  0  0  0  0  0  0  0
    4.7368    0.4928   14.7596 N   0  0  0  0  0  0  0  0  0  0  0  0
    5.8926    0.3911   15.4808 C   0  0  0  0  0  0  0  0  0  0  0  0
    5.6027   -0.5483   16.5053 C   0  0  0  0  0  0  0  0  0  0  0  0
    4.3885   -1.0602   16.3544 N   0  0  0  0  0  0  0  0  0  0  0  0
    3.8325   -0.3883   15.3309 C   0  0  0  0  0  0  0  0  0  0  0  0
    2.6407    2.1399   12.1271 C   0  0  0  0  0  0  0  0  0  0  0  0
    3.5584    2.6399   11.1674 C   0  0  0  0  0  0  0  0  0  0  0  0
    3.1117    3.4654   10.1220 C   0  0  0  0  0  0  0  0  0  0  0  0
    1.7626    3.8038   10.0403 C   0  0  0  0  0  0  0  0  0  0  0  0
    1.2975    4.6116    9.0072 N   0  0  0  0  0  0  0  0  0  0  0  0
   -0.0065    4.8513    8.7182 C   0  0  0  0  0  0  0  0  0  0  0  0
   -0.4123    5.6311    7.8553 O   0  0  0  0  0  0  0  0  0  0  0  0
   -0.9274    3.9668    9.6249 C   0  0  0  0  0  0  0  0  0  0  0  0
   -0.4391    3.7019   10.9584 O   0  0  0  0  0  0  0  0  0  0  0  0
    0.8806    3.3365   10.9991 C   0  0  0  0  0  0  0  0  0  0  0  0
    1.2955    2.5129   12.0280 C   0  0  0  0  0  0  0  0  0  0  0  0
   -0.5548   -0.8136   14.1938 C   0  0  0  0  0  0  0  0  0  0  0  0
   -1.9407   -1.0774   14.0650 C   0  0  0  0  0  0  0  0  0  0  0  0
   -2.7433   -0.3209   13.2263 O   0  0  0  0  0  0  0  0  0  0  0  0
   -2.1991    0.3702   12.1141 C   0  0  0  0  0  0  0  0  0  0  0  0
   -5.3455   -3.2544   13.5712 H   0  0  0  0  0  0  0  0  0  0  0  0
   -3.9628   -2.5635   12.6562 H   0  0  0  0  0  0  0  0  0  0  0  0
   -3.7532   -4.0854   13.5870 H   0  0  0  0  0  0  0  0  0  0  0  0
   -2.2076   -3.6701   16.2416 H   0  0  0  0  0  0  0  0  0  0  0  0
    0.1972   -3.2172   16.4859 H   0  0  0  0  0  0  0  0  0  0  0  0
    2.0031   -1.9819   16.0097 H   0  0  0  0  0  0  0  0  0  0  0  0
    5.1344    1.9160   13.2339 H   0  0  0  0  0  0  0  0  0  0  0  0
    6.8233    0.9114   15.3092 H   0  0  0  0  0  0  0  0  0  0  0  0
    6.2818   -0.8115   17.3028 H   0  0  0  0  0  0  0  0  0  0  0  0
    4.6052    2.3847   11.2409 H   0  0  0  0  0  0  0  0  0  0  0  0
    3.8100    3.8355    9.3860 H   0  0  0  0  0  0  0  0  0  0  0  0
    0.3287    6.0392    7.4229 H   0  0  0  0  0  0  0  0  0  0  0  0
   -1.8979    4.4764    9.7172 H   0  0  0  0  0  0  0  0  0  0  0  0
   -1.0677    2.9997    9.1199 H   0  0  0  0  0  0  0  0  0  0  0  0
    0.5815    2.1569   12.7559 H   0  0  0  0  0  0  0  0  0  0  0  0
   -0.0934   -0.0284   13.6132 H   0  0  0  0  0  0  0  0  0  0  0  0
   -3.0020    0.9048   11.5853 H   0  0  0  0  0  0  0  0  0  0  0  0
   -1.4464    1.0922   12.4637 H   0  0  0  0  0  0  0  0  0  0  0  0
   -1.7263   -0.3503   11.4304 H   0  0  0  0  0  0  0  0  0  0  0  0
  1  2  1  0  0  0  0
  2  3  1  0  0  0  0
  3  4  2  0  0  0  0
  3 29  1  0  0  0  0
  4  5  1  0  0  0  0
  5  6  2  0  0  0  0
  6  7  1  0  0  0  0
  6 28  1  0  0  0  0
  7  8  1  0  0  0  0
  8  9  2  0  0  0  0
  8 16  1  0  0  0  0
  9 10  1  0  0  0  0
 10 11  2  0  0  0  0
 10 17  1  0  0  0  0
 11 12  1  0  0  0  0
 12 13  1  0  0  0  0
 12 16  1  0  0  0  0
 13 14  2  0  0  0  0
 14 15  1  0  0  0  0
 15 16  2  0  0  0  0
 17 18  2  0  0  0  0
 17 27  1  0  0  0  0
 18 19  1  0  0  0  0
 19 20  2  0  0  0  0
 20 21  1  0  0  0  0
 20 26  1  0  0  0  0
 21 22  2  0  0  0  0
 22 23  1  0  0  0  0
 22 24  1  0  0  0  0
 24 25  1  0  0  0  0
 25 26  1  0  0  0  0
 26 27  2  0  0  0  0
 28 29  2  0  0  0  0
 29 30  1  0  0  0  0
 30 31  1  0  0  0  0
  1 32  1  0  0  0  0
  1 33  1  0  0  0  0
  1 34  1  0  0  0  0
  4 35  1  0  0  0  0
  5 36  1  0  0  0  0
  7 37  1  0  0  0  0
 11 38  1  0  0  0  0
 13 39  1  0  0  0  0
 14 40  1  0  0  0  0
 18 41  1  0  0  0  0
 19 42  1  0  0  0  0
 23 43  1  0  0  0  0
 24 44  1  0  0  0  0
 24 45  1  0  0  0  0
 27 46  1  0  0  0  0
 28 47  1  0  0  0  0
 31 48  1  0  0  0  0
 31 49  1  0  0  0  0
 31 50  1  0  0  0  0
M  END
> <IC50[nM]>
33.4

$$$$
CHEMBL3265025
  -OEChem-05192314333D
 Structure written by MMmdl.
 50 54  0     0  0  0  0  0  0999 V2000
   -4.2554   -3.1070   13.5667 C   0  0  0  0  0  0  0  0  0  0  0  0
   -3.8739   -2.3555   14.7096 O   0  0  0  0  0  0  0  0  0  0  0  0
   -2.5267   -2.1066   14.8132 C   0  0  0  0  0  0  0  0  0  0  0  0
   -1.7520   -2.8715   15.6749 C   0  0  0  0  0  0  0  0  0  0  0  0
   -0.3933   -2.6145   15.8117 C   0  0  0  0  0  0  0  0  0  0  0  0
    0.2196   -1.5878   15.0897 C   0  0  0  0  0  0  0  0  0  0  0  0
    1.6042   -1.3666   15.3298 N   0  0  0  0  0  0  0  0  0  0  0  0
    2.5249   -0.4338   14.7828 C   0  0  0  0  0  0  0  0  0  0  0  0
    2.1518    0.4044   13.7691 N   0  0  0  0  0  0  0  0  0  0  0  0
    3.0983    1.2388   13.2332 C   0  0  0  0  0  0  0  0  0  0  0  0
    4.4000    1.2764   13.7009 C   0  0  0  0  0  0  0  0  0  0  0  0
    4.7368    0.4928   14.7596 N   0  0  0  0  0  0  0  0  0  0  0  0
    5.8926    0.3911   15.4808 C   0  0  0  0  0  0  0  0  0  0  0  0
    5.6027   -0.5483   16.5053 C   0  0  0  0  0  0  0  0  0  0  0  0
    4.3885   -1.0602   16.3544 N   0  0  0  0  0  0  0  0  0  0  0  0
    3.8325   -0.3883   15.3309 C   0  0  0  0  0  0  0  0  0  0  0  0
    2.6407    2.1399   12.1271 C   0  0  0  0  0  0  0  0  0  0  0  0
    3.5584    2.6399   11.1674 C   0  0  0  0  0  0  0  0  0  0  0  0
    3.1117    3.4654   10.1220 C   0  0  0  0  0  0  0  0  0  0  0  0
    1.7626    3.8038   10.0403 C   0  0  0  0  0  0  0  0  0  0  0  0
    1.2975    4.6116    9.0072 N   0  0  0  0  0  0  0  0  0  0  0  0
   -0.0065    4.8513    8.7182 C   0  0  0  0  0  0  0  0  0  0  0  0
   -0.4123    5.6311    7.8553 O   0  0  0  0  0  0  0  0  0  0  0  0
   -0.9274    3.9668    9.6249 C   0  0  0  0  0  0  0  0  0  0  0  0
   -0.4391    3.7019   10.9584 O   0  0  0  0  0  0  0  0  0  0  0  0
    0.8806    3.3365   10.9991 C   0  0  0  0  0  0  0  0  0  0  0  0
    1.2955    2.5129   12.0280 C   0  0  0  0  0  0  0  0  0  0  0  0
   -0.5548   -0.8136   14.1938 C   0  0  0  0  0  0  0  0  0  0  0  0
   -1.9407   -1.0774   14.0650 C   0  0  0  0  0  0  0  0  0  0  0  0
   -2.7433   -0.3209   13.2263 O   0  0  0  0  0  0  0  0  0  0  0  0
   -2.1991    0.3702   12.1141 C   0  0  0  0  0  0  0  0  0  0  0  0
   -5.3455   -3.2544   13.5712 H   0  0  0  0  0  0  0  0  0  0  0  0
   -3.9628   -2.5635   12.6562 H   0  0  0  0  0  0  0  0  0  0  0  0
   -3.7532   -4.0854   13.5870 H   0  0  0  0  0  0  0  0  0  0  0  0
   -2.2076   -3.6701   16.2416 H   0  0  0  0  0  0  0  0  0  0  0  0
    0.1972   -3.2172   16.4859 H   0  0  0  0  0  0  0  0  0  0  0  0
    1.2121    0.4087   13.4272 H   0  0  0  0  0  0  0  0  0  0  0  0
    5.1344    1.9160   13.2339 H   0  0  0  0  0  0  0  0  0  0  0  0
    6.8233    0.9114   15.3092 H   0  0  0  0  0  0  0  0  0  0  0  0
    6.2818   -0.8115   17.3028 H   0  0  0  0  0  0  0  0  0  0  0  0
    4.6052    2.3847   11.2409 H   0  0  0  0  0  0  0  0  0  0  0  0
    3.8100    3.8355    9.3860 H   0  0  0  0  0  0  0  0  0  0  0  0
    1.9828    5.0533    8.4282 H   0  0  0  0  0  0  0  0  0  0  0  0
   -1.8979    4.4764    9.7172 H   0  0  0  0  0  0  0  0  0  0  0  0
   -1.0677    2.9997    9.1199 H   0  0  0  0  0  0  0  0  0  0  0  0
    0.5815    2.1569   12.7559 H   0  0  0  0  0  0  0  0  0  0  0  0
   -0.0934   -0.0284   13.6132 H   0  0  0  0  0  0  0  0  0  0  0  0
   -3.0020    0.9048   11.5853 H   0  0  0  0  0  0  0  0  0  0  0  0
   -1.4464    1.0922   12.4637 H   0  0  0  0  0  0  0  0  0  0  0  0
   -1.7263   -0.3503   11.4304 H   0  0  0  0  0  0  0  0  0  0  0  0
  1  2  1  0  0  0  0
  2  3  1  0  0  0  0
  3  4  2  0  0  0  0
  3 29  1  0  0  0  0
  4  5  1  0  0  0  0
  5  6  2  0  0  0  0
  6  7  1  0  0  0  0
  6 28  1  0  0  0  0
  7  8  2  0  0  0  0
  8  9  1  0  0  0  0
  8 16  1  0  0  0  0
  9 10  1  0  0  0  0
 10 11  2  0  0  0  0
 10 17  1  0  0  0  0
 11 12  1  0  0  0  0
 12 13  1  0  0  0  0
 12 16  1  0  0  0  0
 13 14  2  0  0  0  0
 14 15  1  0  0  0  0
 15 16  2  0  0  0  0
 17 18  2  0  0  0  0
 17 27  1  0  0  0  0
 18 19  1  0  0  0  0
 19 20  2  0  0  0  0
 20 21  1  0  0  0  0
 20 26  1  0  0  0  0
 21 22  1  0  0  0  0
 22 23  2  0  0  0  0
 22 24  1  0  0  0  0
 24 25  1  0  0  0  0
 25 26  1  0  0  0  0
 26 27  2  0  0  0  0
 28 29  2  0  0  0  0
 29 30  1  0  0  0  0
 30 31  1  0  0  0  0
  1 32  1  0  0  0  0
  1 33  1  0  0  0  0
  1 34  1  0  0  0  0
  4 35  1  0  0  0  0
  5 36  1  0  0  0  0
  9 37  1  0  0  0  0
 11 38  1  0  0  0  0
 13 39  1  0  0  0  0
 14 40  1  0  0  0  0
 18 41  1  0  0  0  0
 19 42  1  0  0  0  0
 21 43  1  0  0  0  0
 24 44  1  0  0  0  0
 24 45  1  0  0  0  0
 27 46  1  0  0  0  0
 28 47  1  0  0  0  0
 31 48  1  0  0  0  0
 31 49  1  0  0  0  0
 31 50  1  0  0  0  0
M  END
> <IC50[nM]>
33.4

$$$$
CHEMBL3265025
  -OEChem-05192314333D
 Structure written by MMmdl.
 50 54  0     0  0  0  0  0  0999 V2000
   -4.2554   -3.1070   13.5667 C   0  0  0  0  0  0  0  0  0  0  0  0
   -3.8739   -2.3555   14.7096 O   0  0  0  0  0  0  0  0  0  0  0  0
   -2.5267   -2.1066   14.8132 C   0  0  0  0  0  0  0  0  0  0  0  0
   -1.7520   -2.8715   15.6749 C   0  0  0  0  0  0  0  0  0  0  0  0
   -0.3933   -2.6145   15.8117 C   0  0  0  0  0  0  0  0  0  0  0  0
    0.2196   -1.5878   15.0897 C   0  0  0  0  0  0  0  0  0  0  0  0
    1.6042   -1.3666   15.3298 N   0  0  0  0  0  0  0  0  0  0  0  0
    2.5249   -0.4338   14.7828 C   0  0  0  0  0  0  0  0  0  0  0  0
    2.1518    0.4044   13.7691 N   0  0  0  0  0  0  0  0  0  0  0  0
    3.0983    1.2388   13.2332 C   0  0  0  0  0  0  0  0  0  0  0  0
    4.4000    1.2764   13.7009 C   0  0  0  0  0  0  0  0  0  0  0  0
    4.7368    0.4928   14.7596 N   0  0  0  0  0  0  0  0  0  0  0  0
    5.8926    0.3911   15.4808 C   0  0  0  0  0  0  0  0  0  0  0  0
    5.6027   -0.5483   16.5053 C   0  0  0  0  0  0  0  0  0  0  0  0
    4.3885   -1.0602   16.3544 N   0  0  0  0  0  0  0  0  0  0  0  0
    3.8325   -0.3883   15.3309 C   0  0  0  0  0  0  0  0  0  0  0  0
    2.6407    2.1399   12.1271 C   0  0  0  0  0  0  0  0  0  0  0  0
    3.5584    2.6399   11.1674 C   0  0  0  0  0  0  0  0  0  0  0  0
    3.1117    3.4654   10.1220 C   0  0  0  0  0  0  0  0  0  0  0  0
    1.7626    3.8038   10.0403 C   0  0  0  0  0  0  0  0  0  0  0  0
    1.2975    4.6116    9.0072 N   0  0  0  0  0  0  0  0  0  0  0  0
   -0.0065    4.8513    8.7182 C   0  0  0  0  0  0  0  0  0  0  0  0
   -0.4123    5.6311    7.8553 O   0  0  0  0  0  0  0  0  0  0  0  0
   -0.9274    3.9668    9.6249 C   0  0  0  0  0  0  0  0  0  0  0  0
   -0.4391    3.7019   10.9584 O   0  0  0  0  0  0  0  0  0  0  0  0
    0.8806    3.3365   10.9991 C   0  0  0  0  0  0  0  0  0  0  0  0
    1.2955    2.5129   12.0280 C   0  0  0  0  0  0  0  0  0  0  0  0
   -0.5548   -0.8136   14.1938 C   0  0  0  0  0  0  0  0  0  0  0  0
   -1.9407   -1.0774   14.0650 C   0  0  0  0  0  0  0  0  0  0  0  0
   -2.7433   -0.3209   13.2263 O   0  0  0  0  0  0  0  0  0  0  0  0
   -2.1991    0.3702   12.1141 C   0  0  0  0  0  0  0  0  0  0  0  0
   -5.3455   -3.2544   13.5712 H   0  0  0  0  0  0  0  0  0  0  0  0
   -3.9628   -2.5635   12.6562 H   0  0  0  0  0  0  0  0  0  0  0  0
   -3.7532   -4.0854   13.5870 H   0  0  0  0  0  0  0  0  0  0  0  0
   -2.2076   -3.6701   16.2416 H   0  0  0  0  0  0  0  0  0  0  0  0
    0.1972   -3.2172   16.4859 H   0  0  0  0  0  0  0  0  0  0  0  0
    1.2121    0.4087   13.4272 H   0  0  0  0  0  0  0  0  0  0  0  0
    5.1344    1.9160   13.2339 H   0  0  0  0  0  0  0  0  0  0  0  0
    6.8233    0.9114   15.3092 H   0  0  0  0  0  0  0  0  0  0  0  0
    6.2818   -0.8115   17.3028 H   0  0  0  0  0  0  0  0  0  0  0  0
    4.6052    2.3847   11.2409 H   0  0  0  0  0  0  0  0  0  0  0  0
    3.8100    3.8355    9.3860 H   0  0  0  0  0  0  0  0  0  0  0  0
    0.3287    6.0392    7.4229 H   0  0  0  0  0  0  0  0  0  0  0  0
   -1.8979    4.4764    9.7172 H   0  0  0  0  0  0  0  0  0  0  0  0
   -1.0677    2.9997    9.1199 H   0  0  0  0  0  0  0  0  0  0  0  0
    0.5815    2.1569   12.7559 H   0  0  0  0  0  0  0  0  0  0  0  0
   -0.0934   -0.0284   13.6132 H   0  0  0  0  0  0  0  0  0  0  0  0
   -3.0020    0.9048   11.5853 H   0  0  0  0  0  0  0  0  0  0  0  0
   -1.4464    1.0922   12.4637 H   0  0  0  0  0  0  0  0  0  0  0  0
   -1.7263   -0.3503   11.4304 H   0  0  0  0  0  0  0  0  0  0  0  0
  1  2  1  0  0  0  0
  2  3  1  0  0  0  0
  3  4  2  0  0  0  0
  3 29  1  0  0  0  0
  4  5  1  0  0  0  0
  5  6  2  0  0  0  0
  6  7  1  0  0  0  0
  6 28  1  0  0  0  0
  7  8  2  0  0  0  0
  8  9  1  0  0  0  0
  8 16  1  0  0  0  0
  9 10  1  0  0  0  0
 10 11  2  0  0  0  0
 10 17  1  0  0  0  0
 11 12  1  0  0  0  0
 12 13  1  0  0  0  0
 12 16  1  0  0  0  0
 13 14  2  0  0  0  0
 14 15  1  0  0  0  0
 15 16  2  0  0  0  0
 17 18  2  0  0  0  0
 17 27  1  0  0  0  0
 18 19  1  0  0  0  0
 19 20  2  0  0  0  0
 20 21  1  0  0  0  0
 20 26  1  0  0  0  0
 21 22  2  0  0  0  0
 22 23  1  0  0  0  0
 22 24  1  0  0  0  0
 24 25  1  0  0  0  0
 25 26  1  0  0  0  0
 26 27  2  0  0  0  0
 28 29  2  0  0  0  0
 29 30  1  0  0  0  0
 30 31  1  0  0  0  0
  1 32  1  0  0  0  0
  1 33  1  0  0  0  0
  1 34  1  0  0  0  0
  4 35  1  0  0  0  0
  5 36  1  0  0  0  0
  9 37  1  0  0  0  0
 11 38  1  0  0  0  0
 13 39  1  0  0  0  0
 14 40  1  0  0  0  0
 18 41  1  0  0  0  0
 19 42  1  0  0  0  0
 23 43  1  0  0  0  0
 24 44  1  0  0  0  0
 24 45  1  0  0  0  0
 27 46  1  0  0  0  0
 28 47  1  0  0  0  0
 31 48  1  0  0  0  0
 31 49  1  0  0  0  0
 31 50  1  0  0  0  0
M  END
> <IC50[nM]>
33.4

$$$$
CHEMBL3265025
  -OEChem-05192314333D
 Structure written by MMmdl.
 50 54  0     0  0  0  0  0  0999 V2000
   -4.2554   -3.1070   13.5667 C   0  0  0  0  0  0  0  0  0  0  0  0
   -3.8739   -2.3555   14.7096 O   0  0  0  0  0  0  0  0  0  0  0  0
   -2.5267   -2.1066   14.8132 C   0  0  0  0  0  0  0  0  0  0  0  0
   -1.7520   -2.8715   15.6749 C   0  0  0  0  0  0  0  0  0  0  0  0
   -0.3933   -2.6145   15.8117 C   0  0  0  0  0  0  0  0  0  0  0  0
    0.2196   -1.5878   15.0897 C   0  0  0  0  0  0  0  0  0  0  0  0
    1.6042   -1.3666   15.3298 N   0  0  0  0  0  0  0  0  0  0  0  0
    2.5249   -0.4338   14.7828 C   0  0  0  0  0  0  0  0  0  0  0  0
    2.1518    0.4044   13.7691 N   0  0  0  0  0  0  0  0  0  0  0  0
    3.0983    1.2388   13.2332 C   0  0  0  0  0  0  0  0  0  0  0  0
    4.4000    1.2764   13.7009 C   0  0  0  0  0  0  0  0  0  0  0  0
    4.7368    0.4928   14.7596 N   0  0  0  0  0  0  0  0  0  0  0  0
    5.8926    0.3911   15.4808 C   0  0  0  0  0  0  0  0  0  0  0  0
    5.6027   -0.5483   16.5053 C   0  0  0  0  0  0  0  0  0  0  0  0
    4.3885   -1.0602   16.3544 N   0  0  0  0  0  0  0  0  0  0  0  0
    3.8325   -0.3883   15.3309 C   0  0  0  0  0  0  0  0  0  0  0  0
    2.6407    2.1399   12.1271 C   0  0  0  0  0  0  0  0  0  0  0  0
    3.5584    2.6399   11.1674 C   0  0  0  0  0  0  0  0  0  0  0  0
    3.1117    3.4654   10.1220 C   0  0  0  0  0  0  0  0  0  0  0  0
    1.7626    3.8038   10.0403 C   0  0  0  0  0  0  0  0  0  0  0  0
    1.2975    4.6116    9.0072 N   0  0  0  0  0  0  0  0  0  0  0  0
   -0.0065    4.8513    8.7182 C   0  0  0  0  0  0  0  0  0  0  0  0
   -0.4123    5.6311    7.8553 O   0  0  0  0  0  0  0  0  0  0  0  0
   -0.9274    3.9668    9.6249 C   0  0  0  0  0  0  0  0  0  0  0  0
   -0.4391    3.7019   10.9584 O   0  0  0  0  0  0  0  0  0  0  0  0
    0.8806    3.3365   10.9991 C   0  0  0  0  0  0  0  0  0  0  0  0
    1.2955    2.5129   12.0280 C   0  0  0  0  0  0  0  0  0  0  0  0
   -0.5548   -0.8136   14.1938 C   0  0  0  0  0  0  0  0  0  0  0  0
   -1.9407   -1.0774   14.0650 C   0  0  0  0  0  0  0  0  0  0  0  0
   -2.7433   -0.3209   13.2263 O   0  0  0  0  0  0  0  0  0  0  0  0
   -2.1991    0.3702   12.1141 C   0  0  0  0  0  0  0  0  0  0  0  0
   -5.3455   -3.2544   13.5712 H   0  0  0  0  0  0  0  0  0  0  0  0
   -3.9628   -2.5635   12.6562 H   0  0  0  0  0  0  0  0  0  0  0  0
   -3.7532   -4.0854   13.5870 H   0  0  0  0  0  0  0  0  0  0  0  0
   -2.2076   -3.6701   16.2416 H   0  0  0  0  0  0  0  0  0  0  0  0
    0.1972   -3.2172   16.4859 H   0  0  0  0  0  0  0  0  0  0  0  0
    5.0530    0.9879   12.8640 H   0  0  0  0  0  0  0  0  0  0  0  0
    4.6106    2.3170   13.9885 H   0  0  0  0  0  0  0  0  0  0  0  0
    6.8233    0.9114   15.3092 H   0  0  0  0  0  0  0  0  0  0  0  0
    6.2818   -0.8115   17.3028 H   0  0  0  0  0  0  0  0  0  0  0  0
    4.6052    2.3847   11.2409 H   0  0  0  0  0  0  0  0  0  0  0  0
    3.8100    3.8355    9.3860 H   0  0  0  0  0  0  0  0  0  0  0  0
    1.9828    5.0533    8.4282 H   0  0  0  0  0  0  0  0  0  0  0  0
   -1.8979    4.4764    9.7172 H   0  0  0  0  0  0  0  0  0  0  0  0
   -1.0677    2.9997    9.1199 H   0  0  0  0  0  0  0  0  0  0  0  0
    0.5815    2.1569   12.7559 H   0  0  0  0  0  0  0  0  0  0  0  0
   -0.0934   -0.0284   13.6132 H   0  0  0  0  0  0  0  0  0  0  0  0
   -3.0020    0.9048   11.5853 H   0  0  0  0  0  0  0  0  0  0  0  0
   -1.4464    1.0922   12.4637 H   0  0  0  0  0  0  0  0  0  0  0  0
   -1.7263   -0.3503   11.4304 H   0  0  0  0  0  0  0  0  0  0  0  0
  1  2  1  0  0  0  0
  2  3  1  0  0  0  0
  3  4  2  0  0  0  0
  3 29  1  0  0  0  0
  4  5  1  0  0  0  0
  5  6  2  0  0  0  0
  6  7  1  0  0  0  0
  6 28  1  0  0  0  0
  7  8  2  0  0  0  0
  8  9  1  0  0  0  0
  8 16  1  0  0  0  0
  9 10  2  0  0  0  0
 10 11  1  0  0  0  0
 10 17  1  0  0  0  0
 11 12  1  0  0  0  0
 12 13  1  0  0  0  0
 12 16  1  0  0  0  0
 13 14  2  0  0  0  0
 14 15  1  0  0  0  0
 15 16  2  0  0  0  0
 17 18  2  0  0  0  0
 17 27  1  0  0  0  0
 18 19  1  0  0  0  0
 19 20  2  0  0  0  0
 20 21  1  0  0  0  0
 20 26  1  0  0  0  0
 21 22  1  0  0  0  0
 22 23  2  0  0  0  0
 22 24  1  0  0  0  0
 24 25  1  0  0  0  0
 25 26  1  0  0  0  0
 26 27  2  0  0  0  0
 28 29  2  0  0  0  0
 29 30  1  0  0  0  0
 30 31  1  0  0  0  0
  1 32  1  0  0  0  0
  1 33  1  0  0  0  0
  1 34  1  0  0  0  0
  4 35  1  0  0  0  0
  5 36  1  0  0  0  0
 11 37  1  0  0  0  0
 11 38  1  0  0  0  0
 13 39  1  0  0  0  0
 14 40  1  0  0  0  0
 18 41  1  0  0  0  0
 19 42  1  0  0  0  0
 21 43  1  0  0  0  0
 24 44  1  0  0  0  0
 24 45  1  0  0  0  0
 27 46  1  0  0  0  0
 28 47  1  0  0  0  0
 31 48  1  0  0  0  0
 31 49  1  0  0  0  0
 31 50  1  0  0  0  0
M  END
> <IC50[nM]>
33.4

$$$$
CHEMBL3265025
  -OEChem-05192314333D
 Structure written by MMmdl.
 50 54  0     0  0  0  0  0  0999 V2000
   -4.2554   -3.1070   13.5667 C   0  0  0  0  0  0  0  0  0  0  0  0
   -3.8739   -2.3555   14.7096 O   0  0  0  0  0  0  0  0  0  0  0  0
   -2.5267   -2.1066   14.8132 C   0  0  0  0  0  0  0  0  0  0  0  0
   -1.7520   -2.8715   15.6749 C   0  0  0  0  0  0  0  0  0  0  0  0
   -0.3933   -2.6145   15.8117 C   0  0  0  0  0  0  0  0  0  0  0  0
    0.2196   -1.5878   15.0897 C   0  0  0  0  0  0  0  0  0  0  0  0
    1.6042   -1.3666   15.3298 N   0  0  0  0  0  0  0  0  0  0  0  0
    2.5249   -0.4338   14.7828 C   0  0  0  0  0  0  0  0  0  0  0  0
    2.1518    0.4044   13.7691 N   0  0  0  0  0  0  0  0  0  0  0  0
    3.0983    1.2388   13.2332 C   0  0  0  0  0  0  0  0  0  0  0  0
    4.4000    1.2764   13.7009 C   0  0  0  0  0  0  0  0  0  0  0  0
    4.7368    0.4928   14.7596 N   0  0  0  0  0  0  0  0  0  0  0  0
    5.8926    0.3911   15.4808 C   0  0  0  0  0  0  0  0  0  0  0  0
    5.6027   -0.5483   16.5053 C   0  0  0  0  0  0  0  0  0  0  0  0
    4.3885   -1.0602   16.3544 N   0  0  0  0  0  0  0  0  0  0  0  0
    3.8325   -0.3883   15.3309 C   0  0  0  0  0  0  0  0  0  0  0  0
    2.6407    2.1399   12.1271 C   0  0  0  0  0  0  0  0  0  0  0  0
    3.5584    2.6399   11.1674 C   0  0  0  0  0  0  0  0  0  0  0  0
    3.1117    3.4654   10.1220 C   0  0  0  0  0  0  0  0  0  0  0  0
    1.7626    3.8038   10.0403 C   0  0  0  0  0  0  0  0  0  0  0  0
    1.2975    4.6116    9.0072 N   0  0  0  0  0  0  0  0  0  0  0  0
   -0.0065    4.8513    8.7182 C   0  0  0  0  0  0  0  0  0  0  0  0
   -0.4123    5.6311    7.8553 O   0  0  0  0  0  0  0  0  0  0  0  0
   -0.9274    3.9668    9.6249 C   0  0  0  0  0  0  0  0  0  0  0  0
   -0.4391    3.7019   10.9584 O   0  0  0  0  0  0  0  0  0  0  0  0
    0.8806    3.3365   10.9991 C   0  0  0  0  0  0  0  0  0  0  0  0
    1.2955    2.5129   12.0280 C   0  0  0  0  0  0  0  0  0  0  0  0
   -0.5548   -0.8136   14.1938 C   0  0  0  0  0  0  0  0  0  0  0  0
   -1.9407   -1.0774   14.0650 C   0  0  0  0  0  0  0  0  0  0  0  0
   -2.7433   -0.3209   13.2263 O   0  0  0  0  0  0  0  0  0  0  0  0
   -2.1991    0.3702   12.1141 C   0  0  0  0  0  0  0  0  0  0  0  0
   -5.3455   -3.2544   13.5712 H   0  0  0  0  0  0  0  0  0  0  0  0
   -3.9628   -2.5635   12.6562 H   0  0  0  0  0  0  0  0  0  0  0  0
   -3.7532   -4.0854   13.5870 H   0  0  0  0  0  0  0  0  0  0  0  0
   -2.2076   -3.6701   16.2416 H   0  0  0  0  0  0  0  0  0  0  0  0
    0.1972   -3.2172   16.4859 H   0  0  0  0  0  0  0  0  0  0  0  0
    5.0530    0.9879   12.8640 H   0  0  0  0  0  0  0  0  0  0  0  0
    4.6106    2.3170   13.9885 H   0  0  0  0  0  0  0  0  0  0  0  0
    6.8233    0.9114   15.3092 H   0  0  0  0  0  0  0  0  0  0  0  0
    6.2818   -0.8115   17.3028 H   0  0  0  0  0  0  0  0  0  0  0  0
    4.6052    2.3847   11.2409 H   0  0  0  0  0  0  0  0  0  0  0  0
    3.8100    3.8355    9.3860 H   0  0  0  0  0  0  0  0  0  0  0  0
    0.3287    6.0392    7.4229 H   0  0  0  0  0  0  0  0  0  0  0  0
   -1.8979    4.4764    9.7172 H   0  0  0  0  0  0  0  0  0  0  0  0
   -1.0677    2.9997    9.1199 H   0  0  0  0  0  0  0  0  0  0  0  0
    0.5815    2.1569   12.7559 H   0  0  0  0  0  0  0  0  0  0  0  0
   -0.0934   -0.0284   13.6132 H   0  0  0  0  0  0  0  0  0  0  0  0
   -3.0020    0.9048   11.5853 H   0  0  0  0  0  0  0  0  0  0  0  0
   -1.4464    1.0922   12.4637 H   0  0  0  0  0  0  0  0  0  0  0  0
   -1.7263   -0.3503   11.4304 H   0  0  0  0  0  0  0  0  0  0  0  0
  1  2  1  0  0  0  0
  2  3  1  0  0  0  0
  3  4  2  0  0  0  0
  3 29  1  0  0  0  0
  4  5  1  0  0  0  0
  5  6  2  0  0  0  0
  6  7  1  0  0  0  0
  6 28  1  0  0  0  0
  7  8  2  0  0  0  0
  8  9  1  0  0  0  0
  8 16  1  0  0  0  0
  9 10  2  0  0  0  0
 10 11  1  0  0  0  0
 10 17  1  0  0  0  0
 11 12  1  0  0  0  0
 12 13  1  0  0  0  0
 12 16  1  0  0  0  0
 13 14  2  0  0  0  0
 14 15  1  0  0  0  0
 15 16  2  0  0  0  0
 17 18  2  0  0  0  0
 17 27  1  0  0  0  0
 18 19  1  0  0  0  0
 19 20  2  0  0  0  0
 20 21  1  0  0  0  0
 20 26  1  0  0  0  0
 21 22  2  0  0  0  0
 22 23  1  0  0  0  0
 22 24  1  0  0  0  0
 24 25  1  0  0  0  0
 25 26  1  0  0  0  0
 26 27  2  0  0  0  0
 28 29  2  0  0  0  0
 29 30  1  0  0  0  0
 30 31  1  0  0  0  0
  1 32  1  0  0  0  0
  1 33  1  0  0  0  0
  1 34  1  0  0  0  0
  4 35  1  0  0  0  0
  5 36  1  0  0  0  0
 11 37  1  0  0  0  0
 11 38  1  0  0  0  0
 13 39  1  0  0  0  0
 14 40  1  0  0  0  0
 18 41  1  0  0  0  0
 19 42  1  0  0  0  0
 23 43  1  0  0  0  0
 24 44  1  0  0  0  0
 24 45  1  0  0  0  0
 27 46  1  0  0  0  0
 28 47  1  0  0  0  0
 31 48  1  0  0  0  0
 31 49  1  0  0  0  0
 31 50  1  0  0  0  0
M  END
> <IC50[nM]>
33.4

$$$$
CHEMBL3265025
  -OEChem-05192314333D
 Structure written by MMmdl.
 50 54  0     0  0  0  0  0  0999 V2000
   -4.2554   -3.1070   13.5667 C   0  0  0  0  0  0  0  0  0  0  0  0
   -3.8739   -2.3555   14.7096 O   0  0  0  0  0  0  0  0  0  0  0  0
   -2.5267   -2.1066   14.8132 C   0  0  0  0  0  0  0  0  0  0  0  0
   -1.7520   -2.8715   15.6749 C   0  0  0  0  0  0  0  0  0  0  0  0
   -0.3933   -2.6145   15.8117 C   0  0  0  0  0  0  0  0  0  0  0  0
    0.2196   -1.5878   15.0897 C   0  0  0  0  0  0  0  0  0  0  0  0
    1.6042   -1.3666   15.3298 N   0  0  0  0  0  0  0  0  0  0  0  0
    2.5249   -0.4338   14.7828 C   0  0  0  0  0  0  0  0  0  0  0  0
    2.1518    0.4044   13.7691 N   0  0  0  0  0  0  0  0  0  0  0  0
    3.0983    1.2388   13.2332 C   0  0  0  0  0  0  0  0  0  0  0  0
    4.4000    1.2764   13.7009 C   0  0  0  0  0  0  0  0  0  0  0  0
    4.7368    0.4928   14.7596 N   0  0  0  0  0  0  0  0  0  0  0  0
    5.8926    0.3911   15.4808 C   0  0  0  0  0  0  0  0  0  0  0  0
    5.6027   -0.5483   16.5053 C   0  0  0  0  0  0  0  0  0  0  0  0
    4.3885   -1.0602   16.3544 N   0  0  0  0  0  0  0  0  0  0  0  0
    3.8325   -0.3883   15.3309 C   0  0  0  0  0  0  0  0  0  0  0  0
    2.6407    2.1399   12.1271 C   0  0  0  0  0  0  0  0  0  0  0  0
    3.5584    2.6399   11.1674 C   0  0  0  0  0  0  0  0  0  0  0  0
    3.1117    3.4654   10.1220 C   0  0  0  0  0  0  0  0  0  0  0  0
    1.7626    3.8038   10.0403 C   0  0  0  0  0  0  0  0  0  0  0  0
    1.2975    4.6116    9.0072 N   0  0  0  0  0  0  0  0  0  0  0  0
   -0.0065    4.8513    8.7182 C   0  0  0  0  0  0  0  0  0  0  0  0
   -0.4123    5.6311    7.8553 O   0  0  0  0  0  0  0  0  0  0  0  0
   -0.9274    3.9668    9.6249 C   0  0  0  0  0  0  0  0  0  0  0  0
   -0.4391    3.7019   10.9584 O   0  0  0  0  0  0  0  0  0  0  0  0
    0.8806    3.3365   10.9991 C   0  0  0  0  0  0  0  0  0  0  0  0
    1.2955    2.5129   12.0280 C   0  0  0  0  0  0  0  0  0  0  0  0
   -0.5548   -0.8136   14.1938 C   0  0  0  0  0  0  0  0  0  0  0  0
   -1.9407   -1.0774   14.0650 C   0  0  0  0  0  0  0  0  0  0  0  0
   -2.7433   -0.3209   13.2263 O   0  0  0  0  0  0  0  0  0  0  0  0
   -2.1991    0.3702   12.1141 C   0  0  0  0  0  0  0  0  0  0  0  0
   -5.3455   -3.2544   13.5712 H   0  0  0  0  0  0  0  0  0  0  0  0
   -3.9628   -2.5635   12.6562 H   0  0  0  0  0  0  0  0  0  0  0  0
   -3.7532   -4.0854   13.5870 H   0  0  0  0  0  0  0  0  0  0  0  0
   -2.2076   -3.6701   16.2416 H   0  0  0  0  0  0  0  0  0  0  0  0
    0.1972   -3.2172   16.4859 H   0  0  0  0  0  0  0  0  0  0  0  0
    2.0031   -1.9819   16.0097 H   0  0  0  0  0  0  0  0  0  0  0  0
    5.0530    0.9879   12.8640 H   0  0  0  0  0  0  0  0  0  0  0  0
    4.6106    2.3170   13.9885 H   0  0  0  0  0  0  0  0  0  0  0  0
    6.8233    0.9114   15.3092 H   0  0  0  0  0  0  0  0  0  0  0  0
    6.2818   -0.8115   17.3028 H   0  0  0  0  0  0  0  0  0  0  0  0
    4.6052    2.3847   11.2409 H   0  0  0  0  0  0  0  0  0  0  0  0
    3.8100    3.8355    9.3860 H   0  0  0  0  0  0  0  0  0  0  0  0
   -1.8979    4.4764    9.7172 H   0  0  0  0  0  0  0  0  0  0  0  0
   -1.0677    2.9997    9.1199 H   0  0  0  0  0  0  0  0  0  0  0  0
    0.5815    2.1569   12.7559 H   0  0  0  0  0  0  0  0  0  0  0  0
   -0.0934   -0.0284   13.6132 H   0  0  0  0  0  0  0  0  0  0  0  0
   -3.0020    0.9048   11.5853 H   0  0  0  0  0  0  0  0  0  0  0  0
   -1.4464    1.0922   12.4637 H   0  0  0  0  0  0  0  0  0  0  0  0
   -1.7263   -0.3503   11.4304 H   0  0  0  0  0  0  0  0  0  0  0  0
  1  2  1  0  0  0  0
  2  3  1  0  0  0  0
  3  4  2  0  0  0  0
  3 29  1  0  0  0  0
  4  5  1  0  0  0  0
  5  6  2  0  0  0  0
  6  7  1  0  0  0  0
  6 28  1  0  0  0  0
  7  8  1  0  0  0  0
  8  9  2  0  0  0  0
  8 16  1  0  0  0  0
  9 10  1  0  0  0  0
 10 11  1  0  0  0  0
 10 17  2  0  0  0  0
 11 12  1  0  0  0  0
 12 13  1  0  0  0  0
 12 16  1  0  0  0  0
 13 14  2  0  0  0  0
 14 15  1  0  0  0  0
 15 16  2  0  0  0  0
 17 18  1  0  0  0  0
 17 27  1  0  0  0  0
 18 19  2  0  0  0  0
 19 20  1  0  0  0  0
 20 21  2  0  0  0  0
 20 26  1  0  0  0  0
 21 22  1  0  0  0  0
 22 23  2  0  0  0  0
 22 24  1  0  0  0  0
 24 25  1  0  0  0  0
 25 26  1  0  0  0  0
 26 27  2  0  0  0  0
 28 29  2  0  0  0  0
 29 30  1  0  0  0  0
 30 31  1  0  0  0  0
  1 32  1  0  0  0  0
  1 33  1  0  0  0  0
  1 34  1  0  0  0  0
  4 35  1  0  0  0  0
  5 36  1  0  0  0  0
  7 37  1  0  0  0  0
 11 38  1  0  0  0  0
 11 39  1  0  0  0  0
 13 40  1  0  0  0  0
 14 41  1  0  0  0  0
 18 42  1  0  0  0  0
 19 43  1  0  0  0  0
 24 44  1  0  0  0  0
 24 45  1  0  0  0  0
 27 46  1  0  0  0  0
 28 47  1  0  0  0  0
 31 48  1  0  0  0  0
 31 49  1  0  0  0  0
 31 50  1  0  0  0  0
M  END
> <IC50[nM]>
33.4

$$$$
CHEMBL3265025
  -OEChem-05192314333D
 Structure written by MMmdl.
 50 54  0     0  0  0  0  0  0999 V2000
   -4.2554   -3.1070   13.5667 C   0  0  0  0  0  0  0  0  0  0  0  0
   -3.8739   -2.3555   14.7096 O   0  0  0  0  0  0  0  0  0  0  0  0
   -2.5267   -2.1066   14.8132 C   0  0  0  0  0  0  0  0  0  0  0  0
   -1.7520   -2.8715   15.6749 C   0  0  0  0  0  0  0  0  0  0  0  0
   -0.3933   -2.6145   15.8117 C   0  0  0  0  0  0  0  0  0  0  0  0
    0.2196   -1.5878   15.0897 C   0  0  0  0  0  0  0  0  0  0  0  0
    1.6042   -1.3666   15.3298 N   0  0  0  0  0  0  0  0  0  0  0  0
    2.5249   -0.4338   14.7828 C   0  0  0  0  0  0  0  0  0  0  0  0
    2.1518    0.4044   13.7691 N   0  0  0  0  0  0  0  0  0  0  0  0
    3.0983    1.2388   13.2332 C   0  0  0  0  0  0  0  0  0  0  0  0
    4.4000    1.2764   13.7009 C   0  0  0  0  0  0  0  0  0  0  0  0
    4.7368    0.4928   14.7596 N   0  0  0  0  0  0  0  0  0  0  0  0
    5.8926    0.3911   15.4808 C   0  0  0  0  0  0  0  0  0  0  0  0
    5.6027   -0.5483   16.5053 C   0  0  0  0  0  0  0  0  0  0  0  0
    4.3885   -1.0602   16.3544 N   0  0  0  0  0  0  0  0  0  0  0  0
    3.8325   -0.3883   15.3309 C   0  0  0  0  0  0  0  0  0  0  0  0
    2.6407    2.1399   12.1271 C   0  0  0  0  0  0  0  0  0  0  0  0
    3.5584    2.6399   11.1674 C   0  0  0  0  0  0  0  0  0  0  0  0
    3.1117    3.4654   10.1220 C   0  0  0  0  0  0  0  0  0  0  0  0
    1.7626    3.8038   10.0403 C   0  0  0  0  0  0  0  0  0  0  0  0
    1.2975    4.6116    9.0072 N   0  0  0  0  0  0  0  0  0  0  0  0
   -0.0065    4.8513    8.7182 C   0  0  0  0  0  0  0  0  0  0  0  0
   -0.4123    5.6311    7.8553 O   0  0  0  0  0  0  0  0  0  0  0  0
   -0.9274    3.9668    9.6249 C   0  0  0  0  0  0  0  0  0  0  0  0
   -0.4391    3.7019   10.9584 O   0  0  0  0  0  0  0  0  0  0  0  0
    0.8806    3.3365   10.9991 C   0  0  0  0  0  0  0  0  0  0  0  0
    1.2955    2.5129   12.0280 C   0  0  0  0  0  0  0  0  0  0  0  0
   -0.5548   -0.8136   14.1938 C   0  0  0  0  0  0  0  0  0  0  0  0
   -1.9407   -1.0774   14.0650 C   0  0  0  0  0  0  0  0  0  0  0  0
   -2.7433   -0.3209   13.2263 O   0  0  0  0  0  0  0  0  0  0  0  0
   -2.1991    0.3702   12.1141 C   0  0  0  0  0  0  0  0  0  0  0  0
   -5.3455   -3.2544   13.5712 H   0  0  0  0  0  0  0  0  0  0  0  0
   -3.9628   -2.5635   12.6562 H   0  0  0  0  0  0  0  0  0  0  0  0
   -3.7532   -4.0854   13.5870 H   0  0  0  0  0  0  0  0  0  0  0  0
   -2.2076   -3.6701   16.2416 H   0  0  0  0  0  0  0  0  0  0  0  0
    0.1972   -3.2172   16.4859 H   0  0  0  0  0  0  0  0  0  0  0  0
    1.2121    0.4087   13.4272 H   0  0  0  0  0  0  0  0  0  0  0  0
    5.0530    0.9879   12.8640 H   0  0  0  0  0  0  0  0  0  0  0  0
    4.6106    2.3170   13.9885 H   0  0  0  0  0  0  0  0  0  0  0  0
    6.8233    0.9114   15.3092 H   0  0  0  0  0  0  0  0  0  0  0  0
    6.2818   -0.8115   17.3028 H   0  0  0  0  0  0  0  0  0  0  0  0
    4.6052    2.3847   11.2409 H   0  0  0  0  0  0  0  0  0  0  0  0
    3.8100    3.8355    9.3860 H   0  0  0  0  0  0  0  0  0  0  0  0
   -1.8979    4.4764    9.7172 H   0  0  0  0  0  0  0  0  0  0  0  0
   -1.0677    2.9997    9.1199 H   0  0  0  0  0  0  0  0  0  0  0  0
    0.5815    2.1569   12.7559 H   0  0  0  0  0  0  0  0  0  0  0  0
   -0.0934   -0.0284   13.6132 H   0  0  0  0  0  0  0  0  0  0  0  0
   -3.0020    0.9048   11.5853 H   0  0  0  0  0  0  0  0  0  0  0  0
   -1.4464    1.0922   12.4637 H   0  0  0  0  0  0  0  0  0  0  0  0
   -1.7263   -0.3503   11.4304 H   0  0  0  0  0  0  0  0  0  0  0  0
  1  2  1  0  0  0  0
  2  3  1  0  0  0  0
  3  4  2  0  0  0  0
  3 29  1  0  0  0  0
  4  5  1  0  0  0  0
  5  6  2  0  0  0  0
  6  7  1  0  0  0  0
  6 28  1  0  0  0  0
  7  8  2  0  0  0  0
  8  9  1  0  0  0  0
  8 16  1  0  0  0  0
  9 10  1  0  0  0  0
 10 11  1  0  0  0  0
 10 17  2  0  0  0  0
 11 12  1  0  0  0  0
 12 13  1  0  0  0  0
 12 16  1  0  0  0  0
 13 14  2  0  0  0  0
 14 15  1  0  0  0  0
 15 16  2  0  0  0  0
 17 18  1  0  0  0  0
 17 27  1  0  0  0  0
 18 19  2  0  0  0  0
 19 20  1  0  0  0  0
 20 21  2  0  0  0  0
 20 26  1  0  0  0  0
 21 22  1  0  0  0  0
 22 23  2  0  0  0  0
 22 24  1  0  0  0  0
 24 25  1  0  0  0  0
 25 26  1  0  0  0  0
 26 27  2  0  0  0  0
 28 29  2  0  0  0  0
 29 30  1  0  0  0  0
 30 31  1  0  0  0  0
  1 32  1  0  0  0  0
  1 33  1  0  0  0  0
  1 34  1  0  0  0  0
  4 35  1  0  0  0  0
  5 36  1  0  0  0  0
  9 37  1  0  0  0  0
 11 38  1  0  0  0  0
 11 39  1  0  0  0  0
 13 40  1  0  0  0  0
 14 41  1  0  0  0  0
 18 42  1  0  0  0  0
 19 43  1  0  0  0  0
 24 44  1  0  0  0  0
 24 45  1  0  0  0  0
 27 46  1  0  0  0  0
 28 47  1  0  0  0  0
 31 48  1  0  0  0  0
 31 49  1  0  0  0  0
 31 50  1  0  0  0  0
M  END
> <IC50[nM]>
33.4

$$$$
CHEMBL3265025
  -OEChem-05192314333D
 Structure written by MMmdl.
 50 54  0     1  0  0  0  0  0999 V2000
   -4.2554   -3.1070   13.5667 C   0  0  0  0  0  0  0  0  0  0  0  0
   -3.8739   -2.3555   14.7096 O   0  0  0  0  0  0  0  0  0  0  0  0
   -2.5267   -2.1066   14.8132 C   0  0  3  0  0  0  0  0  0  0  0  0
   -1.7520   -2.8715   15.6749 C   0  0  0  0  0  0  0  0  0  0  0  0
   -0.3933   -2.6145   15.8117 C   0  0  0  0  0  0  0  0  0  0  0  0
    0.2196   -1.5878   15.0897 C   0  0  0  0  0  0  0  0  0  0  0  0
    1.6042   -1.3666   15.3298 N   0  0  0  0  0  0  0  0  0  0  0  0
    2.5249   -0.4338   14.7828 C   0  0  0  0  0  0  0  0  0  0  0  0
    2.1518    0.4044   13.7691 N   0  0  0  0  0  0  0  0  0  0  0  0
    3.0983    1.2388   13.2332 C   0  0  0  0  0  0  0  0  0  0  0  0
    4.4000    1.2764   13.7009 C   0  0  0  0  0  0  0  0  0  0  0  0
    4.7368    0.4928   14.7596 N   0  0  0  0  0  0  0  0  0  0  0  0
    5.8926    0.3911   15.4808 C   0  0  0  0  0  0  0  0  0  0  0  0
    5.6027   -0.5483   16.5053 C   0  0  0  0  0  0  0  0  0  0  0  0
    4.3885   -1.0602   16.3544 N   0  0  0  0  0  0  0  0  0  0  0  0
    3.8325   -0.3883   15.3309 C   0  0  0  0  0  0  0  0  0  0  0  0
    2.6407    2.1399   12.1271 C   0  0  0  0  0  0  0  0  0  0  0  0
    3.5584    2.6399   11.1674 C   0  0  0  0  0  0  0  0  0  0  0  0
    3.1117    3.4654   10.1220 C   0  0  0  0  0  0  0  0  0  0  0  0
    1.7626    3.8038   10.0403 C   0  0  0  0  0  0  0  0  0  0  0  0
    1.2975    4.6116    9.0072 N   0  0  0  0  0  0  0  0  0  0  0  0
   -0.0065    4.8513    8.7182 C   0  0  0  0  0  0  0  0  0  0  0  0
   -0.4123    5.6311    7.8553 O   0  0  0  0  0  0  0  0  0  0  0  0
   -0.9274    3.9668    9.6249 C   0  0  0  0  0  0  0  0  0  0  0  0
   -0.4391    3.7019   10.9584 O   0  0  0  0  0  0  0  0  0  0  0  0
    0.8806    3.3365   10.9991 C   0  0  0  0  0  0  0  0  0  0  0  0
    1.2955    2.5129   12.0280 C   0  0  0  0  0  0  0  0  0  0  0  0
   -0.5548   -0.8136   14.1938 C   0  0  0  0  0  0  0  0  0  0  0  0
   -1.9407   -1.0774   14.0650 C   0  0  0  0  0  0  0  0  0  0  0  0
   -2.7433   -0.3209   13.2263 O   0  0  0  0  0  0  0  0  0  0  0  0
   -2.1991    0.3702   12.1141 C   0  0  0  0  0  0  0  0  0  0  0  0
   -5.3455   -3.2544   13.5712 H   0  0  0  0  0  0  0  0  0  0  0  0
   -3.9628   -2.5635   12.6562 H   0  0  0  0  0  0  0  0  0  0  0  0
   -3.7532   -4.0854   13.5870 H   0  0  0  0  0  0  0  0  0  0  0  0
   -2.3286   -2.8176   13.9976 H   0  0  0  0  0  0  0  0  0  0  0  0
   -2.2076   -3.6701   16.2416 H   0  0  0  0  0  0  0  0  0  0  0  0
    0.1972   -3.2172   16.4859 H   0  0  0  0  0  0  0  0  0  0  0  0
    5.1344    1.9160   13.2339 H   0  0  0  0  0  0  0  0  0  0  0  0
    6.8233    0.9114   15.3092 H   0  0  0  0  0  0  0  0  0  0  0  0
    6.2818   -0.8115   17.3028 H   0  0  0  0  0  0  0  0  0  0  0  0
    4.6052    2.3847   11.2409 H   0  0  0  0  0  0  0  0  0  0  0  0
    3.8100    3.8355    9.3860 H   0  0  0  0  0  0  0  0  0  0  0  0
    1.9828    5.0533    8.4282 H   0  0  0  0  0  0  0  0  0  0  0  0
   -1.8979    4.4764    9.7172 H   0  0  0  0  0  0  0  0  0  0  0  0
   -1.0677    2.9997    9.1199 H   0  0  0  0  0  0  0  0  0  0  0  0
    0.5815    2.1569   12.7559 H   0  0  0  0  0  0  0  0  0  0  0  0
   -0.0934   -0.0284   13.6132 H   0  0  0  0  0  0  0  0  0  0  0  0
   -3.0020    0.9048   11.5853 H   0  0  0  0  0  0  0  0  0  0  0  0
   -1.4464    1.0922   12.4637 H   0  0  0  0  0  0  0  0  0  0  0  0
   -1.7263   -0.3503   11.4304 H   0  0  0  0  0  0  0  0  0  0  0  0
  1  2  1  0  0  0  0
  2  3  1  0  0  0  0
  3  4  1  0  0  0  0
  3 29  1  0  0  0  0
  4  5  2  0  0  0  0
  5  6  1  0  0  0  0
  6  7  2  0  0  0  0
  6 28  1  0  0  0  0
  7  8  1  0  0  0  0
  8  9  2  0  0  0  0
  8 16  1  0  0  0  0
  9 10  1  0  0  0  0
 10 11  2  0  0  0  0
 10 17  1  0  0  0  0
 11 12  1  0  0  0  0
 12 13  1  0  0  0  0
 12 16  1  0  0  0  0
 13 14  2  0  0  0  0
 14 15  1  0  0  0  0
 15 16  2  0  0  0  0
 17 18  2  0  0  0  0
 17 27  1  0  0  0  0
 18 19  1  0  0  0  0
 19 20  2  0  0  0  0
 20 21  1  0  0  0  0
 20 26  1  0  0  0  0
 21 22  1  0  0  0  0
 22 23  2  0  0  0  0
 22 24  1  0  0  0  0
 24 25  1  0  0  0  0
 25 26  1  0  0  0  0
 26 27  2  0  0  0  0
 28 29  2  0  0  0  0
 29 30  1  0  0  0  0
 30 31  1  0  0  0  0
  1 32  1  0  0  0  0
  1 33  1  0  0  0  0
  1 34  1  0  0  0  0
  3 35  1  0  0  0  0
  4 36  1  0  0  0  0
  5 37  1  0  0  0  0
 11 38  1  0  0  0  0
 13 39  1  0  0  0  0
 14 40  1  0  0  0  0
 18 41  1  0  0  0  0
 19 42  1  0  0  0  0
 21 43  1  0  0  0  0
 24 44  1  0  0  0  0
 24 45  1  0  0  0  0
 27 46  1  0  0  0  0
 28 47  1  0  0  0  0
 31 48  1  0  0  0  0
 31 49  1  0  0  0  0
 31 50  1  0  0  0  0
M  END
> <IC50[nM]>
33.4

$$$$
CHEMBL3265025
  -OEChem-05192314333D
 Structure written by MMmdl.
 50 54  0     0  0  0  0  0  0999 V2000
   -4.2554   -3.1070   13.5667 C   0  0  0  0  0  0  0  0  0  0  0  0
   -3.8739   -2.3555   14.7096 O   0  0  0  0  0  0  0  0  0  0  0  0
   -2.5267   -2.1066   14.8132 C   0  0  0  0  0  0  0  0  0  0  0  0
   -1.7520   -2.8715   15.6749 C   0  0  0  0  0  0  0  0  0  0  0  0
   -0.3933   -2.6145   15.8117 C   0  0  0  0  0  0  0  0  0  0  0  0
    0.2196   -1.5878   15.0897 C   0  0  0  0  0  0  0  0  0  0  0  0
    1.6042   -1.3666   15.3298 N   0  0  0  0  0  0  0  0  0  0  0  0
    2.5249   -0.4338   14.7828 C   0  0  0  0  0  0  0  0  0  0  0  0
    2.1518    0.4044   13.7691 N   0  0  0  0  0  0  0  0  0  0  0  0
    3.0983    1.2388   13.2332 C   0  0  0  0  0  0  0  0  0  0  0  0
    4.4000    1.2764   13.7009 C   0  0  0  0  0  0  0  0  0  0  0  0
    4.7368    0.4928   14.7596 N   0  0  0  0  0  0  0  0  0  0  0  0
    5.8926    0.3911   15.4808 C   0  0  0  0  0  0  0  0  0  0  0  0
    5.6027   -0.5483   16.5053 C   0  0  0  0  0  0  0  0  0  0  0  0
    4.3885   -1.0602   16.3544 N   0  0  0  0  0  0  0  0  0  0  0  0
    3.8325   -0.3883   15.3309 C   0  0  0  0  0  0  0  0  0  0  0  0
    2.6407    2.1399   12.1271 C   0  0  0  0  0  0  0  0  0  0  0  0
    3.5584    2.6399   11.1674 C   0  0  0  0  0  0  0  0  0  0  0  0
    3.1117    3.4654   10.1220 C   0  0  0  0  0  0  0  0  0  0  0  0
    1.7626    3.8038   10.0403 C   0  0  0  0  0  0  0  0  0  0  0  0
    1.2975    4.6116    9.0072 N   0  0  0  0  0  0  0  0  0  0  0  0
   -0.0065    4.8513    8.7182 C   0  0  0  0  0  0  0  0  0  0  0  0
   -0.4123    5.6311    7.8553 O   0  0  0  0  0  0  0  0  0  0  0  0
   -0.9274    3.9668    9.6249 C   0  0  0  0  0  0  0  0  0  0  0  0
   -0.4391    3.7019   10.9584 O   0  0  0  0  0  0  0  0  0  0  0  0
    0.8806    3.3365   10.9991 C   0  0  0  0  0  0  0  0  0  0  0  0
    1.2955    2.5129   12.0280 C   0  0  0  0  0  0  0  0  0  0  0  0
   -0.5548   -0.8136   14.1938 C   0  0  0  0  0  0  0  0  0  0  0  0
   -1.9407   -1.0774   14.0650 C   0  0  0  0  0  0  0  0  0  0  0  0
   -2.7433   -0.3209   13.2263 O   0  0  0  0  0  0  0  0  0  0  0  0
   -2.1991    0.3702   12.1141 C   0  0  0  0  0  0  0  0  0  0  0  0
   -5.3455   -3.2544   13.5712 H   0  0  0  0  0  0  0  0  0  0  0  0
   -3.9628   -2.5635   12.6562 H   0  0  0  0  0  0  0  0  0  0  0  0
   -3.7532   -4.0854   13.5870 H   0  0  0  0  0  0  0  0  0  0  0  0
   -2.2076   -3.6701   16.2416 H   0  0  0  0  0  0  0  0  0  0  0  0
   -0.2219   -2.3944   16.8757 H   0  0  0  0  0  0  0  0  0  0  0  0
    0.1298   -3.5434   15.5405 H   0  0  0  0  0  0  0  0  0  0  0  0
    5.1344    1.9160   13.2339 H   0  0  0  0  0  0  0  0  0  0  0  0
    6.8233    0.9114   15.3092 H   0  0  0  0  0  0  0  0  0  0  0  0
    6.2818   -0.8115   17.3028 H   0  0  0  0  0  0  0  0  0  0  0  0
    4.6052    2.3847   11.2409 H   0  0  0  0  0  0  0  0  0  0  0  0
    3.8100    3.8355    9.3860 H   0  0  0  0  0  0  0  0  0  0  0  0
    1.9828    5.0533    8.4282 H   0  0  0  0  0  0  0  0  0  0  0  0
   -1.8979    4.4764    9.7172 H   0  0  0  0  0  0  0  0  0  0  0  0
   -1.0677    2.9997    9.1199 H   0  0  0  0  0  0  0  0  0  0  0  0
    0.5815    2.1569   12.7559 H   0  0  0  0  0  0  0  0  0  0  0  0
   -0.0934   -0.0284   13.6132 H   0  0  0  0  0  0  0  0  0  0  0  0
   -3.0020    0.9048   11.5853 H   0  0  0  0  0  0  0  0  0  0  0  0
   -1.4464    1.0922   12.4637 H   0  0  0  0  0  0  0  0  0  0  0  0
   -1.7263   -0.3503   11.4304 H   0  0  0  0  0  0  0  0  0  0  0  0
  1  2  1  0  0  0  0
  2  3  1  0  0  0  0
  3  4  2  0  0  0  0
  3 29  1  0  0  0  0
  4  5  1  0  0  0  0
  5  6  1  0  0  0  0
  6  7  2  0  0  0  0
  6 28  1  0  0  0  0
  7  8  1  0  0  0  0
  8  9  2  0  0  0  0
  8 16  1  0  0  0  0
  9 10  1  0  0  0  0
 10 11  2  0  0  0  0
 10 17  1  0  0  0  0
 11 12  1  0  0  0  0
 12 13  1  0  0  0  0
 12 16  1  0  0  0  0
 13 14  2  0  0  0  0
 14 15  1  0  0  0  0
 15 16  2  0  0  0  0
 17 18  2  0  0  0  0
 17 27  1  0  0  0  0
 18 19  1  0  0  0  0
 19 20  2  0  0  0  0
 20 21  1  0  0  0  0
 20 26  1  0  0  0  0
 21 22  1  0  0  0  0
 22 23  2  0  0  0  0
 22 24  1  0  0  0  0
 24 25  1  0  0  0  0
 25 26  1  0  0  0  0
 26 27  2  0  0  0  0
 28 29  2  0  0  0  0
 29 30  1  0  0  0  0
 30 31  1  0  0  0  0
  1 32  1  0  0  0  0
  1 33  1  0  0  0  0
  1 34  1  0  0  0  0
  4 35  1  0  0  0  0
  5 36  1  0  0  0  0
  5 37  1  0  0  0  0
 11 38  1  0  0  0  0
 13 39  1  0  0  0  0
 14 40  1  0  0  0  0
 18 41  1  0  0  0  0
 19 42  1  0  0  0  0
 21 43  1  0  0  0  0
 24 44  1  0  0  0  0
 24 45  1  0  0  0  0
 27 46  1  0  0  0  0
 28 47  1  0  0  0  0
 31 48  1  0  0  0  0
 31 49  1  0  0  0  0
 31 50  1  0  0  0  0
M  END
> <IC50[nM]>
33.4

$$$$
CHEMBL3265025
  -OEChem-05192314333D
 Structure written by MMmdl.
 50 54  0     0  0  0  0  0  0999 V2000
   -4.2554   -3.1070   13.5667 C   0  0  0  0  0  0  0  0  0  0  0  0
   -3.8739   -2.3555   14.7096 O   0  0  0  0  0  0  0  0  0  0  0  0
   -2.5267   -2.1066   14.8132 C   0  0  0  0  0  0  0  0  0  0  0  0
   -1.7520   -2.8715   15.6749 C   0  0  0  0  0  0  0  0  0  0  0  0
   -0.3933   -2.6145   15.8117 C   0  0  0  0  0  0  0  0  0  0  0  0
    0.2196   -1.5878   15.0897 C   0  0  0  0  0  0  0  0  0  0  0  0
    1.6042   -1.3666   15.3298 N   0  0  0  0  0  0  0  0  0  0  0  0
    2.5249   -0.4338   14.7828 C   0  0  0  0  0  0  0  0  0  0  0  0
    2.1518    0.4044   13.7691 N   0  0  0  0  0  0  0  0  0  0  0  0
    3.0983    1.2388   13.2332 C   0  0  0  0  0  0  0  0  0  0  0  0
    4.4000    1.2764   13.7009 C   0  0  0  0  0  0  0  0  0  0  0  0
    4.7368    0.4928   14.7596 N   0  0  0  0  0  0  0  0  0  0  0  0
    5.8926    0.3911   15.4808 C   0  0  0  0  0  0  0  0  0  0  0  0
    5.6027   -0.5483   16.5053 C   0  0  0  0  0  0  0  0  0  0  0  0
    4.3885   -1.0602   16.3544 N   0  0  0  0  0  0  0  0  0  0  0  0
    3.8325   -0.3883   15.3309 C   0  0  0  0  0  0  0  0  0  0  0  0
    2.6407    2.1399   12.1271 C   0  0  0  0  0  0  0  0  0  0  0  0
    3.5584    2.6399   11.1674 C   0  0  0  0  0  0  0  0  0  0  0  0
    3.1117    3.4654   10.1220 C   0  0  0  0  0  0  0  0  0  0  0  0
    1.7626    3.8038   10.0403 C   0  0  0  0  0  0  0  0  0  0  0  0
    1.2975    4.6116    9.0072 N   0  0  0  0  0  0  0  0  0  0  0  0
   -0.0065    4.8513    8.7182 C   0  0  0  0  0  0  0  0  0  0  0  0
   -0.4123    5.6311    7.8553 O   0  0  0  0  0  0  0  0  0  0  0  0
   -0.9274    3.9668    9.6249 C   0  0  0  0  0  0  0  0  0  0  0  0
   -0.4391    3.7019   10.9584 O   0  0  0  0  0  0  0  0  0  0  0  0
    0.8806    3.3365   10.9991 C   0  0  0  0  0  0  0  0  0  0  0  0
    1.2955    2.5129   12.0280 C   0  0  0  0  0  0  0  0  0  0  0  0
   -0.5548   -0.8136   14.1938 C   0  0  0  0  0  0  0  0  0  0  0  0
   -1.9407   -1.0774   14.0650 C   0  0  0  0  0  0  0  0  0  0  0  0
   -2.7433   -0.3209   13.2263 O   0  0  0  0  0  0  0  0  0  0  0  0
   -2.1991    0.3702   12.1141 C   0  0  0  0  0  0  0  0  0  0  0  0
   -5.3455   -3.2544   13.5712 H   0  0  0  0  0  0  0  0  0  0  0  0
   -3.9628   -2.5635   12.6562 H   0  0  0  0  0  0  0  0  0  0  0  0
   -3.7532   -4.0854   13.5870 H   0  0  0  0  0  0  0  0  0  0  0  0
   -2.2076   -3.6701   16.2416 H   0  0  0  0  0  0  0  0  0  0  0  0
    0.1972   -3.2172   16.4859 H   0  0  0  0  0  0  0  0  0  0  0  0
    5.1344    1.9160   13.2339 H   0  0  0  0  0  0  0  0  0  0  0  0
    6.8233    0.9114   15.3092 H   0  0  0  0  0  0  0  0  0  0  0  0
    6.2818   -0.8115   17.3028 H   0  0  0  0  0  0  0  0  0  0  0  0
    4.6052    2.3847   11.2409 H   0  0  0  0  0  0  0  0  0  0  0  0
    3.8100    3.8355    9.3860 H   0  0  0  0  0  0  0  0  0  0  0  0
    1.9828    5.0533    8.4282 H   0  0  0  0  0  0  0  0  0  0  0  0
   -1.8979    4.4764    9.7172 H   0  0  0  0  0  0  0  0  0  0  0  0
   -1.0677    2.9997    9.1199 H   0  0  0  0  0  0  0  0  0  0  0  0
    0.5815    2.1569   12.7559 H   0  0  0  0  0  0  0  0  0  0  0  0
   -0.4564    0.2355   14.5095 H   0  0  0  0  0  0  0  0  0  0  0  0
   -0.1106   -0.9393   13.1953 H   0  0  0  0  0  0  0  0  0  0  0  0
   -3.0020    0.9048   11.5853 H   0  0  0  0  0  0  0  0  0  0  0  0
   -1.4464    1.0922   12.4637 H   0  0  0  0  0  0  0  0  0  0  0  0
   -1.7263   -0.3503   11.4304 H   0  0  0  0  0  0  0  0  0  0  0  0
  1  2  1  0  0  0  0
  2  3  1  0  0  0  0
  3  4  1  0  0  0  0
  3 29  2  0  0  0  0
  4  5  2  0  0  0  0
  5  6  1  0  0  0  0
  6  7  2  0  0  0  0
  6 28  1  0  0  0  0
  7  8  1  0  0  0  0
  8  9  2  0  0  0  0
  8 16  1  0  0  0  0
  9 10  1  0  0  0  0
 10 11  2  0  0  0  0
 10 17  1  0  0  0  0
 11 12  1  0  0  0  0
 12 13  1  0  0  0  0
 12 16  1  0  0  0  0
 13 14  2  0  0  0  0
 14 15  1  0  0  0  0
 15 16  2  0  0  0  0
 17 18  2  0  0  0  0
 17 27  1  0  0  0  0
 18 19  1  0  0  0  0
 19 20  2  0  0  0  0
 20 21  1  0  0  0  0
 20 26  1  0  0  0  0
 21 22  1  0  0  0  0
 22 23  2  0  0  0  0
 22 24  1  0  0  0  0
 24 25  1  0  0  0  0
 25 26  1  0  0  0  0
 26 27  2  0  0  0  0
 28 29  1  0  0  0  0
 29 30  1  0  0  0  0
 30 31  1  0  0  0  0
  1 32  1  0  0  0  0
  1 33  1  0  0  0  0
  1 34  1  0  0  0  0
  4 35  1  0  0  0  0
  5 36  1  0  0  0  0
 11 37  1  0  0  0  0
 13 38  1  0  0  0  0
 14 39  1  0  0  0  0
 18 40  1  0  0  0  0
 19 41  1  0  0  0  0
 21 42  1  0  0  0  0
 24 43  1  0  0  0  0
 24 44  1  0  0  0  0
 27 45  1  0  0  0  0
 28 46  1  0  0  0  0
 28 47  1  0  0  0  0
 31 48  1  0  0  0  0
 31 49  1  0  0  0  0
 31 50  1  0  0  0  0
M  END
> <IC50[nM]>
33.4

$$$$
CHEMBL3265025
  -OEChem-05192314333D
 Structure written by MMmdl.
 50 54  0     1  0  0  0  0  0999 V2000
   -4.2554   -3.1070   13.5667 C   0  0  0  0  0  0  0  0  0  0  0  0
   -3.8739   -2.3555   14.7096 O   0  0  0  0  0  0  0  0  0  0  0  0
   -2.5267   -2.1066   14.8132 C   0  0  0  0  0  0  0  0  0  0  0  0
   -1.7520   -2.8715   15.6749 C   0  0  0  0  0  0  0  0  0  0  0  0
   -0.3933   -2.6145   15.8117 C   0  0  0  0  0  0  0  0  0  0  0  0
    0.2196   -1.5878   15.0897 C   0  0  0  0  0  0  0  0  0  0  0  0
    1.6042   -1.3666   15.3298 N   0  0  0  0  0  0  0  0  0  0  0  0
    2.5249   -0.4338   14.7828 C   0  0  0  0  0  0  0  0  0  0  0  0
    2.1518    0.4044   13.7691 N   0  0  0  0  0  0  0  0  0  0  0  0
    3.0983    1.2388   13.2332 C   0  0  0  0  0  0  0  0  0  0  0  0
    4.4000    1.2764   13.7009 C   0  0  0  0  0  0  0  0  0  0  0  0
    4.7368    0.4928   14.7596 N   0  0  0  0  0  0  0  0  0  0  0  0
    5.8926    0.3911   15.4808 C   0  0  0  0  0  0  0  0  0  0  0  0
    5.6027   -0.5483   16.5053 C   0  0  0  0  0  0  0  0  0  0  0  0
    4.3885   -1.0602   16.3544 N   0  0  0  0  0  0  0  0  0  0  0  0
    3.8325   -0.3883   15.3309 C   0  0  0  0  0  0  0  0  0  0  0  0
    2.6407    2.1399   12.1271 C   0  0  3  0  0  0  0  0  0  0  0  0
    3.5584    2.6399   11.1674 C   0  0  0  0  0  0  0  0  0  0  0  0
    3.1117    3.4654   10.1220 C   0  0  0  0  0  0  0  0  0  0  0  0
    1.7626    3.8038   10.0403 C   0  0  0  0  0  0  0  0  0  0  0  0
    1.2975    4.6116    9.0072 N   0  0  0  0  0  0  0  0  0  0  0  0
   -0.0065    4.8513    8.7182 C   0  0  0  0  0  0  0  0  0  0  0  0
   -0.4123    5.6311    7.8553 O   0  0  0  0  0  0  0  0  0  0  0  0
   -0.9274    3.9668    9.6249 C   0  0  0  0  0  0  0  0  0  0  0  0
   -0.4391    3.7019   10.9584 O   0  0  0  0  0  0  0  0  0  0  0  0
    0.8806    3.3365   10.9991 C   0  0  0  0  0  0  0  0  0  0  0  0
    1.2955    2.5129   12.0280 C   0  0  0  0  0  0  0  0  0  0  0  0
   -0.5548   -0.8136   14.1938 C   0  0  0  0  0  0  0  0  0  0  0  0
   -1.9407   -1.0774   14.0650 C   0  0  0  0  0  0  0  0  0  0  0  0
   -2.7433   -0.3209   13.2263 O   0  0  0  0  0  0  0  0  0  0  0  0
   -2.1991    0.3702   12.1141 C   0  0  0  0  0  0  0  0  0  0  0  0
   -5.3455   -3.2544   13.5712 H   0  0  0  0  0  0  0  0  0  0  0  0
   -3.9628   -2.5635   12.6562 H   0  0  0  0  0  0  0  0  0  0  0  0
   -3.7532   -4.0854   13.5870 H   0  0  0  0  0  0  0  0  0  0  0  0
   -2.2076   -3.6701   16.2416 H   0  0  0  0  0  0  0  0  0  0  0  0
    0.1972   -3.2172   16.4859 H   0  0  0  0  0  0  0  0  0  0  0  0
    2.0031   -1.9819   16.0097 H   0  0  0  0  0  0  0  0  0  0  0  0
    5.1344    1.9160   13.2339 H   0  0  0  0  0  0  0  0  0  0  0  0
    6.8233    0.9114   15.3092 H   0  0  0  0  0  0  0  0  0  0  0  0
    6.2818   -0.8115   17.3028 H   0  0  0  0  0  0  0  0  0  0  0  0
    2.4476    1.2641   11.4901 H   0  0  0  0  0  0  0  0  0  0  0  0
    4.6052    2.3847   11.2409 H   0  0  0  0  0  0  0  0  0  0  0  0
    3.8100    3.8355    9.3860 H   0  0  0  0  0  0  0  0  0  0  0  0
   -1.8979    4.4764    9.7172 H   0  0  0  0  0  0  0  0  0  0  0  0
   -1.0677    2.9997    9.1199 H   0  0  0  0  0  0  0  0  0  0  0  0
    0.5815    2.1569   12.7559 H   0  0  0  0  0  0  0  0  0  0  0  0
   -0.0934   -0.0284   13.6132 H   0  0  0  0  0  0  0  0  0  0  0  0
   -3.0020    0.9048   11.5853 H   0  0  0  0  0  0  0  0  0  0  0  0
   -1.4464    1.0922   12.4637 H   0  0  0  0  0  0  0  0  0  0  0  0
   -1.7263   -0.3503   11.4304 H   0  0  0  0  0  0  0  0  0  0  0  0
  1  2  1  0  0  0  0
  2  3  1  0  0  0  0
  3  4  2  0  0  0  0
  3 29  1  0  0  0  0
  4  5  1  0  0  0  0
  5  6  2  0  0  0  0
  6  7  1  0  0  0  0
  6 28  1  0  0  0  0
  7  8  1  0  0  0  0
  8  9  2  0  0  0  0
  8 16  1  0  0  0  0
  9 10  1  0  0  0  0
 10 11  2  0  0  0  0
 10 17  1  0  0  0  0
 11 12  1  0  0  0  0
 12 13  1  0  0  0  0
 12 16  1  0  0  0  0
 13 14  2  0  0  0  0
 14 15  1  0  0  0  0
 15 16  2  0  0  0  0
 17 18  1  0  0  0  0
 17 27  1  0  0  0  0
 18 19  2  0  0  0  0
 19 20  1  0  0  0  0
 20 21  2  0  0  0  0
 20 26  1  0  0  0  0
 21 22  1  0  0  0  0
 22 23  2  0  0  0  0
 22 24  1  0  0  0  0
 24 25  1  0  0  0  0
 25 26  1  0  0  0  0
 26 27  2  0  0  0  0
 28 29  2  0  0  0  0
 29 30  1  0  0  0  0
 30 31  1  0  0  0  0
  1 32  1  0  0  0  0
  1 33  1  0  0  0  0
  1 34  1  0  0  0  0
  4 35  1  0  0  0  0
  5 36  1  0  0  0  0
  7 37  1  0  0  0  0
 11 38  1  0  0  0  0
 13 39  1  0  0  0  0
 14 40  1  0  0  0  0
 17 41  1  0  0  0  0
 18 42  1  0  0  0  0
 19 43  1  0  0  0  0
 24 44  1  0  0  0  0
 24 45  1  0  0  0  0
 27 46  1  0  0  0  0
 28 47  1  0  0  0  0
 31 48  1  0  0  0  0
 31 49  1  0  0  0  0
 31 50  1  0  0  0  0
M  END
> <IC50[nM]>
33.4

$$$$
CHEMBL3265025
  -OEChem-05192314333D
 Structure written by MMmdl.
 50 54  0     1  0  0  0  0  0999 V2000
   -4.2554   -3.1070   13.5667 C   0  0  0  0  0  0  0  0  0  0  0  0
   -3.8739   -2.3555   14.7096 O   0  0  0  0  0  0  0  0  0  0  0  0
   -2.5267   -2.1066   14.8132 C   0  0  0  0  0  0  0  0  0  0  0  0
   -1.7520   -2.8715   15.6749 C   0  0  0  0  0  0  0  0  0  0  0  0
   -0.3933   -2.6145   15.8117 C   0  0  0  0  0  0  0  0  0  0  0  0
    0.2196   -1.5878   15.0897 C   0  0  0  0  0  0  0  0  0  0  0  0
    1.6042   -1.3666   15.3298 N   0  0  0  0  0  0  0  0  0  0  0  0
    2.5249   -0.4338   14.7828 C   0  0  0  0  0  0  0  0  0  0  0  0
    2.1518    0.4044   13.7691 N   0  0  0  0  0  0  0  0  0  0  0  0
    3.0983    1.2388   13.2332 C   0  0  0  0  0  0  0  0  0  0  0  0
    4.4000    1.2764   13.7009 C   0  0  0  0  0  0  0  0  0  0  0  0
    4.7368    0.4928   14.7596 N   0  0  0  0  0  0  0  0  0  0  0  0
    5.8926    0.3911   15.4808 C   0  0  0  0  0  0  0  0  0  0  0  0
    5.6027   -0.5483   16.5053 C   0  0  0  0  0  0  0  0  0  0  0  0
    4.3885   -1.0602   16.3544 N   0  0  0  0  0  0  0  0  0  0  0  0
    3.8325   -0.3883   15.3309 C   0  0  0  0  0  0  0  0  0  0  0  0
    2.6407    2.1399   12.1271 C   0  0  0  0  0  0  0  0  0  0  0  0
    3.5584    2.6399   11.1674 C   0  0  0  0  0  0  0  0  0  0  0  0
    3.1117    3.4654   10.1220 C   0  0  0  0  0  0  0  0  0  0  0  0
    1.7626    3.8038   10.0403 C   0  0  0  0  0  0  0  0  0  0  0  0
    1.2975    4.6116    9.0072 N   0  0  0  0  0  0  0  0  0  0  0  0
   -0.0065    4.8513    8.7182 C   0  0  0  0  0  0  0  0  0  0  0  0
   -0.4123    5.6311    7.8553 O   0  0  0  0  0  0  0  0  0  0  0  0
   -0.9274    3.9668    9.6249 C   0  0  0  0  0  0  0  0  0  0  0  0
   -0.4391    3.7019   10.9584 O   0  0  0  0  0  0  0  0  0  0  0  0
    0.8806    3.3365   10.9991 C   0  0  3  0  0  0  0  0  0  0  0  0
    1.2955    2.5129   12.0280 C   0  0  0  0  0  0  0  0  0  0  0  0
   -0.5548   -0.8136   14.1938 C   0  0  0  0  0  0  0  0  0  0  0  0
   -1.9407   -1.0774   14.0650 C   0  0  0  0  0  0  0  0  0  0  0  0
   -2.7433   -0.3209   13.2263 O   0  0  0  0  0  0  0  0  0  0  0  0
   -2.1991    0.3702   12.1141 C   0  0  0  0  0  0  0  0  0  0  0  0
   -5.3455   -3.2544   13.5712 H   0  0  0  0  0  0  0  0  0  0  0  0
   -3.9628   -2.5635   12.6562 H   0  0  0  0  0  0  0  0  0  0  0  0
   -3.7532   -4.0854   13.5870 H   0  0  0  0  0  0  0  0  0  0  0  0
   -2.2076   -3.6701   16.2416 H   0  0  0  0  0  0  0  0  0  0  0  0
    0.1972   -3.2172   16.4859 H   0  0  0  0  0  0  0  0  0  0  0  0
    2.0031   -1.9819   16.0097 H   0  0  0  0  0  0  0  0  0  0  0  0
    5.1344    1.9160   13.2339 H   0  0  0  0  0  0  0  0  0  0  0  0
    6.8233    0.9114   15.3092 H   0  0  0  0  0  0  0  0  0  0  0  0
    6.2818   -0.8115   17.3028 H   0  0  0  0  0  0  0  0  0  0  0  0
    4.6052    2.3847   11.2409 H   0  0  0  0  0  0  0  0  0  0  0  0
    3.8100    3.8355    9.3860 H   0  0  0  0  0  0  0  0  0  0  0  0
   -1.8979    4.4764    9.7172 H   0  0  0  0  0  0  0  0  0  0  0  0
   -1.0677    2.9997    9.1199 H   0  0  0  0  0  0  0  0  0  0  0  0
    0.6616    2.4567   10.3762 H   0  0  0  0  0  0  0  0  0  0  0  0
    0.5815    2.1569   12.7559 H   0  0  0  0  0  0  0  0  0  0  0  0
   -0.0934   -0.0284   13.6132 H   0  0  0  0  0  0  0  0  0  0  0  0
   -3.0020    0.9048   11.5853 H   0  0  0  0  0  0  0  0  0  0  0  0
   -1.4464    1.0922   12.4637 H   0  0  0  0  0  0  0  0  0  0  0  0
   -1.7263   -0.3503   11.4304 H   0  0  0  0  0  0  0  0  0  0  0  0
  1  2  1  0  0  0  0
  2  3  1  0  0  0  0
  3  4  2  0  0  0  0
  3 29  1  0  0  0  0
  4  5  1  0  0  0  0
  5  6  2  0  0  0  0
  6  7  1  0  0  0  0
  6 28  1  0  0  0  0
  7  8  1  0  0  0  0
  8  9  2  0  0  0  0
  8 16  1  0  0  0  0
  9 10  1  0  0  0  0
 10 11  2  0  0  0  0
 10 17  1  0  0  0  0
 11 12  1  0  0  0  0
 12 13  1  0  0  0  0
 12 16  1  0  0  0  0
 13 14  2  0  0  0  0
 14 15  1  0  0  0  0
 15 16  2  0  0  0  0
 17 18  1  0  0  0  0
 17 27  2  0  0  0  0
 18 19  2  0  0  0  0
 19 20  1  0  0  0  0
 20 21  2  0  0  0  0
 20 26  1  0  0  0  0
 21 22  1  0  0  0  0
 22 23  2  0  0  0  0
 22 24  1  0  0  0  0
 24 25  1  0  0  0  0
 25 26  1  0  0  0  0
 26 27  1  0  0  0  0
 28 29  2  0  0  0  0
 29 30  1  0  0  0  0
 30 31  1  0  0  0  0
  1 32  1  0  0  0  0
  1 33  1  0  0  0  0
  1 34  1  0  0  0  0
  4 35  1  0  0  0  0
  5 36  1  0  0  0  0
  7 37  1  0  0  0  0
 11 38  1  0  0  0  0
 13 39  1  0  0  0  0
 14 40  1  0  0  0  0
 18 41  1  0  0  0  0
 19 42  1  0  0  0  0
 24 43  1  0  0  0  0
 24 44  1  0  0  0  0
 26 45  1  0  0  0  0
 27 46  1  0  0  0  0
 28 47  1  0  0  0  0
 31 48  1  0  0  0  0
 31 49  1  0  0  0  0
 31 50  1  0  0  0  0
M  END
> <IC50[nM]>
33.4

$$$$
CHEMBL3265025
  -OEChem-05192314333D
 Structure written by MMmdl.
 50 54  0     0  0  0  0  0  0999 V2000
   -4.2554   -3.1070   13.5667 C   0  0  0  0  0  0  0  0  0  0  0  0
   -3.8739   -2.3555   14.7096 O   0  0  0  0  0  0  0  0  0  0  0  0
   -2.5267   -2.1066   14.8132 C   0  0  0  0  0  0  0  0  0  0  0  0
   -1.7520   -2.8715   15.6749 C   0  0  0  0  0  0  0  0  0  0  0  0
   -0.3933   -2.6145   15.8117 C   0  0  0  0  0  0  0  0  0  0  0  0
    0.2196   -1.5878   15.0897 C   0  0  0  0  0  0  0  0  0  0  0  0
    1.6042   -1.3666   15.3298 N   0  0  0  0  0  0  0  0  0  0  0  0
    2.5249   -0.4338   14.7828 C   0  0  0  0  0  0  0  0  0  0  0  0
    2.1518    0.4044   13.7691 N   0  0  0  0  0  0  0  0  0  0  0  0
    3.0983    1.2388   13.2332 C   0  0  0  0  0  0  0  0  0  0  0  0
    4.4000    1.2764   13.7009 C   0  0  0  0  0  0  0  0  0  0  0  0
    4.7368    0.4928   14.7596 N   0  0  0  0  0  0  0  0  0  0  0  0
    5.8926    0.3911   15.4808 C   0  0  0  0  0  0  0  0  0  0  0  0
    5.6027   -0.5483   16.5053 C   0  0  0  0  0  0  0  0  0  0  0  0
    4.3885   -1.0602   16.3544 N   0  0  0  0  0  0  0  0  0  0  0  0
    3.8325   -0.3883   15.3309 C   0  0  0  0  0  0  0  0  0  0  0  0
    2.6407    2.1399   12.1271 C   0  0  0  0  0  0  0  0  0  0  0  0
    3.5584    2.6399   11.1674 C   0  0  0  0  0  0  0  0  0  0  0  0
    3.1117    3.4654   10.1220 C   0  0  0  0  0  0  0  0  0  0  0  0
    1.7626    3.8038   10.0403 C   0  0  0  0  0  0  0  0  0  0  0  0
    1.2975    4.6116    9.0072 N   0  0  0  0  0  0  0  0  0  0  0  0
   -0.0065    4.8513    8.7182 C   0  0  0  0  0  0  0  0  0  0  0  0
   -0.4123    5.6311    7.8553 O   0  0  0  0  0  0  0  0  0  0  0  0
   -0.9274    3.9668    9.6249 C   0  0  0  0  0  0  0  0  0  0  0  0
   -0.4391    3.7019   10.9584 O   0  0  0  0  0  0  0  0  0  0  0  0
    0.8806    3.3365   10.9991 C   0  0  0  0  0  0  0  0  0  0  0  0
    1.2955    2.5129   12.0280 C   0  0  0  0  0  0  0  0  0  0  0  0
   -0.5548   -0.8136   14.1938 C   0  0  0  0  0  0  0  0  0  0  0  0
   -1.9407   -1.0774   14.0650 C   0  0  0  0  0  0  0  0  0  0  0  0
   -2.7433   -0.3209   13.2263 O   0  0  0  0  0  0  0  0  0  0  0  0
   -2.1991    0.3702   12.1141 C   0  0  0  0  0  0  0  0  0  0  0  0
   -5.3455   -3.2544   13.5712 H   0  0  0  0  0  0  0  0  0  0  0  0
   -3.9628   -2.5635   12.6562 H   0  0  0  0  0  0  0  0  0  0  0  0
   -3.7532   -4.0854   13.5870 H   0  0  0  0  0  0  0  0  0  0  0  0
   -2.2076   -3.6701   16.2416 H   0  0  0  0  0  0  0  0  0  0  0  0
    0.1972   -3.2172   16.4859 H   0  0  0  0  0  0  0  0  0  0  0  0
    2.0031   -1.9819   16.0097 H   0  0  0  0  0  0  0  0  0  0  0  0
    5.1344    1.9160   13.2339 H   0  0  0  0  0  0  0  0  0  0  0  0
    6.8233    0.9114   15.3092 H   0  0  0  0  0  0  0  0  0  0  0  0
    6.2818   -0.8115   17.3028 H   0  0  0  0  0  0  0  0  0  0  0  0
    4.6052    2.3847   11.2409 H   0  0  0  0  0  0  0  0  0  0  0  0
    3.6735    4.4081   10.1972 H   0  0  0  0  0  0  0  0  0  0  0  0
    3.3712    2.9580    9.1812 H   0  0  0  0  0  0  0  0  0  0  0  0
   -1.8979    4.4764    9.7172 H   0  0  0  0  0  0  0  0  0  0  0  0
   -1.0677    2.9997    9.1199 H   0  0  0  0  0  0  0  0  0  0  0  0
    0.5815    2.1569   12.7559 H   0  0  0  0  0  0  0  0  0  0  0  0
   -0.0934   -0.0284   13.6132 H   0  0  0  0  0  0  0  0  0  0  0  0
   -3.0020    0.9048   11.5853 H   0  0  0  0  0  0  0  0  0  0  0  0
   -1.4464    1.0922   12.4637 H   0  0  0  0  0  0  0  0  0  0  0  0
   -1.7263   -0.3503   11.4304 H   0  0  0  0  0  0  0  0  0  0  0  0
  1  2  1  0  0  0  0
  2  3  1  0  0  0  0
  3  4  2  0  0  0  0
  3 29  1  0  0  0  0
  4  5  1  0  0  0  0
  5  6  2  0  0  0  0
  6  7  1  0  0  0  0
  6 28  1  0  0  0  0
  7  8  1  0  0  0  0
  8  9  2  0  0  0  0
  8 16  1  0  0  0  0
  9 10  1  0  0  0  0
 10 11  2  0  0  0  0
 10 17  1  0  0  0  0
 11 12  1  0  0  0  0
 12 13  1  0  0  0  0
 12 16  1  0  0  0  0
 13 14  2  0  0  0  0
 14 15  1  0  0  0  0
 15 16  2  0  0  0  0
 17 18  2  0  0  0  0
 17 27  1  0  0  0  0
 18 19  1  0  0  0  0
 19 20  1  0  0  0  0
 20 21  2  0  0  0  0
 20 26  1  0  0  0  0
 21 22  1  0  0  0  0
 22 23  2  0  0  0  0
 22 24  1  0  0  0  0
 24 25  1  0  0  0  0
 25 26  1  0  0  0  0
 26 27  2  0  0  0  0
 28 29  2  0  0  0  0
 29 30  1  0  0  0  0
 30 31  1  0  0  0  0
  1 32  1  0  0  0  0
  1 33  1  0  0  0  0
  1 34  1  0  0  0  0
  4 35  1  0  0  0  0
  5 36  1  0  0  0  0
  7 37  1  0  0  0  0
 11 38  1  0  0  0  0
 13 39  1  0  0  0  0
 14 40  1  0  0  0  0
 18 41  1  0  0  0  0
 19 42  1  0  0  0  0
 19 43  1  0  0  0  0
 24 44  1  0  0  0  0
 24 45  1  0  0  0  0
 27 46  1  0  0  0  0
 28 47  1  0  0  0  0
 31 48  1  0  0  0  0
 31 49  1  0  0  0  0
 31 50  1  0  0  0  0
M  END
> <IC50[nM]>
33.4

$$$$
CHEMBL3265025
  -OEChem-05192314333D
 Structure written by MMmdl.
 50 54  0     1  0  0  0  0  0999 V2000
   -4.2554   -3.1070   13.5667 C   0  0  0  0  0  0  0  0  0  0  0  0
   -3.8739   -2.3555   14.7096 O   0  0  0  0  0  0  0  0  0  0  0  0
   -2.5267   -2.1066   14.8132 C   0  0  3  0  0  0  0  0  0  0  0  0
   -1.7520   -2.8715   15.6749 C   0  0  0  0  0  0  0  0  0  0  0  0
   -0.3933   -2.6145   15.8117 C   0  0  0  0  0  0  0  0  0  0  0  0
    0.2196   -1.5878   15.0897 C   0  0  0  0  0  0  0  0  0  0  0  0
    1.6042   -1.3666   15.3298 N   0  0  0  0  0  0  0  0  0  0  0  0
    2.5249   -0.4338   14.7828 C   0  0  0  0  0  0  0  0  0  0  0  0
    2.1518    0.4044   13.7691 N   0  0  0  0  0  0  0  0  0  0  0  0
    3.0983    1.2388   13.2332 C   0  0  0  0  0  0  0  0  0  0  0  0
    4.4000    1.2764   13.7009 C   0  0  0  0  0  0  0  0  0  0  0  0
    4.7368    0.4928   14.7596 N   0  0  0  0  0  0  0  0  0  0  0  0
    5.8926    0.3911   15.4808 C   0  0  0  0  0  0  0  0  0  0  0  0
    5.6027   -0.5483   16.5053 C   0  0  0  0  0  0  0  0  0  0  0  0
    4.3885   -1.0602   16.3544 N   0  0  0  0  0  0  0  0  0  0  0  0
    3.8325   -0.3883   15.3309 C   0  0  0  0  0  0  0  0  0  0  0  0
    2.6407    2.1399   12.1271 C   0  0  0  0  0  0  0  0  0  0  0  0
    3.5584    2.6399   11.1674 C   0  0  0  0  0  0  0  0  0  0  0  0
    3.1117    3.4654   10.1220 C   0  0  0  0  0  0  0  0  0  0  0  0
    1.7626    3.8038   10.0403 C   0  0  0  0  0  0  0  0  0  0  0  0
    1.2975    4.6116    9.0072 N   0  0  0  0  0  0  0  0  0  0  0  0
   -0.0065    4.8513    8.7182 C   0  0  0  0  0  0  0  0  0  0  0  0
   -0.4123    5.6311    7.8553 O   0  0  0  0  0  0  0  0  0  0  0  0
   -0.9274    3.9668    9.6249 C   0  0  0  0  0  0  0  0  0  0  0  0
   -0.4391    3.7019   10.9584 O   0  0  0  0  0  0  0  0  0  0  0  0
    0.8806    3.3365   10.9991 C   0  0  0  0  0  0  0  0  0  0  0  0
    1.2955    2.5129   12.0280 C   0  0  0  0  0  0  0  0  0  0  0  0
   -0.5548   -0.8136   14.1938 C   0  0  0  0  0  0  0  0  0  0  0  0
   -1.9407   -1.0774   14.0650 C   0  0  0  0  0  0  0  0  0  0  0  0
   -2.7433   -0.3209   13.2263 O   0  0  0  0  0  0  0  0  0  0  0  0
   -2.1991    0.3702   12.1141 C   0  0  0  0  0  0  0  0  0  0  0  0
   -5.3455   -3.2544   13.5712 H   0  0  0  0  0  0  0  0  0  0  0  0
   -3.9628   -2.5635   12.6562 H   0  0  0  0  0  0  0  0  0  0  0  0
   -3.7532   -4.0854   13.5870 H   0  0  0  0  0  0  0  0  0  0  0  0
   -2.3286   -2.8176   13.9976 H   0  0  0  0  0  0  0  0  0  0  0  0
   -2.2076   -3.6701   16.2416 H   0  0  0  0  0  0  0  0  0  0  0  0
    0.1972   -3.2172   16.4859 H   0  0  0  0  0  0  0  0  0  0  0  0
    5.1344    1.9160   13.2339 H   0  0  0  0  0  0  0  0  0  0  0  0
    6.8233    0.9114   15.3092 H   0  0  0  0  0  0  0  0  0  0  0  0
    6.2818   -0.8115   17.3028 H   0  0  0  0  0  0  0  0  0  0  0  0
    4.6052    2.3847   11.2409 H   0  0  0  0  0  0  0  0  0  0  0  0
    3.8100    3.8355    9.3860 H   0  0  0  0  0  0  0  0  0  0  0  0
    0.3287    6.0392    7.4229 H   0  0  0  0  0  0  0  0  0  0  0  0
   -1.8979    4.4764    9.7172 H   0  0  0  0  0  0  0  0  0  0  0  0
   -1.0677    2.9997    9.1199 H   0  0  0  0  0  0  0  0  0  0  0  0
    0.5815    2.1569   12.7559 H   0  0  0  0  0  0  0  0  0  0  0  0
   -0.0934   -0.0284   13.6132 H   0  0  0  0  0  0  0  0  0  0  0  0
   -3.0020    0.9048   11.5853 H   0  0  0  0  0  0  0  0  0  0  0  0
   -1.4464    1.0922   12.4637 H   0  0  0  0  0  0  0  0  0  0  0  0
   -1.7263   -0.3503   11.4304 H   0  0  0  0  0  0  0  0  0  0  0  0
  1  2  1  0  0  0  0
  2  3  1  0  0  0  0
  3  4  1  0  0  0  0
  3 29  1  0  0  0  0
  4  5  2  0  0  0  0
  5  6  1  0  0  0  0
  6  7  2  0  0  0  0
  6 28  1  0  0  0  0
  7  8  1  0  0  0  0
  8  9  2  0  0  0  0
  8 16  1  0  0  0  0
  9 10  1  0  0  0  0
 10 11  2  0  0  0  0
 10 17  1  0  0  0  0
 11 12  1  0  0  0  0
 12 13  1  0  0  0  0
 12 16  1  0  0  0  0
 13 14  2  0  0  0  0
 14 15  1  0  0  0  0
 15 16  2  0  0  0  0
 17 18  2  0  0  0  0
 17 27  1  0  0  0  0
 18 19  1  0  0  0  0
 19 20  2  0  0  0  0
 20 21  1  0  0  0  0
 20 26  1  0  0  0  0
 21 22  2  0  0  0  0
 22 23  1  0  0  0  0
 22 24  1  0  0  0  0
 24 25  1  0  0  0  0
 25 26  1  0  0  0  0
 26 27  2  0  0  0  0
 28 29  2  0  0  0  0
 29 30  1  0  0  0  0
 30 31  1  0  0  0  0
  1 32  1  0  0  0  0
  1 33  1  0  0  0  0
  1 34  1  0  0  0  0
  3 35  1  0  0  0  0
  4 36  1  0  0  0  0
  5 37  1  0  0  0  0
 11 38  1  0  0  0  0
 13 39  1  0  0  0  0
 14 40  1  0  0  0  0
 18 41  1  0  0  0  0
 19 42  1  0  0  0  0
 23 43  1  0  0  0  0
 24 44  1  0  0  0  0
 24 45  1  0  0  0  0
 27 46  1  0  0  0  0
 28 47  1  0  0  0  0
 31 48  1  0  0  0  0
 31 49  1  0  0  0  0
 31 50  1  0  0  0  0
M  END
> <IC50[nM]>
33.4

$$$$
CHEMBL3265025
  -OEChem-05192314333D
 Structure written by MMmdl.
 50 54  0     0  0  0  0  0  0999 V2000
   -4.2554   -3.1070   13.5667 C   0  0  0  0  0  0  0  0  0  0  0  0
   -3.8739   -2.3555   14.7096 O   0  0  0  0  0  0  0  0  0  0  0  0
   -2.5267   -2.1066   14.8132 C   0  0  0  0  0  0  0  0  0  0  0  0
   -1.7520   -2.8715   15.6749 C   0  0  0  0  0  0  0  0  0  0  0  0
   -0.3933   -2.6145   15.8117 C   0  0  0  0  0  0  0  0  0  0  0  0
    0.2196   -1.5878   15.0897 C   0  0  0  0  0  0  0  0  0  0  0  0
    1.6042   -1.3666   15.3298 N   0  0  0  0  0  0  0  0  0  0  0  0
    2.5249   -0.4338   14.7828 C   0  0  0  0  0  0  0  0  0  0  0  0
    2.1518    0.4044   13.7691 N   0  0  0  0  0  0  0  0  0  0  0  0
    3.0983    1.2388   13.2332 C   0  0  0  0  0  0  0  0  0  0  0  0
    4.4000    1.2764   13.7009 C   0  0  0  0  0  0  0  0  0  0  0  0
    4.7368    0.4928   14.7596 N   0  0  0  0  0  0  0  0  0  0  0  0
    5.8926    0.3911   15.4808 C   0  0  0  0  0  0  0  0  0  0  0  0
    5.6027   -0.5483   16.5053 C   0  0  0  0  0  0  0  0  0  0  0  0
    4.3885   -1.0602   16.3544 N   0  0  0  0  0  0  0  0  0  0  0  0
    3.8325   -0.3883   15.3309 C   0  0  0  0  0  0  0  0  0  0  0  0
    2.6407    2.1399   12.1271 C   0  0  0  0  0  0  0  0  0  0  0  0
    3.5584    2.6399   11.1674 C   0  0  0  0  0  0  0  0  0  0  0  0
    3.1117    3.4654   10.1220 C   0  0  0  0  0  0  0  0  0  0  0  0
    1.7626    3.8038   10.0403 C   0  0  0  0  0  0  0  0  0  0  0  0
    1.2975    4.6116    9.0072 N   0  0  0  0  0  0  0  0  0  0  0  0
   -0.0065    4.8513    8.7182 C   0  0  0  0  0  0  0  0  0  0  0  0
   -0.4123    5.6311    7.8553 O   0  0  0  0  0  0  0  0  0  0  0  0
   -0.9274    3.9668    9.6249 C   0  0  0  0  0  0  0  0  0  0  0  0
   -0.4391    3.7019   10.9584 O   0  0  0  0  0  0  0  0  0  0  0  0
    0.8806    3.3365   10.9991 C   0  0  0  0  0  0  0  0  0  0  0  0
    1.2955    2.5129   12.0280 C   0  0  0  0  0  0  0  0  0  0  0  0
   -0.5548   -0.8136   14.1938 C   0  0  0  0  0  0  0  0  0  0  0  0
   -1.9407   -1.0774   14.0650 C   0  0  0  0  0  0  0  0  0  0  0  0
   -2.7433   -0.3209   13.2263 O   0  0  0  0  0  0  0  0  0  0  0  0
   -2.1991    0.3702   12.1141 C   0  0  0  0  0  0  0  0  0  0  0  0
   -5.3455   -3.2544   13.5712 H   0  0  0  0  0  0  0  0  0  0  0  0
   -3.9628   -2.5635   12.6562 H   0  0  0  0  0  0  0  0  0  0  0  0
   -3.7532   -4.0854   13.5870 H   0  0  0  0  0  0  0  0  0  0  0  0
   -2.2076   -3.6701   16.2416 H   0  0  0  0  0  0  0  0  0  0  0  0
   -0.2219   -2.3944   16.8757 H   0  0  0  0  0  0  0  0  0  0  0  0
    0.1298   -3.5434   15.5405 H   0  0  0  0  0  0  0  0  0  0  0  0
    5.1344    1.9160   13.2339 H   0  0  0  0  0  0  0  0  0  0  0  0
    6.8233    0.9114   15.3092 H   0  0  0  0  0  0  0  0  0  0  0  0
    6.2818   -0.8115   17.3028 H   0  0  0  0  0  0  0  0  0  0  0  0
    4.6052    2.3847   11.2409 H   0  0  0  0  0  0  0  0  0  0  0  0
    3.8100    3.8355    9.3860 H   0  0  0  0  0  0  0  0  0  0  0  0
    0.3287    6.0392    7.4229 H   0  0  0  0  0  0  0  0  0  0  0  0
   -1.8979    4.4764    9.7172 H   0  0  0  0  0  0  0  0  0  0  0  0
   -1.0677    2.9997    9.1199 H   0  0  0  0  0  0  0  0  0  0  0  0
    0.5815    2.1569   12.7559 H   0  0  0  0  0  0  0  0  0  0  0  0
   -0.0934   -0.0284   13.6132 H   0  0  0  0  0  0  0  0  0  0  0  0
   -3.0020    0.9048   11.5853 H   0  0  0  0  0  0  0  0  0  0  0  0
   -1.4464    1.0922   12.4637 H   0  0  0  0  0  0  0  0  0  0  0  0
   -1.7263   -0.3503   11.4304 H   0  0  0  0  0  0  0  0  0  0  0  0
  1  2  1  0  0  0  0
  2  3  1  0  0  0  0
  3  4  2  0  0  0  0
  3 29  1  0  0  0  0
  4  5  1  0  0  0  0
  5  6  1  0  0  0  0
  6  7  2  0  0  0  0
  6 28  1  0  0  0  0
  7  8  1  0  0  0  0
  8  9  2  0  0  0  0
  8 16  1  0  0  0  0
  9 10  1  0  0  0  0
 10 11  2  0  0  0  0
 10 17  1  0  0  0  0
 11 12  1  0  0  0  0
 12 13  1  0  0  0  0
 12 16  1  0  0  0  0
 13 14  2  0  0  0  0
 14 15  1  0  0  0  0
 15 16  2  0  0  0  0
 17 18  2  0  0  0  0
 17 27  1  0  0  0  0
 18 19  1  0  0  0  0
 19 20  2  0  0  0  0
 20 21  1  0  0  0  0
 20 26  1  0  0  0  0
 21 22  2  0  0  0  0
 22 23  1  0  0  0  0
 22 24  1  0  0  0  0
 24 25  1  0  0  0  0
 25 26  1  0  0  0  0
 26 27  2  0  0  0  0
 28 29  2  0  0  0  0
 29 30  1  0  0  0  0
 30 31  1  0  0  0  0
  1 32  1  0  0  0  0
  1 33  1  0  0  0  0
  1 34  1  0  0  0  0
  4 35  1  0  0  0  0
  5 36  1  0  0  0  0
  5 37  1  0  0  0  0
 11 38  1  0  0  0  0
 13 39  1  0  0  0  0
 14 40  1  0  0  0  0
 18 41  1  0  0  0  0
 19 42  1  0  0  0  0
 23 43  1  0  0  0  0
 24 44  1  0  0  0  0
 24 45  1  0  0  0  0
 27 46  1  0  0  0  0
 28 47  1  0  0  0  0
 31 48  1  0  0  0  0
 31 49  1  0  0  0  0
 31 50  1  0  0  0  0
M  END
> <IC50[nM]>
33.4

$$$$
CHEMBL3265025
  -OEChem-05192314333D
 Structure written by MMmdl.
 50 54  0     0  0  0  0  0  0999 V2000
   -4.2554   -3.1070   13.5667 C   0  0  0  0  0  0  0  0  0  0  0  0
   -3.8739   -2.3555   14.7096 O   0  0  0  0  0  0  0  0  0  0  0  0
   -2.5267   -2.1066   14.8132 C   0  0  0  0  0  0  0  0  0  0  0  0
   -1.7520   -2.8715   15.6749 C   0  0  0  0  0  0  0  0  0  0  0  0
   -0.3933   -2.6145   15.8117 C   0  0  0  0  0  0  0  0  0  0  0  0
    0.2196   -1.5878   15.0897 C   0  0  0  0  0  0  0  0  0  0  0  0
    1.6042   -1.3666   15.3298 N   0  0  0  0  0  0  0  0  0  0  0  0
    2.5249   -0.4338   14.7828 C   0  0  0  0  0  0  0  0  0  0  0  0
    2.1518    0.4044   13.7691 N   0  0  0  0  0  0  0  0  0  0  0  0
    3.0983    1.2388   13.2332 C   0  0  0  0  0  0  0  0  0  0  0  0
    4.4000    1.2764   13.7009 C   0  0  0  0  0  0  0  0  0  0  0  0
    4.7368    0.4928   14.7596 N   0  0  0  0  0  0  0  0  0  0  0  0
    5.8926    0.3911   15.4808 C   0  0  0  0  0  0  0  0  0  0  0  0
    5.6027   -0.5483   16.5053 C   0  0  0  0  0  0  0  0  0  0  0  0
    4.3885   -1.0602   16.3544 N   0  0  0  0  0  0  0  0  0  0  0  0
    3.8325   -0.3883   15.3309 C   0  0  0  0  0  0  0  0  0  0  0  0
    2.6407    2.1399   12.1271 C   0  0  0  0  0  0  0  0  0  0  0  0
    3.5584    2.6399   11.1674 C   0  0  0  0  0  0  0  0  0  0  0  0
    3.1117    3.4654   10.1220 C   0  0  0  0  0  0  0  0  0  0  0  0
    1.7626    3.8038   10.0403 C   0  0  0  0  0  0  0  0  0  0  0  0
    1.2975    4.6116    9.0072 N   0  0  0  0  0  0  0  0  0  0  0  0
   -0.0065    4.8513    8.7182 C   0  0  0  0  0  0  0  0  0  0  0  0
   -0.4123    5.6311    7.8553 O   0  0  0  0  0  0  0  0  0  0  0  0
   -0.9274    3.9668    9.6249 C   0  0  0  0  0  0  0  0  0  0  0  0
   -0.4391    3.7019   10.9584 O   0  0  0  0  0  0  0  0  0  0  0  0
    0.8806    3.3365   10.9991 C   0  0  0  0  0  0  0  0  0  0  0  0
    1.2955    2.5129   12.0280 C   0  0  0  0  0  0  0  0  0  0  0  0
   -0.5548   -0.8136   14.1938 C   0  0  0  0  0  0  0  0  0  0  0  0
   -1.9407   -1.0774   14.0650 C   0  0  0  0  0  0  0  0  0  0  0  0
   -2.7433   -0.3209   13.2263 O   0  0  0  0  0  0  0  0  0  0  0  0
   -2.1991    0.3702   12.1141 C   0  0  0  0  0  0  0  0  0  0  0  0
   -5.3455   -3.2544   13.5712 H   0  0  0  0  0  0  0  0  0  0  0  0
   -3.9628   -2.5635   12.6562 H   0  0  0  0  0  0  0  0  0  0  0  0
   -3.7532   -4.0854   13.5870 H   0  0  0  0  0  0  0  0  0  0  0  0
   -2.2076   -3.6701   16.2416 H   0  0  0  0  0  0  0  0  0  0  0  0
    0.1972   -3.2172   16.4859 H   0  0  0  0  0  0  0  0  0  0  0  0
    5.1344    1.9160   13.2339 H   0  0  0  0  0  0  0  0  0  0  0  0
    6.8233    0.9114   15.3092 H   0  0  0  0  0  0  0  0  0  0  0  0
    6.2818   -0.8115   17.3028 H   0  0  0  0  0  0  0  0  0  0  0  0
    4.6052    2.3847   11.2409 H   0  0  0  0  0  0  0  0  0  0  0  0
    3.8100    3.8355    9.3860 H   0  0  0  0  0  0  0  0  0  0  0  0
    0.3287    6.0392    7.4229 H   0  0  0  0  0  0  0  0  0  0  0  0
   -1.8979    4.4764    9.7172 H   0  0  0  0  0  0  0  0  0  0  0  0
   -1.0677    2.9997    9.1199 H   0  0  0  0  0  0  0  0  0  0  0  0
    0.5815    2.1569   12.7559 H   0  0  0  0  0  0  0  0  0  0  0  0
   -0.4564    0.2355   14.5095 H   0  0  0  0  0  0  0  0  0  0  0  0
   -0.1106   -0.9393   13.1953 H   0  0  0  0  0  0  0  0  0  0  0  0
   -3.0020    0.9048   11.5853 H   0  0  0  0  0  0  0  0  0  0  0  0
   -1.4464    1.0922   12.4637 H   0  0  0  0  0  0  0  0  0  0  0  0
   -1.7263   -0.3503   11.4304 H   0  0  0  0  0  0  0  0  0  0  0  0
  1  2  1  0  0  0  0
  2  3  1  0  0  0  0
  3  4  1  0  0  0  0
  3 29  2  0  0  0  0
  4  5  2  0  0  0  0
  5  6  1  0  0  0  0
  6  7  2  0  0  0  0
  6 28  1  0  0  0  0
  7  8  1  0  0  0  0
  8  9  2  0  0  0  0
  8 16  1  0  0  0  0
  9 10  1  0  0  0  0
 10 11  2  0  0  0  0
 10 17  1  0  0  0  0
 11 12  1  0  0  0  0
 12 13  1  0  0  0  0
 12 16  1  0  0  0  0
 13 14  2  0  0  0  0
 14 15  1  0  0  0  0
 15 16  2  0  0  0  0
 17 18  2  0  0  0  0
 17 27  1  0  0  0  0
 18 19  1  0  0  0  0
 19 20  2  0  0  0  0
 20 21  1  0  0  0  0
 20 26  1  0  0  0  0
 21 22  2  0  0  0  0
 22 23  1  0  0  0  0
 22 24  1  0  0  0  0
 24 25  1  0  0  0  0
 25 26  1  0  0  0  0
 26 27  2  0  0  0  0
 28 29  1  0  0  0  0
 29 30  1  0  0  0  0
 30 31  1  0  0  0  0
  1 32  1  0  0  0  0
  1 33  1  0  0  0  0
  1 34  1  0  0  0  0
  4 35  1  0  0  0  0
  5 36  1  0  0  0  0
 11 37  1  0  0  0  0
 13 38  1  0  0  0  0
 14 39  1  0  0  0  0
 18 40  1  0  0  0  0
 19 41  1  0  0  0  0
 23 42  1  0  0  0  0
 24 43  1  0  0  0  0
 24 44  1  0  0  0  0
 27 45  1  0  0  0  0
 28 46  1  0  0  0  0
 28 47  1  0  0  0  0
 31 48  1  0  0  0  0
 31 49  1  0  0  0  0
 31 50  1  0  0  0  0
M  END
> <IC50[nM]>
33.4

$$$$
CHEMBL3265025
  -OEChem-05192314333D
 Structure written by MMmdl.
 50 54  0     1  0  0  0  0  0999 V2000
   -4.2554   -3.1070   13.5667 C   0  0  0  0  0  0  0  0  0  0  0  0
   -3.8739   -2.3555   14.7096 O   0  0  0  0  0  0  0  0  0  0  0  0
   -2.5267   -2.1066   14.8132 C   0  0  0  0  0  0  0  0  0  0  0  0
   -1.7520   -2.8715   15.6749 C   0  0  0  0  0  0  0  0  0  0  0  0
   -0.3933   -2.6145   15.8117 C   0  0  0  0  0  0  0  0  0  0  0  0
    0.2196   -1.5878   15.0897 C   0  0  0  0  0  0  0  0  0  0  0  0
    1.6042   -1.3666   15.3298 N   0  0  0  0  0  0  0  0  0  0  0  0
    2.5249   -0.4338   14.7828 C   0  0  0  0  0  0  0  0  0  0  0  0
    2.1518    0.4044   13.7691 N   0  0  0  0  0  0  0  0  0  0  0  0
    3.0983    1.2388   13.2332 C   0  0  0  0  0  0  0  0  0  0  0  0
    4.4000    1.2764   13.7009 C   0  0  0  0  0  0  0  0  0  0  0  0
    4.7368    0.4928   14.7596 N   0  0  0  0  0  0  0  0  0  0  0  0
    5.8926    0.3911   15.4808 C   0  0  0  0  0  0  0  0  0  0  0  0
    5.6027   -0.5483   16.5053 C   0  0  0  0  0  0  0  0  0  0  0  0
    4.3885   -1.0602   16.3544 N   0  0  0  0  0  0  0  0  0  0  0  0
    3.8325   -0.3883   15.3309 C   0  0  0  0  0  0  0  0  0  0  0  0
    2.6407    2.1399   12.1271 C   0  0  3  0  0  0  0  0  0  0  0  0
    3.5584    2.6399   11.1674 C   0  0  0  0  0  0  0  0  0  0  0  0
    3.1117    3.4654   10.1220 C   0  0  0  0  0  0  0  0  0  0  0  0
    1.7626    3.8038   10.0403 C   0  0  0  0  0  0  0  0  0  0  0  0
    1.2975    4.6116    9.0072 N   0  0  0  0  0  0  0  0  0  0  0  0
   -0.0065    4.8513    8.7182 C   0  0  0  0  0  0  0  0  0  0  0  0
   -0.4123    5.6311    7.8553 O   0  0  0  0  0  0  0  0  0  0  0  0
   -0.9274    3.9668    9.6249 C   0  0  0  0  0  0  0  0  0  0  0  0
   -0.4391    3.7019   10.9584 O   0  0  0  0  0  0  0  0  0  0  0  0
    0.8806    3.3365   10.9991 C   0  0  0  0  0  0  0  0  0  0  0  0
    1.2955    2.5129   12.0280 C   0  0  0  0  0  0  0  0  0  0  0  0
   -0.5548   -0.8136   14.1938 C   0  0  0  0  0  0  0  0  0  0  0  0
   -1.9407   -1.0774   14.0650 C   0  0  0  0  0  0  0  0  0  0  0  0
   -2.7433   -0.3209   13.2263 O   0  0  0  0  0  0  0  0  0  0  0  0
   -2.1991    0.3702   12.1141 C   0  0  0  0  0  0  0  0  0  0  0  0
   -5.3455   -3.2544   13.5712 H   0  0  0  0  0  0  0  0  0  0  0  0
   -3.9628   -2.5635   12.6562 H   0  0  0  0  0  0  0  0  0  0  0  0
   -3.7532   -4.0854   13.5870 H   0  0  0  0  0  0  0  0  0  0  0  0
   -2.2076   -3.6701   16.2416 H   0  0  0  0  0  0  0  0  0  0  0  0
    0.1972   -3.2172   16.4859 H   0  0  0  0  0  0  0  0  0  0  0  0
    1.2121    0.4087   13.4272 H   0  0  0  0  0  0  0  0  0  0  0  0
    5.1344    1.9160   13.2339 H   0  0  0  0  0  0  0  0  0  0  0  0
    6.8233    0.9114   15.3092 H   0  0  0  0  0  0  0  0  0  0  0  0
    6.2818   -0.8115   17.3028 H   0  0  0  0  0  0  0  0  0  0  0  0
    2.4476    1.2641   11.4901 H   0  0  0  0  0  0  0  0  0  0  0  0
    4.6052    2.3847   11.2409 H   0  0  0  0  0  0  0  0  0  0  0  0
    3.8100    3.8355    9.3860 H   0  0  0  0  0  0  0  0  0  0  0  0
   -1.8979    4.4764    9.7172 H   0  0  0  0  0  0  0  0  0  0  0  0
   -1.0677    2.9997    9.1199 H   0  0  0  0  0  0  0  0  0  0  0  0
    0.5815    2.1569   12.7559 H   0  0  0  0  0  0  0  0  0  0  0  0
   -0.0934   -0.0284   13.6132 H   0  0  0  0  0  0  0  0  0  0  0  0
   -3.0020    0.9048   11.5853 H   0  0  0  0  0  0  0  0  0  0  0  0
   -1.4464    1.0922   12.4637 H   0  0  0  0  0  0  0  0  0  0  0  0
   -1.7263   -0.3503   11.4304 H   0  0  0  0  0  0  0  0  0  0  0  0
  1  2  1  0  0  0  0
  2  3  1  0  0  0  0
  3  4  2  0  0  0  0
  3 29  1  0  0  0  0
  4  5  1  0  0  0  0
  5  6  2  0  0  0  0
  6  7  1  0  0  0  0
  6 28  1  0  0  0  0
  7  8  2  0  0  0  0
  8  9  1  0  0  0  0
  8 16  1  0  0  0  0
  9 10  1  0  0  0  0
 10 11  2  0  0  0  0
 10 17  1  0  0  0  0
 11 12  1  0  0  0  0
 12 13  1  0  0  0  0
 12 16  1  0  0  0  0
 13 14  2  0  0  0  0
 14 15  1  0  0  0  0
 15 16  2  0  0  0  0
 17 18  1  0  0  0  0
 17 27  1  0  0  0  0
 18 19  2  0  0  0  0
 19 20  1  0  0  0  0
 20 21  2  0  0  0  0
 20 26  1  0  0  0  0
 21 22  1  0  0  0  0
 22 23  2  0  0  0  0
 22 24  1  0  0  0  0
 24 25  1  0  0  0  0
 25 26  1  0  0  0  0
 26 27  2  0  0  0  0
 28 29  2  0  0  0  0
 29 30  1  0  0  0  0
 30 31  1  0  0  0  0
  1 32  1  0  0  0  0
  1 33  1  0  0  0  0
  1 34  1  0  0  0  0
  4 35  1  0  0  0  0
  5 36  1  0  0  0  0
  9 37  1  0  0  0  0
 11 38  1  0  0  0  0
 13 39  1  0  0  0  0
 14 40  1  0  0  0  0
 17 41  1  0  0  0  0
 18 42  1  0  0  0  0
 19 43  1  0  0  0  0
 24 44  1  0  0  0  0
 24 45  1  0  0  0  0
 27 46  1  0  0  0  0
 28 47  1  0  0  0  0
 31 48  1  0  0  0  0
 31 49  1  0  0  0  0
 31 50  1  0  0  0  0
M  END
> <IC50[nM]>
33.4

$$$$
CHEMBL3265025
  -OEChem-05192314333D
 Structure written by MMmdl.
 50 54  0     1  0  0  0  0  0999 V2000
   -4.2554   -3.1070   13.5667 C   0  0  0  0  0  0  0  0  0  0  0  0
   -3.8739   -2.3555   14.7096 O   0  0  0  0  0  0  0  0  0  0  0  0
   -2.5267   -2.1066   14.8132 C   0  0  0  0  0  0  0  0  0  0  0  0
   -1.7520   -2.8715   15.6749 C   0  0  0  0  0  0  0  0  0  0  0  0
   -0.3933   -2.6145   15.8117 C   0  0  0  0  0  0  0  0  0  0  0  0
    0.2196   -1.5878   15.0897 C   0  0  0  0  0  0  0  0  0  0  0  0
    1.6042   -1.3666   15.3298 N   0  0  0  0  0  0  0  0  0  0  0  0
    2.5249   -0.4338   14.7828 C   0  0  0  0  0  0  0  0  0  0  0  0
    2.1518    0.4044   13.7691 N   0  0  0  0  0  0  0  0  0  0  0  0
    3.0983    1.2388   13.2332 C   0  0  0  0  0  0  0  0  0  0  0  0
    4.4000    1.2764   13.7009 C   0  0  0  0  0  0  0  0  0  0  0  0
    4.7368    0.4928   14.7596 N   0  0  0  0  0  0  0  0  0  0  0  0
    5.8926    0.3911   15.4808 C   0  0  0  0  0  0  0  0  0  0  0  0
    5.6027   -0.5483   16.5053 C   0  0  0  0  0  0  0  0  0  0  0  0
    4.3885   -1.0602   16.3544 N   0  0  0  0  0  0  0  0  0  0  0  0
    3.8325   -0.3883   15.3309 C   0  0  0  0  0  0  0  0  0  0  0  0
    2.6407    2.1399   12.1271 C   0  0  0  0  0  0  0  0  0  0  0  0
    3.5584    2.6399   11.1674 C   0  0  0  0  0  0  0  0  0  0  0  0
    3.1117    3.4654   10.1220 C   0  0  0  0  0  0  0  0  0  0  0  0
    1.7626    3.8038   10.0403 C   0  0  0  0  0  0  0  0  0  0  0  0
    1.2975    4.6116    9.0072 N   0  0  0  0  0  0  0  0  0  0  0  0
   -0.0065    4.8513    8.7182 C   0  0  0  0  0  0  0  0  0  0  0  0
   -0.4123    5.6311    7.8553 O   0  0  0  0  0  0  0  0  0  0  0  0
   -0.9274    3.9668    9.6249 C   0  0  0  0  0  0  0  0  0  0  0  0
   -0.4391    3.7019   10.9584 O   0  0  0  0  0  0  0  0  0  0  0  0
    0.8806    3.3365   10.9991 C   0  0  3  0  0  0  0  0  0  0  0  0
    1.2955    2.5129   12.0280 C   0  0  0  0  0  0  0  0  0  0  0  0
   -0.5548   -0.8136   14.1938 C   0  0  0  0  0  0  0  0  0  0  0  0
   -1.9407   -1.0774   14.0650 C   0  0  0  0  0  0  0  0  0  0  0  0
   -2.7433   -0.3209   13.2263 O   0  0  0  0  0  0  0  0  0  0  0  0
   -2.1991    0.3702   12.1141 C   0  0  0  0  0  0  0  0  0  0  0  0
   -5.3455   -3.2544   13.5712 H   0  0  0  0  0  0  0  0  0  0  0  0
   -3.9628   -2.5635   12.6562 H   0  0  0  0  0  0  0  0  0  0  0  0
   -3.7532   -4.0854   13.5870 H   0  0  0  0  0  0  0  0  0  0  0  0
   -2.2076   -3.6701   16.2416 H   0  0  0  0  0  0  0  0  0  0  0  0
    0.1972   -3.2172   16.4859 H   0  0  0  0  0  0  0  0  0  0  0  0
    1.2121    0.4087   13.4272 H   0  0  0  0  0  0  0  0  0  0  0  0
    5.1344    1.9160   13.2339 H   0  0  0  0  0  0  0  0  0  0  0  0
    6.8233    0.9114   15.3092 H   0  0  0  0  0  0  0  0  0  0  0  0
    6.2818   -0.8115   17.3028 H   0  0  0  0  0  0  0  0  0  0  0  0
    4.6052    2.3847   11.2409 H   0  0  0  0  0  0  0  0  0  0  0  0
    3.8100    3.8355    9.3860 H   0  0  0  0  0  0  0  0  0  0  0  0
   -1.8979    4.4764    9.7172 H   0  0  0  0  0  0  0  0  0  0  0  0
   -1.0677    2.9997    9.1199 H   0  0  0  0  0  0  0  0  0  0  0  0
    0.6616    2.4567   10.3762 H   0  0  0  0  0  0  0  0  0  0  0  0
    0.5815    2.1569   12.7559 H   0  0  0  0  0  0  0  0  0  0  0  0
   -0.0934   -0.0284   13.6132 H   0  0  0  0  0  0  0  0  0  0  0  0
   -3.0020    0.9048   11.5853 H   0  0  0  0  0  0  0  0  0  0  0  0
   -1.4464    1.0922   12.4637 H   0  0  0  0  0  0  0  0  0  0  0  0
   -1.7263   -0.3503   11.4304 H   0  0  0  0  0  0  0  0  0  0  0  0
  1  2  1  0  0  0  0
  2  3  1  0  0  0  0
  3  4  2  0  0  0  0
  3 29  1  0  0  0  0
  4  5  1  0  0  0  0
  5  6  2  0  0  0  0
  6  7  1  0  0  0  0
  6 28  1  0  0  0  0
  7  8  2  0  0  0  0
  8  9  1  0  0  0  0
  8 16  1  0  0  0  0
  9 10  1  0  0  0  0
 10 11  2  0  0  0  0
 10 17  1  0  0  0  0
 11 12  1  0  0  0  0
 12 13  1  0  0  0  0
 12 16  1  0  0  0  0
 13 14  2  0  0  0  0
 14 15  1  0  0  0  0
 15 16  2  0  0  0  0
 17 18  1  0  0  0  0
 17 27  2  0  0  0  0
 18 19  2  0  0  0  0
 19 20  1  0  0  0  0
 20 21  2  0  0  0  0
 20 26  1  0  0  0  0
 21 22  1  0  0  0  0
 22 23  2  0  0  0  0
 22 24  1  0  0  0  0
 24 25  1  0  0  0  0
 25 26  1  0  0  0  0
 26 27  1  0  0  0  0
 28 29  2  0  0  0  0
 29 30  1  0  0  0  0
 30 31  1  0  0  0  0
  1 32  1  0  0  0  0
  1 33  1  0  0  0  0
  1 34  1  0  0  0  0
  4 35  1  0  0  0  0
  5 36  1  0  0  0  0
  9 37  1  0  0  0  0
 11 38  1  0  0  0  0
 13 39  1  0  0  0  0
 14 40  1  0  0  0  0
 18 41  1  0  0  0  0
 19 42  1  0  0  0  0
 24 43  1  0  0  0  0
 24 44  1  0  0  0  0
 26 45  1  0  0  0  0
 27 46  1  0  0  0  0
 28 47  1  0  0  0  0
 31 48  1  0  0  0  0
 31 49  1  0  0  0  0
 31 50  1  0  0  0  0
M  END
> <IC50[nM]>
33.4

$$$$
CHEMBL3265025
  -OEChem-05192314333D
 Structure written by MMmdl.
 50 54  0     0  0  0  0  0  0999 V2000
   -4.2554   -3.1070   13.5667 C   0  0  0  0  0  0  0  0  0  0  0  0
   -3.8739   -2.3555   14.7096 O   0  0  0  0  0  0  0  0  0  0  0  0
   -2.5267   -2.1066   14.8132 C   0  0  0  0  0  0  0  0  0  0  0  0
   -1.7520   -2.8715   15.6749 C   0  0  0  0  0  0  0  0  0  0  0  0
   -0.3933   -2.6145   15.8117 C   0  0  0  0  0  0  0  0  0  0  0  0
    0.2196   -1.5878   15.0897 C   0  0  0  0  0  0  0  0  0  0  0  0
    1.6042   -1.3666   15.3298 N   0  0  0  0  0  0  0  0  0  0  0  0
    2.5249   -0.4338   14.7828 C   0  0  0  0  0  0  0  0  0  0  0  0
    2.1518    0.4044   13.7691 N   0  0  0  0  0  0  0  0  0  0  0  0
    3.0983    1.2388   13.2332 C   0  0  0  0  0  0  0  0  0  0  0  0
    4.4000    1.2764   13.7009 C   0  0  0  0  0  0  0  0  0  0  0  0
    4.7368    0.4928   14.7596 N   0  0  0  0  0  0  0  0  0  0  0  0
    5.8926    0.3911   15.4808 C   0  0  0  0  0  0  0  0  0  0  0  0
    5.6027   -0.5483   16.5053 C   0  0  0  0  0  0  0  0  0  0  0  0
    4.3885   -1.0602   16.3544 N   0  0  0  0  0  0  0  0  0  0  0  0
    3.8325   -0.3883   15.3309 C   0  0  0  0  0  0  0  0  0  0  0  0
    2.6407    2.1399   12.1271 C   0  0  0  0  0  0  0  0  0  0  0  0
    3.5584    2.6399   11.1674 C   0  0  0  0  0  0  0  0  0  0  0  0
    3.1117    3.4654   10.1220 C   0  0  0  0  0  0  0  0  0  0  0  0
    1.7626    3.8038   10.0403 C   0  0  0  0  0  0  0  0  0  0  0  0
    1.2975    4.6116    9.0072 N   0  0  0  0  0  0  0  0  0  0  0  0
   -0.0065    4.8513    8.7182 C   0  0  0  0  0  0  0  0  0  0  0  0
   -0.4123    5.6311    7.8553 O   0  0  0  0  0  0  0  0  0  0  0  0
   -0.9274    3.9668    9.6249 C   0  0  0  0  0  0  0  0  0  0  0  0
   -0.4391    3.7019   10.9584 O   0  0  0  0  0  0  0  0  0  0  0  0
    0.8806    3.3365   10.9991 C   0  0  0  0  0  0  0  0  0  0  0  0
    1.2955    2.5129   12.0280 C   0  0  0  0  0  0  0  0  0  0  0  0
   -0.5548   -0.8136   14.1938 C   0  0  0  0  0  0  0  0  0  0  0  0
   -1.9407   -1.0774   14.0650 C   0  0  0  0  0  0  0  0  0  0  0  0
   -2.7433   -0.3209   13.2263 O   0  0  0  0  0  0  0  0  0  0  0  0
   -2.1991    0.3702   12.1141 C   0  0  0  0  0  0  0  0  0  0  0  0
   -5.3455   -3.2544   13.5712 H   0  0  0  0  0  0  0  0  0  0  0  0
   -3.9628   -2.5635   12.6562 H   0  0  0  0  0  0  0  0  0  0  0  0
   -3.7532   -4.0854   13.5870 H   0  0  0  0  0  0  0  0  0  0  0  0
   -2.2076   -3.6701   16.2416 H   0  0  0  0  0  0  0  0  0  0  0  0
    0.1972   -3.2172   16.4859 H   0  0  0  0  0  0  0  0  0  0  0  0
    1.2121    0.4087   13.4272 H   0  0  0  0  0  0  0  0  0  0  0  0
    5.1344    1.9160   13.2339 H   0  0  0  0  0  0  0  0  0  0  0  0
    6.8233    0.9114   15.3092 H   0  0  0  0  0  0  0  0  0  0  0  0
    6.2818   -0.8115   17.3028 H   0  0  0  0  0  0  0  0  0  0  0  0
    4.6052    2.3847   11.2409 H   0  0  0  0  0  0  0  0  0  0  0  0
    3.6735    4.4081   10.1972 H   0  0  0  0  0  0  0  0  0  0  0  0
    3.3712    2.9580    9.1812 H   0  0  0  0  0  0  0  0  0  0  0  0
   -1.8979    4.4764    9.7172 H   0  0  0  0  0  0  0  0  0  0  0  0
   -1.0677    2.9997    9.1199 H   0  0  0  0  0  0  0  0  0  0  0  0
    0.5815    2.1569   12.7559 H   0  0  0  0  0  0  0  0  0  0  0  0
   -0.0934   -0.0284   13.6132 H   0  0  0  0  0  0  0  0  0  0  0  0
   -3.0020    0.9048   11.5853 H   0  0  0  0  0  0  0  0  0  0  0  0
   -1.4464    1.0922   12.4637 H   0  0  0  0  0  0  0  0  0  0  0  0
   -1.7263   -0.3503   11.4304 H   0  0  0  0  0  0  0  0  0  0  0  0
  1  2  1  0  0  0  0
  2  3  1  0  0  0  0
  3  4  2  0  0  0  0
  3 29  1  0  0  0  0
  4  5  1  0  0  0  0
  5  6  2  0  0  0  0
  6  7  1  0  0  0  0
  6 28  1  0  0  0  0
  7  8  2  0  0  0  0
  8  9  1  0  0  0  0
  8 16  1  0  0  0  0
  9 10  1  0  0  0  0
 10 11  2  0  0  0  0
 10 17  1  0  0  0  0
 11 12  1  0  0  0  0
 12 13  1  0  0  0  0
 12 16  1  0  0  0  0
 13 14  2  0  0  0  0
 14 15  1  0  0  0  0
 15 16  2  0  0  0  0
 17 18  2  0  0  0  0
 17 27  1  0  0  0  0
 18 19  1  0  0  0  0
 19 20  1  0  0  0  0
 20 21  2  0  0  0  0
 20 26  1  0  0  0  0
 21 22  1  0  0  0  0
 22 23  2  0  0  0  0
 22 24  1  0  0  0  0
 24 25  1  0  0  0  0
 25 26  1  0  0  0  0
 26 27  2  0  0  0  0
 28 29  2  0  0  0  0
 29 30  1  0  0  0  0
 30 31  1  0  0  0  0
  1 32  1  0  0  0  0
  1 33  1  0  0  0  0
  1 34  1  0  0  0  0
  4 35  1  0  0  0  0
  5 36  1  0  0  0  0
  9 37  1  0  0  0  0
 11 38  1  0  0  0  0
 13 39  1  0  0  0  0
 14 40  1  0  0  0  0
 18 41  1  0  0  0  0
 19 42  1  0  0  0  0
 19 43  1  0  0  0  0
 24 44  1  0  0  0  0
 24 45  1  0  0  0  0
 27 46  1  0  0  0  0
 28 47  1  0  0  0  0
 31 48  1  0  0  0  0
 31 49  1  0  0  0  0
 31 50  1  0  0  0  0
M  END
> <IC50[nM]>
33.4

$$$$
CHEMBL3265025
  -OEChem-05192314333D
 Structure written by MMmdl.
 50 54  0     1  0  0  0  0  0999 V2000
   -4.2554   -3.1070   13.5667 C   0  0  0  0  0  0  0  0  0  0  0  0
   -3.8739   -2.3555   14.7096 O   0  0  0  0  0  0  0  0  0  0  0  0
   -2.5267   -2.1066   14.8132 C   0  0  0  0  0  0  0  0  0  0  0  0
   -1.7520   -2.8715   15.6749 C   0  0  0  0  0  0  0  0  0  0  0  0
   -0.3933   -2.6145   15.8117 C   0  0  0  0  0  0  0  0  0  0  0  0
    0.2196   -1.5878   15.0897 C   0  0  0  0  0  0  0  0  0  0  0  0
    1.6042   -1.3666   15.3298 N   0  0  0  0  0  0  0  0  0  0  0  0
    2.5249   -0.4338   14.7828 C   0  0  0  0  0  0  0  0  0  0  0  0
    2.1518    0.4044   13.7691 N   0  0  0  0  0  0  0  0  0  0  0  0
    3.0983    1.2388   13.2332 C   0  0  0  0  0  0  0  0  0  0  0  0
    4.4000    1.2764   13.7009 C   0  0  0  0  0  0  0  0  0  0  0  0
    4.7368    0.4928   14.7596 N   0  0  0  0  0  0  0  0  0  0  0  0
    5.8926    0.3911   15.4808 C   0  0  0  0  0  0  0  0  0  0  0  0
    5.6027   -0.5483   16.5053 C   0  0  0  0  0  0  0  0  0  0  0  0
    4.3885   -1.0602   16.3544 N   0  0  0  0  0  0  0  0  0  0  0  0
    3.8325   -0.3883   15.3309 C   0  0  0  0  0  0  0  0  0  0  0  0
    2.6407    2.1399   12.1271 C   0  0  3  0  0  0  0  0  0  0  0  0
    3.5584    2.6399   11.1674 C   0  0  0  0  0  0  0  0  0  0  0  0
    3.1117    3.4654   10.1220 C   0  0  0  0  0  0  0  0  0  0  0  0
    1.7626    3.8038   10.0403 C   0  0  0  0  0  0  0  0  0  0  0  0
    1.2975    4.6116    9.0072 N   0  0  0  0  0  0  0  0  0  0  0  0
   -0.0065    4.8513    8.7182 C   0  0  0  0  0  0  0  0  0  0  0  0
   -0.4123    5.6311    7.8553 O   0  0  0  0  0  0  0  0  0  0  0  0
   -0.9274    3.9668    9.6249 C   0  0  0  0  0  0  0  0  0  0  0  0
   -0.4391    3.7019   10.9584 O   0  0  0  0  0  0  0  0  0  0  0  0
    0.8806    3.3365   10.9991 C   0  0  0  0  0  0  0  0  0  0  0  0
    1.2955    2.5129   12.0280 C   0  0  0  0  0  0  0  0  0  0  0  0
   -0.5548   -0.8136   14.1938 C   0  0  0  0  0  0  0  0  0  0  0  0
   -1.9407   -1.0774   14.0650 C   0  0  0  0  0  0  0  0  0  0  0  0
   -2.7433   -0.3209   13.2263 O   0  0  0  0  0  0  0  0  0  0  0  0
   -2.1991    0.3702   12.1141 C   0  0  0  0  0  0  0  0  0  0  0  0
   -5.3455   -3.2544   13.5712 H   0  0  0  0  0  0  0  0  0  0  0  0
   -3.9628   -2.5635   12.6562 H   0  0  0  0  0  0  0  0  0  0  0  0
   -3.7532   -4.0854   13.5870 H   0  0  0  0  0  0  0  0  0  0  0  0
   -2.2076   -3.6701   16.2416 H   0  0  0  0  0  0  0  0  0  0  0  0
    0.1972   -3.2172   16.4859 H   0  0  0  0  0  0  0  0  0  0  0  0
    5.0530    0.9879   12.8640 H   0  0  0  0  0  0  0  0  0  0  0  0
    4.6106    2.3170   13.9885 H   0  0  0  0  0  0  0  0  0  0  0  0
    6.8233    0.9114   15.3092 H   0  0  0  0  0  0  0  0  0  0  0  0
    6.2818   -0.8115   17.3028 H   0  0  0  0  0  0  0  0  0  0  0  0
    2.4476    1.2641   11.4901 H   0  0  0  0  0  0  0  0  0  0  0  0
    4.6052    2.3847   11.2409 H   0  0  0  0  0  0  0  0  0  0  0  0
    3.8100    3.8355    9.3860 H   0  0  0  0  0  0  0  0  0  0  0  0
   -1.8979    4.4764    9.7172 H   0  0  0  0  0  0  0  0  0  0  0  0
   -1.0677    2.9997    9.1199 H   0  0  0  0  0  0  0  0  0  0  0  0
    0.5815    2.1569   12.7559 H   0  0  0  0  0  0  0  0  0  0  0  0
   -0.0934   -0.0284   13.6132 H   0  0  0  0  0  0  0  0  0  0  0  0
   -3.0020    0.9048   11.5853 H   0  0  0  0  0  0  0  0  0  0  0  0
   -1.4464    1.0922   12.4637 H   0  0  0  0  0  0  0  0  0  0  0  0
   -1.7263   -0.3503   11.4304 H   0  0  0  0  0  0  0  0  0  0  0  0
  1  2  1  0  0  0  0
  2  3  1  0  0  0  0
  3  4  2  0  0  0  0
  3 29  1  0  0  0  0
  4  5  1  0  0  0  0
  5  6  2  0  0  0  0
  6  7  1  0  0  0  0
  6 28  1  0  0  0  0
  7  8  2  0  0  0  0
  8  9  1  0  0  0  0
  8 16  1  0  0  0  0
  9 10  2  0  0  0  0
 10 11  1  0  0  0  0
 10 17  1  0  0  0  0
 11 12  1  0  0  0  0
 12 13  1  0  0  0  0
 12 16  1  0  0  0  0
 13 14  2  0  0  0  0
 14 15  1  0  0  0  0
 15 16  2  0  0  0  0
 17 18  1  0  0  0  0
 17 27  1  0  0  0  0
 18 19  2  0  0  0  0
 19 20  1  0  0  0  0
 20 21  2  0  0  0  0
 20 26  1  0  0  0  0
 21 22  1  0  0  0  0
 22 23  2  0  0  0  0
 22 24  1  0  0  0  0
 24 25  1  0  0  0  0
 25 26  1  0  0  0  0
 26 27  2  0  0  0  0
 28 29  2  0  0  0  0
 29 30  1  0  0  0  0
 30 31  1  0  0  0  0
  1 32  1  0  0  0  0
  1 33  1  0  0  0  0
  1 34  1  0  0  0  0
  4 35  1  0  0  0  0
  5 36  1  0  0  0  0
 11 37  1  0  0  0  0
 11 38  1  0  0  0  0
 13 39  1  0  0  0  0
 14 40  1  0  0  0  0
 17 41  1  0  0  0  0
 18 42  1  0  0  0  0
 19 43  1  0  0  0  0
 24 44  1  0  0  0  0
 24 45  1  0  0  0  0
 27 46  1  0  0  0  0
 28 47  1  0  0  0  0
 31 48  1  0  0  0  0
 31 49  1  0  0  0  0
 31 50  1  0  0  0  0
M  END
> <IC50[nM]>
33.4

$$$$
CHEMBL3265025
  -OEChem-05192314333D
 Structure written by MMmdl.
 50 54  0     1  0  0  0  0  0999 V2000
   -4.2554   -3.1070   13.5667 C   0  0  0  0  0  0  0  0  0  0  0  0
   -3.8739   -2.3555   14.7096 O   0  0  0  0  0  0  0  0  0  0  0  0
   -2.5267   -2.1066   14.8132 C   0  0  0  0  0  0  0  0  0  0  0  0
   -1.7520   -2.8715   15.6749 C   0  0  0  0  0  0  0  0  0  0  0  0
   -0.3933   -2.6145   15.8117 C   0  0  0  0  0  0  0  0  0  0  0  0
    0.2196   -1.5878   15.0897 C   0  0  0  0  0  0  0  0  0  0  0  0
    1.6042   -1.3666   15.3298 N   0  0  0  0  0  0  0  0  0  0  0  0
    2.5249   -0.4338   14.7828 C   0  0  0  0  0  0  0  0  0  0  0  0
    2.1518    0.4044   13.7691 N   0  0  0  0  0  0  0  0  0  0  0  0
    3.0983    1.2388   13.2332 C   0  0  0  0  0  0  0  0  0  0  0  0
    4.4000    1.2764   13.7009 C   0  0  0  0  0  0  0  0  0  0  0  0
    4.7368    0.4928   14.7596 N   0  0  0  0  0  0  0  0  0  0  0  0
    5.8926    0.3911   15.4808 C   0  0  0  0  0  0  0  0  0  0  0  0
    5.6027   -0.5483   16.5053 C   0  0  0  0  0  0  0  0  0  0  0  0
    4.3885   -1.0602   16.3544 N   0  0  0  0  0  0  0  0  0  0  0  0
    3.8325   -0.3883   15.3309 C   0  0  0  0  0  0  0  0  0  0  0  0
    2.6407    2.1399   12.1271 C   0  0  0  0  0  0  0  0  0  0  0  0
    3.5584    2.6399   11.1674 C   0  0  0  0  0  0  0  0  0  0  0  0
    3.1117    3.4654   10.1220 C   0  0  0  0  0  0  0  0  0  0  0  0
    1.7626    3.8038   10.0403 C   0  0  0  0  0  0  0  0  0  0  0  0
    1.2975    4.6116    9.0072 N   0  0  0  0  0  0  0  0  0  0  0  0
   -0.0065    4.8513    8.7182 C   0  0  0  0  0  0  0  0  0  0  0  0
   -0.4123    5.6311    7.8553 O   0  0  0  0  0  0  0  0  0  0  0  0
   -0.9274    3.9668    9.6249 C   0  0  0  0  0  0  0  0  0  0  0  0
   -0.4391    3.7019   10.9584 O   0  0  0  0  0  0  0  0  0  0  0  0
    0.8806    3.3365   10.9991 C   0  0  3  0  0  0  0  0  0  0  0  0
    1.2955    2.5129   12.0280 C   0  0  0  0  0  0  0  0  0  0  0  0
   -0.5548   -0.8136   14.1938 C   0  0  0  0  0  0  0  0  0  0  0  0
   -1.9407   -1.0774   14.0650 C   0  0  0  0  0  0  0  0  0  0  0  0
   -2.7433   -0.3209   13.2263 O   0  0  0  0  0  0  0  0  0  0  0  0
   -2.1991    0.3702   12.1141 C   0  0  0  0  0  0  0  0  0  0  0  0
   -5.3455   -3.2544   13.5712 H   0  0  0  0  0  0  0  0  0  0  0  0
   -3.9628   -2.5635   12.6562 H   0  0  0  0  0  0  0  0  0  0  0  0
   -3.7532   -4.0854   13.5870 H   0  0  0  0  0  0  0  0  0  0  0  0
   -2.2076   -3.6701   16.2416 H   0  0  0  0  0  0  0  0  0  0  0  0
    0.1972   -3.2172   16.4859 H   0  0  0  0  0  0  0  0  0  0  0  0
    5.0530    0.9879   12.8640 H   0  0  0  0  0  0  0  0  0  0  0  0
    4.6106    2.3170   13.9885 H   0  0  0  0  0  0  0  0  0  0  0  0
    6.8233    0.9114   15.3092 H   0  0  0  0  0  0  0  0  0  0  0  0
    6.2818   -0.8115   17.3028 H   0  0  0  0  0  0  0  0  0  0  0  0
    4.6052    2.3847   11.2409 H   0  0  0  0  0  0  0  0  0  0  0  0
    3.8100    3.8355    9.3860 H   0  0  0  0  0  0  0  0  0  0  0  0
   -1.8979    4.4764    9.7172 H   0  0  0  0  0  0  0  0  0  0  0  0
   -1.0677    2.9997    9.1199 H   0  0  0  0  0  0  0  0  0  0  0  0
    0.6616    2.4567   10.3762 H   0  0  0  0  0  0  0  0  0  0  0  0
    0.5815    2.1569   12.7559 H   0  0  0  0  0  0  0  0  0  0  0  0
   -0.0934   -0.0284   13.6132 H   0  0  0  0  0  0  0  0  0  0  0  0
   -3.0020    0.9048   11.5853 H   0  0  0  0  0  0  0  0  0  0  0  0
   -1.4464    1.0922   12.4637 H   0  0  0  0  0  0  0  0  0  0  0  0
   -1.7263   -0.3503   11.4304 H   0  0  0  0  0  0  0  0  0  0  0  0
  1  2  1  0  0  0  0
  2  3  1  0  0  0  0
  3  4  2  0  0  0  0
  3 29  1  0  0  0  0
  4  5  1  0  0  0  0
  5  6  2  0  0  0  0
  6  7  1  0  0  0  0
  6 28  1  0  0  0  0
  7  8  2  0  0  0  0
  8  9  1  0  0  0  0
  8 16  1  0  0  0  0
  9 10  2  0  0  0  0
 10 11  1  0  0  0  0
 10 17  1  0  0  0  0
 11 12  1  0  0  0  0
 12 13  1  0  0  0  0
 12 16  1  0  0  0  0
 13 14  2  0  0  0  0
 14 15  1  0  0  0  0
 15 16  2  0  0  0  0
 17 18  1  0  0  0  0
 17 27  2  0  0  0  0
 18 19  2  0  0  0  0
 19 20  1  0  0  0  0
 20 21  2  0  0  0  0
 20 26  1  0  0  0  0
 21 22  1  0  0  0  0
 22 23  2  0  0  0  0
 22 24  1  0  0  0  0
 24 25  1  0  0  0  0
 25 26  1  0  0  0  0
 26 27  1  0  0  0  0
 28 29  2  0  0  0  0
 29 30  1  0  0  0  0
 30 31  1  0  0  0  0
  1 32  1  0  0  0  0
  1 33  1  0  0  0  0
  1 34  1  0  0  0  0
  4 35  1  0  0  0  0
  5 36  1  0  0  0  0
 11 37  1  0  0  0  0
 11 38  1  0  0  0  0
 13 39  1  0  0  0  0
 14 40  1  0  0  0  0
 18 41  1  0  0  0  0
 19 42  1  0  0  0  0
 24 43  1  0  0  0  0
 24 44  1  0  0  0  0
 26 45  1  0  0  0  0
 27 46  1  0  0  0  0
 28 47  1  0  0  0  0
 31 48  1  0  0  0  0
 31 49  1  0  0  0  0
 31 50  1  0  0  0  0
M  END
> <IC50[nM]>
33.4

$$$$
CHEMBL3265025
  -OEChem-05192314333D
 Structure written by MMmdl.
 50 54  0     0  0  0  0  0  0999 V2000
   -4.2554   -3.1070   13.5667 C   0  0  0  0  0  0  0  0  0  0  0  0
   -3.8739   -2.3555   14.7096 O   0  0  0  0  0  0  0  0  0  0  0  0
   -2.5267   -2.1066   14.8132 C   0  0  0  0  0  0  0  0  0  0  0  0
   -1.7520   -2.8715   15.6749 C   0  0  0  0  0  0  0  0  0  0  0  0
   -0.3933   -2.6145   15.8117 C   0  0  0  0  0  0  0  0  0  0  0  0
    0.2196   -1.5878   15.0897 C   0  0  0  0  0  0  0  0  0  0  0  0
    1.6042   -1.3666   15.3298 N   0  0  0  0  0  0  0  0  0  0  0  0
    2.5249   -0.4338   14.7828 C   0  0  0  0  0  0  0  0  0  0  0  0
    2.1518    0.4044   13.7691 N   0  0  0  0  0  0  0  0  0  0  0  0
    3.0983    1.2388   13.2332 C   0  0  0  0  0  0  0  0  0  0  0  0
    4.4000    1.2764   13.7009 C   0  0  0  0  0  0  0  0  0  0  0  0
    4.7368    0.4928   14.7596 N   0  0  0  0  0  0  0  0  0  0  0  0
    5.8926    0.3911   15.4808 C   0  0  0  0  0  0  0  0  0  0  0  0
    5.6027   -0.5483   16.5053 C   0  0  0  0  0  0  0  0  0  0  0  0
    4.3885   -1.0602   16.3544 N   0  0  0  0  0  0  0  0  0  0  0  0
    3.8325   -0.3883   15.3309 C   0  0  0  0  0  0  0  0  0  0  0  0
    2.6407    2.1399   12.1271 C   0  0  0  0  0  0  0  0  0  0  0  0
    3.5584    2.6399   11.1674 C   0  0  0  0  0  0  0  0  0  0  0  0
    3.1117    3.4654   10.1220 C   0  0  0  0  0  0  0  0  0  0  0  0
    1.7626    3.8038   10.0403 C   0  0  0  0  0  0  0  0  0  0  0  0
    1.2975    4.6116    9.0072 N   0  0  0  0  0  0  0  0  0  0  0  0
   -0.0065    4.8513    8.7182 C   0  0  0  0  0  0  0  0  0  0  0  0
   -0.4123    5.6311    7.8553 O   0  0  0  0  0  0  0  0  0  0  0  0
   -0.9274    3.9668    9.6249 C   0  0  0  0  0  0  0  0  0  0  0  0
   -0.4391    3.7019   10.9584 O   0  0  0  0  0  0  0  0  0  0  0  0
    0.8806    3.3365   10.9991 C   0  0  0  0  0  0  0  0  0  0  0  0
    1.2955    2.5129   12.0280 C   0  0  0  0  0  0  0  0  0  0  0  0
   -0.5548   -0.8136   14.1938 C   0  0  0  0  0  0  0  0  0  0  0  0
   -1.9407   -1.0774   14.0650 C   0  0  0  0  0  0  0  0  0  0  0  0
   -2.7433   -0.3209   13.2263 O   0  0  0  0  0  0  0  0  0  0  0  0
   -2.1991    0.3702   12.1141 C   0  0  0  0  0  0  0  0  0  0  0  0
   -5.3455   -3.2544   13.5712 H   0  0  0  0  0  0  0  0  0  0  0  0
   -3.9628   -2.5635   12.6562 H   0  0  0  0  0  0  0  0  0  0  0  0
   -3.7532   -4.0854   13.5870 H   0  0  0  0  0  0  0  0  0  0  0  0
   -2.2076   -3.6701   16.2416 H   0  0  0  0  0  0  0  0  0  0  0  0
    0.1972   -3.2172   16.4859 H   0  0  0  0  0  0  0  0  0  0  0  0
    5.0530    0.9879   12.8640 H   0  0  0  0  0  0  0  0  0  0  0  0
    4.6106    2.3170   13.9885 H   0  0  0  0  0  0  0  0  0  0  0  0
    6.8233    0.9114   15.3092 H   0  0  0  0  0  0  0  0  0  0  0  0
    6.2818   -0.8115   17.3028 H   0  0  0  0  0  0  0  0  0  0  0  0
    4.6052    2.3847   11.2409 H   0  0  0  0  0  0  0  0  0  0  0  0
    3.6735    4.4081   10.1972 H   0  0  0  0  0  0  0  0  0  0  0  0
    3.3712    2.9580    9.1812 H   0  0  0  0  0  0  0  0  0  0  0  0
   -1.8979    4.4764    9.7172 H   0  0  0  0  0  0  0  0  0  0  0  0
   -1.0677    2.9997    9.1199 H   0  0  0  0  0  0  0  0  0  0  0  0
    0.5815    2.1569   12.7559 H   0  0  0  0  0  0  0  0  0  0  0  0
   -0.0934   -0.0284   13.6132 H   0  0  0  0  0  0  0  0  0  0  0  0
   -3.0020    0.9048   11.5853 H   0  0  0  0  0  0  0  0  0  0  0  0
   -1.4464    1.0922   12.4637 H   0  0  0  0  0  0  0  0  0  0  0  0
   -1.7263   -0.3503   11.4304 H   0  0  0  0  0  0  0  0  0  0  0  0
  1  2  1  0  0  0  0
  2  3  1  0  0  0  0
  3  4  2  0  0  0  0
  3 29  1  0  0  0  0
  4  5  1  0  0  0  0
  5  6  2  0  0  0  0
  6  7  1  0  0  0  0
  6 28  1  0  0  0  0
  7  8  2  0  0  0  0
  8  9  1  0  0  0  0
  8 16  1  0  0  0  0
  9 10  2  0  0  0  0
 10 11  1  0  0  0  0
 10 17  1  0  0  0  0
 11 12  1  0  0  0  0
 12 13  1  0  0  0  0
 12 16  1  0  0  0  0
 13 14  2  0  0  0  0
 14 15  1  0  0  0  0
 15 16  2  0  0  0  0
 17 18  2  0  0  0  0
 17 27  1  0  0  0  0
 18 19  1  0  0  0  0
 19 20  1  0  0  0  0
 20 21  2  0  0  0  0
 20 26  1  0  0  0  0
 21 22  1  0  0  0  0
 22 23  2  0  0  0  0
 22 24  1  0  0  0  0
 24 25  1  0  0  0  0
 25 26  1  0  0  0  0
 26 27  2  0  0  0  0
 28 29  2  0  0  0  0
 29 30  1  0  0  0  0
 30 31  1  0  0  0  0
  1 32  1  0  0  0  0
  1 33  1  0  0  0  0
  1 34  1  0  0  0  0
  4 35  1  0  0  0  0
  5 36  1  0  0  0  0
 11 37  1  0  0  0  0
 11 38  1  0  0  0  0
 13 39  1  0  0  0  0
 14 40  1  0  0  0  0
 18 41  1  0  0  0  0
 19 42  1  0  0  0  0
 19 43  1  0  0  0  0
 24 44  1  0  0  0  0
 24 45  1  0  0  0  0
 27 46  1  0  0  0  0
 28 47  1  0  0  0  0
 31 48  1  0  0  0  0
 31 49  1  0  0  0  0
 31 50  1  0  0  0  0
M  END
> <IC50[nM]>
33.4

$$$$
CHEMBL3265025
  -OEChem-05192314333D
 Structure written by MMmdl.
 50 54  0     1  0  0  0  0  0999 V2000
   -4.2554   -3.1070   13.5667 C   0  0  0  0  0  0  0  0  0  0  0  0
   -3.8739   -2.3555   14.7096 O   0  0  0  0  0  0  0  0  0  0  0  0
   -2.5267   -2.1066   14.8132 C   0  0  3  0  0  0  0  0  0  0  0  0
   -1.7520   -2.8715   15.6749 C   0  0  0  0  0  0  0  0  0  0  0  0
   -0.3933   -2.6145   15.8117 C   0  0  0  0  0  0  0  0  0  0  0  0
    0.2196   -1.5878   15.0897 C   0  0  0  0  0  0  0  0  0  0  0  0
    1.6042   -1.3666   15.3298 N   0  0  0  0  0  0  0  0  0  0  0  0
    2.5249   -0.4338   14.7828 C   0  0  0  0  0  0  0  0  0  0  0  0
    2.1518    0.4044   13.7691 N   0  0  0  0  0  0  0  0  0  0  0  0
    3.0983    1.2388   13.2332 C   0  0  0  0  0  0  0  0  0  0  0  0
    4.4000    1.2764   13.7009 C   0  0  0  0  0  0  0  0  0  0  0  0
    4.7368    0.4928   14.7596 N   0  0  0  0  0  0  0  0  0  0  0  0
    5.8926    0.3911   15.4808 C   0  0  0  0  0  0  0  0  0  0  0  0
    5.6027   -0.5483   16.5053 C   0  0  0  0  0  0  0  0  0  0  0  0
    4.3885   -1.0602   16.3544 N   0  0  0  0  0  0  0  0  0  0  0  0
    3.8325   -0.3883   15.3309 C   0  0  0  0  0  0  0  0  0  0  0  0
    2.6407    2.1399   12.1271 C   0  0  0  0  0  0  0  0  0  0  0  0
    3.5584    2.6399   11.1674 C   0  0  0  0  0  0  0  0  0  0  0  0
    3.1117    3.4654   10.1220 C   0  0  0  0  0  0  0  0  0  0  0  0
    1.7626    3.8038   10.0403 C   0  0  0  0  0  0  0  0  0  0  0  0
    1.2975    4.6116    9.0072 N   0  0  0  0  0  0  0  0  0  0  0  0
   -0.0065    4.8513    8.7182 C   0  0  0  0  0  0  0  0  0  0  0  0
   -0.4123    5.6311    7.8553 O   0  0  0  0  0  0  0  0  0  0  0  0
   -0.9274    3.9668    9.6249 C   0  0  0  0  0  0  0  0  0  0  0  0
   -0.4391    3.7019   10.9584 O   0  0  0  0  0  0  0  0  0  0  0  0
    0.8806    3.3365   10.9991 C   0  0  0  0  0  0  0  0  0  0  0  0
    1.2955    2.5129   12.0280 C   0  0  0  0  0  0  0  0  0  0  0  0
   -0.5548   -0.8136   14.1938 C   0  0  0  0  0  0  0  0  0  0  0  0
   -1.9407   -1.0774   14.0650 C   0  0  0  0  0  0  0  0  0  0  0  0
   -2.7433   -0.3209   13.2263 O   0  0  0  0  0  0  0  0  0  0  0  0
   -2.1991    0.3702   12.1141 C   0  0  0  0  0  0  0  0  0  0  0  0
   -5.3455   -3.2544   13.5712 H   0  0  0  0  0  0  0  0  0  0  0  0
   -3.9628   -2.5635   12.6562 H   0  0  0  0  0  0  0  0  0  0  0  0
   -3.7532   -4.0854   13.5870 H   0  0  0  0  0  0  0  0  0  0  0  0
   -2.3286   -2.8176   13.9976 H   0  0  0  0  0  0  0  0  0  0  0  0
   -2.2076   -3.6701   16.2416 H   0  0  0  0  0  0  0  0  0  0  0  0
    0.1972   -3.2172   16.4859 H   0  0  0  0  0  0  0  0  0  0  0  0
    5.0530    0.9879   12.8640 H   0  0  0  0  0  0  0  0  0  0  0  0
    4.6106    2.3170   13.9885 H   0  0  0  0  0  0  0  0  0  0  0  0
    6.8233    0.9114   15.3092 H   0  0  0  0  0  0  0  0  0  0  0  0
    6.2818   -0.8115   17.3028 H   0  0  0  0  0  0  0  0  0  0  0  0
    4.6052    2.3847   11.2409 H   0  0  0  0  0  0  0  0  0  0  0  0
    3.8100    3.8355    9.3860 H   0  0  0  0  0  0  0  0  0  0  0  0
   -1.8979    4.4764    9.7172 H   0  0  0  0  0  0  0  0  0  0  0  0
   -1.0677    2.9997    9.1199 H   0  0  0  0  0  0  0  0  0  0  0  0
    0.5815    2.1569   12.7559 H   0  0  0  0  0  0  0  0  0  0  0  0
   -0.0934   -0.0284   13.6132 H   0  0  0  0  0  0  0  0  0  0  0  0
   -3.0020    0.9048   11.5853 H   0  0  0  0  0  0  0  0  0  0  0  0
   -1.4464    1.0922   12.4637 H   0  0  0  0  0  0  0  0  0  0  0  0
   -1.7263   -0.3503   11.4304 H   0  0  0  0  0  0  0  0  0  0  0  0
  1  2  1  0  0  0  0
  2  3  1  0  0  0  0
  3  4  1  0  0  0  0
  3 29  1  0  0  0  0
  4  5  2  0  0  0  0
  5  6  1  0  0  0  0
  6  7  2  0  0  0  0
  6 28  1  0  0  0  0
  7  8  1  0  0  0  0
  8  9  2  0  0  0  0
  8 16  1  0  0  0  0
  9 10  1  0  0  0  0
 10 11  1  0  0  0  0
 10 17  2  0  0  0  0
 11 12  1  0  0  0  0
 12 13  1  0  0  0  0
 12 16  1  0  0  0  0
 13 14  2  0  0  0  0
 14 15  1  0  0  0  0
 15 16  2  0  0  0  0
 17 18  1  0  0  0  0
 17 27  1  0  0  0  0
 18 19  2  0  0  0  0
 19 20  1  0  0  0  0
 20 21  2  0  0  0  0
 20 26  1  0  0  0  0
 21 22  1  0  0  0  0
 22 23  2  0  0  0  0
 22 24  1  0  0  0  0
 24 25  1  0  0  0  0
 25 26  1  0  0  0  0
 26 27  2  0  0  0  0
 28 29  2  0  0  0  0
 29 30  1  0  0  0  0
 30 31  1  0  0  0  0
  1 32  1  0  0  0  0
  1 33  1  0  0  0  0
  1 34  1  0  0  0  0
  3 35  1  0  0  0  0
  4 36  1  0  0  0  0
  5 37  1  0  0  0  0
 11 38  1  0  0  0  0
 11 39  1  0  0  0  0
 13 40  1  0  0  0  0
 14 41  1  0  0  0  0
 18 42  1  0  0  0  0
 19 43  1  0  0  0  0
 24 44  1  0  0  0  0
 24 45  1  0  0  0  0
 27 46  1  0  0  0  0
 28 47  1  0  0  0  0
 31 48  1  0  0  0  0
 31 49  1  0  0  0  0
 31 50  1  0  0  0  0
M  END
> <IC50[nM]>
33.4

$$$$
CHEMBL3265025
  -OEChem-05192314333D
 Structure written by MMmdl.
 50 54  0     0  0  0  0  0  0999 V2000
   -4.2554   -3.1070   13.5667 C   0  0  0  0  0  0  0  0  0  0  0  0
   -3.8739   -2.3555   14.7096 O   0  0  0  0  0  0  0  0  0  0  0  0
   -2.5267   -2.1066   14.8132 C   0  0  0  0  0  0  0  0  0  0  0  0
   -1.7520   -2.8715   15.6749 C   0  0  0  0  0  0  0  0  0  0  0  0
   -0.3933   -2.6145   15.8117 C   0  0  0  0  0  0  0  0  0  0  0  0
    0.2196   -1.5878   15.0897 C   0  0  0  0  0  0  0  0  0  0  0  0
    1.6042   -1.3666   15.3298 N   0  0  0  0  0  0  0  0  0  0  0  0
    2.5249   -0.4338   14.7828 C   0  0  0  0  0  0  0  0  0  0  0  0
    2.1518    0.4044   13.7691 N   0  0  0  0  0  0  0  0  0  0  0  0
    3.0983    1.2388   13.2332 C   0  0  0  0  0  0  0  0  0  0  0  0
    4.4000    1.2764   13.7009 C   0  0  0  0  0  0  0  0  0  0  0  0
    4.7368    0.4928   14.7596 N   0  0  0  0  0  0  0  0  0  0  0  0
    5.8926    0.3911   15.4808 C   0  0  0  0  0  0  0  0  0  0  0  0
    5.6027   -0.5483   16.5053 C   0  0  0  0  0  0  0  0  0  0  0  0
    4.3885   -1.0602   16.3544 N   0  0  0  0  0  0  0  0  0  0  0  0
    3.8325   -0.3883   15.3309 C   0  0  0  0  0  0  0  0  0  0  0  0
    2.6407    2.1399   12.1271 C   0  0  0  0  0  0  0  0  0  0  0  0
    3.5584    2.6399   11.1674 C   0  0  0  0  0  0  0  0  0  0  0  0
    3.1117    3.4654   10.1220 C   0  0  0  0  0  0  0  0  0  0  0  0
    1.7626    3.8038   10.0403 C   0  0  0  0  0  0  0  0  0  0  0  0
    1.2975    4.6116    9.0072 N   0  0  0  0  0  0  0  0  0  0  0  0
   -0.0065    4.8513    8.7182 C   0  0  0  0  0  0  0  0  0  0  0  0
   -0.4123    5.6311    7.8553 O   0  0  0  0  0  0  0  0  0  0  0  0
   -0.9274    3.9668    9.6249 C   0  0  0  0  0  0  0  0  0  0  0  0
   -0.4391    3.7019   10.9584 O   0  0  0  0  0  0  0  0  0  0  0  0
    0.8806    3.3365   10.9991 C   0  0  0  0  0  0  0  0  0  0  0  0
    1.2955    2.5129   12.0280 C   0  0  0  0  0  0  0  0  0  0  0  0
   -0.5548   -0.8136   14.1938 C   0  0  0  0  0  0  0  0  0  0  0  0
   -1.9407   -1.0774   14.0650 C   0  0  0  0  0  0  0  0  0  0  0  0
   -2.7433   -0.3209   13.2263 O   0  0  0  0  0  0  0  0  0  0  0  0
   -2.1991    0.3702   12.1141 C   0  0  0  0  0  0  0  0  0  0  0  0
   -5.3455   -3.2544   13.5712 H   0  0  0  0  0  0  0  0  0  0  0  0
   -3.9628   -2.5635   12.6562 H   0  0  0  0  0  0  0  0  0  0  0  0
   -3.7532   -4.0854   13.5870 H   0  0  0  0  0  0  0  0  0  0  0  0
   -2.2076   -3.6701   16.2416 H   0  0  0  0  0  0  0  0  0  0  0  0
   -0.2219   -2.3944   16.8757 H   0  0  0  0  0  0  0  0  0  0  0  0
    0.1298   -3.5434   15.5405 H   0  0  0  0  0  0  0  0  0  0  0  0
    5.0530    0.9879   12.8640 H   0  0  0  0  0  0  0  0  0  0  0  0
    4.6106    2.3170   13.9885 H   0  0  0  0  0  0  0  0  0  0  0  0
    6.8233    0.9114   15.3092 H   0  0  0  0  0  0  0  0  0  0  0  0
    6.2818   -0.8115   17.3028 H   0  0  0  0  0  0  0  0  0  0  0  0
    4.6052    2.3847   11.2409 H   0  0  0  0  0  0  0  0  0  0  0  0
    3.8100    3.8355    9.3860 H   0  0  0  0  0  0  0  0  0  0  0  0
   -1.8979    4.4764    9.7172 H   0  0  0  0  0  0  0  0  0  0  0  0
   -1.0677    2.9997    9.1199 H   0  0  0  0  0  0  0  0  0  0  0  0
    0.5815    2.1569   12.7559 H   0  0  0  0  0  0  0  0  0  0  0  0
   -0.0934   -0.0284   13.6132 H   0  0  0  0  0  0  0  0  0  0  0  0
   -3.0020    0.9048   11.5853 H   0  0  0  0  0  0  0  0  0  0  0  0
   -1.4464    1.0922   12.4637 H   0  0  0  0  0  0  0  0  0  0  0  0
   -1.7263   -0.3503   11.4304 H   0  0  0  0  0  0  0  0  0  0  0  0
  1  2  1  0  0  0  0
  2  3  1  0  0  0  0
  3  4  2  0  0  0  0
  3 29  1  0  0  0  0
  4  5  1  0  0  0  0
  5  6  1  0  0  0  0
  6  7  2  0  0  0  0
  6 28  1  0  0  0  0
  7  8  1  0  0  0  0
  8  9  2  0  0  0  0
  8 16  1  0  0  0  0
  9 10  1  0  0  0  0
 10 11  1  0  0  0  0
 10 17  2  0  0  0  0
 11 12  1  0  0  0  0
 12 13  1  0  0  0  0
 12 16  1  0  0  0  0
 13 14  2  0  0  0  0
 14 15  1  0  0  0  0
 15 16  2  0  0  0  0
 17 18  1  0  0  0  0
 17 27  1  0  0  0  0
 18 19  2  0  0  0  0
 19 20  1  0  0  0  0
 20 21  2  0  0  0  0
 20 26  1  0  0  0  0
 21 22  1  0  0  0  0
 22 23  2  0  0  0  0
 22 24  1  0  0  0  0
 24 25  1  0  0  0  0
 25 26  1  0  0  0  0
 26 27  2  0  0  0  0
 28 29  2  0  0  0  0
 29 30  1  0  0  0  0
 30 31  1  0  0  0  0
  1 32  1  0  0  0  0
  1 33  1  0  0  0  0
  1 34  1  0  0  0  0
  4 35  1  0  0  0  0
  5 36  1  0  0  0  0
  5 37  1  0  0  0  0
 11 38  1  0  0  0  0
 11 39  1  0  0  0  0
 13 40  1  0  0  0  0
 14 41  1  0  0  0  0
 18 42  1  0  0  0  0
 19 43  1  0  0  0  0
 24 44  1  0  0  0  0
 24 45  1  0  0  0  0
 27 46  1  0  0  0  0
 28 47  1  0  0  0  0
 31 48  1  0  0  0  0
 31 49  1  0  0  0  0
 31 50  1  0  0  0  0
M  END
> <IC50[nM]>
33.4

$$$$
CHEMBL3265025
  -OEChem-05192314333D
 Structure written by MMmdl.
 50 54  0     0  0  0  0  0  0999 V2000
   -4.2554   -3.1070   13.5667 C   0  0  0  0  0  0  0  0  0  0  0  0
   -3.8739   -2.3555   14.7096 O   0  0  0  0  0  0  0  0  0  0  0  0
   -2.5267   -2.1066   14.8132 C   0  0  0  0  0  0  0  0  0  0  0  0
   -1.7520   -2.8715   15.6749 C   0  0  0  0  0  0  0  0  0  0  0  0
   -0.3933   -2.6145   15.8117 C   0  0  0  0  0  0  0  0  0  0  0  0
    0.2196   -1.5878   15.0897 C   0  0  0  0  0  0  0  0  0  0  0  0
    1.6042   -1.3666   15.3298 N   0  0  0  0  0  0  0  0  0  0  0  0
    2.5249   -0.4338   14.7828 C   0  0  0  0  0  0  0  0  0  0  0  0
    2.1518    0.4044   13.7691 N   0  0  0  0  0  0  0  0  0  0  0  0
    3.0983    1.2388   13.2332 C   0  0  0  0  0  0  0  0  0  0  0  0
    4.4000    1.2764   13.7009 C   0  0  0  0  0  0  0  0  0  0  0  0
    4.7368    0.4928   14.7596 N   0  0  0  0  0  0  0  0  0  0  0  0
    5.8926    0.3911   15.4808 C   0  0  0  0  0  0  0  0  0  0  0  0
    5.6027   -0.5483   16.5053 C   0  0  0  0  0  0  0  0  0  0  0  0
    4.3885   -1.0602   16.3544 N   0  0  0  0  0  0  0  0  0  0  0  0
    3.8325   -0.3883   15.3309 C   0  0  0  0  0  0  0  0  0  0  0  0
    2.6407    2.1399   12.1271 C   0  0  0  0  0  0  0  0  0  0  0  0
    3.5584    2.6399   11.1674 C   0  0  0  0  0  0  0  0  0  0  0  0
    3.1117    3.4654   10.1220 C   0  0  0  0  0  0  0  0  0  0  0  0
    1.7626    3.8038   10.0403 C   0  0  0  0  0  0  0  0  0  0  0  0
    1.2975    4.6116    9.0072 N   0  0  0  0  0  0  0  0  0  0  0  0
   -0.0065    4.8513    8.7182 C   0  0  0  0  0  0  0  0  0  0  0  0
   -0.4123    5.6311    7.8553 O   0  0  0  0  0  0  0  0  0  0  0  0
   -0.9274    3.9668    9.6249 C   0  0  0  0  0  0  0  0  0  0  0  0
   -0.4391    3.7019   10.9584 O   0  0  0  0  0  0  0  0  0  0  0  0
    0.8806    3.3365   10.9991 C   0  0  0  0  0  0  0  0  0  0  0  0
    1.2955    2.5129   12.0280 C   0  0  0  0  0  0  0  0  0  0  0  0
   -0.5548   -0.8136   14.1938 C   0  0  0  0  0  0  0  0  0  0  0  0
   -1.9407   -1.0774   14.0650 C   0  0  0  0  0  0  0  0  0  0  0  0
   -2.7433   -0.3209   13.2263 O   0  0  0  0  0  0  0  0  0  0  0  0
   -2.1991    0.3702   12.1141 C   0  0  0  0  0  0  0  0  0  0  0  0
   -5.3455   -3.2544   13.5712 H   0  0  0  0  0  0  0  0  0  0  0  0
   -3.9628   -2.5635   12.6562 H   0  0  0  0  0  0  0  0  0  0  0  0
   -3.7532   -4.0854   13.5870 H   0  0  0  0  0  0  0  0  0  0  0  0
   -2.2076   -3.6701   16.2416 H   0  0  0  0  0  0  0  0  0  0  0  0
    0.1972   -3.2172   16.4859 H   0  0  0  0  0  0  0  0  0  0  0  0
    5.0530    0.9879   12.8640 H   0  0  0  0  0  0  0  0  0  0  0  0
    4.6106    2.3170   13.9885 H   0  0  0  0  0  0  0  0  0  0  0  0
    6.8233    0.9114   15.3092 H   0  0  0  0  0  0  0  0  0  0  0  0
    6.2818   -0.8115   17.3028 H   0  0  0  0  0  0  0  0  0  0  0  0
    4.6052    2.3847   11.2409 H   0  0  0  0  0  0  0  0  0  0  0  0
    3.8100    3.8355    9.3860 H   0  0  0  0  0  0  0  0  0  0  0  0
   -1.8979    4.4764    9.7172 H   0  0  0  0  0  0  0  0  0  0  0  0
   -1.0677    2.9997    9.1199 H   0  0  0  0  0  0  0  0  0  0  0  0
    0.5815    2.1569   12.7559 H   0  0  0  0  0  0  0  0  0  0  0  0
   -0.4564    0.2355   14.5095 H   0  0  0  0  0  0  0  0  0  0  0  0
   -0.1106   -0.9393   13.1953 H   0  0  0  0  0  0  0  0  0  0  0  0
   -3.0020    0.9048   11.5853 H   0  0  0  0  0  0  0  0  0  0  0  0
   -1.4464    1.0922   12.4637 H   0  0  0  0  0  0  0  0  0  0  0  0
   -1.7263   -0.3503   11.4304 H   0  0  0  0  0  0  0  0  0  0  0  0
  1  2  1  0  0  0  0
  2  3  1  0  0  0  0
  3  4  1  0  0  0  0
  3 29  2  0  0  0  0
  4  5  2  0  0  0  0
  5  6  1  0  0  0  0
  6  7  2  0  0  0  0
  6 28  1  0  0  0  0
  7  8  1  0  0  0  0
  8  9  2  0  0  0  0
  8 16  1  0  0  0  0
  9 10  1  0  0  0  0
 10 11  1  0  0  0  0
 10 17  2  0  0  0  0
 11 12  1  0  0  0  0
 12 13  1  0  0  0  0
 12 16  1  0  0  0  0
 13 14  2  0  0  0  0
 14 15  1  0  0  0  0
 15 16  2  0  0  0  0
 17 18  1  0  0  0  0
 17 27  1  0  0  0  0
 18 19  2  0  0  0  0
 19 20  1  0  0  0  0
 20 21  2  0  0  0  0
 20 26  1  0  0  0  0
 21 22  1  0  0  0  0
 22 23  2  0  0  0  0
 22 24  1  0  0  0  0
 24 25  1  0  0  0  0
 25 26  1  0  0  0  0
 26 27  2  0  0  0  0
 28 29  1  0  0  0  0
 29 30  1  0  0  0  0
 30 31  1  0  0  0  0
  1 32  1  0  0  0  0
  1 33  1  0  0  0  0
  1 34  1  0  0  0  0
  4 35  1  0  0  0  0
  5 36  1  0  0  0  0
 11 37  1  0  0  0  0
 11 38  1  0  0  0  0
 13 39  1  0  0  0  0
 14 40  1  0  0  0  0
 18 41  1  0  0  0  0
 19 42  1  0  0  0  0
 24 43  1  0  0  0  0
 24 44  1  0  0  0  0
 27 45  1  0  0  0  0
 28 46  1  0  0  0  0
 28 47  1  0  0  0  0
 31 48  1  0  0  0  0
 31 49  1  0  0  0  0
 31 50  1  0  0  0  0
M  END
> <IC50[nM]>
33.4

$$$$
CHEMBL3265025
  -OEChem-05192314333D
 Structure written by MMmdl.
 50 54  0     1  0  0  0  0  0999 V2000
   -4.2554   -3.1070   13.5667 C   0  0  0  0  0  0  0  0  0  0  0  0
   -3.8739   -2.3555   14.7096 O   0  0  0  0  0  0  0  0  0  0  0  0
   -2.5267   -2.1066   14.8132 C   0  0  3  0  0  0  0  0  0  0  0  0
   -1.7520   -2.8715   15.6749 C   0  0  0  0  0  0  0  0  0  0  0  0
   -0.3933   -2.6145   15.8117 C   0  0  0  0  0  0  0  0  0  0  0  0
    0.2196   -1.5878   15.0897 C   0  0  0  0  0  0  0  0  0  0  0  0
    1.6042   -1.3666   15.3298 N   0  0  0  0  0  0  0  0  0  0  0  0
    2.5249   -0.4338   14.7828 C   0  0  0  0  0  0  0  0  0  0  0  0
    2.1518    0.4044   13.7691 N   0  0  0  0  0  0  0  0  0  0  0  0
    3.0983    1.2388   13.2332 C   0  0  0  0  0  0  0  0  0  0  0  0
    4.4000    1.2764   13.7009 C   0  0  0  0  0  0  0  0  0  0  0  0
    4.7368    0.4928   14.7596 N   0  0  0  0  0  0  0  0  0  0  0  0
    5.8926    0.3911   15.4808 C   0  0  0  0  0  0  0  0  0  0  0  0
    5.6027   -0.5483   16.5053 C   0  0  0  0  0  0  0  0  0  0  0  0
    4.3885   -1.0602   16.3544 N   0  0  0  0  0  0  0  0  0  0  0  0
    3.8325   -0.3883   15.3309 C   0  0  0  0  0  0  0  0  0  0  0  0
    2.6407    2.1399   12.1271 C   0  0  3  0  0  0  0  0  0  0  0  0
    3.5584    2.6399   11.1674 C   0  0  0  0  0  0  0  0  0  0  0  0
    3.1117    3.4654   10.1220 C   0  0  0  0  0  0  0  0  0  0  0  0
    1.7626    3.8038   10.0403 C   0  0  0  0  0  0  0  0  0  0  0  0
    1.2975    4.6116    9.0072 N   0  0  0  0  0  0  0  0  0  0  0  0
   -0.0065    4.8513    8.7182 C   0  0  0  0  0  0  0  0  0  0  0  0
   -0.4123    5.6311    7.8553 O   0  0  0  0  0  0  0  0  0  0  0  0
   -0.9274    3.9668    9.6249 C   0  0  0  0  0  0  0  0  0  0  0  0
   -0.4391    3.7019   10.9584 O   0  0  0  0  0  0  0  0  0  0  0  0
    0.8806    3.3365   10.9991 C   0  0  0  0  0  0  0  0  0  0  0  0
    1.2955    2.5129   12.0280 C   0  0  0  0  0  0  0  0  0  0  0  0
   -0.5548   -0.8136   14.1938 C   0  0  0  0  0  0  0  0  0  0  0  0
   -1.9407   -1.0774   14.0650 C   0  0  0  0  0  0  0  0  0  0  0  0
   -2.7433   -0.3209   13.2263 O   0  0  0  0  0  0  0  0  0  0  0  0
   -2.1991    0.3702   12.1141 C   0  0  0  0  0  0  0  0  0  0  0  0
   -5.3455   -3.2544   13.5712 H   0  0  0  0  0  0  0  0  0  0  0  0
   -3.9628   -2.5635   12.6562 H   0  0  0  0  0  0  0  0  0  0  0  0
   -3.7532   -4.0854   13.5870 H   0  0  0  0  0  0  0  0  0  0  0  0
   -2.3286   -2.8176   13.9976 H   0  0  0  0  0  0  0  0  0  0  0  0
   -2.2076   -3.6701   16.2416 H   0  0  0  0  0  0  0  0  0  0  0  0
    0.1972   -3.2172   16.4859 H   0  0  0  0  0  0  0  0  0  0  0  0
    5.1344    1.9160   13.2339 H   0  0  0  0  0  0  0  0  0  0  0  0
    6.8233    0.9114   15.3092 H   0  0  0  0  0  0  0  0  0  0  0  0
    6.2818   -0.8115   17.3028 H   0  0  0  0  0  0  0  0  0  0  0  0
    2.4476    1.2641   11.4901 H   0  0  0  0  0  0  0  0  0  0  0  0
    4.6052    2.3847   11.2409 H   0  0  0  0  0  0  0  0  0  0  0  0
    3.8100    3.8355    9.3860 H   0  0  0  0  0  0  0  0  0  0  0  0
   -1.8979    4.4764    9.7172 H   0  0  0  0  0  0  0  0  0  0  0  0
   -1.0677    2.9997    9.1199 H   0  0  0  0  0  0  0  0  0  0  0  0
    0.5815    2.1569   12.7559 H   0  0  0  0  0  0  0  0  0  0  0  0
   -0.0934   -0.0284   13.6132 H   0  0  0  0  0  0  0  0  0  0  0  0
   -3.0020    0.9048   11.5853 H   0  0  0  0  0  0  0  0  0  0  0  0
   -1.4464    1.0922   12.4637 H   0  0  0  0  0  0  0  0  0  0  0  0
   -1.7263   -0.3503   11.4304 H   0  0  0  0  0  0  0  0  0  0  0  0
  1  2  1  0  0  0  0
  2  3  1  0  0  0  0
  3  4  1  0  0  0  0
  3 29  1  0  0  0  0
  4  5  2  0  0  0  0
  5  6  1  0  0  0  0
  6  7  2  0  0  0  0
  6 28  1  0  0  0  0
  7  8  1  0  0  0  0
  8  9  2  0  0  0  0
  8 16  1  0  0  0  0
  9 10  1  0  0  0  0
 10 11  2  0  0  0  0
 10 17  1  0  0  0  0
 11 12  1  0  0  0  0
 12 13  1  0  0  0  0
 12 16  1  0  0  0  0
 13 14  2  0  0  0  0
 14 15  1  0  0  0  0
 15 16  2  0  0  0  0
 17 18  1  0  0  0  0
 17 27  1  0  0  0  0
 18 19  2  0  0  0  0
 19 20  1  0  0  0  0
 20 21  2  0  0  0  0
 20 26  1  0  0  0  0
 21 22  1  0  0  0  0
 22 23  2  0  0  0  0
 22 24  1  0  0  0  0
 24 25  1  0  0  0  0
 25 26  1  0  0  0  0
 26 27  2  0  0  0  0
 28 29  2  0  0  0  0
 29 30  1  0  0  0  0
 30 31  1  0  0  0  0
  1 32  1  0  0  0  0
  1 33  1  0  0  0  0
  1 34  1  0  0  0  0
  3 35  1  0  0  0  0
  4 36  1  0  0  0  0
  5 37  1  0  0  0  0
 11 38  1  0  0  0  0
 13 39  1  0  0  0  0
 14 40  1  0  0  0  0
 17 41  1  0  0  0  0
 18 42  1  0  0  0  0
 19 43  1  0  0  0  0
 24 44  1  0  0  0  0
 24 45  1  0  0  0  0
 27 46  1  0  0  0  0
 28 47  1  0  0  0  0
 31 48  1  0  0  0  0
 31 49  1  0  0  0  0
 31 50  1  0  0  0  0
M  END
> <IC50[nM]>
33.4

$$$$
CHEMBL3265025
  -OEChem-05192314333D
 Structure written by MMmdl.
 50 54  0     1  0  0  0  0  0999 V2000
   -4.2554   -3.1070   13.5667 C   0  0  0  0  0  0  0  0  0  0  0  0
   -3.8739   -2.3555   14.7096 O   0  0  0  0  0  0  0  0  0  0  0  0
   -2.5267   -2.1066   14.8132 C   0  0  3  0  0  0  0  0  0  0  0  0
   -1.7520   -2.8715   15.6749 C   0  0  0  0  0  0  0  0  0  0  0  0
   -0.3933   -2.6145   15.8117 C   0  0  0  0  0  0  0  0  0  0  0  0
    0.2196   -1.5878   15.0897 C   0  0  0  0  0  0  0  0  0  0  0  0
    1.6042   -1.3666   15.3298 N   0  0  0  0  0  0  0  0  0  0  0  0
    2.5249   -0.4338   14.7828 C   0  0  0  0  0  0  0  0  0  0  0  0
    2.1518    0.4044   13.7691 N   0  0  0  0  0  0  0  0  0  0  0  0
    3.0983    1.2388   13.2332 C   0  0  0  0  0  0  0  0  0  0  0  0
    4.4000    1.2764   13.7009 C   0  0  0  0  0  0  0  0  0  0  0  0
    4.7368    0.4928   14.7596 N   0  0  0  0  0  0  0  0  0  0  0  0
    5.8926    0.3911   15.4808 C   0  0  0  0  0  0  0  0  0  0  0  0
    5.6027   -0.5483   16.5053 C   0  0  0  0  0  0  0  0  0  0  0  0
    4.3885   -1.0602   16.3544 N   0  0  0  0  0  0  0  0  0  0  0  0
    3.8325   -0.3883   15.3309 C   0  0  0  0  0  0  0  0  0  0  0  0
    2.6407    2.1399   12.1271 C   0  0  0  0  0  0  0  0  0  0  0  0
    3.5584    2.6399   11.1674 C   0  0  0  0  0  0  0  0  0  0  0  0
    3.1117    3.4654   10.1220 C   0  0  0  0  0  0  0  0  0  0  0  0
    1.7626    3.8038   10.0403 C   0  0  0  0  0  0  0  0  0  0  0  0
    1.2975    4.6116    9.0072 N   0  0  0  0  0  0  0  0  0  0  0  0
   -0.0065    4.8513    8.7182 C   0  0  0  0  0  0  0  0  0  0  0  0
   -0.4123    5.6311    7.8553 O   0  0  0  0  0  0  0  0  0  0  0  0
   -0.9274    3.9668    9.6249 C   0  0  0  0  0  0  0  0  0  0  0  0
   -0.4391    3.7019   10.9584 O   0  0  0  0  0  0  0  0  0  0  0  0
    0.8806    3.3365   10.9991 C   0  0  3  0  0  0  0  0  0  0  0  0
    1.2955    2.5129   12.0280 C   0  0  0  0  0  0  0  0  0  0  0  0
   -0.5548   -0.8136   14.1938 C   0  0  0  0  0  0  0  0  0  0  0  0
   -1.9407   -1.0774   14.0650 C   0  0  0  0  0  0  0  0  0  0  0  0
   -2.7433   -0.3209   13.2263 O   0  0  0  0  0  0  0  0  0  0  0  0
   -2.1991    0.3702   12.1141 C   0  0  0  0  0  0  0  0  0  0  0  0
   -5.3455   -3.2544   13.5712 H   0  0  0  0  0  0  0  0  0  0  0  0
   -3.9628   -2.5635   12.6562 H   0  0  0  0  0  0  0  0  0  0  0  0
   -3.7532   -4.0854   13.5870 H   0  0  0  0  0  0  0  0  0  0  0  0
   -2.3286   -2.8176   13.9976 H   0  0  0  0  0  0  0  0  0  0  0  0
   -2.2076   -3.6701   16.2416 H   0  0  0  0  0  0  0  0  0  0  0  0
    0.1972   -3.2172   16.4859 H   0  0  0  0  0  0  0  0  0  0  0  0
    5.1344    1.9160   13.2339 H   0  0  0  0  0  0  0  0  0  0  0  0
    6.8233    0.9114   15.3092 H   0  0  0  0  0  0  0  0  0  0  0  0
    6.2818   -0.8115   17.3028 H   0  0  0  0  0  0  0  0  0  0  0  0
    4.6052    2.3847   11.2409 H   0  0  0  0  0  0  0  0  0  0  0  0
    3.8100    3.8355    9.3860 H   0  0  0  0  0  0  0  0  0  0  0  0
   -1.8979    4.4764    9.7172 H   0  0  0  0  0  0  0  0  0  0  0  0
   -1.0677    2.9997    9.1199 H   0  0  0  0  0  0  0  0  0  0  0  0
    0.6616    2.4567   10.3762 H   0  0  0  0  0  0  0  0  0  0  0  0
    0.5815    2.1569   12.7559 H   0  0  0  0  0  0  0  0  0  0  0  0
   -0.0934   -0.0284   13.6132 H   0  0  0  0  0  0  0  0  0  0  0  0
   -3.0020    0.9048   11.5853 H   0  0  0  0  0  0  0  0  0  0  0  0
   -1.4464    1.0922   12.4637 H   0  0  0  0  0  0  0  0  0  0  0  0
   -1.7263   -0.3503   11.4304 H   0  0  0  0  0  0  0  0  0  0  0  0
  1  2  1  0  0  0  0
  2  3  1  0  0  0  0
  3  4  1  0  0  0  0
  3 29  1  0  0  0  0
  4  5  2  0  0  0  0
  5  6  1  0  0  0  0
  6  7  2  0  0  0  0
  6 28  1  0  0  0  0
  7  8  1  0  0  0  0
  8  9  2  0  0  0  0
  8 16  1  0  0  0  0
  9 10  1  0  0  0  0
 10 11  2  0  0  0  0
 10 17  1  0  0  0  0
 11 12  1  0  0  0  0
 12 13  1  0  0  0  0
 12 16  1  0  0  0  0
 13 14  2  0  0  0  0
 14 15  1  0  0  0  0
 15 16  2  0  0  0  0
 17 18  1  0  0  0  0
 17 27  2  0  0  0  0
 18 19  2  0  0  0  0
 19 20  1  0  0  0  0
 20 21  2  0  0  0  0
 20 26  1  0  0  0  0
 21 22  1  0  0  0  0
 22 23  2  0  0  0  0
 22 24  1  0  0  0  0
 24 25  1  0  0  0  0
 25 26  1  0  0  0  0
 26 27  1  0  0  0  0
 28 29  2  0  0  0  0
 29 30  1  0  0  0  0
 30 31  1  0  0  0  0
  1 32  1  0  0  0  0
  1 33  1  0  0  0  0
  1 34  1  0  0  0  0
  3 35  1  0  0  0  0
  4 36  1  0  0  0  0
  5 37  1  0  0  0  0
 11 38  1  0  0  0  0
 13 39  1  0  0  0  0
 14 40  1  0  0  0  0
 18 41  1  0  0  0  0
 19 42  1  0  0  0  0
 24 43  1  0  0  0  0
 24 44  1  0  0  0  0
 26 45  1  0  0  0  0
 27 46  1  0  0  0  0
 28 47  1  0  0  0  0
 31 48  1  0  0  0  0
 31 49  1  0  0  0  0
 31 50  1  0  0  0  0
M  END
> <IC50[nM]>
33.4

$$$$
CHEMBL3265025
  -OEChem-05192314333D
 Structure written by MMmdl.
 50 54  0     1  0  0  0  0  0999 V2000
   -4.2554   -3.1070   13.5667 C   0  0  0  0  0  0  0  0  0  0  0  0
   -3.8739   -2.3555   14.7096 O   0  0  0  0  0  0  0  0  0  0  0  0
   -2.5267   -2.1066   14.8132 C   0  0  3  0  0  0  0  0  0  0  0  0
   -1.7520   -2.8715   15.6749 C   0  0  0  0  0  0  0  0  0  0  0  0
   -0.3933   -2.6145   15.8117 C   0  0  0  0  0  0  0  0  0  0  0  0
    0.2196   -1.5878   15.0897 C   0  0  0  0  0  0  0  0  0  0  0  0
    1.6042   -1.3666   15.3298 N   0  0  0  0  0  0  0  0  0  0  0  0
    2.5249   -0.4338   14.7828 C   0  0  0  0  0  0  0  0  0  0  0  0
    2.1518    0.4044   13.7691 N   0  0  0  0  0  0  0  0  0  0  0  0
    3.0983    1.2388   13.2332 C   0  0  0  0  0  0  0  0  0  0  0  0
    4.4000    1.2764   13.7009 C   0  0  0  0  0  0  0  0  0  0  0  0
    4.7368    0.4928   14.7596 N   0  0  0  0  0  0  0  0  0  0  0  0
    5.8926    0.3911   15.4808 C   0  0  0  0  0  0  0  0  0  0  0  0
    5.6027   -0.5483   16.5053 C   0  0  0  0  0  0  0  0  0  0  0  0
    4.3885   -1.0602   16.3544 N   0  0  0  0  0  0  0  0  0  0  0  0
    3.8325   -0.3883   15.3309 C   0  0  0  0  0  0  0  0  0  0  0  0
    2.6407    2.1399   12.1271 C   0  0  0  0  0  0  0  0  0  0  0  0
    3.5584    2.6399   11.1674 C   0  0  0  0  0  0  0  0  0  0  0  0
    3.1117    3.4654   10.1220 C   0  0  0  0  0  0  0  0  0  0  0  0
    1.7626    3.8038   10.0403 C   0  0  0  0  0  0  0  0  0  0  0  0
    1.2975    4.6116    9.0072 N   0  0  0  0  0  0  0  0  0  0  0  0
   -0.0065    4.8513    8.7182 C   0  0  0  0  0  0  0  0  0  0  0  0
   -0.4123    5.6311    7.8553 O   0  0  0  0  0  0  0  0  0  0  0  0
   -0.9274    3.9668    9.6249 C   0  0  0  0  0  0  0  0  0  0  0  0
   -0.4391    3.7019   10.9584 O   0  0  0  0  0  0  0  0  0  0  0  0
    0.8806    3.3365   10.9991 C   0  0  0  0  0  0  0  0  0  0  0  0
    1.2955    2.5129   12.0280 C   0  0  0  0  0  0  0  0  0  0  0  0
   -0.5548   -0.8136   14.1938 C   0  0  0  0  0  0  0  0  0  0  0  0
   -1.9407   -1.0774   14.0650 C   0  0  0  0  0  0  0  0  0  0  0  0
   -2.7433   -0.3209   13.2263 O   0  0  0  0  0  0  0  0  0  0  0  0
   -2.1991    0.3702   12.1141 C   0  0  0  0  0  0  0  0  0  0  0  0
   -5.3455   -3.2544   13.5712 H   0  0  0  0  0  0  0  0  0  0  0  0
   -3.9628   -2.5635   12.6562 H   0  0  0  0  0  0  0  0  0  0  0  0
   -3.7532   -4.0854   13.5870 H   0  0  0  0  0  0  0  0  0  0  0  0
   -2.3286   -2.8176   13.9976 H   0  0  0  0  0  0  0  0  0  0  0  0
   -2.2076   -3.6701   16.2416 H   0  0  0  0  0  0  0  0  0  0  0  0
    0.1972   -3.2172   16.4859 H   0  0  0  0  0  0  0  0  0  0  0  0
    5.1344    1.9160   13.2339 H   0  0  0  0  0  0  0  0  0  0  0  0
    6.8233    0.9114   15.3092 H   0  0  0  0  0  0  0  0  0  0  0  0
    6.2818   -0.8115   17.3028 H   0  0  0  0  0  0  0  0  0  0  0  0
    4.6052    2.3847   11.2409 H   0  0  0  0  0  0  0  0  0  0  0  0
    3.6735    4.4081   10.1972 H   0  0  0  0  0  0  0  0  0  0  0  0
    3.3712    2.9580    9.1812 H   0  0  0  0  0  0  0  0  0  0  0  0
   -1.8979    4.4764    9.7172 H   0  0  0  0  0  0  0  0  0  0  0  0
   -1.0677    2.9997    9.1199 H   0  0  0  0  0  0  0  0  0  0  0  0
    0.5815    2.1569   12.7559 H   0  0  0  0  0  0  0  0  0  0  0  0
   -0.0934   -0.0284   13.6132 H   0  0  0  0  0  0  0  0  0  0  0  0
   -3.0020    0.9048   11.5853 H   0  0  0  0  0  0  0  0  0  0  0  0
   -1.4464    1.0922   12.4637 H   0  0  0  0  0  0  0  0  0  0  0  0
   -1.7263   -0.3503   11.4304 H   0  0  0  0  0  0  0  0  0  0  0  0
  1  2  1  0  0  0  0
  2  3  1  0  0  0  0
  3  4  1  0  0  0  0
  3 29  1  0  0  0  0
  4  5  2  0  0  0  0
  5  6  1  0  0  0  0
  6  7  2  0  0  0  0
  6 28  1  0  0  0  0
  7  8  1  0  0  0  0
  8  9  2  0  0  0  0
  8 16  1  0  0  0  0
  9 10  1  0  0  0  0
 10 11  2  0  0  0  0
 10 17  1  0  0  0  0
 11 12  1  0  0  0  0
 12 13  1  0  0  0  0
 12 16  1  0  0  0  0
 13 14  2  0  0  0  0
 14 15  1  0  0  0  0
 15 16  2  0  0  0  0
 17 18  2  0  0  0  0
 17 27  1  0  0  0  0
 18 19  1  0  0  0  0
 19 20  1  0  0  0  0
 20 21  2  0  0  0  0
 20 26  1  0  0  0  0
 21 22  1  0  0  0  0
 22 23  2  0  0  0  0
 22 24  1  0  0  0  0
 24 25  1  0  0  0  0
 25 26  1  0  0  0  0
 26 27  2  0  0  0  0
 28 29  2  0  0  0  0
 29 30  1  0  0  0  0
 30 31  1  0  0  0  0
  1 32  1  0  0  0  0
  1 33  1  0  0  0  0
  1 34  1  0  0  0  0
  3 35  1  0  0  0  0
  4 36  1  0  0  0  0
  5 37  1  0  0  0  0
 11 38  1  0  0  0  0
 13 39  1  0  0  0  0
 14 40  1  0  0  0  0
 18 41  1  0  0  0  0
 19 42  1  0  0  0  0
 19 43  1  0  0  0  0
 24 44  1  0  0  0  0
 24 45  1  0  0  0  0
 27 46  1  0  0  0  0
 28 47  1  0  0  0  0
 31 48  1  0  0  0  0
 31 49  1  0  0  0  0
 31 50  1  0  0  0  0
M  END
> <IC50[nM]>
33.4

$$$$
CHEMBL3265025
  -OEChem-05192314333D
 Structure written by MMmdl.
 50 54  0     1  0  0  0  0  0999 V2000
   -4.2554   -3.1070   13.5667 C   0  0  0  0  0  0  0  0  0  0  0  0
   -3.8739   -2.3555   14.7096 O   0  0  0  0  0  0  0  0  0  0  0  0
   -2.5267   -2.1066   14.8132 C   0  0  0  0  0  0  0  0  0  0  0  0
   -1.7520   -2.8715   15.6749 C   0  0  0  0  0  0  0  0  0  0  0  0
   -0.3933   -2.6145   15.8117 C   0  0  0  0  0  0  0  0  0  0  0  0
    0.2196   -1.5878   15.0897 C   0  0  0  0  0  0  0  0  0  0  0  0
    1.6042   -1.3666   15.3298 N   0  0  0  0  0  0  0  0  0  0  0  0
    2.5249   -0.4338   14.7828 C   0  0  0  0  0  0  0  0  0  0  0  0
    2.1518    0.4044   13.7691 N   0  0  0  0  0  0  0  0  0  0  0  0
    3.0983    1.2388   13.2332 C   0  0  0  0  0  0  0  0  0  0  0  0
    4.4000    1.2764   13.7009 C   0  0  0  0  0  0  0  0  0  0  0  0
    4.7368    0.4928   14.7596 N   0  0  0  0  0  0  0  0  0  0  0  0
    5.8926    0.3911   15.4808 C   0  0  0  0  0  0  0  0  0  0  0  0
    5.6027   -0.5483   16.5053 C   0  0  0  0  0  0  0  0  0  0  0  0
    4.3885   -1.0602   16.3544 N   0  0  0  0  0  0  0  0  0  0  0  0
    3.8325   -0.3883   15.3309 C   0  0  0  0  0  0  0  0  0  0  0  0
    2.6407    2.1399   12.1271 C   0  0  3  0  0  0  0  0  0  0  0  0
    3.5584    2.6399   11.1674 C   0  0  0  0  0  0  0  0  0  0  0  0
    3.1117    3.4654   10.1220 C   0  0  0  0  0  0  0  0  0  0  0  0
    1.7626    3.8038   10.0403 C   0  0  0  0  0  0  0  0  0  0  0  0
    1.2975    4.6116    9.0072 N   0  0  0  0  0  0  0  0  0  0  0  0
   -0.0065    4.8513    8.7182 C   0  0  0  0  0  0  0  0  0  0  0  0
   -0.4123    5.6311    7.8553 O   0  0  0  0  0  0  0  0  0  0  0  0
   -0.9274    3.9668    9.6249 C   0  0  0  0  0  0  0  0  0  0  0  0
   -0.4391    3.7019   10.9584 O   0  0  0  0  0  0  0  0  0  0  0  0
    0.8806    3.3365   10.9991 C   0  0  0  0  0  0  0  0  0  0  0  0
    1.2955    2.5129   12.0280 C   0  0  0  0  0  0  0  0  0  0  0  0
   -0.5548   -0.8136   14.1938 C   0  0  0  0  0  0  0  0  0  0  0  0
   -1.9407   -1.0774   14.0650 C   0  0  0  0  0  0  0  0  0  0  0  0
   -2.7433   -0.3209   13.2263 O   0  0  0  0  0  0  0  0  0  0  0  0
   -2.1991    0.3702   12.1141 C   0  0  0  0  0  0  0  0  0  0  0  0
   -5.3455   -3.2544   13.5712 H   0  0  0  0  0  0  0  0  0  0  0  0
   -3.9628   -2.5635   12.6562 H   0  0  0  0  0  0  0  0  0  0  0  0
   -3.7532   -4.0854   13.5870 H   0  0  0  0  0  0  0  0  0  0  0  0
   -2.2076   -3.6701   16.2416 H   0  0  0  0  0  0  0  0  0  0  0  0
   -0.2219   -2.3944   16.8757 H   0  0  0  0  0  0  0  0  0  0  0  0
    0.1298   -3.5434   15.5405 H   0  0  0  0  0  0  0  0  0  0  0  0
    5.1344    1.9160   13.2339 H   0  0  0  0  0  0  0  0  0  0  0  0
    6.8233    0.9114   15.3092 H   0  0  0  0  0  0  0  0  0  0  0  0
    6.2818   -0.8115   17.3028 H   0  0  0  0  0  0  0  0  0  0  0  0
    2.4476    1.2641   11.4901 H   0  0  0  0  0  0  0  0  0  0  0  0
    4.6052    2.3847   11.2409 H   0  0  0  0  0  0  0  0  0  0  0  0
    3.8100    3.8355    9.3860 H   0  0  0  0  0  0  0  0  0  0  0  0
   -1.8979    4.4764    9.7172 H   0  0  0  0  0  0  0  0  0  0  0  0
   -1.0677    2.9997    9.1199 H   0  0  0  0  0  0  0  0  0  0  0  0
    0.5815    2.1569   12.7559 H   0  0  0  0  0  0  0  0  0  0  0  0
   -0.0934   -0.0284   13.6132 H   0  0  0  0  0  0  0  0  0  0  0  0
   -3.0020    0.9048   11.5853 H   0  0  0  0  0  0  0  0  0  0  0  0
   -1.4464    1.0922   12.4637 H   0  0  0  0  0  0  0  0  0  0  0  0
   -1.7263   -0.3503   11.4304 H   0  0  0  0  0  0  0  0  0  0  0  0
  1  2  1  0  0  0  0
  2  3  1  0  0  0  0
  3  4  2  0  0  0  0
  3 29  1  0  0  0  0
  4  5  1  0  0  0  0
  5  6  1  0  0  0  0
  6  7  2  0  0  0  0
  6 28  1  0  0  0  0
  7  8  1  0  0  0  0
  8  9  2  0  0  0  0
  8 16  1  0  0  0  0
  9 10  1  0  0  0  0
 10 11  2  0  0  0  0
 10 17  1  0  0  0  0
 11 12  1  0  0  0  0
 12 13  1  0  0  0  0
 12 16  1  0  0  0  0
 13 14  2  0  0  0  0
 14 15  1  0  0  0  0
 15 16  2  0  0  0  0
 17 18  1  0  0  0  0
 17 27  1  0  0  0  0
 18 19  2  0  0  0  0
 19 20  1  0  0  0  0
 20 21  2  0  0  0  0
 20 26  1  0  0  0  0
 21 22  1  0  0  0  0
 22 23  2  0  0  0  0
 22 24  1  0  0  0  0
 24 25  1  0  0  0  0
 25 26  1  0  0  0  0
 26 27  2  0  0  0  0
 28 29  2  0  0  0  0
 29 30  1  0  0  0  0
 30 31  1  0  0  0  0
  1 32  1  0  0  0  0
  1 33  1  0  0  0  0
  1 34  1  0  0  0  0
  4 35  1  0  0  0  0
  5 36  1  0  0  0  0
  5 37  1  0  0  0  0
 11 38  1  0  0  0  0
 13 39  1  0  0  0  0
 14 40  1  0  0  0  0
 17 41  1  0  0  0  0
 18 42  1  0  0  0  0
 19 43  1  0  0  0  0
 24 44  1  0  0  0  0
 24 45  1  0  0  0  0
 27 46  1  0  0  0  0
 28 47  1  0  0  0  0
 31 48  1  0  0  0  0
 31 49  1  0  0  0  0
 31 50  1  0  0  0  0
M  END
> <IC50[nM]>
33.4

$$$$
CHEMBL3265025
  -OEChem-05192314333D
 Structure written by MMmdl.
 50 54  0     1  0  0  0  0  0999 V2000
   -4.2554   -3.1070   13.5667 C   0  0  0  0  0  0  0  0  0  0  0  0
   -3.8739   -2.3555   14.7096 O   0  0  0  0  0  0  0  0  0  0  0  0
   -2.5267   -2.1066   14.8132 C   0  0  0  0  0  0  0  0  0  0  0  0
   -1.7520   -2.8715   15.6749 C   0  0  0  0  0  0  0  0  0  0  0  0
   -0.3933   -2.6145   15.8117 C   0  0  0  0  0  0  0  0  0  0  0  0
    0.2196   -1.5878   15.0897 C   0  0  0  0  0  0  0  0  0  0  0  0
    1.6042   -1.3666   15.3298 N   0  0  0  0  0  0  0  0  0  0  0  0
    2.5249   -0.4338   14.7828 C   0  0  0  0  0  0  0  0  0  0  0  0
    2.1518    0.4044   13.7691 N   0  0  0  0  0  0  0  0  0  0  0  0
    3.0983    1.2388   13.2332 C   0  0  0  0  0  0  0  0  0  0  0  0
    4.4000    1.2764   13.7009 C   0  0  0  0  0  0  0  0  0  0  0  0
    4.7368    0.4928   14.7596 N   0  0  0  0  0  0  0  0  0  0  0  0
    5.8926    0.3911   15.4808 C   0  0  0  0  0  0  0  0  0  0  0  0
    5.6027   -0.5483   16.5053 C   0  0  0  0  0  0  0  0  0  0  0  0
    4.3885   -1.0602   16.3544 N   0  0  0  0  0  0  0  0  0  0  0  0
    3.8325   -0.3883   15.3309 C   0  0  0  0  0  0  0  0  0  0  0  0
    2.6407    2.1399   12.1271 C   0  0  0  0  0  0  0  0  0  0  0  0
    3.5584    2.6399   11.1674 C   0  0  0  0  0  0  0  0  0  0  0  0
    3.1117    3.4654   10.1220 C   0  0  0  0  0  0  0  0  0  0  0  0
    1.7626    3.8038   10.0403 C   0  0  0  0  0  0  0  0  0  0  0  0
    1.2975    4.6116    9.0072 N   0  0  0  0  0  0  0  0  0  0  0  0
   -0.0065    4.8513    8.7182 C   0  0  0  0  0  0  0  0  0  0  0  0
   -0.4123    5.6311    7.8553 O   0  0  0  0  0  0  0  0  0  0  0  0
   -0.9274    3.9668    9.6249 C   0  0  0  0  0  0  0  0  0  0  0  0
   -0.4391    3.7019   10.9584 O   0  0  0  0  0  0  0  0  0  0  0  0
    0.8806    3.3365   10.9991 C   0  0  3  0  0  0  0  0  0  0  0  0
    1.2955    2.5129   12.0280 C   0  0  0  0  0  0  0  0  0  0  0  0
   -0.5548   -0.8136   14.1938 C   0  0  0  0  0  0  0  0  0  0  0  0
   -1.9407   -1.0774   14.0650 C   0  0  0  0  0  0  0  0  0  0  0  0
   -2.7433   -0.3209   13.2263 O   0  0  0  0  0  0  0  0  0  0  0  0
   -2.1991    0.3702   12.1141 C   0  0  0  0  0  0  0  0  0  0  0  0
   -5.3455   -3.2544   13.5712 H   0  0  0  0  0  0  0  0  0  0  0  0
   -3.9628   -2.5635   12.6562 H   0  0  0  0  0  0  0  0  0  0  0  0
   -3.7532   -4.0854   13.5870 H   0  0  0  0  0  0  0  0  0  0  0  0
   -2.2076   -3.6701   16.2416 H   0  0  0  0  0  0  0  0  0  0  0  0
   -0.2219   -2.3944   16.8757 H   0  0  0  0  0  0  0  0  0  0  0  0
    0.1298   -3.5434   15.5405 H   0  0  0  0  0  0  0  0  0  0  0  0
    5.1344    1.9160   13.2339 H   0  0  0  0  0  0  0  0  0  0  0  0
    6.8233    0.9114   15.3092 H   0  0  0  0  0  0  0  0  0  0  0  0
    6.2818   -0.8115   17.3028 H   0  0  0  0  0  0  0  0  0  0  0  0
    4.6052    2.3847   11.2409 H   0  0  0  0  0  0  0  0  0  0  0  0
    3.8100    3.8355    9.3860 H   0  0  0  0  0  0  0  0  0  0  0  0
   -1.8979    4.4764    9.7172 H   0  0  0  0  0  0  0  0  0  0  0  0
   -1.0677    2.9997    9.1199 H   0  0  0  0  0  0  0  0  0  0  0  0
    0.6616    2.4567   10.3762 H   0  0  0  0  0  0  0  0  0  0  0  0
    0.5815    2.1569   12.7559 H   0  0  0  0  0  0  0  0  0  0  0  0
   -0.0934   -0.0284   13.6132 H   0  0  0  0  0  0  0  0  0  0  0  0
   -3.0020    0.9048   11.5853 H   0  0  0  0  0  0  0  0  0  0  0  0
   -1.4464    1.0922   12.4637 H   0  0  0  0  0  0  0  0  0  0  0  0
   -1.7263   -0.3503   11.4304 H   0  0  0  0  0  0  0  0  0  0  0  0
  1  2  1  0  0  0  0
  2  3  1  0  0  0  0
  3  4  2  0  0  0  0
  3 29  1  0  0  0  0
  4  5  1  0  0  0  0
  5  6  1  0  0  0  0
  6  7  2  0  0  0  0
  6 28  1  0  0  0  0
  7  8  1  0  0  0  0
  8  9  2  0  0  0  0
  8 16  1  0  0  0  0
  9 10  1  0  0  0  0
 10 11  2  0  0  0  0
 10 17  1  0  0  0  0
 11 12  1  0  0  0  0
 12 13  1  0  0  0  0
 12 16  1  0  0  0  0
 13 14  2  0  0  0  0
 14 15  1  0  0  0  0
 15 16  2  0  0  0  0
 17 18  1  0  0  0  0
 17 27  2  0  0  0  0
 18 19  2  0  0  0  0
 19 20  1  0  0  0  0
 20 21  2  0  0  0  0
 20 26  1  0  0  0  0
 21 22  1  0  0  0  0
 22 23  2  0  0  0  0
 22 24  1  0  0  0  0
 24 25  1  0  0  0  0
 25 26  1  0  0  0  0
 26 27  1  0  0  0  0
 28 29  2  0  0  0  0
 29 30  1  0  0  0  0
 30 31  1  0  0  0  0
  1 32  1  0  0  0  0
  1 33  1  0  0  0  0
  1 34  1  0  0  0  0
  4 35  1  0  0  0  0
  5 36  1  0  0  0  0
  5 37  1  0  0  0  0
 11 38  1  0  0  0  0
 13 39  1  0  0  0  0
 14 40  1  0  0  0  0
 18 41  1  0  0  0  0
 19 42  1  0  0  0  0
 24 43  1  0  0  0  0
 24 44  1  0  0  0  0
 26 45  1  0  0  0  0
 27 46  1  0  0  0  0
 28 47  1  0  0  0  0
 31 48  1  0  0  0  0
 31 49  1  0  0  0  0
 31 50  1  0  0  0  0
M  END
> <IC50[nM]>
33.4

$$$$
CHEMBL3265025
  -OEChem-05192314333D
 Structure written by MMmdl.
 50 54  0     0  0  0  0  0  0999 V2000
   -4.2554   -3.1070   13.5667 C   0  0  0  0  0  0  0  0  0  0  0  0
   -3.8739   -2.3555   14.7096 O   0  0  0  0  0  0  0  0  0  0  0  0
   -2.5267   -2.1066   14.8132 C   0  0  0  0  0  0  0  0  0  0  0  0
   -1.7520   -2.8715   15.6749 C   0  0  0  0  0  0  0  0  0  0  0  0
   -0.3933   -2.6145   15.8117 C   0  0  0  0  0  0  0  0  0  0  0  0
    0.2196   -1.5878   15.0897 C   0  0  0  0  0  0  0  0  0  0  0  0
    1.6042   -1.3666   15.3298 N   0  0  0  0  0  0  0  0  0  0  0  0
    2.5249   -0.4338   14.7828 C   0  0  0  0  0  0  0  0  0  0  0  0
    2.1518    0.4044   13.7691 N   0  0  0  0  0  0  0  0  0  0  0  0
    3.0983    1.2388   13.2332 C   0  0  0  0  0  0  0  0  0  0  0  0
    4.4000    1.2764   13.7009 C   0  0  0  0  0  0  0  0  0  0  0  0
    4.7368    0.4928   14.7596 N   0  0  0  0  0  0  0  0  0  0  0  0
    5.8926    0.3911   15.4808 C   0  0  0  0  0  0  0  0  0  0  0  0
    5.6027   -0.5483   16.5053 C   0  0  0  0  0  0  0  0  0  0  0  0
    4.3885   -1.0602   16.3544 N   0  0  0  0  0  0  0  0  0  0  0  0
    3.8325   -0.3883   15.3309 C   0  0  0  0  0  0  0  0  0  0  0  0
    2.6407    2.1399   12.1271 C   0  0  0  0  0  0  0  0  0  0  0  0
    3.5584    2.6399   11.1674 C   0  0  0  0  0  0  0  0  0  0  0  0
    3.1117    3.4654   10.1220 C   0  0  0  0  0  0  0  0  0  0  0  0
    1.7626    3.8038   10.0403 C   0  0  0  0  0  0  0  0  0  0  0  0
    1.2975    4.6116    9.0072 N   0  0  0  0  0  0  0  0  0  0  0  0
   -0.0065    4.8513    8.7182 C   0  0  0  0  0  0  0  0  0  0  0  0
   -0.4123    5.6311    7.8553 O   0  0  0  0  0  0  0  0  0  0  0  0
   -0.9274    3.9668    9.6249 C   0  0  0  0  0  0  0  0  0  0  0  0
   -0.4391    3.7019   10.9584 O   0  0  0  0  0  0  0  0  0  0  0  0
    0.8806    3.3365   10.9991 C   0  0  0  0  0  0  0  0  0  0  0  0
    1.2955    2.5129   12.0280 C   0  0  0  0  0  0  0  0  0  0  0  0
   -0.5548   -0.8136   14.1938 C   0  0  0  0  0  0  0  0  0  0  0  0
   -1.9407   -1.0774   14.0650 C   0  0  0  0  0  0  0  0  0  0  0  0
   -2.7433   -0.3209   13.2263 O   0  0  0  0  0  0  0  0  0  0  0  0
   -2.1991    0.3702   12.1141 C   0  0  0  0  0  0  0  0  0  0  0  0
   -5.3455   -3.2544   13.5712 H   0  0  0  0  0  0  0  0  0  0  0  0
   -3.9628   -2.5635   12.6562 H   0  0  0  0  0  0  0  0  0  0  0  0
   -3.7532   -4.0854   13.5870 H   0  0  0  0  0  0  0  0  0  0  0  0
   -2.2076   -3.6701   16.2416 H   0  0  0  0  0  0  0  0  0  0  0  0
   -0.2219   -2.3944   16.8757 H   0  0  0  0  0  0  0  0  0  0  0  0
    0.1298   -3.5434   15.5405 H   0  0  0  0  0  0  0  0  0  0  0  0
    5.1344    1.9160   13.2339 H   0  0  0  0  0  0  0  0  0  0  0  0
    6.8233    0.9114   15.3092 H   0  0  0  0  0  0  0  0  0  0  0  0
    6.2818   -0.8115   17.3028 H   0  0  0  0  0  0  0  0  0  0  0  0
    4.6052    2.3847   11.2409 H   0  0  0  0  0  0  0  0  0  0  0  0
    3.6735    4.4081   10.1972 H   0  0  0  0  0  0  0  0  0  0  0  0
    3.3712    2.9580    9.1812 H   0  0  0  0  0  0  0  0  0  0  0  0
   -1.8979    4.4764    9.7172 H   0  0  0  0  0  0  0  0  0  0  0  0
   -1.0677    2.9997    9.1199 H   0  0  0  0  0  0  0  0  0  0  0  0
    0.5815    2.1569   12.7559 H   0  0  0  0  0  0  0  0  0  0  0  0
   -0.0934   -0.0284   13.6132 H   0  0  0  0  0  0  0  0  0  0  0  0
   -3.0020    0.9048   11.5853 H   0  0  0  0  0  0  0  0  0  0  0  0
   -1.4464    1.0922   12.4637 H   0  0  0  0  0  0  0  0  0  0  0  0
   -1.7263   -0.3503   11.4304 H   0  0  0  0  0  0  0  0  0  0  0  0
  1  2  1  0  0  0  0
  2  3  1  0  0  0  0
  3  4  2  0  0  0  0
  3 29  1  0  0  0  0
  4  5  1  0  0  0  0
  5  6  1  0  0  0  0
  6  7  2  0  0  0  0
  6 28  1  0  0  0  0
  7  8  1  0  0  0  0
  8  9  2  0  0  0  0
  8 16  1  0  0  0  0
  9 10  1  0  0  0  0
 10 11  2  0  0  0  0
 10 17  1  0  0  0  0
 11 12  1  0  0  0  0
 12 13  1  0  0  0  0
 12 16  1  0  0  0  0
 13 14  2  0  0  0  0
 14 15  1  0  0  0  0
 15 16  2  0  0  0  0
 17 18  2  0  0  0  0
 17 27  1  0  0  0  0
 18 19  1  0  0  0  0
 19 20  1  0  0  0  0
 20 21  2  0  0  0  0
 20 26  1  0  0  0  0
 21 22  1  0  0  0  0
 22 23  2  0  0  0  0
 22 24  1  0  0  0  0
 24 25  1  0  0  0  0
 25 26  1  0  0  0  0
 26 27  2  0  0  0  0
 28 29  2  0  0  0  0
 29 30  1  0  0  0  0
 30 31  1  0  0  0  0
  1 32  1  0  0  0  0
  1 33  1  0  0  0  0
  1 34  1  0  0  0  0
  4 35  1  0  0  0  0
  5 36  1  0  0  0  0
  5 37  1  0  0  0  0
 11 38  1  0  0  0  0
 13 39  1  0  0  0  0
 14 40  1  0  0  0  0
 18 41  1  0  0  0  0
 19 42  1  0  0  0  0
 19 43  1  0  0  0  0
 24 44  1  0  0  0  0
 24 45  1  0  0  0  0
 27 46  1  0  0  0  0
 28 47  1  0  0  0  0
 31 48  1  0  0  0  0
 31 49  1  0  0  0  0
 31 50  1  0  0  0  0
M  END
> <IC50[nM]>
33.4

$$$$
CHEMBL3265025
  -OEChem-05192314333D
 Structure written by MMmdl.
 50 54  0     1  0  0  0  0  0999 V2000
   -4.2554   -3.1070   13.5667 C   0  0  0  0  0  0  0  0  0  0  0  0
   -3.8739   -2.3555   14.7096 O   0  0  0  0  0  0  0  0  0  0  0  0
   -2.5267   -2.1066   14.8132 C   0  0  0  0  0  0  0  0  0  0  0  0
   -1.7520   -2.8715   15.6749 C   0  0  0  0  0  0  0  0  0  0  0  0
   -0.3933   -2.6145   15.8117 C   0  0  0  0  0  0  0  0  0  0  0  0
    0.2196   -1.5878   15.0897 C   0  0  0  0  0  0  0  0  0  0  0  0
    1.6042   -1.3666   15.3298 N   0  0  0  0  0  0  0  0  0  0  0  0
    2.5249   -0.4338   14.7828 C   0  0  0  0  0  0  0  0  0  0  0  0
    2.1518    0.4044   13.7691 N   0  0  0  0  0  0  0  0  0  0  0  0
    3.0983    1.2388   13.2332 C   0  0  0  0  0  0  0  0  0  0  0  0
    4.4000    1.2764   13.7009 C   0  0  0  0  0  0  0  0  0  0  0  0
    4.7368    0.4928   14.7596 N   0  0  0  0  0  0  0  0  0  0  0  0
    5.8926    0.3911   15.4808 C   0  0  0  0  0  0  0  0  0  0  0  0
    5.6027   -0.5483   16.5053 C   0  0  0  0  0  0  0  0  0  0  0  0
    4.3885   -1.0602   16.3544 N   0  0  0  0  0  0  0  0  0  0  0  0
    3.8325   -0.3883   15.3309 C   0  0  0  0  0  0  0  0  0  0  0  0
    2.6407    2.1399   12.1271 C   0  0  3  0  0  0  0  0  0  0  0  0
    3.5584    2.6399   11.1674 C   0  0  0  0  0  0  0  0  0  0  0  0
    3.1117    3.4654   10.1220 C   0  0  0  0  0  0  0  0  0  0  0  0
    1.7626    3.8038   10.0403 C   0  0  0  0  0  0  0  0  0  0  0  0
    1.2975    4.6116    9.0072 N   0  0  0  0  0  0  0  0  0  0  0  0
   -0.0065    4.8513    8.7182 C   0  0  0  0  0  0  0  0  0  0  0  0
   -0.4123    5.6311    7.8553 O   0  0  0  0  0  0  0  0  0  0  0  0
   -0.9274    3.9668    9.6249 C   0  0  0  0  0  0  0  0  0  0  0  0
   -0.4391    3.7019   10.9584 O   0  0  0  0  0  0  0  0  0  0  0  0
    0.8806    3.3365   10.9991 C   0  0  0  0  0  0  0  0  0  0  0  0
    1.2955    2.5129   12.0280 C   0  0  0  0  0  0  0  0  0  0  0  0
   -0.5548   -0.8136   14.1938 C   0  0  0  0  0  0  0  0  0  0  0  0
   -1.9407   -1.0774   14.0650 C   0  0  0  0  0  0  0  0  0  0  0  0
   -2.7433   -0.3209   13.2263 O   0  0  0  0  0  0  0  0  0  0  0  0
   -2.1991    0.3702   12.1141 C   0  0  0  0  0  0  0  0  0  0  0  0
   -5.3455   -3.2544   13.5712 H   0  0  0  0  0  0  0  0  0  0  0  0
   -3.9628   -2.5635   12.6562 H   0  0  0  0  0  0  0  0  0  0  0  0
   -3.7532   -4.0854   13.5870 H   0  0  0  0  0  0  0  0  0  0  0  0
   -2.2076   -3.6701   16.2416 H   0  0  0  0  0  0  0  0  0  0  0  0
    0.1972   -3.2172   16.4859 H   0  0  0  0  0  0  0  0  0  0  0  0
    5.1344    1.9160   13.2339 H   0  0  0  0  0  0  0  0  0  0  0  0
    6.8233    0.9114   15.3092 H   0  0  0  0  0  0  0  0  0  0  0  0
    6.2818   -0.8115   17.3028 H   0  0  0  0  0  0  0  0  0  0  0  0
    2.4476    1.2641   11.4901 H   0  0  0  0  0  0  0  0  0  0  0  0
    4.6052    2.3847   11.2409 H   0  0  0  0  0  0  0  0  0  0  0  0
    3.8100    3.8355    9.3860 H   0  0  0  0  0  0  0  0  0  0  0  0
   -1.8979    4.4764    9.7172 H   0  0  0  0  0  0  0  0  0  0  0  0
   -1.0677    2.9997    9.1199 H   0  0  0  0  0  0  0  0  0  0  0  0
    0.5815    2.1569   12.7559 H   0  0  0  0  0  0  0  0  0  0  0  0
   -0.4564    0.2355   14.5095 H   0  0  0  0  0  0  0  0  0  0  0  0
   -0.1106   -0.9393   13.1953 H   0  0  0  0  0  0  0  0  0  0  0  0
   -3.0020    0.9048   11.5853 H   0  0  0  0  0  0  0  0  0  0  0  0
   -1.4464    1.0922   12.4637 H   0  0  0  0  0  0  0  0  0  0  0  0
   -1.7263   -0.3503   11.4304 H   0  0  0  0  0  0  0  0  0  0  0  0
  1  2  1  0  0  0  0
  2  3  1  0  0  0  0
  3  4  1  0  0  0  0
  3 29  2  0  0  0  0
  4  5  2  0  0  0  0
  5  6  1  0  0  0  0
  6  7  2  0  0  0  0
  6 28  1  0  0  0  0
  7  8  1  0  0  0  0
  8  9  2  0  0  0  0
  8 16  1  0  0  0  0
  9 10  1  0  0  0  0
 10 11  2  0  0  0  0
 10 17  1  0  0  0  0
 11 12  1  0  0  0  0
 12 13  1  0  0  0  0
 12 16  1  0  0  0  0
 13 14  2  0  0  0  0
 14 15  1  0  0  0  0
 15 16  2  0  0  0  0
 17 18  1  0  0  0  0
 17 27  1  0  0  0  0
 18 19  2  0  0  0  0
 19 20  1  0  0  0  0
 20 21  2  0  0  0  0
 20 26  1  0  0  0  0
 21 22  1  0  0  0  0
 22 23  2  0  0  0  0
 22 24  1  0  0  0  0
 24 25  1  0  0  0  0
 25 26  1  0  0  0  0
 26 27  2  0  0  0  0
 28 29  1  0  0  0  0
 29 30  1  0  0  0  0
 30 31  1  0  0  0  0
  1 32  1  0  0  0  0
  1 33  1  0  0  0  0
  1 34  1  0  0  0  0
  4 35  1  0  0  0  0
  5 36  1  0  0  0  0
 11 37  1  0  0  0  0
 13 38  1  0  0  0  0
 14 39  1  0  0  0  0
 17 40  1  0  0  0  0
 18 41  1  0  0  0  0
 19 42  1  0  0  0  0
 24 43  1  0  0  0  0
 24 44  1  0  0  0  0
 27 45  1  0  0  0  0
 28 46  1  0  0  0  0
 28 47  1  0  0  0  0
 31 48  1  0  0  0  0
 31 49  1  0  0  0  0
 31 50  1  0  0  0  0
M  END
> <IC50[nM]>
33.4

$$$$
CHEMBL3265025
  -OEChem-05192314333D
 Structure written by MMmdl.
 50 54  0     1  0  0  0  0  0999 V2000
   -4.2554   -3.1070   13.5667 C   0  0  0  0  0  0  0  0  0  0  0  0
   -3.8739   -2.3555   14.7096 O   0  0  0  0  0  0  0  0  0  0  0  0
   -2.5267   -2.1066   14.8132 C   0  0  0  0  0  0  0  0  0  0  0  0
   -1.7520   -2.8715   15.6749 C   0  0  0  0  0  0  0  0  0  0  0  0
   -0.3933   -2.6145   15.8117 C   0  0  0  0  0  0  0  0  0  0  0  0
    0.2196   -1.5878   15.0897 C   0  0  0  0  0  0  0  0  0  0  0  0
    1.6042   -1.3666   15.3298 N   0  0  0  0  0  0  0  0  0  0  0  0
    2.5249   -0.4338   14.7828 C   0  0  0  0  0  0  0  0  0  0  0  0
    2.1518    0.4044   13.7691 N   0  0  0  0  0  0  0  0  0  0  0  0
    3.0983    1.2388   13.2332 C   0  0  0  0  0  0  0  0  0  0  0  0
    4.4000    1.2764   13.7009 C   0  0  0  0  0  0  0  0  0  0  0  0
    4.7368    0.4928   14.7596 N   0  0  0  0  0  0  0  0  0  0  0  0
    5.8926    0.3911   15.4808 C   0  0  0  0  0  0  0  0  0  0  0  0
    5.6027   -0.5483   16.5053 C   0  0  0  0  0  0  0  0  0  0  0  0
    4.3885   -1.0602   16.3544 N   0  0  0  0  0  0  0  0  0  0  0  0
    3.8325   -0.3883   15.3309 C   0  0  0  0  0  0  0  0  0  0  0  0
    2.6407    2.1399   12.1271 C   0  0  0  0  0  0  0  0  0  0  0  0
    3.5584    2.6399   11.1674 C   0  0  0  0  0  0  0  0  0  0  0  0
    3.1117    3.4654   10.1220 C   0  0  0  0  0  0  0  0  0  0  0  0
    1.7626    3.8038   10.0403 C   0  0  0  0  0  0  0  0  0  0  0  0
    1.2975    4.6116    9.0072 N   0  0  0  0  0  0  0  0  0  0  0  0
   -0.0065    4.8513    8.7182 C   0  0  0  0  0  0  0  0  0  0  0  0
   -0.4123    5.6311    7.8553 O   0  0  0  0  0  0  0  0  0  0  0  0
   -0.9274    3.9668    9.6249 C   0  0  0  0  0  0  0  0  0  0  0  0
   -0.4391    3.7019   10.9584 O   0  0  0  0  0  0  0  0  0  0  0  0
    0.8806    3.3365   10.9991 C   0  0  3  0  0  0  0  0  0  0  0  0
    1.2955    2.5129   12.0280 C   0  0  0  0  0  0  0  0  0  0  0  0
   -0.5548   -0.8136   14.1938 C   0  0  0  0  0  0  0  0  0  0  0  0
   -1.9407   -1.0774   14.0650 C   0  0  0  0  0  0  0  0  0  0  0  0
   -2.7433   -0.3209   13.2263 O   0  0  0  0  0  0  0  0  0  0  0  0
   -2.1991    0.3702   12.1141 C   0  0  0  0  0  0  0  0  0  0  0  0
   -5.3455   -3.2544   13.5712 H   0  0  0  0  0  0  0  0  0  0  0  0
   -3.9628   -2.5635   12.6562 H   0  0  0  0  0  0  0  0  0  0  0  0
   -3.7532   -4.0854   13.5870 H   0  0  0  0  0  0  0  0  0  0  0  0
   -2.2076   -3.6701   16.2416 H   0  0  0  0  0  0  0  0  0  0  0  0
    0.1972   -3.2172   16.4859 H   0  0  0  0  0  0  0  0  0  0  0  0
    5.1344    1.9160   13.2339 H   0  0  0  0  0  0  0  0  0  0  0  0
    6.8233    0.9114   15.3092 H   0  0  0  0  0  0  0  0  0  0  0  0
    6.2818   -0.8115   17.3028 H   0  0  0  0  0  0  0  0  0  0  0  0
    4.6052    2.3847   11.2409 H   0  0  0  0  0  0  0  0  0  0  0  0
    3.8100    3.8355    9.3860 H   0  0  0  0  0  0  0  0  0  0  0  0
   -1.8979    4.4764    9.7172 H   0  0  0  0  0  0  0  0  0  0  0  0
   -1.0677    2.9997    9.1199 H   0  0  0  0  0  0  0  0  0  0  0  0
    0.6616    2.4567   10.3762 H   0  0  0  0  0  0  0  0  0  0  0  0
    0.5815    2.1569   12.7559 H   0  0  0  0  0  0  0  0  0  0  0  0
   -0.4564    0.2355   14.5095 H   0  0  0  0  0  0  0  0  0  0  0  0
   -0.1106   -0.9393   13.1953 H   0  0  0  0  0  0  0  0  0  0  0  0
   -3.0020    0.9048   11.5853 H   0  0  0  0  0  0  0  0  0  0  0  0
   -1.4464    1.0922   12.4637 H   0  0  0  0  0  0  0  0  0  0  0  0
   -1.7263   -0.3503   11.4304 H   0  0  0  0  0  0  0  0  0  0  0  0
  1  2  1  0  0  0  0
  2  3  1  0  0  0  0
  3  4  1  0  0  0  0
  3 29  2  0  0  0  0
  4  5  2  0  0  0  0
  5  6  1  0  0  0  0
  6  7  2  0  0  0  0
  6 28  1  0  0  0  0
  7  8  1  0  0  0  0
  8  9  2  0  0  0  0
  8 16  1  0  0  0  0
  9 10  1  0  0  0  0
 10 11  2  0  0  0  0
 10 17  1  0  0  0  0
 11 12  1  0  0  0  0
 12 13  1  0  0  0  0
 12 16  1  0  0  0  0
 13 14  2  0  0  0  0
 14 15  1  0  0  0  0
 15 16  2  0  0  0  0
 17 18  1  0  0  0  0
 17 27  2  0  0  0  0
 18 19  2  0  0  0  0
 19 20  1  0  0  0  0
 20 21  2  0  0  0  0
 20 26  1  0  0  0  0
 21 22  1  0  0  0  0
 22 23  2  0  0  0  0
 22 24  1  0  0  0  0
 24 25  1  0  0  0  0
 25 26  1  0  0  0  0
 26 27  1  0  0  0  0
 28 29  1  0  0  0  0
 29 30  1  0  0  0  0
 30 31  1  0  0  0  0
  1 32  1  0  0  0  0
  1 33  1  0  0  0  0
  1 34  1  0  0  0  0
  4 35  1  0  0  0  0
  5 36  1  0  0  0  0
 11 37  1  0  0  0  0
 13 38  1  0  0  0  0
 14 39  1  0  0  0  0
 18 40  1  0  0  0  0
 19 41  1  0  0  0  0
 24 42  1  0  0  0  0
 24 43  1  0  0  0  0
 26 44  1  0  0  0  0
 27 45  1  0  0  0  0
 28 46  1  0  0  0  0
 28 47  1  0  0  0  0
 31 48  1  0  0  0  0
 31 49  1  0  0  0  0
 31 50  1  0  0  0  0
M  END
> <IC50[nM]>
33.4

$$$$
CHEMBL3265025
  -OEChem-05192314333D
 Structure written by MMmdl.
 50 54  0     0  0  0  0  0  0999 V2000
   -4.2554   -3.1070   13.5667 C   0  0  0  0  0  0  0  0  0  0  0  0
   -3.8739   -2.3555   14.7096 O   0  0  0  0  0  0  0  0  0  0  0  0
   -2.5267   -2.1066   14.8132 C   0  0  0  0  0  0  0  0  0  0  0  0
   -1.7520   -2.8715   15.6749 C   0  0  0  0  0  0  0  0  0  0  0  0
   -0.3933   -2.6145   15.8117 C   0  0  0  0  0  0  0  0  0  0  0  0
    0.2196   -1.5878   15.0897 C   0  0  0  0  0  0  0  0  0  0  0  0
    1.6042   -1.3666   15.3298 N   0  0  0  0  0  0  0  0  0  0  0  0
    2.5249   -0.4338   14.7828 C   0  0  0  0  0  0  0  0  0  0  0  0
    2.1518    0.4044   13.7691 N   0  0  0  0  0  0  0  0  0  0  0  0
    3.0983    1.2388   13.2332 C   0  0  0  0  0  0  0  0  0  0  0  0
    4.4000    1.2764   13.7009 C   0  0  0  0  0  0  0  0  0  0  0  0
    4.7368    0.4928   14.7596 N   0  0  0  0  0  0  0  0  0  0  0  0
    5.8926    0.3911   15.4808 C   0  0  0  0  0  0  0  0  0  0  0  0
    5.6027   -0.5483   16.5053 C   0  0  0  0  0  0  0  0  0  0  0  0
    4.3885   -1.0602   16.3544 N   0  0  0  0  0  0  0  0  0  0  0  0
    3.8325   -0.3883   15.3309 C   0  0  0  0  0  0  0  0  0  0  0  0
    2.6407    2.1399   12.1271 C   0  0  0  0  0  0  0  0  0  0  0  0
    3.5584    2.6399   11.1674 C   0  0  0  0  0  0  0  0  0  0  0  0
    3.1117    3.4654   10.1220 C   0  0  0  0  0  0  0  0  0  0  0  0
    1.7626    3.8038   10.0403 C   0  0  0  0  0  0  0  0  0  0  0  0
    1.2975    4.6116    9.0072 N   0  0  0  0  0  0  0  0  0  0  0  0
   -0.0065    4.8513    8.7182 C   0  0  0  0  0  0  0  0  0  0  0  0
   -0.4123    5.6311    7.8553 O   0  0  0  0  0  0  0  0  0  0  0  0
   -0.9274    3.9668    9.6249 C   0  0  0  0  0  0  0  0  0  0  0  0
   -0.4391    3.7019   10.9584 O   0  0  0  0  0  0  0  0  0  0  0  0
    0.8806    3.3365   10.9991 C   0  0  0  0  0  0  0  0  0  0  0  0
    1.2955    2.5129   12.0280 C   0  0  0  0  0  0  0  0  0  0  0  0
   -0.5548   -0.8136   14.1938 C   0  0  0  0  0  0  0  0  0  0  0  0
   -1.9407   -1.0774   14.0650 C   0  0  0  0  0  0  0  0  0  0  0  0
   -2.7433   -0.3209   13.2263 O   0  0  0  0  0  0  0  0  0  0  0  0
   -2.1991    0.3702   12.1141 C   0  0  0  0  0  0  0  0  0  0  0  0
   -5.3455   -3.2544   13.5712 H   0  0  0  0  0  0  0  0  0  0  0  0
   -3.9628   -2.5635   12.6562 H   0  0  0  0  0  0  0  0  0  0  0  0
   -3.7532   -4.0854   13.5870 H   0  0  0  0  0  0  0  0  0  0  0  0
   -2.2076   -3.6701   16.2416 H   0  0  0  0  0  0  0  0  0  0  0  0
    0.1972   -3.2172   16.4859 H   0  0  0  0  0  0  0  0  0  0  0  0
    5.1344    1.9160   13.2339 H   0  0  0  0  0  0  0  0  0  0  0  0
    6.8233    0.9114   15.3092 H   0  0  0  0  0  0  0  0  0  0  0  0
    6.2818   -0.8115   17.3028 H   0  0  0  0  0  0  0  0  0  0  0  0
    4.6052    2.3847   11.2409 H   0  0  0  0  0  0  0  0  0  0  0  0
    3.6735    4.4081   10.1972 H   0  0  0  0  0  0  0  0  0  0  0  0
    3.3712    2.9580    9.1812 H   0  0  0  0  0  0  0  0  0  0  0  0
   -1.8979    4.4764    9.7172 H   0  0  0  0  0  0  0  0  0  0  0  0
   -1.0677    2.9997    9.1199 H   0  0  0  0  0  0  0  0  0  0  0  0
    0.5815    2.1569   12.7559 H   0  0  0  0  0  0  0  0  0  0  0  0
   -0.4564    0.2355   14.5095 H   0  0  0  0  0  0  0  0  0  0  0  0
   -0.1106   -0.9393   13.1953 H   0  0  0  0  0  0  0  0  0  0  0  0
   -3.0020    0.9048   11.5853 H   0  0  0  0  0  0  0  0  0  0  0  0
   -1.4464    1.0922   12.4637 H   0  0  0  0  0  0  0  0  0  0  0  0
   -1.7263   -0.3503   11.4304 H   0  0  0  0  0  0  0  0  0  0  0  0
  1  2  1  0  0  0  0
  2  3  1  0  0  0  0
  3  4  1  0  0  0  0
  3 29  2  0  0  0  0
  4  5  2  0  0  0  0
  5  6  1  0  0  0  0
  6  7  2  0  0  0  0
  6 28  1  0  0  0  0
  7  8  1  0  0  0  0
  8  9  2  0  0  0  0
  8 16  1  0  0  0  0
  9 10  1  0  0  0  0
 10 11  2  0  0  0  0
 10 17  1  0  0  0  0
 11 12  1  0  0  0  0
 12 13  1  0  0  0  0
 12 16  1  0  0  0  0
 13 14  2  0  0  0  0
 14 15  1  0  0  0  0
 15 16  2  0  0  0  0
 17 18  2  0  0  0  0
 17 27  1  0  0  0  0
 18 19  1  0  0  0  0
 19 20  1  0  0  0  0
 20 21  2  0  0  0  0
 20 26  1  0  0  0  0
 21 22  1  0  0  0  0
 22 23  2  0  0  0  0
 22 24  1  0  0  0  0
 24 25  1  0  0  0  0
 25 26  1  0  0  0  0
 26 27  2  0  0  0  0
 28 29  1  0  0  0  0
 29 30  1  0  0  0  0
 30 31  1  0  0  0  0
  1 32  1  0  0  0  0
  1 33  1  0  0  0  0
  1 34  1  0  0  0  0
  4 35  1  0  0  0  0
  5 36  1  0  0  0  0
 11 37  1  0  0  0  0
 13 38  1  0  0  0  0
 14 39  1  0  0  0  0
 18 40  1  0  0  0  0
 19 41  1  0  0  0  0
 19 42  1  0  0  0  0
 24 43  1  0  0  0  0
 24 44  1  0  0  0  0
 27 45  1  0  0  0  0
 28 46  1  0  0  0  0
 28 47  1  0  0  0  0
 31 48  1  0  0  0  0
 31 49  1  0  0  0  0
 31 50  1  0  0  0  0
M  END
> <IC50[nM]>
33.4

$$$$
