CHEMBL3259820
  -OEChem-05192314333D
 Structure written by MMmdl.
 48 51  0     0  0  0  0  0  0999 V2000
   -4.2559   -3.1060   13.5669 C   0  0  0  0  0  0  0  0  0  0  0  0
   -3.8726   -2.3561   14.7087 O   0  0  0  0  0  0  0  0  0  0  0  0
   -2.5261   -2.1090   14.8139 C   0  0  0  0  0  0  0  0  0  0  0  0
   -1.7497   -2.8677   15.6812 C   0  0  0  0  0  0  0  0  0  0  0  0
   -0.3968   -2.6084   15.8204 C   0  0  0  0  0  0  0  0  0  0  0  0
    0.2208   -1.5821   15.0957 C   0  0  0  0  0  0  0  0  0  0  0  0
    1.6029   -1.3570   15.3324 N   0  0  0  0  0  0  0  0  0  0  0  0
    2.5301   -0.4418   14.7814 C   0  0  0  0  0  0  0  0  0  0  0  0
    2.1713    0.3833   13.7481 N   0  0  0  0  0  0  0  0  0  0  0  0
    3.1089    1.2308   13.2274 C   0  0  0  0  0  0  0  0  0  0  0  0
    4.4101    1.2783   13.7032 C   0  0  0  0  0  0  0  0  0  0  0  0
    4.7426    0.4910   14.7676 N   0  0  0  0  0  0  0  0  0  0  0  0
    5.8953    0.3872   15.4836 C   0  0  0  0  0  0  0  0  0  0  0  0
    5.5954   -0.5343   16.5177 C   0  0  0  0  0  0  0  0  0  0  0  0
    4.3825   -1.0512   16.3664 N   0  0  0  0  0  0  0  0  0  0  0  0
    3.8364   -0.4021   15.3289 C   0  0  0  0  0  0  0  0  0  0  0  0
    2.6465    2.1385   12.1256 C   0  0  0  0  0  0  0  0  0  0  0  0
    3.5557    2.6368   11.1745 C   0  0  0  0  0  0  0  0  0  0  0  0
    3.1190    3.4676   10.1463 C   0  0  0  0  0  0  0  0  0  0  0  0
    1.7635    3.8248   10.0594 C   0  0  0  0  0  0  0  0  0  0  0  0
    0.8615    3.3448   11.0110 C   0  0  0  0  0  0  0  0  0  0  0  0
    1.2990    2.5127   12.0324 C   0  0  0  0  0  0  0  0  0  0  0  0
    1.2918    4.7293    8.9608 C   0  0  0  0  0  0  0  0  0  0  0  0
    2.0878    5.3456    8.2497 O   0  0  0  0  0  0  0  0  0  0  0  0
   -0.0320    4.8143    8.7824 N   0  0  0  0  0  0  0  0  0  0  0  0
   -0.5541   -0.8144   14.1977 C   0  0  0  0  0  0  0  0  0  0  0  0
   -1.9430   -1.0833   14.0624 C   0  0  0  0  0  0  0  0  0  0  0  0
   -2.7475   -0.3431   13.2088 O   0  0  0  0  0  0  0  0  0  0  0  0
   -2.2164    0.6551   12.3579 C   0  0  0  0  0  0  0  0  0  0  0  0
   -5.3463   -3.2510   13.5719 H   0  0  0  0  0  0  0  0  0  0  0  0
   -3.9625   -2.5630   12.6563 H   0  0  0  0  0  0  0  0  0  0  0  0
   -3.7558   -4.0855   13.5869 H   0  0  0  0  0  0  0  0  0  0  0  0
   -2.2045   -3.6649   16.2505 H   0  0  0  0  0  0  0  0  0  0  0  0
    0.1918   -3.2077   16.4992 H   0  0  0  0  0  0  0  0  0  0  0  0
    1.9973   -1.9634   16.0229 H   0  0  0  0  0  0  0  0  0  0  0  0
    5.1437    1.9232   13.2424 H   0  0  0  0  0  0  0  0  0  0  0  0
    6.8314    0.8948   15.3036 H   0  0  0  0  0  0  0  0  0  0  0  0
    6.2677   -0.7839   17.3253 H   0  0  0  0  0  0  0  0  0  0  0  0
    4.6007    2.3727   11.2426 H   0  0  0  0  0  0  0  0  0  0  0  0
    3.8227    3.8375    9.4153 H   0  0  0  0  0  0  0  0  0  0  0  0
   -0.1807    3.6220   10.9522 H   0  0  0  0  0  0  0  0  0  0  0  0
    0.5926    2.1493   12.7640 H   0  0  0  0  0  0  0  0  0  0  0  0
   -0.4024    5.3911    8.0543 H   0  0  0  0  0  0  0  0  0  0  0  0
   -0.6507    4.3010    9.3772 H   0  0  0  0  0  0  0  0  0  0  0  0
   -0.0938   -0.0282   13.6177 H   0  0  0  0  0  0  0  0  0  0  0  0
   -3.0297    1.1104   11.7737 H   0  0  0  0  0  0  0  0  0  0  0  0
   -1.7229    1.4290   12.9642 H   0  0  0  0  0  0  0  0  0  0  0  0
   -1.4833    0.2020   11.6743 H   0  0  0  0  0  0  0  0  0  0  0  0
  1  2  1  0  0  0  0
  2  3  1  0  0  0  0
  3  4  2  0  0  0  0
  3 27  1  0  0  0  0
  4  5  1  0  0  0  0
  5  6  2  0  0  0  0
  6  7  1  0  0  0  0
  6 26  1  0  0  0  0
  7  8  1  0  0  0  0
  8  9  2  0  0  0  0
  8 16  1  0  0  0  0
  9 10  1  0  0  0  0
 10 11  2  0  0  0  0
 10 17  1  0  0  0  0
 11 12  1  0  0  0  0
 12 13  1  0  0  0  0
 12 16  1  0  0  0  0
 13 14  2  0  0  0  0
 14 15  1  0  0  0  0
 15 16  2  0  0  0  0
 17 18  2  0  0  0  0
 17 22  1  0  0  0  0
 18 19  1  0  0  0  0
 19 20  2  0  0  0  0
 20 21  1  0  0  0  0
 20 23  1  0  0  0  0
 21 22  2  0  0  0  0
 23 24  2  0  0  0  0
 23 25  1  0  0  0  0
 26 27  2  0  0  0  0
 27 28  1  0  0  0  0
 28 29  1  0  0  0  0
  1 30  1  0  0  0  0
  1 31  1  0  0  0  0
  1 32  1  0  0  0  0
  4 33  1  0  0  0  0
  5 34  1  0  0  0  0
  7 35  1  0  0  0  0
 11 36  1  0  0  0  0
 13 37  1  0  0  0  0
 14 38  1  0  0  0  0
 18 39  1  0  0  0  0
 19 40  1  0  0  0  0
 21 41  1  0  0  0  0
 22 42  1  0  0  0  0
 25 43  1  0  0  0  0
 25 44  1  0  0  0  0
 26 45  1  0  0  0  0
 29 46  1  0  0  0  0
 29 47  1  0  0  0  0
 29 48  1  0  0  0  0
M  END
> <IC50[nM]>
17.7

$$$$
CHEMBL3259820
  -OEChem-05192314333D
 Structure written by MMmdl.
 48 51  0     0  0  0  0  0  0999 V2000
   -4.2559   -3.1060   13.5669 C   0  0  0  0  0  0  0  0  0  0  0  0
   -3.8726   -2.3561   14.7087 O   0  0  0  0  0  0  0  0  0  0  0  0
   -2.5261   -2.1090   14.8139 C   0  0  0  0  0  0  0  0  0  0  0  0
   -1.7497   -2.8677   15.6812 C   0  0  0  0  0  0  0  0  0  0  0  0
   -0.3968   -2.6084   15.8204 C   0  0  0  0  0  0  0  0  0  0  0  0
    0.2208   -1.5821   15.0957 C   0  0  0  0  0  0  0  0  0  0  0  0
    1.6029   -1.3570   15.3324 N   0  0  0  0  0  0  0  0  0  0  0  0
    2.5301   -0.4418   14.7814 C   0  0  0  0  0  0  0  0  0  0  0  0
    2.1713    0.3833   13.7481 N   0  0  0  0  0  0  0  0  0  0  0  0
    3.1089    1.2308   13.2274 C   0  0  0  0  0  0  0  0  0  0  0  0
    4.4101    1.2783   13.7032 C   0  0  0  0  0  0  0  0  0  0  0  0
    4.7426    0.4910   14.7676 N   0  0  0  0  0  0  0  0  0  0  0  0
    5.8953    0.3872   15.4836 C   0  0  0  0  0  0  0  0  0  0  0  0
    5.5954   -0.5343   16.5177 C   0  0  0  0  0  0  0  0  0  0  0  0
    4.3825   -1.0512   16.3664 N   0  0  0  0  0  0  0  0  0  0  0  0
    3.8364   -0.4021   15.3289 C   0  0  0  0  0  0  0  0  0  0  0  0
    2.6465    2.1385   12.1256 C   0  0  0  0  0  0  0  0  0  0  0  0
    3.5557    2.6368   11.1745 C   0  0  0  0  0  0  0  0  0  0  0  0
    3.1190    3.4676   10.1463 C   0  0  0  0  0  0  0  0  0  0  0  0
    1.7635    3.8248   10.0594 C   0  0  0  0  0  0  0  0  0  0  0  0
    0.8615    3.3448   11.0110 C   0  0  0  0  0  0  0  0  0  0  0  0
    1.2990    2.5127   12.0324 C   0  0  0  0  0  0  0  0  0  0  0  0
    1.2918    4.7293    8.9608 C   0  0  0  0  0  0  0  0  0  0  0  0
    2.0878    5.3456    8.2497 O   0  0  0  0  0  0  0  0  0  0  0  0
   -0.0320    4.8143    8.7824 N   0  0  0  0  0  0  0  0  0  0  0  0
   -0.5541   -0.8144   14.1977 C   0  0  0  0  0  0  0  0  0  0  0  0
   -1.9430   -1.0833   14.0624 C   0  0  0  0  0  0  0  0  0  0  0  0
   -2.7475   -0.3431   13.2088 O   0  0  0  0  0  0  0  0  0  0  0  0
   -2.2164    0.6551   12.3579 C   0  0  0  0  0  0  0  0  0  0  0  0
   -5.3463   -3.2510   13.5719 H   0  0  0  0  0  0  0  0  0  0  0  0
   -3.9625   -2.5630   12.6563 H   0  0  0  0  0  0  0  0  0  0  0  0
   -3.7558   -4.0855   13.5869 H   0  0  0  0  0  0  0  0  0  0  0  0
   -2.2045   -3.6649   16.2505 H   0  0  0  0  0  0  0  0  0  0  0  0
    0.1918   -3.2077   16.4992 H   0  0  0  0  0  0  0  0  0  0  0  0
    1.9973   -1.9634   16.0229 H   0  0  0  0  0  0  0  0  0  0  0  0
    5.1437    1.9232   13.2424 H   0  0  0  0  0  0  0  0  0  0  0  0
    6.8314    0.8948   15.3036 H   0  0  0  0  0  0  0  0  0  0  0  0
    6.2677   -0.7839   17.3253 H   0  0  0  0  0  0  0  0  0  0  0  0
    4.6007    2.3727   11.2426 H   0  0  0  0  0  0  0  0  0  0  0  0
    3.8227    3.8375    9.4153 H   0  0  0  0  0  0  0  0  0  0  0  0
   -0.1807    3.6220   10.9522 H   0  0  0  0  0  0  0  0  0  0  0  0
    0.5926    2.1493   12.7640 H   0  0  0  0  0  0  0  0  0  0  0  0
    1.6092    5.8638    7.6134 H   0  0  0  0  0  0  0  0  0  0  0  0
   -0.2696    5.4217    8.0243 H   0  0  0  0  0  0  0  0  0  0  0  0
   -0.0938   -0.0282   13.6177 H   0  0  0  0  0  0  0  0  0  0  0  0
   -3.0297    1.1104   11.7737 H   0  0  0  0  0  0  0  0  0  0  0  0
   -1.7229    1.4290   12.9642 H   0  0  0  0  0  0  0  0  0  0  0  0
   -1.4833    0.2020   11.6743 H   0  0  0  0  0  0  0  0  0  0  0  0
  1  2  1  0  0  0  0
  2  3  1  0  0  0  0
  3  4  2  0  0  0  0
  3 27  1  0  0  0  0
  4  5  1  0  0  0  0
  5  6  2  0  0  0  0
  6  7  1  0  0  0  0
  6 26  1  0  0  0  0
  7  8  1  0  0  0  0
  8  9  2  0  0  0  0
  8 16  1  0  0  0  0
  9 10  1  0  0  0  0
 10 11  2  0  0  0  0
 10 17  1  0  0  0  0
 11 12  1  0  0  0  0
 12 13  1  0  0  0  0
 12 16  1  0  0  0  0
 13 14  2  0  0  0  0
 14 15  1  0  0  0  0
 15 16  2  0  0  0  0
 17 18  2  0  0  0  0
 17 22  1  0  0  0  0
 18 19  1  0  0  0  0
 19 20  2  0  0  0  0
 20 21  1  0  0  0  0
 20 23  1  0  0  0  0
 21 22  2  0  0  0  0
 23 24  1  0  0  0  0
 23 25  2  0  0  0  0
 26 27  2  0  0  0  0
 27 28  1  0  0  0  0
 28 29  1  0  0  0  0
  1 30  1  0  0  0  0
  1 31  1  0  0  0  0
  1 32  1  0  0  0  0
  4 33  1  0  0  0  0
  5 34  1  0  0  0  0
  7 35  1  0  0  0  0
 11 36  1  0  0  0  0
 13 37  1  0  0  0  0
 14 38  1  0  0  0  0
 18 39  1  0  0  0  0
 19 40  1  0  0  0  0
 21 41  1  0  0  0  0
 22 42  1  0  0  0  0
 24 43  1  0  0  0  0
 25 44  1  0  0  0  0
 26 45  1  0  0  0  0
 29 46  1  0  0  0  0
 29 47  1  0  0  0  0
 29 48  1  0  0  0  0
M  END
> <IC50[nM]>
17.7

$$$$
CHEMBL3259820
  -OEChem-05192314333D
 Structure written by MMmdl.
 48 51  0     0  0  0  0  0  0999 V2000
   -4.2559   -3.1060   13.5669 C   0  0  0  0  0  0  0  0  0  0  0  0
   -3.8726   -2.3561   14.7087 O   0  0  0  0  0  0  0  0  0  0  0  0
   -2.5261   -2.1090   14.8139 C   0  0  0  0  0  0  0  0  0  0  0  0
   -1.7497   -2.8677   15.6812 C   0  0  0  0  0  0  0  0  0  0  0  0
   -0.3968   -2.6084   15.8204 C   0  0  0  0  0  0  0  0  0  0  0  0
    0.2208   -1.5821   15.0957 C   0  0  0  0  0  0  0  0  0  0  0  0
    1.6029   -1.3570   15.3324 N   0  0  0  0  0  0  0  0  0  0  0  0
    2.5301   -0.4418   14.7814 C   0  0  0  0  0  0  0  0  0  0  0  0
    2.1713    0.3833   13.7481 N   0  0  0  0  0  0  0  0  0  0  0  0
    3.1089    1.2308   13.2274 C   0  0  0  0  0  0  0  0  0  0  0  0
    4.4101    1.2783   13.7032 C   0  0  0  0  0  0  0  0  0  0  0  0
    4.7426    0.4910   14.7676 N   0  0  0  0  0  0  0  0  0  0  0  0
    5.8953    0.3872   15.4836 C   0  0  0  0  0  0  0  0  0  0  0  0
    5.5954   -0.5343   16.5177 C   0  0  0  0  0  0  0  0  0  0  0  0
    4.3825   -1.0512   16.3664 N   0  0  0  0  0  0  0  0  0  0  0  0
    3.8364   -0.4021   15.3289 C   0  0  0  0  0  0  0  0  0  0  0  0
    2.6465    2.1385   12.1256 C   0  0  0  0  0  0  0  0  0  0  0  0
    3.5557    2.6368   11.1745 C   0  0  0  0  0  0  0  0  0  0  0  0
    3.1190    3.4676   10.1463 C   0  0  0  0  0  0  0  0  0  0  0  0
    1.7635    3.8248   10.0594 C   0  0  0  0  0  0  0  0  0  0  0  0
    0.8615    3.3448   11.0110 C   0  0  0  0  0  0  0  0  0  0  0  0
    1.2990    2.5127   12.0324 C   0  0  0  0  0  0  0  0  0  0  0  0
    1.2918    4.7293    8.9608 C   0  0  0  0  0  0  0  0  0  0  0  0
    2.0878    5.3456    8.2497 O   0  0  0  0  0  0  0  0  0  0  0  0
   -0.0320    4.8143    8.7824 N   0  0  0  0  0  0  0  0  0  0  0  0
   -0.5541   -0.8144   14.1977 C   0  0  0  0  0  0  0  0  0  0  0  0
   -1.9430   -1.0833   14.0624 C   0  0  0  0  0  0  0  0  0  0  0  0
   -2.7475   -0.3431   13.2088 O   0  0  0  0  0  0  0  0  0  0  0  0
   -2.2164    0.6551   12.3579 C   0  0  0  0  0  0  0  0  0  0  0  0
   -5.3463   -3.2510   13.5719 H   0  0  0  0  0  0  0  0  0  0  0  0
   -3.9625   -2.5630   12.6563 H   0  0  0  0  0  0  0  0  0  0  0  0
   -3.7558   -4.0855   13.5869 H   0  0  0  0  0  0  0  0  0  0  0  0
   -2.2045   -3.6649   16.2505 H   0  0  0  0  0  0  0  0  0  0  0  0
    0.1918   -3.2077   16.4992 H   0  0  0  0  0  0  0  0  0  0  0  0
    1.2410    0.3658   13.3817 H   0  0  0  0  0  0  0  0  0  0  0  0
    5.1437    1.9232   13.2424 H   0  0  0  0  0  0  0  0  0  0  0  0
    6.8314    0.8948   15.3036 H   0  0  0  0  0  0  0  0  0  0  0  0
    6.2677   -0.7839   17.3253 H   0  0  0  0  0  0  0  0  0  0  0  0
    4.6007    2.3727   11.2426 H   0  0  0  0  0  0  0  0  0  0  0  0
    3.8227    3.8375    9.4153 H   0  0  0  0  0  0  0  0  0  0  0  0
   -0.1807    3.6220   10.9522 H   0  0  0  0  0  0  0  0  0  0  0  0
    0.5926    2.1493   12.7640 H   0  0  0  0  0  0  0  0  0  0  0  0
   -0.4024    5.3911    8.0543 H   0  0  0  0  0  0  0  0  0  0  0  0
   -0.6507    4.3010    9.3772 H   0  0  0  0  0  0  0  0  0  0  0  0
   -0.0938   -0.0282   13.6177 H   0  0  0  0  0  0  0  0  0  0  0  0
   -3.0297    1.1104   11.7737 H   0  0  0  0  0  0  0  0  0  0  0  0
   -1.7229    1.4290   12.9642 H   0  0  0  0  0  0  0  0  0  0  0  0
   -1.4833    0.2020   11.6743 H   0  0  0  0  0  0  0  0  0  0  0  0
  1  2  1  0  0  0  0
  2  3  1  0  0  0  0
  3  4  2  0  0  0  0
  3 27  1  0  0  0  0
  4  5  1  0  0  0  0
  5  6  2  0  0  0  0
  6  7  1  0  0  0  0
  6 26  1  0  0  0  0
  7  8  2  0  0  0  0
  8  9  1  0  0  0  0
  8 16  1  0  0  0  0
  9 10  1  0  0  0  0
 10 11  2  0  0  0  0
 10 17  1  0  0  0  0
 11 12  1  0  0  0  0
 12 13  1  0  0  0  0
 12 16  1  0  0  0  0
 13 14  2  0  0  0  0
 14 15  1  0  0  0  0
 15 16  2  0  0  0  0
 17 18  2  0  0  0  0
 17 22  1  0  0  0  0
 18 19  1  0  0  0  0
 19 20  2  0  0  0  0
 20 21  1  0  0  0  0
 20 23  1  0  0  0  0
 21 22  2  0  0  0  0
 23 24  2  0  0  0  0
 23 25  1  0  0  0  0
 26 27  2  0  0  0  0
 27 28  1  0  0  0  0
 28 29  1  0  0  0  0
  1 30  1  0  0  0  0
  1 31  1  0  0  0  0
  1 32  1  0  0  0  0
  4 33  1  0  0  0  0
  5 34  1  0  0  0  0
  9 35  1  0  0  0  0
 11 36  1  0  0  0  0
 13 37  1  0  0  0  0
 14 38  1  0  0  0  0
 18 39  1  0  0  0  0
 19 40  1  0  0  0  0
 21 41  1  0  0  0  0
 22 42  1  0  0  0  0
 25 43  1  0  0  0  0
 25 44  1  0  0  0  0
 26 45  1  0  0  0  0
 29 46  1  0  0  0  0
 29 47  1  0  0  0  0
 29 48  1  0  0  0  0
M  END
> <IC50[nM]>
17.7

$$$$
CHEMBL3259820
  -OEChem-05192314333D
 Structure written by MMmdl.
 48 51  0     0  0  0  0  0  0999 V2000
   -4.2559   -3.1060   13.5669 C   0  0  0  0  0  0  0  0  0  0  0  0
   -3.8726   -2.3561   14.7087 O   0  0  0  0  0  0  0  0  0  0  0  0
   -2.5261   -2.1090   14.8139 C   0  0  0  0  0  0  0  0  0  0  0  0
   -1.7497   -2.8677   15.6812 C   0  0  0  0  0  0  0  0  0  0  0  0
   -0.3968   -2.6084   15.8204 C   0  0  0  0  0  0  0  0  0  0  0  0
    0.2208   -1.5821   15.0957 C   0  0  0  0  0  0  0  0  0  0  0  0
    1.6029   -1.3570   15.3324 N   0  0  0  0  0  0  0  0  0  0  0  0
    2.5301   -0.4418   14.7814 C   0  0  0  0  0  0  0  0  0  0  0  0
    2.1713    0.3833   13.7481 N   0  0  0  0  0  0  0  0  0  0  0  0
    3.1089    1.2308   13.2274 C   0  0  0  0  0  0  0  0  0  0  0  0
    4.4101    1.2783   13.7032 C   0  0  0  0  0  0  0  0  0  0  0  0
    4.7426    0.4910   14.7676 N   0  0  0  0  0  0  0  0  0  0  0  0
    5.8953    0.3872   15.4836 C   0  0  0  0  0  0  0  0  0  0  0  0
    5.5954   -0.5343   16.5177 C   0  0  0  0  0  0  0  0  0  0  0  0
    4.3825   -1.0512   16.3664 N   0  0  0  0  0  0  0  0  0  0  0  0
    3.8364   -0.4021   15.3289 C   0  0  0  0  0  0  0  0  0  0  0  0
    2.6465    2.1385   12.1256 C   0  0  0  0  0  0  0  0  0  0  0  0
    3.5557    2.6368   11.1745 C   0  0  0  0  0  0  0  0  0  0  0  0
    3.1190    3.4676   10.1463 C   0  0  0  0  0  0  0  0  0  0  0  0
    1.7635    3.8248   10.0594 C   0  0  0  0  0  0  0  0  0  0  0  0
    0.8615    3.3448   11.0110 C   0  0  0  0  0  0  0  0  0  0  0  0
    1.2990    2.5127   12.0324 C   0  0  0  0  0  0  0  0  0  0  0  0
    1.2918    4.7293    8.9608 C   0  0  0  0  0  0  0  0  0  0  0  0
    2.0878    5.3456    8.2497 O   0  0  0  0  0  0  0  0  0  0  0  0
   -0.0320    4.8143    8.7824 N   0  0  0  0  0  0  0  0  0  0  0  0
   -0.5541   -0.8144   14.1977 C   0  0  0  0  0  0  0  0  0  0  0  0
   -1.9430   -1.0833   14.0624 C   0  0  0  0  0  0  0  0  0  0  0  0
   -2.7475   -0.3431   13.2088 O   0  0  0  0  0  0  0  0  0  0  0  0
   -2.2164    0.6551   12.3579 C   0  0  0  0  0  0  0  0  0  0  0  0
   -5.3463   -3.2510   13.5719 H   0  0  0  0  0  0  0  0  0  0  0  0
   -3.9625   -2.5630   12.6563 H   0  0  0  0  0  0  0  0  0  0  0  0
   -3.7558   -4.0855   13.5869 H   0  0  0  0  0  0  0  0  0  0  0  0
   -2.2045   -3.6649   16.2505 H   0  0  0  0  0  0  0  0  0  0  0  0
    0.1918   -3.2077   16.4992 H   0  0  0  0  0  0  0  0  0  0  0  0
    1.2410    0.3658   13.3817 H   0  0  0  0  0  0  0  0  0  0  0  0
    5.1437    1.9232   13.2424 H   0  0  0  0  0  0  0  0  0  0  0  0
    6.8314    0.8948   15.3036 H   0  0  0  0  0  0  0  0  0  0  0  0
    6.2677   -0.7839   17.3253 H   0  0  0  0  0  0  0  0  0  0  0  0
    4.6007    2.3727   11.2426 H   0  0  0  0  0  0  0  0  0  0  0  0
    3.8227    3.8375    9.4153 H   0  0  0  0  0  0  0  0  0  0  0  0
   -0.1807    3.6220   10.9522 H   0  0  0  0  0  0  0  0  0  0  0  0
    0.5926    2.1493   12.7640 H   0  0  0  0  0  0  0  0  0  0  0  0
    1.6092    5.8638    7.6134 H   0  0  0  0  0  0  0  0  0  0  0  0
   -0.2696    5.4217    8.0243 H   0  0  0  0  0  0  0  0  0  0  0  0
   -0.0938   -0.0282   13.6177 H   0  0  0  0  0  0  0  0  0  0  0  0
   -3.0297    1.1104   11.7737 H   0  0  0  0  0  0  0  0  0  0  0  0
   -1.7229    1.4290   12.9642 H   0  0  0  0  0  0  0  0  0  0  0  0
   -1.4833    0.2020   11.6743 H   0  0  0  0  0  0  0  0  0  0  0  0
  1  2  1  0  0  0  0
  2  3  1  0  0  0  0
  3  4  2  0  0  0  0
  3 27  1  0  0  0  0
  4  5  1  0  0  0  0
  5  6  2  0  0  0  0
  6  7  1  0  0  0  0
  6 26  1  0  0  0  0
  7  8  2  0  0  0  0
  8  9  1  0  0  0  0
  8 16  1  0  0  0  0
  9 10  1  0  0  0  0
 10 11  2  0  0  0  0
 10 17  1  0  0  0  0
 11 12  1  0  0  0  0
 12 13  1  0  0  0  0
 12 16  1  0  0  0  0
 13 14  2  0  0  0  0
 14 15  1  0  0  0  0
 15 16  2  0  0  0  0
 17 18  2  0  0  0  0
 17 22  1  0  0  0  0
 18 19  1  0  0  0  0
 19 20  2  0  0  0  0
 20 21  1  0  0  0  0
 20 23  1  0  0  0  0
 21 22  2  0  0  0  0
 23 24  1  0  0  0  0
 23 25  2  0  0  0  0
 26 27  2  0  0  0  0
 27 28  1  0  0  0  0
 28 29  1  0  0  0  0
  1 30  1  0  0  0  0
  1 31  1  0  0  0  0
  1 32  1  0  0  0  0
  4 33  1  0  0  0  0
  5 34  1  0  0  0  0
  9 35  1  0  0  0  0
 11 36  1  0  0  0  0
 13 37  1  0  0  0  0
 14 38  1  0  0  0  0
 18 39  1  0  0  0  0
 19 40  1  0  0  0  0
 21 41  1  0  0  0  0
 22 42  1  0  0  0  0
 24 43  1  0  0  0  0
 25 44  1  0  0  0  0
 26 45  1  0  0  0  0
 29 46  1  0  0  0  0
 29 47  1  0  0  0  0
 29 48  1  0  0  0  0
M  END
> <IC50[nM]>
17.7

$$$$
CHEMBL3259820
  -OEChem-05192314333D
 Structure written by MMmdl.
 48 51  0     0  0  0  0  0  0999 V2000
   -4.2559   -3.1060   13.5669 C   0  0  0  0  0  0  0  0  0  0  0  0
   -3.8726   -2.3561   14.7087 O   0  0  0  0  0  0  0  0  0  0  0  0
   -2.5261   -2.1090   14.8139 C   0  0  0  0  0  0  0  0  0  0  0  0
   -1.7497   -2.8677   15.6812 C   0  0  0  0  0  0  0  0  0  0  0  0
   -0.3968   -2.6084   15.8204 C   0  0  0  0  0  0  0  0  0  0  0  0
    0.2208   -1.5821   15.0957 C   0  0  0  0  0  0  0  0  0  0  0  0
    1.6029   -1.3570   15.3324 N   0  0  0  0  0  0  0  0  0  0  0  0
    2.5301   -0.4418   14.7814 C   0  0  0  0  0  0  0  0  0  0  0  0
    2.1713    0.3833   13.7481 N   0  0  0  0  0  0  0  0  0  0  0  0
    3.1089    1.2308   13.2274 C   0  0  0  0  0  0  0  0  0  0  0  0
    4.4101    1.2783   13.7032 C   0  0  0  0  0  0  0  0  0  0  0  0
    4.7426    0.4910   14.7676 N   0  0  0  0  0  0  0  0  0  0  0  0
    5.8953    0.3872   15.4836 C   0  0  0  0  0  0  0  0  0  0  0  0
    5.5954   -0.5343   16.5177 C   0  0  0  0  0  0  0  0  0  0  0  0
    4.3825   -1.0512   16.3664 N   0  0  0  0  0  0  0  0  0  0  0  0
    3.8364   -0.4021   15.3289 C   0  0  0  0  0  0  0  0  0  0  0  0
    2.6465    2.1385   12.1256 C   0  0  0  0  0  0  0  0  0  0  0  0
    3.5557    2.6368   11.1745 C   0  0  0  0  0  0  0  0  0  0  0  0
    3.1190    3.4676   10.1463 C   0  0  0  0  0  0  0  0  0  0  0  0
    1.7635    3.8248   10.0594 C   0  0  0  0  0  0  0  0  0  0  0  0
    0.8615    3.3448   11.0110 C   0  0  0  0  0  0  0  0  0  0  0  0
    1.2990    2.5127   12.0324 C   0  0  0  0  0  0  0  0  0  0  0  0
    1.2918    4.7293    8.9608 C   0  0  0  0  0  0  0  0  0  0  0  0
    2.0878    5.3456    8.2497 O   0  0  0  0  0  0  0  0  0  0  0  0
   -0.0320    4.8143    8.7824 N   0  0  0  0  0  0  0  0  0  0  0  0
   -0.5541   -0.8144   14.1977 C   0  0  0  0  0  0  0  0  0  0  0  0
   -1.9430   -1.0833   14.0624 C   0  0  0  0  0  0  0  0  0  0  0  0
   -2.7475   -0.3431   13.2088 O   0  0  0  0  0  0  0  0  0  0  0  0
   -2.2164    0.6551   12.3579 C   0  0  0  0  0  0  0  0  0  0  0  0
   -5.3463   -3.2510   13.5719 H   0  0  0  0  0  0  0  0  0  0  0  0
   -3.9625   -2.5630   12.6563 H   0  0  0  0  0  0  0  0  0  0  0  0
   -3.7558   -4.0855   13.5869 H   0  0  0  0  0  0  0  0  0  0  0  0
   -2.2045   -3.6649   16.2505 H   0  0  0  0  0  0  0  0  0  0  0  0
    0.1918   -3.2077   16.4992 H   0  0  0  0  0  0  0  0  0  0  0  0
    5.0710    0.9953   12.8707 H   0  0  0  0  0  0  0  0  0  0  0  0
    4.6120    2.3198   13.9938 H   0  0  0  0  0  0  0  0  0  0  0  0
    6.8314    0.8948   15.3036 H   0  0  0  0  0  0  0  0  0  0  0  0
    6.2677   -0.7839   17.3253 H   0  0  0  0  0  0  0  0  0  0  0  0
    4.6007    2.3727   11.2426 H   0  0  0  0  0  0  0  0  0  0  0  0
    3.8227    3.8375    9.4153 H   0  0  0  0  0  0  0  0  0  0  0  0
   -0.1807    3.6220   10.9522 H   0  0  0  0  0  0  0  0  0  0  0  0
    0.5926    2.1493   12.7640 H   0  0  0  0  0  0  0  0  0  0  0  0
   -0.4024    5.3911    8.0543 H   0  0  0  0  0  0  0  0  0  0  0  0
   -0.6507    4.3010    9.3772 H   0  0  0  0  0  0  0  0  0  0  0  0
   -0.0938   -0.0282   13.6177 H   0  0  0  0  0  0  0  0  0  0  0  0
   -3.0297    1.1104   11.7737 H   0  0  0  0  0  0  0  0  0  0  0  0
   -1.7229    1.4290   12.9642 H   0  0  0  0  0  0  0  0  0  0  0  0
   -1.4833    0.2020   11.6743 H   0  0  0  0  0  0  0  0  0  0  0  0
  1  2  1  0  0  0  0
  2  3  1  0  0  0  0
  3  4  2  0  0  0  0
  3 27  1  0  0  0  0
  4  5  1  0  0  0  0
  5  6  2  0  0  0  0
  6  7  1  0  0  0  0
  6 26  1  0  0  0  0
  7  8  2  0  0  0  0
  8  9  1  0  0  0  0
  8 16  1  0  0  0  0
  9 10  2  0  0  0  0
 10 11  1  0  0  0  0
 10 17  1  0  0  0  0
 11 12  1  0  0  0  0
 12 13  1  0  0  0  0
 12 16  1  0  0  0  0
 13 14  2  0  0  0  0
 14 15  1  0  0  0  0
 15 16  2  0  0  0  0
 17 18  2  0  0  0  0
 17 22  1  0  0  0  0
 18 19  1  0  0  0  0
 19 20  2  0  0  0  0
 20 21  1  0  0  0  0
 20 23  1  0  0  0  0
 21 22  2  0  0  0  0
 23 24  2  0  0  0  0
 23 25  1  0  0  0  0
 26 27  2  0  0  0  0
 27 28  1  0  0  0  0
 28 29  1  0  0  0  0
  1 30  1  0  0  0  0
  1 31  1  0  0  0  0
  1 32  1  0  0  0  0
  4 33  1  0  0  0  0
  5 34  1  0  0  0  0
 11 35  1  0  0  0  0
 11 36  1  0  0  0  0
 13 37  1  0  0  0  0
 14 38  1  0  0  0  0
 18 39  1  0  0  0  0
 19 40  1  0  0  0  0
 21 41  1  0  0  0  0
 22 42  1  0  0  0  0
 25 43  1  0  0  0  0
 25 44  1  0  0  0  0
 26 45  1  0  0  0  0
 29 46  1  0  0  0  0
 29 47  1  0  0  0  0
 29 48  1  0  0  0  0
M  END
> <IC50[nM]>
17.7

$$$$
CHEMBL3259820
  -OEChem-05192314333D
 Structure written by MMmdl.
 48 51  0     0  0  0  0  0  0999 V2000
   -4.2559   -3.1060   13.5669 C   0  0  0  0  0  0  0  0  0  0  0  0
   -3.8726   -2.3561   14.7087 O   0  0  0  0  0  0  0  0  0  0  0  0
   -2.5261   -2.1090   14.8139 C   0  0  0  0  0  0  0  0  0  0  0  0
   -1.7497   -2.8677   15.6812 C   0  0  0  0  0  0  0  0  0  0  0  0
   -0.3968   -2.6084   15.8204 C   0  0  0  0  0  0  0  0  0  0  0  0
    0.2208   -1.5821   15.0957 C   0  0  0  0  0  0  0  0  0  0  0  0
    1.6029   -1.3570   15.3324 N   0  0  0  0  0  0  0  0  0  0  0  0
    2.5301   -0.4418   14.7814 C   0  0  0  0  0  0  0  0  0  0  0  0
    2.1713    0.3833   13.7481 N   0  0  0  0  0  0  0  0  0  0  0  0
    3.1089    1.2308   13.2274 C   0  0  0  0  0  0  0  0  0  0  0  0
    4.4101    1.2783   13.7032 C   0  0  0  0  0  0  0  0  0  0  0  0
    4.7426    0.4910   14.7676 N   0  0  0  0  0  0  0  0  0  0  0  0
    5.8953    0.3872   15.4836 C   0  0  0  0  0  0  0  0  0  0  0  0
    5.5954   -0.5343   16.5177 C   0  0  0  0  0  0  0  0  0  0  0  0
    4.3825   -1.0512   16.3664 N   0  0  0  0  0  0  0  0  0  0  0  0
    3.8364   -0.4021   15.3289 C   0  0  0  0  0  0  0  0  0  0  0  0
    2.6465    2.1385   12.1256 C   0  0  0  0  0  0  0  0  0  0  0  0
    3.5557    2.6368   11.1745 C   0  0  0  0  0  0  0  0  0  0  0  0
    3.1190    3.4676   10.1463 C   0  0  0  0  0  0  0  0  0  0  0  0
    1.7635    3.8248   10.0594 C   0  0  0  0  0  0  0  0  0  0  0  0
    0.8615    3.3448   11.0110 C   0  0  0  0  0  0  0  0  0  0  0  0
    1.2990    2.5127   12.0324 C   0  0  0  0  0  0  0  0  0  0  0  0
    1.2918    4.7293    8.9608 C   0  0  0  0  0  0  0  0  0  0  0  0
    2.0878    5.3456    8.2497 O   0  0  0  0  0  0  0  0  0  0  0  0
   -0.0320    4.8143    8.7824 N   0  0  0  0  0  0  0  0  0  0  0  0
   -0.5541   -0.8144   14.1977 C   0  0  0  0  0  0  0  0  0  0  0  0
   -1.9430   -1.0833   14.0624 C   0  0  0  0  0  0  0  0  0  0  0  0
   -2.7475   -0.3431   13.2088 O   0  0  0  0  0  0  0  0  0  0  0  0
   -2.2164    0.6551   12.3579 C   0  0  0  0  0  0  0  0  0  0  0  0
   -5.3463   -3.2510   13.5719 H   0  0  0  0  0  0  0  0  0  0  0  0
   -3.9625   -2.5630   12.6563 H   0  0  0  0  0  0  0  0  0  0  0  0
   -3.7558   -4.0855   13.5869 H   0  0  0  0  0  0  0  0  0  0  0  0
   -2.2045   -3.6649   16.2505 H   0  0  0  0  0  0  0  0  0  0  0  0
    0.1918   -3.2077   16.4992 H   0  0  0  0  0  0  0  0  0  0  0  0
    5.0710    0.9953   12.8707 H   0  0  0  0  0  0  0  0  0  0  0  0
    4.6120    2.3198   13.9938 H   0  0  0  0  0  0  0  0  0  0  0  0
    6.8314    0.8948   15.3036 H   0  0  0  0  0  0  0  0  0  0  0  0
    6.2677   -0.7839   17.3253 H   0  0  0  0  0  0  0  0  0  0  0  0
    4.6007    2.3727   11.2426 H   0  0  0  0  0  0  0  0  0  0  0  0
    3.8227    3.8375    9.4153 H   0  0  0  0  0  0  0  0  0  0  0  0
   -0.1807    3.6220   10.9522 H   0  0  0  0  0  0  0  0  0  0  0  0
    0.5926    2.1493   12.7640 H   0  0  0  0  0  0  0  0  0  0  0  0
    1.6092    5.8638    7.6134 H   0  0  0  0  0  0  0  0  0  0  0  0
   -0.2696    5.4217    8.0243 H   0  0  0  0  0  0  0  0  0  0  0  0
   -0.0938   -0.0282   13.6177 H   0  0  0  0  0  0  0  0  0  0  0  0
   -3.0297    1.1104   11.7737 H   0  0  0  0  0  0  0  0  0  0  0  0
   -1.7229    1.4290   12.9642 H   0  0  0  0  0  0  0  0  0  0  0  0
   -1.4833    0.2020   11.6743 H   0  0  0  0  0  0  0  0  0  0  0  0
  1  2  1  0  0  0  0
  2  3  1  0  0  0  0
  3  4  2  0  0  0  0
  3 27  1  0  0  0  0
  4  5  1  0  0  0  0
  5  6  2  0  0  0  0
  6  7  1  0  0  0  0
  6 26  1  0  0  0  0
  7  8  2  0  0  0  0
  8  9  1  0  0  0  0
  8 16  1  0  0  0  0
  9 10  2  0  0  0  0
 10 11  1  0  0  0  0
 10 17  1  0  0  0  0
 11 12  1  0  0  0  0
 12 13  1  0  0  0  0
 12 16  1  0  0  0  0
 13 14  2  0  0  0  0
 14 15  1  0  0  0  0
 15 16  2  0  0  0  0
 17 18  2  0  0  0  0
 17 22  1  0  0  0  0
 18 19  1  0  0  0  0
 19 20  2  0  0  0  0
 20 21  1  0  0  0  0
 20 23  1  0  0  0  0
 21 22  2  0  0  0  0
 23 24  1  0  0  0  0
 23 25  2  0  0  0  0
 26 27  2  0  0  0  0
 27 28  1  0  0  0  0
 28 29  1  0  0  0  0
  1 30  1  0  0  0  0
  1 31  1  0  0  0  0
  1 32  1  0  0  0  0
  4 33  1  0  0  0  0
  5 34  1  0  0  0  0
 11 35  1  0  0  0  0
 11 36  1  0  0  0  0
 13 37  1  0  0  0  0
 14 38  1  0  0  0  0
 18 39  1  0  0  0  0
 19 40  1  0  0  0  0
 21 41  1  0  0  0  0
 22 42  1  0  0  0  0
 24 43  1  0  0  0  0
 25 44  1  0  0  0  0
 26 45  1  0  0  0  0
 29 46  1  0  0  0  0
 29 47  1  0  0  0  0
 29 48  1  0  0  0  0
M  END
> <IC50[nM]>
17.7

$$$$
CHEMBL3259820
  -OEChem-05192314333D
 Structure written by MMmdl.
 48 51  0     1  0  0  0  0  0999 V2000
   -4.2559   -3.1060   13.5669 C   0  0  0  0  0  0  0  0  0  0  0  0
   -3.8726   -2.3561   14.7087 O   0  0  0  0  0  0  0  0  0  0  0  0
   -2.5261   -2.1090   14.8139 C   0  0  3  0  0  0  0  0  0  0  0  0
   -1.7497   -2.8677   15.6812 C   0  0  0  0  0  0  0  0  0  0  0  0
   -0.3968   -2.6084   15.8204 C   0  0  0  0  0  0  0  0  0  0  0  0
    0.2208   -1.5821   15.0957 C   0  0  0  0  0  0  0  0  0  0  0  0
    1.6029   -1.3570   15.3324 N   0  0  0  0  0  0  0  0  0  0  0  0
    2.5301   -0.4418   14.7814 C   0  0  0  0  0  0  0  0  0  0  0  0
    2.1713    0.3833   13.7481 N   0  0  0  0  0  0  0  0  0  0  0  0
    3.1089    1.2308   13.2274 C   0  0  0  0  0  0  0  0  0  0  0  0
    4.4101    1.2783   13.7032 C   0  0  0  0  0  0  0  0  0  0  0  0
    4.7426    0.4910   14.7676 N   0  0  0  0  0  0  0  0  0  0  0  0
    5.8953    0.3872   15.4836 C   0  0  0  0  0  0  0  0  0  0  0  0
    5.5954   -0.5343   16.5177 C   0  0  0  0  0  0  0  0  0  0  0  0
    4.3825   -1.0512   16.3664 N   0  0  0  0  0  0  0  0  0  0  0  0
    3.8364   -0.4021   15.3289 C   0  0  0  0  0  0  0  0  0  0  0  0
    2.6465    2.1385   12.1256 C   0  0  0  0  0  0  0  0  0  0  0  0
    3.5557    2.6368   11.1745 C   0  0  0  0  0  0  0  0  0  0  0  0
    3.1190    3.4676   10.1463 C   0  0  0  0  0  0  0  0  0  0  0  0
    1.7635    3.8248   10.0594 C   0  0  0  0  0  0  0  0  0  0  0  0
    0.8615    3.3448   11.0110 C   0  0  0  0  0  0  0  0  0  0  0  0
    1.2990    2.5127   12.0324 C   0  0  0  0  0  0  0  0  0  0  0  0
    1.2918    4.7293    8.9608 C   0  0  0  0  0  0  0  0  0  0  0  0
    2.0878    5.3456    8.2497 O   0  0  0  0  0  0  0  0  0  0  0  0
   -0.0320    4.8143    8.7824 N   0  0  0  0  0  0  0  0  0  0  0  0
   -0.5541   -0.8144   14.1977 C   0  0  0  0  0  0  0  0  0  0  0  0
   -1.9430   -1.0833   14.0624 C   0  0  0  0  0  0  0  0  0  0  0  0
   -2.7475   -0.3431   13.2088 O   0  0  0  0  0  0  0  0  0  0  0  0
   -2.2164    0.6551   12.3579 C   0  0  0  0  0  0  0  0  0  0  0  0
   -5.3463   -3.2510   13.5719 H   0  0  0  0  0  0  0  0  0  0  0  0
   -3.9625   -2.5630   12.6563 H   0  0  0  0  0  0  0  0  0  0  0  0
   -3.7558   -4.0855   13.5869 H   0  0  0  0  0  0  0  0  0  0  0  0
   -2.3265   -2.8239   14.0021 H   0  0  0  0  0  0  0  0  0  0  0  0
   -2.2045   -3.6649   16.2505 H   0  0  0  0  0  0  0  0  0  0  0  0
    0.1918   -3.2077   16.4992 H   0  0  0  0  0  0  0  0  0  0  0  0
    5.1437    1.9232   13.2424 H   0  0  0  0  0  0  0  0  0  0  0  0
    6.8314    0.8948   15.3036 H   0  0  0  0  0  0  0  0  0  0  0  0
    6.2677   -0.7839   17.3253 H   0  0  0  0  0  0  0  0  0  0  0  0
    4.6007    2.3727   11.2426 H   0  0  0  0  0  0  0  0  0  0  0  0
    3.8227    3.8375    9.4153 H   0  0  0  0  0  0  0  0  0  0  0  0
   -0.1807    3.6220   10.9522 H   0  0  0  0  0  0  0  0  0  0  0  0
    0.5926    2.1493   12.7640 H   0  0  0  0  0  0  0  0  0  0  0  0
   -0.4024    5.3911    8.0543 H   0  0  0  0  0  0  0  0  0  0  0  0
   -0.6507    4.3010    9.3772 H   0  0  0  0  0  0  0  0  0  0  0  0
   -0.0938   -0.0282   13.6177 H   0  0  0  0  0  0  0  0  0  0  0  0
   -3.0297    1.1104   11.7737 H   0  0  0  0  0  0  0  0  0  0  0  0
   -1.7229    1.4290   12.9642 H   0  0  0  0  0  0  0  0  0  0  0  0
   -1.4833    0.2020   11.6743 H   0  0  0  0  0  0  0  0  0  0  0  0
  1  2  1  0  0  0  0
  2  3  1  0  0  0  0
  3  4  1  0  0  0  0
  3 27  1  0  0  0  0
  4  5  2  0  0  0  0
  5  6  1  0  0  0  0
  6  7  2  0  0  0  0
  6 26  1  0  0  0  0
  7  8  1  0  0  0  0
  8  9  2  0  0  0  0
  8 16  1  0  0  0  0
  9 10  1  0  0  0  0
 10 11  2  0  0  0  0
 10 17  1  0  0  0  0
 11 12  1  0  0  0  0
 12 13  1  0  0  0  0
 12 16  1  0  0  0  0
 13 14  2  0  0  0  0
 14 15  1  0  0  0  0
 15 16  2  0  0  0  0
 17 18  2  0  0  0  0
 17 22  1  0  0  0  0
 18 19  1  0  0  0  0
 19 20  2  0  0  0  0
 20 21  1  0  0  0  0
 20 23  1  0  0  0  0
 21 22  2  0  0  0  0
 23 24  2  0  0  0  0
 23 25  1  0  0  0  0
 26 27  2  0  0  0  0
 27 28  1  0  0  0  0
 28 29  1  0  0  0  0
  1 30  1  0  0  0  0
  1 31  1  0  0  0  0
  1 32  1  0  0  0  0
  3 33  1  0  0  0  0
  4 34  1  0  0  0  0
  5 35  1  0  0  0  0
 11 36  1  0  0  0  0
 13 37  1  0  0  0  0
 14 38  1  0  0  0  0
 18 39  1  0  0  0  0
 19 40  1  0  0  0  0
 21 41  1  0  0  0  0
 22 42  1  0  0  0  0
 25 43  1  0  0  0  0
 25 44  1  0  0  0  0
 26 45  1  0  0  0  0
 29 46  1  0  0  0  0
 29 47  1  0  0  0  0
 29 48  1  0  0  0  0
M  END
> <IC50[nM]>
17.7

$$$$
CHEMBL3259820
  -OEChem-05192314333D
 Structure written by MMmdl.
 48 51  0     0  0  0  0  0  0999 V2000
   -4.2559   -3.1060   13.5669 C   0  0  0  0  0  0  0  0  0  0  0  0
   -3.8726   -2.3561   14.7087 O   0  0  0  0  0  0  0  0  0  0  0  0
   -2.5261   -2.1090   14.8139 C   0  0  0  0  0  0  0  0  0  0  0  0
   -1.7497   -2.8677   15.6812 C   0  0  0  0  0  0  0  0  0  0  0  0
   -0.3968   -2.6084   15.8204 C   0  0  0  0  0  0  0  0  0  0  0  0
    0.2208   -1.5821   15.0957 C   0  0  0  0  0  0  0  0  0  0  0  0
    1.6029   -1.3570   15.3324 N   0  0  0  0  0  0  0  0  0  0  0  0
    2.5301   -0.4418   14.7814 C   0  0  0  0  0  0  0  0  0  0  0  0
    2.1713    0.3833   13.7481 N   0  0  0  0  0  0  0  0  0  0  0  0
    3.1089    1.2308   13.2274 C   0  0  0  0  0  0  0  0  0  0  0  0
    4.4101    1.2783   13.7032 C   0  0  0  0  0  0  0  0  0  0  0  0
    4.7426    0.4910   14.7676 N   0  0  0  0  0  0  0  0  0  0  0  0
    5.8953    0.3872   15.4836 C   0  0  0  0  0  0  0  0  0  0  0  0
    5.5954   -0.5343   16.5177 C   0  0  0  0  0  0  0  0  0  0  0  0
    4.3825   -1.0512   16.3664 N   0  0  0  0  0  0  0  0  0  0  0  0
    3.8364   -0.4021   15.3289 C   0  0  0  0  0  0  0  0  0  0  0  0
    2.6465    2.1385   12.1256 C   0  0  0  0  0  0  0  0  0  0  0  0
    3.5557    2.6368   11.1745 C   0  0  0  0  0  0  0  0  0  0  0  0
    3.1190    3.4676   10.1463 C   0  0  0  0  0  0  0  0  0  0  0  0
    1.7635    3.8248   10.0594 C   0  0  0  0  0  0  0  0  0  0  0  0
    0.8615    3.3448   11.0110 C   0  0  0  0  0  0  0  0  0  0  0  0
    1.2990    2.5127   12.0324 C   0  0  0  0  0  0  0  0  0  0  0  0
    1.2918    4.7293    8.9608 C   0  0  0  0  0  0  0  0  0  0  0  0
    2.0878    5.3456    8.2497 O   0  0  0  0  0  0  0  0  0  0  0  0
   -0.0320    4.8143    8.7824 N   0  0  0  0  0  0  0  0  0  0  0  0
   -0.5541   -0.8144   14.1977 C   0  0  0  0  0  0  0  0  0  0  0  0
   -1.9430   -1.0833   14.0624 C   0  0  0  0  0  0  0  0  0  0  0  0
   -2.7475   -0.3431   13.2088 O   0  0  0  0  0  0  0  0  0  0  0  0
   -2.2164    0.6551   12.3579 C   0  0  0  0  0  0  0  0  0  0  0  0
   -5.3463   -3.2510   13.5719 H   0  0  0  0  0  0  0  0  0  0  0  0
   -3.9625   -2.5630   12.6563 H   0  0  0  0  0  0  0  0  0  0  0  0
   -3.7558   -4.0855   13.5869 H   0  0  0  0  0  0  0  0  0  0  0  0
   -2.2045   -3.6649   16.2505 H   0  0  0  0  0  0  0  0  0  0  0  0
   -0.2297   -2.3838   16.8842 H   0  0  0  0  0  0  0  0  0  0  0  0
    0.1283   -3.5378   15.5550 H   0  0  0  0  0  0  0  0  0  0  0  0
    5.1437    1.9232   13.2424 H   0  0  0  0  0  0  0  0  0  0  0  0
    6.8314    0.8948   15.3036 H   0  0  0  0  0  0  0  0  0  0  0  0
    6.2677   -0.7839   17.3253 H   0  0  0  0  0  0  0  0  0  0  0  0
    4.6007    2.3727   11.2426 H   0  0  0  0  0  0  0  0  0  0  0  0
    3.8227    3.8375    9.4153 H   0  0  0  0  0  0  0  0  0  0  0  0
   -0.1807    3.6220   10.9522 H   0  0  0  0  0  0  0  0  0  0  0  0
    0.5926    2.1493   12.7640 H   0  0  0  0  0  0  0  0  0  0  0  0
   -0.4024    5.3911    8.0543 H   0  0  0  0  0  0  0  0  0  0  0  0
   -0.6507    4.3010    9.3772 H   0  0  0  0  0  0  0  0  0  0  0  0
   -0.0938   -0.0282   13.6177 H   0  0  0  0  0  0  0  0  0  0  0  0
   -3.0297    1.1104   11.7737 H   0  0  0  0  0  0  0  0  0  0  0  0
   -1.7229    1.4290   12.9642 H   0  0  0  0  0  0  0  0  0  0  0  0
   -1.4833    0.2020   11.6743 H   0  0  0  0  0  0  0  0  0  0  0  0
  1  2  1  0  0  0  0
  2  3  1  0  0  0  0
  3  4  2  0  0  0  0
  3 27  1  0  0  0  0
  4  5  1  0  0  0  0
  5  6  1  0  0  0  0
  6  7  2  0  0  0  0
  6 26  1  0  0  0  0
  7  8  1  0  0  0  0
  8  9  2  0  0  0  0
  8 16  1  0  0  0  0
  9 10  1  0  0  0  0
 10 11  2  0  0  0  0
 10 17  1  0  0  0  0
 11 12  1  0  0  0  0
 12 13  1  0  0  0  0
 12 16  1  0  0  0  0
 13 14  2  0  0  0  0
 14 15  1  0  0  0  0
 15 16  2  0  0  0  0
 17 18  2  0  0  0  0
 17 22  1  0  0  0  0
 18 19  1  0  0  0  0
 19 20  2  0  0  0  0
 20 21  1  0  0  0  0
 20 23  1  0  0  0  0
 21 22  2  0  0  0  0
 23 24  2  0  0  0  0
 23 25  1  0  0  0  0
 26 27  2  0  0  0  0
 27 28  1  0  0  0  0
 28 29  1  0  0  0  0
  1 30  1  0  0  0  0
  1 31  1  0  0  0  0
  1 32  1  0  0  0  0
  4 33  1  0  0  0  0
  5 34  1  0  0  0  0
  5 35  1  0  0  0  0
 11 36  1  0  0  0  0
 13 37  1  0  0  0  0
 14 38  1  0  0  0  0
 18 39  1  0  0  0  0
 19 40  1  0  0  0  0
 21 41  1  0  0  0  0
 22 42  1  0  0  0  0
 25 43  1  0  0  0  0
 25 44  1  0  0  0  0
 26 45  1  0  0  0  0
 29 46  1  0  0  0  0
 29 47  1  0  0  0  0
 29 48  1  0  0  0  0
M  END
> <IC50[nM]>
17.7

$$$$
CHEMBL3259820
  -OEChem-05192314333D
 Structure written by MMmdl.
 48 51  0     0  0  0  0  0  0999 V2000
   -4.2559   -3.1060   13.5669 C   0  0  0  0  0  0  0  0  0  0  0  0
   -3.8726   -2.3561   14.7087 O   0  0  0  0  0  0  0  0  0  0  0  0
   -2.5261   -2.1090   14.8139 C   0  0  0  0  0  0  0  0  0  0  0  0
   -1.7497   -2.8677   15.6812 C   0  0  0  0  0  0  0  0  0  0  0  0
   -0.3968   -2.6084   15.8204 C   0  0  0  0  0  0  0  0  0  0  0  0
    0.2208   -1.5821   15.0957 C   0  0  0  0  0  0  0  0  0  0  0  0
    1.6029   -1.3570   15.3324 N   0  0  0  0  0  0  0  0  0  0  0  0
    2.5301   -0.4418   14.7814 C   0  0  0  0  0  0  0  0  0  0  0  0
    2.1713    0.3833   13.7481 N   0  0  0  0  0  0  0  0  0  0  0  0
    3.1089    1.2308   13.2274 C   0  0  0  0  0  0  0  0  0  0  0  0
    4.4101    1.2783   13.7032 C   0  0  0  0  0  0  0  0  0  0  0  0
    4.7426    0.4910   14.7676 N   0  0  0  0  0  0  0  0  0  0  0  0
    5.8953    0.3872   15.4836 C   0  0  0  0  0  0  0  0  0  0  0  0
    5.5954   -0.5343   16.5177 C   0  0  0  0  0  0  0  0  0  0  0  0
    4.3825   -1.0512   16.3664 N   0  0  0  0  0  0  0  0  0  0  0  0
    3.8364   -0.4021   15.3289 C   0  0  0  0  0  0  0  0  0  0  0  0
    2.6465    2.1385   12.1256 C   0  0  0  0  0  0  0  0  0  0  0  0
    3.5557    2.6368   11.1745 C   0  0  0  0  0  0  0  0  0  0  0  0
    3.1190    3.4676   10.1463 C   0  0  0  0  0  0  0  0  0  0  0  0
    1.7635    3.8248   10.0594 C   0  0  0  0  0  0  0  0  0  0  0  0
    0.8615    3.3448   11.0110 C   0  0  0  0  0  0  0  0  0  0  0  0
    1.2990    2.5127   12.0324 C   0  0  0  0  0  0  0  0  0  0  0  0
    1.2918    4.7293    8.9608 C   0  0  0  0  0  0  0  0  0  0  0  0
    2.0878    5.3456    8.2497 O   0  0  0  0  0  0  0  0  0  0  0  0
   -0.0320    4.8143    8.7824 N   0  0  0  0  0  0  0  0  0  0  0  0
   -0.5541   -0.8144   14.1977 C   0  0  0  0  0  0  0  0  0  0  0  0
   -1.9430   -1.0833   14.0624 C   0  0  0  0  0  0  0  0  0  0  0  0
   -2.7475   -0.3431   13.2088 O   0  0  0  0  0  0  0  0  0  0  0  0
   -2.2164    0.6551   12.3579 C   0  0  0  0  0  0  0  0  0  0  0  0
   -5.3463   -3.2510   13.5719 H   0  0  0  0  0  0  0  0  0  0  0  0
   -3.9625   -2.5630   12.6563 H   0  0  0  0  0  0  0  0  0  0  0  0
   -3.7558   -4.0855   13.5869 H   0  0  0  0  0  0  0  0  0  0  0  0
   -2.2045   -3.6649   16.2505 H   0  0  0  0  0  0  0  0  0  0  0  0
    0.1918   -3.2077   16.4992 H   0  0  0  0  0  0  0  0  0  0  0  0
    5.1437    1.9232   13.2424 H   0  0  0  0  0  0  0  0  0  0  0  0
    6.8314    0.8948   15.3036 H   0  0  0  0  0  0  0  0  0  0  0  0
    6.2677   -0.7839   17.3253 H   0  0  0  0  0  0  0  0  0  0  0  0
    4.6007    2.3727   11.2426 H   0  0  0  0  0  0  0  0  0  0  0  0
    3.8227    3.8375    9.4153 H   0  0  0  0  0  0  0  0  0  0  0  0
   -0.1807    3.6220   10.9522 H   0  0  0  0  0  0  0  0  0  0  0  0
    0.5926    2.1493   12.7640 H   0  0  0  0  0  0  0  0  0  0  0  0
   -0.4024    5.3911    8.0543 H   0  0  0  0  0  0  0  0  0  0  0  0
   -0.6507    4.3010    9.3772 H   0  0  0  0  0  0  0  0  0  0  0  0
   -0.4611    0.2355   14.5123 H   0  0  0  0  0  0  0  0  0  0  0  0
   -0.1058   -0.9397   13.2010 H   0  0  0  0  0  0  0  0  0  0  0  0
   -3.0297    1.1104   11.7737 H   0  0  0  0  0  0  0  0  0  0  0  0
   -1.7229    1.4290   12.9642 H   0  0  0  0  0  0  0  0  0  0  0  0
   -1.4833    0.2020   11.6743 H   0  0  0  0  0  0  0  0  0  0  0  0
  1  2  1  0  0  0  0
  2  3  1  0  0  0  0
  3  4  1  0  0  0  0
  3 27  2  0  0  0  0
  4  5  2  0  0  0  0
  5  6  1  0  0  0  0
  6  7  2  0  0  0  0
  6 26  1  0  0  0  0
  7  8  1  0  0  0  0
  8  9  2  0  0  0  0
  8 16  1  0  0  0  0
  9 10  1  0  0  0  0
 10 11  2  0  0  0  0
 10 17  1  0  0  0  0
 11 12  1  0  0  0  0
 12 13  1  0  0  0  0
 12 16  1  0  0  0  0
 13 14  2  0  0  0  0
 14 15  1  0  0  0  0
 15 16  2  0  0  0  0
 17 18  2  0  0  0  0
 17 22  1  0  0  0  0
 18 19  1  0  0  0  0
 19 20  2  0  0  0  0
 20 21  1  0  0  0  0
 20 23  1  0  0  0  0
 21 22  2  0  0  0  0
 23 24  2  0  0  0  0
 23 25  1  0  0  0  0
 26 27  1  0  0  0  0
 27 28  1  0  0  0  0
 28 29  1  0  0  0  0
  1 30  1  0  0  0  0
  1 31  1  0  0  0  0
  1 32  1  0  0  0  0
  4 33  1  0  0  0  0
  5 34  1  0  0  0  0
 11 35  1  0  0  0  0
 13 36  1  0  0  0  0
 14 37  1  0  0  0  0
 18 38  1  0  0  0  0
 19 39  1  0  0  0  0
 21 40  1  0  0  0  0
 22 41  1  0  0  0  0
 25 42  1  0  0  0  0
 25 43  1  0  0  0  0
 26 44  1  0  0  0  0
 26 45  1  0  0  0  0
 29 46  1  0  0  0  0
 29 47  1  0  0  0  0
 29 48  1  0  0  0  0
M  END
> <IC50[nM]>
17.7

$$$$
CHEMBL3259820
  -OEChem-05192314333D
 Structure written by MMmdl.
 48 51  0     1  0  0  0  0  0999 V2000
   -4.2559   -3.1060   13.5669 C   0  0  0  0  0  0  0  0  0  0  0  0
   -3.8726   -2.3561   14.7087 O   0  0  0  0  0  0  0  0  0  0  0  0
   -2.5261   -2.1090   14.8139 C   0  0  3  0  0  0  0  0  0  0  0  0
   -1.7497   -2.8677   15.6812 C   0  0  0  0  0  0  0  0  0  0  0  0
   -0.3968   -2.6084   15.8204 C   0  0  0  0  0  0  0  0  0  0  0  0
    0.2208   -1.5821   15.0957 C   0  0  0  0  0  0  0  0  0  0  0  0
    1.6029   -1.3570   15.3324 N   0  0  0  0  0  0  0  0  0  0  0  0
    2.5301   -0.4418   14.7814 C   0  0  0  0  0  0  0  0  0  0  0  0
    2.1713    0.3833   13.7481 N   0  0  0  0  0  0  0  0  0  0  0  0
    3.1089    1.2308   13.2274 C   0  0  0  0  0  0  0  0  0  0  0  0
    4.4101    1.2783   13.7032 C   0  0  0  0  0  0  0  0  0  0  0  0
    4.7426    0.4910   14.7676 N   0  0  0  0  0  0  0  0  0  0  0  0
    5.8953    0.3872   15.4836 C   0  0  0  0  0  0  0  0  0  0  0  0
    5.5954   -0.5343   16.5177 C   0  0  0  0  0  0  0  0  0  0  0  0
    4.3825   -1.0512   16.3664 N   0  0  0  0  0  0  0  0  0  0  0  0
    3.8364   -0.4021   15.3289 C   0  0  0  0  0  0  0  0  0  0  0  0
    2.6465    2.1385   12.1256 C   0  0  0  0  0  0  0  0  0  0  0  0
    3.5557    2.6368   11.1745 C   0  0  0  0  0  0  0  0  0  0  0  0
    3.1190    3.4676   10.1463 C   0  0  0  0  0  0  0  0  0  0  0  0
    1.7635    3.8248   10.0594 C   0  0  0  0  0  0  0  0  0  0  0  0
    0.8615    3.3448   11.0110 C   0  0  0  0  0  0  0  0  0  0  0  0
    1.2990    2.5127   12.0324 C   0  0  0  0  0  0  0  0  0  0  0  0
    1.2918    4.7293    8.9608 C   0  0  0  0  0  0  0  0  0  0  0  0
    2.0878    5.3456    8.2497 O   0  0  0  0  0  0  0  0  0  0  0  0
   -0.0320    4.8143    8.7824 N   0  0  0  0  0  0  0  0  0  0  0  0
   -0.5541   -0.8144   14.1977 C   0  0  0  0  0  0  0  0  0  0  0  0
   -1.9430   -1.0833   14.0624 C   0  0  0  0  0  0  0  0  0  0  0  0
   -2.7475   -0.3431   13.2088 O   0  0  0  0  0  0  0  0  0  0  0  0
   -2.2164    0.6551   12.3579 C   0  0  0  0  0  0  0  0  0  0  0  0
   -5.3463   -3.2510   13.5719 H   0  0  0  0  0  0  0  0  0  0  0  0
   -3.9625   -2.5630   12.6563 H   0  0  0  0  0  0  0  0  0  0  0  0
   -3.7558   -4.0855   13.5869 H   0  0  0  0  0  0  0  0  0  0  0  0
   -2.3265   -2.8239   14.0021 H   0  0  0  0  0  0  0  0  0  0  0  0
   -2.2045   -3.6649   16.2505 H   0  0  0  0  0  0  0  0  0  0  0  0
    0.1918   -3.2077   16.4992 H   0  0  0  0  0  0  0  0  0  0  0  0
    5.1437    1.9232   13.2424 H   0  0  0  0  0  0  0  0  0  0  0  0
    6.8314    0.8948   15.3036 H   0  0  0  0  0  0  0  0  0  0  0  0
    6.2677   -0.7839   17.3253 H   0  0  0  0  0  0  0  0  0  0  0  0
    4.6007    2.3727   11.2426 H   0  0  0  0  0  0  0  0  0  0  0  0
    3.8227    3.8375    9.4153 H   0  0  0  0  0  0  0  0  0  0  0  0
   -0.1807    3.6220   10.9522 H   0  0  0  0  0  0  0  0  0  0  0  0
    0.5926    2.1493   12.7640 H   0  0  0  0  0  0  0  0  0  0  0  0
    1.6092    5.8638    7.6134 H   0  0  0  0  0  0  0  0  0  0  0  0
   -0.2696    5.4217    8.0243 H   0  0  0  0  0  0  0  0  0  0  0  0
   -0.0938   -0.0282   13.6177 H   0  0  0  0  0  0  0  0  0  0  0  0
   -3.0297    1.1104   11.7737 H   0  0  0  0  0  0  0  0  0  0  0  0
   -1.7229    1.4290   12.9642 H   0  0  0  0  0  0  0  0  0  0  0  0
   -1.4833    0.2020   11.6743 H   0  0  0  0  0  0  0  0  0  0  0  0
  1  2  1  0  0  0  0
  2  3  1  0  0  0  0
  3  4  1  0  0  0  0
  3 27  1  0  0  0  0
  4  5  2  0  0  0  0
  5  6  1  0  0  0  0
  6  7  2  0  0  0  0
  6 26  1  0  0  0  0
  7  8  1  0  0  0  0
  8  9  2  0  0  0  0
  8 16  1  0  0  0  0
  9 10  1  0  0  0  0
 10 11  2  0  0  0  0
 10 17  1  0  0  0  0
 11 12  1  0  0  0  0
 12 13  1  0  0  0  0
 12 16  1  0  0  0  0
 13 14  2  0  0  0  0
 14 15  1  0  0  0  0
 15 16  2  0  0  0  0
 17 18  2  0  0  0  0
 17 22  1  0  0  0  0
 18 19  1  0  0  0  0
 19 20  2  0  0  0  0
 20 21  1  0  0  0  0
 20 23  1  0  0  0  0
 21 22  2  0  0  0  0
 23 24  1  0  0  0  0
 23 25  2  0  0  0  0
 26 27  2  0  0  0  0
 27 28  1  0  0  0  0
 28 29  1  0  0  0  0
  1 30  1  0  0  0  0
  1 31  1  0  0  0  0
  1 32  1  0  0  0  0
  3 33  1  0  0  0  0
  4 34  1  0  0  0  0
  5 35  1  0  0  0  0
 11 36  1  0  0  0  0
 13 37  1  0  0  0  0
 14 38  1  0  0  0  0
 18 39  1  0  0  0  0
 19 40  1  0  0  0  0
 21 41  1  0  0  0  0
 22 42  1  0  0  0  0
 24 43  1  0  0  0  0
 25 44  1  0  0  0  0
 26 45  1  0  0  0  0
 29 46  1  0  0  0  0
 29 47  1  0  0  0  0
 29 48  1  0  0  0  0
M  END
> <IC50[nM]>
17.7

$$$$
CHEMBL3259820
  -OEChem-05192314333D
 Structure written by MMmdl.
 48 51  0     0  0  0  0  0  0999 V2000
   -4.2559   -3.1060   13.5669 C   0  0  0  0  0  0  0  0  0  0  0  0
   -3.8726   -2.3561   14.7087 O   0  0  0  0  0  0  0  0  0  0  0  0
   -2.5261   -2.1090   14.8139 C   0  0  0  0  0  0  0  0  0  0  0  0
   -1.7497   -2.8677   15.6812 C   0  0  0  0  0  0  0  0  0  0  0  0
   -0.3968   -2.6084   15.8204 C   0  0  0  0  0  0  0  0  0  0  0  0
    0.2208   -1.5821   15.0957 C   0  0  0  0  0  0  0  0  0  0  0  0
    1.6029   -1.3570   15.3324 N   0  0  0  0  0  0  0  0  0  0  0  0
    2.5301   -0.4418   14.7814 C   0  0  0  0  0  0  0  0  0  0  0  0
    2.1713    0.3833   13.7481 N   0  0  0  0  0  0  0  0  0  0  0  0
    3.1089    1.2308   13.2274 C   0  0  0  0  0  0  0  0  0  0  0  0
    4.4101    1.2783   13.7032 C   0  0  0  0  0  0  0  0  0  0  0  0
    4.7426    0.4910   14.7676 N   0  0  0  0  0  0  0  0  0  0  0  0
    5.8953    0.3872   15.4836 C   0  0  0  0  0  0  0  0  0  0  0  0
    5.5954   -0.5343   16.5177 C   0  0  0  0  0  0  0  0  0  0  0  0
    4.3825   -1.0512   16.3664 N   0  0  0  0  0  0  0  0  0  0  0  0
    3.8364   -0.4021   15.3289 C   0  0  0  0  0  0  0  0  0  0  0  0
    2.6465    2.1385   12.1256 C   0  0  0  0  0  0  0  0  0  0  0  0
    3.5557    2.6368   11.1745 C   0  0  0  0  0  0  0  0  0  0  0  0
    3.1190    3.4676   10.1463 C   0  0  0  0  0  0  0  0  0  0  0  0
    1.7635    3.8248   10.0594 C   0  0  0  0  0  0  0  0  0  0  0  0
    0.8615    3.3448   11.0110 C   0  0  0  0  0  0  0  0  0  0  0  0
    1.2990    2.5127   12.0324 C   0  0  0  0  0  0  0  0  0  0  0  0
    1.2918    4.7293    8.9608 C   0  0  0  0  0  0  0  0  0  0  0  0
    2.0878    5.3456    8.2497 O   0  0  0  0  0  0  0  0  0  0  0  0
   -0.0320    4.8143    8.7824 N   0  0  0  0  0  0  0  0  0  0  0  0
   -0.5541   -0.8144   14.1977 C   0  0  0  0  0  0  0  0  0  0  0  0
   -1.9430   -1.0833   14.0624 C   0  0  0  0  0  0  0  0  0  0  0  0
   -2.7475   -0.3431   13.2088 O   0  0  0  0  0  0  0  0  0  0  0  0
   -2.2164    0.6551   12.3579 C   0  0  0  0  0  0  0  0  0  0  0  0
   -5.3463   -3.2510   13.5719 H   0  0  0  0  0  0  0  0  0  0  0  0
   -3.9625   -2.5630   12.6563 H   0  0  0  0  0  0  0  0  0  0  0  0
   -3.7558   -4.0855   13.5869 H   0  0  0  0  0  0  0  0  0  0  0  0
   -2.2045   -3.6649   16.2505 H   0  0  0  0  0  0  0  0  0  0  0  0
   -0.2297   -2.3838   16.8842 H   0  0  0  0  0  0  0  0  0  0  0  0
    0.1283   -3.5378   15.5550 H   0  0  0  0  0  0  0  0  0  0  0  0
    5.1437    1.9232   13.2424 H   0  0  0  0  0  0  0  0  0  0  0  0
    6.8314    0.8948   15.3036 H   0  0  0  0  0  0  0  0  0  0  0  0
    6.2677   -0.7839   17.3253 H   0  0  0  0  0  0  0  0  0  0  0  0
    4.6007    2.3727   11.2426 H   0  0  0  0  0  0  0  0  0  0  0  0
    3.8227    3.8375    9.4153 H   0  0  0  0  0  0  0  0  0  0  0  0
   -0.1807    3.6220   10.9522 H   0  0  0  0  0  0  0  0  0  0  0  0
    0.5926    2.1493   12.7640 H   0  0  0  0  0  0  0  0  0  0  0  0
    1.6092    5.8638    7.6134 H   0  0  0  0  0  0  0  0  0  0  0  0
   -0.2696    5.4217    8.0243 H   0  0  0  0  0  0  0  0  0  0  0  0
   -0.0938   -0.0282   13.6177 H   0  0  0  0  0  0  0  0  0  0  0  0
   -3.0297    1.1104   11.7737 H   0  0  0  0  0  0  0  0  0  0  0  0
   -1.7229    1.4290   12.9642 H   0  0  0  0  0  0  0  0  0  0  0  0
   -1.4833    0.2020   11.6743 H   0  0  0  0  0  0  0  0  0  0  0  0
  1  2  1  0  0  0  0
  2  3  1  0  0  0  0
  3  4  2  0  0  0  0
  3 27  1  0  0  0  0
  4  5  1  0  0  0  0
  5  6  1  0  0  0  0
  6  7  2  0  0  0  0
  6 26  1  0  0  0  0
  7  8  1  0  0  0  0
  8  9  2  0  0  0  0
  8 16  1  0  0  0  0
  9 10  1  0  0  0  0
 10 11  2  0  0  0  0
 10 17  1  0  0  0  0
 11 12  1  0  0  0  0
 12 13  1  0  0  0  0
 12 16  1  0  0  0  0
 13 14  2  0  0  0  0
 14 15  1  0  0  0  0
 15 16  2  0  0  0  0
 17 18  2  0  0  0  0
 17 22  1  0  0  0  0
 18 19  1  0  0  0  0
 19 20  2  0  0  0  0
 20 21  1  0  0  0  0
 20 23  1  0  0  0  0
 21 22  2  0  0  0  0
 23 24  1  0  0  0  0
 23 25  2  0  0  0  0
 26 27  2  0  0  0  0
 27 28  1  0  0  0  0
 28 29  1  0  0  0  0
  1 30  1  0  0  0  0
  1 31  1  0  0  0  0
  1 32  1  0  0  0  0
  4 33  1  0  0  0  0
  5 34  1  0  0  0  0
  5 35  1  0  0  0  0
 11 36  1  0  0  0  0
 13 37  1  0  0  0  0
 14 38  1  0  0  0  0
 18 39  1  0  0  0  0
 19 40  1  0  0  0  0
 21 41  1  0  0  0  0
 22 42  1  0  0  0  0
 24 43  1  0  0  0  0
 25 44  1  0  0  0  0
 26 45  1  0  0  0  0
 29 46  1  0  0  0  0
 29 47  1  0  0  0  0
 29 48  1  0  0  0  0
M  END
> <IC50[nM]>
17.7

$$$$
CHEMBL3259820
  -OEChem-05192314333D
 Structure written by MMmdl.
 48 51  0     0  0  0  0  0  0999 V2000
   -4.2559   -3.1060   13.5669 C   0  0  0  0  0  0  0  0  0  0  0  0
   -3.8726   -2.3561   14.7087 O   0  0  0  0  0  0  0  0  0  0  0  0
   -2.5261   -2.1090   14.8139 C   0  0  0  0  0  0  0  0  0  0  0  0
   -1.7497   -2.8677   15.6812 C   0  0  0  0  0  0  0  0  0  0  0  0
   -0.3968   -2.6084   15.8204 C   0  0  0  0  0  0  0  0  0  0  0  0
    0.2208   -1.5821   15.0957 C   0  0  0  0  0  0  0  0  0  0  0  0
    1.6029   -1.3570   15.3324 N   0  0  0  0  0  0  0  0  0  0  0  0
    2.5301   -0.4418   14.7814 C   0  0  0  0  0  0  0  0  0  0  0  0
    2.1713    0.3833   13.7481 N   0  0  0  0  0  0  0  0  0  0  0  0
    3.1089    1.2308   13.2274 C   0  0  0  0  0  0  0  0  0  0  0  0
    4.4101    1.2783   13.7032 C   0  0  0  0  0  0  0  0  0  0  0  0
    4.7426    0.4910   14.7676 N   0  0  0  0  0  0  0  0  0  0  0  0
    5.8953    0.3872   15.4836 C   0  0  0  0  0  0  0  0  0  0  0  0
    5.5954   -0.5343   16.5177 C   0  0  0  0  0  0  0  0  0  0  0  0
    4.3825   -1.0512   16.3664 N   0  0  0  0  0  0  0  0  0  0  0  0
    3.8364   -0.4021   15.3289 C   0  0  0  0  0  0  0  0  0  0  0  0
    2.6465    2.1385   12.1256 C   0  0  0  0  0  0  0  0  0  0  0  0
    3.5557    2.6368   11.1745 C   0  0  0  0  0  0  0  0  0  0  0  0
    3.1190    3.4676   10.1463 C   0  0  0  0  0  0  0  0  0  0  0  0
    1.7635    3.8248   10.0594 C   0  0  0  0  0  0  0  0  0  0  0  0
    0.8615    3.3448   11.0110 C   0  0  0  0  0  0  0  0  0  0  0  0
    1.2990    2.5127   12.0324 C   0  0  0  0  0  0  0  0  0  0  0  0
    1.2918    4.7293    8.9608 C   0  0  0  0  0  0  0  0  0  0  0  0
    2.0878    5.3456    8.2497 O   0  0  0  0  0  0  0  0  0  0  0  0
   -0.0320    4.8143    8.7824 N   0  0  0  0  0  0  0  0  0  0  0  0
   -0.5541   -0.8144   14.1977 C   0  0  0  0  0  0  0  0  0  0  0  0
   -1.9430   -1.0833   14.0624 C   0  0  0  0  0  0  0  0  0  0  0  0
   -2.7475   -0.3431   13.2088 O   0  0  0  0  0  0  0  0  0  0  0  0
   -2.2164    0.6551   12.3579 C   0  0  0  0  0  0  0  0  0  0  0  0
   -5.3463   -3.2510   13.5719 H   0  0  0  0  0  0  0  0  0  0  0  0
   -3.9625   -2.5630   12.6563 H   0  0  0  0  0  0  0  0  0  0  0  0
   -3.7558   -4.0855   13.5869 H   0  0  0  0  0  0  0  0  0  0  0  0
   -2.2045   -3.6649   16.2505 H   0  0  0  0  0  0  0  0  0  0  0  0
    0.1918   -3.2077   16.4992 H   0  0  0  0  0  0  0  0  0  0  0  0
    5.1437    1.9232   13.2424 H   0  0  0  0  0  0  0  0  0  0  0  0
    6.8314    0.8948   15.3036 H   0  0  0  0  0  0  0  0  0  0  0  0
    6.2677   -0.7839   17.3253 H   0  0  0  0  0  0  0  0  0  0  0  0
    4.6007    2.3727   11.2426 H   0  0  0  0  0  0  0  0  0  0  0  0
    3.8227    3.8375    9.4153 H   0  0  0  0  0  0  0  0  0  0  0  0
   -0.1807    3.6220   10.9522 H   0  0  0  0  0  0  0  0  0  0  0  0
    0.5926    2.1493   12.7640 H   0  0  0  0  0  0  0  0  0  0  0  0
    1.6092    5.8638    7.6134 H   0  0  0  0  0  0  0  0  0  0  0  0
   -0.2696    5.4217    8.0243 H   0  0  0  0  0  0  0  0  0  0  0  0
   -0.4611    0.2355   14.5123 H   0  0  0  0  0  0  0  0  0  0  0  0
   -0.1058   -0.9397   13.2010 H   0  0  0  0  0  0  0  0  0  0  0  0
   -3.0297    1.1104   11.7737 H   0  0  0  0  0  0  0  0  0  0  0  0
   -1.7229    1.4290   12.9642 H   0  0  0  0  0  0  0  0  0  0  0  0
   -1.4833    0.2020   11.6743 H   0  0  0  0  0  0  0  0  0  0  0  0
  1  2  1  0  0  0  0
  2  3  1  0  0  0  0
  3  4  1  0  0  0  0
  3 27  2  0  0  0  0
  4  5  2  0  0  0  0
  5  6  1  0  0  0  0
  6  7  2  0  0  0  0
  6 26  1  0  0  0  0
  7  8  1  0  0  0  0
  8  9  2  0  0  0  0
  8 16  1  0  0  0  0
  9 10  1  0  0  0  0
 10 11  2  0  0  0  0
 10 17  1  0  0  0  0
 11 12  1  0  0  0  0
 12 13  1  0  0  0  0
 12 16  1  0  0  0  0
 13 14  2  0  0  0  0
 14 15  1  0  0  0  0
 15 16  2  0  0  0  0
 17 18  2  0  0  0  0
 17 22  1  0  0  0  0
 18 19  1  0  0  0  0
 19 20  2  0  0  0  0
 20 21  1  0  0  0  0
 20 23  1  0  0  0  0
 21 22  2  0  0  0  0
 23 24  1  0  0  0  0
 23 25  2  0  0  0  0
 26 27  1  0  0  0  0
 27 28  1  0  0  0  0
 28 29  1  0  0  0  0
  1 30  1  0  0  0  0
  1 31  1  0  0  0  0
  1 32  1  0  0  0  0
  4 33  1  0  0  0  0
  5 34  1  0  0  0  0
 11 35  1  0  0  0  0
 13 36  1  0  0  0  0
 14 37  1  0  0  0  0
 18 38  1  0  0  0  0
 19 39  1  0  0  0  0
 21 40  1  0  0  0  0
 22 41  1  0  0  0  0
 24 42  1  0  0  0  0
 25 43  1  0  0  0  0
 26 44  1  0  0  0  0
 26 45  1  0  0  0  0
 29 46  1  0  0  0  0
 29 47  1  0  0  0  0
 29 48  1  0  0  0  0
M  END
> <IC50[nM]>
17.7

$$$$
