CHEMBL3265011
  -OEChem-05192314333D
 Structure written by MMmdl.
 51 54  0     0  0  0  0  0  0999 V2000
   -4.2555   -3.1029   13.5707 C   0  0  0  0  0  0  0  0  0  0  0  0
   -3.8740   -2.3535   14.7166 O   0  0  0  0  0  0  0  0  0  0  0  0
   -2.5261   -2.1057   14.8053 C   0  0  0  0  0  0  0  0  0  0  0  0
   -1.7497   -2.8673   15.6804 C   0  0  0  0  0  0  0  0  0  0  0  0
   -0.3863   -2.6106   15.8150 C   0  0  0  0  0  0  0  0  0  0  0  0
    0.2220   -1.5829   15.0890 C   0  0  0  0  0  0  0  0  0  0  0  0
    1.5930   -1.3491   15.3060 N   0  0  0  0  0  0  0  0  0  0  0  0
    2.5452   -0.4689   14.7536 C   0  0  0  0  0  0  0  0  0  0  0  0
    2.2178    0.3551   13.7190 N   0  0  0  0  0  0  0  0  0  0  0  0
    3.1227    1.2406   13.2181 C   0  0  0  0  0  0  0  0  0  0  0  0
    4.4207    1.3039   13.7175 C   0  0  0  0  0  0  0  0  0  0  0  0
    4.7482    0.4921   14.7654 N   0  0  0  0  0  0  0  0  0  0  0  0
    5.8898    0.3836   15.5035 C   0  0  0  0  0  0  0  0  0  0  0  0
    5.5715   -0.5089   16.5177 C   0  0  0  0  0  0  0  0  0  0  0  0
    4.3818   -1.0543   16.3920 N   0  0  0  0  0  0  0  0  0  0  0  0
    3.8330   -0.4170   15.3252 C   0  0  0  0  0  0  0  0  0  0  0  0
    2.6564    2.1560   12.1340 C   0  0  0  0  0  0  0  0  0  0  0  0
    1.3140    2.5576   12.0419 C   0  0  0  0  0  0  0  0  0  0  0  0
    0.8660    3.3707   10.9895 C   0  0  0  0  0  0  0  0  0  0  0  0
    1.7879    3.8078   10.0318 C   0  0  0  0  0  0  0  0  0  0  0  0
    3.1294    3.4499   10.1277 C   0  0  0  0  0  0  0  0  0  0  0  0
    3.5566    2.6280   11.1666 C   0  0  0  0  0  0  0  0  0  0  0  0
    4.9972    2.2126   11.2105 C   0  0  0  0  0  0  0  0  0  0  0  0
   -0.5881    3.7303   10.8428 C   0  0  0  0  0  0  0  0  0  0  0  0
   -1.1092    3.7021    9.7263 O   0  0  0  0  0  0  0  0  0  0  0  0
   -1.2179    4.0963   11.9826 N   0  0  0  0  0  0  0  0  0  0  0  0
   -0.5664   -0.8256   14.2115 C   0  0  0  0  0  0  0  0  0  0  0  0
   -1.9389   -1.0760   14.0580 C   0  0  0  0  0  0  0  0  0  0  0  0
   -2.6987   -0.3081   13.1992 O   0  0  0  0  0  0  0  0  0  0  0  0
   -2.0021    0.6722   12.5223 C   0  0  0  0  0  0  0  0  0  0  0  0
   -5.3448   -3.2555   13.5777 H   0  0  0  0  0  0  0  0  0  0  0  0
   -3.9681   -2.5543   12.6616 H   0  0  0  0  0  0  0  0  0  0  0  0
   -3.7486   -4.0790   13.5856 H   0  0  0  0  0  0  0  0  0  0  0  0
   -2.2073   -3.6587   16.2555 H   0  0  0  0  0  0  0  0  0  0  0  0
    0.2066   -3.2125   16.4877 H   0  0  0  0  0  0  0  0  0  0  0  0
    1.9791   -1.9422   16.0125 H   0  0  0  0  0  0  0  0  0  0  0  0
    5.1484    1.9765   13.2880 H   0  0  0  0  0  0  0  0  0  0  0  0
    6.8331    0.8820   15.3359 H   0  0  0  0  0  0  0  0  0  0  0  0
    6.2400   -0.7347   17.3354 H   0  0  0  0  0  0  0  0  0  0  0  0
    0.6121    2.2342   12.7963 H   0  0  0  0  0  0  0  0  0  0  0  0
    1.4559    4.4276    9.2120 H   0  0  0  0  0  0  0  0  0  0  0  0
    3.8383    3.8096    9.3966 H   0  0  0  0  0  0  0  0  0  0  0  0
    5.1291    1.2837   10.6363 H   0  0  0  0  0  0  0  0  0  0  0  0
    5.6209    3.0059   10.7727 H   0  0  0  0  0  0  0  0  0  0  0  0
    5.2983    2.0438   12.2549 H   0  0  0  0  0  0  0  0  0  0  0  0
   -2.1790    4.3711   11.9567 H   0  0  0  0  0  0  0  0  0  0  0  0
   -0.7223    4.0921   12.8512 H   0  0  0  0  0  0  0  0  0  0  0  0
   -0.1075   -0.0318   13.6408 H   0  0  0  0  0  0  0  0  0  0  0  0
   -2.6907    1.2262   11.8674 H   0  0  0  0  0  0  0  0  0  0  0  0
   -1.5476    1.3648   13.2459 H   0  0  0  0  0  0  0  0  0  0  0  0
   -1.2124    0.2070   11.9141 H   0  0  0  0  0  0  0  0  0  0  0  0
  1  2  1  0  0  0  0
  2  3  1  0  0  0  0
  3  4  2  0  0  0  0
  3 28  1  0  0  0  0
  4  5  1  0  0  0  0
  5  6  2  0  0  0  0
  6  7  1  0  0  0  0
  6 27  1  0  0  0  0
  7  8  1  0  0  0  0
  8  9  2  0  0  0  0
  8 16  1  0  0  0  0
  9 10  1  0  0  0  0
 10 11  2  0  0  0  0
 10 17  1  0  0  0  0
 11 12  1  0  0  0  0
 12 13  1  0  0  0  0
 12 16  1  0  0  0  0
 13 14  2  0  0  0  0
 14 15  1  0  0  0  0
 15 16  2  0  0  0  0
 17 18  2  0  0  0  0
 17 22  1  0  0  0  0
 18 19  1  0  0  0  0
 19 20  2  0  0  0  0
 19 24  1  0  0  0  0
 20 21  1  0  0  0  0
 21 22  2  0  0  0  0
 22 23  1  0  0  0  0
 24 25  2  0  0  0  0
 24 26  1  0  0  0  0
 27 28  2  0  0  0  0
 28 29  1  0  0  0  0
 29 30  1  0  0  0  0
  1 31  1  0  0  0  0
  1 32  1  0  0  0  0
  1 33  1  0  0  0  0
  4 34  1  0  0  0  0
  5 35  1  0  0  0  0
  7 36  1  0  0  0  0
 11 37  1  0  0  0  0
 13 38  1  0  0  0  0
 14 39  1  0  0  0  0
 18 40  1  0  0  0  0
 20 41  1  0  0  0  0
 21 42  1  0  0  0  0
 23 43  1  0  0  0  0
 23 44  1  0  0  0  0
 23 45  1  0  0  0  0
 26 46  1  0  0  0  0
 26 47  1  0  0  0  0
 27 48  1  0  0  0  0
 30 49  1  0  0  0  0
 30 50  1  0  0  0  0
 30 51  1  0  0  0  0
M  END
> <IC50[nM]>
466

$$$$
CHEMBL3265011
  -OEChem-05192314333D
 Structure written by MMmdl.
 51 54  0     0  0  0  0  0  0999 V2000
   -4.2555   -3.1029   13.5707 C   0  0  0  0  0  0  0  0  0  0  0  0
   -3.8740   -2.3535   14.7166 O   0  0  0  0  0  0  0  0  0  0  0  0
   -2.5261   -2.1057   14.8053 C   0  0  0  0  0  0  0  0  0  0  0  0
   -1.7497   -2.8673   15.6804 C   0  0  0  0  0  0  0  0  0  0  0  0
   -0.3863   -2.6106   15.8150 C   0  0  0  0  0  0  0  0  0  0  0  0
    0.2220   -1.5829   15.0890 C   0  0  0  0  0  0  0  0  0  0  0  0
    1.5930   -1.3491   15.3060 N   0  0  0  0  0  0  0  0  0  0  0  0
    2.5452   -0.4689   14.7536 C   0  0  0  0  0  0  0  0  0  0  0  0
    2.2178    0.3551   13.7190 N   0  0  0  0  0  0  0  0  0  0  0  0
    3.1227    1.2406   13.2181 C   0  0  0  0  0  0  0  0  0  0  0  0
    4.4207    1.3039   13.7175 C   0  0  0  0  0  0  0  0  0  0  0  0
    4.7482    0.4921   14.7654 N   0  0  0  0  0  0  0  0  0  0  0  0
    5.8898    0.3836   15.5035 C   0  0  0  0  0  0  0  0  0  0  0  0
    5.5715   -0.5089   16.5177 C   0  0  0  0  0  0  0  0  0  0  0  0
    4.3818   -1.0543   16.3920 N   0  0  0  0  0  0  0  0  0  0  0  0
    3.8330   -0.4170   15.3252 C   0  0  0  0  0  0  0  0  0  0  0  0
    2.6564    2.1560   12.1340 C   0  0  0  0  0  0  0  0  0  0  0  0
    1.3140    2.5576   12.0419 C   0  0  0  0  0  0  0  0  0  0  0  0
    0.8660    3.3707   10.9895 C   0  0  0  0  0  0  0  0  0  0  0  0
    1.7879    3.8078   10.0318 C   0  0  0  0  0  0  0  0  0  0  0  0
    3.1294    3.4499   10.1277 C   0  0  0  0  0  0  0  0  0  0  0  0
    3.5566    2.6280   11.1666 C   0  0  0  0  0  0  0  0  0  0  0  0
    4.9972    2.2126   11.2105 C   0  0  0  0  0  0  0  0  0  0  0  0
   -0.5881    3.7303   10.8428 C   0  0  0  0  0  0  0  0  0  0  0  0
   -1.1092    3.7021    9.7263 O   0  0  0  0  0  0  0  0  0  0  0  0
   -1.2179    4.0963   11.9826 N   0  0  0  0  0  0  0  0  0  0  0  0
   -0.5664   -0.8256   14.2115 C   0  0  0  0  0  0  0  0  0  0  0  0
   -1.9389   -1.0760   14.0580 C   0  0  0  0  0  0  0  0  0  0  0  0
   -2.6987   -0.3081   13.1992 O   0  0  0  0  0  0  0  0  0  0  0  0
   -2.0021    0.6722   12.5223 C   0  0  0  0  0  0  0  0  0  0  0  0
   -5.3448   -3.2555   13.5777 H   0  0  0  0  0  0  0  0  0  0  0  0
   -3.9681   -2.5543   12.6616 H   0  0  0  0  0  0  0  0  0  0  0  0
   -3.7486   -4.0790   13.5856 H   0  0  0  0  0  0  0  0  0  0  0  0
   -2.2073   -3.6587   16.2555 H   0  0  0  0  0  0  0  0  0  0  0  0
    0.2066   -3.2125   16.4877 H   0  0  0  0  0  0  0  0  0  0  0  0
    1.9791   -1.9422   16.0125 H   0  0  0  0  0  0  0  0  0  0  0  0
    5.1484    1.9765   13.2880 H   0  0  0  0  0  0  0  0  0  0  0  0
    6.8331    0.8820   15.3359 H   0  0  0  0  0  0  0  0  0  0  0  0
    6.2400   -0.7347   17.3354 H   0  0  0  0  0  0  0  0  0  0  0  0
    0.6121    2.2342   12.7963 H   0  0  0  0  0  0  0  0  0  0  0  0
    1.4559    4.4276    9.2120 H   0  0  0  0  0  0  0  0  0  0  0  0
    3.8383    3.8096    9.3966 H   0  0  0  0  0  0  0  0  0  0  0  0
    5.1291    1.2837   10.6363 H   0  0  0  0  0  0  0  0  0  0  0  0
    5.6209    3.0059   10.7727 H   0  0  0  0  0  0  0  0  0  0  0  0
    5.2983    2.0438   12.2549 H   0  0  0  0  0  0  0  0  0  0  0  0
   -2.0230    3.9521    9.7965 H   0  0  0  0  0  0  0  0  0  0  0  0
   -2.1721    4.3470   11.8194 H   0  0  0  0  0  0  0  0  0  0  0  0
   -0.1075   -0.0318   13.6408 H   0  0  0  0  0  0  0  0  0  0  0  0
   -2.6907    1.2262   11.8674 H   0  0  0  0  0  0  0  0  0  0  0  0
   -1.5476    1.3648   13.2459 H   0  0  0  0  0  0  0  0  0  0  0  0
   -1.2124    0.2070   11.9141 H   0  0  0  0  0  0  0  0  0  0  0  0
  1  2  1  0  0  0  0
  2  3  1  0  0  0  0
  3  4  2  0  0  0  0
  3 28  1  0  0  0  0
  4  5  1  0  0  0  0
  5  6  2  0  0  0  0
  6  7  1  0  0  0  0
  6 27  1  0  0  0  0
  7  8  1  0  0  0  0
  8  9  2  0  0  0  0
  8 16  1  0  0  0  0
  9 10  1  0  0  0  0
 10 11  2  0  0  0  0
 10 17  1  0  0  0  0
 11 12  1  0  0  0  0
 12 13  1  0  0  0  0
 12 16  1  0  0  0  0
 13 14  2  0  0  0  0
 14 15  1  0  0  0  0
 15 16  2  0  0  0  0
 17 18  2  0  0  0  0
 17 22  1  0  0  0  0
 18 19  1  0  0  0  0
 19 20  2  0  0  0  0
 19 24  1  0  0  0  0
 20 21  1  0  0  0  0
 21 22  2  0  0  0  0
 22 23  1  0  0  0  0
 24 25  1  0  0  0  0
 24 26  2  0  0  0  0
 27 28  2  0  0  0  0
 28 29  1  0  0  0  0
 29 30  1  0  0  0  0
  1 31  1  0  0  0  0
  1 32  1  0  0  0  0
  1 33  1  0  0  0  0
  4 34  1  0  0  0  0
  5 35  1  0  0  0  0
  7 36  1  0  0  0  0
 11 37  1  0  0  0  0
 13 38  1  0  0  0  0
 14 39  1  0  0  0  0
 18 40  1  0  0  0  0
 20 41  1  0  0  0  0
 21 42  1  0  0  0  0
 23 43  1  0  0  0  0
 23 44  1  0  0  0  0
 23 45  1  0  0  0  0
 25 46  1  0  0  0  0
 26 47  1  0  0  0  0
 27 48  1  0  0  0  0
 30 49  1  0  0  0  0
 30 50  1  0  0  0  0
 30 51  1  0  0  0  0
M  END
> <IC50[nM]>
466

$$$$
CHEMBL3265011
  -OEChem-05192314333D
 Structure written by MMmdl.
 51 54  0     0  0  0  0  0  0999 V2000
   -4.2555   -3.1029   13.5707 C   0  0  0  0  0  0  0  0  0  0  0  0
   -3.8740   -2.3535   14.7166 O   0  0  0  0  0  0  0  0  0  0  0  0
   -2.5261   -2.1057   14.8053 C   0  0  0  0  0  0  0  0  0  0  0  0
   -1.7497   -2.8673   15.6804 C   0  0  0  0  0  0  0  0  0  0  0  0
   -0.3863   -2.6106   15.8150 C   0  0  0  0  0  0  0  0  0  0  0  0
    0.2220   -1.5829   15.0890 C   0  0  0  0  0  0  0  0  0  0  0  0
    1.5930   -1.3491   15.3060 N   0  0  0  0  0  0  0  0  0  0  0  0
    2.5452   -0.4689   14.7536 C   0  0  0  0  0  0  0  0  0  0  0  0
    2.2178    0.3551   13.7190 N   0  0  0  0  0  0  0  0  0  0  0  0
    3.1227    1.2406   13.2181 C   0  0  0  0  0  0  0  0  0  0  0  0
    4.4207    1.3039   13.7175 C   0  0  0  0  0  0  0  0  0  0  0  0
    4.7482    0.4921   14.7654 N   0  0  0  0  0  0  0  0  0  0  0  0
    5.8898    0.3836   15.5035 C   0  0  0  0  0  0  0  0  0  0  0  0
    5.5715   -0.5089   16.5177 C   0  0  0  0  0  0  0  0  0  0  0  0
    4.3818   -1.0543   16.3920 N   0  0  0  0  0  0  0  0  0  0  0  0
    3.8330   -0.4170   15.3252 C   0  0  0  0  0  0  0  0  0  0  0  0
    2.6564    2.1560   12.1340 C   0  0  0  0  0  0  0  0  0  0  0  0
    1.3140    2.5576   12.0419 C   0  0  0  0  0  0  0  0  0  0  0  0
    0.8660    3.3707   10.9895 C   0  0  0  0  0  0  0  0  0  0  0  0
    1.7879    3.8078   10.0318 C   0  0  0  0  0  0  0  0  0  0  0  0
    3.1294    3.4499   10.1277 C   0  0  0  0  0  0  0  0  0  0  0  0
    3.5566    2.6280   11.1666 C   0  0  0  0  0  0  0  0  0  0  0  0
    4.9972    2.2126   11.2105 C   0  0  0  0  0  0  0  0  0  0  0  0
   -0.5881    3.7303   10.8428 C   0  0  0  0  0  0  0  0  0  0  0  0
   -1.1092    3.7021    9.7263 O   0  0  0  0  0  0  0  0  0  0  0  0
   -1.2179    4.0963   11.9826 N   0  0  0  0  0  0  0  0  0  0  0  0
   -0.5664   -0.8256   14.2115 C   0  0  0  0  0  0  0  0  0  0  0  0
   -1.9389   -1.0760   14.0580 C   0  0  0  0  0  0  0  0  0  0  0  0
   -2.6987   -0.3081   13.1992 O   0  0  0  0  0  0  0  0  0  0  0  0
   -2.0021    0.6722   12.5223 C   0  0  0  0  0  0  0  0  0  0  0  0
   -5.3448   -3.2555   13.5777 H   0  0  0  0  0  0  0  0  0  0  0  0
   -3.9681   -2.5543   12.6616 H   0  0  0  0  0  0  0  0  0  0  0  0
   -3.7486   -4.0790   13.5856 H   0  0  0  0  0  0  0  0  0  0  0  0
   -2.2073   -3.6587   16.2555 H   0  0  0  0  0  0  0  0  0  0  0  0
    0.2066   -3.2125   16.4877 H   0  0  0  0  0  0  0  0  0  0  0  0
    1.3010    0.3089   13.3224 H   0  0  0  0  0  0  0  0  0  0  0  0
    5.1484    1.9765   13.2880 H   0  0  0  0  0  0  0  0  0  0  0  0
    6.8331    0.8820   15.3359 H   0  0  0  0  0  0  0  0  0  0  0  0
    6.2400   -0.7347   17.3354 H   0  0  0  0  0  0  0  0  0  0  0  0
    0.6121    2.2342   12.7963 H   0  0  0  0  0  0  0  0  0  0  0  0
    1.4559    4.4276    9.2120 H   0  0  0  0  0  0  0  0  0  0  0  0
    3.8383    3.8096    9.3966 H   0  0  0  0  0  0  0  0  0  0  0  0
    5.1291    1.2837   10.6363 H   0  0  0  0  0  0  0  0  0  0  0  0
    5.6209    3.0059   10.7727 H   0  0  0  0  0  0  0  0  0  0  0  0
    5.2983    2.0438   12.2549 H   0  0  0  0  0  0  0  0  0  0  0  0
   -2.1790    4.3711   11.9567 H   0  0  0  0  0  0  0  0  0  0  0  0
   -0.7223    4.0921   12.8512 H   0  0  0  0  0  0  0  0  0  0  0  0
   -0.1075   -0.0318   13.6408 H   0  0  0  0  0  0  0  0  0  0  0  0
   -2.6907    1.2262   11.8674 H   0  0  0  0  0  0  0  0  0  0  0  0
   -1.5476    1.3648   13.2459 H   0  0  0  0  0  0  0  0  0  0  0  0
   -1.2124    0.2070   11.9141 H   0  0  0  0  0  0  0  0  0  0  0  0
  1  2  1  0  0  0  0
  2  3  1  0  0  0  0
  3  4  2  0  0  0  0
  3 28  1  0  0  0  0
  4  5  1  0  0  0  0
  5  6  2  0  0  0  0
  6  7  1  0  0  0  0
  6 27  1  0  0  0  0
  7  8  2  0  0  0  0
  8  9  1  0  0  0  0
  8 16  1  0  0  0  0
  9 10  1  0  0  0  0
 10 11  2  0  0  0  0
 10 17  1  0  0  0  0
 11 12  1  0  0  0  0
 12 13  1  0  0  0  0
 12 16  1  0  0  0  0
 13 14  2  0  0  0  0
 14 15  1  0  0  0  0
 15 16  2  0  0  0  0
 17 18  2  0  0  0  0
 17 22  1  0  0  0  0
 18 19  1  0  0  0  0
 19 20  2  0  0  0  0
 19 24  1  0  0  0  0
 20 21  1  0  0  0  0
 21 22  2  0  0  0  0
 22 23  1  0  0  0  0
 24 25  2  0  0  0  0
 24 26  1  0  0  0  0
 27 28  2  0  0  0  0
 28 29  1  0  0  0  0
 29 30  1  0  0  0  0
  1 31  1  0  0  0  0
  1 32  1  0  0  0  0
  1 33  1  0  0  0  0
  4 34  1  0  0  0  0
  5 35  1  0  0  0  0
  9 36  1  0  0  0  0
 11 37  1  0  0  0  0
 13 38  1  0  0  0  0
 14 39  1  0  0  0  0
 18 40  1  0  0  0  0
 20 41  1  0  0  0  0
 21 42  1  0  0  0  0
 23 43  1  0  0  0  0
 23 44  1  0  0  0  0
 23 45  1  0  0  0  0
 26 46  1  0  0  0  0
 26 47  1  0  0  0  0
 27 48  1  0  0  0  0
 30 49  1  0  0  0  0
 30 50  1  0  0  0  0
 30 51  1  0  0  0  0
M  END
> <IC50[nM]>
466

$$$$
CHEMBL3265011
  -OEChem-05192314333D
 Structure written by MMmdl.
 51 54  0     0  0  0  0  0  0999 V2000
   -4.2555   -3.1029   13.5707 C   0  0  0  0  0  0  0  0  0  0  0  0
   -3.8740   -2.3535   14.7166 O   0  0  0  0  0  0  0  0  0  0  0  0
   -2.5261   -2.1057   14.8053 C   0  0  0  0  0  0  0  0  0  0  0  0
   -1.7497   -2.8673   15.6804 C   0  0  0  0  0  0  0  0  0  0  0  0
   -0.3863   -2.6106   15.8150 C   0  0  0  0  0  0  0  0  0  0  0  0
    0.2220   -1.5829   15.0890 C   0  0  0  0  0  0  0  0  0  0  0  0
    1.5930   -1.3491   15.3060 N   0  0  0  0  0  0  0  0  0  0  0  0
    2.5452   -0.4689   14.7536 C   0  0  0  0  0  0  0  0  0  0  0  0
    2.2178    0.3551   13.7190 N   0  0  0  0  0  0  0  0  0  0  0  0
    3.1227    1.2406   13.2181 C   0  0  0  0  0  0  0  0  0  0  0  0
    4.4207    1.3039   13.7175 C   0  0  0  0  0  0  0  0  0  0  0  0
    4.7482    0.4921   14.7654 N   0  0  0  0  0  0  0  0  0  0  0  0
    5.8898    0.3836   15.5035 C   0  0  0  0  0  0  0  0  0  0  0  0
    5.5715   -0.5089   16.5177 C   0  0  0  0  0  0  0  0  0  0  0  0
    4.3818   -1.0543   16.3920 N   0  0  0  0  0  0  0  0  0  0  0  0
    3.8330   -0.4170   15.3252 C   0  0  0  0  0  0  0  0  0  0  0  0
    2.6564    2.1560   12.1340 C   0  0  0  0  0  0  0  0  0  0  0  0
    1.3140    2.5576   12.0419 C   0  0  0  0  0  0  0  0  0  0  0  0
    0.8660    3.3707   10.9895 C   0  0  0  0  0  0  0  0  0  0  0  0
    1.7879    3.8078   10.0318 C   0  0  0  0  0  0  0  0  0  0  0  0
    3.1294    3.4499   10.1277 C   0  0  0  0  0  0  0  0  0  0  0  0
    3.5566    2.6280   11.1666 C   0  0  0  0  0  0  0  0  0  0  0  0
    4.9972    2.2126   11.2105 C   0  0  0  0  0  0  0  0  0  0  0  0
   -0.5881    3.7303   10.8428 C   0  0  0  0  0  0  0  0  0  0  0  0
   -1.1092    3.7021    9.7263 O   0  0  0  0  0  0  0  0  0  0  0  0
   -1.2179    4.0963   11.9826 N   0  0  0  0  0  0  0  0  0  0  0  0
   -0.5664   -0.8256   14.2115 C   0  0  0  0  0  0  0  0  0  0  0  0
   -1.9389   -1.0760   14.0580 C   0  0  0  0  0  0  0  0  0  0  0  0
   -2.6987   -0.3081   13.1992 O   0  0  0  0  0  0  0  0  0  0  0  0
   -2.0021    0.6722   12.5223 C   0  0  0  0  0  0  0  0  0  0  0  0
   -5.3448   -3.2555   13.5777 H   0  0  0  0  0  0  0  0  0  0  0  0
   -3.9681   -2.5543   12.6616 H   0  0  0  0  0  0  0  0  0  0  0  0
   -3.7486   -4.0790   13.5856 H   0  0  0  0  0  0  0  0  0  0  0  0
   -2.2073   -3.6587   16.2555 H   0  0  0  0  0  0  0  0  0  0  0  0
    0.2066   -3.2125   16.4877 H   0  0  0  0  0  0  0  0  0  0  0  0
    1.3010    0.3089   13.3224 H   0  0  0  0  0  0  0  0  0  0  0  0
    5.1484    1.9765   13.2880 H   0  0  0  0  0  0  0  0  0  0  0  0
    6.8331    0.8820   15.3359 H   0  0  0  0  0  0  0  0  0  0  0  0
    6.2400   -0.7347   17.3354 H   0  0  0  0  0  0  0  0  0  0  0  0
    0.6121    2.2342   12.7963 H   0  0  0  0  0  0  0  0  0  0  0  0
    1.4559    4.4276    9.2120 H   0  0  0  0  0  0  0  0  0  0  0  0
    3.8383    3.8096    9.3966 H   0  0  0  0  0  0  0  0  0  0  0  0
    5.1291    1.2837   10.6363 H   0  0  0  0  0  0  0  0  0  0  0  0
    5.6209    3.0059   10.7727 H   0  0  0  0  0  0  0  0  0  0  0  0
    5.2983    2.0438   12.2549 H   0  0  0  0  0  0  0  0  0  0  0  0
   -2.0230    3.9521    9.7965 H   0  0  0  0  0  0  0  0  0  0  0  0
   -2.1721    4.3470   11.8194 H   0  0  0  0  0  0  0  0  0  0  0  0
   -0.1075   -0.0318   13.6408 H   0  0  0  0  0  0  0  0  0  0  0  0
   -2.6907    1.2262   11.8674 H   0  0  0  0  0  0  0  0  0  0  0  0
   -1.5476    1.3648   13.2459 H   0  0  0  0  0  0  0  0  0  0  0  0
   -1.2124    0.2070   11.9141 H   0  0  0  0  0  0  0  0  0  0  0  0
  1  2  1  0  0  0  0
  2  3  1  0  0  0  0
  3  4  2  0  0  0  0
  3 28  1  0  0  0  0
  4  5  1  0  0  0  0
  5  6  2  0  0  0  0
  6  7  1  0  0  0  0
  6 27  1  0  0  0  0
  7  8  2  0  0  0  0
  8  9  1  0  0  0  0
  8 16  1  0  0  0  0
  9 10  1  0  0  0  0
 10 11  2  0  0  0  0
 10 17  1  0  0  0  0
 11 12  1  0  0  0  0
 12 13  1  0  0  0  0
 12 16  1  0  0  0  0
 13 14  2  0  0  0  0
 14 15  1  0  0  0  0
 15 16  2  0  0  0  0
 17 18  2  0  0  0  0
 17 22  1  0  0  0  0
 18 19  1  0  0  0  0
 19 20  2  0  0  0  0
 19 24  1  0  0  0  0
 20 21  1  0  0  0  0
 21 22  2  0  0  0  0
 22 23  1  0  0  0  0
 24 25  1  0  0  0  0
 24 26  2  0  0  0  0
 27 28  2  0  0  0  0
 28 29  1  0  0  0  0
 29 30  1  0  0  0  0
  1 31  1  0  0  0  0
  1 32  1  0  0  0  0
  1 33  1  0  0  0  0
  4 34  1  0  0  0  0
  5 35  1  0  0  0  0
  9 36  1  0  0  0  0
 11 37  1  0  0  0  0
 13 38  1  0  0  0  0
 14 39  1  0  0  0  0
 18 40  1  0  0  0  0
 20 41  1  0  0  0  0
 21 42  1  0  0  0  0
 23 43  1  0  0  0  0
 23 44  1  0  0  0  0
 23 45  1  0  0  0  0
 25 46  1  0  0  0  0
 26 47  1  0  0  0  0
 27 48  1  0  0  0  0
 30 49  1  0  0  0  0
 30 50  1  0  0  0  0
 30 51  1  0  0  0  0
M  END
> <IC50[nM]>
466

$$$$
CHEMBL3265011
  -OEChem-05192314333D
 Structure written by MMmdl.
 51 54  0     0  0  0  0  0  0999 V2000
   -4.2555   -3.1029   13.5707 C   0  0  0  0  0  0  0  0  0  0  0  0
   -3.8740   -2.3535   14.7166 O   0  0  0  0  0  0  0  0  0  0  0  0
   -2.5261   -2.1057   14.8053 C   0  0  0  0  0  0  0  0  0  0  0  0
   -1.7497   -2.8673   15.6804 C   0  0  0  0  0  0  0  0  0  0  0  0
   -0.3863   -2.6106   15.8150 C   0  0  0  0  0  0  0  0  0  0  0  0
    0.2220   -1.5829   15.0890 C   0  0  0  0  0  0  0  0  0  0  0  0
    1.5930   -1.3491   15.3060 N   0  0  0  0  0  0  0  0  0  0  0  0
    2.5452   -0.4689   14.7536 C   0  0  0  0  0  0  0  0  0  0  0  0
    2.2178    0.3551   13.7190 N   0  0  0  0  0  0  0  0  0  0  0  0
    3.1227    1.2406   13.2181 C   0  0  0  0  0  0  0  0  0  0  0  0
    4.4207    1.3039   13.7175 C   0  0  0  0  0  0  0  0  0  0  0  0
    4.7482    0.4921   14.7654 N   0  0  0  0  0  0  0  0  0  0  0  0
    5.8898    0.3836   15.5035 C   0  0  0  0  0  0  0  0  0  0  0  0
    5.5715   -0.5089   16.5177 C   0  0  0  0  0  0  0  0  0  0  0  0
    4.3818   -1.0543   16.3920 N   0  0  0  0  0  0  0  0  0  0  0  0
    3.8330   -0.4170   15.3252 C   0  0  0  0  0  0  0  0  0  0  0  0
    2.6564    2.1560   12.1340 C   0  0  0  0  0  0  0  0  0  0  0  0
    1.3140    2.5576   12.0419 C   0  0  0  0  0  0  0  0  0  0  0  0
    0.8660    3.3707   10.9895 C   0  0  0  0  0  0  0  0  0  0  0  0
    1.7879    3.8078   10.0318 C   0  0  0  0  0  0  0  0  0  0  0  0
    3.1294    3.4499   10.1277 C   0  0  0  0  0  0  0  0  0  0  0  0
    3.5566    2.6280   11.1666 C   0  0  0  0  0  0  0  0  0  0  0  0
    4.9972    2.2126   11.2105 C   0  0  0  0  0  0  0  0  0  0  0  0
   -0.5881    3.7303   10.8428 C   0  0  0  0  0  0  0  0  0  0  0  0
   -1.1092    3.7021    9.7263 O   0  0  0  0  0  0  0  0  0  0  0  0
   -1.2179    4.0963   11.9826 N   0  0  0  0  0  0  0  0  0  0  0  0
   -0.5664   -0.8256   14.2115 C   0  0  0  0  0  0  0  0  0  0  0  0
   -1.9389   -1.0760   14.0580 C   0  0  0  0  0  0  0  0  0  0  0  0
   -2.6987   -0.3081   13.1992 O   0  0  0  0  0  0  0  0  0  0  0  0
   -2.0021    0.6722   12.5223 C   0  0  0  0  0  0  0  0  0  0  0  0
   -5.3448   -3.2555   13.5777 H   0  0  0  0  0  0  0  0  0  0  0  0
   -3.9681   -2.5543   12.6616 H   0  0  0  0  0  0  0  0  0  0  0  0
   -3.7486   -4.0790   13.5856 H   0  0  0  0  0  0  0  0  0  0  0  0
   -2.2073   -3.6587   16.2555 H   0  0  0  0  0  0  0  0  0  0  0  0
    0.2066   -3.2125   16.4877 H   0  0  0  0  0  0  0  0  0  0  0  0
    5.1014    1.0581   12.8891 H   0  0  0  0  0  0  0  0  0  0  0  0
    4.5958    2.3407   14.0407 H   0  0  0  0  0  0  0  0  0  0  0  0
    6.8331    0.8820   15.3359 H   0  0  0  0  0  0  0  0  0  0  0  0
    6.2400   -0.7347   17.3354 H   0  0  0  0  0  0  0  0  0  0  0  0
    0.6121    2.2342   12.7963 H   0  0  0  0  0  0  0  0  0  0  0  0
    1.4559    4.4276    9.2120 H   0  0  0  0  0  0  0  0  0  0  0  0
    3.8383    3.8096    9.3966 H   0  0  0  0  0  0  0  0  0  0  0  0
    5.1291    1.2837   10.6363 H   0  0  0  0  0  0  0  0  0  0  0  0
    5.6209    3.0059   10.7727 H   0  0  0  0  0  0  0  0  0  0  0  0
    5.2983    2.0438   12.2549 H   0  0  0  0  0  0  0  0  0  0  0  0
   -2.1790    4.3711   11.9567 H   0  0  0  0  0  0  0  0  0  0  0  0
   -0.7223    4.0921   12.8512 H   0  0  0  0  0  0  0  0  0  0  0  0
   -0.1075   -0.0318   13.6408 H   0  0  0  0  0  0  0  0  0  0  0  0
   -2.6907    1.2262   11.8674 H   0  0  0  0  0  0  0  0  0  0  0  0
   -1.5476    1.3648   13.2459 H   0  0  0  0  0  0  0  0  0  0  0  0
   -1.2124    0.2070   11.9141 H   0  0  0  0  0  0  0  0  0  0  0  0
  1  2  1  0  0  0  0
  2  3  1  0  0  0  0
  3  4  2  0  0  0  0
  3 28  1  0  0  0  0
  4  5  1  0  0  0  0
  5  6  2  0  0  0  0
  6  7  1  0  0  0  0
  6 27  1  0  0  0  0
  7  8  2  0  0  0  0
  8  9  1  0  0  0  0
  8 16  1  0  0  0  0
  9 10  2  0  0  0  0
 10 11  1  0  0  0  0
 10 17  1  0  0  0  0
 11 12  1  0  0  0  0
 12 13  1  0  0  0  0
 12 16  1  0  0  0  0
 13 14  2  0  0  0  0
 14 15  1  0  0  0  0
 15 16  2  0  0  0  0
 17 18  2  0  0  0  0
 17 22  1  0  0  0  0
 18 19  1  0  0  0  0
 19 20  2  0  0  0  0
 19 24  1  0  0  0  0
 20 21  1  0  0  0  0
 21 22  2  0  0  0  0
 22 23  1  0  0  0  0
 24 25  2  0  0  0  0
 24 26  1  0  0  0  0
 27 28  2  0  0  0  0
 28 29  1  0  0  0  0
 29 30  1  0  0  0  0
  1 31  1  0  0  0  0
  1 32  1  0  0  0  0
  1 33  1  0  0  0  0
  4 34  1  0  0  0  0
  5 35  1  0  0  0  0
 11 36  1  0  0  0  0
 11 37  1  0  0  0  0
 13 38  1  0  0  0  0
 14 39  1  0  0  0  0
 18 40  1  0  0  0  0
 20 41  1  0  0  0  0
 21 42  1  0  0  0  0
 23 43  1  0  0  0  0
 23 44  1  0  0  0  0
 23 45  1  0  0  0  0
 26 46  1  0  0  0  0
 26 47  1  0  0  0  0
 27 48  1  0  0  0  0
 30 49  1  0  0  0  0
 30 50  1  0  0  0  0
 30 51  1  0  0  0  0
M  END
> <IC50[nM]>
466

$$$$
CHEMBL3265011
  -OEChem-05192314333D
 Structure written by MMmdl.
 51 54  0     0  0  0  0  0  0999 V2000
   -4.2555   -3.1029   13.5707 C   0  0  0  0  0  0  0  0  0  0  0  0
   -3.8740   -2.3535   14.7166 O   0  0  0  0  0  0  0  0  0  0  0  0
   -2.5261   -2.1057   14.8053 C   0  0  0  0  0  0  0  0  0  0  0  0
   -1.7497   -2.8673   15.6804 C   0  0  0  0  0  0  0  0  0  0  0  0
   -0.3863   -2.6106   15.8150 C   0  0  0  0  0  0  0  0  0  0  0  0
    0.2220   -1.5829   15.0890 C   0  0  0  0  0  0  0  0  0  0  0  0
    1.5930   -1.3491   15.3060 N   0  0  0  0  0  0  0  0  0  0  0  0
    2.5452   -0.4689   14.7536 C   0  0  0  0  0  0  0  0  0  0  0  0
    2.2178    0.3551   13.7190 N   0  0  0  0  0  0  0  0  0  0  0  0
    3.1227    1.2406   13.2181 C   0  0  0  0  0  0  0  0  0  0  0  0
    4.4207    1.3039   13.7175 C   0  0  0  0  0  0  0  0  0  0  0  0
    4.7482    0.4921   14.7654 N   0  0  0  0  0  0  0  0  0  0  0  0
    5.8898    0.3836   15.5035 C   0  0  0  0  0  0  0  0  0  0  0  0
    5.5715   -0.5089   16.5177 C   0  0  0  0  0  0  0  0  0  0  0  0
    4.3818   -1.0543   16.3920 N   0  0  0  0  0  0  0  0  0  0  0  0
    3.8330   -0.4170   15.3252 C   0  0  0  0  0  0  0  0  0  0  0  0
    2.6564    2.1560   12.1340 C   0  0  0  0  0  0  0  0  0  0  0  0
    1.3140    2.5576   12.0419 C   0  0  0  0  0  0  0  0  0  0  0  0
    0.8660    3.3707   10.9895 C   0  0  0  0  0  0  0  0  0  0  0  0
    1.7879    3.8078   10.0318 C   0  0  0  0  0  0  0  0  0  0  0  0
    3.1294    3.4499   10.1277 C   0  0  0  0  0  0  0  0  0  0  0  0
    3.5566    2.6280   11.1666 C   0  0  0  0  0  0  0  0  0  0  0  0
    4.9972    2.2126   11.2105 C   0  0  0  0  0  0  0  0  0  0  0  0
   -0.5881    3.7303   10.8428 C   0  0  0  0  0  0  0  0  0  0  0  0
   -1.1092    3.7021    9.7263 O   0  0  0  0  0  0  0  0  0  0  0  0
   -1.2179    4.0963   11.9826 N   0  0  0  0  0  0  0  0  0  0  0  0
   -0.5664   -0.8256   14.2115 C   0  0  0  0  0  0  0  0  0  0  0  0
   -1.9389   -1.0760   14.0580 C   0  0  0  0  0  0  0  0  0  0  0  0
   -2.6987   -0.3081   13.1992 O   0  0  0  0  0  0  0  0  0  0  0  0
   -2.0021    0.6722   12.5223 C   0  0  0  0  0  0  0  0  0  0  0  0
   -5.3448   -3.2555   13.5777 H   0  0  0  0  0  0  0  0  0  0  0  0
   -3.9681   -2.5543   12.6616 H   0  0  0  0  0  0  0  0  0  0  0  0
   -3.7486   -4.0790   13.5856 H   0  0  0  0  0  0  0  0  0  0  0  0
   -2.2073   -3.6587   16.2555 H   0  0  0  0  0  0  0  0  0  0  0  0
    0.2066   -3.2125   16.4877 H   0  0  0  0  0  0  0  0  0  0  0  0
    5.1014    1.0581   12.8891 H   0  0  0  0  0  0  0  0  0  0  0  0
    4.5958    2.3407   14.0407 H   0  0  0  0  0  0  0  0  0  0  0  0
    6.8331    0.8820   15.3359 H   0  0  0  0  0  0  0  0  0  0  0  0
    6.2400   -0.7347   17.3354 H   0  0  0  0  0  0  0  0  0  0  0  0
    0.6121    2.2342   12.7963 H   0  0  0  0  0  0  0  0  0  0  0  0
    1.4559    4.4276    9.2120 H   0  0  0  0  0  0  0  0  0  0  0  0
    3.8383    3.8096    9.3966 H   0  0  0  0  0  0  0  0  0  0  0  0
    5.1291    1.2837   10.6363 H   0  0  0  0  0  0  0  0  0  0  0  0
    5.6209    3.0059   10.7727 H   0  0  0  0  0  0  0  0  0  0  0  0
    5.2983    2.0438   12.2549 H   0  0  0  0  0  0  0  0  0  0  0  0
   -2.0230    3.9521    9.7965 H   0  0  0  0  0  0  0  0  0  0  0  0
   -2.1721    4.3470   11.8194 H   0  0  0  0  0  0  0  0  0  0  0  0
   -0.1075   -0.0318   13.6408 H   0  0  0  0  0  0  0  0  0  0  0  0
   -2.6907    1.2262   11.8674 H   0  0  0  0  0  0  0  0  0  0  0  0
   -1.5476    1.3648   13.2459 H   0  0  0  0  0  0  0  0  0  0  0  0
   -1.2124    0.2070   11.9141 H   0  0  0  0  0  0  0  0  0  0  0  0
  1  2  1  0  0  0  0
  2  3  1  0  0  0  0
  3  4  2  0  0  0  0
  3 28  1  0  0  0  0
  4  5  1  0  0  0  0
  5  6  2  0  0  0  0
  6  7  1  0  0  0  0
  6 27  1  0  0  0  0
  7  8  2  0  0  0  0
  8  9  1  0  0  0  0
  8 16  1  0  0  0  0
  9 10  2  0  0  0  0
 10 11  1  0  0  0  0
 10 17  1  0  0  0  0
 11 12  1  0  0  0  0
 12 13  1  0  0  0  0
 12 16  1  0  0  0  0
 13 14  2  0  0  0  0
 14 15  1  0  0  0  0
 15 16  2  0  0  0  0
 17 18  2  0  0  0  0
 17 22  1  0  0  0  0
 18 19  1  0  0  0  0
 19 20  2  0  0  0  0
 19 24  1  0  0  0  0
 20 21  1  0  0  0  0
 21 22  2  0  0  0  0
 22 23  1  0  0  0  0
 24 25  1  0  0  0  0
 24 26  2  0  0  0  0
 27 28  2  0  0  0  0
 28 29  1  0  0  0  0
 29 30  1  0  0  0  0
  1 31  1  0  0  0  0
  1 32  1  0  0  0  0
  1 33  1  0  0  0  0
  4 34  1  0  0  0  0
  5 35  1  0  0  0  0
 11 36  1  0  0  0  0
 11 37  1  0  0  0  0
 13 38  1  0  0  0  0
 14 39  1  0  0  0  0
 18 40  1  0  0  0  0
 20 41  1  0  0  0  0
 21 42  1  0  0  0  0
 23 43  1  0  0  0  0
 23 44  1  0  0  0  0
 23 45  1  0  0  0  0
 25 46  1  0  0  0  0
 26 47  1  0  0  0  0
 27 48  1  0  0  0  0
 30 49  1  0  0  0  0
 30 50  1  0  0  0  0
 30 51  1  0  0  0  0
M  END
> <IC50[nM]>
466

$$$$
CHEMBL3265011
  -OEChem-05192314333D
 Structure written by MMmdl.
 51 54  0     1  0  0  0  0  0999 V2000
   -4.2555   -3.1029   13.5707 C   0  0  0  0  0  0  0  0  0  0  0  0
   -3.8740   -2.3535   14.7166 O   0  0  0  0  0  0  0  0  0  0  0  0
   -2.5261   -2.1057   14.8053 C   0  0  3  0  0  0  0  0  0  0  0  0
   -1.7497   -2.8673   15.6804 C   0  0  0  0  0  0  0  0  0  0  0  0
   -0.3863   -2.6106   15.8150 C   0  0  0  0  0  0  0  0  0  0  0  0
    0.2220   -1.5829   15.0890 C   0  0  0  0  0  0  0  0  0  0  0  0
    1.5930   -1.3491   15.3060 N   0  0  0  0  0  0  0  0  0  0  0  0
    2.5452   -0.4689   14.7536 C   0  0  0  0  0  0  0  0  0  0  0  0
    2.2178    0.3551   13.7190 N   0  0  0  0  0  0  0  0  0  0  0  0
    3.1227    1.2406   13.2181 C   0  0  0  0  0  0  0  0  0  0  0  0
    4.4207    1.3039   13.7175 C   0  0  0  0  0  0  0  0  0  0  0  0
    4.7482    0.4921   14.7654 N   0  0  0  0  0  0  0  0  0  0  0  0
    5.8898    0.3836   15.5035 C   0  0  0  0  0  0  0  0  0  0  0  0
    5.5715   -0.5089   16.5177 C   0  0  0  0  0  0  0  0  0  0  0  0
    4.3818   -1.0543   16.3920 N   0  0  0  0  0  0  0  0  0  0  0  0
    3.8330   -0.4170   15.3252 C   0  0  0  0  0  0  0  0  0  0  0  0
    2.6564    2.1560   12.1340 C   0  0  0  0  0  0  0  0  0  0  0  0
    1.3140    2.5576   12.0419 C   0  0  0  0  0  0  0  0  0  0  0  0
    0.8660    3.3707   10.9895 C   0  0  0  0  0  0  0  0  0  0  0  0
    1.7879    3.8078   10.0318 C   0  0  0  0  0  0  0  0  0  0  0  0
    3.1294    3.4499   10.1277 C   0  0  0  0  0  0  0  0  0  0  0  0
    3.5566    2.6280   11.1666 C   0  0  0  0  0  0  0  0  0  0  0  0
    4.9972    2.2126   11.2105 C   0  0  0  0  0  0  0  0  0  0  0  0
   -0.5881    3.7303   10.8428 C   0  0  0  0  0  0  0  0  0  0  0  0
   -1.1092    3.7021    9.7263 O   0  0  0  0  0  0  0  0  0  0  0  0
   -1.2179    4.0963   11.9826 N   0  0  0  0  0  0  0  0  0  0  0  0
   -0.5664   -0.8256   14.2115 C   0  0  0  0  0  0  0  0  0  0  0  0
   -1.9389   -1.0760   14.0580 C   0  0  0  0  0  0  0  0  0  0  0  0
   -2.6987   -0.3081   13.1992 O   0  0  0  0  0  0  0  0  0  0  0  0
   -2.0021    0.6722   12.5223 C   0  0  0  0  0  0  0  0  0  0  0  0
   -5.3448   -3.2555   13.5777 H   0  0  0  0  0  0  0  0  0  0  0  0
   -3.9681   -2.5543   12.6616 H   0  0  0  0  0  0  0  0  0  0  0  0
   -3.7486   -4.0790   13.5856 H   0  0  0  0  0  0  0  0  0  0  0  0
   -2.3305   -2.8209   13.9928 H   0  0  0  0  0  0  0  0  0  0  0  0
   -2.2073   -3.6587   16.2555 H   0  0  0  0  0  0  0  0  0  0  0  0
    0.2066   -3.2125   16.4877 H   0  0  0  0  0  0  0  0  0  0  0  0
    5.1484    1.9765   13.2880 H   0  0  0  0  0  0  0  0  0  0  0  0
    6.8331    0.8820   15.3359 H   0  0  0  0  0  0  0  0  0  0  0  0
    6.2400   -0.7347   17.3354 H   0  0  0  0  0  0  0  0  0  0  0  0
    0.6121    2.2342   12.7963 H   0  0  0  0  0  0  0  0  0  0  0  0
    1.4559    4.4276    9.2120 H   0  0  0  0  0  0  0  0  0  0  0  0
    3.8383    3.8096    9.3966 H   0  0  0  0  0  0  0  0  0  0  0  0
    5.1291    1.2837   10.6363 H   0  0  0  0  0  0  0  0  0  0  0  0
    5.6209    3.0059   10.7727 H   0  0  0  0  0  0  0  0  0  0  0  0
    5.2983    2.0438   12.2549 H   0  0  0  0  0  0  0  0  0  0  0  0
   -2.1790    4.3711   11.9567 H   0  0  0  0  0  0  0  0  0  0  0  0
   -0.7223    4.0921   12.8512 H   0  0  0  0  0  0  0  0  0  0  0  0
   -0.1075   -0.0318   13.6408 H   0  0  0  0  0  0  0  0  0  0  0  0
   -2.6907    1.2262   11.8674 H   0  0  0  0  0  0  0  0  0  0  0  0
   -1.5476    1.3648   13.2459 H   0  0  0  0  0  0  0  0  0  0  0  0
   -1.2124    0.2070   11.9141 H   0  0  0  0  0  0  0  0  0  0  0  0
  1  2  1  0  0  0  0
  2  3  1  0  0  0  0
  3  4  1  0  0  0  0
  3 28  1  0  0  0  0
  4  5  2  0  0  0  0
  5  6  1  0  0  0  0
  6  7  2  0  0  0  0
  6 27  1  0  0  0  0
  7  8  1  0  0  0  0
  8  9  2  0  0  0  0
  8 16  1  0  0  0  0
  9 10  1  0  0  0  0
 10 11  2  0  0  0  0
 10 17  1  0  0  0  0
 11 12  1  0  0  0  0
 12 13  1  0  0  0  0
 12 16  1  0  0  0  0
 13 14  2  0  0  0  0
 14 15  1  0  0  0  0
 15 16  2  0  0  0  0
 17 18  2  0  0  0  0
 17 22  1  0  0  0  0
 18 19  1  0  0  0  0
 19 20  2  0  0  0  0
 19 24  1  0  0  0  0
 20 21  1  0  0  0  0
 21 22  2  0  0  0  0
 22 23  1  0  0  0  0
 24 25  2  0  0  0  0
 24 26  1  0  0  0  0
 27 28  2  0  0  0  0
 28 29  1  0  0  0  0
 29 30  1  0  0  0  0
  1 31  1  0  0  0  0
  1 32  1  0  0  0  0
  1 33  1  0  0  0  0
  3 34  1  0  0  0  0
  4 35  1  0  0  0  0
  5 36  1  0  0  0  0
 11 37  1  0  0  0  0
 13 38  1  0  0  0  0
 14 39  1  0  0  0  0
 18 40  1  0  0  0  0
 20 41  1  0  0  0  0
 21 42  1  0  0  0  0
 23 43  1  0  0  0  0
 23 44  1  0  0  0  0
 23 45  1  0  0  0  0
 26 46  1  0  0  0  0
 26 47  1  0  0  0  0
 27 48  1  0  0  0  0
 30 49  1  0  0  0  0
 30 50  1  0  0  0  0
 30 51  1  0  0  0  0
M  END
> <IC50[nM]>
466

$$$$
CHEMBL3265011
  -OEChem-05192314333D
 Structure written by MMmdl.
 51 54  0     0  0  0  0  0  0999 V2000
   -4.2555   -3.1029   13.5707 C   0  0  0  0  0  0  0  0  0  0  0  0
   -3.8740   -2.3535   14.7166 O   0  0  0  0  0  0  0  0  0  0  0  0
   -2.5261   -2.1057   14.8053 C   0  0  0  0  0  0  0  0  0  0  0  0
   -1.7497   -2.8673   15.6804 C   0  0  0  0  0  0  0  0  0  0  0  0
   -0.3863   -2.6106   15.8150 C   0  0  0  0  0  0  0  0  0  0  0  0
    0.2220   -1.5829   15.0890 C   0  0  0  0  0  0  0  0  0  0  0  0
    1.5930   -1.3491   15.3060 N   0  0  0  0  0  0  0  0  0  0  0  0
    2.5452   -0.4689   14.7536 C   0  0  0  0  0  0  0  0  0  0  0  0
    2.2178    0.3551   13.7190 N   0  0  0  0  0  0  0  0  0  0  0  0
    3.1227    1.2406   13.2181 C   0  0  0  0  0  0  0  0  0  0  0  0
    4.4207    1.3039   13.7175 C   0  0  0  0  0  0  0  0  0  0  0  0
    4.7482    0.4921   14.7654 N   0  0  0  0  0  0  0  0  0  0  0  0
    5.8898    0.3836   15.5035 C   0  0  0  0  0  0  0  0  0  0  0  0
    5.5715   -0.5089   16.5177 C   0  0  0  0  0  0  0  0  0  0  0  0
    4.3818   -1.0543   16.3920 N   0  0  0  0  0  0  0  0  0  0  0  0
    3.8330   -0.4170   15.3252 C   0  0  0  0  0  0  0  0  0  0  0  0
    2.6564    2.1560   12.1340 C   0  0  0  0  0  0  0  0  0  0  0  0
    1.3140    2.5576   12.0419 C   0  0  0  0  0  0  0  0  0  0  0  0
    0.8660    3.3707   10.9895 C   0  0  0  0  0  0  0  0  0  0  0  0
    1.7879    3.8078   10.0318 C   0  0  0  0  0  0  0  0  0  0  0  0
    3.1294    3.4499   10.1277 C   0  0  0  0  0  0  0  0  0  0  0  0
    3.5566    2.6280   11.1666 C   0  0  0  0  0  0  0  0  0  0  0  0
    4.9972    2.2126   11.2105 C   0  0  0  0  0  0  0  0  0  0  0  0
   -0.5881    3.7303   10.8428 C   0  0  0  0  0  0  0  0  0  0  0  0
   -1.1092    3.7021    9.7263 O   0  0  0  0  0  0  0  0  0  0  0  0
   -1.2179    4.0963   11.9826 N   0  0  0  0  0  0  0  0  0  0  0  0
   -0.5664   -0.8256   14.2115 C   0  0  0  0  0  0  0  0  0  0  0  0
   -1.9389   -1.0760   14.0580 C   0  0  0  0  0  0  0  0  0  0  0  0
   -2.6987   -0.3081   13.1992 O   0  0  0  0  0  0  0  0  0  0  0  0
   -2.0021    0.6722   12.5223 C   0  0  0  0  0  0  0  0  0  0  0  0
   -5.3448   -3.2555   13.5777 H   0  0  0  0  0  0  0  0  0  0  0  0
   -3.9681   -2.5543   12.6616 H   0  0  0  0  0  0  0  0  0  0  0  0
   -3.7486   -4.0790   13.5856 H   0  0  0  0  0  0  0  0  0  0  0  0
   -2.2073   -3.6587   16.2555 H   0  0  0  0  0  0  0  0  0  0  0  0
   -0.2118   -2.3897   16.8784 H   0  0  0  0  0  0  0  0  0  0  0  0
    0.1365   -3.5394   15.5428 H   0  0  0  0  0  0  0  0  0  0  0  0
    5.1484    1.9765   13.2880 H   0  0  0  0  0  0  0  0  0  0  0  0
    6.8331    0.8820   15.3359 H   0  0  0  0  0  0  0  0  0  0  0  0
    6.2400   -0.7347   17.3354 H   0  0  0  0  0  0  0  0  0  0  0  0
    0.6121    2.2342   12.7963 H   0  0  0  0  0  0  0  0  0  0  0  0
    1.4559    4.4276    9.2120 H   0  0  0  0  0  0  0  0  0  0  0  0
    3.8383    3.8096    9.3966 H   0  0  0  0  0  0  0  0  0  0  0  0
    5.1291    1.2837   10.6363 H   0  0  0  0  0  0  0  0  0  0  0  0
    5.6209    3.0059   10.7727 H   0  0  0  0  0  0  0  0  0  0  0  0
    5.2983    2.0438   12.2549 H   0  0  0  0  0  0  0  0  0  0  0  0
   -2.1790    4.3711   11.9567 H   0  0  0  0  0  0  0  0  0  0  0  0
   -0.7223    4.0921   12.8512 H   0  0  0  0  0  0  0  0  0  0  0  0
   -0.1075   -0.0318   13.6408 H   0  0  0  0  0  0  0  0  0  0  0  0
   -2.6907    1.2262   11.8674 H   0  0  0  0  0  0  0  0  0  0  0  0
   -1.5476    1.3648   13.2459 H   0  0  0  0  0  0  0  0  0  0  0  0
   -1.2124    0.2070   11.9141 H   0  0  0  0  0  0  0  0  0  0  0  0
  1  2  1  0  0  0  0
  2  3  1  0  0  0  0
  3  4  2  0  0  0  0
  3 28  1  0  0  0  0
  4  5  1  0  0  0  0
  5  6  1  0  0  0  0
  6  7  2  0  0  0  0
  6 27  1  0  0  0  0
  7  8  1  0  0  0  0
  8  9  2  0  0  0  0
  8 16  1  0  0  0  0
  9 10  1  0  0  0  0
 10 11  2  0  0  0  0
 10 17  1  0  0  0  0
 11 12  1  0  0  0  0
 12 13  1  0  0  0  0
 12 16  1  0  0  0  0
 13 14  2  0  0  0  0
 14 15  1  0  0  0  0
 15 16  2  0  0  0  0
 17 18  2  0  0  0  0
 17 22  1  0  0  0  0
 18 19  1  0  0  0  0
 19 20  2  0  0  0  0
 19 24  1  0  0  0  0
 20 21  1  0  0  0  0
 21 22  2  0  0  0  0
 22 23  1  0  0  0  0
 24 25  2  0  0  0  0
 24 26  1  0  0  0  0
 27 28  2  0  0  0  0
 28 29  1  0  0  0  0
 29 30  1  0  0  0  0
  1 31  1  0  0  0  0
  1 32  1  0  0  0  0
  1 33  1  0  0  0  0
  4 34  1  0  0  0  0
  5 35  1  0  0  0  0
  5 36  1  0  0  0  0
 11 37  1  0  0  0  0
 13 38  1  0  0  0  0
 14 39  1  0  0  0  0
 18 40  1  0  0  0  0
 20 41  1  0  0  0  0
 21 42  1  0  0  0  0
 23 43  1  0  0  0  0
 23 44  1  0  0  0  0
 23 45  1  0  0  0  0
 26 46  1  0  0  0  0
 26 47  1  0  0  0  0
 27 48  1  0  0  0  0
 30 49  1  0  0  0  0
 30 50  1  0  0  0  0
 30 51  1  0  0  0  0
M  END
> <IC50[nM]>
466

$$$$
CHEMBL3265011
  -OEChem-05192314333D
 Structure written by MMmdl.
 51 54  0     0  0  0  0  0  0999 V2000
   -4.2555   -3.1029   13.5707 C   0  0  0  0  0  0  0  0  0  0  0  0
   -3.8740   -2.3535   14.7166 O   0  0  0  0  0  0  0  0  0  0  0  0
   -2.5261   -2.1057   14.8053 C   0  0  0  0  0  0  0  0  0  0  0  0
   -1.7497   -2.8673   15.6804 C   0  0  0  0  0  0  0  0  0  0  0  0
   -0.3863   -2.6106   15.8150 C   0  0  0  0  0  0  0  0  0  0  0  0
    0.2220   -1.5829   15.0890 C   0  0  0  0  0  0  0  0  0  0  0  0
    1.5930   -1.3491   15.3060 N   0  0  0  0  0  0  0  0  0  0  0  0
    2.5452   -0.4689   14.7536 C   0  0  0  0  0  0  0  0  0  0  0  0
    2.2178    0.3551   13.7190 N   0  0  0  0  0  0  0  0  0  0  0  0
    3.1227    1.2406   13.2181 C   0  0  0  0  0  0  0  0  0  0  0  0
    4.4207    1.3039   13.7175 C   0  0  0  0  0  0  0  0  0  0  0  0
    4.7482    0.4921   14.7654 N   0  0  0  0  0  0  0  0  0  0  0  0
    5.8898    0.3836   15.5035 C   0  0  0  0  0  0  0  0  0  0  0  0
    5.5715   -0.5089   16.5177 C   0  0  0  0  0  0  0  0  0  0  0  0
    4.3818   -1.0543   16.3920 N   0  0  0  0  0  0  0  0  0  0  0  0
    3.8330   -0.4170   15.3252 C   0  0  0  0  0  0  0  0  0  0  0  0
    2.6564    2.1560   12.1340 C   0  0  0  0  0  0  0  0  0  0  0  0
    1.3140    2.5576   12.0419 C   0  0  0  0  0  0  0  0  0  0  0  0
    0.8660    3.3707   10.9895 C   0  0  0  0  0  0  0  0  0  0  0  0
    1.7879    3.8078   10.0318 C   0  0  0  0  0  0  0  0  0  0  0  0
    3.1294    3.4499   10.1277 C   0  0  0  0  0  0  0  0  0  0  0  0
    3.5566    2.6280   11.1666 C   0  0  0  0  0  0  0  0  0  0  0  0
    4.9972    2.2126   11.2105 C   0  0  0  0  0  0  0  0  0  0  0  0
   -0.5881    3.7303   10.8428 C   0  0  0  0  0  0  0  0  0  0  0  0
   -1.1092    3.7021    9.7263 O   0  0  0  0  0  0  0  0  0  0  0  0
   -1.2179    4.0963   11.9826 N   0  0  0  0  0  0  0  0  0  0  0  0
   -0.5664   -0.8256   14.2115 C   0  0  0  0  0  0  0  0  0  0  0  0
   -1.9389   -1.0760   14.0580 C   0  0  0  0  0  0  0  0  0  0  0  0
   -2.6987   -0.3081   13.1992 O   0  0  0  0  0  0  0  0  0  0  0  0
   -2.0021    0.6722   12.5223 C   0  0  0  0  0  0  0  0  0  0  0  0
   -5.3448   -3.2555   13.5777 H   0  0  0  0  0  0  0  0  0  0  0  0
   -3.9681   -2.5543   12.6616 H   0  0  0  0  0  0  0  0  0  0  0  0
   -3.7486   -4.0790   13.5856 H   0  0  0  0  0  0  0  0  0  0  0  0
   -2.2073   -3.6587   16.2555 H   0  0  0  0  0  0  0  0  0  0  0  0
    0.2066   -3.2125   16.4877 H   0  0  0  0  0  0  0  0  0  0  0  0
    5.1484    1.9765   13.2880 H   0  0  0  0  0  0  0  0  0  0  0  0
    6.8331    0.8820   15.3359 H   0  0  0  0  0  0  0  0  0  0  0  0
    6.2400   -0.7347   17.3354 H   0  0  0  0  0  0  0  0  0  0  0  0
    0.6121    2.2342   12.7963 H   0  0  0  0  0  0  0  0  0  0  0  0
    1.4559    4.4276    9.2120 H   0  0  0  0  0  0  0  0  0  0  0  0
    3.8383    3.8096    9.3966 H   0  0  0  0  0  0  0  0  0  0  0  0
    5.1291    1.2837   10.6363 H   0  0  0  0  0  0  0  0  0  0  0  0
    5.6209    3.0059   10.7727 H   0  0  0  0  0  0  0  0  0  0  0  0
    5.2983    2.0438   12.2549 H   0  0  0  0  0  0  0  0  0  0  0  0
   -2.1790    4.3711   11.9567 H   0  0  0  0  0  0  0  0  0  0  0  0
   -0.7223    4.0921   12.8512 H   0  0  0  0  0  0  0  0  0  0  0  0
   -0.4764    0.2210   14.5379 H   0  0  0  0  0  0  0  0  0  0  0  0
   -0.1167   -0.9386   13.2140 H   0  0  0  0  0  0  0  0  0  0  0  0
   -2.6907    1.2262   11.8674 H   0  0  0  0  0  0  0  0  0  0  0  0
   -1.5476    1.3648   13.2459 H   0  0  0  0  0  0  0  0  0  0  0  0
   -1.2124    0.2070   11.9141 H   0  0  0  0  0  0  0  0  0  0  0  0
  1  2  1  0  0  0  0
  2  3  1  0  0  0  0
  3  4  1  0  0  0  0
  3 28  2  0  0  0  0
  4  5  2  0  0  0  0
  5  6  1  0  0  0  0
  6  7  2  0  0  0  0
  6 27  1  0  0  0  0
  7  8  1  0  0  0  0
  8  9  2  0  0  0  0
  8 16  1  0  0  0  0
  9 10  1  0  0  0  0
 10 11  2  0  0  0  0
 10 17  1  0  0  0  0
 11 12  1  0  0  0  0
 12 13  1  0  0  0  0
 12 16  1  0  0  0  0
 13 14  2  0  0  0  0
 14 15  1  0  0  0  0
 15 16  2  0  0  0  0
 17 18  2  0  0  0  0
 17 22  1  0  0  0  0
 18 19  1  0  0  0  0
 19 20  2  0  0  0  0
 19 24  1  0  0  0  0
 20 21  1  0  0  0  0
 21 22  2  0  0  0  0
 22 23  1  0  0  0  0
 24 25  2  0  0  0  0
 24 26  1  0  0  0  0
 27 28  1  0  0  0  0
 28 29  1  0  0  0  0
 29 30  1  0  0  0  0
  1 31  1  0  0  0  0
  1 32  1  0  0  0  0
  1 33  1  0  0  0  0
  4 34  1  0  0  0  0
  5 35  1  0  0  0  0
 11 36  1  0  0  0  0
 13 37  1  0  0  0  0
 14 38  1  0  0  0  0
 18 39  1  0  0  0  0
 20 40  1  0  0  0  0
 21 41  1  0  0  0  0
 23 42  1  0  0  0  0
 23 43  1  0  0  0  0
 23 44  1  0  0  0  0
 26 45  1  0  0  0  0
 26 46  1  0  0  0  0
 27 47  1  0  0  0  0
 27 48  1  0  0  0  0
 30 49  1  0  0  0  0
 30 50  1  0  0  0  0
 30 51  1  0  0  0  0
M  END
> <IC50[nM]>
466

$$$$
CHEMBL3265011
  -OEChem-05192314333D
 Structure written by MMmdl.
 51 54  0     1  0  0  0  0  0999 V2000
   -4.2555   -3.1029   13.5707 C   0  0  0  0  0  0  0  0  0  0  0  0
   -3.8740   -2.3535   14.7166 O   0  0  0  0  0  0  0  0  0  0  0  0
   -2.5261   -2.1057   14.8053 C   0  0  3  0  0  0  0  0  0  0  0  0
   -1.7497   -2.8673   15.6804 C   0  0  0  0  0  0  0  0  0  0  0  0
   -0.3863   -2.6106   15.8150 C   0  0  0  0  0  0  0  0  0  0  0  0
    0.2220   -1.5829   15.0890 C   0  0  0  0  0  0  0  0  0  0  0  0
    1.5930   -1.3491   15.3060 N   0  0  0  0  0  0  0  0  0  0  0  0
    2.5452   -0.4689   14.7536 C   0  0  0  0  0  0  0  0  0  0  0  0
    2.2178    0.3551   13.7190 N   0  0  0  0  0  0  0  0  0  0  0  0
    3.1227    1.2406   13.2181 C   0  0  0  0  0  0  0  0  0  0  0  0
    4.4207    1.3039   13.7175 C   0  0  0  0  0  0  0  0  0  0  0  0
    4.7482    0.4921   14.7654 N   0  0  0  0  0  0  0  0  0  0  0  0
    5.8898    0.3836   15.5035 C   0  0  0  0  0  0  0  0  0  0  0  0
    5.5715   -0.5089   16.5177 C   0  0  0  0  0  0  0  0  0  0  0  0
    4.3818   -1.0543   16.3920 N   0  0  0  0  0  0  0  0  0  0  0  0
    3.8330   -0.4170   15.3252 C   0  0  0  0  0  0  0  0  0  0  0  0
    2.6564    2.1560   12.1340 C   0  0  0  0  0  0  0  0  0  0  0  0
    1.3140    2.5576   12.0419 C   0  0  0  0  0  0  0  0  0  0  0  0
    0.8660    3.3707   10.9895 C   0  0  0  0  0  0  0  0  0  0  0  0
    1.7879    3.8078   10.0318 C   0  0  0  0  0  0  0  0  0  0  0  0
    3.1294    3.4499   10.1277 C   0  0  0  0  0  0  0  0  0  0  0  0
    3.5566    2.6280   11.1666 C   0  0  0  0  0  0  0  0  0  0  0  0
    4.9972    2.2126   11.2105 C   0  0  0  0  0  0  0  0  0  0  0  0
   -0.5881    3.7303   10.8428 C   0  0  0  0  0  0  0  0  0  0  0  0
   -1.1092    3.7021    9.7263 O   0  0  0  0  0  0  0  0  0  0  0  0
   -1.2179    4.0963   11.9826 N   0  0  0  0  0  0  0  0  0  0  0  0
   -0.5664   -0.8256   14.2115 C   0  0  0  0  0  0  0  0  0  0  0  0
   -1.9389   -1.0760   14.0580 C   0  0  0  0  0  0  0  0  0  0  0  0
   -2.6987   -0.3081   13.1992 O   0  0  0  0  0  0  0  0  0  0  0  0
   -2.0021    0.6722   12.5223 C   0  0  0  0  0  0  0  0  0  0  0  0
   -5.3448   -3.2555   13.5777 H   0  0  0  0  0  0  0  0  0  0  0  0
   -3.9681   -2.5543   12.6616 H   0  0  0  0  0  0  0  0  0  0  0  0
   -3.7486   -4.0790   13.5856 H   0  0  0  0  0  0  0  0  0  0  0  0
   -2.3305   -2.8209   13.9928 H   0  0  0  0  0  0  0  0  0  0  0  0
   -2.2073   -3.6587   16.2555 H   0  0  0  0  0  0  0  0  0  0  0  0
    0.2066   -3.2125   16.4877 H   0  0  0  0  0  0  0  0  0  0  0  0
    5.1484    1.9765   13.2880 H   0  0  0  0  0  0  0  0  0  0  0  0
    6.8331    0.8820   15.3359 H   0  0  0  0  0  0  0  0  0  0  0  0
    6.2400   -0.7347   17.3354 H   0  0  0  0  0  0  0  0  0  0  0  0
    0.6121    2.2342   12.7963 H   0  0  0  0  0  0  0  0  0  0  0  0
    1.4559    4.4276    9.2120 H   0  0  0  0  0  0  0  0  0  0  0  0
    3.8383    3.8096    9.3966 H   0  0  0  0  0  0  0  0  0  0  0  0
    5.1291    1.2837   10.6363 H   0  0  0  0  0  0  0  0  0  0  0  0
    5.6209    3.0059   10.7727 H   0  0  0  0  0  0  0  0  0  0  0  0
    5.2983    2.0438   12.2549 H   0  0  0  0  0  0  0  0  0  0  0  0
   -2.0230    3.9521    9.7965 H   0  0  0  0  0  0  0  0  0  0  0  0
   -2.1721    4.3470   11.8194 H   0  0  0  0  0  0  0  0  0  0  0  0
   -0.1075   -0.0318   13.6408 H   0  0  0  0  0  0  0  0  0  0  0  0
   -2.6907    1.2262   11.8674 H   0  0  0  0  0  0  0  0  0  0  0  0
   -1.5476    1.3648   13.2459 H   0  0  0  0  0  0  0  0  0  0  0  0
   -1.2124    0.2070   11.9141 H   0  0  0  0  0  0  0  0  0  0  0  0
  1  2  1  0  0  0  0
  2  3  1  0  0  0  0
  3  4  1  0  0  0  0
  3 28  1  0  0  0  0
  4  5  2  0  0  0  0
  5  6  1  0  0  0  0
  6  7  2  0  0  0  0
  6 27  1  0  0  0  0
  7  8  1  0  0  0  0
  8  9  2  0  0  0  0
  8 16  1  0  0  0  0
  9 10  1  0  0  0  0
 10 11  2  0  0  0  0
 10 17  1  0  0  0  0
 11 12  1  0  0  0  0
 12 13  1  0  0  0  0
 12 16  1  0  0  0  0
 13 14  2  0  0  0  0
 14 15  1  0  0  0  0
 15 16  2  0  0  0  0
 17 18  2  0  0  0  0
 17 22  1  0  0  0  0
 18 19  1  0  0  0  0
 19 20  2  0  0  0  0
 19 24  1  0  0  0  0
 20 21  1  0  0  0  0
 21 22  2  0  0  0  0
 22 23  1  0  0  0  0
 24 25  1  0  0  0  0
 24 26  2  0  0  0  0
 27 28  2  0  0  0  0
 28 29  1  0  0  0  0
 29 30  1  0  0  0  0
  1 31  1  0  0  0  0
  1 32  1  0  0  0  0
  1 33  1  0  0  0  0
  3 34  1  0  0  0  0
  4 35  1  0  0  0  0
  5 36  1  0  0  0  0
 11 37  1  0  0  0  0
 13 38  1  0  0  0  0
 14 39  1  0  0  0  0
 18 40  1  0  0  0  0
 20 41  1  0  0  0  0
 21 42  1  0  0  0  0
 23 43  1  0  0  0  0
 23 44  1  0  0  0  0
 23 45  1  0  0  0  0
 25 46  1  0  0  0  0
 26 47  1  0  0  0  0
 27 48  1  0  0  0  0
 30 49  1  0  0  0  0
 30 50  1  0  0  0  0
 30 51  1  0  0  0  0
M  END
> <IC50[nM]>
466

$$$$
CHEMBL3265011
  -OEChem-05192314333D
 Structure written by MMmdl.
 51 54  0     0  0  0  0  0  0999 V2000
   -4.2555   -3.1029   13.5707 C   0  0  0  0  0  0  0  0  0  0  0  0
   -3.8740   -2.3535   14.7166 O   0  0  0  0  0  0  0  0  0  0  0  0
   -2.5261   -2.1057   14.8053 C   0  0  0  0  0  0  0  0  0  0  0  0
   -1.7497   -2.8673   15.6804 C   0  0  0  0  0  0  0  0  0  0  0  0
   -0.3863   -2.6106   15.8150 C   0  0  0  0  0  0  0  0  0  0  0  0
    0.2220   -1.5829   15.0890 C   0  0  0  0  0  0  0  0  0  0  0  0
    1.5930   -1.3491   15.3060 N   0  0  0  0  0  0  0  0  0  0  0  0
    2.5452   -0.4689   14.7536 C   0  0  0  0  0  0  0  0  0  0  0  0
    2.2178    0.3551   13.7190 N   0  0  0  0  0  0  0  0  0  0  0  0
    3.1227    1.2406   13.2181 C   0  0  0  0  0  0  0  0  0  0  0  0
    4.4207    1.3039   13.7175 C   0  0  0  0  0  0  0  0  0  0  0  0
    4.7482    0.4921   14.7654 N   0  0  0  0  0  0  0  0  0  0  0  0
    5.8898    0.3836   15.5035 C   0  0  0  0  0  0  0  0  0  0  0  0
    5.5715   -0.5089   16.5177 C   0  0  0  0  0  0  0  0  0  0  0  0
    4.3818   -1.0543   16.3920 N   0  0  0  0  0  0  0  0  0  0  0  0
    3.8330   -0.4170   15.3252 C   0  0  0  0  0  0  0  0  0  0  0  0
    2.6564    2.1560   12.1340 C   0  0  0  0  0  0  0  0  0  0  0  0
    1.3140    2.5576   12.0419 C   0  0  0  0  0  0  0  0  0  0  0  0
    0.8660    3.3707   10.9895 C   0  0  0  0  0  0  0  0  0  0  0  0
    1.7879    3.8078   10.0318 C   0  0  0  0  0  0  0  0  0  0  0  0
    3.1294    3.4499   10.1277 C   0  0  0  0  0  0  0  0  0  0  0  0
    3.5566    2.6280   11.1666 C   0  0  0  0  0  0  0  0  0  0  0  0
    4.9972    2.2126   11.2105 C   0  0  0  0  0  0  0  0  0  0  0  0
   -0.5881    3.7303   10.8428 C   0  0  0  0  0  0  0  0  0  0  0  0
   -1.1092    3.7021    9.7263 O   0  0  0  0  0  0  0  0  0  0  0  0
   -1.2179    4.0963   11.9826 N   0  0  0  0  0  0  0  0  0  0  0  0
   -0.5664   -0.8256   14.2115 C   0  0  0  0  0  0  0  0  0  0  0  0
   -1.9389   -1.0760   14.0580 C   0  0  0  0  0  0  0  0  0  0  0  0
   -2.6987   -0.3081   13.1992 O   0  0  0  0  0  0  0  0  0  0  0  0
   -2.0021    0.6722   12.5223 C   0  0  0  0  0  0  0  0  0  0  0  0
   -5.3448   -3.2555   13.5777 H   0  0  0  0  0  0  0  0  0  0  0  0
   -3.9681   -2.5543   12.6616 H   0  0  0  0  0  0  0  0  0  0  0  0
   -3.7486   -4.0790   13.5856 H   0  0  0  0  0  0  0  0  0  0  0  0
   -2.2073   -3.6587   16.2555 H   0  0  0  0  0  0  0  0  0  0  0  0
   -0.2118   -2.3897   16.8784 H   0  0  0  0  0  0  0  0  0  0  0  0
    0.1365   -3.5394   15.5428 H   0  0  0  0  0  0  0  0  0  0  0  0
    5.1484    1.9765   13.2880 H   0  0  0  0  0  0  0  0  0  0  0  0
    6.8331    0.8820   15.3359 H   0  0  0  0  0  0  0  0  0  0  0  0
    6.2400   -0.7347   17.3354 H   0  0  0  0  0  0  0  0  0  0  0  0
    0.6121    2.2342   12.7963 H   0  0  0  0  0  0  0  0  0  0  0  0
    1.4559    4.4276    9.2120 H   0  0  0  0  0  0  0  0  0  0  0  0
    3.8383    3.8096    9.3966 H   0  0  0  0  0  0  0  0  0  0  0  0
    5.1291    1.2837   10.6363 H   0  0  0  0  0  0  0  0  0  0  0  0
    5.6209    3.0059   10.7727 H   0  0  0  0  0  0  0  0  0  0  0  0
    5.2983    2.0438   12.2549 H   0  0  0  0  0  0  0  0  0  0  0  0
   -2.0230    3.9521    9.7965 H   0  0  0  0  0  0  0  0  0  0  0  0
   -2.1721    4.3470   11.8194 H   0  0  0  0  0  0  0  0  0  0  0  0
   -0.1075   -0.0318   13.6408 H   0  0  0  0  0  0  0  0  0  0  0  0
   -2.6907    1.2262   11.8674 H   0  0  0  0  0  0  0  0  0  0  0  0
   -1.5476    1.3648   13.2459 H   0  0  0  0  0  0  0  0  0  0  0  0
   -1.2124    0.2070   11.9141 H   0  0  0  0  0  0  0  0  0  0  0  0
  1  2  1  0  0  0  0
  2  3  1  0  0  0  0
  3  4  2  0  0  0  0
  3 28  1  0  0  0  0
  4  5  1  0  0  0  0
  5  6  1  0  0  0  0
  6  7  2  0  0  0  0
  6 27  1  0  0  0  0
  7  8  1  0  0  0  0
  8  9  2  0  0  0  0
  8 16  1  0  0  0  0
  9 10  1  0  0  0  0
 10 11  2  0  0  0  0
 10 17  1  0  0  0  0
 11 12  1  0  0  0  0
 12 13  1  0  0  0  0
 12 16  1  0  0  0  0
 13 14  2  0  0  0  0
 14 15  1  0  0  0  0
 15 16  2  0  0  0  0
 17 18  2  0  0  0  0
 17 22  1  0  0  0  0
 18 19  1  0  0  0  0
 19 20  2  0  0  0  0
 19 24  1  0  0  0  0
 20 21  1  0  0  0  0
 21 22  2  0  0  0  0
 22 23  1  0  0  0  0
 24 25  1  0  0  0  0
 24 26  2  0  0  0  0
 27 28  2  0  0  0  0
 28 29  1  0  0  0  0
 29 30  1  0  0  0  0
  1 31  1  0  0  0  0
  1 32  1  0  0  0  0
  1 33  1  0  0  0  0
  4 34  1  0  0  0  0
  5 35  1  0  0  0  0
  5 36  1  0  0  0  0
 11 37  1  0  0  0  0
 13 38  1  0  0  0  0
 14 39  1  0  0  0  0
 18 40  1  0  0  0  0
 20 41  1  0  0  0  0
 21 42  1  0  0  0  0
 23 43  1  0  0  0  0
 23 44  1  0  0  0  0
 23 45  1  0  0  0  0
 25 46  1  0  0  0  0
 26 47  1  0  0  0  0
 27 48  1  0  0  0  0
 30 49  1  0  0  0  0
 30 50  1  0  0  0  0
 30 51  1  0  0  0  0
M  END
> <IC50[nM]>
466

$$$$
CHEMBL3265011
  -OEChem-05192314333D
 Structure written by MMmdl.
 51 54  0     0  0  0  0  0  0999 V2000
   -4.2555   -3.1029   13.5707 C   0  0  0  0  0  0  0  0  0  0  0  0
   -3.8740   -2.3535   14.7166 O   0  0  0  0  0  0  0  0  0  0  0  0
   -2.5261   -2.1057   14.8053 C   0  0  0  0  0  0  0  0  0  0  0  0
   -1.7497   -2.8673   15.6804 C   0  0  0  0  0  0  0  0  0  0  0  0
   -0.3863   -2.6106   15.8150 C   0  0  0  0  0  0  0  0  0  0  0  0
    0.2220   -1.5829   15.0890 C   0  0  0  0  0  0  0  0  0  0  0  0
    1.5930   -1.3491   15.3060 N   0  0  0  0  0  0  0  0  0  0  0  0
    2.5452   -0.4689   14.7536 C   0  0  0  0  0  0  0  0  0  0  0  0
    2.2178    0.3551   13.7190 N   0  0  0  0  0  0  0  0  0  0  0  0
    3.1227    1.2406   13.2181 C   0  0  0  0  0  0  0  0  0  0  0  0
    4.4207    1.3039   13.7175 C   0  0  0  0  0  0  0  0  0  0  0  0
    4.7482    0.4921   14.7654 N   0  0  0  0  0  0  0  0  0  0  0  0
    5.8898    0.3836   15.5035 C   0  0  0  0  0  0  0  0  0  0  0  0
    5.5715   -0.5089   16.5177 C   0  0  0  0  0  0  0  0  0  0  0  0
    4.3818   -1.0543   16.3920 N   0  0  0  0  0  0  0  0  0  0  0  0
    3.8330   -0.4170   15.3252 C   0  0  0  0  0  0  0  0  0  0  0  0
    2.6564    2.1560   12.1340 C   0  0  0  0  0  0  0  0  0  0  0  0
    1.3140    2.5576   12.0419 C   0  0  0  0  0  0  0  0  0  0  0  0
    0.8660    3.3707   10.9895 C   0  0  0  0  0  0  0  0  0  0  0  0
    1.7879    3.8078   10.0318 C   0  0  0  0  0  0  0  0  0  0  0  0
    3.1294    3.4499   10.1277 C   0  0  0  0  0  0  0  0  0  0  0  0
    3.5566    2.6280   11.1666 C   0  0  0  0  0  0  0  0  0  0  0  0
    4.9972    2.2126   11.2105 C   0  0  0  0  0  0  0  0  0  0  0  0
   -0.5881    3.7303   10.8428 C   0  0  0  0  0  0  0  0  0  0  0  0
   -1.1092    3.7021    9.7263 O   0  0  0  0  0  0  0  0  0  0  0  0
   -1.2179    4.0963   11.9826 N   0  0  0  0  0  0  0  0  0  0  0  0
   -0.5664   -0.8256   14.2115 C   0  0  0  0  0  0  0  0  0  0  0  0
   -1.9389   -1.0760   14.0580 C   0  0  0  0  0  0  0  0  0  0  0  0
   -2.6987   -0.3081   13.1992 O   0  0  0  0  0  0  0  0  0  0  0  0
   -2.0021    0.6722   12.5223 C   0  0  0  0  0  0  0  0  0  0  0  0
   -5.3448   -3.2555   13.5777 H   0  0  0  0  0  0  0  0  0  0  0  0
   -3.9681   -2.5543   12.6616 H   0  0  0  0  0  0  0  0  0  0  0  0
   -3.7486   -4.0790   13.5856 H   0  0  0  0  0  0  0  0  0  0  0  0
   -2.2073   -3.6587   16.2555 H   0  0  0  0  0  0  0  0  0  0  0  0
    0.2066   -3.2125   16.4877 H   0  0  0  0  0  0  0  0  0  0  0  0
    5.1484    1.9765   13.2880 H   0  0  0  0  0  0  0  0  0  0  0  0
    6.8331    0.8820   15.3359 H   0  0  0  0  0  0  0  0  0  0  0  0
    6.2400   -0.7347   17.3354 H   0  0  0  0  0  0  0  0  0  0  0  0
    0.6121    2.2342   12.7963 H   0  0  0  0  0  0  0  0  0  0  0  0
    1.4559    4.4276    9.2120 H   0  0  0  0  0  0  0  0  0  0  0  0
    3.8383    3.8096    9.3966 H   0  0  0  0  0  0  0  0  0  0  0  0
    5.1291    1.2837   10.6363 H   0  0  0  0  0  0  0  0  0  0  0  0
    5.6209    3.0059   10.7727 H   0  0  0  0  0  0  0  0  0  0  0  0
    5.2983    2.0438   12.2549 H   0  0  0  0  0  0  0  0  0  0  0  0
   -2.0230    3.9521    9.7965 H   0  0  0  0  0  0  0  0  0  0  0  0
   -2.1721    4.3470   11.8194 H   0  0  0  0  0  0  0  0  0  0  0  0
   -0.4764    0.2210   14.5379 H   0  0  0  0  0  0  0  0  0  0  0  0
   -0.1167   -0.9386   13.2140 H   0  0  0  0  0  0  0  0  0  0  0  0
   -2.6907    1.2262   11.8674 H   0  0  0  0  0  0  0  0  0  0  0  0
   -1.5476    1.3648   13.2459 H   0  0  0  0  0  0  0  0  0  0  0  0
   -1.2124    0.2070   11.9141 H   0  0  0  0  0  0  0  0  0  0  0  0
  1  2  1  0  0  0  0
  2  3  1  0  0  0  0
  3  4  1  0  0  0  0
  3 28  2  0  0  0  0
  4  5  2  0  0  0  0
  5  6  1  0  0  0  0
  6  7  2  0  0  0  0
  6 27  1  0  0  0  0
  7  8  1  0  0  0  0
  8  9  2  0  0  0  0
  8 16  1  0  0  0  0
  9 10  1  0  0  0  0
 10 11  2  0  0  0  0
 10 17  1  0  0  0  0
 11 12  1  0  0  0  0
 12 13  1  0  0  0  0
 12 16  1  0  0  0  0
 13 14  2  0  0  0  0
 14 15  1  0  0  0  0
 15 16  2  0  0  0  0
 17 18  2  0  0  0  0
 17 22  1  0  0  0  0
 18 19  1  0  0  0  0
 19 20  2  0  0  0  0
 19 24  1  0  0  0  0
 20 21  1  0  0  0  0
 21 22  2  0  0  0  0
 22 23  1  0  0  0  0
 24 25  1  0  0  0  0
 24 26  2  0  0  0  0
 27 28  1  0  0  0  0
 28 29  1  0  0  0  0
 29 30  1  0  0  0  0
  1 31  1  0  0  0  0
  1 32  1  0  0  0  0
  1 33  1  0  0  0  0
  4 34  1  0  0  0  0
  5 35  1  0  0  0  0
 11 36  1  0  0  0  0
 13 37  1  0  0  0  0
 14 38  1  0  0  0  0
 18 39  1  0  0  0  0
 20 40  1  0  0  0  0
 21 41  1  0  0  0  0
 23 42  1  0  0  0  0
 23 43  1  0  0  0  0
 23 44  1  0  0  0  0
 25 45  1  0  0  0  0
 26 46  1  0  0  0  0
 27 47  1  0  0  0  0
 27 48  1  0  0  0  0
 30 49  1  0  0  0  0
 30 50  1  0  0  0  0
 30 51  1  0  0  0  0
M  END
> <IC50[nM]>
466

$$$$
