CHEMBL3265019
  -OEChem-05192314333D
 Structure written by MMmdl.
 46 50  0     0  0  0  0  0  0999 V2000
   -4.2567   -3.1043   13.5693 C   0  0  0  0  0  0  0  0  0  0  0  0
   -3.8736   -2.3605   14.7157 O   0  0  0  0  0  0  0  0  0  0  0  0
   -2.5257   -2.1110   14.8169 C   0  0  0  0  0  0  0  0  0  0  0  0
   -1.7458   -2.8699   15.6818 C   0  0  0  0  0  0  0  0  0  0  0  0
   -0.3904   -2.6103   15.8137 C   0  0  0  0  0  0  0  0  0  0  0  0
    0.2206   -1.5847   15.0868 C   0  0  0  0  0  0  0  0  0  0  0  0
    1.6037   -1.3593   15.3213 N   0  0  0  0  0  0  0  0  0  0  0  0
    2.5361   -0.4486   14.7616 C   0  0  0  0  0  0  0  0  0  0  0  0
    2.1814    0.3735   13.7239 N   0  0  0  0  0  0  0  0  0  0  0  0
    3.1138    1.2388   13.2174 C   0  0  0  0  0  0  0  0  0  0  0  0
    4.4183    1.2844   13.7022 C   0  0  0  0  0  0  0  0  0  0  0  0
    4.7470    0.4870   14.7610 N   0  0  0  0  0  0  0  0  0  0  0  0
    5.8980    0.3781   15.4861 C   0  0  0  0  0  0  0  0  0  0  0  0
    5.5879   -0.5236   16.5289 C   0  0  0  0  0  0  0  0  0  0  0  0
    4.3760   -1.0435   16.3736 N   0  0  0  0  0  0  0  0  0  0  0  0
    3.8368   -0.3913   15.3236 C   0  0  0  0  0  0  0  0  0  0  0  0
    2.6373    2.1616   12.1208 C   0  0  0  0  0  0  0  0  0  0  0  0
    1.3117    2.6428   12.1323 C   0  0  0  0  0  0  0  0  0  0  0  0
    0.8392    3.5282   11.1613 C   0  0  0  0  0  0  0  0  0  0  0  0
    1.7204    3.9285   10.1646 C   0  0  0  0  0  0  0  0  0  0  0  0
    1.5424    4.7860    9.1151 N   0  0  0  0  0  0  0  0  0  0  0  0
    2.7143    4.8525    8.3999 N   0  0  0  0  0  0  0  0  0  0  0  0
    3.5904    4.0382    9.0000 N   0  0  0  0  0  0  0  0  0  0  0  0
    3.0324    3.4382   10.1221 C   0  0  0  0  0  0  0  0  0  0  0  0
    3.5249    2.5426   11.0797 C   0  0  0  0  0  0  0  0  0  0  0  0
   -0.5551   -0.8189   14.1919 C   0  0  0  0  0  0  0  0  0  0  0  0
   -1.9443   -1.0883   14.0612 C   0  0  0  0  0  0  0  0  0  0  0  0
   -2.7530   -0.3558   13.2052 O   0  0  0  0  0  0  0  0  0  0  0  0
   -2.2324    0.6450   12.3520 C   0  0  0  0  0  0  0  0  0  0  0  0
   -5.3466   -3.2531   13.5755 H   0  0  0  0  0  0  0  0  0  0  0  0
   -3.9670   -2.5543   12.6618 H   0  0  0  0  0  0  0  0  0  0  0  0
   -3.7532   -4.0822   13.5818 H   0  0  0  0  0  0  0  0  0  0  0  0
   -2.1983   -3.6662   16.2542 H   0  0  0  0  0  0  0  0  0  0  0  0
    0.2025   -3.2098   16.4885 H   0  0  0  0  0  0  0  0  0  0  0  0
    1.9968   -1.9604   16.0172 H   0  0  0  0  0  0  0  0  0  0  0  0
    5.1530    1.9352   13.2514 H   0  0  0  0  0  0  0  0  0  0  0  0
    6.8402    0.8731   15.3029 H   0  0  0  0  0  0  0  0  0  0  0  0
    6.2517   -0.7597   17.3475 H   0  0  0  0  0  0  0  0  0  0  0  0
    0.6425    2.3170   12.9149 H   0  0  0  0  0  0  0  0  0  0  0  0
   -0.1781    3.8900   11.1844 H   0  0  0  0  0  0  0  0  0  0  0  0
    2.8810    5.4059    7.5838 H   0  0  0  0  0  0  0  0  0  0  0  0
    4.5333    2.1594   11.0287 H   0  0  0  0  0  0  0  0  0  0  0  0
   -0.0965   -0.0331   13.6099 H   0  0  0  0  0  0  0  0  0  0  0  0
   -3.0505    1.0911   11.7674 H   0  0  0  0  0  0  0  0  0  0  0  0
   -1.7460    1.4250   12.9561 H   0  0  0  0  0  0  0  0  0  0  0  0
   -1.4955    0.1974   11.6689 H   0  0  0  0  0  0  0  0  0  0  0  0
  1  2  1  0  0  0  0
  2  3  1  0  0  0  0
  3  4  2  0  0  0  0
  3 27  1  0  0  0  0
  4  5  1  0  0  0  0
  5  6  2  0  0  0  0
  6  7  1  0  0  0  0
  6 26  1  0  0  0  0
  7  8  1  0  0  0  0
  8  9  2  0  0  0  0
  8 16  1  0  0  0  0
  9 10  1  0  0  0  0
 10 11  2  0  0  0  0
 10 17  1  0  0  0  0
 11 12  1  0  0  0  0
 12 13  1  0  0  0  0
 12 16  1  0  0  0  0
 13 14  2  0  0  0  0
 14 15  1  0  0  0  0
 15 16  2  0  0  0  0
 17 18  1  0  0  0  0
 17 25  2  0  0  0  0
 18 19  2  0  0  0  0
 19 20  1  0  0  0  0
 20 21  2  0  0  0  0
 20 24  1  0  0  0  0
 21 22  1  0  0  0  0
 22 23  1  0  0  0  0
 23 24  2  0  0  0  0
 24 25  1  0  0  0  0
 26 27  2  0  0  0  0
 27 28  1  0  0  0  0
 28 29  1  0  0  0  0
  1 30  1  0  0  0  0
  1 31  1  0  0  0  0
  1 32  1  0  0  0  0
  4 33  1  0  0  0  0
  5 34  1  0  0  0  0
  7 35  1  0  0  0  0
 11 36  1  0  0  0  0
 13 37  1  0  0  0  0
 14 38  1  0  0  0  0
 18 39  1  0  0  0  0
 19 40  1  0  0  0  0
 22 41  1  0  0  0  0
 25 42  1  0  0  0  0
 26 43  1  0  0  0  0
 29 44  1  0  0  0  0
 29 45  1  0  0  0  0
 29 46  1  0  0  0  0
M  END
> <IC50[nM]>
12.6

$$$$
CHEMBL3265019
  -OEChem-05192314333D
 Structure written by MMmdl.
 46 50  0     0  0  0  0  0  0999 V2000
   -4.2567   -3.1043   13.5693 C   0  0  0  0  0  0  0  0  0  0  0  0
   -3.8736   -2.3605   14.7157 O   0  0  0  0  0  0  0  0  0  0  0  0
   -2.5257   -2.1110   14.8169 C   0  0  0  0  0  0  0  0  0  0  0  0
   -1.7458   -2.8699   15.6818 C   0  0  0  0  0  0  0  0  0  0  0  0
   -0.3904   -2.6103   15.8137 C   0  0  0  0  0  0  0  0  0  0  0  0
    0.2206   -1.5847   15.0868 C   0  0  0  0  0  0  0  0  0  0  0  0
    1.6037   -1.3593   15.3213 N   0  0  0  0  0  0  0  0  0  0  0  0
    2.5361   -0.4486   14.7616 C   0  0  0  0  0  0  0  0  0  0  0  0
    2.1814    0.3735   13.7239 N   0  0  0  0  0  0  0  0  0  0  0  0
    3.1138    1.2388   13.2174 C   0  0  0  0  0  0  0  0  0  0  0  0
    4.4183    1.2844   13.7022 C   0  0  0  0  0  0  0  0  0  0  0  0
    4.7470    0.4870   14.7610 N   0  0  0  0  0  0  0  0  0  0  0  0
    5.8980    0.3781   15.4861 C   0  0  0  0  0  0  0  0  0  0  0  0
    5.5879   -0.5236   16.5289 C   0  0  0  0  0  0  0  0  0  0  0  0
    4.3760   -1.0435   16.3736 N   0  0  0  0  0  0  0  0  0  0  0  0
    3.8368   -0.3913   15.3236 C   0  0  0  0  0  0  0  0  0  0  0  0
    2.6373    2.1616   12.1208 C   0  0  0  0  0  0  0  0  0  0  0  0
    1.3117    2.6428   12.1323 C   0  0  0  0  0  0  0  0  0  0  0  0
    0.8392    3.5282   11.1613 C   0  0  0  0  0  0  0  0  0  0  0  0
    1.7204    3.9285   10.1646 C   0  0  0  0  0  0  0  0  0  0  0  0
    1.5424    4.7860    9.1151 N   0  0  0  0  0  0  0  0  0  0  0  0
    2.7143    4.8525    8.3999 N   0  0  0  0  0  0  0  0  0  0  0  0
    3.5904    4.0382    9.0000 N   0  0  0  0  0  0  0  0  0  0  0  0
    3.0324    3.4382   10.1221 C   0  0  0  0  0  0  0  0  0  0  0  0
    3.5249    2.5426   11.0797 C   0  0  0  0  0  0  0  0  0  0  0  0
   -0.5551   -0.8189   14.1919 C   0  0  0  0  0  0  0  0  0  0  0  0
   -1.9443   -1.0883   14.0612 C   0  0  0  0  0  0  0  0  0  0  0  0
   -2.7530   -0.3558   13.2052 O   0  0  0  0  0  0  0  0  0  0  0  0
   -2.2324    0.6450   12.3520 C   0  0  0  0  0  0  0  0  0  0  0  0
   -5.3466   -3.2531   13.5755 H   0  0  0  0  0  0  0  0  0  0  0  0
   -3.9670   -2.5543   12.6618 H   0  0  0  0  0  0  0  0  0  0  0  0
   -3.7532   -4.0822   13.5818 H   0  0  0  0  0  0  0  0  0  0  0  0
   -2.1983   -3.6662   16.2542 H   0  0  0  0  0  0  0  0  0  0  0  0
    0.2025   -3.2098   16.4885 H   0  0  0  0  0  0  0  0  0  0  0  0
    1.9968   -1.9604   16.0172 H   0  0  0  0  0  0  0  0  0  0  0  0
    5.1530    1.9352   13.2514 H   0  0  0  0  0  0  0  0  0  0  0  0
    6.8402    0.8731   15.3029 H   0  0  0  0  0  0  0  0  0  0  0  0
    6.2517   -0.7597   17.3475 H   0  0  0  0  0  0  0  0  0  0  0  0
    0.6425    2.3170   12.9149 H   0  0  0  0  0  0  0  0  0  0  0  0
   -0.1781    3.8900   11.1844 H   0  0  0  0  0  0  0  0  0  0  0  0
    4.5255    3.8818    8.6820 H   0  0  0  0  0  0  0  0  0  0  0  0
    4.5333    2.1594   11.0287 H   0  0  0  0  0  0  0  0  0  0  0  0
   -0.0965   -0.0331   13.6099 H   0  0  0  0  0  0  0  0  0  0  0  0
   -3.0505    1.0911   11.7674 H   0  0  0  0  0  0  0  0  0  0  0  0
   -1.7460    1.4250   12.9561 H   0  0  0  0  0  0  0  0  0  0  0  0
   -1.4955    0.1974   11.6689 H   0  0  0  0  0  0  0  0  0  0  0  0
  1  2  1  0  0  0  0
  2  3  1  0  0  0  0
  3  4  2  0  0  0  0
  3 27  1  0  0  0  0
  4  5  1  0  0  0  0
  5  6  2  0  0  0  0
  6  7  1  0  0  0  0
  6 26  1  0  0  0  0
  7  8  1  0  0  0  0
  8  9  2  0  0  0  0
  8 16  1  0  0  0  0
  9 10  1  0  0  0  0
 10 11  2  0  0  0  0
 10 17  1  0  0  0  0
 11 12  1  0  0  0  0
 12 13  1  0  0  0  0
 12 16  1  0  0  0  0
 13 14  2  0  0  0  0
 14 15  1  0  0  0  0
 15 16  2  0  0  0  0
 17 18  2  0  0  0  0
 17 25  1  0  0  0  0
 18 19  1  0  0  0  0
 19 20  2  0  0  0  0
 20 21  1  0  0  0  0
 20 24  1  0  0  0  0
 21 22  2  0  0  0  0
 22 23  1  0  0  0  0
 23 24  1  0  0  0  0
 24 25  2  0  0  0  0
 26 27  2  0  0  0  0
 27 28  1  0  0  0  0
 28 29  1  0  0  0  0
  1 30  1  0  0  0  0
  1 31  1  0  0  0  0
  1 32  1  0  0  0  0
  4 33  1  0  0  0  0
  5 34  1  0  0  0  0
  7 35  1  0  0  0  0
 11 36  1  0  0  0  0
 13 37  1  0  0  0  0
 14 38  1  0  0  0  0
 18 39  1  0  0  0  0
 19 40  1  0  0  0  0
 23 41  1  0  0  0  0
 25 42  1  0  0  0  0
 26 43  1  0  0  0  0
 29 44  1  0  0  0  0
 29 45  1  0  0  0  0
 29 46  1  0  0  0  0
M  END
> <IC50[nM]>
12.6

$$$$
CHEMBL3265019
  -OEChem-05192314333D
 Structure written by MMmdl.
 46 50  0     0  0  0  0  0  0999 V2000
   -4.2567   -3.1043   13.5693 C   0  0  0  0  0  0  0  0  0  0  0  0
   -3.8736   -2.3605   14.7157 O   0  0  0  0  0  0  0  0  0  0  0  0
   -2.5257   -2.1110   14.8169 C   0  0  0  0  0  0  0  0  0  0  0  0
   -1.7458   -2.8699   15.6818 C   0  0  0  0  0  0  0  0  0  0  0  0
   -0.3904   -2.6103   15.8137 C   0  0  0  0  0  0  0  0  0  0  0  0
    0.2206   -1.5847   15.0868 C   0  0  0  0  0  0  0  0  0  0  0  0
    1.6037   -1.3593   15.3213 N   0  0  0  0  0  0  0  0  0  0  0  0
    2.5361   -0.4486   14.7616 C   0  0  0  0  0  0  0  0  0  0  0  0
    2.1814    0.3735   13.7239 N   0  0  0  0  0  0  0  0  0  0  0  0
    3.1138    1.2388   13.2174 C   0  0  0  0  0  0  0  0  0  0  0  0
    4.4183    1.2844   13.7022 C   0  0  0  0  0  0  0  0  0  0  0  0
    4.7470    0.4870   14.7610 N   0  0  0  0  0  0  0  0  0  0  0  0
    5.8980    0.3781   15.4861 C   0  0  0  0  0  0  0  0  0  0  0  0
    5.5879   -0.5236   16.5289 C   0  0  0  0  0  0  0  0  0  0  0  0
    4.3760   -1.0435   16.3736 N   0  0  0  0  0  0  0  0  0  0  0  0
    3.8368   -0.3913   15.3236 C   0  0  0  0  0  0  0  0  0  0  0  0
    2.6373    2.1616   12.1208 C   0  0  0  0  0  0  0  0  0  0  0  0
    1.3117    2.6428   12.1323 C   0  0  0  0  0  0  0  0  0  0  0  0
    0.8392    3.5282   11.1613 C   0  0  0  0  0  0  0  0  0  0  0  0
    1.7204    3.9285   10.1646 C   0  0  0  0  0  0  0  0  0  0  0  0
    1.5424    4.7860    9.1151 N   0  0  0  0  0  0  0  0  0  0  0  0
    2.7143    4.8525    8.3999 N   0  0  0  0  0  0  0  0  0  0  0  0
    3.5904    4.0382    9.0000 N   0  0  0  0  0  0  0  0  0  0  0  0
    3.0324    3.4382   10.1221 C   0  0  0  0  0  0  0  0  0  0  0  0
    3.5249    2.5426   11.0797 C   0  0  0  0  0  0  0  0  0  0  0  0
   -0.5551   -0.8189   14.1919 C   0  0  0  0  0  0  0  0  0  0  0  0
   -1.9443   -1.0883   14.0612 C   0  0  0  0  0  0  0  0  0  0  0  0
   -2.7530   -0.3558   13.2052 O   0  0  0  0  0  0  0  0  0  0  0  0
   -2.2324    0.6450   12.3520 C   0  0  0  0  0  0  0  0  0  0  0  0
   -5.3466   -3.2531   13.5755 H   0  0  0  0  0  0  0  0  0  0  0  0
   -3.9670   -2.5543   12.6618 H   0  0  0  0  0  0  0  0  0  0  0  0
   -3.7532   -4.0822   13.5818 H   0  0  0  0  0  0  0  0  0  0  0  0
   -2.1983   -3.6662   16.2542 H   0  0  0  0  0  0  0  0  0  0  0  0
    0.2025   -3.2098   16.4885 H   0  0  0  0  0  0  0  0  0  0  0  0
    1.9968   -1.9604   16.0172 H   0  0  0  0  0  0  0  0  0  0  0  0
    5.1530    1.9352   13.2514 H   0  0  0  0  0  0  0  0  0  0  0  0
    6.8402    0.8731   15.3029 H   0  0  0  0  0  0  0  0  0  0  0  0
    6.2517   -0.7597   17.3475 H   0  0  0  0  0  0  0  0  0  0  0  0
    0.6425    2.3170   12.9149 H   0  0  0  0  0  0  0  0  0  0  0  0
   -0.1781    3.8900   11.1844 H   0  0  0  0  0  0  0  0  0  0  0  0
    0.7004    5.2820    8.9031 H   0  0  0  0  0  0  0  0  0  0  0  0
    4.5333    2.1594   11.0287 H   0  0  0  0  0  0  0  0  0  0  0  0
   -0.0965   -0.0331   13.6099 H   0  0  0  0  0  0  0  0  0  0  0  0
   -3.0505    1.0911   11.7674 H   0  0  0  0  0  0  0  0  0  0  0  0
   -1.7460    1.4250   12.9561 H   0  0  0  0  0  0  0  0  0  0  0  0
   -1.4955    0.1974   11.6689 H   0  0  0  0  0  0  0  0  0  0  0  0
  1  2  1  0  0  0  0
  2  3  1  0  0  0  0
  3  4  2  0  0  0  0
  3 27  1  0  0  0  0
  4  5  1  0  0  0  0
  5  6  2  0  0  0  0
  6  7  1  0  0  0  0
  6 26  1  0  0  0  0
  7  8  1  0  0  0  0
  8  9  2  0  0  0  0
  8 16  1  0  0  0  0
  9 10  1  0  0  0  0
 10 11  2  0  0  0  0
 10 17  1  0  0  0  0
 11 12  1  0  0  0  0
 12 13  1  0  0  0  0
 12 16  1  0  0  0  0
 13 14  2  0  0  0  0
 14 15  1  0  0  0  0
 15 16  2  0  0  0  0
 17 18  2  0  0  0  0
 17 25  1  0  0  0  0
 18 19  1  0  0  0  0
 19 20  2  0  0  0  0
 20 21  1  0  0  0  0
 20 24  1  0  0  0  0
 21 22  1  0  0  0  0
 22 23  2  0  0  0  0
 23 24  1  0  0  0  0
 24 25  2  0  0  0  0
 26 27  2  0  0  0  0
 27 28  1  0  0  0  0
 28 29  1  0  0  0  0
  1 30  1  0  0  0  0
  1 31  1  0  0  0  0
  1 32  1  0  0  0  0
  4 33  1  0  0  0  0
  5 34  1  0  0  0  0
  7 35  1  0  0  0  0
 11 36  1  0  0  0  0
 13 37  1  0  0  0  0
 14 38  1  0  0  0  0
 18 39  1  0  0  0  0
 19 40  1  0  0  0  0
 21 41  1  0  0  0  0
 25 42  1  0  0  0  0
 26 43  1  0  0  0  0
 29 44  1  0  0  0  0
 29 45  1  0  0  0  0
 29 46  1  0  0  0  0
M  END
> <IC50[nM]>
12.6

$$$$
CHEMBL3265019
  -OEChem-05192314333D
 Structure written by MMmdl.
 46 50  0     0  0  0  0  0  0999 V2000
   -4.2567   -3.1043   13.5693 C   0  0  0  0  0  0  0  0  0  0  0  0
   -3.8736   -2.3605   14.7157 O   0  0  0  0  0  0  0  0  0  0  0  0
   -2.5257   -2.1110   14.8169 C   0  0  0  0  0  0  0  0  0  0  0  0
   -1.7458   -2.8699   15.6818 C   0  0  0  0  0  0  0  0  0  0  0  0
   -0.3904   -2.6103   15.8137 C   0  0  0  0  0  0  0  0  0  0  0  0
    0.2206   -1.5847   15.0868 C   0  0  0  0  0  0  0  0  0  0  0  0
    1.6037   -1.3593   15.3213 N   0  0  0  0  0  0  0  0  0  0  0  0
    2.5361   -0.4486   14.7616 C   0  0  0  0  0  0  0  0  0  0  0  0
    2.1814    0.3735   13.7239 N   0  0  0  0  0  0  0  0  0  0  0  0
    3.1138    1.2388   13.2174 C   0  0  0  0  0  0  0  0  0  0  0  0
    4.4183    1.2844   13.7022 C   0  0  0  0  0  0  0  0  0  0  0  0
    4.7470    0.4870   14.7610 N   0  0  0  0  0  0  0  0  0  0  0  0
    5.8980    0.3781   15.4861 C   0  0  0  0  0  0  0  0  0  0  0  0
    5.5879   -0.5236   16.5289 C   0  0  0  0  0  0  0  0  0  0  0  0
    4.3760   -1.0435   16.3736 N   0  0  0  0  0  0  0  0  0  0  0  0
    3.8368   -0.3913   15.3236 C   0  0  0  0  0  0  0  0  0  0  0  0
    2.6373    2.1616   12.1208 C   0  0  0  0  0  0  0  0  0  0  0  0
    1.3117    2.6428   12.1323 C   0  0  0  0  0  0  0  0  0  0  0  0
    0.8392    3.5282   11.1613 C   0  0  0  0  0  0  0  0  0  0  0  0
    1.7204    3.9285   10.1646 C   0  0  0  0  0  0  0  0  0  0  0  0
    1.5424    4.7860    9.1151 N   0  0  0  0  0  0  0  0  0  0  0  0
    2.7143    4.8525    8.3999 N   0  0  0  0  0  0  0  0  0  0  0  0
    3.5904    4.0382    9.0000 N   0  0  0  0  0  0  0  0  0  0  0  0
    3.0324    3.4382   10.1221 C   0  0  0  0  0  0  0  0  0  0  0  0
    3.5249    2.5426   11.0797 C   0  0  0  0  0  0  0  0  0  0  0  0
   -0.5551   -0.8189   14.1919 C   0  0  0  0  0  0  0  0  0  0  0  0
   -1.9443   -1.0883   14.0612 C   0  0  0  0  0  0  0  0  0  0  0  0
   -2.7530   -0.3558   13.2052 O   0  0  0  0  0  0  0  0  0  0  0  0
   -2.2324    0.6450   12.3520 C   0  0  0  0  0  0  0  0  0  0  0  0
   -5.3466   -3.2531   13.5755 H   0  0  0  0  0  0  0  0  0  0  0  0
   -3.9670   -2.5543   12.6618 H   0  0  0  0  0  0  0  0  0  0  0  0
   -3.7532   -4.0822   13.5818 H   0  0  0  0  0  0  0  0  0  0  0  0
   -2.1983   -3.6662   16.2542 H   0  0  0  0  0  0  0  0  0  0  0  0
    0.2025   -3.2098   16.4885 H   0  0  0  0  0  0  0  0  0  0  0  0
    1.2573    0.3419   13.3432 H   0  0  0  0  0  0  0  0  0  0  0  0
    5.1530    1.9352   13.2514 H   0  0  0  0  0  0  0  0  0  0  0  0
    6.8402    0.8731   15.3029 H   0  0  0  0  0  0  0  0  0  0  0  0
    6.2517   -0.7597   17.3475 H   0  0  0  0  0  0  0  0  0  0  0  0
    0.6425    2.3170   12.9149 H   0  0  0  0  0  0  0  0  0  0  0  0
   -0.1781    3.8900   11.1844 H   0  0  0  0  0  0  0  0  0  0  0  0
    2.8810    5.4059    7.5838 H   0  0  0  0  0  0  0  0  0  0  0  0
    4.5333    2.1594   11.0287 H   0  0  0  0  0  0  0  0  0  0  0  0
   -0.0965   -0.0331   13.6099 H   0  0  0  0  0  0  0  0  0  0  0  0
   -3.0505    1.0911   11.7674 H   0  0  0  0  0  0  0  0  0  0  0  0
   -1.7460    1.4250   12.9561 H   0  0  0  0  0  0  0  0  0  0  0  0
   -1.4955    0.1974   11.6689 H   0  0  0  0  0  0  0  0  0  0  0  0
  1  2  1  0  0  0  0
  2  3  1  0  0  0  0
  3  4  2  0  0  0  0
  3 27  1  0  0  0  0
  4  5  1  0  0  0  0
  5  6  2  0  0  0  0
  6  7  1  0  0  0  0
  6 26  1  0  0  0  0
  7  8  2  0  0  0  0
  8  9  1  0  0  0  0
  8 16  1  0  0  0  0
  9 10  1  0  0  0  0
 10 11  2  0  0  0  0
 10 17  1  0  0  0  0
 11 12  1  0  0  0  0
 12 13  1  0  0  0  0
 12 16  1  0  0  0  0
 13 14  2  0  0  0  0
 14 15  1  0  0  0  0
 15 16  2  0  0  0  0
 17 18  1  0  0  0  0
 17 25  2  0  0  0  0
 18 19  2  0  0  0  0
 19 20  1  0  0  0  0
 20 21  2  0  0  0  0
 20 24  1  0  0  0  0
 21 22  1  0  0  0  0
 22 23  1  0  0  0  0
 23 24  2  0  0  0  0
 24 25  1  0  0  0  0
 26 27  2  0  0  0  0
 27 28  1  0  0  0  0
 28 29  1  0  0  0  0
  1 30  1  0  0  0  0
  1 31  1  0  0  0  0
  1 32  1  0  0  0  0
  4 33  1  0  0  0  0
  5 34  1  0  0  0  0
  9 35  1  0  0  0  0
 11 36  1  0  0  0  0
 13 37  1  0  0  0  0
 14 38  1  0  0  0  0
 18 39  1  0  0  0  0
 19 40  1  0  0  0  0
 22 41  1  0  0  0  0
 25 42  1  0  0  0  0
 26 43  1  0  0  0  0
 29 44  1  0  0  0  0
 29 45  1  0  0  0  0
 29 46  1  0  0  0  0
M  END
> <IC50[nM]>
12.6

$$$$
CHEMBL3265019
  -OEChem-05192314333D
 Structure written by MMmdl.
 46 50  0     0  0  0  0  0  0999 V2000
   -4.2567   -3.1043   13.5693 C   0  0  0  0  0  0  0  0  0  0  0  0
   -3.8736   -2.3605   14.7157 O   0  0  0  0  0  0  0  0  0  0  0  0
   -2.5257   -2.1110   14.8169 C   0  0  0  0  0  0  0  0  0  0  0  0
   -1.7458   -2.8699   15.6818 C   0  0  0  0  0  0  0  0  0  0  0  0
   -0.3904   -2.6103   15.8137 C   0  0  0  0  0  0  0  0  0  0  0  0
    0.2206   -1.5847   15.0868 C   0  0  0  0  0  0  0  0  0  0  0  0
    1.6037   -1.3593   15.3213 N   0  0  0  0  0  0  0  0  0  0  0  0
    2.5361   -0.4486   14.7616 C   0  0  0  0  0  0  0  0  0  0  0  0
    2.1814    0.3735   13.7239 N   0  0  0  0  0  0  0  0  0  0  0  0
    3.1138    1.2388   13.2174 C   0  0  0  0  0  0  0  0  0  0  0  0
    4.4183    1.2844   13.7022 C   0  0  0  0  0  0  0  0  0  0  0  0
    4.7470    0.4870   14.7610 N   0  0  0  0  0  0  0  0  0  0  0  0
    5.8980    0.3781   15.4861 C   0  0  0  0  0  0  0  0  0  0  0  0
    5.5879   -0.5236   16.5289 C   0  0  0  0  0  0  0  0  0  0  0  0
    4.3760   -1.0435   16.3736 N   0  0  0  0  0  0  0  0  0  0  0  0
    3.8368   -0.3913   15.3236 C   0  0  0  0  0  0  0  0  0  0  0  0
    2.6373    2.1616   12.1208 C   0  0  0  0  0  0  0  0  0  0  0  0
    1.3117    2.6428   12.1323 C   0  0  0  0  0  0  0  0  0  0  0  0
    0.8392    3.5282   11.1613 C   0  0  0  0  0  0  0  0  0  0  0  0
    1.7204    3.9285   10.1646 C   0  0  0  0  0  0  0  0  0  0  0  0
    1.5424    4.7860    9.1151 N   0  0  0  0  0  0  0  0  0  0  0  0
    2.7143    4.8525    8.3999 N   0  0  0  0  0  0  0  0  0  0  0  0
    3.5904    4.0382    9.0000 N   0  0  0  0  0  0  0  0  0  0  0  0
    3.0324    3.4382   10.1221 C   0  0  0  0  0  0  0  0  0  0  0  0
    3.5249    2.5426   11.0797 C   0  0  0  0  0  0  0  0  0  0  0  0
   -0.5551   -0.8189   14.1919 C   0  0  0  0  0  0  0  0  0  0  0  0
   -1.9443   -1.0883   14.0612 C   0  0  0  0  0  0  0  0  0  0  0  0
   -2.7530   -0.3558   13.2052 O   0  0  0  0  0  0  0  0  0  0  0  0
   -2.2324    0.6450   12.3520 C   0  0  0  0  0  0  0  0  0  0  0  0
   -5.3466   -3.2531   13.5755 H   0  0  0  0  0  0  0  0  0  0  0  0
   -3.9670   -2.5543   12.6618 H   0  0  0  0  0  0  0  0  0  0  0  0
   -3.7532   -4.0822   13.5818 H   0  0  0  0  0  0  0  0  0  0  0  0
   -2.1983   -3.6662   16.2542 H   0  0  0  0  0  0  0  0  0  0  0  0
    0.2025   -3.2098   16.4885 H   0  0  0  0  0  0  0  0  0  0  0  0
    1.2573    0.3419   13.3432 H   0  0  0  0  0  0  0  0  0  0  0  0
    5.1530    1.9352   13.2514 H   0  0  0  0  0  0  0  0  0  0  0  0
    6.8402    0.8731   15.3029 H   0  0  0  0  0  0  0  0  0  0  0  0
    6.2517   -0.7597   17.3475 H   0  0  0  0  0  0  0  0  0  0  0  0
    0.6425    2.3170   12.9149 H   0  0  0  0  0  0  0  0  0  0  0  0
   -0.1781    3.8900   11.1844 H   0  0  0  0  0  0  0  0  0  0  0  0
    4.5255    3.8818    8.6820 H   0  0  0  0  0  0  0  0  0  0  0  0
    4.5333    2.1594   11.0287 H   0  0  0  0  0  0  0  0  0  0  0  0
   -0.0965   -0.0331   13.6099 H   0  0  0  0  0  0  0  0  0  0  0  0
   -3.0505    1.0911   11.7674 H   0  0  0  0  0  0  0  0  0  0  0  0
   -1.7460    1.4250   12.9561 H   0  0  0  0  0  0  0  0  0  0  0  0
   -1.4955    0.1974   11.6689 H   0  0  0  0  0  0  0  0  0  0  0  0
  1  2  1  0  0  0  0
  2  3  1  0  0  0  0
  3  4  2  0  0  0  0
  3 27  1  0  0  0  0
  4  5  1  0  0  0  0
  5  6  2  0  0  0  0
  6  7  1  0  0  0  0
  6 26  1  0  0  0  0
  7  8  2  0  0  0  0
  8  9  1  0  0  0  0
  8 16  1  0  0  0  0
  9 10  1  0  0  0  0
 10 11  2  0  0  0  0
 10 17  1  0  0  0  0
 11 12  1  0  0  0  0
 12 13  1  0  0  0  0
 12 16  1  0  0  0  0
 13 14  2  0  0  0  0
 14 15  1  0  0  0  0
 15 16  2  0  0  0  0
 17 18  2  0  0  0  0
 17 25  1  0  0  0  0
 18 19  1  0  0  0  0
 19 20  2  0  0  0  0
 20 21  1  0  0  0  0
 20 24  1  0  0  0  0
 21 22  2  0  0  0  0
 22 23  1  0  0  0  0
 23 24  1  0  0  0  0
 24 25  2  0  0  0  0
 26 27  2  0  0  0  0
 27 28  1  0  0  0  0
 28 29  1  0  0  0  0
  1 30  1  0  0  0  0
  1 31  1  0  0  0  0
  1 32  1  0  0  0  0
  4 33  1  0  0  0  0
  5 34  1  0  0  0  0
  9 35  1  0  0  0  0
 11 36  1  0  0  0  0
 13 37  1  0  0  0  0
 14 38  1  0  0  0  0
 18 39  1  0  0  0  0
 19 40  1  0  0  0  0
 23 41  1  0  0  0  0
 25 42  1  0  0  0  0
 26 43  1  0  0  0  0
 29 44  1  0  0  0  0
 29 45  1  0  0  0  0
 29 46  1  0  0  0  0
M  END
> <IC50[nM]>
12.6

$$$$
CHEMBL3265019
  -OEChem-05192314333D
 Structure written by MMmdl.
 46 50  0     0  0  0  0  0  0999 V2000
   -4.2567   -3.1043   13.5693 C   0  0  0  0  0  0  0  0  0  0  0  0
   -3.8736   -2.3605   14.7157 O   0  0  0  0  0  0  0  0  0  0  0  0
   -2.5257   -2.1110   14.8169 C   0  0  0  0  0  0  0  0  0  0  0  0
   -1.7458   -2.8699   15.6818 C   0  0  0  0  0  0  0  0  0  0  0  0
   -0.3904   -2.6103   15.8137 C   0  0  0  0  0  0  0  0  0  0  0  0
    0.2206   -1.5847   15.0868 C   0  0  0  0  0  0  0  0  0  0  0  0
    1.6037   -1.3593   15.3213 N   0  0  0  0  0  0  0  0  0  0  0  0
    2.5361   -0.4486   14.7616 C   0  0  0  0  0  0  0  0  0  0  0  0
    2.1814    0.3735   13.7239 N   0  0  0  0  0  0  0  0  0  0  0  0
    3.1138    1.2388   13.2174 C   0  0  0  0  0  0  0  0  0  0  0  0
    4.4183    1.2844   13.7022 C   0  0  0  0  0  0  0  0  0  0  0  0
    4.7470    0.4870   14.7610 N   0  0  0  0  0  0  0  0  0  0  0  0
    5.8980    0.3781   15.4861 C   0  0  0  0  0  0  0  0  0  0  0  0
    5.5879   -0.5236   16.5289 C   0  0  0  0  0  0  0  0  0  0  0  0
    4.3760   -1.0435   16.3736 N   0  0  0  0  0  0  0  0  0  0  0  0
    3.8368   -0.3913   15.3236 C   0  0  0  0  0  0  0  0  0  0  0  0
    2.6373    2.1616   12.1208 C   0  0  0  0  0  0  0  0  0  0  0  0
    1.3117    2.6428   12.1323 C   0  0  0  0  0  0  0  0  0  0  0  0
    0.8392    3.5282   11.1613 C   0  0  0  0  0  0  0  0  0  0  0  0
    1.7204    3.9285   10.1646 C   0  0  0  0  0  0  0  0  0  0  0  0
    1.5424    4.7860    9.1151 N   0  0  0  0  0  0  0  0  0  0  0  0
    2.7143    4.8525    8.3999 N   0  0  0  0  0  0  0  0  0  0  0  0
    3.5904    4.0382    9.0000 N   0  0  0  0  0  0  0  0  0  0  0  0
    3.0324    3.4382   10.1221 C   0  0  0  0  0  0  0  0  0  0  0  0
    3.5249    2.5426   11.0797 C   0  0  0  0  0  0  0  0  0  0  0  0
   -0.5551   -0.8189   14.1919 C   0  0  0  0  0  0  0  0  0  0  0  0
   -1.9443   -1.0883   14.0612 C   0  0  0  0  0  0  0  0  0  0  0  0
   -2.7530   -0.3558   13.2052 O   0  0  0  0  0  0  0  0  0  0  0  0
   -2.2324    0.6450   12.3520 C   0  0  0  0  0  0  0  0  0  0  0  0
   -5.3466   -3.2531   13.5755 H   0  0  0  0  0  0  0  0  0  0  0  0
   -3.9670   -2.5543   12.6618 H   0  0  0  0  0  0  0  0  0  0  0  0
   -3.7532   -4.0822   13.5818 H   0  0  0  0  0  0  0  0  0  0  0  0
   -2.1983   -3.6662   16.2542 H   0  0  0  0  0  0  0  0  0  0  0  0
    0.2025   -3.2098   16.4885 H   0  0  0  0  0  0  0  0  0  0  0  0
    1.2573    0.3419   13.3432 H   0  0  0  0  0  0  0  0  0  0  0  0
    5.1530    1.9352   13.2514 H   0  0  0  0  0  0  0  0  0  0  0  0
    6.8402    0.8731   15.3029 H   0  0  0  0  0  0  0  0  0  0  0  0
    6.2517   -0.7597   17.3475 H   0  0  0  0  0  0  0  0  0  0  0  0
    0.6425    2.3170   12.9149 H   0  0  0  0  0  0  0  0  0  0  0  0
   -0.1781    3.8900   11.1844 H   0  0  0  0  0  0  0  0  0  0  0  0
    0.7004    5.2820    8.9031 H   0  0  0  0  0  0  0  0  0  0  0  0
    4.5333    2.1594   11.0287 H   0  0  0  0  0  0  0  0  0  0  0  0
   -0.0965   -0.0331   13.6099 H   0  0  0  0  0  0  0  0  0  0  0  0
   -3.0505    1.0911   11.7674 H   0  0  0  0  0  0  0  0  0  0  0  0
   -1.7460    1.4250   12.9561 H   0  0  0  0  0  0  0  0  0  0  0  0
   -1.4955    0.1974   11.6689 H   0  0  0  0  0  0  0  0  0  0  0  0
  1  2  1  0  0  0  0
  2  3  1  0  0  0  0
  3  4  2  0  0  0  0
  3 27  1  0  0  0  0
  4  5  1  0  0  0  0
  5  6  2  0  0  0  0
  6  7  1  0  0  0  0
  6 26  1  0  0  0  0
  7  8  2  0  0  0  0
  8  9  1  0  0  0  0
  8 16  1  0  0  0  0
  9 10  1  0  0  0  0
 10 11  2  0  0  0  0
 10 17  1  0  0  0  0
 11 12  1  0  0  0  0
 12 13  1  0  0  0  0
 12 16  1  0  0  0  0
 13 14  2  0  0  0  0
 14 15  1  0  0  0  0
 15 16  2  0  0  0  0
 17 18  2  0  0  0  0
 17 25  1  0  0  0  0
 18 19  1  0  0  0  0
 19 20  2  0  0  0  0
 20 21  1  0  0  0  0
 20 24  1  0  0  0  0
 21 22  1  0  0  0  0
 22 23  2  0  0  0  0
 23 24  1  0  0  0  0
 24 25  2  0  0  0  0
 26 27  2  0  0  0  0
 27 28  1  0  0  0  0
 28 29  1  0  0  0  0
  1 30  1  0  0  0  0
  1 31  1  0  0  0  0
  1 32  1  0  0  0  0
  4 33  1  0  0  0  0
  5 34  1  0  0  0  0
  9 35  1  0  0  0  0
 11 36  1  0  0  0  0
 13 37  1  0  0  0  0
 14 38  1  0  0  0  0
 18 39  1  0  0  0  0
 19 40  1  0  0  0  0
 21 41  1  0  0  0  0
 25 42  1  0  0  0  0
 26 43  1  0  0  0  0
 29 44  1  0  0  0  0
 29 45  1  0  0  0  0
 29 46  1  0  0  0  0
M  END
> <IC50[nM]>
12.6

$$$$
CHEMBL3265019
  -OEChem-05192314333D
 Structure written by MMmdl.
 46 50  0     0  0  0  0  0  0999 V2000
   -4.2567   -3.1043   13.5693 C   0  0  0  0  0  0  0  0  0  0  0  0
   -3.8736   -2.3605   14.7157 O   0  0  0  0  0  0  0  0  0  0  0  0
   -2.5257   -2.1110   14.8169 C   0  0  0  0  0  0  0  0  0  0  0  0
   -1.7458   -2.8699   15.6818 C   0  0  0  0  0  0  0  0  0  0  0  0
   -0.3904   -2.6103   15.8137 C   0  0  0  0  0  0  0  0  0  0  0  0
    0.2206   -1.5847   15.0868 C   0  0  0  0  0  0  0  0  0  0  0  0
    1.6037   -1.3593   15.3213 N   0  0  0  0  0  0  0  0  0  0  0  0
    2.5361   -0.4486   14.7616 C   0  0  0  0  0  0  0  0  0  0  0  0
    2.1814    0.3735   13.7239 N   0  0  0  0  0  0  0  0  0  0  0  0
    3.1138    1.2388   13.2174 C   0  0  0  0  0  0  0  0  0  0  0  0
    4.4183    1.2844   13.7022 C   0  0  0  0  0  0  0  0  0  0  0  0
    4.7470    0.4870   14.7610 N   0  0  0  0  0  0  0  0  0  0  0  0
    5.8980    0.3781   15.4861 C   0  0  0  0  0  0  0  0  0  0  0  0
    5.5879   -0.5236   16.5289 C   0  0  0  0  0  0  0  0  0  0  0  0
    4.3760   -1.0435   16.3736 N   0  0  0  0  0  0  0  0  0  0  0  0
    3.8368   -0.3913   15.3236 C   0  0  0  0  0  0  0  0  0  0  0  0
    2.6373    2.1616   12.1208 C   0  0  0  0  0  0  0  0  0  0  0  0
    1.3117    2.6428   12.1323 C   0  0  0  0  0  0  0  0  0  0  0  0
    0.8392    3.5282   11.1613 C   0  0  0  0  0  0  0  0  0  0  0  0
    1.7204    3.9285   10.1646 C   0  0  0  0  0  0  0  0  0  0  0  0
    1.5424    4.7860    9.1151 N   0  0  0  0  0  0  0  0  0  0  0  0
    2.7143    4.8525    8.3999 N   0  0  0  0  0  0  0  0  0  0  0  0
    3.5904    4.0382    9.0000 N   0  0  0  0  0  0  0  0  0  0  0  0
    3.0324    3.4382   10.1221 C   0  0  0  0  0  0  0  0  0  0  0  0
    3.5249    2.5426   11.0797 C   0  0  0  0  0  0  0  0  0  0  0  0
   -0.5551   -0.8189   14.1919 C   0  0  0  0  0  0  0  0  0  0  0  0
   -1.9443   -1.0883   14.0612 C   0  0  0  0  0  0  0  0  0  0  0  0
   -2.7530   -0.3558   13.2052 O   0  0  0  0  0  0  0  0  0  0  0  0
   -2.2324    0.6450   12.3520 C   0  0  0  0  0  0  0  0  0  0  0  0
   -5.3466   -3.2531   13.5755 H   0  0  0  0  0  0  0  0  0  0  0  0
   -3.9670   -2.5543   12.6618 H   0  0  0  0  0  0  0  0  0  0  0  0
   -3.7532   -4.0822   13.5818 H   0  0  0  0  0  0  0  0  0  0  0  0
   -2.1983   -3.6662   16.2542 H   0  0  0  0  0  0  0  0  0  0  0  0
    0.2025   -3.2098   16.4885 H   0  0  0  0  0  0  0  0  0  0  0  0
    5.0839    1.0107   12.8703 H   0  0  0  0  0  0  0  0  0  0  0  0
    4.6167    2.3234   14.0040 H   0  0  0  0  0  0  0  0  0  0  0  0
    6.8402    0.8731   15.3029 H   0  0  0  0  0  0  0  0  0  0  0  0
    6.2517   -0.7597   17.3475 H   0  0  0  0  0  0  0  0  0  0  0  0
    0.6425    2.3170   12.9149 H   0  0  0  0  0  0  0  0  0  0  0  0
   -0.1781    3.8900   11.1844 H   0  0  0  0  0  0  0  0  0  0  0  0
    2.8810    5.4059    7.5838 H   0  0  0  0  0  0  0  0  0  0  0  0
    4.5333    2.1594   11.0287 H   0  0  0  0  0  0  0  0  0  0  0  0
   -0.0965   -0.0331   13.6099 H   0  0  0  0  0  0  0  0  0  0  0  0
   -3.0505    1.0911   11.7674 H   0  0  0  0  0  0  0  0  0  0  0  0
   -1.7460    1.4250   12.9561 H   0  0  0  0  0  0  0  0  0  0  0  0
   -1.4955    0.1974   11.6689 H   0  0  0  0  0  0  0  0  0  0  0  0
  1  2  1  0  0  0  0
  2  3  1  0  0  0  0
  3  4  2  0  0  0  0
  3 27  1  0  0  0  0
  4  5  1  0  0  0  0
  5  6  2  0  0  0  0
  6  7  1  0  0  0  0
  6 26  1  0  0  0  0
  7  8  2  0  0  0  0
  8  9  1  0  0  0  0
  8 16  1  0  0  0  0
  9 10  2  0  0  0  0
 10 11  1  0  0  0  0
 10 17  1  0  0  0  0
 11 12  1  0  0  0  0
 12 13  1  0  0  0  0
 12 16  1  0  0  0  0
 13 14  2  0  0  0  0
 14 15  1  0  0  0  0
 15 16  2  0  0  0  0
 17 18  1  0  0  0  0
 17 25  2  0  0  0  0
 18 19  2  0  0  0  0
 19 20  1  0  0  0  0
 20 21  2  0  0  0  0
 20 24  1  0  0  0  0
 21 22  1  0  0  0  0
 22 23  1  0  0  0  0
 23 24  2  0  0  0  0
 24 25  1  0  0  0  0
 26 27  2  0  0  0  0
 27 28  1  0  0  0  0
 28 29  1  0  0  0  0
  1 30  1  0  0  0  0
  1 31  1  0  0  0  0
  1 32  1  0  0  0  0
  4 33  1  0  0  0  0
  5 34  1  0  0  0  0
 11 35  1  0  0  0  0
 11 36  1  0  0  0  0
 13 37  1  0  0  0  0
 14 38  1  0  0  0  0
 18 39  1  0  0  0  0
 19 40  1  0  0  0  0
 22 41  1  0  0  0  0
 25 42  1  0  0  0  0
 26 43  1  0  0  0  0
 29 44  1  0  0  0  0
 29 45  1  0  0  0  0
 29 46  1  0  0  0  0
M  END
> <IC50[nM]>
12.6

$$$$
CHEMBL3265019
  -OEChem-05192314333D
 Structure written by MMmdl.
 46 50  0     0  0  0  0  0  0999 V2000
   -4.2567   -3.1043   13.5693 C   0  0  0  0  0  0  0  0  0  0  0  0
   -3.8736   -2.3605   14.7157 O   0  0  0  0  0  0  0  0  0  0  0  0
   -2.5257   -2.1110   14.8169 C   0  0  0  0  0  0  0  0  0  0  0  0
   -1.7458   -2.8699   15.6818 C   0  0  0  0  0  0  0  0  0  0  0  0
   -0.3904   -2.6103   15.8137 C   0  0  0  0  0  0  0  0  0  0  0  0
    0.2206   -1.5847   15.0868 C   0  0  0  0  0  0  0  0  0  0  0  0
    1.6037   -1.3593   15.3213 N   0  0  0  0  0  0  0  0  0  0  0  0
    2.5361   -0.4486   14.7616 C   0  0  0  0  0  0  0  0  0  0  0  0
    2.1814    0.3735   13.7239 N   0  0  0  0  0  0  0  0  0  0  0  0
    3.1138    1.2388   13.2174 C   0  0  0  0  0  0  0  0  0  0  0  0
    4.4183    1.2844   13.7022 C   0  0  0  0  0  0  0  0  0  0  0  0
    4.7470    0.4870   14.7610 N   0  0  0  0  0  0  0  0  0  0  0  0
    5.8980    0.3781   15.4861 C   0  0  0  0  0  0  0  0  0  0  0  0
    5.5879   -0.5236   16.5289 C   0  0  0  0  0  0  0  0  0  0  0  0
    4.3760   -1.0435   16.3736 N   0  0  0  0  0  0  0  0  0  0  0  0
    3.8368   -0.3913   15.3236 C   0  0  0  0  0  0  0  0  0  0  0  0
    2.6373    2.1616   12.1208 C   0  0  0  0  0  0  0  0  0  0  0  0
    1.3117    2.6428   12.1323 C   0  0  0  0  0  0  0  0  0  0  0  0
    0.8392    3.5282   11.1613 C   0  0  0  0  0  0  0  0  0  0  0  0
    1.7204    3.9285   10.1646 C   0  0  0  0  0  0  0  0  0  0  0  0
    1.5424    4.7860    9.1151 N   0  0  0  0  0  0  0  0  0  0  0  0
    2.7143    4.8525    8.3999 N   0  0  0  0  0  0  0  0  0  0  0  0
    3.5904    4.0382    9.0000 N   0  0  0  0  0  0  0  0  0  0  0  0
    3.0324    3.4382   10.1221 C   0  0  0  0  0  0  0  0  0  0  0  0
    3.5249    2.5426   11.0797 C   0  0  0  0  0  0  0  0  0  0  0  0
   -0.5551   -0.8189   14.1919 C   0  0  0  0  0  0  0  0  0  0  0  0
   -1.9443   -1.0883   14.0612 C   0  0  0  0  0  0  0  0  0  0  0  0
   -2.7530   -0.3558   13.2052 O   0  0  0  0  0  0  0  0  0  0  0  0
   -2.2324    0.6450   12.3520 C   0  0  0  0  0  0  0  0  0  0  0  0
   -5.3466   -3.2531   13.5755 H   0  0  0  0  0  0  0  0  0  0  0  0
   -3.9670   -2.5543   12.6618 H   0  0  0  0  0  0  0  0  0  0  0  0
   -3.7532   -4.0822   13.5818 H   0  0  0  0  0  0  0  0  0  0  0  0
   -2.1983   -3.6662   16.2542 H   0  0  0  0  0  0  0  0  0  0  0  0
    0.2025   -3.2098   16.4885 H   0  0  0  0  0  0  0  0  0  0  0  0
    5.0839    1.0107   12.8703 H   0  0  0  0  0  0  0  0  0  0  0  0
    4.6167    2.3234   14.0040 H   0  0  0  0  0  0  0  0  0  0  0  0
    6.8402    0.8731   15.3029 H   0  0  0  0  0  0  0  0  0  0  0  0
    6.2517   -0.7597   17.3475 H   0  0  0  0  0  0  0  0  0  0  0  0
    0.6425    2.3170   12.9149 H   0  0  0  0  0  0  0  0  0  0  0  0
   -0.1781    3.8900   11.1844 H   0  0  0  0  0  0  0  0  0  0  0  0
    4.5255    3.8818    8.6820 H   0  0  0  0  0  0  0  0  0  0  0  0
    4.5333    2.1594   11.0287 H   0  0  0  0  0  0  0  0  0  0  0  0
   -0.0965   -0.0331   13.6099 H   0  0  0  0  0  0  0  0  0  0  0  0
   -3.0505    1.0911   11.7674 H   0  0  0  0  0  0  0  0  0  0  0  0
   -1.7460    1.4250   12.9561 H   0  0  0  0  0  0  0  0  0  0  0  0
   -1.4955    0.1974   11.6689 H   0  0  0  0  0  0  0  0  0  0  0  0
  1  2  1  0  0  0  0
  2  3  1  0  0  0  0
  3  4  2  0  0  0  0
  3 27  1  0  0  0  0
  4  5  1  0  0  0  0
  5  6  2  0  0  0  0
  6  7  1  0  0  0  0
  6 26  1  0  0  0  0
  7  8  2  0  0  0  0
  8  9  1  0  0  0  0
  8 16  1  0  0  0  0
  9 10  2  0  0  0  0
 10 11  1  0  0  0  0
 10 17  1  0  0  0  0
 11 12  1  0  0  0  0
 12 13  1  0  0  0  0
 12 16  1  0  0  0  0
 13 14  2  0  0  0  0
 14 15  1  0  0  0  0
 15 16  2  0  0  0  0
 17 18  2  0  0  0  0
 17 25  1  0  0  0  0
 18 19  1  0  0  0  0
 19 20  2  0  0  0  0
 20 21  1  0  0  0  0
 20 24  1  0  0  0  0
 21 22  2  0  0  0  0
 22 23  1  0  0  0  0
 23 24  1  0  0  0  0
 24 25  2  0  0  0  0
 26 27  2  0  0  0  0
 27 28  1  0  0  0  0
 28 29  1  0  0  0  0
  1 30  1  0  0  0  0
  1 31  1  0  0  0  0
  1 32  1  0  0  0  0
  4 33  1  0  0  0  0
  5 34  1  0  0  0  0
 11 35  1  0  0  0  0
 11 36  1  0  0  0  0
 13 37  1  0  0  0  0
 14 38  1  0  0  0  0
 18 39  1  0  0  0  0
 19 40  1  0  0  0  0
 23 41  1  0  0  0  0
 25 42  1  0  0  0  0
 26 43  1  0  0  0  0
 29 44  1  0  0  0  0
 29 45  1  0  0  0  0
 29 46  1  0  0  0  0
M  END
> <IC50[nM]>
12.6

$$$$
CHEMBL3265019
  -OEChem-05192314333D
 Structure written by MMmdl.
 46 50  0     0  0  0  0  0  0999 V2000
   -4.2567   -3.1043   13.5693 C   0  0  0  0  0  0  0  0  0  0  0  0
   -3.8736   -2.3605   14.7157 O   0  0  0  0  0  0  0  0  0  0  0  0
   -2.5257   -2.1110   14.8169 C   0  0  0  0  0  0  0  0  0  0  0  0
   -1.7458   -2.8699   15.6818 C   0  0  0  0  0  0  0  0  0  0  0  0
   -0.3904   -2.6103   15.8137 C   0  0  0  0  0  0  0  0  0  0  0  0
    0.2206   -1.5847   15.0868 C   0  0  0  0  0  0  0  0  0  0  0  0
    1.6037   -1.3593   15.3213 N   0  0  0  0  0  0  0  0  0  0  0  0
    2.5361   -0.4486   14.7616 C   0  0  0  0  0  0  0  0  0  0  0  0
    2.1814    0.3735   13.7239 N   0  0  0  0  0  0  0  0  0  0  0  0
    3.1138    1.2388   13.2174 C   0  0  0  0  0  0  0  0  0  0  0  0
    4.4183    1.2844   13.7022 C   0  0  0  0  0  0  0  0  0  0  0  0
    4.7470    0.4870   14.7610 N   0  0  0  0  0  0  0  0  0  0  0  0
    5.8980    0.3781   15.4861 C   0  0  0  0  0  0  0  0  0  0  0  0
    5.5879   -0.5236   16.5289 C   0  0  0  0  0  0  0  0  0  0  0  0
    4.3760   -1.0435   16.3736 N   0  0  0  0  0  0  0  0  0  0  0  0
    3.8368   -0.3913   15.3236 C   0  0  0  0  0  0  0  0  0  0  0  0
    2.6373    2.1616   12.1208 C   0  0  0  0  0  0  0  0  0  0  0  0
    1.3117    2.6428   12.1323 C   0  0  0  0  0  0  0  0  0  0  0  0
    0.8392    3.5282   11.1613 C   0  0  0  0  0  0  0  0  0  0  0  0
    1.7204    3.9285   10.1646 C   0  0  0  0  0  0  0  0  0  0  0  0
    1.5424    4.7860    9.1151 N   0  0  0  0  0  0  0  0  0  0  0  0
    2.7143    4.8525    8.3999 N   0  0  0  0  0  0  0  0  0  0  0  0
    3.5904    4.0382    9.0000 N   0  0  0  0  0  0  0  0  0  0  0  0
    3.0324    3.4382   10.1221 C   0  0  0  0  0  0  0  0  0  0  0  0
    3.5249    2.5426   11.0797 C   0  0  0  0  0  0  0  0  0  0  0  0
   -0.5551   -0.8189   14.1919 C   0  0  0  0  0  0  0  0  0  0  0  0
   -1.9443   -1.0883   14.0612 C   0  0  0  0  0  0  0  0  0  0  0  0
   -2.7530   -0.3558   13.2052 O   0  0  0  0  0  0  0  0  0  0  0  0
   -2.2324    0.6450   12.3520 C   0  0  0  0  0  0  0  0  0  0  0  0
   -5.3466   -3.2531   13.5755 H   0  0  0  0  0  0  0  0  0  0  0  0
   -3.9670   -2.5543   12.6618 H   0  0  0  0  0  0  0  0  0  0  0  0
   -3.7532   -4.0822   13.5818 H   0  0  0  0  0  0  0  0  0  0  0  0
   -2.1983   -3.6662   16.2542 H   0  0  0  0  0  0  0  0  0  0  0  0
    0.2025   -3.2098   16.4885 H   0  0  0  0  0  0  0  0  0  0  0  0
    5.0839    1.0107   12.8703 H   0  0  0  0  0  0  0  0  0  0  0  0
    4.6167    2.3234   14.0040 H   0  0  0  0  0  0  0  0  0  0  0  0
    6.8402    0.8731   15.3029 H   0  0  0  0  0  0  0  0  0  0  0  0
    6.2517   -0.7597   17.3475 H   0  0  0  0  0  0  0  0  0  0  0  0
    0.6425    2.3170   12.9149 H   0  0  0  0  0  0  0  0  0  0  0  0
   -0.1781    3.8900   11.1844 H   0  0  0  0  0  0  0  0  0  0  0  0
    0.7004    5.2820    8.9031 H   0  0  0  0  0  0  0  0  0  0  0  0
    4.5333    2.1594   11.0287 H   0  0  0  0  0  0  0  0  0  0  0  0
   -0.0965   -0.0331   13.6099 H   0  0  0  0  0  0  0  0  0  0  0  0
   -3.0505    1.0911   11.7674 H   0  0  0  0  0  0  0  0  0  0  0  0
   -1.7460    1.4250   12.9561 H   0  0  0  0  0  0  0  0  0  0  0  0
   -1.4955    0.1974   11.6689 H   0  0  0  0  0  0  0  0  0  0  0  0
  1  2  1  0  0  0  0
  2  3  1  0  0  0  0
  3  4  2  0  0  0  0
  3 27  1  0  0  0  0
  4  5  1  0  0  0  0
  5  6  2  0  0  0  0
  6  7  1  0  0  0  0
  6 26  1  0  0  0  0
  7  8  2  0  0  0  0
  8  9  1  0  0  0  0
  8 16  1  0  0  0  0
  9 10  2  0  0  0  0
 10 11  1  0  0  0  0
 10 17  1  0  0  0  0
 11 12  1  0  0  0  0
 12 13  1  0  0  0  0
 12 16  1  0  0  0  0
 13 14  2  0  0  0  0
 14 15  1  0  0  0  0
 15 16  2  0  0  0  0
 17 18  2  0  0  0  0
 17 25  1  0  0  0  0
 18 19  1  0  0  0  0
 19 20  2  0  0  0  0
 20 21  1  0  0  0  0
 20 24  1  0  0  0  0
 21 22  1  0  0  0  0
 22 23  2  0  0  0  0
 23 24  1  0  0  0  0
 24 25  2  0  0  0  0
 26 27  2  0  0  0  0
 27 28  1  0  0  0  0
 28 29  1  0  0  0  0
  1 30  1  0  0  0  0
  1 31  1  0  0  0  0
  1 32  1  0  0  0  0
  4 33  1  0  0  0  0
  5 34  1  0  0  0  0
 11 35  1  0  0  0  0
 11 36  1  0  0  0  0
 13 37  1  0  0  0  0
 14 38  1  0  0  0  0
 18 39  1  0  0  0  0
 19 40  1  0  0  0  0
 21 41  1  0  0  0  0
 25 42  1  0  0  0  0
 26 43  1  0  0  0  0
 29 44  1  0  0  0  0
 29 45  1  0  0  0  0
 29 46  1  0  0  0  0
M  END
> <IC50[nM]>
12.6

$$$$
CHEMBL3265019
  -OEChem-05192314333D
 Structure written by MMmdl.
 46 50  0     1  0  0  0  0  0999 V2000
   -4.2567   -3.1043   13.5693 C   0  0  0  0  0  0  0  0  0  0  0  0
   -3.8736   -2.3605   14.7157 O   0  0  0  0  0  0  0  0  0  0  0  0
   -2.5257   -2.1110   14.8169 C   0  0  3  0  0  0  0  0  0  0  0  0
   -1.7458   -2.8699   15.6818 C   0  0  0  0  0  0  0  0  0  0  0  0
   -0.3904   -2.6103   15.8137 C   0  0  0  0  0  0  0  0  0  0  0  0
    0.2206   -1.5847   15.0868 C   0  0  0  0  0  0  0  0  0  0  0  0
    1.6037   -1.3593   15.3213 N   0  0  0  0  0  0  0  0  0  0  0  0
    2.5361   -0.4486   14.7616 C   0  0  0  0  0  0  0  0  0  0  0  0
    2.1814    0.3735   13.7239 N   0  0  0  0  0  0  0  0  0  0  0  0
    3.1138    1.2388   13.2174 C   0  0  0  0  0  0  0  0  0  0  0  0
    4.4183    1.2844   13.7022 C   0  0  0  0  0  0  0  0  0  0  0  0
    4.7470    0.4870   14.7610 N   0  0  0  0  0  0  0  0  0  0  0  0
    5.8980    0.3781   15.4861 C   0  0  0  0  0  0  0  0  0  0  0  0
    5.5879   -0.5236   16.5289 C   0  0  0  0  0  0  0  0  0  0  0  0
    4.3760   -1.0435   16.3736 N   0  0  0  0  0  0  0  0  0  0  0  0
    3.8368   -0.3913   15.3236 C   0  0  0  0  0  0  0  0  0  0  0  0
    2.6373    2.1616   12.1208 C   0  0  0  0  0  0  0  0  0  0  0  0
    1.3117    2.6428   12.1323 C   0  0  0  0  0  0  0  0  0  0  0  0
    0.8392    3.5282   11.1613 C   0  0  0  0  0  0  0  0  0  0  0  0
    1.7204    3.9285   10.1646 C   0  0  0  0  0  0  0  0  0  0  0  0
    1.5424    4.7860    9.1151 N   0  0  0  0  0  0  0  0  0  0  0  0
    2.7143    4.8525    8.3999 N   0  0  0  0  0  0  0  0  0  0  0  0
    3.5904    4.0382    9.0000 N   0  0  0  0  0  0  0  0  0  0  0  0
    3.0324    3.4382   10.1221 C   0  0  0  0  0  0  0  0  0  0  0  0
    3.5249    2.5426   11.0797 C   0  0  0  0  0  0  0  0  0  0  0  0
   -0.5551   -0.8189   14.1919 C   0  0  0  0  0  0  0  0  0  0  0  0
   -1.9443   -1.0883   14.0612 C   0  0  0  0  0  0  0  0  0  0  0  0
   -2.7530   -0.3558   13.2052 O   0  0  0  0  0  0  0  0  0  0  0  0
   -2.2324    0.6450   12.3520 C   0  0  0  0  0  0  0  0  0  0  0  0
   -5.3466   -3.2531   13.5755 H   0  0  0  0  0  0  0  0  0  0  0  0
   -3.9670   -2.5543   12.6618 H   0  0  0  0  0  0  0  0  0  0  0  0
   -3.7532   -4.0822   13.5818 H   0  0  0  0  0  0  0  0  0  0  0  0
   -2.3287   -2.8271   14.0055 H   0  0  0  0  0  0  0  0  0  0  0  0
   -2.1983   -3.6662   16.2542 H   0  0  0  0  0  0  0  0  0  0  0  0
    0.2025   -3.2098   16.4885 H   0  0  0  0  0  0  0  0  0  0  0  0
    5.1530    1.9352   13.2514 H   0  0  0  0  0  0  0  0  0  0  0  0
    6.8402    0.8731   15.3029 H   0  0  0  0  0  0  0  0  0  0  0  0
    6.2517   -0.7597   17.3475 H   0  0  0  0  0  0  0  0  0  0  0  0
    0.6425    2.3170   12.9149 H   0  0  0  0  0  0  0  0  0  0  0  0
   -0.1781    3.8900   11.1844 H   0  0  0  0  0  0  0  0  0  0  0  0
    2.8810    5.4059    7.5838 H   0  0  0  0  0  0  0  0  0  0  0  0
    4.5333    2.1594   11.0287 H   0  0  0  0  0  0  0  0  0  0  0  0
   -0.0965   -0.0331   13.6099 H   0  0  0  0  0  0  0  0  0  0  0  0
   -3.0505    1.0911   11.7674 H   0  0  0  0  0  0  0  0  0  0  0  0
   -1.7460    1.4250   12.9561 H   0  0  0  0  0  0  0  0  0  0  0  0
   -1.4955    0.1974   11.6689 H   0  0  0  0  0  0  0  0  0  0  0  0
  1  2  1  0  0  0  0
  2  3  1  0  0  0  0
  3  4  1  0  0  0  0
  3 27  1  0  0  0  0
  4  5  2  0  0  0  0
  5  6  1  0  0  0  0
  6  7  2  0  0  0  0
  6 26  1  0  0  0  0
  7  8  1  0  0  0  0
  8  9  2  0  0  0  0
  8 16  1  0  0  0  0
  9 10  1  0  0  0  0
 10 11  2  0  0  0  0
 10 17  1  0  0  0  0
 11 12  1  0  0  0  0
 12 13  1  0  0  0  0
 12 16  1  0  0  0  0
 13 14  2  0  0  0  0
 14 15  1  0  0  0  0
 15 16  2  0  0  0  0
 17 18  1  0  0  0  0
 17 25  2  0  0  0  0
 18 19  2  0  0  0  0
 19 20  1  0  0  0  0
 20 21  2  0  0  0  0
 20 24  1  0  0  0  0
 21 22  1  0  0  0  0
 22 23  1  0  0  0  0
 23 24  2  0  0  0  0
 24 25  1  0  0  0  0
 26 27  2  0  0  0  0
 27 28  1  0  0  0  0
 28 29  1  0  0  0  0
  1 30  1  0  0  0  0
  1 31  1  0  0  0  0
  1 32  1  0  0  0  0
  3 33  1  0  0  0  0
  4 34  1  0  0  0  0
  5 35  1  0  0  0  0
 11 36  1  0  0  0  0
 13 37  1  0  0  0  0
 14 38  1  0  0  0  0
 18 39  1  0  0  0  0
 19 40  1  0  0  0  0
 22 41  1  0  0  0  0
 25 42  1  0  0  0  0
 26 43  1  0  0  0  0
 29 44  1  0  0  0  0
 29 45  1  0  0  0  0
 29 46  1  0  0  0  0
M  END
> <IC50[nM]>
12.6

$$$$
CHEMBL3265019
  -OEChem-05192314333D
 Structure written by MMmdl.
 46 50  0     0  0  0  0  0  0999 V2000
   -4.2567   -3.1043   13.5693 C   0  0  0  0  0  0  0  0  0  0  0  0
   -3.8736   -2.3605   14.7157 O   0  0  0  0  0  0  0  0  0  0  0  0
   -2.5257   -2.1110   14.8169 C   0  0  0  0  0  0  0  0  0  0  0  0
   -1.7458   -2.8699   15.6818 C   0  0  0  0  0  0  0  0  0  0  0  0
   -0.3904   -2.6103   15.8137 C   0  0  0  0  0  0  0  0  0  0  0  0
    0.2206   -1.5847   15.0868 C   0  0  0  0  0  0  0  0  0  0  0  0
    1.6037   -1.3593   15.3213 N   0  0  0  0  0  0  0  0  0  0  0  0
    2.5361   -0.4486   14.7616 C   0  0  0  0  0  0  0  0  0  0  0  0
    2.1814    0.3735   13.7239 N   0  0  0  0  0  0  0  0  0  0  0  0
    3.1138    1.2388   13.2174 C   0  0  0  0  0  0  0  0  0  0  0  0
    4.4183    1.2844   13.7022 C   0  0  0  0  0  0  0  0  0  0  0  0
    4.7470    0.4870   14.7610 N   0  0  0  0  0  0  0  0  0  0  0  0
    5.8980    0.3781   15.4861 C   0  0  0  0  0  0  0  0  0  0  0  0
    5.5879   -0.5236   16.5289 C   0  0  0  0  0  0  0  0  0  0  0  0
    4.3760   -1.0435   16.3736 N   0  0  0  0  0  0  0  0  0  0  0  0
    3.8368   -0.3913   15.3236 C   0  0  0  0  0  0  0  0  0  0  0  0
    2.6373    2.1616   12.1208 C   0  0  0  0  0  0  0  0  0  0  0  0
    1.3117    2.6428   12.1323 C   0  0  0  0  0  0  0  0  0  0  0  0
    0.8392    3.5282   11.1613 C   0  0  0  0  0  0  0  0  0  0  0  0
    1.7204    3.9285   10.1646 C   0  0  0  0  0  0  0  0  0  0  0  0
    1.5424    4.7860    9.1151 N   0  0  0  0  0  0  0  0  0  0  0  0
    2.7143    4.8525    8.3999 N   0  0  0  0  0  0  0  0  0  0  0  0
    3.5904    4.0382    9.0000 N   0  0  0  0  0  0  0  0  0  0  0  0
    3.0324    3.4382   10.1221 C   0  0  0  0  0  0  0  0  0  0  0  0
    3.5249    2.5426   11.0797 C   0  0  0  0  0  0  0  0  0  0  0  0
   -0.5551   -0.8189   14.1919 C   0  0  0  0  0  0  0  0  0  0  0  0
   -1.9443   -1.0883   14.0612 C   0  0  0  0  0  0  0  0  0  0  0  0
   -2.7530   -0.3558   13.2052 O   0  0  0  0  0  0  0  0  0  0  0  0
   -2.2324    0.6450   12.3520 C   0  0  0  0  0  0  0  0  0  0  0  0
   -5.3466   -3.2531   13.5755 H   0  0  0  0  0  0  0  0  0  0  0  0
   -3.9670   -2.5543   12.6618 H   0  0  0  0  0  0  0  0  0  0  0  0
   -3.7532   -4.0822   13.5818 H   0  0  0  0  0  0  0  0  0  0  0  0
   -2.1983   -3.6662   16.2542 H   0  0  0  0  0  0  0  0  0  0  0  0
   -0.2170   -2.3864   16.8766 H   0  0  0  0  0  0  0  0  0  0  0  0
    0.1335   -3.5393   15.5445 H   0  0  0  0  0  0  0  0  0  0  0  0
    5.1530    1.9352   13.2514 H   0  0  0  0  0  0  0  0  0  0  0  0
    6.8402    0.8731   15.3029 H   0  0  0  0  0  0  0  0  0  0  0  0
    6.2517   -0.7597   17.3475 H   0  0  0  0  0  0  0  0  0  0  0  0
    0.6425    2.3170   12.9149 H   0  0  0  0  0  0  0  0  0  0  0  0
   -0.1781    3.8900   11.1844 H   0  0  0  0  0  0  0  0  0  0  0  0
    2.8810    5.4059    7.5838 H   0  0  0  0  0  0  0  0  0  0  0  0
    4.5333    2.1594   11.0287 H   0  0  0  0  0  0  0  0  0  0  0  0
   -0.0965   -0.0331   13.6099 H   0  0  0  0  0  0  0  0  0  0  0  0
   -3.0505    1.0911   11.7674 H   0  0  0  0  0  0  0  0  0  0  0  0
   -1.7460    1.4250   12.9561 H   0  0  0  0  0  0  0  0  0  0  0  0
   -1.4955    0.1974   11.6689 H   0  0  0  0  0  0  0  0  0  0  0  0
  1  2  1  0  0  0  0
  2  3  1  0  0  0  0
  3  4  2  0  0  0  0
  3 27  1  0  0  0  0
  4  5  1  0  0  0  0
  5  6  1  0  0  0  0
  6  7  2  0  0  0  0
  6 26  1  0  0  0  0
  7  8  1  0  0  0  0
  8  9  2  0  0  0  0
  8 16  1  0  0  0  0
  9 10  1  0  0  0  0
 10 11  2  0  0  0  0
 10 17  1  0  0  0  0
 11 12  1  0  0  0  0
 12 13  1  0  0  0  0
 12 16  1  0  0  0  0
 13 14  2  0  0  0  0
 14 15  1  0  0  0  0
 15 16  2  0  0  0  0
 17 18  1  0  0  0  0
 17 25  2  0  0  0  0
 18 19  2  0  0  0  0
 19 20  1  0  0  0  0
 20 21  2  0  0  0  0
 20 24  1  0  0  0  0
 21 22  1  0  0  0  0
 22 23  1  0  0  0  0
 23 24  2  0  0  0  0
 24 25  1  0  0  0  0
 26 27  2  0  0  0  0
 27 28  1  0  0  0  0
 28 29  1  0  0  0  0
  1 30  1  0  0  0  0
  1 31  1  0  0  0  0
  1 32  1  0  0  0  0
  4 33  1  0  0  0  0
  5 34  1  0  0  0  0
  5 35  1  0  0  0  0
 11 36  1  0  0  0  0
 13 37  1  0  0  0  0
 14 38  1  0  0  0  0
 18 39  1  0  0  0  0
 19 40  1  0  0  0  0
 22 41  1  0  0  0  0
 25 42  1  0  0  0  0
 26 43  1  0  0  0  0
 29 44  1  0  0  0  0
 29 45  1  0  0  0  0
 29 46  1  0  0  0  0
M  END
> <IC50[nM]>
12.6

$$$$
CHEMBL3265019
  -OEChem-05192314333D
 Structure written by MMmdl.
 46 50  0     0  0  0  0  0  0999 V2000
   -4.2567   -3.1043   13.5693 C   0  0  0  0  0  0  0  0  0  0  0  0
   -3.8736   -2.3605   14.7157 O   0  0  0  0  0  0  0  0  0  0  0  0
   -2.5257   -2.1110   14.8169 C   0  0  0  0  0  0  0  0  0  0  0  0
   -1.7458   -2.8699   15.6818 C   0  0  0  0  0  0  0  0  0  0  0  0
   -0.3904   -2.6103   15.8137 C   0  0  0  0  0  0  0  0  0  0  0  0
    0.2206   -1.5847   15.0868 C   0  0  0  0  0  0  0  0  0  0  0  0
    1.6037   -1.3593   15.3213 N   0  0  0  0  0  0  0  0  0  0  0  0
    2.5361   -0.4486   14.7616 C   0  0  0  0  0  0  0  0  0  0  0  0
    2.1814    0.3735   13.7239 N   0  0  0  0  0  0  0  0  0  0  0  0
    3.1138    1.2388   13.2174 C   0  0  0  0  0  0  0  0  0  0  0  0
    4.4183    1.2844   13.7022 C   0  0  0  0  0  0  0  0  0  0  0  0
    4.7470    0.4870   14.7610 N   0  0  0  0  0  0  0  0  0  0  0  0
    5.8980    0.3781   15.4861 C   0  0  0  0  0  0  0  0  0  0  0  0
    5.5879   -0.5236   16.5289 C   0  0  0  0  0  0  0  0  0  0  0  0
    4.3760   -1.0435   16.3736 N   0  0  0  0  0  0  0  0  0  0  0  0
    3.8368   -0.3913   15.3236 C   0  0  0  0  0  0  0  0  0  0  0  0
    2.6373    2.1616   12.1208 C   0  0  0  0  0  0  0  0  0  0  0  0
    1.3117    2.6428   12.1323 C   0  0  0  0  0  0  0  0  0  0  0  0
    0.8392    3.5282   11.1613 C   0  0  0  0  0  0  0  0  0  0  0  0
    1.7204    3.9285   10.1646 C   0  0  0  0  0  0  0  0  0  0  0  0
    1.5424    4.7860    9.1151 N   0  0  0  0  0  0  0  0  0  0  0  0
    2.7143    4.8525    8.3999 N   0  0  0  0  0  0  0  0  0  0  0  0
    3.5904    4.0382    9.0000 N   0  0  0  0  0  0  0  0  0  0  0  0
    3.0324    3.4382   10.1221 C   0  0  0  0  0  0  0  0  0  0  0  0
    3.5249    2.5426   11.0797 C   0  0  0  0  0  0  0  0  0  0  0  0
   -0.5551   -0.8189   14.1919 C   0  0  0  0  0  0  0  0  0  0  0  0
   -1.9443   -1.0883   14.0612 C   0  0  0  0  0  0  0  0  0  0  0  0
   -2.7530   -0.3558   13.2052 O   0  0  0  0  0  0  0  0  0  0  0  0
   -2.2324    0.6450   12.3520 C   0  0  0  0  0  0  0  0  0  0  0  0
   -5.3466   -3.2531   13.5755 H   0  0  0  0  0  0  0  0  0  0  0  0
   -3.9670   -2.5543   12.6618 H   0  0  0  0  0  0  0  0  0  0  0  0
   -3.7532   -4.0822   13.5818 H   0  0  0  0  0  0  0  0  0  0  0  0
   -2.1983   -3.6662   16.2542 H   0  0  0  0  0  0  0  0  0  0  0  0
    0.2025   -3.2098   16.4885 H   0  0  0  0  0  0  0  0  0  0  0  0
    5.1530    1.9352   13.2514 H   0  0  0  0  0  0  0  0  0  0  0  0
    6.8402    0.8731   15.3029 H   0  0  0  0  0  0  0  0  0  0  0  0
    6.2517   -0.7597   17.3475 H   0  0  0  0  0  0  0  0  0  0  0  0
    0.6425    2.3170   12.9149 H   0  0  0  0  0  0  0  0  0  0  0  0
   -0.1781    3.8900   11.1844 H   0  0  0  0  0  0  0  0  0  0  0  0
    2.8810    5.4059    7.5838 H   0  0  0  0  0  0  0  0  0  0  0  0
    4.5333    2.1594   11.0287 H   0  0  0  0  0  0  0  0  0  0  0  0
   -0.4612    0.2313   14.5053 H   0  0  0  0  0  0  0  0  0  0  0  0
   -0.1097   -0.9450   13.1940 H   0  0  0  0  0  0  0  0  0  0  0  0
   -3.0505    1.0911   11.7674 H   0  0  0  0  0  0  0  0  0  0  0  0
   -1.7460    1.4250   12.9561 H   0  0  0  0  0  0  0  0  0  0  0  0
   -1.4955    0.1974   11.6689 H   0  0  0  0  0  0  0  0  0  0  0  0
  1  2  1  0  0  0  0
  2  3  1  0  0  0  0
  3  4  1  0  0  0  0
  3 27  2  0  0  0  0
  4  5  2  0  0  0  0
  5  6  1  0  0  0  0
  6  7  2  0  0  0  0
  6 26  1  0  0  0  0
  7  8  1  0  0  0  0
  8  9  2  0  0  0  0
  8 16  1  0  0  0  0
  9 10  1  0  0  0  0
 10 11  2  0  0  0  0
 10 17  1  0  0  0  0
 11 12  1  0  0  0  0
 12 13  1  0  0  0  0
 12 16  1  0  0  0  0
 13 14  2  0  0  0  0
 14 15  1  0  0  0  0
 15 16  2  0  0  0  0
 17 18  1  0  0  0  0
 17 25  2  0  0  0  0
 18 19  2  0  0  0  0
 19 20  1  0  0  0  0
 20 21  2  0  0  0  0
 20 24  1  0  0  0  0
 21 22  1  0  0  0  0
 22 23  1  0  0  0  0
 23 24  2  0  0  0  0
 24 25  1  0  0  0  0
 26 27  1  0  0  0  0
 27 28  1  0  0  0  0
 28 29  1  0  0  0  0
  1 30  1  0  0  0  0
  1 31  1  0  0  0  0
  1 32  1  0  0  0  0
  4 33  1  0  0  0  0
  5 34  1  0  0  0  0
 11 35  1  0  0  0  0
 13 36  1  0  0  0  0
 14 37  1  0  0  0  0
 18 38  1  0  0  0  0
 19 39  1  0  0  0  0
 22 40  1  0  0  0  0
 25 41  1  0  0  0  0
 26 42  1  0  0  0  0
 26 43  1  0  0  0  0
 29 44  1  0  0  0  0
 29 45  1  0  0  0  0
 29 46  1  0  0  0  0
M  END
> <IC50[nM]>
12.6

$$$$
CHEMBL3265019
  -OEChem-05192314333D
 Structure written by MMmdl.
 46 50  0     1  0  0  0  0  0999 V2000
   -4.2567   -3.1043   13.5693 C   0  0  0  0  0  0  0  0  0  0  0  0
   -3.8736   -2.3605   14.7157 O   0  0  0  0  0  0  0  0  0  0  0  0
   -2.5257   -2.1110   14.8169 C   0  0  3  0  0  0  0  0  0  0  0  0
   -1.7458   -2.8699   15.6818 C   0  0  0  0  0  0  0  0  0  0  0  0
   -0.3904   -2.6103   15.8137 C   0  0  0  0  0  0  0  0  0  0  0  0
    0.2206   -1.5847   15.0868 C   0  0  0  0  0  0  0  0  0  0  0  0
    1.6037   -1.3593   15.3213 N   0  0  0  0  0  0  0  0  0  0  0  0
    2.5361   -0.4486   14.7616 C   0  0  0  0  0  0  0  0  0  0  0  0
    2.1814    0.3735   13.7239 N   0  0  0  0  0  0  0  0  0  0  0  0
    3.1138    1.2388   13.2174 C   0  0  0  0  0  0  0  0  0  0  0  0
    4.4183    1.2844   13.7022 C   0  0  0  0  0  0  0  0  0  0  0  0
    4.7470    0.4870   14.7610 N   0  0  0  0  0  0  0  0  0  0  0  0
    5.8980    0.3781   15.4861 C   0  0  0  0  0  0  0  0  0  0  0  0
    5.5879   -0.5236   16.5289 C   0  0  0  0  0  0  0  0  0  0  0  0
    4.3760   -1.0435   16.3736 N   0  0  0  0  0  0  0  0  0  0  0  0
    3.8368   -0.3913   15.3236 C   0  0  0  0  0  0  0  0  0  0  0  0
    2.6373    2.1616   12.1208 C   0  0  0  0  0  0  0  0  0  0  0  0
    1.3117    2.6428   12.1323 C   0  0  0  0  0  0  0  0  0  0  0  0
    0.8392    3.5282   11.1613 C   0  0  0  0  0  0  0  0  0  0  0  0
    1.7204    3.9285   10.1646 C   0  0  0  0  0  0  0  0  0  0  0  0
    1.5424    4.7860    9.1151 N   0  0  0  0  0  0  0  0  0  0  0  0
    2.7143    4.8525    8.3999 N   0  0  0  0  0  0  0  0  0  0  0  0
    3.5904    4.0382    9.0000 N   0  0  0  0  0  0  0  0  0  0  0  0
    3.0324    3.4382   10.1221 C   0  0  0  0  0  0  0  0  0  0  0  0
    3.5249    2.5426   11.0797 C   0  0  0  0  0  0  0  0  0  0  0  0
   -0.5551   -0.8189   14.1919 C   0  0  0  0  0  0  0  0  0  0  0  0
   -1.9443   -1.0883   14.0612 C   0  0  0  0  0  0  0  0  0  0  0  0
   -2.7530   -0.3558   13.2052 O   0  0  0  0  0  0  0  0  0  0  0  0
   -2.2324    0.6450   12.3520 C   0  0  0  0  0  0  0  0  0  0  0  0
   -5.3466   -3.2531   13.5755 H   0  0  0  0  0  0  0  0  0  0  0  0
   -3.9670   -2.5543   12.6618 H   0  0  0  0  0  0  0  0  0  0  0  0
   -3.7532   -4.0822   13.5818 H   0  0  0  0  0  0  0  0  0  0  0  0
   -2.3287   -2.8271   14.0055 H   0  0  0  0  0  0  0  0  0  0  0  0
   -2.1983   -3.6662   16.2542 H   0  0  0  0  0  0  0  0  0  0  0  0
    0.2025   -3.2098   16.4885 H   0  0  0  0  0  0  0  0  0  0  0  0
    5.1530    1.9352   13.2514 H   0  0  0  0  0  0  0  0  0  0  0  0
    6.8402    0.8731   15.3029 H   0  0  0  0  0  0  0  0  0  0  0  0
    6.2517   -0.7597   17.3475 H   0  0  0  0  0  0  0  0  0  0  0  0
    0.6425    2.3170   12.9149 H   0  0  0  0  0  0  0  0  0  0  0  0
   -0.1781    3.8900   11.1844 H   0  0  0  0  0  0  0  0  0  0  0  0
    4.5255    3.8818    8.6820 H   0  0  0  0  0  0  0  0  0  0  0  0
    4.5333    2.1594   11.0287 H   0  0  0  0  0  0  0  0  0  0  0  0
   -0.0965   -0.0331   13.6099 H   0  0  0  0  0  0  0  0  0  0  0  0
   -3.0505    1.0911   11.7674 H   0  0  0  0  0  0  0  0  0  0  0  0
   -1.7460    1.4250   12.9561 H   0  0  0  0  0  0  0  0  0  0  0  0
   -1.4955    0.1974   11.6689 H   0  0  0  0  0  0  0  0  0  0  0  0
  1  2  1  0  0  0  0
  2  3  1  0  0  0  0
  3  4  1  0  0  0  0
  3 27  1  0  0  0  0
  4  5  2  0  0  0  0
  5  6  1  0  0  0  0
  6  7  2  0  0  0  0
  6 26  1  0  0  0  0
  7  8  1  0  0  0  0
  8  9  2  0  0  0  0
  8 16  1  0  0  0  0
  9 10  1  0  0  0  0
 10 11  2  0  0  0  0
 10 17  1  0  0  0  0
 11 12  1  0  0  0  0
 12 13  1  0  0  0  0
 12 16  1  0  0  0  0
 13 14  2  0  0  0  0
 14 15  1  0  0  0  0
 15 16  2  0  0  0  0
 17 18  2  0  0  0  0
 17 25  1  0  0  0  0
 18 19  1  0  0  0  0
 19 20  2  0  0  0  0
 20 21  1  0  0  0  0
 20 24  1  0  0  0  0
 21 22  2  0  0  0  0
 22 23  1  0  0  0  0
 23 24  1  0  0  0  0
 24 25  2  0  0  0  0
 26 27  2  0  0  0  0
 27 28  1  0  0  0  0
 28 29  1  0  0  0  0
  1 30  1  0  0  0  0
  1 31  1  0  0  0  0
  1 32  1  0  0  0  0
  3 33  1  0  0  0  0
  4 34  1  0  0  0  0
  5 35  1  0  0  0  0
 11 36  1  0  0  0  0
 13 37  1  0  0  0  0
 14 38  1  0  0  0  0
 18 39  1  0  0  0  0
 19 40  1  0  0  0  0
 23 41  1  0  0  0  0
 25 42  1  0  0  0  0
 26 43  1  0  0  0  0
 29 44  1  0  0  0  0
 29 45  1  0  0  0  0
 29 46  1  0  0  0  0
M  END
> <IC50[nM]>
12.6

$$$$
CHEMBL3265019
  -OEChem-05192314333D
 Structure written by MMmdl.
 46 50  0     1  0  0  0  0  0999 V2000
   -4.2567   -3.1043   13.5693 C   0  0  0  0  0  0  0  0  0  0  0  0
   -3.8736   -2.3605   14.7157 O   0  0  0  0  0  0  0  0  0  0  0  0
   -2.5257   -2.1110   14.8169 C   0  0  3  0  0  0  0  0  0  0  0  0
   -1.7458   -2.8699   15.6818 C   0  0  0  0  0  0  0  0  0  0  0  0
   -0.3904   -2.6103   15.8137 C   0  0  0  0  0  0  0  0  0  0  0  0
    0.2206   -1.5847   15.0868 C   0  0  0  0  0  0  0  0  0  0  0  0
    1.6037   -1.3593   15.3213 N   0  0  0  0  0  0  0  0  0  0  0  0
    2.5361   -0.4486   14.7616 C   0  0  0  0  0  0  0  0  0  0  0  0
    2.1814    0.3735   13.7239 N   0  0  0  0  0  0  0  0  0  0  0  0
    3.1138    1.2388   13.2174 C   0  0  0  0  0  0  0  0  0  0  0  0
    4.4183    1.2844   13.7022 C   0  0  0  0  0  0  0  0  0  0  0  0
    4.7470    0.4870   14.7610 N   0  0  0  0  0  0  0  0  0  0  0  0
    5.8980    0.3781   15.4861 C   0  0  0  0  0  0  0  0  0  0  0  0
    5.5879   -0.5236   16.5289 C   0  0  0  0  0  0  0  0  0  0  0  0
    4.3760   -1.0435   16.3736 N   0  0  0  0  0  0  0  0  0  0  0  0
    3.8368   -0.3913   15.3236 C   0  0  0  0  0  0  0  0  0  0  0  0
    2.6373    2.1616   12.1208 C   0  0  0  0  0  0  0  0  0  0  0  0
    1.3117    2.6428   12.1323 C   0  0  0  0  0  0  0  0  0  0  0  0
    0.8392    3.5282   11.1613 C   0  0  0  0  0  0  0  0  0  0  0  0
    1.7204    3.9285   10.1646 C   0  0  0  0  0  0  0  0  0  0  0  0
    1.5424    4.7860    9.1151 N   0  0  0  0  0  0  0  0  0  0  0  0
    2.7143    4.8525    8.3999 N   0  0  0  0  0  0  0  0  0  0  0  0
    3.5904    4.0382    9.0000 N   0  0  0  0  0  0  0  0  0  0  0  0
    3.0324    3.4382   10.1221 C   0  0  0  0  0  0  0  0  0  0  0  0
    3.5249    2.5426   11.0797 C   0  0  0  0  0  0  0  0  0  0  0  0
   -0.5551   -0.8189   14.1919 C   0  0  0  0  0  0  0  0  0  0  0  0
   -1.9443   -1.0883   14.0612 C   0  0  0  0  0  0  0  0  0  0  0  0
   -2.7530   -0.3558   13.2052 O   0  0  0  0  0  0  0  0  0  0  0  0
   -2.2324    0.6450   12.3520 C   0  0  0  0  0  0  0  0  0  0  0  0
   -5.3466   -3.2531   13.5755 H   0  0  0  0  0  0  0  0  0  0  0  0
   -3.9670   -2.5543   12.6618 H   0  0  0  0  0  0  0  0  0  0  0  0
   -3.7532   -4.0822   13.5818 H   0  0  0  0  0  0  0  0  0  0  0  0
   -2.3287   -2.8271   14.0055 H   0  0  0  0  0  0  0  0  0  0  0  0
   -2.1983   -3.6662   16.2542 H   0  0  0  0  0  0  0  0  0  0  0  0
    0.2025   -3.2098   16.4885 H   0  0  0  0  0  0  0  0  0  0  0  0
    5.1530    1.9352   13.2514 H   0  0  0  0  0  0  0  0  0  0  0  0
    6.8402    0.8731   15.3029 H   0  0  0  0  0  0  0  0  0  0  0  0
    6.2517   -0.7597   17.3475 H   0  0  0  0  0  0  0  0  0  0  0  0
    0.6425    2.3170   12.9149 H   0  0  0  0  0  0  0  0  0  0  0  0
   -0.1781    3.8900   11.1844 H   0  0  0  0  0  0  0  0  0  0  0  0
    0.7004    5.2820    8.9031 H   0  0  0  0  0  0  0  0  0  0  0  0
    4.5333    2.1594   11.0287 H   0  0  0  0  0  0  0  0  0  0  0  0
   -0.0965   -0.0331   13.6099 H   0  0  0  0  0  0  0  0  0  0  0  0
   -3.0505    1.0911   11.7674 H   0  0  0  0  0  0  0  0  0  0  0  0
   -1.7460    1.4250   12.9561 H   0  0  0  0  0  0  0  0  0  0  0  0
   -1.4955    0.1974   11.6689 H   0  0  0  0  0  0  0  0  0  0  0  0
  1  2  1  0  0  0  0
  2  3  1  0  0  0  0
  3  4  1  0  0  0  0
  3 27  1  0  0  0  0
  4  5  2  0  0  0  0
  5  6  1  0  0  0  0
  6  7  2  0  0  0  0
  6 26  1  0  0  0  0
  7  8  1  0  0  0  0
  8  9  2  0  0  0  0
  8 16  1  0  0  0  0
  9 10  1  0  0  0  0
 10 11  2  0  0  0  0
 10 17  1  0  0  0  0
 11 12  1  0  0  0  0
 12 13  1  0  0  0  0
 12 16  1  0  0  0  0
 13 14  2  0  0  0  0
 14 15  1  0  0  0  0
 15 16  2  0  0  0  0
 17 18  2  0  0  0  0
 17 25  1  0  0  0  0
 18 19  1  0  0  0  0
 19 20  2  0  0  0  0
 20 21  1  0  0  0  0
 20 24  1  0  0  0  0
 21 22  1  0  0  0  0
 22 23  2  0  0  0  0
 23 24  1  0  0  0  0
 24 25  2  0  0  0  0
 26 27  2  0  0  0  0
 27 28  1  0  0  0  0
 28 29  1  0  0  0  0
  1 30  1  0  0  0  0
  1 31  1  0  0  0  0
  1 32  1  0  0  0  0
  3 33  1  0  0  0  0
  4 34  1  0  0  0  0
  5 35  1  0  0  0  0
 11 36  1  0  0  0  0
 13 37  1  0  0  0  0
 14 38  1  0  0  0  0
 18 39  1  0  0  0  0
 19 40  1  0  0  0  0
 21 41  1  0  0  0  0
 25 42  1  0  0  0  0
 26 43  1  0  0  0  0
 29 44  1  0  0  0  0
 29 45  1  0  0  0  0
 29 46  1  0  0  0  0
M  END
> <IC50[nM]>
12.6

$$$$
CHEMBL3265019
  -OEChem-05192314333D
 Structure written by MMmdl.
 46 50  0     0  0  0  0  0  0999 V2000
   -4.2567   -3.1043   13.5693 C   0  0  0  0  0  0  0  0  0  0  0  0
   -3.8736   -2.3605   14.7157 O   0  0  0  0  0  0  0  0  0  0  0  0
   -2.5257   -2.1110   14.8169 C   0  0  0  0  0  0  0  0  0  0  0  0
   -1.7458   -2.8699   15.6818 C   0  0  0  0  0  0  0  0  0  0  0  0
   -0.3904   -2.6103   15.8137 C   0  0  0  0  0  0  0  0  0  0  0  0
    0.2206   -1.5847   15.0868 C   0  0  0  0  0  0  0  0  0  0  0  0
    1.6037   -1.3593   15.3213 N   0  0  0  0  0  0  0  0  0  0  0  0
    2.5361   -0.4486   14.7616 C   0  0  0  0  0  0  0  0  0  0  0  0
    2.1814    0.3735   13.7239 N   0  0  0  0  0  0  0  0  0  0  0  0
    3.1138    1.2388   13.2174 C   0  0  0  0  0  0  0  0  0  0  0  0
    4.4183    1.2844   13.7022 C   0  0  0  0  0  0  0  0  0  0  0  0
    4.7470    0.4870   14.7610 N   0  0  0  0  0  0  0  0  0  0  0  0
    5.8980    0.3781   15.4861 C   0  0  0  0  0  0  0  0  0  0  0  0
    5.5879   -0.5236   16.5289 C   0  0  0  0  0  0  0  0  0  0  0  0
    4.3760   -1.0435   16.3736 N   0  0  0  0  0  0  0  0  0  0  0  0
    3.8368   -0.3913   15.3236 C   0  0  0  0  0  0  0  0  0  0  0  0
    2.6373    2.1616   12.1208 C   0  0  0  0  0  0  0  0  0  0  0  0
    1.3117    2.6428   12.1323 C   0  0  0  0  0  0  0  0  0  0  0  0
    0.8392    3.5282   11.1613 C   0  0  0  0  0  0  0  0  0  0  0  0
    1.7204    3.9285   10.1646 C   0  0  0  0  0  0  0  0  0  0  0  0
    1.5424    4.7860    9.1151 N   0  0  0  0  0  0  0  0  0  0  0  0
    2.7143    4.8525    8.3999 N   0  0  0  0  0  0  0  0  0  0  0  0
    3.5904    4.0382    9.0000 N   0  0  0  0  0  0  0  0  0  0  0  0
    3.0324    3.4382   10.1221 C   0  0  0  0  0  0  0  0  0  0  0  0
    3.5249    2.5426   11.0797 C   0  0  0  0  0  0  0  0  0  0  0  0
   -0.5551   -0.8189   14.1919 C   0  0  0  0  0  0  0  0  0  0  0  0
   -1.9443   -1.0883   14.0612 C   0  0  0  0  0  0  0  0  0  0  0  0
   -2.7530   -0.3558   13.2052 O   0  0  0  0  0  0  0  0  0  0  0  0
   -2.2324    0.6450   12.3520 C   0  0  0  0  0  0  0  0  0  0  0  0
   -5.3466   -3.2531   13.5755 H   0  0  0  0  0  0  0  0  0  0  0  0
   -3.9670   -2.5543   12.6618 H   0  0  0  0  0  0  0  0  0  0  0  0
   -3.7532   -4.0822   13.5818 H   0  0  0  0  0  0  0  0  0  0  0  0
   -2.1983   -3.6662   16.2542 H   0  0  0  0  0  0  0  0  0  0  0  0
   -0.2170   -2.3864   16.8766 H   0  0  0  0  0  0  0  0  0  0  0  0
    0.1335   -3.5393   15.5445 H   0  0  0  0  0  0  0  0  0  0  0  0
    5.1530    1.9352   13.2514 H   0  0  0  0  0  0  0  0  0  0  0  0
    6.8402    0.8731   15.3029 H   0  0  0  0  0  0  0  0  0  0  0  0
    6.2517   -0.7597   17.3475 H   0  0  0  0  0  0  0  0  0  0  0  0
    0.6425    2.3170   12.9149 H   0  0  0  0  0  0  0  0  0  0  0  0
   -0.1781    3.8900   11.1844 H   0  0  0  0  0  0  0  0  0  0  0  0
    4.5255    3.8818    8.6820 H   0  0  0  0  0  0  0  0  0  0  0  0
    4.5333    2.1594   11.0287 H   0  0  0  0  0  0  0  0  0  0  0  0
   -0.0965   -0.0331   13.6099 H   0  0  0  0  0  0  0  0  0  0  0  0
   -3.0505    1.0911   11.7674 H   0  0  0  0  0  0  0  0  0  0  0  0
   -1.7460    1.4250   12.9561 H   0  0  0  0  0  0  0  0  0  0  0  0
   -1.4955    0.1974   11.6689 H   0  0  0  0  0  0  0  0  0  0  0  0
  1  2  1  0  0  0  0
  2  3  1  0  0  0  0
  3  4  2  0  0  0  0
  3 27  1  0  0  0  0
  4  5  1  0  0  0  0
  5  6  1  0  0  0  0
  6  7  2  0  0  0  0
  6 26  1  0  0  0  0
  7  8  1  0  0  0  0
  8  9  2  0  0  0  0
  8 16  1  0  0  0  0
  9 10  1  0  0  0  0
 10 11  2  0  0  0  0
 10 17  1  0  0  0  0
 11 12  1  0  0  0  0
 12 13  1  0  0  0  0
 12 16  1  0  0  0  0
 13 14  2  0  0  0  0
 14 15  1  0  0  0  0
 15 16  2  0  0  0  0
 17 18  2  0  0  0  0
 17 25  1  0  0  0  0
 18 19  1  0  0  0  0
 19 20  2  0  0  0  0
 20 21  1  0  0  0  0
 20 24  1  0  0  0  0
 21 22  2  0  0  0  0
 22 23  1  0  0  0  0
 23 24  1  0  0  0  0
 24 25  2  0  0  0  0
 26 27  2  0  0  0  0
 27 28  1  0  0  0  0
 28 29  1  0  0  0  0
  1 30  1  0  0  0  0
  1 31  1  0  0  0  0
  1 32  1  0  0  0  0
  4 33  1  0  0  0  0
  5 34  1  0  0  0  0
  5 35  1  0  0  0  0
 11 36  1  0  0  0  0
 13 37  1  0  0  0  0
 14 38  1  0  0  0  0
 18 39  1  0  0  0  0
 19 40  1  0  0  0  0
 23 41  1  0  0  0  0
 25 42  1  0  0  0  0
 26 43  1  0  0  0  0
 29 44  1  0  0  0  0
 29 45  1  0  0  0  0
 29 46  1  0  0  0  0
M  END
> <IC50[nM]>
12.6

$$$$
CHEMBL3265019
  -OEChem-05192314333D
 Structure written by MMmdl.
 46 50  0     0  0  0  0  0  0999 V2000
   -4.2567   -3.1043   13.5693 C   0  0  0  0  0  0  0  0  0  0  0  0
   -3.8736   -2.3605   14.7157 O   0  0  0  0  0  0  0  0  0  0  0  0
   -2.5257   -2.1110   14.8169 C   0  0  0  0  0  0  0  0  0  0  0  0
   -1.7458   -2.8699   15.6818 C   0  0  0  0  0  0  0  0  0  0  0  0
   -0.3904   -2.6103   15.8137 C   0  0  0  0  0  0  0  0  0  0  0  0
    0.2206   -1.5847   15.0868 C   0  0  0  0  0  0  0  0  0  0  0  0
    1.6037   -1.3593   15.3213 N   0  0  0  0  0  0  0  0  0  0  0  0
    2.5361   -0.4486   14.7616 C   0  0  0  0  0  0  0  0  0  0  0  0
    2.1814    0.3735   13.7239 N   0  0  0  0  0  0  0  0  0  0  0  0
    3.1138    1.2388   13.2174 C   0  0  0  0  0  0  0  0  0  0  0  0
    4.4183    1.2844   13.7022 C   0  0  0  0  0  0  0  0  0  0  0  0
    4.7470    0.4870   14.7610 N   0  0  0  0  0  0  0  0  0  0  0  0
    5.8980    0.3781   15.4861 C   0  0  0  0  0  0  0  0  0  0  0  0
    5.5879   -0.5236   16.5289 C   0  0  0  0  0  0  0  0  0  0  0  0
    4.3760   -1.0435   16.3736 N   0  0  0  0  0  0  0  0  0  0  0  0
    3.8368   -0.3913   15.3236 C   0  0  0  0  0  0  0  0  0  0  0  0
    2.6373    2.1616   12.1208 C   0  0  0  0  0  0  0  0  0  0  0  0
    1.3117    2.6428   12.1323 C   0  0  0  0  0  0  0  0  0  0  0  0
    0.8392    3.5282   11.1613 C   0  0  0  0  0  0  0  0  0  0  0  0
    1.7204    3.9285   10.1646 C   0  0  0  0  0  0  0  0  0  0  0  0
    1.5424    4.7860    9.1151 N   0  0  0  0  0  0  0  0  0  0  0  0
    2.7143    4.8525    8.3999 N   0  0  0  0  0  0  0  0  0  0  0  0
    3.5904    4.0382    9.0000 N   0  0  0  0  0  0  0  0  0  0  0  0
    3.0324    3.4382   10.1221 C   0  0  0  0  0  0  0  0  0  0  0  0
    3.5249    2.5426   11.0797 C   0  0  0  0  0  0  0  0  0  0  0  0
   -0.5551   -0.8189   14.1919 C   0  0  0  0  0  0  0  0  0  0  0  0
   -1.9443   -1.0883   14.0612 C   0  0  0  0  0  0  0  0  0  0  0  0
   -2.7530   -0.3558   13.2052 O   0  0  0  0  0  0  0  0  0  0  0  0
   -2.2324    0.6450   12.3520 C   0  0  0  0  0  0  0  0  0  0  0  0
   -5.3466   -3.2531   13.5755 H   0  0  0  0  0  0  0  0  0  0  0  0
   -3.9670   -2.5543   12.6618 H   0  0  0  0  0  0  0  0  0  0  0  0
   -3.7532   -4.0822   13.5818 H   0  0  0  0  0  0  0  0  0  0  0  0
   -2.1983   -3.6662   16.2542 H   0  0  0  0  0  0  0  0  0  0  0  0
   -0.2170   -2.3864   16.8766 H   0  0  0  0  0  0  0  0  0  0  0  0
    0.1335   -3.5393   15.5445 H   0  0  0  0  0  0  0  0  0  0  0  0
    5.1530    1.9352   13.2514 H   0  0  0  0  0  0  0  0  0  0  0  0
    6.8402    0.8731   15.3029 H   0  0  0  0  0  0  0  0  0  0  0  0
    6.2517   -0.7597   17.3475 H   0  0  0  0  0  0  0  0  0  0  0  0
    0.6425    2.3170   12.9149 H   0  0  0  0  0  0  0  0  0  0  0  0
   -0.1781    3.8900   11.1844 H   0  0  0  0  0  0  0  0  0  0  0  0
    0.7004    5.2820    8.9031 H   0  0  0  0  0  0  0  0  0  0  0  0
    4.5333    2.1594   11.0287 H   0  0  0  0  0  0  0  0  0  0  0  0
   -0.0965   -0.0331   13.6099 H   0  0  0  0  0  0  0  0  0  0  0  0
   -3.0505    1.0911   11.7674 H   0  0  0  0  0  0  0  0  0  0  0  0
   -1.7460    1.4250   12.9561 H   0  0  0  0  0  0  0  0  0  0  0  0
   -1.4955    0.1974   11.6689 H   0  0  0  0  0  0  0  0  0  0  0  0
  1  2  1  0  0  0  0
  2  3  1  0  0  0  0
  3  4  2  0  0  0  0
  3 27  1  0  0  0  0
  4  5  1  0  0  0  0
  5  6  1  0  0  0  0
  6  7  2  0  0  0  0
  6 26  1  0  0  0  0
  7  8  1  0  0  0  0
  8  9  2  0  0  0  0
  8 16  1  0  0  0  0
  9 10  1  0  0  0  0
 10 11  2  0  0  0  0
 10 17  1  0  0  0  0
 11 12  1  0  0  0  0
 12 13  1  0  0  0  0
 12 16  1  0  0  0  0
 13 14  2  0  0  0  0
 14 15  1  0  0  0  0
 15 16  2  0  0  0  0
 17 18  2  0  0  0  0
 17 25  1  0  0  0  0
 18 19  1  0  0  0  0
 19 20  2  0  0  0  0
 20 21  1  0  0  0  0
 20 24  1  0  0  0  0
 21 22  1  0  0  0  0
 22 23  2  0  0  0  0
 23 24  1  0  0  0  0
 24 25  2  0  0  0  0
 26 27  2  0  0  0  0
 27 28  1  0  0  0  0
 28 29  1  0  0  0  0
  1 30  1  0  0  0  0
  1 31  1  0  0  0  0
  1 32  1  0  0  0  0
  4 33  1  0  0  0  0
  5 34  1  0  0  0  0
  5 35  1  0  0  0  0
 11 36  1  0  0  0  0
 13 37  1  0  0  0  0
 14 38  1  0  0  0  0
 18 39  1  0  0  0  0
 19 40  1  0  0  0  0
 21 41  1  0  0  0  0
 25 42  1  0  0  0  0
 26 43  1  0  0  0  0
 29 44  1  0  0  0  0
 29 45  1  0  0  0  0
 29 46  1  0  0  0  0
M  END
> <IC50[nM]>
12.6

$$$$
CHEMBL3265019
  -OEChem-05192314333D
 Structure written by MMmdl.
 46 50  0     0  0  0  0  0  0999 V2000
   -4.2567   -3.1043   13.5693 C   0  0  0  0  0  0  0  0  0  0  0  0
   -3.8736   -2.3605   14.7157 O   0  0  0  0  0  0  0  0  0  0  0  0
   -2.5257   -2.1110   14.8169 C   0  0  0  0  0  0  0  0  0  0  0  0
   -1.7458   -2.8699   15.6818 C   0  0  0  0  0  0  0  0  0  0  0  0
   -0.3904   -2.6103   15.8137 C   0  0  0  0  0  0  0  0  0  0  0  0
    0.2206   -1.5847   15.0868 C   0  0  0  0  0  0  0  0  0  0  0  0
    1.6037   -1.3593   15.3213 N   0  0  0  0  0  0  0  0  0  0  0  0
    2.5361   -0.4486   14.7616 C   0  0  0  0  0  0  0  0  0  0  0  0
    2.1814    0.3735   13.7239 N   0  0  0  0  0  0  0  0  0  0  0  0
    3.1138    1.2388   13.2174 C   0  0  0  0  0  0  0  0  0  0  0  0
    4.4183    1.2844   13.7022 C   0  0  0  0  0  0  0  0  0  0  0  0
    4.7470    0.4870   14.7610 N   0  0  0  0  0  0  0  0  0  0  0  0
    5.8980    0.3781   15.4861 C   0  0  0  0  0  0  0  0  0  0  0  0
    5.5879   -0.5236   16.5289 C   0  0  0  0  0  0  0  0  0  0  0  0
    4.3760   -1.0435   16.3736 N   0  0  0  0  0  0  0  0  0  0  0  0
    3.8368   -0.3913   15.3236 C   0  0  0  0  0  0  0  0  0  0  0  0
    2.6373    2.1616   12.1208 C   0  0  0  0  0  0  0  0  0  0  0  0
    1.3117    2.6428   12.1323 C   0  0  0  0  0  0  0  0  0  0  0  0
    0.8392    3.5282   11.1613 C   0  0  0  0  0  0  0  0  0  0  0  0
    1.7204    3.9285   10.1646 C   0  0  0  0  0  0  0  0  0  0  0  0
    1.5424    4.7860    9.1151 N   0  0  0  0  0  0  0  0  0  0  0  0
    2.7143    4.8525    8.3999 N   0  0  0  0  0  0  0  0  0  0  0  0
    3.5904    4.0382    9.0000 N   0  0  0  0  0  0  0  0  0  0  0  0
    3.0324    3.4382   10.1221 C   0  0  0  0  0  0  0  0  0  0  0  0
    3.5249    2.5426   11.0797 C   0  0  0  0  0  0  0  0  0  0  0  0
   -0.5551   -0.8189   14.1919 C   0  0  0  0  0  0  0  0  0  0  0  0
   -1.9443   -1.0883   14.0612 C   0  0  0  0  0  0  0  0  0  0  0  0
   -2.7530   -0.3558   13.2052 O   0  0  0  0  0  0  0  0  0  0  0  0
   -2.2324    0.6450   12.3520 C   0  0  0  0  0  0  0  0  0  0  0  0
   -5.3466   -3.2531   13.5755 H   0  0  0  0  0  0  0  0  0  0  0  0
   -3.9670   -2.5543   12.6618 H   0  0  0  0  0  0  0  0  0  0  0  0
   -3.7532   -4.0822   13.5818 H   0  0  0  0  0  0  0  0  0  0  0  0
   -2.1983   -3.6662   16.2542 H   0  0  0  0  0  0  0  0  0  0  0  0
    0.2025   -3.2098   16.4885 H   0  0  0  0  0  0  0  0  0  0  0  0
    5.1530    1.9352   13.2514 H   0  0  0  0  0  0  0  0  0  0  0  0
    6.8402    0.8731   15.3029 H   0  0  0  0  0  0  0  0  0  0  0  0
    6.2517   -0.7597   17.3475 H   0  0  0  0  0  0  0  0  0  0  0  0
    0.6425    2.3170   12.9149 H   0  0  0  0  0  0  0  0  0  0  0  0
   -0.1781    3.8900   11.1844 H   0  0  0  0  0  0  0  0  0  0  0  0
    4.5255    3.8818    8.6820 H   0  0  0  0  0  0  0  0  0  0  0  0
    4.5333    2.1594   11.0287 H   0  0  0  0  0  0  0  0  0  0  0  0
   -0.4612    0.2313   14.5053 H   0  0  0  0  0  0  0  0  0  0  0  0
   -0.1097   -0.9450   13.1940 H   0  0  0  0  0  0  0  0  0  0  0  0
   -3.0505    1.0911   11.7674 H   0  0  0  0  0  0  0  0  0  0  0  0
   -1.7460    1.4250   12.9561 H   0  0  0  0  0  0  0  0  0  0  0  0
   -1.4955    0.1974   11.6689 H   0  0  0  0  0  0  0  0  0  0  0  0
  1  2  1  0  0  0  0
  2  3  1  0  0  0  0
  3  4  1  0  0  0  0
  3 27  2  0  0  0  0
  4  5  2  0  0  0  0
  5  6  1  0  0  0  0
  6  7  2  0  0  0  0
  6 26  1  0  0  0  0
  7  8  1  0  0  0  0
  8  9  2  0  0  0  0
  8 16  1  0  0  0  0
  9 10  1  0  0  0  0
 10 11  2  0  0  0  0
 10 17  1  0  0  0  0
 11 12  1  0  0  0  0
 12 13  1  0  0  0  0
 12 16  1  0  0  0  0
 13 14  2  0  0  0  0
 14 15  1  0  0  0  0
 15 16  2  0  0  0  0
 17 18  2  0  0  0  0
 17 25  1  0  0  0  0
 18 19  1  0  0  0  0
 19 20  2  0  0  0  0
 20 21  1  0  0  0  0
 20 24  1  0  0  0  0
 21 22  2  0  0  0  0
 22 23  1  0  0  0  0
 23 24  1  0  0  0  0
 24 25  2  0  0  0  0
 26 27  1  0  0  0  0
 27 28  1  0  0  0  0
 28 29  1  0  0  0  0
  1 30  1  0  0  0  0
  1 31  1  0  0  0  0
  1 32  1  0  0  0  0
  4 33  1  0  0  0  0
  5 34  1  0  0  0  0
 11 35  1  0  0  0  0
 13 36  1  0  0  0  0
 14 37  1  0  0  0  0
 18 38  1  0  0  0  0
 19 39  1  0  0  0  0
 23 40  1  0  0  0  0
 25 41  1  0  0  0  0
 26 42  1  0  0  0  0
 26 43  1  0  0  0  0
 29 44  1  0  0  0  0
 29 45  1  0  0  0  0
 29 46  1  0  0  0  0
M  END
> <IC50[nM]>
12.6

$$$$
CHEMBL3265019
  -OEChem-05192314333D
 Structure written by MMmdl.
 46 50  0     0  0  0  0  0  0999 V2000
   -4.2567   -3.1043   13.5693 C   0  0  0  0  0  0  0  0  0  0  0  0
   -3.8736   -2.3605   14.7157 O   0  0  0  0  0  0  0  0  0  0  0  0
   -2.5257   -2.1110   14.8169 C   0  0  0  0  0  0  0  0  0  0  0  0
   -1.7458   -2.8699   15.6818 C   0  0  0  0  0  0  0  0  0  0  0  0
   -0.3904   -2.6103   15.8137 C   0  0  0  0  0  0  0  0  0  0  0  0
    0.2206   -1.5847   15.0868 C   0  0  0  0  0  0  0  0  0  0  0  0
    1.6037   -1.3593   15.3213 N   0  0  0  0  0  0  0  0  0  0  0  0
    2.5361   -0.4486   14.7616 C   0  0  0  0  0  0  0  0  0  0  0  0
    2.1814    0.3735   13.7239 N   0  0  0  0  0  0  0  0  0  0  0  0
    3.1138    1.2388   13.2174 C   0  0  0  0  0  0  0  0  0  0  0  0
    4.4183    1.2844   13.7022 C   0  0  0  0  0  0  0  0  0  0  0  0
    4.7470    0.4870   14.7610 N   0  0  0  0  0  0  0  0  0  0  0  0
    5.8980    0.3781   15.4861 C   0  0  0  0  0  0  0  0  0  0  0  0
    5.5879   -0.5236   16.5289 C   0  0  0  0  0  0  0  0  0  0  0  0
    4.3760   -1.0435   16.3736 N   0  0  0  0  0  0  0  0  0  0  0  0
    3.8368   -0.3913   15.3236 C   0  0  0  0  0  0  0  0  0  0  0  0
    2.6373    2.1616   12.1208 C   0  0  0  0  0  0  0  0  0  0  0  0
    1.3117    2.6428   12.1323 C   0  0  0  0  0  0  0  0  0  0  0  0
    0.8392    3.5282   11.1613 C   0  0  0  0  0  0  0  0  0  0  0  0
    1.7204    3.9285   10.1646 C   0  0  0  0  0  0  0  0  0  0  0  0
    1.5424    4.7860    9.1151 N   0  0  0  0  0  0  0  0  0  0  0  0
    2.7143    4.8525    8.3999 N   0  0  0  0  0  0  0  0  0  0  0  0
    3.5904    4.0382    9.0000 N   0  0  0  0  0  0  0  0  0  0  0  0
    3.0324    3.4382   10.1221 C   0  0  0  0  0  0  0  0  0  0  0  0
    3.5249    2.5426   11.0797 C   0  0  0  0  0  0  0  0  0  0  0  0
   -0.5551   -0.8189   14.1919 C   0  0  0  0  0  0  0  0  0  0  0  0
   -1.9443   -1.0883   14.0612 C   0  0  0  0  0  0  0  0  0  0  0  0
   -2.7530   -0.3558   13.2052 O   0  0  0  0  0  0  0  0  0  0  0  0
   -2.2324    0.6450   12.3520 C   0  0  0  0  0  0  0  0  0  0  0  0
   -5.3466   -3.2531   13.5755 H   0  0  0  0  0  0  0  0  0  0  0  0
   -3.9670   -2.5543   12.6618 H   0  0  0  0  0  0  0  0  0  0  0  0
   -3.7532   -4.0822   13.5818 H   0  0  0  0  0  0  0  0  0  0  0  0
   -2.1983   -3.6662   16.2542 H   0  0  0  0  0  0  0  0  0  0  0  0
    0.2025   -3.2098   16.4885 H   0  0  0  0  0  0  0  0  0  0  0  0
    5.1530    1.9352   13.2514 H   0  0  0  0  0  0  0  0  0  0  0  0
    6.8402    0.8731   15.3029 H   0  0  0  0  0  0  0  0  0  0  0  0
    6.2517   -0.7597   17.3475 H   0  0  0  0  0  0  0  0  0  0  0  0
    0.6425    2.3170   12.9149 H   0  0  0  0  0  0  0  0  0  0  0  0
   -0.1781    3.8900   11.1844 H   0  0  0  0  0  0  0  0  0  0  0  0
    0.7004    5.2820    8.9031 H   0  0  0  0  0  0  0  0  0  0  0  0
    4.5333    2.1594   11.0287 H   0  0  0  0  0  0  0  0  0  0  0  0
   -0.4612    0.2313   14.5053 H   0  0  0  0  0  0  0  0  0  0  0  0
   -0.1097   -0.9450   13.1940 H   0  0  0  0  0  0  0  0  0  0  0  0
   -3.0505    1.0911   11.7674 H   0  0  0  0  0  0  0  0  0  0  0  0
   -1.7460    1.4250   12.9561 H   0  0  0  0  0  0  0  0  0  0  0  0
   -1.4955    0.1974   11.6689 H   0  0  0  0  0  0  0  0  0  0  0  0
  1  2  1  0  0  0  0
  2  3  1  0  0  0  0
  3  4  1  0  0  0  0
  3 27  2  0  0  0  0
  4  5  2  0  0  0  0
  5  6  1  0  0  0  0
  6  7  2  0  0  0  0
  6 26  1  0  0  0  0
  7  8  1  0  0  0  0
  8  9  2  0  0  0  0
  8 16  1  0  0  0  0
  9 10  1  0  0  0  0
 10 11  2  0  0  0  0
 10 17  1  0  0  0  0
 11 12  1  0  0  0  0
 12 13  1  0  0  0  0
 12 16  1  0  0  0  0
 13 14  2  0  0  0  0
 14 15  1  0  0  0  0
 15 16  2  0  0  0  0
 17 18  2  0  0  0  0
 17 25  1  0  0  0  0
 18 19  1  0  0  0  0
 19 20  2  0  0  0  0
 20 21  1  0  0  0  0
 20 24  1  0  0  0  0
 21 22  1  0  0  0  0
 22 23  2  0  0  0  0
 23 24  1  0  0  0  0
 24 25  2  0  0  0  0
 26 27  1  0  0  0  0
 27 28  1  0  0  0  0
 28 29  1  0  0  0  0
  1 30  1  0  0  0  0
  1 31  1  0  0  0  0
  1 32  1  0  0  0  0
  4 33  1  0  0  0  0
  5 34  1  0  0  0  0
 11 35  1  0  0  0  0
 13 36  1  0  0  0  0
 14 37  1  0  0  0  0
 18 38  1  0  0  0  0
 19 39  1  0  0  0  0
 21 40  1  0  0  0  0
 25 41  1  0  0  0  0
 26 42  1  0  0  0  0
 26 43  1  0  0  0  0
 29 44  1  0  0  0  0
 29 45  1  0  0  0  0
 29 46  1  0  0  0  0
M  END
> <IC50[nM]>
12.6

$$$$
CHEMBL3265019
  -OEChem-05192314333D
 Structure written by MMmdl.
 46 50  0     0  0  0  0  0  0999 V2000
   -4.2567   -3.1043   13.5693 C   0  0  0  0  0  0  0  0  0  0  0  0
   -3.8736   -2.3605   14.7157 O   0  0  0  0  0  0  0  0  0  0  0  0
   -2.5257   -2.1110   14.8169 C   0  0  0  0  0  0  0  0  0  0  0  0
   -1.7458   -2.8699   15.6818 C   0  0  0  0  0  0  0  0  0  0  0  0
   -0.3904   -2.6103   15.8137 C   0  0  0  0  0  0  0  0  0  0  0  0
    0.2206   -1.5847   15.0868 C   0  0  0  0  0  0  0  0  0  0  0  0
    1.6037   -1.3593   15.3213 N   0  0  0  0  0  0  0  0  0  0  0  0
    2.5361   -0.4486   14.7616 C   0  0  0  0  0  0  0  0  0  0  0  0
    2.1814    0.3735   13.7239 N   0  0  0  0  0  0  0  0  0  0  0  0
    3.1138    1.2388   13.2174 C   0  0  0  0  0  0  0  0  0  0  0  0
    4.4183    1.2844   13.7022 C   0  0  0  0  0  0  0  0  0  0  0  0
    4.7470    0.4870   14.7610 N   0  0  0  0  0  0  0  0  0  0  0  0
    5.8980    0.3781   15.4861 C   0  0  0  0  0  0  0  0  0  0  0  0
    5.5879   -0.5236   16.5289 C   0  0  0  0  0  0  0  0  0  0  0  0
    4.3760   -1.0435   16.3736 N   0  0  0  0  0  0  0  0  0  0  0  0
    3.8368   -0.3913   15.3236 C   0  0  0  0  0  0  0  0  0  0  0  0
    2.6373    2.1616   12.1208 C   0  0  0  0  0  0  0  0  0  0  0  0
    1.3117    2.6428   12.1323 C   0  0  0  0  0  0  0  0  0  0  0  0
    0.8392    3.5282   11.1613 C   0  0  0  0  0  0  0  0  0  0  0  0
    1.7204    3.9285   10.1646 C   0  0  0  0  0  0  0  0  0  0  0  0
    1.5424    4.7860    9.1151 N   0  0  0  0  0  0  0  0  0  0  0  0
    2.7143    4.8525    8.3999 N   0  0  0  0  0  0  0  0  0  0  0  0
    3.5904    4.0382    9.0000 N   0  0  0  0  0  0  0  0  0  0  0  0
    3.0324    3.4382   10.1221 C   0  0  0  0  0  0  0  0  0  0  0  0
    3.5249    2.5426   11.0797 C   0  0  0  0  0  0  0  0  0  0  0  0
   -0.5551   -0.8189   14.1919 C   0  0  0  0  0  0  0  0  0  0  0  0
   -1.9443   -1.0883   14.0612 C   0  0  0  0  0  0  0  0  0  0  0  0
   -2.7530   -0.3558   13.2052 O   0  0  0  0  0  0  0  0  0  0  0  0
   -2.2324    0.6450   12.3520 C   0  0  0  0  0  0  0  0  0  0  0  0
   -5.3466   -3.2531   13.5755 H   0  0  0  0  0  0  0  0  0  0  0  0
   -3.9670   -2.5543   12.6618 H   0  0  0  0  0  0  0  0  0  0  0  0
   -3.7532   -4.0822   13.5818 H   0  0  0  0  0  0  0  0  0  0  0  0
   -2.1983   -3.6662   16.2542 H   0  0  0  0  0  0  0  0  0  0  0  0
    0.2025   -3.2098   16.4885 H   0  0  0  0  0  0  0  0  0  0  0  0
    1.9968   -1.9604   16.0172 H   0  0  0  0  0  0  0  0  0  0  0  0
    5.0839    1.0107   12.8703 H   0  0  0  0  0  0  0  0  0  0  0  0
    4.6167    2.3234   14.0040 H   0  0  0  0  0  0  0  0  0  0  0  0
    6.8402    0.8731   15.3029 H   0  0  0  0  0  0  0  0  0  0  0  0
    6.2517   -0.7597   17.3475 H   0  0  0  0  0  0  0  0  0  0  0  0
    0.6425    2.3170   12.9149 H   0  0  0  0  0  0  0  0  0  0  0  0
   -0.1781    3.8900   11.1844 H   0  0  0  0  0  0  0  0  0  0  0  0
    4.5333    2.1594   11.0287 H   0  0  0  0  0  0  0  0  0  0  0  0
   -0.0965   -0.0331   13.6099 H   0  0  0  0  0  0  0  0  0  0  0  0
   -3.0505    1.0911   11.7674 H   0  0  0  0  0  0  0  0  0  0  0  0
   -1.7460    1.4250   12.9561 H   0  0  0  0  0  0  0  0  0  0  0  0
   -1.4955    0.1974   11.6689 H   0  0  0  0  0  0  0  0  0  0  0  0
  1  2  1  0  0  0  0
  2  3  1  0  0  0  0
  3  4  2  0  0  0  0
  3 27  1  0  0  0  0
  4  5  1  0  0  0  0
  5  6  2  0  0  0  0
  6  7  1  0  0  0  0
  6 26  1  0  0  0  0
  7  8  1  0  0  0  0
  8  9  2  0  0  0  0
  8 16  1  0  0  0  0
  9 10  1  0  0  0  0
 10 11  1  0  0  0  0
 10 17  2  3  0  0  0
 11 12  1  0  0  0  0
 12 13  1  0  0  0  0
 12 16  1  0  0  0  0
 13 14  2  0  0  0  0
 14 15  1  0  0  0  0
 15 16  2  0  0  0  0
 17 18  1  0  0  0  0
 17 25  1  0  0  0  0
 18 19  2  0  0  0  0
 19 20  1  0  0  0  0
 20 21  2  0  0  0  0
 20 24  1  0  0  0  0
 21 22  1  0  0  0  0
 22 23  2  0  0  0  0
 23 24  1  0  0  0  0
 24 25  2  0  0  0  0
 26 27  2  0  0  0  0
 27 28  1  0  0  0  0
 28 29  1  0  0  0  0
  1 30  1  0  0  0  0
  1 31  1  0  0  0  0
  1 32  1  0  0  0  0
  4 33  1  0  0  0  0
  5 34  1  0  0  0  0
  7 35  1  0  0  0  0
 11 36  1  0  0  0  0
 11 37  1  0  0  0  0
 13 38  1  0  0  0  0
 14 39  1  0  0  0  0
 18 40  1  0  0  0  0
 19 41  1  0  0  0  0
 25 42  1  0  0  0  0
 26 43  1  0  0  0  0
 29 44  1  0  0  0  0
 29 45  1  0  0  0  0
 29 46  1  0  0  0  0
M  END
> <IC50[nM]>
12.6

$$$$
CHEMBL3265019
  -OEChem-05192314333D
 Structure written by MMmdl.
 46 50  0     0  0  0  0  0  0999 V2000
   -4.2567   -3.1043   13.5693 C   0  0  0  0  0  0  0  0  0  0  0  0
   -3.8736   -2.3605   14.7157 O   0  0  0  0  0  0  0  0  0  0  0  0
   -2.5257   -2.1110   14.8169 C   0  0  0  0  0  0  0  0  0  0  0  0
   -1.7458   -2.8699   15.6818 C   0  0  0  0  0  0  0  0  0  0  0  0
   -0.3904   -2.6103   15.8137 C   0  0  0  0  0  0  0  0  0  0  0  0
    0.2206   -1.5847   15.0868 C   0  0  0  0  0  0  0  0  0  0  0  0
    1.6037   -1.3593   15.3213 N   0  0  0  0  0  0  0  0  0  0  0  0
    2.5361   -0.4486   14.7616 C   0  0  0  0  0  0  0  0  0  0  0  0
    2.1814    0.3735   13.7239 N   0  0  0  0  0  0  0  0  0  0  0  0
    3.1138    1.2388   13.2174 C   0  0  0  0  0  0  0  0  0  0  0  0
    4.4183    1.2844   13.7022 C   0  0  0  0  0  0  0  0  0  0  0  0
    4.7470    0.4870   14.7610 N   0  0  0  0  0  0  0  0  0  0  0  0
    5.8980    0.3781   15.4861 C   0  0  0  0  0  0  0  0  0  0  0  0
    5.5879   -0.5236   16.5289 C   0  0  0  0  0  0  0  0  0  0  0  0
    4.3760   -1.0435   16.3736 N   0  0  0  0  0  0  0  0  0  0  0  0
    3.8368   -0.3913   15.3236 C   0  0  0  0  0  0  0  0  0  0  0  0
    2.6373    2.1616   12.1208 C   0  0  0  0  0  0  0  0  0  0  0  0
    1.3117    2.6428   12.1323 C   0  0  0  0  0  0  0  0  0  0  0  0
    0.8392    3.5282   11.1613 C   0  0  0  0  0  0  0  0  0  0  0  0
    1.7204    3.9285   10.1646 C   0  0  0  0  0  0  0  0  0  0  0  0
    1.5424    4.7860    9.1151 N   0  0  0  0  0  0  0  0  0  0  0  0
    2.7143    4.8525    8.3999 N   0  0  0  0  0  0  0  0  0  0  0  0
    3.5904    4.0382    9.0000 N   0  0  0  0  0  0  0  0  0  0  0  0
    3.0324    3.4382   10.1221 C   0  0  0  0  0  0  0  0  0  0  0  0
    3.5249    2.5426   11.0797 C   0  0  0  0  0  0  0  0  0  0  0  0
   -0.5551   -0.8189   14.1919 C   0  0  0  0  0  0  0  0  0  0  0  0
   -1.9443   -1.0883   14.0612 C   0  0  0  0  0  0  0  0  0  0  0  0
   -2.7530   -0.3558   13.2052 O   0  0  0  0  0  0  0  0  0  0  0  0
   -2.2324    0.6450   12.3520 C   0  0  0  0  0  0  0  0  0  0  0  0
   -5.3466   -3.2531   13.5755 H   0  0  0  0  0  0  0  0  0  0  0  0
   -3.9670   -2.5543   12.6618 H   0  0  0  0  0  0  0  0  0  0  0  0
   -3.7532   -4.0822   13.5818 H   0  0  0  0  0  0  0  0  0  0  0  0
   -2.1983   -3.6662   16.2542 H   0  0  0  0  0  0  0  0  0  0  0  0
    0.2025   -3.2098   16.4885 H   0  0  0  0  0  0  0  0  0  0  0  0
    1.2573    0.3419   13.3432 H   0  0  0  0  0  0  0  0  0  0  0  0
    5.0839    1.0107   12.8703 H   0  0  0  0  0  0  0  0  0  0  0  0
    4.6167    2.3234   14.0040 H   0  0  0  0  0  0  0  0  0  0  0  0
    6.8402    0.8731   15.3029 H   0  0  0  0  0  0  0  0  0  0  0  0
    6.2517   -0.7597   17.3475 H   0  0  0  0  0  0  0  0  0  0  0  0
    0.6425    2.3170   12.9149 H   0  0  0  0  0  0  0  0  0  0  0  0
   -0.1781    3.8900   11.1844 H   0  0  0  0  0  0  0  0  0  0  0  0
    4.5333    2.1594   11.0287 H   0  0  0  0  0  0  0  0  0  0  0  0
   -0.0965   -0.0331   13.6099 H   0  0  0  0  0  0  0  0  0  0  0  0
   -3.0505    1.0911   11.7674 H   0  0  0  0  0  0  0  0  0  0  0  0
   -1.7460    1.4250   12.9561 H   0  0  0  0  0  0  0  0  0  0  0  0
   -1.4955    0.1974   11.6689 H   0  0  0  0  0  0  0  0  0  0  0  0
  1  2  1  0  0  0  0
  2  3  1  0  0  0  0
  3  4  2  0  0  0  0
  3 27  1  0  0  0  0
  4  5  1  0  0  0  0
  5  6  2  0  0  0  0
  6  7  1  0  0  0  0
  6 26  1  0  0  0  0
  7  8  2  0  0  0  0
  8  9  1  0  0  0  0
  8 16  1  0  0  0  0
  9 10  1  0  0  0  0
 10 11  1  0  0  0  0
 10 17  2  3  0  0  0
 11 12  1  0  0  0  0
 12 13  1  0  0  0  0
 12 16  1  0  0  0  0
 13 14  2  0  0  0  0
 14 15  1  0  0  0  0
 15 16  2  0  0  0  0
 17 18  1  0  0  0  0
 17 25  1  0  0  0  0
 18 19  2  0  0  0  0
 19 20  1  0  0  0  0
 20 21  2  0  0  0  0
 20 24  1  0  0  0  0
 21 22  1  0  0  0  0
 22 23  2  0  0  0  0
 23 24  1  0  0  0  0
 24 25  2  0  0  0  0
 26 27  2  0  0  0  0
 27 28  1  0  0  0  0
 28 29  1  0  0  0  0
  1 30  1  0  0  0  0
  1 31  1  0  0  0  0
  1 32  1  0  0  0  0
  4 33  1  0  0  0  0
  5 34  1  0  0  0  0
  9 35  1  0  0  0  0
 11 36  1  0  0  0  0
 11 37  1  0  0  0  0
 13 38  1  0  0  0  0
 14 39  1  0  0  0  0
 18 40  1  0  0  0  0
 19 41  1  0  0  0  0
 25 42  1  0  0  0  0
 26 43  1  0  0  0  0
 29 44  1  0  0  0  0
 29 45  1  0  0  0  0
 29 46  1  0  0  0  0
M  END
> <IC50[nM]>
12.6

$$$$
CHEMBL3265019
  -OEChem-05192314333D
 Structure written by MMmdl.
 46 50  0     1  0  0  0  0  0999 V2000
   -4.2567   -3.1043   13.5693 C   0  0  0  0  0  0  0  0  0  0  0  0
   -3.8736   -2.3605   14.7157 O   0  0  0  0  0  0  0  0  0  0  0  0
   -2.5257   -2.1110   14.8169 C   0  0  0  0  0  0  0  0  0  0  0  0
   -1.7458   -2.8699   15.6818 C   0  0  0  0  0  0  0  0  0  0  0  0
   -0.3904   -2.6103   15.8137 C   0  0  0  0  0  0  0  0  0  0  0  0
    0.2206   -1.5847   15.0868 C   0  0  0  0  0  0  0  0  0  0  0  0
    1.6037   -1.3593   15.3213 N   0  0  0  0  0  0  0  0  0  0  0  0
    2.5361   -0.4486   14.7616 C   0  0  0  0  0  0  0  0  0  0  0  0
    2.1814    0.3735   13.7239 N   0  0  0  0  0  0  0  0  0  0  0  0
    3.1138    1.2388   13.2174 C   0  0  0  0  0  0  0  0  0  0  0  0
    4.4183    1.2844   13.7022 C   0  0  0  0  0  0  0  0  0  0  0  0
    4.7470    0.4870   14.7610 N   0  0  0  0  0  0  0  0  0  0  0  0
    5.8980    0.3781   15.4861 C   0  0  0  0  0  0  0  0  0  0  0  0
    5.5879   -0.5236   16.5289 C   0  0  0  0  0  0  0  0  0  0  0  0
    4.3760   -1.0435   16.3736 N   0  0  0  0  0  0  0  0  0  0  0  0
    3.8368   -0.3913   15.3236 C   0  0  0  0  0  0  0  0  0  0  0  0
    2.6373    2.1616   12.1208 C   0  0  3  0  0  0  0  0  0  0  0  0
    1.3117    2.6428   12.1323 C   0  0  0  0  0  0  0  0  0  0  0  0
    0.8392    3.5282   11.1613 C   0  0  0  0  0  0  0  0  0  0  0  0
    1.7204    3.9285   10.1646 C   0  0  0  0  0  0  0  0  0  0  0  0
    1.5424    4.7860    9.1151 N   0  0  0  0  0  0  0  0  0  0  0  0
    2.7143    4.8525    8.3999 N   0  0  0  0  0  0  0  0  0  0  0  0
    3.5904    4.0382    9.0000 N   0  0  0  0  0  0  0  0  0  0  0  0
    3.0324    3.4382   10.1221 C   0  0  0  0  0  0  0  0  0  0  0  0
    3.5249    2.5426   11.0797 C   0  0  0  0  0  0  0  0  0  0  0  0
   -0.5551   -0.8189   14.1919 C   0  0  0  0  0  0  0  0  0  0  0  0
   -1.9443   -1.0883   14.0612 C   0  0  0  0  0  0  0  0  0  0  0  0
   -2.7530   -0.3558   13.2052 O   0  0  0  0  0  0  0  0  0  0  0  0
   -2.2324    0.6450   12.3520 C   0  0  0  0  0  0  0  0  0  0  0  0
   -5.3466   -3.2531   13.5755 H   0  0  0  0  0  0  0  0  0  0  0  0
   -3.9670   -2.5543   12.6618 H   0  0  0  0  0  0  0  0  0  0  0  0
   -3.7532   -4.0822   13.5818 H   0  0  0  0  0  0  0  0  0  0  0  0
   -2.1983   -3.6662   16.2542 H   0  0  0  0  0  0  0  0  0  0  0  0
    0.2025   -3.2098   16.4885 H   0  0  0  0  0  0  0  0  0  0  0  0
    1.9968   -1.9604   16.0172 H   0  0  0  0  0  0  0  0  0  0  0  0
    5.1530    1.9352   13.2514 H   0  0  0  0  0  0  0  0  0  0  0  0
    6.8402    0.8731   15.3029 H   0  0  0  0  0  0  0  0  0  0  0  0
    6.2517   -0.7597   17.3475 H   0  0  0  0  0  0  0  0  0  0  0  0
    2.9583    3.0313   12.7129 H   0  0  0  0  0  0  0  0  0  0  0  0
    0.6425    2.3170   12.9149 H   0  0  0  0  0  0  0  0  0  0  0  0
   -0.1781    3.8900   11.1844 H   0  0  0  0  0  0  0  0  0  0  0  0
    4.5333    2.1594   11.0287 H   0  0  0  0  0  0  0  0  0  0  0  0
   -0.0965   -0.0331   13.6099 H   0  0  0  0  0  0  0  0  0  0  0  0
   -3.0505    1.0911   11.7674 H   0  0  0  0  0  0  0  0  0  0  0  0
   -1.7460    1.4250   12.9561 H   0  0  0  0  0  0  0  0  0  0  0  0
   -1.4955    0.1974   11.6689 H   0  0  0  0  0  0  0  0  0  0  0  0
  1  2  1  0  0  0  0
  2  3  1  0  0  0  0
  3  4  2  0  0  0  0
  3 27  1  0  0  0  0
  4  5  1  0  0  0  0
  5  6  2  0  0  0  0
  6  7  1  0  0  0  0
  6 26  1  0  0  0  0
  7  8  1  0  0  0  0
  8  9  2  0  0  0  0
  8 16  1  0  0  0  0
  9 10  1  0  0  0  0
 10 11  2  0  0  0  0
 10 17  1  0  0  0  0
 11 12  1  0  0  0  0
 12 13  1  0  0  0  0
 12 16  1  0  0  0  0
 13 14  2  0  0  0  0
 14 15  1  0  0  0  0
 15 16  2  0  0  0  0
 17 18  1  0  0  0  0
 17 25  1  0  0  0  0
 18 19  2  0  0  0  0
 19 20  1  0  0  0  0
 20 21  2  0  0  0  0
 20 24  1  0  0  0  0
 21 22  1  0  0  0  0
 22 23  2  0  0  0  0
 23 24  1  0  0  0  0
 24 25  2  0  0  0  0
 26 27  2  0  0  0  0
 27 28  1  0  0  0  0
 28 29  1  0  0  0  0
  1 30  1  0  0  0  0
  1 31  1  0  0  0  0
  1 32  1  0  0  0  0
  4 33  1  0  0  0  0
  5 34  1  0  0  0  0
  7 35  1  0  0  0  0
 11 36  1  0  0  0  0
 13 37  1  0  0  0  0
 14 38  1  0  0  0  0
 17 39  1  0  0  0  0
 18 40  1  0  0  0  0
 19 41  1  0  0  0  0
 25 42  1  0  0  0  0
 26 43  1  0  0  0  0
 29 44  1  0  0  0  0
 29 45  1  0  0  0  0
 29 46  1  0  0  0  0
M  END
> <IC50[nM]>
12.6

$$$$
CHEMBL3265019
  -OEChem-05192314333D
 Structure written by MMmdl.
 46 50  0     1  0  0  0  0  0999 V2000
   -4.2567   -3.1043   13.5693 C   0  0  0  0  0  0  0  0  0  0  0  0
   -3.8736   -2.3605   14.7157 O   0  0  0  0  0  0  0  0  0  0  0  0
   -2.5257   -2.1110   14.8169 C   0  0  0  0  0  0  0  0  0  0  0  0
   -1.7458   -2.8699   15.6818 C   0  0  0  0  0  0  0  0  0  0  0  0
   -0.3904   -2.6103   15.8137 C   0  0  0  0  0  0  0  0  0  0  0  0
    0.2206   -1.5847   15.0868 C   0  0  0  0  0  0  0  0  0  0  0  0
    1.6037   -1.3593   15.3213 N   0  0  0  0  0  0  0  0  0  0  0  0
    2.5361   -0.4486   14.7616 C   0  0  0  0  0  0  0  0  0  0  0  0
    2.1814    0.3735   13.7239 N   0  0  0  0  0  0  0  0  0  0  0  0
    3.1138    1.2388   13.2174 C   0  0  0  0  0  0  0  0  0  0  0  0
    4.4183    1.2844   13.7022 C   0  0  0  0  0  0  0  0  0  0  0  0
    4.7470    0.4870   14.7610 N   0  0  0  0  0  0  0  0  0  0  0  0
    5.8980    0.3781   15.4861 C   0  0  0  0  0  0  0  0  0  0  0  0
    5.5879   -0.5236   16.5289 C   0  0  0  0  0  0  0  0  0  0  0  0
    4.3760   -1.0435   16.3736 N   0  0  0  0  0  0  0  0  0  0  0  0
    3.8368   -0.3913   15.3236 C   0  0  0  0  0  0  0  0  0  0  0  0
    2.6373    2.1616   12.1208 C   0  0  0  0  0  0  0  0  0  0  0  0
    1.3117    2.6428   12.1323 C   0  0  0  0  0  0  0  0  0  0  0  0
    0.8392    3.5282   11.1613 C   0  0  0  0  0  0  0  0  0  0  0  0
    1.7204    3.9285   10.1646 C   0  0  0  0  0  0  0  0  0  0  0  0
    1.5424    4.7860    9.1151 N   0  0  0  0  0  0  0  0  0  0  0  0
    2.7143    4.8525    8.3999 N   0  0  0  0  0  0  0  0  0  0  0  0
    3.5904    4.0382    9.0000 N   0  0  0  0  0  0  0  0  0  0  0  0
    3.0324    3.4382   10.1221 C   0  0  3  0  0  0  0  0  0  0  0  0
    3.5249    2.5426   11.0797 C   0  0  0  0  0  0  0  0  0  0  0  0
   -0.5551   -0.8189   14.1919 C   0  0  0  0  0  0  0  0  0  0  0  0
   -1.9443   -1.0883   14.0612 C   0  0  0  0  0  0  0  0  0  0  0  0
   -2.7530   -0.3558   13.2052 O   0  0  0  0  0  0  0  0  0  0  0  0
   -2.2324    0.6450   12.3520 C   0  0  0  0  0  0  0  0  0  0  0  0
   -5.3466   -3.2531   13.5755 H   0  0  0  0  0  0  0  0  0  0  0  0
   -3.9670   -2.5543   12.6618 H   0  0  0  0  0  0  0  0  0  0  0  0
   -3.7532   -4.0822   13.5818 H   0  0  0  0  0  0  0  0  0  0  0  0
   -2.1983   -3.6662   16.2542 H   0  0  0  0  0  0  0  0  0  0  0  0
    0.2025   -3.2098   16.4885 H   0  0  0  0  0  0  0  0  0  0  0  0
    1.9968   -1.9604   16.0172 H   0  0  0  0  0  0  0  0  0  0  0  0
    5.1530    1.9352   13.2514 H   0  0  0  0  0  0  0  0  0  0  0  0
    6.8402    0.8731   15.3029 H   0  0  0  0  0  0  0  0  0  0  0  0
    6.2517   -0.7597   17.3475 H   0  0  0  0  0  0  0  0  0  0  0  0
    0.6425    2.3170   12.9149 H   0  0  0  0  0  0  0  0  0  0  0  0
   -0.1781    3.8900   11.1844 H   0  0  0  0  0  0  0  0  0  0  0  0
    2.6968    2.5928    9.5035 H   0  0  0  0  0  0  0  0  0  0  0  0
    4.5333    2.1594   11.0287 H   0  0  0  0  0  0  0  0  0  0  0  0
   -0.0965   -0.0331   13.6099 H   0  0  0  0  0  0  0  0  0  0  0  0
   -3.0505    1.0911   11.7674 H   0  0  0  0  0  0  0  0  0  0  0  0
   -1.7460    1.4250   12.9561 H   0  0  0  0  0  0  0  0  0  0  0  0
   -1.4955    0.1974   11.6689 H   0  0  0  0  0  0  0  0  0  0  0  0
  1  2  1  0  0  0  0
  2  3  1  0  0  0  0
  3  4  2  0  0  0  0
  3 27  1  0  0  0  0
  4  5  1  0  0  0  0
  5  6  2  0  0  0  0
  6  7  1  0  0  0  0
  6 26  1  0  0  0  0
  7  8  1  0  0  0  0
  8  9  2  0  0  0  0
  8 16  1  0  0  0  0
  9 10  1  0  0  0  0
 10 11  2  0  0  0  0
 10 17  1  0  0  0  0
 11 12  1  0  0  0  0
 12 13  1  0  0  0  0
 12 16  1  0  0  0  0
 13 14  2  0  0  0  0
 14 15  1  0  0  0  0
 15 16  2  0  0  0  0
 17 18  1  0  0  0  0
 17 25  2  0  0  0  0
 18 19  2  0  0  0  0
 19 20  1  0  0  0  0
 20 21  2  0  0  0  0
 20 24  1  0  0  0  0
 21 22  1  0  0  0  0
 22 23  2  0  0  0  0
 23 24  1  0  0  0  0
 24 25  1  0  0  0  0
 26 27  2  0  0  0  0
 27 28  1  0  0  0  0
 28 29  1  0  0  0  0
  1 30  1  0  0  0  0
  1 31  1  0  0  0  0
  1 32  1  0  0  0  0
  4 33  1  0  0  0  0
  5 34  1  0  0  0  0
  7 35  1  0  0  0  0
 11 36  1  0  0  0  0
 13 37  1  0  0  0  0
 14 38  1  0  0  0  0
 18 39  1  0  0  0  0
 19 40  1  0  0  0  0
 24 41  1  0  0  0  0
 25 42  1  0  0  0  0
 26 43  1  0  0  0  0
 29 44  1  0  0  0  0
 29 45  1  0  0  0  0
 29 46  1  0  0  0  0
M  END
> <IC50[nM]>
12.6

$$$$
CHEMBL3265019
  -OEChem-05192314333D
 Structure written by MMmdl.
 46 50  0     1  0  0  0  0  0999 V2000
   -4.2567   -3.1043   13.5693 C   0  0  0  0  0  0  0  0  0  0  0  0
   -3.8736   -2.3605   14.7157 O   0  0  0  0  0  0  0  0  0  0  0  0
   -2.5257   -2.1110   14.8169 C   0  0  0  0  0  0  0  0  0  0  0  0
   -1.7458   -2.8699   15.6818 C   0  0  0  0  0  0  0  0  0  0  0  0
   -0.3904   -2.6103   15.8137 C   0  0  0  0  0  0  0  0  0  0  0  0
    0.2206   -1.5847   15.0868 C   0  0  0  0  0  0  0  0  0  0  0  0
    1.6037   -1.3593   15.3213 N   0  0  0  0  0  0  0  0  0  0  0  0
    2.5361   -0.4486   14.7616 C   0  0  0  0  0  0  0  0  0  0  0  0
    2.1814    0.3735   13.7239 N   0  0  0  0  0  0  0  0  0  0  0  0
    3.1138    1.2388   13.2174 C   0  0  0  0  0  0  0  0  0  0  0  0
    4.4183    1.2844   13.7022 C   0  0  0  0  0  0  0  0  0  0  0  0
    4.7470    0.4870   14.7610 N   0  0  0  0  0  0  0  0  0  0  0  0
    5.8980    0.3781   15.4861 C   0  0  0  0  0  0  0  0  0  0  0  0
    5.5879   -0.5236   16.5289 C   0  0  0  0  0  0  0  0  0  0  0  0
    4.3760   -1.0435   16.3736 N   0  0  0  0  0  0  0  0  0  0  0  0
    3.8368   -0.3913   15.3236 C   0  0  0  0  0  0  0  0  0  0  0  0
    2.6373    2.1616   12.1208 C   0  0  0  0  0  0  0  0  0  0  0  0
    1.3117    2.6428   12.1323 C   0  0  0  0  0  0  0  0  0  0  0  0
    0.8392    3.5282   11.1613 C   0  0  0  0  0  0  0  0  0  0  0  0
    1.7204    3.9285   10.1646 C   0  0  3  0  0  0  0  0  0  0  0  0
    1.5424    4.7860    9.1151 N   0  0  0  0  0  0  0  0  0  0  0  0
    2.7143    4.8525    8.3999 N   0  0  0  0  0  0  0  0  0  0  0  0
    3.5904    4.0382    9.0000 N   0  0  0  0  0  0  0  0  0  0  0  0
    3.0324    3.4382   10.1221 C   0  0  0  0  0  0  0  0  0  0  0  0
    3.5249    2.5426   11.0797 C   0  0  0  0  0  0  0  0  0  0  0  0
   -0.5551   -0.8189   14.1919 C   0  0  0  0  0  0  0  0  0  0  0  0
   -1.9443   -1.0883   14.0612 C   0  0  0  0  0  0  0  0  0  0  0  0
   -2.7530   -0.3558   13.2052 O   0  0  0  0  0  0  0  0  0  0  0  0
   -2.2324    0.6450   12.3520 C   0  0  0  0  0  0  0  0  0  0  0  0
   -5.3466   -3.2531   13.5755 H   0  0  0  0  0  0  0  0  0  0  0  0
   -3.9670   -2.5543   12.6618 H   0  0  0  0  0  0  0  0  0  0  0  0
   -3.7532   -4.0822   13.5818 H   0  0  0  0  0  0  0  0  0  0  0  0
   -2.1983   -3.6662   16.2542 H   0  0  0  0  0  0  0  0  0  0  0  0
    0.2025   -3.2098   16.4885 H   0  0  0  0  0  0  0  0  0  0  0  0
    1.9968   -1.9604   16.0172 H   0  0  0  0  0  0  0  0  0  0  0  0
    5.1530    1.9352   13.2514 H   0  0  0  0  0  0  0  0  0  0  0  0
    6.8402    0.8731   15.3029 H   0  0  0  0  0  0  0  0  0  0  0  0
    6.2517   -0.7597   17.3475 H   0  0  0  0  0  0  0  0  0  0  0  0
    0.6425    2.3170   12.9149 H   0  0  0  0  0  0  0  0  0  0  0  0
   -0.1781    3.8900   11.1844 H   0  0  0  0  0  0  0  0  0  0  0  0
    2.0532    4.7668   10.7943 H   0  0  0  0  0  0  0  0  0  0  0  0
    4.5333    2.1594   11.0287 H   0  0  0  0  0  0  0  0  0  0  0  0
   -0.0965   -0.0331   13.6099 H   0  0  0  0  0  0  0  0  0  0  0  0
   -3.0505    1.0911   11.7674 H   0  0  0  0  0  0  0  0  0  0  0  0
   -1.7460    1.4250   12.9561 H   0  0  0  0  0  0  0  0  0  0  0  0
   -1.4955    0.1974   11.6689 H   0  0  0  0  0  0  0  0  0  0  0  0
  1  2  1  0  0  0  0
  2  3  1  0  0  0  0
  3  4  2  0  0  0  0
  3 27  1  0  0  0  0
  4  5  1  0  0  0  0
  5  6  2  0  0  0  0
  6  7  1  0  0  0  0
  6 26  1  0  0  0  0
  7  8  1  0  0  0  0
  8  9  2  0  0  0  0
  8 16  1  0  0  0  0
  9 10  1  0  0  0  0
 10 11  2  0  0  0  0
 10 17  1  0  0  0  0
 11 12  1  0  0  0  0
 12 13  1  0  0  0  0
 12 16  1  0  0  0  0
 13 14  2  0  0  0  0
 14 15  1  0  0  0  0
 15 16  2  0  0  0  0
 17 18  1  0  0  0  0
 17 25  2  0  0  0  0
 18 19  2  0  0  0  0
 19 20  1  0  0  0  0
 20 21  1  0  0  0  0
 20 24  1  0  0  0  0
 21 22  2  0  0  0  0
 22 23  1  0  0  0  0
 23 24  2  0  0  0  0
 24 25  1  0  0  0  0
 26 27  2  0  0  0  0
 27 28  1  0  0  0  0
 28 29  1  0  0  0  0
  1 30  1  0  0  0  0
  1 31  1  0  0  0  0
  1 32  1  0  0  0  0
  4 33  1  0  0  0  0
  5 34  1  0  0  0  0
  7 35  1  0  0  0  0
 11 36  1  0  0  0  0
 13 37  1  0  0  0  0
 14 38  1  0  0  0  0
 18 39  1  0  0  0  0
 19 40  1  0  0  0  0
 20 41  1  0  0  0  0
 25 42  1  0  0  0  0
 26 43  1  0  0  0  0
 29 44  1  0  0  0  0
 29 45  1  0  0  0  0
 29 46  1  0  0  0  0
M  END
> <IC50[nM]>
12.6

$$$$
CHEMBL3265019
  -OEChem-05192314333D
 Structure written by MMmdl.
 46 50  0     0  0  0  0  0  0999 V2000
   -4.2567   -3.1043   13.5693 C   0  0  0  0  0  0  0  0  0  0  0  0
   -3.8736   -2.3605   14.7157 O   0  0  0  0  0  0  0  0  0  0  0  0
   -2.5257   -2.1110   14.8169 C   0  0  0  0  0  0  0  0  0  0  0  0
   -1.7458   -2.8699   15.6818 C   0  0  0  0  0  0  0  0  0  0  0  0
   -0.3904   -2.6103   15.8137 C   0  0  0  0  0  0  0  0  0  0  0  0
    0.2206   -1.5847   15.0868 C   0  0  0  0  0  0  0  0  0  0  0  0
    1.6037   -1.3593   15.3213 N   0  0  0  0  0  0  0  0  0  0  0  0
    2.5361   -0.4486   14.7616 C   0  0  0  0  0  0  0  0  0  0  0  0
    2.1814    0.3735   13.7239 N   0  0  0  0  0  0  0  0  0  0  0  0
    3.1138    1.2388   13.2174 C   0  0  0  0  0  0  0  0  0  0  0  0
    4.4183    1.2844   13.7022 C   0  0  0  0  0  0  0  0  0  0  0  0
    4.7470    0.4870   14.7610 N   0  0  0  0  0  0  0  0  0  0  0  0
    5.8980    0.3781   15.4861 C   0  0  0  0  0  0  0  0  0  0  0  0
    5.5879   -0.5236   16.5289 C   0  0  0  0  0  0  0  0  0  0  0  0
    4.3760   -1.0435   16.3736 N   0  0  0  0  0  0  0  0  0  0  0  0
    3.8368   -0.3913   15.3236 C   0  0  0  0  0  0  0  0  0  0  0  0
    2.6373    2.1616   12.1208 C   0  0  0  0  0  0  0  0  0  0  0  0
    1.3117    2.6428   12.1323 C   0  0  0  0  0  0  0  0  0  0  0  0
    0.8392    3.5282   11.1613 C   0  0  0  0  0  0  0  0  0  0  0  0
    1.7204    3.9285   10.1646 C   0  0  0  0  0  0  0  0  0  0  0  0
    1.5424    4.7860    9.1151 N   0  0  0  0  0  0  0  0  0  0  0  0
    2.7143    4.8525    8.3999 N   0  0  0  0  0  0  0  0  0  0  0  0
    3.5904    4.0382    9.0000 N   0  0  0  0  0  0  0  0  0  0  0  0
    3.0324    3.4382   10.1221 C   0  0  0  0  0  0  0  0  0  0  0  0
    3.5249    2.5426   11.0797 C   0  0  0  0  0  0  0  0  0  0  0  0
   -0.5551   -0.8189   14.1919 C   0  0  0  0  0  0  0  0  0  0  0  0
   -1.9443   -1.0883   14.0612 C   0  0  0  0  0  0  0  0  0  0  0  0
   -2.7530   -0.3558   13.2052 O   0  0  0  0  0  0  0  0  0  0  0  0
   -2.2324    0.6450   12.3520 C   0  0  0  0  0  0  0  0  0  0  0  0
   -5.3466   -3.2531   13.5755 H   0  0  0  0  0  0  0  0  0  0  0  0
   -3.9670   -2.5543   12.6618 H   0  0  0  0  0  0  0  0  0  0  0  0
   -3.7532   -4.0822   13.5818 H   0  0  0  0  0  0  0  0  0  0  0  0
   -2.1983   -3.6662   16.2542 H   0  0  0  0  0  0  0  0  0  0  0  0
    0.2025   -3.2098   16.4885 H   0  0  0  0  0  0  0  0  0  0  0  0
    1.9968   -1.9604   16.0172 H   0  0  0  0  0  0  0  0  0  0  0  0
    5.1530    1.9352   13.2514 H   0  0  0  0  0  0  0  0  0  0  0  0
    6.8402    0.8731   15.3029 H   0  0  0  0  0  0  0  0  0  0  0  0
    6.2517   -0.7597   17.3475 H   0  0  0  0  0  0  0  0  0  0  0  0
    0.6425    2.3170   12.9149 H   0  0  0  0  0  0  0  0  0  0  0  0
   -0.0175    3.0465   10.6674 H   0  0  0  0  0  0  0  0  0  0  0  0
    0.4995    4.4354   11.6823 H   0  0  0  0  0  0  0  0  0  0  0  0
    4.5333    2.1594   11.0287 H   0  0  0  0  0  0  0  0  0  0  0  0
   -0.0965   -0.0331   13.6099 H   0  0  0  0  0  0  0  0  0  0  0  0
   -3.0505    1.0911   11.7674 H   0  0  0  0  0  0  0  0  0  0  0  0
   -1.7460    1.4250   12.9561 H   0  0  0  0  0  0  0  0  0  0  0  0
   -1.4955    0.1974   11.6689 H   0  0  0  0  0  0  0  0  0  0  0  0
  1  2  1  0  0  0  0
  2  3  1  0  0  0  0
  3  4  2  0  0  0  0
  3 27  1  0  0  0  0
  4  5  1  0  0  0  0
  5  6  2  0  0  0  0
  6  7  1  0  0  0  0
  6 26  1  0  0  0  0
  7  8  1  0  0  0  0
  8  9  2  0  0  0  0
  8 16  1  0  0  0  0
  9 10  1  0  0  0  0
 10 11  2  0  0  0  0
 10 17  1  0  0  0  0
 11 12  1  0  0  0  0
 12 13  1  0  0  0  0
 12 16  1  0  0  0  0
 13 14  2  0  0  0  0
 14 15  1  0  0  0  0
 15 16  2  0  0  0  0
 17 18  2  0  0  0  0
 17 25  1  0  0  0  0
 18 19  1  0  0  0  0
 19 20  1  0  0  0  0
 20 21  2  0  0  0  0
 20 24  1  0  0  0  0
 21 22  1  0  0  0  0
 22 23  2  0  0  0  0
 23 24  1  0  0  0  0
 24 25  2  0  0  0  0
 26 27  2  0  0  0  0
 27 28  1  0  0  0  0
 28 29  1  0  0  0  0
  1 30  1  0  0  0  0
  1 31  1  0  0  0  0
  1 32  1  0  0  0  0
  4 33  1  0  0  0  0
  5 34  1  0  0  0  0
  7 35  1  0  0  0  0
 11 36  1  0  0  0  0
 13 37  1  0  0  0  0
 14 38  1  0  0  0  0
 18 39  1  0  0  0  0
 19 40  1  0  0  0  0
 19 41  1  0  0  0  0
 25 42  1  0  0  0  0
 26 43  1  0  0  0  0
 29 44  1  0  0  0  0
 29 45  1  0  0  0  0
 29 46  1  0  0  0  0
M  END
> <IC50[nM]>
12.6

$$$$
CHEMBL3265019
  -OEChem-05192314333D
 Structure written by MMmdl.
 46 50  0     0  0  0  0  0  0999 V2000
   -4.2567   -3.1043   13.5693 C   0  0  0  0  0  0  0  0  0  0  0  0
   -3.8736   -2.3605   14.7157 O   0  0  0  0  0  0  0  0  0  0  0  0
   -2.5257   -2.1110   14.8169 C   0  0  0  0  0  0  0  0  0  0  0  0
   -1.7458   -2.8699   15.6818 C   0  0  0  0  0  0  0  0  0  0  0  0
   -0.3904   -2.6103   15.8137 C   0  0  0  0  0  0  0  0  0  0  0  0
    0.2206   -1.5847   15.0868 C   0  0  0  0  0  0  0  0  0  0  0  0
    1.6037   -1.3593   15.3213 N   0  0  0  0  0  0  0  0  0  0  0  0
    2.5361   -0.4486   14.7616 C   0  0  0  0  0  0  0  0  0  0  0  0
    2.1814    0.3735   13.7239 N   0  0  0  0  0  0  0  0  0  0  0  0
    3.1138    1.2388   13.2174 C   0  0  0  0  0  0  0  0  0  0  0  0
    4.4183    1.2844   13.7022 C   0  0  0  0  0  0  0  0  0  0  0  0
    4.7470    0.4870   14.7610 N   0  0  0  0  0  0  0  0  0  0  0  0
    5.8980    0.3781   15.4861 C   0  0  0  0  0  0  0  0  0  0  0  0
    5.5879   -0.5236   16.5289 C   0  0  0  0  0  0  0  0  0  0  0  0
    4.3760   -1.0435   16.3736 N   0  0  0  0  0  0  0  0  0  0  0  0
    3.8368   -0.3913   15.3236 C   0  0  0  0  0  0  0  0  0  0  0  0
    2.6373    2.1616   12.1208 C   0  0  0  0  0  0  0  0  0  0  0  0
    1.3117    2.6428   12.1323 C   0  0  0  0  0  0  0  0  0  0  0  0
    0.8392    3.5282   11.1613 C   0  0  0  0  0  0  0  0  0  0  0  0
    1.7204    3.9285   10.1646 C   0  0  0  0  0  0  0  0  0  0  0  0
    1.5424    4.7860    9.1151 N   0  0  0  0  0  0  0  0  0  0  0  0
    2.7143    4.8525    8.3999 N   0  0  0  0  0  0  0  0  0  0  0  0
    3.5904    4.0382    9.0000 N   0  0  0  0  0  0  0  0  0  0  0  0
    3.0324    3.4382   10.1221 C   0  0  0  0  0  0  0  0  0  0  0  0
    3.5249    2.5426   11.0797 C   0  0  0  0  0  0  0  0  0  0  0  0
   -0.5551   -0.8189   14.1919 C   0  0  0  0  0  0  0  0  0  0  0  0
   -1.9443   -1.0883   14.0612 C   0  0  0  0  0  0  0  0  0  0  0  0
   -2.7530   -0.3558   13.2052 O   0  0  0  0  0  0  0  0  0  0  0  0
   -2.2324    0.6450   12.3520 C   0  0  0  0  0  0  0  0  0  0  0  0
   -5.3466   -3.2531   13.5755 H   0  0  0  0  0  0  0  0  0  0  0  0
   -3.9670   -2.5543   12.6618 H   0  0  0  0  0  0  0  0  0  0  0  0
   -3.7532   -4.0822   13.5818 H   0  0  0  0  0  0  0  0  0  0  0  0
   -2.1983   -3.6662   16.2542 H   0  0  0  0  0  0  0  0  0  0  0  0
    0.2025   -3.2098   16.4885 H   0  0  0  0  0  0  0  0  0  0  0  0
    1.9968   -1.9604   16.0172 H   0  0  0  0  0  0  0  0  0  0  0  0
    5.1530    1.9352   13.2514 H   0  0  0  0  0  0  0  0  0  0  0  0
    6.8402    0.8731   15.3029 H   0  0  0  0  0  0  0  0  0  0  0  0
    6.2517   -0.7597   17.3475 H   0  0  0  0  0  0  0  0  0  0  0  0
    0.6617    1.7567   12.0840 H   0  0  0  0  0  0  0  0  0  0  0  0
    1.1747    3.1457   13.1009 H   0  0  0  0  0  0  0  0  0  0  0  0
   -0.1781    3.8900   11.1844 H   0  0  0  0  0  0  0  0  0  0  0  0
    4.5333    2.1594   11.0287 H   0  0  0  0  0  0  0  0  0  0  0  0
   -0.0965   -0.0331   13.6099 H   0  0  0  0  0  0  0  0  0  0  0  0
   -3.0505    1.0911   11.7674 H   0  0  0  0  0  0  0  0  0  0  0  0
   -1.7460    1.4250   12.9561 H   0  0  0  0  0  0  0  0  0  0  0  0
   -1.4955    0.1974   11.6689 H   0  0  0  0  0  0  0  0  0  0  0  0
  1  2  1  0  0  0  0
  2  3  1  0  0  0  0
  3  4  2  0  0  0  0
  3 27  1  0  0  0  0
  4  5  1  0  0  0  0
  5  6  2  0  0  0  0
  6  7  1  0  0  0  0
  6 26  1  0  0  0  0
  7  8  1  0  0  0  0
  8  9  2  0  0  0  0
  8 16  1  0  0  0  0
  9 10  1  0  0  0  0
 10 11  2  0  0  0  0
 10 17  1  0  0  0  0
 11 12  1  0  0  0  0
 12 13  1  0  0  0  0
 12 16  1  0  0  0  0
 13 14  2  0  0  0  0
 14 15  1  0  0  0  0
 15 16  2  0  0  0  0
 17 18  1  0  0  0  0
 17 25  2  0  0  0  0
 18 19  1  0  0  0  0
 19 20  2  0  0  0  0
 20 21  1  0  0  0  0
 20 24  1  0  0  0  0
 21 22  2  0  0  0  0
 22 23  1  0  0  0  0
 23 24  2  0  0  0  0
 24 25  1  0  0  0  0
 26 27  2  0  0  0  0
 27 28  1  0  0  0  0
 28 29  1  0  0  0  0
  1 30  1  0  0  0  0
  1 31  1  0  0  0  0
  1 32  1  0  0  0  0
  4 33  1  0  0  0  0
  5 34  1  0  0  0  0
  7 35  1  0  0  0  0
 11 36  1  0  0  0  0
 13 37  1  0  0  0  0
 14 38  1  0  0  0  0
 18 39  1  0  0  0  0
 18 40  1  0  0  0  0
 19 41  1  0  0  0  0
 25 42  1  0  0  0  0
 26 43  1  0  0  0  0
 29 44  1  0  0  0  0
 29 45  1  0  0  0  0
 29 46  1  0  0  0  0
M  END
> <IC50[nM]>
12.6

$$$$
CHEMBL3265019
  -OEChem-05192314333D
 Structure written by MMmdl.
 46 50  0     0  0  0  0  0  0999 V2000
   -4.2567   -3.1043   13.5693 C   0  0  0  0  0  0  0  0  0  0  0  0
   -3.8736   -2.3605   14.7157 O   0  0  0  0  0  0  0  0  0  0  0  0
   -2.5257   -2.1110   14.8169 C   0  0  0  0  0  0  0  0  0  0  0  0
   -1.7458   -2.8699   15.6818 C   0  0  0  0  0  0  0  0  0  0  0  0
   -0.3904   -2.6103   15.8137 C   0  0  0  0  0  0  0  0  0  0  0  0
    0.2206   -1.5847   15.0868 C   0  0  0  0  0  0  0  0  0  0  0  0
    1.6037   -1.3593   15.3213 N   0  0  0  0  0  0  0  0  0  0  0  0
    2.5361   -0.4486   14.7616 C   0  0  0  0  0  0  0  0  0  0  0  0
    2.1814    0.3735   13.7239 N   0  0  0  0  0  0  0  0  0  0  0  0
    3.1138    1.2388   13.2174 C   0  0  0  0  0  0  0  0  0  0  0  0
    4.4183    1.2844   13.7022 C   0  0  0  0  0  0  0  0  0  0  0  0
    4.7470    0.4870   14.7610 N   0  0  0  0  0  0  0  0  0  0  0  0
    5.8980    0.3781   15.4861 C   0  0  0  0  0  0  0  0  0  0  0  0
    5.5879   -0.5236   16.5289 C   0  0  0  0  0  0  0  0  0  0  0  0
    4.3760   -1.0435   16.3736 N   0  0  0  0  0  0  0  0  0  0  0  0
    3.8368   -0.3913   15.3236 C   0  0  0  0  0  0  0  0  0  0  0  0
    2.6373    2.1616   12.1208 C   0  0  0  0  0  0  0  0  0  0  0  0
    1.3117    2.6428   12.1323 C   0  0  0  0  0  0  0  0  0  0  0  0
    0.8392    3.5282   11.1613 C   0  0  0  0  0  0  0  0  0  0  0  0
    1.7204    3.9285   10.1646 C   0  0  0  0  0  0  0  0  0  0  0  0
    1.5424    4.7860    9.1151 N   0  0  0  0  0  0  0  0  0  0  0  0
    2.7143    4.8525    8.3999 N   0  0  0  0  0  0  0  0  0  0  0  0
    3.5904    4.0382    9.0000 N   0  0  0  0  0  0  0  0  0  0  0  0
    3.0324    3.4382   10.1221 C   0  0  0  0  0  0  0  0  0  0  0  0
    3.5249    2.5426   11.0797 C   0  0  0  0  0  0  0  0  0  0  0  0
   -0.5551   -0.8189   14.1919 C   0  0  0  0  0  0  0  0  0  0  0  0
   -1.9443   -1.0883   14.0612 C   0  0  0  0  0  0  0  0  0  0  0  0
   -2.7530   -0.3558   13.2052 O   0  0  0  0  0  0  0  0  0  0  0  0
   -2.2324    0.6450   12.3520 C   0  0  0  0  0  0  0  0  0  0  0  0
   -5.3466   -3.2531   13.5755 H   0  0  0  0  0  0  0  0  0  0  0  0
   -3.9670   -2.5543   12.6618 H   0  0  0  0  0  0  0  0  0  0  0  0
   -3.7532   -4.0822   13.5818 H   0  0  0  0  0  0  0  0  0  0  0  0
   -2.1983   -3.6662   16.2542 H   0  0  0  0  0  0  0  0  0  0  0  0
    0.2025   -3.2098   16.4885 H   0  0  0  0  0  0  0  0  0  0  0  0
    1.9968   -1.9604   16.0172 H   0  0  0  0  0  0  0  0  0  0  0  0
    5.1530    1.9352   13.2514 H   0  0  0  0  0  0  0  0  0  0  0  0
    6.8402    0.8731   15.3029 H   0  0  0  0  0  0  0  0  0  0  0  0
    6.2517   -0.7597   17.3475 H   0  0  0  0  0  0  0  0  0  0  0  0
    0.6425    2.3170   12.9149 H   0  0  0  0  0  0  0  0  0  0  0  0
   -0.1781    3.8900   11.1844 H   0  0  0  0  0  0  0  0  0  0  0  0
    4.4054    3.0074   11.5474 H   0  0  0  0  0  0  0  0  0  0  0  0
    3.8304    1.6270   10.5521 H   0  0  0  0  0  0  0  0  0  0  0  0
   -0.0965   -0.0331   13.6099 H   0  0  0  0  0  0  0  0  0  0  0  0
   -3.0505    1.0911   11.7674 H   0  0  0  0  0  0  0  0  0  0  0  0
   -1.7460    1.4250   12.9561 H   0  0  0  0  0  0  0  0  0  0  0  0
   -1.4955    0.1974   11.6689 H   0  0  0  0  0  0  0  0  0  0  0  0
  1  2  1  0  0  0  0
  2  3  1  0  0  0  0
  3  4  2  0  0  0  0
  3 27  1  0  0  0  0
  4  5  1  0  0  0  0
  5  6  2  0  0  0  0
  6  7  1  0  0  0  0
  6 26  1  0  0  0  0
  7  8  1  0  0  0  0
  8  9  2  0  0  0  0
  8 16  1  0  0  0  0
  9 10  1  0  0  0  0
 10 11  2  0  0  0  0
 10 17  1  0  0  0  0
 11 12  1  0  0  0  0
 12 13  1  0  0  0  0
 12 16  1  0  0  0  0
 13 14  2  0  0  0  0
 14 15  1  0  0  0  0
 15 16  2  0  0  0  0
 17 18  2  0  0  0  0
 17 25  1  0  0  0  0
 18 19  1  0  0  0  0
 19 20  2  0  0  0  0
 20 21  1  0  0  0  0
 20 24  1  0  0  0  0
 21 22  2  0  0  0  0
 22 23  1  0  0  0  0
 23 24  2  0  0  0  0
 24 25  1  0  0  0  0
 26 27  2  0  0  0  0
 27 28  1  0  0  0  0
 28 29  1  0  0  0  0
  1 30  1  0  0  0  0
  1 31  1  0  0  0  0
  1 32  1  0  0  0  0
  4 33  1  0  0  0  0
  5 34  1  0  0  0  0
  7 35  1  0  0  0  0
 11 36  1  0  0  0  0
 13 37  1  0  0  0  0
 14 38  1  0  0  0  0
 18 39  1  0  0  0  0
 19 40  1  0  0  0  0
 25 41  1  0  0  0  0
 25 42  1  0  0  0  0
 26 43  1  0  0  0  0
 29 44  1  0  0  0  0
 29 45  1  0  0  0  0
 29 46  1  0  0  0  0
M  END
> <IC50[nM]>
12.6

$$$$
CHEMBL3265019
  -OEChem-05192314333D
 Structure written by MMmdl.
 46 50  0     1  0  0  0  0  0999 V2000
   -4.2567   -3.1043   13.5693 C   0  0  0  0  0  0  0  0  0  0  0  0
   -3.8736   -2.3605   14.7157 O   0  0  0  0  0  0  0  0  0  0  0  0
   -2.5257   -2.1110   14.8169 C   0  0  0  0  0  0  0  0  0  0  0  0
   -1.7458   -2.8699   15.6818 C   0  0  0  0  0  0  0  0  0  0  0  0
   -0.3904   -2.6103   15.8137 C   0  0  0  0  0  0  0  0  0  0  0  0
    0.2206   -1.5847   15.0868 C   0  0  0  0  0  0  0  0  0  0  0  0
    1.6037   -1.3593   15.3213 N   0  0  0  0  0  0  0  0  0  0  0  0
    2.5361   -0.4486   14.7616 C   0  0  0  0  0  0  0  0  0  0  0  0
    2.1814    0.3735   13.7239 N   0  0  0  0  0  0  0  0  0  0  0  0
    3.1138    1.2388   13.2174 C   0  0  0  0  0  0  0  0  0  0  0  0
    4.4183    1.2844   13.7022 C   0  0  0  0  0  0  0  0  0  0  0  0
    4.7470    0.4870   14.7610 N   0  0  0  0  0  0  0  0  0  0  0  0
    5.8980    0.3781   15.4861 C   0  0  0  0  0  0  0  0  0  0  0  0
    5.5879   -0.5236   16.5289 C   0  0  0  0  0  0  0  0  0  0  0  0
    4.3760   -1.0435   16.3736 N   0  0  0  0  0  0  0  0  0  0  0  0
    3.8368   -0.3913   15.3236 C   0  0  0  0  0  0  0  0  0  0  0  0
    2.6373    2.1616   12.1208 C   0  0  3  0  0  0  0  0  0  0  0  0
    1.3117    2.6428   12.1323 C   0  0  0  0  0  0  0  0  0  0  0  0
    0.8392    3.5282   11.1613 C   0  0  0  0  0  0  0  0  0  0  0  0
    1.7204    3.9285   10.1646 C   0  0  0  0  0  0  0  0  0  0  0  0
    1.5424    4.7860    9.1151 N   0  0  0  0  0  0  0  0  0  0  0  0
    2.7143    4.8525    8.3999 N   0  0  0  0  0  0  0  0  0  0  0  0
    3.5904    4.0382    9.0000 N   0  0  0  0  0  0  0  0  0  0  0  0
    3.0324    3.4382   10.1221 C   0  0  0  0  0  0  0  0  0  0  0  0
    3.5249    2.5426   11.0797 C   0  0  0  0  0  0  0  0  0  0  0  0
   -0.5551   -0.8189   14.1919 C   0  0  0  0  0  0  0  0  0  0  0  0
   -1.9443   -1.0883   14.0612 C   0  0  0  0  0  0  0  0  0  0  0  0
   -2.7530   -0.3558   13.2052 O   0  0  0  0  0  0  0  0  0  0  0  0
   -2.2324    0.6450   12.3520 C   0  0  0  0  0  0  0  0  0  0  0  0
   -5.3466   -3.2531   13.5755 H   0  0  0  0  0  0  0  0  0  0  0  0
   -3.9670   -2.5543   12.6618 H   0  0  0  0  0  0  0  0  0  0  0  0
   -3.7532   -4.0822   13.5818 H   0  0  0  0  0  0  0  0  0  0  0  0
   -2.1983   -3.6662   16.2542 H   0  0  0  0  0  0  0  0  0  0  0  0
    0.2025   -3.2098   16.4885 H   0  0  0  0  0  0  0  0  0  0  0  0
    1.2573    0.3419   13.3432 H   0  0  0  0  0  0  0  0  0  0  0  0
    5.1530    1.9352   13.2514 H   0  0  0  0  0  0  0  0  0  0  0  0
    6.8402    0.8731   15.3029 H   0  0  0  0  0  0  0  0  0  0  0  0
    6.2517   -0.7597   17.3475 H   0  0  0  0  0  0  0  0  0  0  0  0
    2.9583    3.0313   12.7129 H   0  0  0  0  0  0  0  0  0  0  0  0
    0.6425    2.3170   12.9149 H   0  0  0  0  0  0  0  0  0  0  0  0
   -0.1781    3.8900   11.1844 H   0  0  0  0  0  0  0  0  0  0  0  0
    4.5333    2.1594   11.0287 H   0  0  0  0  0  0  0  0  0  0  0  0
   -0.0965   -0.0331   13.6099 H   0  0  0  0  0  0  0  0  0  0  0  0
   -3.0505    1.0911   11.7674 H   0  0  0  0  0  0  0  0  0  0  0  0
   -1.7460    1.4250   12.9561 H   0  0  0  0  0  0  0  0  0  0  0  0
   -1.4955    0.1974   11.6689 H   0  0  0  0  0  0  0  0  0  0  0  0
  1  2  1  0  0  0  0
  2  3  1  0  0  0  0
  3  4  2  0  0  0  0
  3 27  1  0  0  0  0
  4  5  1  0  0  0  0
  5  6  2  0  0  0  0
  6  7  1  0  0  0  0
  6 26  1  0  0  0  0
  7  8  2  0  0  0  0
  8  9  1  0  0  0  0
  8 16  1  0  0  0  0
  9 10  1  0  0  0  0
 10 11  2  0  0  0  0
 10 17  1  0  0  0  0
 11 12  1  0  0  0  0
 12 13  1  0  0  0  0
 12 16  1  0  0  0  0
 13 14  2  0  0  0  0
 14 15  1  0  0  0  0
 15 16  2  0  0  0  0
 17 18  1  0  0  0  0
 17 25  1  0  0  0  0
 18 19  2  0  0  0  0
 19 20  1  0  0  0  0
 20 21  2  0  0  0  0
 20 24  1  0  0  0  0
 21 22  1  0  0  0  0
 22 23  2  0  0  0  0
 23 24  1  0  0  0  0
 24 25  2  0  0  0  0
 26 27  2  0  0  0  0
 27 28  1  0  0  0  0
 28 29  1  0  0  0  0
  1 30  1  0  0  0  0
  1 31  1  0  0  0  0
  1 32  1  0  0  0  0
  4 33  1  0  0  0  0
  5 34  1  0  0  0  0
  9 35  1  0  0  0  0
 11 36  1  0  0  0  0
 13 37  1  0  0  0  0
 14 38  1  0  0  0  0
 17 39  1  0  0  0  0
 18 40  1  0  0  0  0
 19 41  1  0  0  0  0
 25 42  1  0  0  0  0
 26 43  1  0  0  0  0
 29 44  1  0  0  0  0
 29 45  1  0  0  0  0
 29 46  1  0  0  0  0
M  END
> <IC50[nM]>
12.6

$$$$
CHEMBL3265019
  -OEChem-05192314333D
 Structure written by MMmdl.
 46 50  0     1  0  0  0  0  0999 V2000
   -4.2567   -3.1043   13.5693 C   0  0  0  0  0  0  0  0  0  0  0  0
   -3.8736   -2.3605   14.7157 O   0  0  0  0  0  0  0  0  0  0  0  0
   -2.5257   -2.1110   14.8169 C   0  0  0  0  0  0  0  0  0  0  0  0
   -1.7458   -2.8699   15.6818 C   0  0  0  0  0  0  0  0  0  0  0  0
   -0.3904   -2.6103   15.8137 C   0  0  0  0  0  0  0  0  0  0  0  0
    0.2206   -1.5847   15.0868 C   0  0  0  0  0  0  0  0  0  0  0  0
    1.6037   -1.3593   15.3213 N   0  0  0  0  0  0  0  0  0  0  0  0
    2.5361   -0.4486   14.7616 C   0  0  0  0  0  0  0  0  0  0  0  0
    2.1814    0.3735   13.7239 N   0  0  0  0  0  0  0  0  0  0  0  0
    3.1138    1.2388   13.2174 C   0  0  0  0  0  0  0  0  0  0  0  0
    4.4183    1.2844   13.7022 C   0  0  0  0  0  0  0  0  0  0  0  0
    4.7470    0.4870   14.7610 N   0  0  0  0  0  0  0  0  0  0  0  0
    5.8980    0.3781   15.4861 C   0  0  0  0  0  0  0  0  0  0  0  0
    5.5879   -0.5236   16.5289 C   0  0  0  0  0  0  0  0  0  0  0  0
    4.3760   -1.0435   16.3736 N   0  0  0  0  0  0  0  0  0  0  0  0
    3.8368   -0.3913   15.3236 C   0  0  0  0  0  0  0  0  0  0  0  0
    2.6373    2.1616   12.1208 C   0  0  0  0  0  0  0  0  0  0  0  0
    1.3117    2.6428   12.1323 C   0  0  0  0  0  0  0  0  0  0  0  0
    0.8392    3.5282   11.1613 C   0  0  0  0  0  0  0  0  0  0  0  0
    1.7204    3.9285   10.1646 C   0  0  0  0  0  0  0  0  0  0  0  0
    1.5424    4.7860    9.1151 N   0  0  0  0  0  0  0  0  0  0  0  0
    2.7143    4.8525    8.3999 N   0  0  0  0  0  0  0  0  0  0  0  0
    3.5904    4.0382    9.0000 N   0  0  0  0  0  0  0  0  0  0  0  0
    3.0324    3.4382   10.1221 C   0  0  3  0  0  0  0  0  0  0  0  0
    3.5249    2.5426   11.0797 C   0  0  0  0  0  0  0  0  0  0  0  0
   -0.5551   -0.8189   14.1919 C   0  0  0  0  0  0  0  0  0  0  0  0
   -1.9443   -1.0883   14.0612 C   0  0  0  0  0  0  0  0  0  0  0  0
   -2.7530   -0.3558   13.2052 O   0  0  0  0  0  0  0  0  0  0  0  0
   -2.2324    0.6450   12.3520 C   0  0  0  0  0  0  0  0  0  0  0  0
   -5.3466   -3.2531   13.5755 H   0  0  0  0  0  0  0  0  0  0  0  0
   -3.9670   -2.5543   12.6618 H   0  0  0  0  0  0  0  0  0  0  0  0
   -3.7532   -4.0822   13.5818 H   0  0  0  0  0  0  0  0  0  0  0  0
   -2.1983   -3.6662   16.2542 H   0  0  0  0  0  0  0  0  0  0  0  0
    0.2025   -3.2098   16.4885 H   0  0  0  0  0  0  0  0  0  0  0  0
    1.2573    0.3419   13.3432 H   0  0  0  0  0  0  0  0  0  0  0  0
    5.1530    1.9352   13.2514 H   0  0  0  0  0  0  0  0  0  0  0  0
    6.8402    0.8731   15.3029 H   0  0  0  0  0  0  0  0  0  0  0  0
    6.2517   -0.7597   17.3475 H   0  0  0  0  0  0  0  0  0  0  0  0
    0.6425    2.3170   12.9149 H   0  0  0  0  0  0  0  0  0  0  0  0
   -0.1781    3.8900   11.1844 H   0  0  0  0  0  0  0  0  0  0  0  0
    2.6968    2.5928    9.5035 H   0  0  0  0  0  0  0  0  0  0  0  0
    4.5333    2.1594   11.0287 H   0  0  0  0  0  0  0  0  0  0  0  0
   -0.0965   -0.0331   13.6099 H   0  0  0  0  0  0  0  0  0  0  0  0
   -3.0505    1.0911   11.7674 H   0  0  0  0  0  0  0  0  0  0  0  0
   -1.7460    1.4250   12.9561 H   0  0  0  0  0  0  0  0  0  0  0  0
   -1.4955    0.1974   11.6689 H   0  0  0  0  0  0  0  0  0  0  0  0
  1  2  1  0  0  0  0
  2  3  1  0  0  0  0
  3  4  2  0  0  0  0
  3 27  1  0  0  0  0
  4  5  1  0  0  0  0
  5  6  2  0  0  0  0
  6  7  1  0  0  0  0
  6 26  1  0  0  0  0
  7  8  2  0  0  0  0
  8  9  1  0  0  0  0
  8 16  1  0  0  0  0
  9 10  1  0  0  0  0
 10 11  2  0  0  0  0
 10 17  1  0  0  0  0
 11 12  1  0  0  0  0
 12 13  1  0  0  0  0
 12 16  1  0  0  0  0
 13 14  2  0  0  0  0
 14 15  1  0  0  0  0
 15 16  2  0  0  0  0
 17 18  1  0  0  0  0
 17 25  2  0  0  0  0
 18 19  2  0  0  0  0
 19 20  1  0  0  0  0
 20 21  2  0  0  0  0
 20 24  1  0  0  0  0
 21 22  1  0  0  0  0
 22 23  2  0  0  0  0
 23 24  1  0  0  0  0
 24 25  1  0  0  0  0
 26 27  2  0  0  0  0
 27 28  1  0  0  0  0
 28 29  1  0  0  0  0
  1 30  1  0  0  0  0
  1 31  1  0  0  0  0
  1 32  1  0  0  0  0
  4 33  1  0  0  0  0
  5 34  1  0  0  0  0
  9 35  1  0  0  0  0
 11 36  1  0  0  0  0
 13 37  1  0  0  0  0
 14 38  1  0  0  0  0
 18 39  1  0  0  0  0
 19 40  1  0  0  0  0
 24 41  1  0  0  0  0
 25 42  1  0  0  0  0
 26 43  1  0  0  0  0
 29 44  1  0  0  0  0
 29 45  1  0  0  0  0
 29 46  1  0  0  0  0
M  END
> <IC50[nM]>
12.6

$$$$
CHEMBL3265019
  -OEChem-05192314333D
 Structure written by MMmdl.
 46 50  0     1  0  0  0  0  0999 V2000
   -4.2567   -3.1043   13.5693 C   0  0  0  0  0  0  0  0  0  0  0  0
   -3.8736   -2.3605   14.7157 O   0  0  0  0  0  0  0  0  0  0  0  0
   -2.5257   -2.1110   14.8169 C   0  0  0  0  0  0  0  0  0  0  0  0
   -1.7458   -2.8699   15.6818 C   0  0  0  0  0  0  0  0  0  0  0  0
   -0.3904   -2.6103   15.8137 C   0  0  0  0  0  0  0  0  0  0  0  0
    0.2206   -1.5847   15.0868 C   0  0  0  0  0  0  0  0  0  0  0  0
    1.6037   -1.3593   15.3213 N   0  0  0  0  0  0  0  0  0  0  0  0
    2.5361   -0.4486   14.7616 C   0  0  0  0  0  0  0  0  0  0  0  0
    2.1814    0.3735   13.7239 N   0  0  0  0  0  0  0  0  0  0  0  0
    3.1138    1.2388   13.2174 C   0  0  0  0  0  0  0  0  0  0  0  0
    4.4183    1.2844   13.7022 C   0  0  0  0  0  0  0  0  0  0  0  0
    4.7470    0.4870   14.7610 N   0  0  0  0  0  0  0  0  0  0  0  0
    5.8980    0.3781   15.4861 C   0  0  0  0  0  0  0  0  0  0  0  0
    5.5879   -0.5236   16.5289 C   0  0  0  0  0  0  0  0  0  0  0  0
    4.3760   -1.0435   16.3736 N   0  0  0  0  0  0  0  0  0  0  0  0
    3.8368   -0.3913   15.3236 C   0  0  0  0  0  0  0  0  0  0  0  0
    2.6373    2.1616   12.1208 C   0  0  0  0  0  0  0  0  0  0  0  0
    1.3117    2.6428   12.1323 C   0  0  0  0  0  0  0  0  0  0  0  0
    0.8392    3.5282   11.1613 C   0  0  0  0  0  0  0  0  0  0  0  0
    1.7204    3.9285   10.1646 C   0  0  3  0  0  0  0  0  0  0  0  0
    1.5424    4.7860    9.1151 N   0  0  0  0  0  0  0  0  0  0  0  0
    2.7143    4.8525    8.3999 N   0  0  0  0  0  0  0  0  0  0  0  0
    3.5904    4.0382    9.0000 N   0  0  0  0  0  0  0  0  0  0  0  0
    3.0324    3.4382   10.1221 C   0  0  0  0  0  0  0  0  0  0  0  0
    3.5249    2.5426   11.0797 C   0  0  0  0  0  0  0  0  0  0  0  0
   -0.5551   -0.8189   14.1919 C   0  0  0  0  0  0  0  0  0  0  0  0
   -1.9443   -1.0883   14.0612 C   0  0  0  0  0  0  0  0  0  0  0  0
   -2.7530   -0.3558   13.2052 O   0  0  0  0  0  0  0  0  0  0  0  0
   -2.2324    0.6450   12.3520 C   0  0  0  0  0  0  0  0  0  0  0  0
   -5.3466   -3.2531   13.5755 H   0  0  0  0  0  0  0  0  0  0  0  0
   -3.9670   -2.5543   12.6618 H   0  0  0  0  0  0  0  0  0  0  0  0
   -3.7532   -4.0822   13.5818 H   0  0  0  0  0  0  0  0  0  0  0  0
   -2.1983   -3.6662   16.2542 H   0  0  0  0  0  0  0  0  0  0  0  0
    0.2025   -3.2098   16.4885 H   0  0  0  0  0  0  0  0  0  0  0  0
    1.2573    0.3419   13.3432 H   0  0  0  0  0  0  0  0  0  0  0  0
    5.1530    1.9352   13.2514 H   0  0  0  0  0  0  0  0  0  0  0  0
    6.8402    0.8731   15.3029 H   0  0  0  0  0  0  0  0  0  0  0  0
    6.2517   -0.7597   17.3475 H   0  0  0  0  0  0  0  0  0  0  0  0
    0.6425    2.3170   12.9149 H   0  0  0  0  0  0  0  0  0  0  0  0
   -0.1781    3.8900   11.1844 H   0  0  0  0  0  0  0  0  0  0  0  0
    2.0532    4.7668   10.7943 H   0  0  0  0  0  0  0  0  0  0  0  0
    4.5333    2.1594   11.0287 H   0  0  0  0  0  0  0  0  0  0  0  0
   -0.0965   -0.0331   13.6099 H   0  0  0  0  0  0  0  0  0  0  0  0
   -3.0505    1.0911   11.7674 H   0  0  0  0  0  0  0  0  0  0  0  0
   -1.7460    1.4250   12.9561 H   0  0  0  0  0  0  0  0  0  0  0  0
   -1.4955    0.1974   11.6689 H   0  0  0  0  0  0  0  0  0  0  0  0
  1  2  1  0  0  0  0
  2  3  1  0  0  0  0
  3  4  2  0  0  0  0
  3 27  1  0  0  0  0
  4  5  1  0  0  0  0
  5  6  2  0  0  0  0
  6  7  1  0  0  0  0
  6 26  1  0  0  0  0
  7  8  2  0  0  0  0
  8  9  1  0  0  0  0
  8 16  1  0  0  0  0
  9 10  1  0  0  0  0
 10 11  2  0  0  0  0
 10 17  1  0  0  0  0
 11 12  1  0  0  0  0
 12 13  1  0  0  0  0
 12 16  1  0  0  0  0
 13 14  2  0  0  0  0
 14 15  1  0  0  0  0
 15 16  2  0  0  0  0
 17 18  1  0  0  0  0
 17 25  2  0  0  0  0
 18 19  2  0  0  0  0
 19 20  1  0  0  0  0
 20 21  1  0  0  0  0
 20 24  1  0  0  0  0
 21 22  2  0  0  0  0
 22 23  1  0  0  0  0
 23 24  2  0  0  0  0
 24 25  1  0  0  0  0
 26 27  2  0  0  0  0
 27 28  1  0  0  0  0
 28 29  1  0  0  0  0
  1 30  1  0  0  0  0
  1 31  1  0  0  0  0
  1 32  1  0  0  0  0
  4 33  1  0  0  0  0
  5 34  1  0  0  0  0
  9 35  1  0  0  0  0
 11 36  1  0  0  0  0
 13 37  1  0  0  0  0
 14 38  1  0  0  0  0
 18 39  1  0  0  0  0
 19 40  1  0  0  0  0
 20 41  1  0  0  0  0
 25 42  1  0  0  0  0
 26 43  1  0  0  0  0
 29 44  1  0  0  0  0
 29 45  1  0  0  0  0
 29 46  1  0  0  0  0
M  END
> <IC50[nM]>
12.6

$$$$
CHEMBL3265019
  -OEChem-05192314333D
 Structure written by MMmdl.
 46 50  0     0  0  0  0  0  0999 V2000
   -4.2567   -3.1043   13.5693 C   0  0  0  0  0  0  0  0  0  0  0  0
   -3.8736   -2.3605   14.7157 O   0  0  0  0  0  0  0  0  0  0  0  0
   -2.5257   -2.1110   14.8169 C   0  0  0  0  0  0  0  0  0  0  0  0
   -1.7458   -2.8699   15.6818 C   0  0  0  0  0  0  0  0  0  0  0  0
   -0.3904   -2.6103   15.8137 C   0  0  0  0  0  0  0  0  0  0  0  0
    0.2206   -1.5847   15.0868 C   0  0  0  0  0  0  0  0  0  0  0  0
    1.6037   -1.3593   15.3213 N   0  0  0  0  0  0  0  0  0  0  0  0
    2.5361   -0.4486   14.7616 C   0  0  0  0  0  0  0  0  0  0  0  0
    2.1814    0.3735   13.7239 N   0  0  0  0  0  0  0  0  0  0  0  0
    3.1138    1.2388   13.2174 C   0  0  0  0  0  0  0  0  0  0  0  0
    4.4183    1.2844   13.7022 C   0  0  0  0  0  0  0  0  0  0  0  0
    4.7470    0.4870   14.7610 N   0  0  0  0  0  0  0  0  0  0  0  0
    5.8980    0.3781   15.4861 C   0  0  0  0  0  0  0  0  0  0  0  0
    5.5879   -0.5236   16.5289 C   0  0  0  0  0  0  0  0  0  0  0  0
    4.3760   -1.0435   16.3736 N   0  0  0  0  0  0  0  0  0  0  0  0
    3.8368   -0.3913   15.3236 C   0  0  0  0  0  0  0  0  0  0  0  0
    2.6373    2.1616   12.1208 C   0  0  0  0  0  0  0  0  0  0  0  0
    1.3117    2.6428   12.1323 C   0  0  0  0  0  0  0  0  0  0  0  0
    0.8392    3.5282   11.1613 C   0  0  0  0  0  0  0  0  0  0  0  0
    1.7204    3.9285   10.1646 C   0  0  0  0  0  0  0  0  0  0  0  0
    1.5424    4.7860    9.1151 N   0  0  0  0  0  0  0  0  0  0  0  0
    2.7143    4.8525    8.3999 N   0  0  0  0  0  0  0  0  0  0  0  0
    3.5904    4.0382    9.0000 N   0  0  0  0  0  0  0  0  0  0  0  0
    3.0324    3.4382   10.1221 C   0  0  0  0  0  0  0  0  0  0  0  0
    3.5249    2.5426   11.0797 C   0  0  0  0  0  0  0  0  0  0  0  0
   -0.5551   -0.8189   14.1919 C   0  0  0  0  0  0  0  0  0  0  0  0
   -1.9443   -1.0883   14.0612 C   0  0  0  0  0  0  0  0  0  0  0  0
   -2.7530   -0.3558   13.2052 O   0  0  0  0  0  0  0  0  0  0  0  0
   -2.2324    0.6450   12.3520 C   0  0  0  0  0  0  0  0  0  0  0  0
   -5.3466   -3.2531   13.5755 H   0  0  0  0  0  0  0  0  0  0  0  0
   -3.9670   -2.5543   12.6618 H   0  0  0  0  0  0  0  0  0  0  0  0
   -3.7532   -4.0822   13.5818 H   0  0  0  0  0  0  0  0  0  0  0  0
   -2.1983   -3.6662   16.2542 H   0  0  0  0  0  0  0  0  0  0  0  0
    0.2025   -3.2098   16.4885 H   0  0  0  0  0  0  0  0  0  0  0  0
    1.2573    0.3419   13.3432 H   0  0  0  0  0  0  0  0  0  0  0  0
    5.1530    1.9352   13.2514 H   0  0  0  0  0  0  0  0  0  0  0  0
    6.8402    0.8731   15.3029 H   0  0  0  0  0  0  0  0  0  0  0  0
    6.2517   -0.7597   17.3475 H   0  0  0  0  0  0  0  0  0  0  0  0
    0.6425    2.3170   12.9149 H   0  0  0  0  0  0  0  0  0  0  0  0
   -0.0175    3.0465   10.6674 H   0  0  0  0  0  0  0  0  0  0  0  0
    0.4995    4.4354   11.6823 H   0  0  0  0  0  0  0  0  0  0  0  0
    4.5333    2.1594   11.0287 H   0  0  0  0  0  0  0  0  0  0  0  0
   -0.0965   -0.0331   13.6099 H   0  0  0  0  0  0  0  0  0  0  0  0
   -3.0505    1.0911   11.7674 H   0  0  0  0  0  0  0  0  0  0  0  0
   -1.7460    1.4250   12.9561 H   0  0  0  0  0  0  0  0  0  0  0  0
   -1.4955    0.1974   11.6689 H   0  0  0  0  0  0  0  0  0  0  0  0
  1  2  1  0  0  0  0
  2  3  1  0  0  0  0
  3  4  2  0  0  0  0
  3 27  1  0  0  0  0
  4  5  1  0  0  0  0
  5  6  2  0  0  0  0
  6  7  1  0  0  0  0
  6 26  1  0  0  0  0
  7  8  2  0  0  0  0
  8  9  1  0  0  0  0
  8 16  1  0  0  0  0
  9 10  1  0  0  0  0
 10 11  2  0  0  0  0
 10 17  1  0  0  0  0
 11 12  1  0  0  0  0
 12 13  1  0  0  0  0
 12 16  1  0  0  0  0
 13 14  2  0  0  0  0
 14 15  1  0  0  0  0
 15 16  2  0  0  0  0
 17 18  2  0  0  0  0
 17 25  1  0  0  0  0
 18 19  1  0  0  0  0
 19 20  1  0  0  0  0
 20 21  2  0  0  0  0
 20 24  1  0  0  0  0
 21 22  1  0  0  0  0
 22 23  2  0  0  0  0
 23 24  1  0  0  0  0
 24 25  2  0  0  0  0
 26 27  2  0  0  0  0
 27 28  1  0  0  0  0
 28 29  1  0  0  0  0
  1 30  1  0  0  0  0
  1 31  1  0  0  0  0
  1 32  1  0  0  0  0
  4 33  1  0  0  0  0
  5 34  1  0  0  0  0
  9 35  1  0  0  0  0
 11 36  1  0  0  0  0
 13 37  1  0  0  0  0
 14 38  1  0  0  0  0
 18 39  1  0  0  0  0
 19 40  1  0  0  0  0
 19 41  1  0  0  0  0
 25 42  1  0  0  0  0
 26 43  1  0  0  0  0
 29 44  1  0  0  0  0
 29 45  1  0  0  0  0
 29 46  1  0  0  0  0
M  END
> <IC50[nM]>
12.6

$$$$
CHEMBL3265019
  -OEChem-05192314333D
 Structure written by MMmdl.
 46 50  0     0  0  0  0  0  0999 V2000
   -4.2567   -3.1043   13.5693 C   0  0  0  0  0  0  0  0  0  0  0  0
   -3.8736   -2.3605   14.7157 O   0  0  0  0  0  0  0  0  0  0  0  0
   -2.5257   -2.1110   14.8169 C   0  0  0  0  0  0  0  0  0  0  0  0
   -1.7458   -2.8699   15.6818 C   0  0  0  0  0  0  0  0  0  0  0  0
   -0.3904   -2.6103   15.8137 C   0  0  0  0  0  0  0  0  0  0  0  0
    0.2206   -1.5847   15.0868 C   0  0  0  0  0  0  0  0  0  0  0  0
    1.6037   -1.3593   15.3213 N   0  0  0  0  0  0  0  0  0  0  0  0
    2.5361   -0.4486   14.7616 C   0  0  0  0  0  0  0  0  0  0  0  0
    2.1814    0.3735   13.7239 N   0  0  0  0  0  0  0  0  0  0  0  0
    3.1138    1.2388   13.2174 C   0  0  0  0  0  0  0  0  0  0  0  0
    4.4183    1.2844   13.7022 C   0  0  0  0  0  0  0  0  0  0  0  0
    4.7470    0.4870   14.7610 N   0  0  0  0  0  0  0  0  0  0  0  0
    5.8980    0.3781   15.4861 C   0  0  0  0  0  0  0  0  0  0  0  0
    5.5879   -0.5236   16.5289 C   0  0  0  0  0  0  0  0  0  0  0  0
    4.3760   -1.0435   16.3736 N   0  0  0  0  0  0  0  0  0  0  0  0
    3.8368   -0.3913   15.3236 C   0  0  0  0  0  0  0  0  0  0  0  0
    2.6373    2.1616   12.1208 C   0  0  0  0  0  0  0  0  0  0  0  0
    1.3117    2.6428   12.1323 C   0  0  0  0  0  0  0  0  0  0  0  0
    0.8392    3.5282   11.1613 C   0  0  0  0  0  0  0  0  0  0  0  0
    1.7204    3.9285   10.1646 C   0  0  0  0  0  0  0  0  0  0  0  0
    1.5424    4.7860    9.1151 N   0  0  0  0  0  0  0  0  0  0  0  0
    2.7143    4.8525    8.3999 N   0  0  0  0  0  0  0  0  0  0  0  0
    3.5904    4.0382    9.0000 N   0  0  0  0  0  0  0  0  0  0  0  0
    3.0324    3.4382   10.1221 C   0  0  0  0  0  0  0  0  0  0  0  0
    3.5249    2.5426   11.0797 C   0  0  0  0  0  0  0  0  0  0  0  0
   -0.5551   -0.8189   14.1919 C   0  0  0  0  0  0  0  0  0  0  0  0
   -1.9443   -1.0883   14.0612 C   0  0  0  0  0  0  0  0  0  0  0  0
   -2.7530   -0.3558   13.2052 O   0  0  0  0  0  0  0  0  0  0  0  0
   -2.2324    0.6450   12.3520 C   0  0  0  0  0  0  0  0  0  0  0  0
   -5.3466   -3.2531   13.5755 H   0  0  0  0  0  0  0  0  0  0  0  0
   -3.9670   -2.5543   12.6618 H   0  0  0  0  0  0  0  0  0  0  0  0
   -3.7532   -4.0822   13.5818 H   0  0  0  0  0  0  0  0  0  0  0  0
   -2.1983   -3.6662   16.2542 H   0  0  0  0  0  0  0  0  0  0  0  0
    0.2025   -3.2098   16.4885 H   0  0  0  0  0  0  0  0  0  0  0  0
    1.2573    0.3419   13.3432 H   0  0  0  0  0  0  0  0  0  0  0  0
    5.1530    1.9352   13.2514 H   0  0  0  0  0  0  0  0  0  0  0  0
    6.8402    0.8731   15.3029 H   0  0  0  0  0  0  0  0  0  0  0  0
    6.2517   -0.7597   17.3475 H   0  0  0  0  0  0  0  0  0  0  0  0
    0.6617    1.7567   12.0840 H   0  0  0  0  0  0  0  0  0  0  0  0
    1.1747    3.1457   13.1009 H   0  0  0  0  0  0  0  0  0  0  0  0
   -0.1781    3.8900   11.1844 H   0  0  0  0  0  0  0  0  0  0  0  0
    4.5333    2.1594   11.0287 H   0  0  0  0  0  0  0  0  0  0  0  0
   -0.0965   -0.0331   13.6099 H   0  0  0  0  0  0  0  0  0  0  0  0
   -3.0505    1.0911   11.7674 H   0  0  0  0  0  0  0  0  0  0  0  0
   -1.7460    1.4250   12.9561 H   0  0  0  0  0  0  0  0  0  0  0  0
   -1.4955    0.1974   11.6689 H   0  0  0  0  0  0  0  0  0  0  0  0
  1  2  1  0  0  0  0
  2  3  1  0  0  0  0
  3  4  2  0  0  0  0
  3 27  1  0  0  0  0
  4  5  1  0  0  0  0
  5  6  2  0  0  0  0
  6  7  1  0  0  0  0
  6 26  1  0  0  0  0
  7  8  2  0  0  0  0
  8  9  1  0  0  0  0
  8 16  1  0  0  0  0
  9 10  1  0  0  0  0
 10 11  2  0  0  0  0
 10 17  1  0  0  0  0
 11 12  1  0  0  0  0
 12 13  1  0  0  0  0
 12 16  1  0  0  0  0
 13 14  2  0  0  0  0
 14 15  1  0  0  0  0
 15 16  2  0  0  0  0
 17 18  1  0  0  0  0
 17 25  2  0  0  0  0
 18 19  1  0  0  0  0
 19 20  2  0  0  0  0
 20 21  1  0  0  0  0
 20 24  1  0  0  0  0
 21 22  2  0  0  0  0
 22 23  1  0  0  0  0
 23 24  2  0  0  0  0
 24 25  1  0  0  0  0
 26 27  2  0  0  0  0
 27 28  1  0  0  0  0
 28 29  1  0  0  0  0
  1 30  1  0  0  0  0
  1 31  1  0  0  0  0
  1 32  1  0  0  0  0
  4 33  1  0  0  0  0
  5 34  1  0  0  0  0
  9 35  1  0  0  0  0
 11 36  1  0  0  0  0
 13 37  1  0  0  0  0
 14 38  1  0  0  0  0
 18 39  1  0  0  0  0
 18 40  1  0  0  0  0
 19 41  1  0  0  0  0
 25 42  1  0  0  0  0
 26 43  1  0  0  0  0
 29 44  1  0  0  0  0
 29 45  1  0  0  0  0
 29 46  1  0  0  0  0
M  END
> <IC50[nM]>
12.6

$$$$
CHEMBL3265019
  -OEChem-05192314333D
 Structure written by MMmdl.
 46 50  0     0  0  0  0  0  0999 V2000
   -4.2567   -3.1043   13.5693 C   0  0  0  0  0  0  0  0  0  0  0  0
   -3.8736   -2.3605   14.7157 O   0  0  0  0  0  0  0  0  0  0  0  0
   -2.5257   -2.1110   14.8169 C   0  0  0  0  0  0  0  0  0  0  0  0
   -1.7458   -2.8699   15.6818 C   0  0  0  0  0  0  0  0  0  0  0  0
   -0.3904   -2.6103   15.8137 C   0  0  0  0  0  0  0  0  0  0  0  0
    0.2206   -1.5847   15.0868 C   0  0  0  0  0  0  0  0  0  0  0  0
    1.6037   -1.3593   15.3213 N   0  0  0  0  0  0  0  0  0  0  0  0
    2.5361   -0.4486   14.7616 C   0  0  0  0  0  0  0  0  0  0  0  0
    2.1814    0.3735   13.7239 N   0  0  0  0  0  0  0  0  0  0  0  0
    3.1138    1.2388   13.2174 C   0  0  0  0  0  0  0  0  0  0  0  0
    4.4183    1.2844   13.7022 C   0  0  0  0  0  0  0  0  0  0  0  0
    4.7470    0.4870   14.7610 N   0  0  0  0  0  0  0  0  0  0  0  0
    5.8980    0.3781   15.4861 C   0  0  0  0  0  0  0  0  0  0  0  0
    5.5879   -0.5236   16.5289 C   0  0  0  0  0  0  0  0  0  0  0  0
    4.3760   -1.0435   16.3736 N   0  0  0  0  0  0  0  0  0  0  0  0
    3.8368   -0.3913   15.3236 C   0  0  0  0  0  0  0  0  0  0  0  0
    2.6373    2.1616   12.1208 C   0  0  0  0  0  0  0  0  0  0  0  0
    1.3117    2.6428   12.1323 C   0  0  0  0  0  0  0  0  0  0  0  0
    0.8392    3.5282   11.1613 C   0  0  0  0  0  0  0  0  0  0  0  0
    1.7204    3.9285   10.1646 C   0  0  0  0  0  0  0  0  0  0  0  0
    1.5424    4.7860    9.1151 N   0  0  0  0  0  0  0  0  0  0  0  0
    2.7143    4.8525    8.3999 N   0  0  0  0  0  0  0  0  0  0  0  0
    3.5904    4.0382    9.0000 N   0  0  0  0  0  0  0  0  0  0  0  0
    3.0324    3.4382   10.1221 C   0  0  0  0  0  0  0  0  0  0  0  0
    3.5249    2.5426   11.0797 C   0  0  0  0  0  0  0  0  0  0  0  0
   -0.5551   -0.8189   14.1919 C   0  0  0  0  0  0  0  0  0  0  0  0
   -1.9443   -1.0883   14.0612 C   0  0  0  0  0  0  0  0  0  0  0  0
   -2.7530   -0.3558   13.2052 O   0  0  0  0  0  0  0  0  0  0  0  0
   -2.2324    0.6450   12.3520 C   0  0  0  0  0  0  0  0  0  0  0  0
   -5.3466   -3.2531   13.5755 H   0  0  0  0  0  0  0  0  0  0  0  0
   -3.9670   -2.5543   12.6618 H   0  0  0  0  0  0  0  0  0  0  0  0
   -3.7532   -4.0822   13.5818 H   0  0  0  0  0  0  0  0  0  0  0  0
   -2.1983   -3.6662   16.2542 H   0  0  0  0  0  0  0  0  0  0  0  0
    0.2025   -3.2098   16.4885 H   0  0  0  0  0  0  0  0  0  0  0  0
    1.2573    0.3419   13.3432 H   0  0  0  0  0  0  0  0  0  0  0  0
    5.1530    1.9352   13.2514 H   0  0  0  0  0  0  0  0  0  0  0  0
    6.8402    0.8731   15.3029 H   0  0  0  0  0  0  0  0  0  0  0  0
    6.2517   -0.7597   17.3475 H   0  0  0  0  0  0  0  0  0  0  0  0
    0.6425    2.3170   12.9149 H   0  0  0  0  0  0  0  0  0  0  0  0
   -0.1781    3.8900   11.1844 H   0  0  0  0  0  0  0  0  0  0  0  0
    4.4054    3.0074   11.5474 H   0  0  0  0  0  0  0  0  0  0  0  0
    3.8304    1.6270   10.5521 H   0  0  0  0  0  0  0  0  0  0  0  0
   -0.0965   -0.0331   13.6099 H   0  0  0  0  0  0  0  0  0  0  0  0
   -3.0505    1.0911   11.7674 H   0  0  0  0  0  0  0  0  0  0  0  0
   -1.7460    1.4250   12.9561 H   0  0  0  0  0  0  0  0  0  0  0  0
   -1.4955    0.1974   11.6689 H   0  0  0  0  0  0  0  0  0  0  0  0
  1  2  1  0  0  0  0
  2  3  1  0  0  0  0
  3  4  2  0  0  0  0
  3 27  1  0  0  0  0
  4  5  1  0  0  0  0
  5  6  2  0  0  0  0
  6  7  1  0  0  0  0
  6 26  1  0  0  0  0
  7  8  2  0  0  0  0
  8  9  1  0  0  0  0
  8 16  1  0  0  0  0
  9 10  1  0  0  0  0
 10 11  2  0  0  0  0
 10 17  1  0  0  0  0
 11 12  1  0  0  0  0
 12 13  1  0  0  0  0
 12 16  1  0  0  0  0
 13 14  2  0  0  0  0
 14 15  1  0  0  0  0
 15 16  2  0  0  0  0
 17 18  2  0  0  0  0
 17 25  1  0  0  0  0
 18 19  1  0  0  0  0
 19 20  2  0  0  0  0
 20 21  1  0  0  0  0
 20 24  1  0  0  0  0
 21 22  2  0  0  0  0
 22 23  1  0  0  0  0
 23 24  2  0  0  0  0
 24 25  1  0  0  0  0
 26 27  2  0  0  0  0
 27 28  1  0  0  0  0
 28 29  1  0  0  0  0
  1 30  1  0  0  0  0
  1 31  1  0  0  0  0
  1 32  1  0  0  0  0
  4 33  1  0  0  0  0
  5 34  1  0  0  0  0
  9 35  1  0  0  0  0
 11 36  1  0  0  0  0
 13 37  1  0  0  0  0
 14 38  1  0  0  0  0
 18 39  1  0  0  0  0
 19 40  1  0  0  0  0
 25 41  1  0  0  0  0
 25 42  1  0  0  0  0
 26 43  1  0  0  0  0
 29 44  1  0  0  0  0
 29 45  1  0  0  0  0
 29 46  1  0  0  0  0
M  END
> <IC50[nM]>
12.6

$$$$
CHEMBL3265019
  -OEChem-05192314333D
 Structure written by MMmdl.
 46 50  0     1  0  0  0  0  0999 V2000
   -4.2567   -3.1043   13.5693 C   0  0  0  0  0  0  0  0  0  0  0  0
   -3.8736   -2.3605   14.7157 O   0  0  0  0  0  0  0  0  0  0  0  0
   -2.5257   -2.1110   14.8169 C   0  0  0  0  0  0  0  0  0  0  0  0
   -1.7458   -2.8699   15.6818 C   0  0  0  0  0  0  0  0  0  0  0  0
   -0.3904   -2.6103   15.8137 C   0  0  0  0  0  0  0  0  0  0  0  0
    0.2206   -1.5847   15.0868 C   0  0  0  0  0  0  0  0  0  0  0  0
    1.6037   -1.3593   15.3213 N   0  0  0  0  0  0  0  0  0  0  0  0
    2.5361   -0.4486   14.7616 C   0  0  0  0  0  0  0  0  0  0  0  0
    2.1814    0.3735   13.7239 N   0  0  0  0  0  0  0  0  0  0  0  0
    3.1138    1.2388   13.2174 C   0  0  0  0  0  0  0  0  0  0  0  0
    4.4183    1.2844   13.7022 C   0  0  0  0  0  0  0  0  0  0  0  0
    4.7470    0.4870   14.7610 N   0  0  0  0  0  0  0  0  0  0  0  0
    5.8980    0.3781   15.4861 C   0  0  0  0  0  0  0  0  0  0  0  0
    5.5879   -0.5236   16.5289 C   0  0  0  0  0  0  0  0  0  0  0  0
    4.3760   -1.0435   16.3736 N   0  0  0  0  0  0  0  0  0  0  0  0
    3.8368   -0.3913   15.3236 C   0  0  0  0  0  0  0  0  0  0  0  0
    2.6373    2.1616   12.1208 C   0  0  3  0  0  0  0  0  0  0  0  0
    1.3117    2.6428   12.1323 C   0  0  0  0  0  0  0  0  0  0  0  0
    0.8392    3.5282   11.1613 C   0  0  0  0  0  0  0  0  0  0  0  0
    1.7204    3.9285   10.1646 C   0  0  0  0  0  0  0  0  0  0  0  0
    1.5424    4.7860    9.1151 N   0  0  0  0  0  0  0  0  0  0  0  0
    2.7143    4.8525    8.3999 N   0  0  0  0  0  0  0  0  0  0  0  0
    3.5904    4.0382    9.0000 N   0  0  0  0  0  0  0  0  0  0  0  0
    3.0324    3.4382   10.1221 C   0  0  0  0  0  0  0  0  0  0  0  0
    3.5249    2.5426   11.0797 C   0  0  0  0  0  0  0  0  0  0  0  0
   -0.5551   -0.8189   14.1919 C   0  0  0  0  0  0  0  0  0  0  0  0
   -1.9443   -1.0883   14.0612 C   0  0  0  0  0  0  0  0  0  0  0  0
   -2.7530   -0.3558   13.2052 O   0  0  0  0  0  0  0  0  0  0  0  0
   -2.2324    0.6450   12.3520 C   0  0  0  0  0  0  0  0  0  0  0  0
   -5.3466   -3.2531   13.5755 H   0  0  0  0  0  0  0  0  0  0  0  0
   -3.9670   -2.5543   12.6618 H   0  0  0  0  0  0  0  0  0  0  0  0
   -3.7532   -4.0822   13.5818 H   0  0  0  0  0  0  0  0  0  0  0  0
   -2.1983   -3.6662   16.2542 H   0  0  0  0  0  0  0  0  0  0  0  0
    0.2025   -3.2098   16.4885 H   0  0  0  0  0  0  0  0  0  0  0  0
    5.0839    1.0107   12.8703 H   0  0  0  0  0  0  0  0  0  0  0  0
    4.6167    2.3234   14.0040 H   0  0  0  0  0  0  0  0  0  0  0  0
    6.8402    0.8731   15.3029 H   0  0  0  0  0  0  0  0  0  0  0  0
    6.2517   -0.7597   17.3475 H   0  0  0  0  0  0  0  0  0  0  0  0
    2.9583    3.0313   12.7129 H   0  0  0  0  0  0  0  0  0  0  0  0
    0.6425    2.3170   12.9149 H   0  0  0  0  0  0  0  0  0  0  0  0
   -0.1781    3.8900   11.1844 H   0  0  0  0  0  0  0  0  0  0  0  0
    4.5333    2.1594   11.0287 H   0  0  0  0  0  0  0  0  0  0  0  0
   -0.0965   -0.0331   13.6099 H   0  0  0  0  0  0  0  0  0  0  0  0
   -3.0505    1.0911   11.7674 H   0  0  0  0  0  0  0  0  0  0  0  0
   -1.7460    1.4250   12.9561 H   0  0  0  0  0  0  0  0  0  0  0  0
   -1.4955    0.1974   11.6689 H   0  0  0  0  0  0  0  0  0  0  0  0
  1  2  1  0  0  0  0
  2  3  1  0  0  0  0
  3  4  2  0  0  0  0
  3 27  1  0  0  0  0
  4  5  1  0  0  0  0
  5  6  2  0  0  0  0
  6  7  1  0  0  0  0
  6 26  1  0  0  0  0
  7  8  2  0  0  0  0
  8  9  1  0  0  0  0
  8 16  1  0  0  0  0
  9 10  2  0  0  0  0
 10 11  1  0  0  0  0
 10 17  1  0  0  0  0
 11 12  1  0  0  0  0
 12 13  1  0  0  0  0
 12 16  1  0  0  0  0
 13 14  2  0  0  0  0
 14 15  1  0  0  0  0
 15 16  2  0  0  0  0
 17 18  1  0  0  0  0
 17 25  1  0  0  0  0
 18 19  2  0  0  0  0
 19 20  1  0  0  0  0
 20 21  2  0  0  0  0
 20 24  1  0  0  0  0
 21 22  1  0  0  0  0
 22 23  2  0  0  0  0
 23 24  1  0  0  0  0
 24 25  2  0  0  0  0
 26 27  2  0  0  0  0
 27 28  1  0  0  0  0
 28 29  1  0  0  0  0
  1 30  1  0  0  0  0
  1 31  1  0  0  0  0
  1 32  1  0  0  0  0
  4 33  1  0  0  0  0
  5 34  1  0  0  0  0
 11 35  1  0  0  0  0
 11 36  1  0  0  0  0
 13 37  1  0  0  0  0
 14 38  1  0  0  0  0
 17 39  1  0  0  0  0
 18 40  1  0  0  0  0
 19 41  1  0  0  0  0
 25 42  1  0  0  0  0
 26 43  1  0  0  0  0
 29 44  1  0  0  0  0
 29 45  1  0  0  0  0
 29 46  1  0  0  0  0
M  END
> <IC50[nM]>
12.6

$$$$
CHEMBL3265019
  -OEChem-05192314333D
 Structure written by MMmdl.
 46 50  0     1  0  0  0  0  0999 V2000
   -4.2567   -3.1043   13.5693 C   0  0  0  0  0  0  0  0  0  0  0  0
   -3.8736   -2.3605   14.7157 O   0  0  0  0  0  0  0  0  0  0  0  0
   -2.5257   -2.1110   14.8169 C   0  0  0  0  0  0  0  0  0  0  0  0
   -1.7458   -2.8699   15.6818 C   0  0  0  0  0  0  0  0  0  0  0  0
   -0.3904   -2.6103   15.8137 C   0  0  0  0  0  0  0  0  0  0  0  0
    0.2206   -1.5847   15.0868 C   0  0  0  0  0  0  0  0  0  0  0  0
    1.6037   -1.3593   15.3213 N   0  0  0  0  0  0  0  0  0  0  0  0
    2.5361   -0.4486   14.7616 C   0  0  0  0  0  0  0  0  0  0  0  0
    2.1814    0.3735   13.7239 N   0  0  0  0  0  0  0  0  0  0  0  0
    3.1138    1.2388   13.2174 C   0  0  0  0  0  0  0  0  0  0  0  0
    4.4183    1.2844   13.7022 C   0  0  0  0  0  0  0  0  0  0  0  0
    4.7470    0.4870   14.7610 N   0  0  0  0  0  0  0  0  0  0  0  0
    5.8980    0.3781   15.4861 C   0  0  0  0  0  0  0  0  0  0  0  0
    5.5879   -0.5236   16.5289 C   0  0  0  0  0  0  0  0  0  0  0  0
    4.3760   -1.0435   16.3736 N   0  0  0  0  0  0  0  0  0  0  0  0
    3.8368   -0.3913   15.3236 C   0  0  0  0  0  0  0  0  0  0  0  0
    2.6373    2.1616   12.1208 C   0  0  0  0  0  0  0  0  0  0  0  0
    1.3117    2.6428   12.1323 C   0  0  0  0  0  0  0  0  0  0  0  0
    0.8392    3.5282   11.1613 C   0  0  0  0  0  0  0  0  0  0  0  0
    1.7204    3.9285   10.1646 C   0  0  0  0  0  0  0  0  0  0  0  0
    1.5424    4.7860    9.1151 N   0  0  0  0  0  0  0  0  0  0  0  0
    2.7143    4.8525    8.3999 N   0  0  0  0  0  0  0  0  0  0  0  0
    3.5904    4.0382    9.0000 N   0  0  0  0  0  0  0  0  0  0  0  0
    3.0324    3.4382   10.1221 C   0  0  3  0  0  0  0  0  0  0  0  0
    3.5249    2.5426   11.0797 C   0  0  0  0  0  0  0  0  0  0  0  0
   -0.5551   -0.8189   14.1919 C   0  0  0  0  0  0  0  0  0  0  0  0
   -1.9443   -1.0883   14.0612 C   0  0  0  0  0  0  0  0  0  0  0  0
   -2.7530   -0.3558   13.2052 O   0  0  0  0  0  0  0  0  0  0  0  0
   -2.2324    0.6450   12.3520 C   0  0  0  0  0  0  0  0  0  0  0  0
   -5.3466   -3.2531   13.5755 H   0  0  0  0  0  0  0  0  0  0  0  0
   -3.9670   -2.5543   12.6618 H   0  0  0  0  0  0  0  0  0  0  0  0
   -3.7532   -4.0822   13.5818 H   0  0  0  0  0  0  0  0  0  0  0  0
   -2.1983   -3.6662   16.2542 H   0  0  0  0  0  0  0  0  0  0  0  0
    0.2025   -3.2098   16.4885 H   0  0  0  0  0  0  0  0  0  0  0  0
    5.0839    1.0107   12.8703 H   0  0  0  0  0  0  0  0  0  0  0  0
    4.6167    2.3234   14.0040 H   0  0  0  0  0  0  0  0  0  0  0  0
    6.8402    0.8731   15.3029 H   0  0  0  0  0  0  0  0  0  0  0  0
    6.2517   -0.7597   17.3475 H   0  0  0  0  0  0  0  0  0  0  0  0
    0.6425    2.3170   12.9149 H   0  0  0  0  0  0  0  0  0  0  0  0
   -0.1781    3.8900   11.1844 H   0  0  0  0  0  0  0  0  0  0  0  0
    2.6968    2.5928    9.5035 H   0  0  0  0  0  0  0  0  0  0  0  0
    4.5333    2.1594   11.0287 H   0  0  0  0  0  0  0  0  0  0  0  0
   -0.0965   -0.0331   13.6099 H   0  0  0  0  0  0  0  0  0  0  0  0
   -3.0505    1.0911   11.7674 H   0  0  0  0  0  0  0  0  0  0  0  0
   -1.7460    1.4250   12.9561 H   0  0  0  0  0  0  0  0  0  0  0  0
   -1.4955    0.1974   11.6689 H   0  0  0  0  0  0  0  0  0  0  0  0
  1  2  1  0  0  0  0
  2  3  1  0  0  0  0
  3  4  2  0  0  0  0
  3 27  1  0  0  0  0
  4  5  1  0  0  0  0
  5  6  2  0  0  0  0
  6  7  1  0  0  0  0
  6 26  1  0  0  0  0
  7  8  2  0  0  0  0
  8  9  1  0  0  0  0
  8 16  1  0  0  0  0
  9 10  2  0  0  0  0
 10 11  1  0  0  0  0
 10 17  1  0  0  0  0
 11 12  1  0  0  0  0
 12 13  1  0  0  0  0
 12 16  1  0  0  0  0
 13 14  2  0  0  0  0
 14 15  1  0  0  0  0
 15 16  2  0  0  0  0
 17 18  1  0  0  0  0
 17 25  2  0  0  0  0
 18 19  2  0  0  0  0
 19 20  1  0  0  0  0
 20 21  2  0  0  0  0
 20 24  1  0  0  0  0
 21 22  1  0  0  0  0
 22 23  2  0  0  0  0
 23 24  1  0  0  0  0
 24 25  1  0  0  0  0
 26 27  2  0  0  0  0
 27 28  1  0  0  0  0
 28 29  1  0  0  0  0
  1 30  1  0  0  0  0
  1 31  1  0  0  0  0
  1 32  1  0  0  0  0
  4 33  1  0  0  0  0
  5 34  1  0  0  0  0
 11 35  1  0  0  0  0
 11 36  1  0  0  0  0
 13 37  1  0  0  0  0
 14 38  1  0  0  0  0
 18 39  1  0  0  0  0
 19 40  1  0  0  0  0
 24 41  1  0  0  0  0
 25 42  1  0  0  0  0
 26 43  1  0  0  0  0
 29 44  1  0  0  0  0
 29 45  1  0  0  0  0
 29 46  1  0  0  0  0
M  END
> <IC50[nM]>
12.6

$$$$
CHEMBL3265019
  -OEChem-05192314333D
 Structure written by MMmdl.
 46 50  0     1  0  0  0  0  0999 V2000
   -4.2567   -3.1043   13.5693 C   0  0  0  0  0  0  0  0  0  0  0  0
   -3.8736   -2.3605   14.7157 O   0  0  0  0  0  0  0  0  0  0  0  0
   -2.5257   -2.1110   14.8169 C   0  0  0  0  0  0  0  0  0  0  0  0
   -1.7458   -2.8699   15.6818 C   0  0  0  0  0  0  0  0  0  0  0  0
   -0.3904   -2.6103   15.8137 C   0  0  0  0  0  0  0  0  0  0  0  0
    0.2206   -1.5847   15.0868 C   0  0  0  0  0  0  0  0  0  0  0  0
    1.6037   -1.3593   15.3213 N   0  0  0  0  0  0  0  0  0  0  0  0
    2.5361   -0.4486   14.7616 C   0  0  0  0  0  0  0  0  0  0  0  0
    2.1814    0.3735   13.7239 N   0  0  0  0  0  0  0  0  0  0  0  0
    3.1138    1.2388   13.2174 C   0  0  0  0  0  0  0  0  0  0  0  0
    4.4183    1.2844   13.7022 C   0  0  0  0  0  0  0  0  0  0  0  0
    4.7470    0.4870   14.7610 N   0  0  0  0  0  0  0  0  0  0  0  0
    5.8980    0.3781   15.4861 C   0  0  0  0  0  0  0  0  0  0  0  0
    5.5879   -0.5236   16.5289 C   0  0  0  0  0  0  0  0  0  0  0  0
    4.3760   -1.0435   16.3736 N   0  0  0  0  0  0  0  0  0  0  0  0
    3.8368   -0.3913   15.3236 C   0  0  0  0  0  0  0  0  0  0  0  0
    2.6373    2.1616   12.1208 C   0  0  0  0  0  0  0  0  0  0  0  0
    1.3117    2.6428   12.1323 C   0  0  0  0  0  0  0  0  0  0  0  0
    0.8392    3.5282   11.1613 C   0  0  0  0  0  0  0  0  0  0  0  0
    1.7204    3.9285   10.1646 C   0  0  3  0  0  0  0  0  0  0  0  0
    1.5424    4.7860    9.1151 N   0  0  0  0  0  0  0  0  0  0  0  0
    2.7143    4.8525    8.3999 N   0  0  0  0  0  0  0  0  0  0  0  0
    3.5904    4.0382    9.0000 N   0  0  0  0  0  0  0  0  0  0  0  0
    3.0324    3.4382   10.1221 C   0  0  0  0  0  0  0  0  0  0  0  0
    3.5249    2.5426   11.0797 C   0  0  0  0  0  0  0  0  0  0  0  0
   -0.5551   -0.8189   14.1919 C   0  0  0  0  0  0  0  0  0  0  0  0
   -1.9443   -1.0883   14.0612 C   0  0  0  0  0  0  0  0  0  0  0  0
   -2.7530   -0.3558   13.2052 O   0  0  0  0  0  0  0  0  0  0  0  0
   -2.2324    0.6450   12.3520 C   0  0  0  0  0  0  0  0  0  0  0  0
   -5.3466   -3.2531   13.5755 H   0  0  0  0  0  0  0  0  0  0  0  0
   -3.9670   -2.5543   12.6618 H   0  0  0  0  0  0  0  0  0  0  0  0
   -3.7532   -4.0822   13.5818 H   0  0  0  0  0  0  0  0  0  0  0  0
   -2.1983   -3.6662   16.2542 H   0  0  0  0  0  0  0  0  0  0  0  0
    0.2025   -3.2098   16.4885 H   0  0  0  0  0  0  0  0  0  0  0  0
    5.0839    1.0107   12.8703 H   0  0  0  0  0  0  0  0  0  0  0  0
    4.6167    2.3234   14.0040 H   0  0  0  0  0  0  0  0  0  0  0  0
    6.8402    0.8731   15.3029 H   0  0  0  0  0  0  0  0  0  0  0  0
    6.2517   -0.7597   17.3475 H   0  0  0  0  0  0  0  0  0  0  0  0
    0.6425    2.3170   12.9149 H   0  0  0  0  0  0  0  0  0  0  0  0
   -0.1781    3.8900   11.1844 H   0  0  0  0  0  0  0  0  0  0  0  0
    2.0532    4.7668   10.7943 H   0  0  0  0  0  0  0  0  0  0  0  0
    4.5333    2.1594   11.0287 H   0  0  0  0  0  0  0  0  0  0  0  0
   -0.0965   -0.0331   13.6099 H   0  0  0  0  0  0  0  0  0  0  0  0
   -3.0505    1.0911   11.7674 H   0  0  0  0  0  0  0  0  0  0  0  0
   -1.7460    1.4250   12.9561 H   0  0  0  0  0  0  0  0  0  0  0  0
   -1.4955    0.1974   11.6689 H   0  0  0  0  0  0  0  0  0  0  0  0
  1  2  1  0  0  0  0
  2  3  1  0  0  0  0
  3  4  2  0  0  0  0
  3 27  1  0  0  0  0
  4  5  1  0  0  0  0
  5  6  2  0  0  0  0
  6  7  1  0  0  0  0
  6 26  1  0  0  0  0
  7  8  2  0  0  0  0
  8  9  1  0  0  0  0
  8 16  1  0  0  0  0
  9 10  2  0  0  0  0
 10 11  1  0  0  0  0
 10 17  1  0  0  0  0
 11 12  1  0  0  0  0
 12 13  1  0  0  0  0
 12 16  1  0  0  0  0
 13 14  2  0  0  0  0
 14 15  1  0  0  0  0
 15 16  2  0  0  0  0
 17 18  1  0  0  0  0
 17 25  2  0  0  0  0
 18 19  2  0  0  0  0
 19 20  1  0  0  0  0
 20 21  1  0  0  0  0
 20 24  1  0  0  0  0
 21 22  2  0  0  0  0
 22 23  1  0  0  0  0
 23 24  2  0  0  0  0
 24 25  1  0  0  0  0
 26 27  2  0  0  0  0
 27 28  1  0  0  0  0
 28 29  1  0  0  0  0
  1 30  1  0  0  0  0
  1 31  1  0  0  0  0
  1 32  1  0  0  0  0
  4 33  1  0  0  0  0
  5 34  1  0  0  0  0
 11 35  1  0  0  0  0
 11 36  1  0  0  0  0
 13 37  1  0  0  0  0
 14 38  1  0  0  0  0
 18 39  1  0  0  0  0
 19 40  1  0  0  0  0
 20 41  1  0  0  0  0
 25 42  1  0  0  0  0
 26 43  1  0  0  0  0
 29 44  1  0  0  0  0
 29 45  1  0  0  0  0
 29 46  1  0  0  0  0
M  END
> <IC50[nM]>
12.6

$$$$
CHEMBL3265019
  -OEChem-05192314333D
 Structure written by MMmdl.
 46 50  0     0  0  0  0  0  0999 V2000
   -4.2567   -3.1043   13.5693 C   0  0  0  0  0  0  0  0  0  0  0  0
   -3.8736   -2.3605   14.7157 O   0  0  0  0  0  0  0  0  0  0  0  0
   -2.5257   -2.1110   14.8169 C   0  0  0  0  0  0  0  0  0  0  0  0
   -1.7458   -2.8699   15.6818 C   0  0  0  0  0  0  0  0  0  0  0  0
   -0.3904   -2.6103   15.8137 C   0  0  0  0  0  0  0  0  0  0  0  0
    0.2206   -1.5847   15.0868 C   0  0  0  0  0  0  0  0  0  0  0  0
    1.6037   -1.3593   15.3213 N   0  0  0  0  0  0  0  0  0  0  0  0
    2.5361   -0.4486   14.7616 C   0  0  0  0  0  0  0  0  0  0  0  0
    2.1814    0.3735   13.7239 N   0  0  0  0  0  0  0  0  0  0  0  0
    3.1138    1.2388   13.2174 C   0  0  0  0  0  0  0  0  0  0  0  0
    4.4183    1.2844   13.7022 C   0  0  0  0  0  0  0  0  0  0  0  0
    4.7470    0.4870   14.7610 N   0  0  0  0  0  0  0  0  0  0  0  0
    5.8980    0.3781   15.4861 C   0  0  0  0  0  0  0  0  0  0  0  0
    5.5879   -0.5236   16.5289 C   0  0  0  0  0  0  0  0  0  0  0  0
    4.3760   -1.0435   16.3736 N   0  0  0  0  0  0  0  0  0  0  0  0
    3.8368   -0.3913   15.3236 C   0  0  0  0  0  0  0  0  0  0  0  0
    2.6373    2.1616   12.1208 C   0  0  0  0  0  0  0  0  0  0  0  0
    1.3117    2.6428   12.1323 C   0  0  0  0  0  0  0  0  0  0  0  0
    0.8392    3.5282   11.1613 C   0  0  0  0  0  0  0  0  0  0  0  0
    1.7204    3.9285   10.1646 C   0  0  0  0  0  0  0  0  0  0  0  0
    1.5424    4.7860    9.1151 N   0  0  0  0  0  0  0  0  0  0  0  0
    2.7143    4.8525    8.3999 N   0  0  0  0  0  0  0  0  0  0  0  0
    3.5904    4.0382    9.0000 N   0  0  0  0  0  0  0  0  0  0  0  0
    3.0324    3.4382   10.1221 C   0  0  0  0  0  0  0  0  0  0  0  0
    3.5249    2.5426   11.0797 C   0  0  0  0  0  0  0  0  0  0  0  0
   -0.5551   -0.8189   14.1919 C   0  0  0  0  0  0  0  0  0  0  0  0
   -1.9443   -1.0883   14.0612 C   0  0  0  0  0  0  0  0  0  0  0  0
   -2.7530   -0.3558   13.2052 O   0  0  0  0  0  0  0  0  0  0  0  0
   -2.2324    0.6450   12.3520 C   0  0  0  0  0  0  0  0  0  0  0  0
   -5.3466   -3.2531   13.5755 H   0  0  0  0  0  0  0  0  0  0  0  0
   -3.9670   -2.5543   12.6618 H   0  0  0  0  0  0  0  0  0  0  0  0
   -3.7532   -4.0822   13.5818 H   0  0  0  0  0  0  0  0  0  0  0  0
   -2.1983   -3.6662   16.2542 H   0  0  0  0  0  0  0  0  0  0  0  0
    0.2025   -3.2098   16.4885 H   0  0  0  0  0  0  0  0  0  0  0  0
    5.0839    1.0107   12.8703 H   0  0  0  0  0  0  0  0  0  0  0  0
    4.6167    2.3234   14.0040 H   0  0  0  0  0  0  0  0  0  0  0  0
    6.8402    0.8731   15.3029 H   0  0  0  0  0  0  0  0  0  0  0  0
    6.2517   -0.7597   17.3475 H   0  0  0  0  0  0  0  0  0  0  0  0
    0.6425    2.3170   12.9149 H   0  0  0  0  0  0  0  0  0  0  0  0
   -0.0175    3.0465   10.6674 H   0  0  0  0  0  0  0  0  0  0  0  0
    0.4995    4.4354   11.6823 H   0  0  0  0  0  0  0  0  0  0  0  0
    4.5333    2.1594   11.0287 H   0  0  0  0  0  0  0  0  0  0  0  0
   -0.0965   -0.0331   13.6099 H   0  0  0  0  0  0  0  0  0  0  0  0
   -3.0505    1.0911   11.7674 H   0  0  0  0  0  0  0  0  0  0  0  0
   -1.7460    1.4250   12.9561 H   0  0  0  0  0  0  0  0  0  0  0  0
   -1.4955    0.1974   11.6689 H   0  0  0  0  0  0  0  0  0  0  0  0
  1  2  1  0  0  0  0
  2  3  1  0  0  0  0
  3  4  2  0  0  0  0
  3 27  1  0  0  0  0
  4  5  1  0  0  0  0
  5  6  2  0  0  0  0
  6  7  1  0  0  0  0
  6 26  1  0  0  0  0
  7  8  2  0  0  0  0
  8  9  1  0  0  0  0
  8 16  1  0  0  0  0
  9 10  2  0  0  0  0
 10 11  1  0  0  0  0
 10 17  1  0  0  0  0
 11 12  1  0  0  0  0
 12 13  1  0  0  0  0
 12 16  1  0  0  0  0
 13 14  2  0  0  0  0
 14 15  1  0  0  0  0
 15 16  2  0  0  0  0
 17 18  2  0  0  0  0
 17 25  1  0  0  0  0
 18 19  1  0  0  0  0
 19 20  1  0  0  0  0
 20 21  2  0  0  0  0
 20 24  1  0  0  0  0
 21 22  1  0  0  0  0
 22 23  2  0  0  0  0
 23 24  1  0  0  0  0
 24 25  2  0  0  0  0
 26 27  2  0  0  0  0
 27 28  1  0  0  0  0
 28 29  1  0  0  0  0
  1 30  1  0  0  0  0
  1 31  1  0  0  0  0
  1 32  1  0  0  0  0
  4 33  1  0  0  0  0
  5 34  1  0  0  0  0
 11 35  1  0  0  0  0
 11 36  1  0  0  0  0
 13 37  1  0  0  0  0
 14 38  1  0  0  0  0
 18 39  1  0  0  0  0
 19 40  1  0  0  0  0
 19 41  1  0  0  0  0
 25 42  1  0  0  0  0
 26 43  1  0  0  0  0
 29 44  1  0  0  0  0
 29 45  1  0  0  0  0
 29 46  1  0  0  0  0
M  END
> <IC50[nM]>
12.6

$$$$
CHEMBL3265019
  -OEChem-05192314333D
 Structure written by MMmdl.
 46 50  0     0  0  0  0  0  0999 V2000
   -4.2567   -3.1043   13.5693 C   0  0  0  0  0  0  0  0  0  0  0  0
   -3.8736   -2.3605   14.7157 O   0  0  0  0  0  0  0  0  0  0  0  0
   -2.5257   -2.1110   14.8169 C   0  0  0  0  0  0  0  0  0  0  0  0
   -1.7458   -2.8699   15.6818 C   0  0  0  0  0  0  0  0  0  0  0  0
   -0.3904   -2.6103   15.8137 C   0  0  0  0  0  0  0  0  0  0  0  0
    0.2206   -1.5847   15.0868 C   0  0  0  0  0  0  0  0  0  0  0  0
    1.6037   -1.3593   15.3213 N   0  0  0  0  0  0  0  0  0  0  0  0
    2.5361   -0.4486   14.7616 C   0  0  0  0  0  0  0  0  0  0  0  0
    2.1814    0.3735   13.7239 N   0  0  0  0  0  0  0  0  0  0  0  0
    3.1138    1.2388   13.2174 C   0  0  0  0  0  0  0  0  0  0  0  0
    4.4183    1.2844   13.7022 C   0  0  0  0  0  0  0  0  0  0  0  0
    4.7470    0.4870   14.7610 N   0  0  0  0  0  0  0  0  0  0  0  0
    5.8980    0.3781   15.4861 C   0  0  0  0  0  0  0  0  0  0  0  0
    5.5879   -0.5236   16.5289 C   0  0  0  0  0  0  0  0  0  0  0  0
    4.3760   -1.0435   16.3736 N   0  0  0  0  0  0  0  0  0  0  0  0
    3.8368   -0.3913   15.3236 C   0  0  0  0  0  0  0  0  0  0  0  0
    2.6373    2.1616   12.1208 C   0  0  0  0  0  0  0  0  0  0  0  0
    1.3117    2.6428   12.1323 C   0  0  0  0  0  0  0  0  0  0  0  0
    0.8392    3.5282   11.1613 C   0  0  0  0  0  0  0  0  0  0  0  0
    1.7204    3.9285   10.1646 C   0  0  0  0  0  0  0  0  0  0  0  0
    1.5424    4.7860    9.1151 N   0  0  0  0  0  0  0  0  0  0  0  0
    2.7143    4.8525    8.3999 N   0  0  0  0  0  0  0  0  0  0  0  0
    3.5904    4.0382    9.0000 N   0  0  0  0  0  0  0  0  0  0  0  0
    3.0324    3.4382   10.1221 C   0  0  0  0  0  0  0  0  0  0  0  0
    3.5249    2.5426   11.0797 C   0  0  0  0  0  0  0  0  0  0  0  0
   -0.5551   -0.8189   14.1919 C   0  0  0  0  0  0  0  0  0  0  0  0
   -1.9443   -1.0883   14.0612 C   0  0  0  0  0  0  0  0  0  0  0  0
   -2.7530   -0.3558   13.2052 O   0  0  0  0  0  0  0  0  0  0  0  0
   -2.2324    0.6450   12.3520 C   0  0  0  0  0  0  0  0  0  0  0  0
   -5.3466   -3.2531   13.5755 H   0  0  0  0  0  0  0  0  0  0  0  0
   -3.9670   -2.5543   12.6618 H   0  0  0  0  0  0  0  0  0  0  0  0
   -3.7532   -4.0822   13.5818 H   0  0  0  0  0  0  0  0  0  0  0  0
   -2.1983   -3.6662   16.2542 H   0  0  0  0  0  0  0  0  0  0  0  0
    0.2025   -3.2098   16.4885 H   0  0  0  0  0  0  0  0  0  0  0  0
    5.0839    1.0107   12.8703 H   0  0  0  0  0  0  0  0  0  0  0  0
    4.6167    2.3234   14.0040 H   0  0  0  0  0  0  0  0  0  0  0  0
    6.8402    0.8731   15.3029 H   0  0  0  0  0  0  0  0  0  0  0  0
    6.2517   -0.7597   17.3475 H   0  0  0  0  0  0  0  0  0  0  0  0
    0.6617    1.7567   12.0840 H   0  0  0  0  0  0  0  0  0  0  0  0
    1.1747    3.1457   13.1009 H   0  0  0  0  0  0  0  0  0  0  0  0
   -0.1781    3.8900   11.1844 H   0  0  0  0  0  0  0  0  0  0  0  0
    4.5333    2.1594   11.0287 H   0  0  0  0  0  0  0  0  0  0  0  0
   -0.0965   -0.0331   13.6099 H   0  0  0  0  0  0  0  0  0  0  0  0
   -3.0505    1.0911   11.7674 H   0  0  0  0  0  0  0  0  0  0  0  0
   -1.7460    1.4250   12.9561 H   0  0  0  0  0  0  0  0  0  0  0  0
   -1.4955    0.1974   11.6689 H   0  0  0  0  0  0  0  0  0  0  0  0
  1  2  1  0  0  0  0
  2  3  1  0  0  0  0
  3  4  2  0  0  0  0
  3 27  1  0  0  0  0
  4  5  1  0  0  0  0
  5  6  2  0  0  0  0
  6  7  1  0  0  0  0
  6 26  1  0  0  0  0
  7  8  2  0  0  0  0
  8  9  1  0  0  0  0
  8 16  1  0  0  0  0
  9 10  2  0  0  0  0
 10 11  1  0  0  0  0
 10 17  1  0  0  0  0
 11 12  1  0  0  0  0
 12 13  1  0  0  0  0
 12 16  1  0  0  0  0
 13 14  2  0  0  0  0
 14 15  1  0  0  0  0
 15 16  2  0  0  0  0
 17 18  1  0  0  0  0
 17 25  2  0  0  0  0
 18 19  1  0  0  0  0
 19 20  2  0  0  0  0
 20 21  1  0  0  0  0
 20 24  1  0  0  0  0
 21 22  2  0  0  0  0
 22 23  1  0  0  0  0
 23 24  2  0  0  0  0
 24 25  1  0  0  0  0
 26 27  2  0  0  0  0
 27 28  1  0  0  0  0
 28 29  1  0  0  0  0
  1 30  1  0  0  0  0
  1 31  1  0  0  0  0
  1 32  1  0  0  0  0
  4 33  1  0  0  0  0
  5 34  1  0  0  0  0
 11 35  1  0  0  0  0
 11 36  1  0  0  0  0
 13 37  1  0  0  0  0
 14 38  1  0  0  0  0
 18 39  1  0  0  0  0
 18 40  1  0  0  0  0
 19 41  1  0  0  0  0
 25 42  1  0  0  0  0
 26 43  1  0  0  0  0
 29 44  1  0  0  0  0
 29 45  1  0  0  0  0
 29 46  1  0  0  0  0
M  END
> <IC50[nM]>
12.6

$$$$
CHEMBL3265019
  -OEChem-05192314333D
 Structure written by MMmdl.
 46 50  0     0  0  0  0  0  0999 V2000
   -4.2567   -3.1043   13.5693 C   0  0  0  0  0  0  0  0  0  0  0  0
   -3.8736   -2.3605   14.7157 O   0  0  0  0  0  0  0  0  0  0  0  0
   -2.5257   -2.1110   14.8169 C   0  0  0  0  0  0  0  0  0  0  0  0
   -1.7458   -2.8699   15.6818 C   0  0  0  0  0  0  0  0  0  0  0  0
   -0.3904   -2.6103   15.8137 C   0  0  0  0  0  0  0  0  0  0  0  0
    0.2206   -1.5847   15.0868 C   0  0  0  0  0  0  0  0  0  0  0  0
    1.6037   -1.3593   15.3213 N   0  0  0  0  0  0  0  0  0  0  0  0
    2.5361   -0.4486   14.7616 C   0  0  0  0  0  0  0  0  0  0  0  0
    2.1814    0.3735   13.7239 N   0  0  0  0  0  0  0  0  0  0  0  0
    3.1138    1.2388   13.2174 C   0  0  0  0  0  0  0  0  0  0  0  0
    4.4183    1.2844   13.7022 C   0  0  0  0  0  0  0  0  0  0  0  0
    4.7470    0.4870   14.7610 N   0  0  0  0  0  0  0  0  0  0  0  0
    5.8980    0.3781   15.4861 C   0  0  0  0  0  0  0  0  0  0  0  0
    5.5879   -0.5236   16.5289 C   0  0  0  0  0  0  0  0  0  0  0  0
    4.3760   -1.0435   16.3736 N   0  0  0  0  0  0  0  0  0  0  0  0
    3.8368   -0.3913   15.3236 C   0  0  0  0  0  0  0  0  0  0  0  0
    2.6373    2.1616   12.1208 C   0  0  0  0  0  0  0  0  0  0  0  0
    1.3117    2.6428   12.1323 C   0  0  0  0  0  0  0  0  0  0  0  0
    0.8392    3.5282   11.1613 C   0  0  0  0  0  0  0  0  0  0  0  0
    1.7204    3.9285   10.1646 C   0  0  0  0  0  0  0  0  0  0  0  0
    1.5424    4.7860    9.1151 N   0  0  0  0  0  0  0  0  0  0  0  0
    2.7143    4.8525    8.3999 N   0  0  0  0  0  0  0  0  0  0  0  0
    3.5904    4.0382    9.0000 N   0  0  0  0  0  0  0  0  0  0  0  0
    3.0324    3.4382   10.1221 C   0  0  0  0  0  0  0  0  0  0  0  0
    3.5249    2.5426   11.0797 C   0  0  0  0  0  0  0  0  0  0  0  0
   -0.5551   -0.8189   14.1919 C   0  0  0  0  0  0  0  0  0  0  0  0
   -1.9443   -1.0883   14.0612 C   0  0  0  0  0  0  0  0  0  0  0  0
   -2.7530   -0.3558   13.2052 O   0  0  0  0  0  0  0  0  0  0  0  0
   -2.2324    0.6450   12.3520 C   0  0  0  0  0  0  0  0  0  0  0  0
   -5.3466   -3.2531   13.5755 H   0  0  0  0  0  0  0  0  0  0  0  0
   -3.9670   -2.5543   12.6618 H   0  0  0  0  0  0  0  0  0  0  0  0
   -3.7532   -4.0822   13.5818 H   0  0  0  0  0  0  0  0  0  0  0  0
   -2.1983   -3.6662   16.2542 H   0  0  0  0  0  0  0  0  0  0  0  0
    0.2025   -3.2098   16.4885 H   0  0  0  0  0  0  0  0  0  0  0  0
    5.0839    1.0107   12.8703 H   0  0  0  0  0  0  0  0  0  0  0  0
    4.6167    2.3234   14.0040 H   0  0  0  0  0  0  0  0  0  0  0  0
    6.8402    0.8731   15.3029 H   0  0  0  0  0  0  0  0  0  0  0  0
    6.2517   -0.7597   17.3475 H   0  0  0  0  0  0  0  0  0  0  0  0
    0.6425    2.3170   12.9149 H   0  0  0  0  0  0  0  0  0  0  0  0
   -0.1781    3.8900   11.1844 H   0  0  0  0  0  0  0  0  0  0  0  0
    4.4054    3.0074   11.5474 H   0  0  0  0  0  0  0  0  0  0  0  0
    3.8304    1.6270   10.5521 H   0  0  0  0  0  0  0  0  0  0  0  0
   -0.0965   -0.0331   13.6099 H   0  0  0  0  0  0  0  0  0  0  0  0
   -3.0505    1.0911   11.7674 H   0  0  0  0  0  0  0  0  0  0  0  0
   -1.7460    1.4250   12.9561 H   0  0  0  0  0  0  0  0  0  0  0  0
   -1.4955    0.1974   11.6689 H   0  0  0  0  0  0  0  0  0  0  0  0
  1  2  1  0  0  0  0
  2  3  1  0  0  0  0
  3  4  2  0  0  0  0
  3 27  1  0  0  0  0
  4  5  1  0  0  0  0
  5  6  2  0  0  0  0
  6  7  1  0  0  0  0
  6 26  1  0  0  0  0
  7  8  2  0  0  0  0
  8  9  1  0  0  0  0
  8 16  1  0  0  0  0
  9 10  2  0  0  0  0
 10 11  1  0  0  0  0
 10 17  1  0  0  0  0
 11 12  1  0  0  0  0
 12 13  1  0  0  0  0
 12 16  1  0  0  0  0
 13 14  2  0  0  0  0
 14 15  1  0  0  0  0
 15 16  2  0  0  0  0
 17 18  2  0  0  0  0
 17 25  1  0  0  0  0
 18 19  1  0  0  0  0
 19 20  2  0  0  0  0
 20 21  1  0  0  0  0
 20 24  1  0  0  0  0
 21 22  2  0  0  0  0
 22 23  1  0  0  0  0
 23 24  2  0  0  0  0
 24 25  1  0  0  0  0
 26 27  2  0  0  0  0
 27 28  1  0  0  0  0
 28 29  1  0  0  0  0
  1 30  1  0  0  0  0
  1 31  1  0  0  0  0
  1 32  1  0  0  0  0
  4 33  1  0  0  0  0
  5 34  1  0  0  0  0
 11 35  1  0  0  0  0
 11 36  1  0  0  0  0
 13 37  1  0  0  0  0
 14 38  1  0  0  0  0
 18 39  1  0  0  0  0
 19 40  1  0  0  0  0
 25 41  1  0  0  0  0
 25 42  1  0  0  0  0
 26 43  1  0  0  0  0
 29 44  1  0  0  0  0
 29 45  1  0  0  0  0
 29 46  1  0  0  0  0
M  END
> <IC50[nM]>
12.6

$$$$
CHEMBL3265019
  -OEChem-05192314333D
 Structure written by MMmdl.
 46 50  0     1  0  0  0  0  0999 V2000
   -4.2567   -3.1043   13.5693 C   0  0  0  0  0  0  0  0  0  0  0  0
   -3.8736   -2.3605   14.7157 O   0  0  0  0  0  0  0  0  0  0  0  0
   -2.5257   -2.1110   14.8169 C   0  0  3  0  0  0  0  0  0  0  0  0
   -1.7458   -2.8699   15.6818 C   0  0  0  0  0  0  0  0  0  0  0  0
   -0.3904   -2.6103   15.8137 C   0  0  0  0  0  0  0  0  0  0  0  0
    0.2206   -1.5847   15.0868 C   0  0  0  0  0  0  0  0  0  0  0  0
    1.6037   -1.3593   15.3213 N   0  0  0  0  0  0  0  0  0  0  0  0
    2.5361   -0.4486   14.7616 C   0  0  0  0  0  0  0  0  0  0  0  0
    2.1814    0.3735   13.7239 N   0  0  0  0  0  0  0  0  0  0  0  0
    3.1138    1.2388   13.2174 C   0  0  0  0  0  0  0  0  0  0  0  0
    4.4183    1.2844   13.7022 C   0  0  0  0  0  0  0  0  0  0  0  0
    4.7470    0.4870   14.7610 N   0  0  0  0  0  0  0  0  0  0  0  0
    5.8980    0.3781   15.4861 C   0  0  0  0  0  0  0  0  0  0  0  0
    5.5879   -0.5236   16.5289 C   0  0  0  0  0  0  0  0  0  0  0  0
    4.3760   -1.0435   16.3736 N   0  0  0  0  0  0  0  0  0  0  0  0
    3.8368   -0.3913   15.3236 C   0  0  0  0  0  0  0  0  0  0  0  0
    2.6373    2.1616   12.1208 C   0  0  0  0  0  0  0  0  0  0  0  0
    1.3117    2.6428   12.1323 C   0  0  0  0  0  0  0  0  0  0  0  0
    0.8392    3.5282   11.1613 C   0  0  0  0  0  0  0  0  0  0  0  0
    1.7204    3.9285   10.1646 C   0  0  0  0  0  0  0  0  0  0  0  0
    1.5424    4.7860    9.1151 N   0  0  0  0  0  0  0  0  0  0  0  0
    2.7143    4.8525    8.3999 N   0  0  0  0  0  0  0  0  0  0  0  0
    3.5904    4.0382    9.0000 N   0  0  0  0  0  0  0  0  0  0  0  0
    3.0324    3.4382   10.1221 C   0  0  0  0  0  0  0  0  0  0  0  0
    3.5249    2.5426   11.0797 C   0  0  0  0  0  0  0  0  0  0  0  0
   -0.5551   -0.8189   14.1919 C   0  0  0  0  0  0  0  0  0  0  0  0
   -1.9443   -1.0883   14.0612 C   0  0  0  0  0  0  0  0  0  0  0  0
   -2.7530   -0.3558   13.2052 O   0  0  0  0  0  0  0  0  0  0  0  0
   -2.2324    0.6450   12.3520 C   0  0  0  0  0  0  0  0  0  0  0  0
   -5.3466   -3.2531   13.5755 H   0  0  0  0  0  0  0  0  0  0  0  0
   -3.9670   -2.5543   12.6618 H   0  0  0  0  0  0  0  0  0  0  0  0
   -3.7532   -4.0822   13.5818 H   0  0  0  0  0  0  0  0  0  0  0  0
   -2.3287   -2.8271   14.0055 H   0  0  0  0  0  0  0  0  0  0  0  0
   -2.1983   -3.6662   16.2542 H   0  0  0  0  0  0  0  0  0  0  0  0
    0.2025   -3.2098   16.4885 H   0  0  0  0  0  0  0  0  0  0  0  0
    5.0839    1.0107   12.8703 H   0  0  0  0  0  0  0  0  0  0  0  0
    4.6167    2.3234   14.0040 H   0  0  0  0  0  0  0  0  0  0  0  0
    6.8402    0.8731   15.3029 H   0  0  0  0  0  0  0  0  0  0  0  0
    6.2517   -0.7597   17.3475 H   0  0  0  0  0  0  0  0  0  0  0  0
    0.6425    2.3170   12.9149 H   0  0  0  0  0  0  0  0  0  0  0  0
   -0.1781    3.8900   11.1844 H   0  0  0  0  0  0  0  0  0  0  0  0
    4.5333    2.1594   11.0287 H   0  0  0  0  0  0  0  0  0  0  0  0
   -0.0965   -0.0331   13.6099 H   0  0  0  0  0  0  0  0  0  0  0  0
   -3.0505    1.0911   11.7674 H   0  0  0  0  0  0  0  0  0  0  0  0
   -1.7460    1.4250   12.9561 H   0  0  0  0  0  0  0  0  0  0  0  0
   -1.4955    0.1974   11.6689 H   0  0  0  0  0  0  0  0  0  0  0  0
  1  2  1  0  0  0  0
  2  3  1  0  0  0  0
  3  4  1  0  0  0  0
  3 27  1  0  0  0  0
  4  5  2  0  0  0  0
  5  6  1  0  0  0  0
  6  7  2  0  0  0  0
  6 26  1  0  0  0  0
  7  8  1  0  0  0  0
  8  9  2  0  0  0  0
  8 16  1  0  0  0  0
  9 10  1  0  0  0  0
 10 11  1  0  0  0  0
 10 17  2  3  0  0  0
 11 12  1  0  0  0  0
 12 13  1  0  0  0  0
 12 16  1  0  0  0  0
 13 14  2  0  0  0  0
 14 15  1  0  0  0  0
 15 16  2  0  0  0  0
 17 18  1  0  0  0  0
 17 25  1  0  0  0  0
 18 19  2  0  0  0  0
 19 20  1  0  0  0  0
 20 21  2  0  0  0  0
 20 24  1  0  0  0  0
 21 22  1  0  0  0  0
 22 23  2  0  0  0  0
 23 24  1  0  0  0  0
 24 25  2  0  0  0  0
 26 27  2  0  0  0  0
 27 28  1  0  0  0  0
 28 29  1  0  0  0  0
  1 30  1  0  0  0  0
  1 31  1  0  0  0  0
  1 32  1  0  0  0  0
  3 33  1  0  0  0  0
  4 34  1  0  0  0  0
  5 35  1  0  0  0  0
 11 36  1  0  0  0  0
 11 37  1  0  0  0  0
 13 38  1  0  0  0  0
 14 39  1  0  0  0  0
 18 40  1  0  0  0  0
 19 41  1  0  0  0  0
 25 42  1  0  0  0  0
 26 43  1  0  0  0  0
 29 44  1  0  0  0  0
 29 45  1  0  0  0  0
 29 46  1  0  0  0  0
M  END
> <IC50[nM]>
12.6

$$$$
CHEMBL3265019
  -OEChem-05192314333D
 Structure written by MMmdl.
 46 50  0     0  0  0  0  0  0999 V2000
   -4.2567   -3.1043   13.5693 C   0  0  0  0  0  0  0  0  0  0  0  0
   -3.8736   -2.3605   14.7157 O   0  0  0  0  0  0  0  0  0  0  0  0
   -2.5257   -2.1110   14.8169 C   0  0  0  0  0  0  0  0  0  0  0  0
   -1.7458   -2.8699   15.6818 C   0  0  0  0  0  0  0  0  0  0  0  0
   -0.3904   -2.6103   15.8137 C   0  0  0  0  0  0  0  0  0  0  0  0
    0.2206   -1.5847   15.0868 C   0  0  0  0  0  0  0  0  0  0  0  0
    1.6037   -1.3593   15.3213 N   0  0  0  0  0  0  0  0  0  0  0  0
    2.5361   -0.4486   14.7616 C   0  0  0  0  0  0  0  0  0  0  0  0
    2.1814    0.3735   13.7239 N   0  0  0  0  0  0  0  0  0  0  0  0
    3.1138    1.2388   13.2174 C   0  0  0  0  0  0  0  0  0  0  0  0
    4.4183    1.2844   13.7022 C   0  0  0  0  0  0  0  0  0  0  0  0
    4.7470    0.4870   14.7610 N   0  0  0  0  0  0  0  0  0  0  0  0
    5.8980    0.3781   15.4861 C   0  0  0  0  0  0  0  0  0  0  0  0
    5.5879   -0.5236   16.5289 C   0  0  0  0  0  0  0  0  0  0  0  0
    4.3760   -1.0435   16.3736 N   0  0  0  0  0  0  0  0  0  0  0  0
    3.8368   -0.3913   15.3236 C   0  0  0  0  0  0  0  0  0  0  0  0
    2.6373    2.1616   12.1208 C   0  0  0  0  0  0  0  0  0  0  0  0
    1.3117    2.6428   12.1323 C   0  0  0  0  0  0  0  0  0  0  0  0
    0.8392    3.5282   11.1613 C   0  0  0  0  0  0  0  0  0  0  0  0
    1.7204    3.9285   10.1646 C   0  0  0  0  0  0  0  0  0  0  0  0
    1.5424    4.7860    9.1151 N   0  0  0  0  0  0  0  0  0  0  0  0
    2.7143    4.8525    8.3999 N   0  0  0  0  0  0  0  0  0  0  0  0
    3.5904    4.0382    9.0000 N   0  0  0  0  0  0  0  0  0  0  0  0
    3.0324    3.4382   10.1221 C   0  0  0  0  0  0  0  0  0  0  0  0
    3.5249    2.5426   11.0797 C   0  0  0  0  0  0  0  0  0  0  0  0
   -0.5551   -0.8189   14.1919 C   0  0  0  0  0  0  0  0  0  0  0  0
   -1.9443   -1.0883   14.0612 C   0  0  0  0  0  0  0  0  0  0  0  0
   -2.7530   -0.3558   13.2052 O   0  0  0  0  0  0  0  0  0  0  0  0
   -2.2324    0.6450   12.3520 C   0  0  0  0  0  0  0  0  0  0  0  0
   -5.3466   -3.2531   13.5755 H   0  0  0  0  0  0  0  0  0  0  0  0
   -3.9670   -2.5543   12.6618 H   0  0  0  0  0  0  0  0  0  0  0  0
   -3.7532   -4.0822   13.5818 H   0  0  0  0  0  0  0  0  0  0  0  0
   -2.1983   -3.6662   16.2542 H   0  0  0  0  0  0  0  0  0  0  0  0
   -0.2170   -2.3864   16.8766 H   0  0  0  0  0  0  0  0  0  0  0  0
    0.1335   -3.5393   15.5445 H   0  0  0  0  0  0  0  0  0  0  0  0
    5.0839    1.0107   12.8703 H   0  0  0  0  0  0  0  0  0  0  0  0
    4.6167    2.3234   14.0040 H   0  0  0  0  0  0  0  0  0  0  0  0
    6.8402    0.8731   15.3029 H   0  0  0  0  0  0  0  0  0  0  0  0
    6.2517   -0.7597   17.3475 H   0  0  0  0  0  0  0  0  0  0  0  0
    0.6425    2.3170   12.9149 H   0  0  0  0  0  0  0  0  0  0  0  0
   -0.1781    3.8900   11.1844 H   0  0  0  0  0  0  0  0  0  0  0  0
    4.5333    2.1594   11.0287 H   0  0  0  0  0  0  0  0  0  0  0  0
   -0.0965   -0.0331   13.6099 H   0  0  0  0  0  0  0  0  0  0  0  0
   -3.0505    1.0911   11.7674 H   0  0  0  0  0  0  0  0  0  0  0  0
   -1.7460    1.4250   12.9561 H   0  0  0  0  0  0  0  0  0  0  0  0
   -1.4955    0.1974   11.6689 H   0  0  0  0  0  0  0  0  0  0  0  0
  1  2  1  0  0  0  0
  2  3  1  0  0  0  0
  3  4  2  0  0  0  0
  3 27  1  0  0  0  0
  4  5  1  0  0  0  0
  5  6  1  0  0  0  0
  6  7  2  0  0  0  0
  6 26  1  0  0  0  0
  7  8  1  0  0  0  0
  8  9  2  0  0  0  0
  8 16  1  0  0  0  0
  9 10  1  0  0  0  0
 10 11  1  0  0  0  0
 10 17  2  3  0  0  0
 11 12  1  0  0  0  0
 12 13  1  0  0  0  0
 12 16  1  0  0  0  0
 13 14  2  0  0  0  0
 14 15  1  0  0  0  0
 15 16  2  0  0  0  0
 17 18  1  0  0  0  0
 17 25  1  0  0  0  0
 18 19  2  0  0  0  0
 19 20  1  0  0  0  0
 20 21  2  0  0  0  0
 20 24  1  0  0  0  0
 21 22  1  0  0  0  0
 22 23  2  0  0  0  0
 23 24  1  0  0  0  0
 24 25  2  0  0  0  0
 26 27  2  0  0  0  0
 27 28  1  0  0  0  0
 28 29  1  0  0  0  0
  1 30  1  0  0  0  0
  1 31  1  0  0  0  0
  1 32  1  0  0  0  0
  4 33  1  0  0  0  0
  5 34  1  0  0  0  0
  5 35  1  0  0  0  0
 11 36  1  0  0  0  0
 11 37  1  0  0  0  0
 13 38  1  0  0  0  0
 14 39  1  0  0  0  0
 18 40  1  0  0  0  0
 19 41  1  0  0  0  0
 25 42  1  0  0  0  0
 26 43  1  0  0  0  0
 29 44  1  0  0  0  0
 29 45  1  0  0  0  0
 29 46  1  0  0  0  0
M  END
> <IC50[nM]>
12.6

$$$$
CHEMBL3265019
  -OEChem-05192314333D
 Structure written by MMmdl.
 46 50  0     0  0  0  0  0  0999 V2000
   -4.2567   -3.1043   13.5693 C   0  0  0  0  0  0  0  0  0  0  0  0
   -3.8736   -2.3605   14.7157 O   0  0  0  0  0  0  0  0  0  0  0  0
   -2.5257   -2.1110   14.8169 C   0  0  0  0  0  0  0  0  0  0  0  0
   -1.7458   -2.8699   15.6818 C   0  0  0  0  0  0  0  0  0  0  0  0
   -0.3904   -2.6103   15.8137 C   0  0  0  0  0  0  0  0  0  0  0  0
    0.2206   -1.5847   15.0868 C   0  0  0  0  0  0  0  0  0  0  0  0
    1.6037   -1.3593   15.3213 N   0  0  0  0  0  0  0  0  0  0  0  0
    2.5361   -0.4486   14.7616 C   0  0  0  0  0  0  0  0  0  0  0  0
    2.1814    0.3735   13.7239 N   0  0  0  0  0  0  0  0  0  0  0  0
    3.1138    1.2388   13.2174 C   0  0  0  0  0  0  0  0  0  0  0  0
    4.4183    1.2844   13.7022 C   0  0  0  0  0  0  0  0  0  0  0  0
    4.7470    0.4870   14.7610 N   0  0  0  0  0  0  0  0  0  0  0  0
    5.8980    0.3781   15.4861 C   0  0  0  0  0  0  0  0  0  0  0  0
    5.5879   -0.5236   16.5289 C   0  0  0  0  0  0  0  0  0  0  0  0
    4.3760   -1.0435   16.3736 N   0  0  0  0  0  0  0  0  0  0  0  0
    3.8368   -0.3913   15.3236 C   0  0  0  0  0  0  0  0  0  0  0  0
    2.6373    2.1616   12.1208 C   0  0  0  0  0  0  0  0  0  0  0  0
    1.3117    2.6428   12.1323 C   0  0  0  0  0  0  0  0  0  0  0  0
    0.8392    3.5282   11.1613 C   0  0  0  0  0  0  0  0  0  0  0  0
    1.7204    3.9285   10.1646 C   0  0  0  0  0  0  0  0  0  0  0  0
    1.5424    4.7860    9.1151 N   0  0  0  0  0  0  0  0  0  0  0  0
    2.7143    4.8525    8.3999 N   0  0  0  0  0  0  0  0  0  0  0  0
    3.5904    4.0382    9.0000 N   0  0  0  0  0  0  0  0  0  0  0  0
    3.0324    3.4382   10.1221 C   0  0  0  0  0  0  0  0  0  0  0  0
    3.5249    2.5426   11.0797 C   0  0  0  0  0  0  0  0  0  0  0  0
   -0.5551   -0.8189   14.1919 C   0  0  0  0  0  0  0  0  0  0  0  0
   -1.9443   -1.0883   14.0612 C   0  0  0  0  0  0  0  0  0  0  0  0
   -2.7530   -0.3558   13.2052 O   0  0  0  0  0  0  0  0  0  0  0  0
   -2.2324    0.6450   12.3520 C   0  0  0  0  0  0  0  0  0  0  0  0
   -5.3466   -3.2531   13.5755 H   0  0  0  0  0  0  0  0  0  0  0  0
   -3.9670   -2.5543   12.6618 H   0  0  0  0  0  0  0  0  0  0  0  0
   -3.7532   -4.0822   13.5818 H   0  0  0  0  0  0  0  0  0  0  0  0
   -2.1983   -3.6662   16.2542 H   0  0  0  0  0  0  0  0  0  0  0  0
    0.2025   -3.2098   16.4885 H   0  0  0  0  0  0  0  0  0  0  0  0
    5.0839    1.0107   12.8703 H   0  0  0  0  0  0  0  0  0  0  0  0
    4.6167    2.3234   14.0040 H   0  0  0  0  0  0  0  0  0  0  0  0
    6.8402    0.8731   15.3029 H   0  0  0  0  0  0  0  0  0  0  0  0
    6.2517   -0.7597   17.3475 H   0  0  0  0  0  0  0  0  0  0  0  0
    0.6425    2.3170   12.9149 H   0  0  0  0  0  0  0  0  0  0  0  0
   -0.1781    3.8900   11.1844 H   0  0  0  0  0  0  0  0  0  0  0  0
    4.5333    2.1594   11.0287 H   0  0  0  0  0  0  0  0  0  0  0  0
   -0.4612    0.2313   14.5053 H   0  0  0  0  0  0  0  0  0  0  0  0
   -0.1097   -0.9450   13.1940 H   0  0  0  0  0  0  0  0  0  0  0  0
   -3.0505    1.0911   11.7674 H   0  0  0  0  0  0  0  0  0  0  0  0
   -1.7460    1.4250   12.9561 H   0  0  0  0  0  0  0  0  0  0  0  0
   -1.4955    0.1974   11.6689 H   0  0  0  0  0  0  0  0  0  0  0  0
  1  2  1  0  0  0  0
  2  3  1  0  0  0  0
  3  4  1  0  0  0  0
  3 27  2  0  0  0  0
  4  5  2  0  0  0  0
  5  6  1  0  0  0  0
  6  7  2  0  0  0  0
  6 26  1  0  0  0  0
  7  8  1  0  0  0  0
  8  9  2  0  0  0  0
  8 16  1  0  0  0  0
  9 10  1  0  0  0  0
 10 11  1  0  0  0  0
 10 17  2  3  0  0  0
 11 12  1  0  0  0  0
 12 13  1  0  0  0  0
 12 16  1  0  0  0  0
 13 14  2  0  0  0  0
 14 15  1  0  0  0  0
 15 16  2  0  0  0  0
 17 18  1  0  0  0  0
 17 25  1  0  0  0  0
 18 19  2  0  0  0  0
 19 20  1  0  0  0  0
 20 21  2  0  0  0  0
 20 24  1  0  0  0  0
 21 22  1  0  0  0  0
 22 23  2  0  0  0  0
 23 24  1  0  0  0  0
 24 25  2  0  0  0  0
 26 27  1  0  0  0  0
 27 28  1  0  0  0  0
 28 29  1  0  0  0  0
  1 30  1  0  0  0  0
  1 31  1  0  0  0  0
  1 32  1  0  0  0  0
  4 33  1  0  0  0  0
  5 34  1  0  0  0  0
 11 35  1  0  0  0  0
 11 36  1  0  0  0  0
 13 37  1  0  0  0  0
 14 38  1  0  0  0  0
 18 39  1  0  0  0  0
 19 40  1  0  0  0  0
 25 41  1  0  0  0  0
 26 42  1  0  0  0  0
 26 43  1  0  0  0  0
 29 44  1  0  0  0  0
 29 45  1  0  0  0  0
 29 46  1  0  0  0  0
M  END
> <IC50[nM]>
12.6

$$$$
CHEMBL3265019
  -OEChem-05192314333D
 Structure written by MMmdl.
 46 50  0     1  0  0  0  0  0999 V2000
   -4.2567   -3.1043   13.5693 C   0  0  0  0  0  0  0  0  0  0  0  0
   -3.8736   -2.3605   14.7157 O   0  0  0  0  0  0  0  0  0  0  0  0
   -2.5257   -2.1110   14.8169 C   0  0  3  0  0  0  0  0  0  0  0  0
   -1.7458   -2.8699   15.6818 C   0  0  0  0  0  0  0  0  0  0  0  0
   -0.3904   -2.6103   15.8137 C   0  0  0  0  0  0  0  0  0  0  0  0
    0.2206   -1.5847   15.0868 C   0  0  0  0  0  0  0  0  0  0  0  0
    1.6037   -1.3593   15.3213 N   0  0  0  0  0  0  0  0  0  0  0  0
    2.5361   -0.4486   14.7616 C   0  0  0  0  0  0  0  0  0  0  0  0
    2.1814    0.3735   13.7239 N   0  0  0  0  0  0  0  0  0  0  0  0
    3.1138    1.2388   13.2174 C   0  0  0  0  0  0  0  0  0  0  0  0
    4.4183    1.2844   13.7022 C   0  0  0  0  0  0  0  0  0  0  0  0
    4.7470    0.4870   14.7610 N   0  0  0  0  0  0  0  0  0  0  0  0
    5.8980    0.3781   15.4861 C   0  0  0  0  0  0  0  0  0  0  0  0
    5.5879   -0.5236   16.5289 C   0  0  0  0  0  0  0  0  0  0  0  0
    4.3760   -1.0435   16.3736 N   0  0  0  0  0  0  0  0  0  0  0  0
    3.8368   -0.3913   15.3236 C   0  0  0  0  0  0  0  0  0  0  0  0
    2.6373    2.1616   12.1208 C   0  0  3  0  0  0  0  0  0  0  0  0
    1.3117    2.6428   12.1323 C   0  0  0  0  0  0  0  0  0  0  0  0
    0.8392    3.5282   11.1613 C   0  0  0  0  0  0  0  0  0  0  0  0
    1.7204    3.9285   10.1646 C   0  0  0  0  0  0  0  0  0  0  0  0
    1.5424    4.7860    9.1151 N   0  0  0  0  0  0  0  0  0  0  0  0
    2.7143    4.8525    8.3999 N   0  0  0  0  0  0  0  0  0  0  0  0
    3.5904    4.0382    9.0000 N   0  0  0  0  0  0  0  0  0  0  0  0
    3.0324    3.4382   10.1221 C   0  0  0  0  0  0  0  0  0  0  0  0
    3.5249    2.5426   11.0797 C   0  0  0  0  0  0  0  0  0  0  0  0
   -0.5551   -0.8189   14.1919 C   0  0  0  0  0  0  0  0  0  0  0  0
   -1.9443   -1.0883   14.0612 C   0  0  0  0  0  0  0  0  0  0  0  0
   -2.7530   -0.3558   13.2052 O   0  0  0  0  0  0  0  0  0  0  0  0
   -2.2324    0.6450   12.3520 C   0  0  0  0  0  0  0  0  0  0  0  0
   -5.3466   -3.2531   13.5755 H   0  0  0  0  0  0  0  0  0  0  0  0
   -3.9670   -2.5543   12.6618 H   0  0  0  0  0  0  0  0  0  0  0  0
   -3.7532   -4.0822   13.5818 H   0  0  0  0  0  0  0  0  0  0  0  0
   -2.3287   -2.8271   14.0055 H   0  0  0  0  0  0  0  0  0  0  0  0
   -2.1983   -3.6662   16.2542 H   0  0  0  0  0  0  0  0  0  0  0  0
    0.2025   -3.2098   16.4885 H   0  0  0  0  0  0  0  0  0  0  0  0
    5.1530    1.9352   13.2514 H   0  0  0  0  0  0  0  0  0  0  0  0
    6.8402    0.8731   15.3029 H   0  0  0  0  0  0  0  0  0  0  0  0
    6.2517   -0.7597   17.3475 H   0  0  0  0  0  0  0  0  0  0  0  0
    2.9583    3.0313   12.7129 H   0  0  0  0  0  0  0  0  0  0  0  0
    0.6425    2.3170   12.9149 H   0  0  0  0  0  0  0  0  0  0  0  0
   -0.1781    3.8900   11.1844 H   0  0  0  0  0  0  0  0  0  0  0  0
    4.5333    2.1594   11.0287 H   0  0  0  0  0  0  0  0  0  0  0  0
   -0.0965   -0.0331   13.6099 H   0  0  0  0  0  0  0  0  0  0  0  0
   -3.0505    1.0911   11.7674 H   0  0  0  0  0  0  0  0  0  0  0  0
   -1.7460    1.4250   12.9561 H   0  0  0  0  0  0  0  0  0  0  0  0
   -1.4955    0.1974   11.6689 H   0  0  0  0  0  0  0  0  0  0  0  0
  1  2  1  0  0  0  0
  2  3  1  0  0  0  0
  3  4  1  0  0  0  0
  3 27  1  0  0  0  0
  4  5  2  0  0  0  0
  5  6  1  0  0  0  0
  6  7  2  0  0  0  0
  6 26  1  0  0  0  0
  7  8  1  0  0  0  0
  8  9  2  0  0  0  0
  8 16  1  0  0  0  0
  9 10  1  0  0  0  0
 10 11  2  0  0  0  0
 10 17  1  0  0  0  0
 11 12  1  0  0  0  0
 12 13  1  0  0  0  0
 12 16  1  0  0  0  0
 13 14  2  0  0  0  0
 14 15  1  0  0  0  0
 15 16  2  0  0  0  0
 17 18  1  0  0  0  0
 17 25  1  0  0  0  0
 18 19  2  0  0  0  0
 19 20  1  0  0  0  0
 20 21  2  0  0  0  0
 20 24  1  0  0  0  0
 21 22  1  0  0  0  0
 22 23  2  0  0  0  0
 23 24  1  0  0  0  0
 24 25  2  0  0  0  0
 26 27  2  0  0  0  0
 27 28  1  0  0  0  0
 28 29  1  0  0  0  0
  1 30  1  0  0  0  0
  1 31  1  0  0  0  0
  1 32  1  0  0  0  0
  3 33  1  0  0  0  0
  4 34  1  0  0  0  0
  5 35  1  0  0  0  0
 11 36  1  0  0  0  0
 13 37  1  0  0  0  0
 14 38  1  0  0  0  0
 17 39  1  0  0  0  0
 18 40  1  0  0  0  0
 19 41  1  0  0  0  0
 25 42  1  0  0  0  0
 26 43  1  0  0  0  0
 29 44  1  0  0  0  0
 29 45  1  0  0  0  0
 29 46  1  0  0  0  0
M  END
> <IC50[nM]>
12.6

$$$$
CHEMBL3265019
  -OEChem-05192314333D
 Structure written by MMmdl.
 46 50  0     1  0  0  0  0  0999 V2000
   -4.2567   -3.1043   13.5693 C   0  0  0  0  0  0  0  0  0  0  0  0
   -3.8736   -2.3605   14.7157 O   0  0  0  0  0  0  0  0  0  0  0  0
   -2.5257   -2.1110   14.8169 C   0  0  3  0  0  0  0  0  0  0  0  0
   -1.7458   -2.8699   15.6818 C   0  0  0  0  0  0  0  0  0  0  0  0
   -0.3904   -2.6103   15.8137 C   0  0  0  0  0  0  0  0  0  0  0  0
    0.2206   -1.5847   15.0868 C   0  0  0  0  0  0  0  0  0  0  0  0
    1.6037   -1.3593   15.3213 N   0  0  0  0  0  0  0  0  0  0  0  0
    2.5361   -0.4486   14.7616 C   0  0  0  0  0  0  0  0  0  0  0  0
    2.1814    0.3735   13.7239 N   0  0  0  0  0  0  0  0  0  0  0  0
    3.1138    1.2388   13.2174 C   0  0  0  0  0  0  0  0  0  0  0  0
    4.4183    1.2844   13.7022 C   0  0  0  0  0  0  0  0  0  0  0  0
    4.7470    0.4870   14.7610 N   0  0  0  0  0  0  0  0  0  0  0  0
    5.8980    0.3781   15.4861 C   0  0  0  0  0  0  0  0  0  0  0  0
    5.5879   -0.5236   16.5289 C   0  0  0  0  0  0  0  0  0  0  0  0
    4.3760   -1.0435   16.3736 N   0  0  0  0  0  0  0  0  0  0  0  0
    3.8368   -0.3913   15.3236 C   0  0  0  0  0  0  0  0  0  0  0  0
    2.6373    2.1616   12.1208 C   0  0  0  0  0  0  0  0  0  0  0  0
    1.3117    2.6428   12.1323 C   0  0  0  0  0  0  0  0  0  0  0  0
    0.8392    3.5282   11.1613 C   0  0  0  0  0  0  0  0  0  0  0  0
    1.7204    3.9285   10.1646 C   0  0  0  0  0  0  0  0  0  0  0  0
    1.5424    4.7860    9.1151 N   0  0  0  0  0  0  0  0  0  0  0  0
    2.7143    4.8525    8.3999 N   0  0  0  0  0  0  0  0  0  0  0  0
    3.5904    4.0382    9.0000 N   0  0  0  0  0  0  0  0  0  0  0  0
    3.0324    3.4382   10.1221 C   0  0  3  0  0  0  0  0  0  0  0  0
    3.5249    2.5426   11.0797 C   0  0  0  0  0  0  0  0  0  0  0  0
   -0.5551   -0.8189   14.1919 C   0  0  0  0  0  0  0  0  0  0  0  0
   -1.9443   -1.0883   14.0612 C   0  0  0  0  0  0  0  0  0  0  0  0
   -2.7530   -0.3558   13.2052 O   0  0  0  0  0  0  0  0  0  0  0  0
   -2.2324    0.6450   12.3520 C   0  0  0  0  0  0  0  0  0  0  0  0
   -5.3466   -3.2531   13.5755 H   0  0  0  0  0  0  0  0  0  0  0  0
   -3.9670   -2.5543   12.6618 H   0  0  0  0  0  0  0  0  0  0  0  0
   -3.7532   -4.0822   13.5818 H   0  0  0  0  0  0  0  0  0  0  0  0
   -2.3287   -2.8271   14.0055 H   0  0  0  0  0  0  0  0  0  0  0  0
   -2.1983   -3.6662   16.2542 H   0  0  0  0  0  0  0  0  0  0  0  0
    0.2025   -3.2098   16.4885 H   0  0  0  0  0  0  0  0  0  0  0  0
    5.1530    1.9352   13.2514 H   0  0  0  0  0  0  0  0  0  0  0  0
    6.8402    0.8731   15.3029 H   0  0  0  0  0  0  0  0  0  0  0  0
    6.2517   -0.7597   17.3475 H   0  0  0  0  0  0  0  0  0  0  0  0
    0.6425    2.3170   12.9149 H   0  0  0  0  0  0  0  0  0  0  0  0
   -0.1781    3.8900   11.1844 H   0  0  0  0  0  0  0  0  0  0  0  0
    2.6968    2.5928    9.5035 H   0  0  0  0  0  0  0  0  0  0  0  0
    4.5333    2.1594   11.0287 H   0  0  0  0  0  0  0  0  0  0  0  0
   -0.0965   -0.0331   13.6099 H   0  0  0  0  0  0  0  0  0  0  0  0
   -3.0505    1.0911   11.7674 H   0  0  0  0  0  0  0  0  0  0  0  0
   -1.7460    1.4250   12.9561 H   0  0  0  0  0  0  0  0  0  0  0  0
   -1.4955    0.1974   11.6689 H   0  0  0  0  0  0  0  0  0  0  0  0
  1  2  1  0  0  0  0
  2  3  1  0  0  0  0
  3  4  1  0  0  0  0
  3 27  1  0  0  0  0
  4  5  2  0  0  0  0
  5  6  1  0  0  0  0
  6  7  2  0  0  0  0
  6 26  1  0  0  0  0
  7  8  1  0  0  0  0
  8  9  2  0  0  0  0
  8 16  1  0  0  0  0
  9 10  1  0  0  0  0
 10 11  2  0  0  0  0
 10 17  1  0  0  0  0
 11 12  1  0  0  0  0
 12 13  1  0  0  0  0
 12 16  1  0  0  0  0
 13 14  2  0  0  0  0
 14 15  1  0  0  0  0
 15 16  2  0  0  0  0
 17 18  1  0  0  0  0
 17 25  2  0  0  0  0
 18 19  2  0  0  0  0
 19 20  1  0  0  0  0
 20 21  2  0  0  0  0
 20 24  1  0  0  0  0
 21 22  1  0  0  0  0
 22 23  2  0  0  0  0
 23 24  1  0  0  0  0
 24 25  1  0  0  0  0
 26 27  2  0  0  0  0
 27 28  1  0  0  0  0
 28 29  1  0  0  0  0
  1 30  1  0  0  0  0
  1 31  1  0  0  0  0
  1 32  1  0  0  0  0
  3 33  1  0  0  0  0
  4 34  1  0  0  0  0
  5 35  1  0  0  0  0
 11 36  1  0  0  0  0
 13 37  1  0  0  0  0
 14 38  1  0  0  0  0
 18 39  1  0  0  0  0
 19 40  1  0  0  0  0
 24 41  1  0  0  0  0
 25 42  1  0  0  0  0
 26 43  1  0  0  0  0
 29 44  1  0  0  0  0
 29 45  1  0  0  0  0
 29 46  1  0  0  0  0
M  END
> <IC50[nM]>
12.6

$$$$
CHEMBL3265019
  -OEChem-05192314333D
 Structure written by MMmdl.
 46 50  0     1  0  0  0  0  0999 V2000
   -4.2567   -3.1043   13.5693 C   0  0  0  0  0  0  0  0  0  0  0  0
   -3.8736   -2.3605   14.7157 O   0  0  0  0  0  0  0  0  0  0  0  0
   -2.5257   -2.1110   14.8169 C   0  0  3  0  0  0  0  0  0  0  0  0
   -1.7458   -2.8699   15.6818 C   0  0  0  0  0  0  0  0  0  0  0  0
   -0.3904   -2.6103   15.8137 C   0  0  0  0  0  0  0  0  0  0  0  0
    0.2206   -1.5847   15.0868 C   0  0  0  0  0  0  0  0  0  0  0  0
    1.6037   -1.3593   15.3213 N   0  0  0  0  0  0  0  0  0  0  0  0
    2.5361   -0.4486   14.7616 C   0  0  0  0  0  0  0  0  0  0  0  0
    2.1814    0.3735   13.7239 N   0  0  0  0  0  0  0  0  0  0  0  0
    3.1138    1.2388   13.2174 C   0  0  0  0  0  0  0  0  0  0  0  0
    4.4183    1.2844   13.7022 C   0  0  0  0  0  0  0  0  0  0  0  0
    4.7470    0.4870   14.7610 N   0  0  0  0  0  0  0  0  0  0  0  0
    5.8980    0.3781   15.4861 C   0  0  0  0  0  0  0  0  0  0  0  0
    5.5879   -0.5236   16.5289 C   0  0  0  0  0  0  0  0  0  0  0  0
    4.3760   -1.0435   16.3736 N   0  0  0  0  0  0  0  0  0  0  0  0
    3.8368   -0.3913   15.3236 C   0  0  0  0  0  0  0  0  0  0  0  0
    2.6373    2.1616   12.1208 C   0  0  0  0  0  0  0  0  0  0  0  0
    1.3117    2.6428   12.1323 C   0  0  0  0  0  0  0  0  0  0  0  0
    0.8392    3.5282   11.1613 C   0  0  0  0  0  0  0  0  0  0  0  0
    1.7204    3.9285   10.1646 C   0  0  3  0  0  0  0  0  0  0  0  0
    1.5424    4.7860    9.1151 N   0  0  0  0  0  0  0  0  0  0  0  0
    2.7143    4.8525    8.3999 N   0  0  0  0  0  0  0  0  0  0  0  0
    3.5904    4.0382    9.0000 N   0  0  0  0  0  0  0  0  0  0  0  0
    3.0324    3.4382   10.1221 C   0  0  0  0  0  0  0  0  0  0  0  0
    3.5249    2.5426   11.0797 C   0  0  0  0  0  0  0  0  0  0  0  0
   -0.5551   -0.8189   14.1919 C   0  0  0  0  0  0  0  0  0  0  0  0
   -1.9443   -1.0883   14.0612 C   0  0  0  0  0  0  0  0  0  0  0  0
   -2.7530   -0.3558   13.2052 O   0  0  0  0  0  0  0  0  0  0  0  0
   -2.2324    0.6450   12.3520 C   0  0  0  0  0  0  0  0  0  0  0  0
   -5.3466   -3.2531   13.5755 H   0  0  0  0  0  0  0  0  0  0  0  0
   -3.9670   -2.5543   12.6618 H   0  0  0  0  0  0  0  0  0  0  0  0
   -3.7532   -4.0822   13.5818 H   0  0  0  0  0  0  0  0  0  0  0  0
   -2.3287   -2.8271   14.0055 H   0  0  0  0  0  0  0  0  0  0  0  0
   -2.1983   -3.6662   16.2542 H   0  0  0  0  0  0  0  0  0  0  0  0
    0.2025   -3.2098   16.4885 H   0  0  0  0  0  0  0  0  0  0  0  0
    5.1530    1.9352   13.2514 H   0  0  0  0  0  0  0  0  0  0  0  0
    6.8402    0.8731   15.3029 H   0  0  0  0  0  0  0  0  0  0  0  0
    6.2517   -0.7597   17.3475 H   0  0  0  0  0  0  0  0  0  0  0  0
    0.6425    2.3170   12.9149 H   0  0  0  0  0  0  0  0  0  0  0  0
   -0.1781    3.8900   11.1844 H   0  0  0  0  0  0  0  0  0  0  0  0
    2.0532    4.7668   10.7943 H   0  0  0  0  0  0  0  0  0  0  0  0
    4.5333    2.1594   11.0287 H   0  0  0  0  0  0  0  0  0  0  0  0
   -0.0965   -0.0331   13.6099 H   0  0  0  0  0  0  0  0  0  0  0  0
   -3.0505    1.0911   11.7674 H   0  0  0  0  0  0  0  0  0  0  0  0
   -1.7460    1.4250   12.9561 H   0  0  0  0  0  0  0  0  0  0  0  0
   -1.4955    0.1974   11.6689 H   0  0  0  0  0  0  0  0  0  0  0  0
  1  2  1  0  0  0  0
  2  3  1  0  0  0  0
  3  4  1  0  0  0  0
  3 27  1  0  0  0  0
  4  5  2  0  0  0  0
  5  6  1  0  0  0  0
  6  7  2  0  0  0  0
  6 26  1  0  0  0  0
  7  8  1  0  0  0  0
  8  9  2  0  0  0  0
  8 16  1  0  0  0  0
  9 10  1  0  0  0  0
 10 11  2  0  0  0  0
 10 17  1  0  0  0  0
 11 12  1  0  0  0  0
 12 13  1  0  0  0  0
 12 16  1  0  0  0  0
 13 14  2  0  0  0  0
 14 15  1  0  0  0  0
 15 16  2  0  0  0  0
 17 18  1  0  0  0  0
 17 25  2  0  0  0  0
 18 19  2  0  0  0  0
 19 20  1  0  0  0  0
 20 21  1  0  0  0  0
 20 24  1  0  0  0  0
 21 22  2  0  0  0  0
 22 23  1  0  0  0  0
 23 24  2  0  0  0  0
 24 25  1  0  0  0  0
 26 27  2  0  0  0  0
 27 28  1  0  0  0  0
 28 29  1  0  0  0  0
  1 30  1  0  0  0  0
  1 31  1  0  0  0  0
  1 32  1  0  0  0  0
  3 33  1  0  0  0  0
  4 34  1  0  0  0  0
  5 35  1  0  0  0  0
 11 36  1  0  0  0  0
 13 37  1  0  0  0  0
 14 38  1  0  0  0  0
 18 39  1  0  0  0  0
 19 40  1  0  0  0  0
 20 41  1  0  0  0  0
 25 42  1  0  0  0  0
 26 43  1  0  0  0  0
 29 44  1  0  0  0  0
 29 45  1  0  0  0  0
 29 46  1  0  0  0  0
M  END
> <IC50[nM]>
12.6

$$$$
CHEMBL3265019
  -OEChem-05192314333D
 Structure written by MMmdl.
 46 50  0     1  0  0  0  0  0999 V2000
   -4.2567   -3.1043   13.5693 C   0  0  0  0  0  0  0  0  0  0  0  0
   -3.8736   -2.3605   14.7157 O   0  0  0  0  0  0  0  0  0  0  0  0
   -2.5257   -2.1110   14.8169 C   0  0  3  0  0  0  0  0  0  0  0  0
   -1.7458   -2.8699   15.6818 C   0  0  0  0  0  0  0  0  0  0  0  0
   -0.3904   -2.6103   15.8137 C   0  0  0  0  0  0  0  0  0  0  0  0
    0.2206   -1.5847   15.0868 C   0  0  0  0  0  0  0  0  0  0  0  0
    1.6037   -1.3593   15.3213 N   0  0  0  0  0  0  0  0  0  0  0  0
    2.5361   -0.4486   14.7616 C   0  0  0  0  0  0  0  0  0  0  0  0
    2.1814    0.3735   13.7239 N   0  0  0  0  0  0  0  0  0  0  0  0
    3.1138    1.2388   13.2174 C   0  0  0  0  0  0  0  0  0  0  0  0
    4.4183    1.2844   13.7022 C   0  0  0  0  0  0  0  0  0  0  0  0
    4.7470    0.4870   14.7610 N   0  0  0  0  0  0  0  0  0  0  0  0
    5.8980    0.3781   15.4861 C   0  0  0  0  0  0  0  0  0  0  0  0
    5.5879   -0.5236   16.5289 C   0  0  0  0  0  0  0  0  0  0  0  0
    4.3760   -1.0435   16.3736 N   0  0  0  0  0  0  0  0  0  0  0  0
    3.8368   -0.3913   15.3236 C   0  0  0  0  0  0  0  0  0  0  0  0
    2.6373    2.1616   12.1208 C   0  0  0  0  0  0  0  0  0  0  0  0
    1.3117    2.6428   12.1323 C   0  0  0  0  0  0  0  0  0  0  0  0
    0.8392    3.5282   11.1613 C   0  0  0  0  0  0  0  0  0  0  0  0
    1.7204    3.9285   10.1646 C   0  0  0  0  0  0  0  0  0  0  0  0
    1.5424    4.7860    9.1151 N   0  0  0  0  0  0  0  0  0  0  0  0
    2.7143    4.8525    8.3999 N   0  0  0  0  0  0  0  0  0  0  0  0
    3.5904    4.0382    9.0000 N   0  0  0  0  0  0  0  0  0  0  0  0
    3.0324    3.4382   10.1221 C   0  0  0  0  0  0  0  0  0  0  0  0
    3.5249    2.5426   11.0797 C   0  0  0  0  0  0  0  0  0  0  0  0
   -0.5551   -0.8189   14.1919 C   0  0  0  0  0  0  0  0  0  0  0  0
   -1.9443   -1.0883   14.0612 C   0  0  0  0  0  0  0  0  0  0  0  0
   -2.7530   -0.3558   13.2052 O   0  0  0  0  0  0  0  0  0  0  0  0
   -2.2324    0.6450   12.3520 C   0  0  0  0  0  0  0  0  0  0  0  0
   -5.3466   -3.2531   13.5755 H   0  0  0  0  0  0  0  0  0  0  0  0
   -3.9670   -2.5543   12.6618 H   0  0  0  0  0  0  0  0  0  0  0  0
   -3.7532   -4.0822   13.5818 H   0  0  0  0  0  0  0  0  0  0  0  0
   -2.3287   -2.8271   14.0055 H   0  0  0  0  0  0  0  0  0  0  0  0
   -2.1983   -3.6662   16.2542 H   0  0  0  0  0  0  0  0  0  0  0  0
    0.2025   -3.2098   16.4885 H   0  0  0  0  0  0  0  0  0  0  0  0
    5.1530    1.9352   13.2514 H   0  0  0  0  0  0  0  0  0  0  0  0
    6.8402    0.8731   15.3029 H   0  0  0  0  0  0  0  0  0  0  0  0
    6.2517   -0.7597   17.3475 H   0  0  0  0  0  0  0  0  0  0  0  0
    0.6425    2.3170   12.9149 H   0  0  0  0  0  0  0  0  0  0  0  0
   -0.0175    3.0465   10.6674 H   0  0  0  0  0  0  0  0  0  0  0  0
    0.4995    4.4354   11.6823 H   0  0  0  0  0  0  0  0  0  0  0  0
    4.5333    2.1594   11.0287 H   0  0  0  0  0  0  0  0  0  0  0  0
   -0.0965   -0.0331   13.6099 H   0  0  0  0  0  0  0  0  0  0  0  0
   -3.0505    1.0911   11.7674 H   0  0  0  0  0  0  0  0  0  0  0  0
   -1.7460    1.4250   12.9561 H   0  0  0  0  0  0  0  0  0  0  0  0
   -1.4955    0.1974   11.6689 H   0  0  0  0  0  0  0  0  0  0  0  0
  1  2  1  0  0  0  0
  2  3  1  0  0  0  0
  3  4  1  0  0  0  0
  3 27  1  0  0  0  0
  4  5  2  0  0  0  0
  5  6  1  0  0  0  0
  6  7  2  0  0  0  0
  6 26  1  0  0  0  0
  7  8  1  0  0  0  0
  8  9  2  0  0  0  0
  8 16  1  0  0  0  0
  9 10  1  0  0  0  0
 10 11  2  0  0  0  0
 10 17  1  0  0  0  0
 11 12  1  0  0  0  0
 12 13  1  0  0  0  0
 12 16  1  0  0  0  0
 13 14  2  0  0  0  0
 14 15  1  0  0  0  0
 15 16  2  0  0  0  0
 17 18  2  0  0  0  0
 17 25  1  0  0  0  0
 18 19  1  0  0  0  0
 19 20  1  0  0  0  0
 20 21  2  0  0  0  0
 20 24  1  0  0  0  0
 21 22  1  0  0  0  0
 22 23  2  0  0  0  0
 23 24  1  0  0  0  0
 24 25  2  0  0  0  0
 26 27  2  0  0  0  0
 27 28  1  0  0  0  0
 28 29  1  0  0  0  0
  1 30  1  0  0  0  0
  1 31  1  0  0  0  0
  1 32  1  0  0  0  0
  3 33  1  0  0  0  0
  4 34  1  0  0  0  0
  5 35  1  0  0  0  0
 11 36  1  0  0  0  0
 13 37  1  0  0  0  0
 14 38  1  0  0  0  0
 18 39  1  0  0  0  0
 19 40  1  0  0  0  0
 19 41  1  0  0  0  0
 25 42  1  0  0  0  0
 26 43  1  0  0  0  0
 29 44  1  0  0  0  0
 29 45  1  0  0  0  0
 29 46  1  0  0  0  0
M  END
> <IC50[nM]>
12.6

$$$$
CHEMBL3265019
  -OEChem-05192314333D
 Structure written by MMmdl.
 46 50  0     1  0  0  0  0  0999 V2000
   -4.2567   -3.1043   13.5693 C   0  0  0  0  0  0  0  0  0  0  0  0
   -3.8736   -2.3605   14.7157 O   0  0  0  0  0  0  0  0  0  0  0  0
   -2.5257   -2.1110   14.8169 C   0  0  0  0  0  0  0  0  0  0  0  0
   -1.7458   -2.8699   15.6818 C   0  0  0  0  0  0  0  0  0  0  0  0
   -0.3904   -2.6103   15.8137 C   0  0  0  0  0  0  0  0  0  0  0  0
    0.2206   -1.5847   15.0868 C   0  0  0  0  0  0  0  0  0  0  0  0
    1.6037   -1.3593   15.3213 N   0  0  0  0  0  0  0  0  0  0  0  0
    2.5361   -0.4486   14.7616 C   0  0  0  0  0  0  0  0  0  0  0  0
    2.1814    0.3735   13.7239 N   0  0  0  0  0  0  0  0  0  0  0  0
    3.1138    1.2388   13.2174 C   0  0  0  0  0  0  0  0  0  0  0  0
    4.4183    1.2844   13.7022 C   0  0  0  0  0  0  0  0  0  0  0  0
    4.7470    0.4870   14.7610 N   0  0  0  0  0  0  0  0  0  0  0  0
    5.8980    0.3781   15.4861 C   0  0  0  0  0  0  0  0  0  0  0  0
    5.5879   -0.5236   16.5289 C   0  0  0  0  0  0  0  0  0  0  0  0
    4.3760   -1.0435   16.3736 N   0  0  0  0  0  0  0  0  0  0  0  0
    3.8368   -0.3913   15.3236 C   0  0  0  0  0  0  0  0  0  0  0  0
    2.6373    2.1616   12.1208 C   0  0  3  0  0  0  0  0  0  0  0  0
    1.3117    2.6428   12.1323 C   0  0  0  0  0  0  0  0  0  0  0  0
    0.8392    3.5282   11.1613 C   0  0  0  0  0  0  0  0  0  0  0  0
    1.7204    3.9285   10.1646 C   0  0  0  0  0  0  0  0  0  0  0  0
    1.5424    4.7860    9.1151 N   0  0  0  0  0  0  0  0  0  0  0  0
    2.7143    4.8525    8.3999 N   0  0  0  0  0  0  0  0  0  0  0  0
    3.5904    4.0382    9.0000 N   0  0  0  0  0  0  0  0  0  0  0  0
    3.0324    3.4382   10.1221 C   0  0  0  0  0  0  0  0  0  0  0  0
    3.5249    2.5426   11.0797 C   0  0  0  0  0  0  0  0  0  0  0  0
   -0.5551   -0.8189   14.1919 C   0  0  0  0  0  0  0  0  0  0  0  0
   -1.9443   -1.0883   14.0612 C   0  0  0  0  0  0  0  0  0  0  0  0
   -2.7530   -0.3558   13.2052 O   0  0  0  0  0  0  0  0  0  0  0  0
   -2.2324    0.6450   12.3520 C   0  0  0  0  0  0  0  0  0  0  0  0
   -5.3466   -3.2531   13.5755 H   0  0  0  0  0  0  0  0  0  0  0  0
   -3.9670   -2.5543   12.6618 H   0  0  0  0  0  0  0  0  0  0  0  0
   -3.7532   -4.0822   13.5818 H   0  0  0  0  0  0  0  0  0  0  0  0
   -2.1983   -3.6662   16.2542 H   0  0  0  0  0  0  0  0  0  0  0  0
   -0.2170   -2.3864   16.8766 H   0  0  0  0  0  0  0  0  0  0  0  0
    0.1335   -3.5393   15.5445 H   0  0  0  0  0  0  0  0  0  0  0  0
    5.1530    1.9352   13.2514 H   0  0  0  0  0  0  0  0  0  0  0  0
    6.8402    0.8731   15.3029 H   0  0  0  0  0  0  0  0  0  0  0  0
    6.2517   -0.7597   17.3475 H   0  0  0  0  0  0  0  0  0  0  0  0
    2.9583    3.0313   12.7129 H   0  0  0  0  0  0  0  0  0  0  0  0
    0.6425    2.3170   12.9149 H   0  0  0  0  0  0  0  0  0  0  0  0
   -0.1781    3.8900   11.1844 H   0  0  0  0  0  0  0  0  0  0  0  0
    4.5333    2.1594   11.0287 H   0  0  0  0  0  0  0  0  0  0  0  0
   -0.0965   -0.0331   13.6099 H   0  0  0  0  0  0  0  0  0  0  0  0
   -3.0505    1.0911   11.7674 H   0  0  0  0  0  0  0  0  0  0  0  0
   -1.7460    1.4250   12.9561 H   0  0  0  0  0  0  0  0  0  0  0  0
   -1.4955    0.1974   11.6689 H   0  0  0  0  0  0  0  0  0  0  0  0
  1  2  1  0  0  0  0
  2  3  1  0  0  0  0
  3  4  2  0  0  0  0
  3 27  1  0  0  0  0
  4  5  1  0  0  0  0
  5  6  1  0  0  0  0
  6  7  2  0  0  0  0
  6 26  1  0  0  0  0
  7  8  1  0  0  0  0
  8  9  2  0  0  0  0
  8 16  1  0  0  0  0
  9 10  1  0  0  0  0
 10 11  2  0  0  0  0
 10 17  1  0  0  0  0
 11 12  1  0  0  0  0
 12 13  1  0  0  0  0
 12 16  1  0  0  0  0
 13 14  2  0  0  0  0
 14 15  1  0  0  0  0
 15 16  2  0  0  0  0
 17 18  1  0  0  0  0
 17 25  1  0  0  0  0
 18 19  2  0  0  0  0
 19 20  1  0  0  0  0
 20 21  2  0  0  0  0
 20 24  1  0  0  0  0
 21 22  1  0  0  0  0
 22 23  2  0  0  0  0
 23 24  1  0  0  0  0
 24 25  2  0  0  0  0
 26 27  2  0  0  0  0
 27 28  1  0  0  0  0
 28 29  1  0  0  0  0
  1 30  1  0  0  0  0
  1 31  1  0  0  0  0
  1 32  1  0  0  0  0
  4 33  1  0  0  0  0
  5 34  1  0  0  0  0
  5 35  1  0  0  0  0
 11 36  1  0  0  0  0
 13 37  1  0  0  0  0
 14 38  1  0  0  0  0
 17 39  1  0  0  0  0
 18 40  1  0  0  0  0
 19 41  1  0  0  0  0
 25 42  1  0  0  0  0
 26 43  1  0  0  0  0
 29 44  1  0  0  0  0
 29 45  1  0  0  0  0
 29 46  1  0  0  0  0
M  END
> <IC50[nM]>
12.6

$$$$
CHEMBL3265019
  -OEChem-05192314333D
 Structure written by MMmdl.
 46 50  0     1  0  0  0  0  0999 V2000
   -4.2567   -3.1043   13.5693 C   0  0  0  0  0  0  0  0  0  0  0  0
   -3.8736   -2.3605   14.7157 O   0  0  0  0  0  0  0  0  0  0  0  0
   -2.5257   -2.1110   14.8169 C   0  0  0  0  0  0  0  0  0  0  0  0
   -1.7458   -2.8699   15.6818 C   0  0  0  0  0  0  0  0  0  0  0  0
   -0.3904   -2.6103   15.8137 C   0  0  0  0  0  0  0  0  0  0  0  0
    0.2206   -1.5847   15.0868 C   0  0  0  0  0  0  0  0  0  0  0  0
    1.6037   -1.3593   15.3213 N   0  0  0  0  0  0  0  0  0  0  0  0
    2.5361   -0.4486   14.7616 C   0  0  0  0  0  0  0  0  0  0  0  0
    2.1814    0.3735   13.7239 N   0  0  0  0  0  0  0  0  0  0  0  0
    3.1138    1.2388   13.2174 C   0  0  0  0  0  0  0  0  0  0  0  0
    4.4183    1.2844   13.7022 C   0  0  0  0  0  0  0  0  0  0  0  0
    4.7470    0.4870   14.7610 N   0  0  0  0  0  0  0  0  0  0  0  0
    5.8980    0.3781   15.4861 C   0  0  0  0  0  0  0  0  0  0  0  0
    5.5879   -0.5236   16.5289 C   0  0  0  0  0  0  0  0  0  0  0  0
    4.3760   -1.0435   16.3736 N   0  0  0  0  0  0  0  0  0  0  0  0
    3.8368   -0.3913   15.3236 C   0  0  0  0  0  0  0  0  0  0  0  0
    2.6373    2.1616   12.1208 C   0  0  0  0  0  0  0  0  0  0  0  0
    1.3117    2.6428   12.1323 C   0  0  0  0  0  0  0  0  0  0  0  0
    0.8392    3.5282   11.1613 C   0  0  0  0  0  0  0  0  0  0  0  0
    1.7204    3.9285   10.1646 C   0  0  0  0  0  0  0  0  0  0  0  0
    1.5424    4.7860    9.1151 N   0  0  0  0  0  0  0  0  0  0  0  0
    2.7143    4.8525    8.3999 N   0  0  0  0  0  0  0  0  0  0  0  0
    3.5904    4.0382    9.0000 N   0  0  0  0  0  0  0  0  0  0  0  0
    3.0324    3.4382   10.1221 C   0  0  3  0  0  0  0  0  0  0  0  0
    3.5249    2.5426   11.0797 C   0  0  0  0  0  0  0  0  0  0  0  0
   -0.5551   -0.8189   14.1919 C   0  0  0  0  0  0  0  0  0  0  0  0
   -1.9443   -1.0883   14.0612 C   0  0  0  0  0  0  0  0  0  0  0  0
   -2.7530   -0.3558   13.2052 O   0  0  0  0  0  0  0  0  0  0  0  0
   -2.2324    0.6450   12.3520 C   0  0  0  0  0  0  0  0  0  0  0  0
   -5.3466   -3.2531   13.5755 H   0  0  0  0  0  0  0  0  0  0  0  0
   -3.9670   -2.5543   12.6618 H   0  0  0  0  0  0  0  0  0  0  0  0
   -3.7532   -4.0822   13.5818 H   0  0  0  0  0  0  0  0  0  0  0  0
   -2.1983   -3.6662   16.2542 H   0  0  0  0  0  0  0  0  0  0  0  0
   -0.2170   -2.3864   16.8766 H   0  0  0  0  0  0  0  0  0  0  0  0
    0.1335   -3.5393   15.5445 H   0  0  0  0  0  0  0  0  0  0  0  0
    5.1530    1.9352   13.2514 H   0  0  0  0  0  0  0  0  0  0  0  0
    6.8402    0.8731   15.3029 H   0  0  0  0  0  0  0  0  0  0  0  0
    6.2517   -0.7597   17.3475 H   0  0  0  0  0  0  0  0  0  0  0  0
    0.6425    2.3170   12.9149 H   0  0  0  0  0  0  0  0  0  0  0  0
   -0.1781    3.8900   11.1844 H   0  0  0  0  0  0  0  0  0  0  0  0
    2.6968    2.5928    9.5035 H   0  0  0  0  0  0  0  0  0  0  0  0
    4.5333    2.1594   11.0287 H   0  0  0  0  0  0  0  0  0  0  0  0
   -0.0965   -0.0331   13.6099 H   0  0  0  0  0  0  0  0  0  0  0  0
   -3.0505    1.0911   11.7674 H   0  0  0  0  0  0  0  0  0  0  0  0
   -1.7460    1.4250   12.9561 H   0  0  0  0  0  0  0  0  0  0  0  0
   -1.4955    0.1974   11.6689 H   0  0  0  0  0  0  0  0  0  0  0  0
  1  2  1  0  0  0  0
  2  3  1  0  0  0  0
  3  4  2  0  0  0  0
  3 27  1  0  0  0  0
  4  5  1  0  0  0  0
  5  6  1  0  0  0  0
  6  7  2  0  0  0  0
  6 26  1  0  0  0  0
  7  8  1  0  0  0  0
  8  9  2  0  0  0  0
  8 16  1  0  0  0  0
  9 10  1  0  0  0  0
 10 11  2  0  0  0  0
 10 17  1  0  0  0  0
 11 12  1  0  0  0  0
 12 13  1  0  0  0  0
 12 16  1  0  0  0  0
 13 14  2  0  0  0  0
 14 15  1  0  0  0  0
 15 16  2  0  0  0  0
 17 18  1  0  0  0  0
 17 25  2  0  0  0  0
 18 19  2  0  0  0  0
 19 20  1  0  0  0  0
 20 21  2  0  0  0  0
 20 24  1  0  0  0  0
 21 22  1  0  0  0  0
 22 23  2  0  0  0  0
 23 24  1  0  0  0  0
 24 25  1  0  0  0  0
 26 27  2  0  0  0  0
 27 28  1  0  0  0  0
 28 29  1  0  0  0  0
  1 30  1  0  0  0  0
  1 31  1  0  0  0  0
  1 32  1  0  0  0  0
  4 33  1  0  0  0  0
  5 34  1  0  0  0  0
  5 35  1  0  0  0  0
 11 36  1  0  0  0  0
 13 37  1  0  0  0  0
 14 38  1  0  0  0  0
 18 39  1  0  0  0  0
 19 40  1  0  0  0  0
 24 41  1  0  0  0  0
 25 42  1  0  0  0  0
 26 43  1  0  0  0  0
 29 44  1  0  0  0  0
 29 45  1  0  0  0  0
 29 46  1  0  0  0  0
M  END
> <IC50[nM]>
12.6

$$$$
CHEMBL3265019
  -OEChem-05192314333D
 Structure written by MMmdl.
 46 50  0     1  0  0  0  0  0999 V2000
   -4.2567   -3.1043   13.5693 C   0  0  0  0  0  0  0  0  0  0  0  0
   -3.8736   -2.3605   14.7157 O   0  0  0  0  0  0  0  0  0  0  0  0
   -2.5257   -2.1110   14.8169 C   0  0  0  0  0  0  0  0  0  0  0  0
   -1.7458   -2.8699   15.6818 C   0  0  0  0  0  0  0  0  0  0  0  0
   -0.3904   -2.6103   15.8137 C   0  0  0  0  0  0  0  0  0  0  0  0
    0.2206   -1.5847   15.0868 C   0  0  0  0  0  0  0  0  0  0  0  0
    1.6037   -1.3593   15.3213 N   0  0  0  0  0  0  0  0  0  0  0  0
    2.5361   -0.4486   14.7616 C   0  0  0  0  0  0  0  0  0  0  0  0
    2.1814    0.3735   13.7239 N   0  0  0  0  0  0  0  0  0  0  0  0
    3.1138    1.2388   13.2174 C   0  0  0  0  0  0  0  0  0  0  0  0
    4.4183    1.2844   13.7022 C   0  0  0  0  0  0  0  0  0  0  0  0
    4.7470    0.4870   14.7610 N   0  0  0  0  0  0  0  0  0  0  0  0
    5.8980    0.3781   15.4861 C   0  0  0  0  0  0  0  0  0  0  0  0
    5.5879   -0.5236   16.5289 C   0  0  0  0  0  0  0  0  0  0  0  0
    4.3760   -1.0435   16.3736 N   0  0  0  0  0  0  0  0  0  0  0  0
    3.8368   -0.3913   15.3236 C   0  0  0  0  0  0  0  0  0  0  0  0
    2.6373    2.1616   12.1208 C   0  0  0  0  0  0  0  0  0  0  0  0
    1.3117    2.6428   12.1323 C   0  0  0  0  0  0  0  0  0  0  0  0
    0.8392    3.5282   11.1613 C   0  0  0  0  0  0  0  0  0  0  0  0
    1.7204    3.9285   10.1646 C   0  0  3  0  0  0  0  0  0  0  0  0
    1.5424    4.7860    9.1151 N   0  0  0  0  0  0  0  0  0  0  0  0
    2.7143    4.8525    8.3999 N   0  0  0  0  0  0  0  0  0  0  0  0
    3.5904    4.0382    9.0000 N   0  0  0  0  0  0  0  0  0  0  0  0
    3.0324    3.4382   10.1221 C   0  0  0  0  0  0  0  0  0  0  0  0
    3.5249    2.5426   11.0797 C   0  0  0  0  0  0  0  0  0  0  0  0
   -0.5551   -0.8189   14.1919 C   0  0  0  0  0  0  0  0  0  0  0  0
   -1.9443   -1.0883   14.0612 C   0  0  0  0  0  0  0  0  0  0  0  0
   -2.7530   -0.3558   13.2052 O   0  0  0  0  0  0  0  0  0  0  0  0
   -2.2324    0.6450   12.3520 C   0  0  0  0  0  0  0  0  0  0  0  0
   -5.3466   -3.2531   13.5755 H   0  0  0  0  0  0  0  0  0  0  0  0
   -3.9670   -2.5543   12.6618 H   0  0  0  0  0  0  0  0  0  0  0  0
   -3.7532   -4.0822   13.5818 H   0  0  0  0  0  0  0  0  0  0  0  0
   -2.1983   -3.6662   16.2542 H   0  0  0  0  0  0  0  0  0  0  0  0
   -0.2170   -2.3864   16.8766 H   0  0  0  0  0  0  0  0  0  0  0  0
    0.1335   -3.5393   15.5445 H   0  0  0  0  0  0  0  0  0  0  0  0
    5.1530    1.9352   13.2514 H   0  0  0  0  0  0  0  0  0  0  0  0
    6.8402    0.8731   15.3029 H   0  0  0  0  0  0  0  0  0  0  0  0
    6.2517   -0.7597   17.3475 H   0  0  0  0  0  0  0  0  0  0  0  0
    0.6425    2.3170   12.9149 H   0  0  0  0  0  0  0  0  0  0  0  0
   -0.1781    3.8900   11.1844 H   0  0  0  0  0  0  0  0  0  0  0  0
    2.0532    4.7668   10.7943 H   0  0  0  0  0  0  0  0  0  0  0  0
    4.5333    2.1594   11.0287 H   0  0  0  0  0  0  0  0  0  0  0  0
   -0.0965   -0.0331   13.6099 H   0  0  0  0  0  0  0  0  0  0  0  0
   -3.0505    1.0911   11.7674 H   0  0  0  0  0  0  0  0  0  0  0  0
   -1.7460    1.4250   12.9561 H   0  0  0  0  0  0  0  0  0  0  0  0
   -1.4955    0.1974   11.6689 H   0  0  0  0  0  0  0  0  0  0  0  0
  1  2  1  0  0  0  0
  2  3  1  0  0  0  0
  3  4  2  0  0  0  0
  3 27  1  0  0  0  0
  4  5  1  0  0  0  0
  5  6  1  0  0  0  0
  6  7  2  0  0  0  0
  6 26  1  0  0  0  0
  7  8  1  0  0  0  0
  8  9  2  0  0  0  0
  8 16  1  0  0  0  0
  9 10  1  0  0  0  0
 10 11  2  0  0  0  0
 10 17  1  0  0  0  0
 11 12  1  0  0  0  0
 12 13  1  0  0  0  0
 12 16  1  0  0  0  0
 13 14  2  0  0  0  0
 14 15  1  0  0  0  0
 15 16  2  0  0  0  0
 17 18  1  0  0  0  0
 17 25  2  0  0  0  0
 18 19  2  0  0  0  0
 19 20  1  0  0  0  0
 20 21  1  0  0  0  0
 20 24  1  0  0  0  0
 21 22  2  0  0  0  0
 22 23  1  0  0  0  0
 23 24  2  0  0  0  0
 24 25  1  0  0  0  0
 26 27  2  0  0  0  0
 27 28  1  0  0  0  0
 28 29  1  0  0  0  0
  1 30  1  0  0  0  0
  1 31  1  0  0  0  0
  1 32  1  0  0  0  0
  4 33  1  0  0  0  0
  5 34  1  0  0  0  0
  5 35  1  0  0  0  0
 11 36  1  0  0  0  0
 13 37  1  0  0  0  0
 14 38  1  0  0  0  0
 18 39  1  0  0  0  0
 19 40  1  0  0  0  0
 20 41  1  0  0  0  0
 25 42  1  0  0  0  0
 26 43  1  0  0  0  0
 29 44  1  0  0  0  0
 29 45  1  0  0  0  0
 29 46  1  0  0  0  0
M  END
> <IC50[nM]>
12.6

$$$$
CHEMBL3265019
  -OEChem-05192314333D
 Structure written by MMmdl.
 46 50  0     0  0  0  0  0  0999 V2000
   -4.2567   -3.1043   13.5693 C   0  0  0  0  0  0  0  0  0  0  0  0
   -3.8736   -2.3605   14.7157 O   0  0  0  0  0  0  0  0  0  0  0  0
   -2.5257   -2.1110   14.8169 C   0  0  0  0  0  0  0  0  0  0  0  0
   -1.7458   -2.8699   15.6818 C   0  0  0  0  0  0  0  0  0  0  0  0
   -0.3904   -2.6103   15.8137 C   0  0  0  0  0  0  0  0  0  0  0  0
    0.2206   -1.5847   15.0868 C   0  0  0  0  0  0  0  0  0  0  0  0
    1.6037   -1.3593   15.3213 N   0  0  0  0  0  0  0  0  0  0  0  0
    2.5361   -0.4486   14.7616 C   0  0  0  0  0  0  0  0  0  0  0  0
    2.1814    0.3735   13.7239 N   0  0  0  0  0  0  0  0  0  0  0  0
    3.1138    1.2388   13.2174 C   0  0  0  0  0  0  0  0  0  0  0  0
    4.4183    1.2844   13.7022 C   0  0  0  0  0  0  0  0  0  0  0  0
    4.7470    0.4870   14.7610 N   0  0  0  0  0  0  0  0  0  0  0  0
    5.8980    0.3781   15.4861 C   0  0  0  0  0  0  0  0  0  0  0  0
    5.5879   -0.5236   16.5289 C   0  0  0  0  0  0  0  0  0  0  0  0
    4.3760   -1.0435   16.3736 N   0  0  0  0  0  0  0  0  0  0  0  0
    3.8368   -0.3913   15.3236 C   0  0  0  0  0  0  0  0  0  0  0  0
    2.6373    2.1616   12.1208 C   0  0  0  0  0  0  0  0  0  0  0  0
    1.3117    2.6428   12.1323 C   0  0  0  0  0  0  0  0  0  0  0  0
    0.8392    3.5282   11.1613 C   0  0  0  0  0  0  0  0  0  0  0  0
    1.7204    3.9285   10.1646 C   0  0  0  0  0  0  0  0  0  0  0  0
    1.5424    4.7860    9.1151 N   0  0  0  0  0  0  0  0  0  0  0  0
    2.7143    4.8525    8.3999 N   0  0  0  0  0  0  0  0  0  0  0  0
    3.5904    4.0382    9.0000 N   0  0  0  0  0  0  0  0  0  0  0  0
    3.0324    3.4382   10.1221 C   0  0  0  0  0  0  0  0  0  0  0  0
    3.5249    2.5426   11.0797 C   0  0  0  0  0  0  0  0  0  0  0  0
   -0.5551   -0.8189   14.1919 C   0  0  0  0  0  0  0  0  0  0  0  0
   -1.9443   -1.0883   14.0612 C   0  0  0  0  0  0  0  0  0  0  0  0
   -2.7530   -0.3558   13.2052 O   0  0  0  0  0  0  0  0  0  0  0  0
   -2.2324    0.6450   12.3520 C   0  0  0  0  0  0  0  0  0  0  0  0
   -5.3466   -3.2531   13.5755 H   0  0  0  0  0  0  0  0  0  0  0  0
   -3.9670   -2.5543   12.6618 H   0  0  0  0  0  0  0  0  0  0  0  0
   -3.7532   -4.0822   13.5818 H   0  0  0  0  0  0  0  0  0  0  0  0
   -2.1983   -3.6662   16.2542 H   0  0  0  0  0  0  0  0  0  0  0  0
   -0.2170   -2.3864   16.8766 H   0  0  0  0  0  0  0  0  0  0  0  0
    0.1335   -3.5393   15.5445 H   0  0  0  0  0  0  0  0  0  0  0  0
    5.1530    1.9352   13.2514 H   0  0  0  0  0  0  0  0  0  0  0  0
    6.8402    0.8731   15.3029 H   0  0  0  0  0  0  0  0  0  0  0  0
    6.2517   -0.7597   17.3475 H   0  0  0  0  0  0  0  0  0  0  0  0
    0.6425    2.3170   12.9149 H   0  0  0  0  0  0  0  0  0  0  0  0
   -0.0175    3.0465   10.6674 H   0  0  0  0  0  0  0  0  0  0  0  0
    0.4995    4.4354   11.6823 H   0  0  0  0  0  0  0  0  0  0  0  0
    4.5333    2.1594   11.0287 H   0  0  0  0  0  0  0  0  0  0  0  0
   -0.0965   -0.0331   13.6099 H   0  0  0  0  0  0  0  0  0  0  0  0
   -3.0505    1.0911   11.7674 H   0  0  0  0  0  0  0  0  0  0  0  0
   -1.7460    1.4250   12.9561 H   0  0  0  0  0  0  0  0  0  0  0  0
   -1.4955    0.1974   11.6689 H   0  0  0  0  0  0  0  0  0  0  0  0
  1  2  1  0  0  0  0
  2  3  1  0  0  0  0
  3  4  2  0  0  0  0
  3 27  1  0  0  0  0
  4  5  1  0  0  0  0
  5  6  1  0  0  0  0
  6  7  2  0  0  0  0
  6 26  1  0  0  0  0
  7  8  1  0  0  0  0
  8  9  2  0  0  0  0
  8 16  1  0  0  0  0
  9 10  1  0  0  0  0
 10 11  2  0  0  0  0
 10 17  1  0  0  0  0
 11 12  1  0  0  0  0
 12 13  1  0  0  0  0
 12 16  1  0  0  0  0
 13 14  2  0  0  0  0
 14 15  1  0  0  0  0
 15 16  2  0  0  0  0
 17 18  2  0  0  0  0
 17 25  1  0  0  0  0
 18 19  1  0  0  0  0
 19 20  1  0  0  0  0
 20 21  2  0  0  0  0
 20 24  1  0  0  0  0
 21 22  1  0  0  0  0
 22 23  2  0  0  0  0
 23 24  1  0  0  0  0
 24 25  2  0  0  0  0
 26 27  2  0  0  0  0
 27 28  1  0  0  0  0
 28 29  1  0  0  0  0
  1 30  1  0  0  0  0
  1 31  1  0  0  0  0
  1 32  1  0  0  0  0
  4 33  1  0  0  0  0
  5 34  1  0  0  0  0
  5 35  1  0  0  0  0
 11 36  1  0  0  0  0
 13 37  1  0  0  0  0
 14 38  1  0  0  0  0
 18 39  1  0  0  0  0
 19 40  1  0  0  0  0
 19 41  1  0  0  0  0
 25 42  1  0  0  0  0
 26 43  1  0  0  0  0
 29 44  1  0  0  0  0
 29 45  1  0  0  0  0
 29 46  1  0  0  0  0
M  END
> <IC50[nM]>
12.6

$$$$
CHEMBL3265019
  -OEChem-05192314333D
 Structure written by MMmdl.
 46 50  0     1  0  0  0  0  0999 V2000
   -4.2567   -3.1043   13.5693 C   0  0  0  0  0  0  0  0  0  0  0  0
   -3.8736   -2.3605   14.7157 O   0  0  0  0  0  0  0  0  0  0  0  0
   -2.5257   -2.1110   14.8169 C   0  0  3  0  0  0  0  0  0  0  0  0
   -1.7458   -2.8699   15.6818 C   0  0  0  0  0  0  0  0  0  0  0  0
   -0.3904   -2.6103   15.8137 C   0  0  0  0  0  0  0  0  0  0  0  0
    0.2206   -1.5847   15.0868 C   0  0  0  0  0  0  0  0  0  0  0  0
    1.6037   -1.3593   15.3213 N   0  0  0  0  0  0  0  0  0  0  0  0
    2.5361   -0.4486   14.7616 C   0  0  0  0  0  0  0  0  0  0  0  0
    2.1814    0.3735   13.7239 N   0  0  0  0  0  0  0  0  0  0  0  0
    3.1138    1.2388   13.2174 C   0  0  0  0  0  0  0  0  0  0  0  0
    4.4183    1.2844   13.7022 C   0  0  0  0  0  0  0  0  0  0  0  0
    4.7470    0.4870   14.7610 N   0  0  0  0  0  0  0  0  0  0  0  0
    5.8980    0.3781   15.4861 C   0  0  0  0  0  0  0  0  0  0  0  0
    5.5879   -0.5236   16.5289 C   0  0  0  0  0  0  0  0  0  0  0  0
    4.3760   -1.0435   16.3736 N   0  0  0  0  0  0  0  0  0  0  0  0
    3.8368   -0.3913   15.3236 C   0  0  0  0  0  0  0  0  0  0  0  0
    2.6373    2.1616   12.1208 C   0  0  0  0  0  0  0  0  0  0  0  0
    1.3117    2.6428   12.1323 C   0  0  0  0  0  0  0  0  0  0  0  0
    0.8392    3.5282   11.1613 C   0  0  0  0  0  0  0  0  0  0  0  0
    1.7204    3.9285   10.1646 C   0  0  0  0  0  0  0  0  0  0  0  0
    1.5424    4.7860    9.1151 N   0  0  0  0  0  0  0  0  0  0  0  0
    2.7143    4.8525    8.3999 N   0  0  0  0  0  0  0  0  0  0  0  0
    3.5904    4.0382    9.0000 N   0  0  0  0  0  0  0  0  0  0  0  0
    3.0324    3.4382   10.1221 C   0  0  0  0  0  0  0  0  0  0  0  0
    3.5249    2.5426   11.0797 C   0  0  0  0  0  0  0  0  0  0  0  0
   -0.5551   -0.8189   14.1919 C   0  0  0  0  0  0  0  0  0  0  0  0
   -1.9443   -1.0883   14.0612 C   0  0  0  0  0  0  0  0  0  0  0  0
   -2.7530   -0.3558   13.2052 O   0  0  0  0  0  0  0  0  0  0  0  0
   -2.2324    0.6450   12.3520 C   0  0  0  0  0  0  0  0  0  0  0  0
   -5.3466   -3.2531   13.5755 H   0  0  0  0  0  0  0  0  0  0  0  0
   -3.9670   -2.5543   12.6618 H   0  0  0  0  0  0  0  0  0  0  0  0
   -3.7532   -4.0822   13.5818 H   0  0  0  0  0  0  0  0  0  0  0  0
   -2.3287   -2.8271   14.0055 H   0  0  0  0  0  0  0  0  0  0  0  0
   -2.1983   -3.6662   16.2542 H   0  0  0  0  0  0  0  0  0  0  0  0
    0.2025   -3.2098   16.4885 H   0  0  0  0  0  0  0  0  0  0  0  0
    5.1530    1.9352   13.2514 H   0  0  0  0  0  0  0  0  0  0  0  0
    6.8402    0.8731   15.3029 H   0  0  0  0  0  0  0  0  0  0  0  0
    6.2517   -0.7597   17.3475 H   0  0  0  0  0  0  0  0  0  0  0  0
    0.6617    1.7567   12.0840 H   0  0  0  0  0  0  0  0  0  0  0  0
    1.1747    3.1457   13.1009 H   0  0  0  0  0  0  0  0  0  0  0  0
   -0.1781    3.8900   11.1844 H   0  0  0  0  0  0  0  0  0  0  0  0
    4.5333    2.1594   11.0287 H   0  0  0  0  0  0  0  0  0  0  0  0
   -0.0965   -0.0331   13.6099 H   0  0  0  0  0  0  0  0  0  0  0  0
   -3.0505    1.0911   11.7674 H   0  0  0  0  0  0  0  0  0  0  0  0
   -1.7460    1.4250   12.9561 H   0  0  0  0  0  0  0  0  0  0  0  0
   -1.4955    0.1974   11.6689 H   0  0  0  0  0  0  0  0  0  0  0  0
  1  2  1  0  0  0  0
  2  3  1  0  0  0  0
  3  4  1  0  0  0  0
  3 27  1  0  0  0  0
  4  5  2  0  0  0  0
  5  6  1  0  0  0  0
  6  7  2  0  0  0  0
  6 26  1  0  0  0  0
  7  8  1  0  0  0  0
  8  9  2  0  0  0  0
  8 16  1  0  0  0  0
  9 10  1  0  0  0  0
 10 11  2  0  0  0  0
 10 17  1  0  0  0  0
 11 12  1  0  0  0  0
 12 13  1  0  0  0  0
 12 16  1  0  0  0  0
 13 14  2  0  0  0  0
 14 15  1  0  0  0  0
 15 16  2  0  0  0  0
 17 18  1  0  0  0  0
 17 25  2  0  0  0  0
 18 19  1  0  0  0  0
 19 20  2  0  0  0  0
 20 21  1  0  0  0  0
 20 24  1  0  0  0  0
 21 22  2  0  0  0  0
 22 23  1  0  0  0  0
 23 24  2  0  0  0  0
 24 25  1  0  0  0  0
 26 27  2  0  0  0  0
 27 28  1  0  0  0  0
 28 29  1  0  0  0  0
  1 30  1  0  0  0  0
  1 31  1  0  0  0  0
  1 32  1  0  0  0  0
  3 33  1  0  0  0  0
  4 34  1  0  0  0  0
  5 35  1  0  0  0  0
 11 36  1  0  0  0  0
 13 37  1  0  0  0  0
 14 38  1  0  0  0  0
 18 39  1  0  0  0  0
 18 40  1  0  0  0  0
 19 41  1  0  0  0  0
 25 42  1  0  0  0  0
 26 43  1  0  0  0  0
 29 44  1  0  0  0  0
 29 45  1  0  0  0  0
 29 46  1  0  0  0  0
M  END
> <IC50[nM]>
12.6

$$$$
CHEMBL3265019
  -OEChem-05192314333D
 Structure written by MMmdl.
 46 50  0     0  0  0  0  0  0999 V2000
   -4.2567   -3.1043   13.5693 C   0  0  0  0  0  0  0  0  0  0  0  0
   -3.8736   -2.3605   14.7157 O   0  0  0  0  0  0  0  0  0  0  0  0
   -2.5257   -2.1110   14.8169 C   0  0  0  0  0  0  0  0  0  0  0  0
   -1.7458   -2.8699   15.6818 C   0  0  0  0  0  0  0  0  0  0  0  0
   -0.3904   -2.6103   15.8137 C   0  0  0  0  0  0  0  0  0  0  0  0
    0.2206   -1.5847   15.0868 C   0  0  0  0  0  0  0  0  0  0  0  0
    1.6037   -1.3593   15.3213 N   0  0  0  0  0  0  0  0  0  0  0  0
    2.5361   -0.4486   14.7616 C   0  0  0  0  0  0  0  0  0  0  0  0
    2.1814    0.3735   13.7239 N   0  0  0  0  0  0  0  0  0  0  0  0
    3.1138    1.2388   13.2174 C   0  0  0  0  0  0  0  0  0  0  0  0
    4.4183    1.2844   13.7022 C   0  0  0  0  0  0  0  0  0  0  0  0
    4.7470    0.4870   14.7610 N   0  0  0  0  0  0  0  0  0  0  0  0
    5.8980    0.3781   15.4861 C   0  0  0  0  0  0  0  0  0  0  0  0
    5.5879   -0.5236   16.5289 C   0  0  0  0  0  0  0  0  0  0  0  0
    4.3760   -1.0435   16.3736 N   0  0  0  0  0  0  0  0  0  0  0  0
    3.8368   -0.3913   15.3236 C   0  0  0  0  0  0  0  0  0  0  0  0
    2.6373    2.1616   12.1208 C   0  0  0  0  0  0  0  0  0  0  0  0
    1.3117    2.6428   12.1323 C   0  0  0  0  0  0  0  0  0  0  0  0
    0.8392    3.5282   11.1613 C   0  0  0  0  0  0  0  0  0  0  0  0
    1.7204    3.9285   10.1646 C   0  0  0  0  0  0  0  0  0  0  0  0
    1.5424    4.7860    9.1151 N   0  0  0  0  0  0  0  0  0  0  0  0
    2.7143    4.8525    8.3999 N   0  0  0  0  0  0  0  0  0  0  0  0
    3.5904    4.0382    9.0000 N   0  0  0  0  0  0  0  0  0  0  0  0
    3.0324    3.4382   10.1221 C   0  0  0  0  0  0  0  0  0  0  0  0
    3.5249    2.5426   11.0797 C   0  0  0  0  0  0  0  0  0  0  0  0
   -0.5551   -0.8189   14.1919 C   0  0  0  0  0  0  0  0  0  0  0  0
   -1.9443   -1.0883   14.0612 C   0  0  0  0  0  0  0  0  0  0  0  0
   -2.7530   -0.3558   13.2052 O   0  0  0  0  0  0  0  0  0  0  0  0
   -2.2324    0.6450   12.3520 C   0  0  0  0  0  0  0  0  0  0  0  0
   -5.3466   -3.2531   13.5755 H   0  0  0  0  0  0  0  0  0  0  0  0
   -3.9670   -2.5543   12.6618 H   0  0  0  0  0  0  0  0  0  0  0  0
   -3.7532   -4.0822   13.5818 H   0  0  0  0  0  0  0  0  0  0  0  0
   -2.1983   -3.6662   16.2542 H   0  0  0  0  0  0  0  0  0  0  0  0
   -0.2170   -2.3864   16.8766 H   0  0  0  0  0  0  0  0  0  0  0  0
    0.1335   -3.5393   15.5445 H   0  0  0  0  0  0  0  0  0  0  0  0
    5.1530    1.9352   13.2514 H   0  0  0  0  0  0  0  0  0  0  0  0
    6.8402    0.8731   15.3029 H   0  0  0  0  0  0  0  0  0  0  0  0
    6.2517   -0.7597   17.3475 H   0  0  0  0  0  0  0  0  0  0  0  0
    0.6617    1.7567   12.0840 H   0  0  0  0  0  0  0  0  0  0  0  0
    1.1747    3.1457   13.1009 H   0  0  0  0  0  0  0  0  0  0  0  0
   -0.1781    3.8900   11.1844 H   0  0  0  0  0  0  0  0  0  0  0  0
    4.5333    2.1594   11.0287 H   0  0  0  0  0  0  0  0  0  0  0  0
   -0.0965   -0.0331   13.6099 H   0  0  0  0  0  0  0  0  0  0  0  0
   -3.0505    1.0911   11.7674 H   0  0  0  0  0  0  0  0  0  0  0  0
   -1.7460    1.4250   12.9561 H   0  0  0  0  0  0  0  0  0  0  0  0
   -1.4955    0.1974   11.6689 H   0  0  0  0  0  0  0  0  0  0  0  0
  1  2  1  0  0  0  0
  2  3  1  0  0  0  0
  3  4  2  0  0  0  0
  3 27  1  0  0  0  0
  4  5  1  0  0  0  0
  5  6  1  0  0  0  0
  6  7  2  0  0  0  0
  6 26  1  0  0  0  0
  7  8  1  0  0  0  0
  8  9  2  0  0  0  0
  8 16  1  0  0  0  0
  9 10  1  0  0  0  0
 10 11  2  0  0  0  0
 10 17  1  0  0  0  0
 11 12  1  0  0  0  0
 12 13  1  0  0  0  0
 12 16  1  0  0  0  0
 13 14  2  0  0  0  0
 14 15  1  0  0  0  0
 15 16  2  0  0  0  0
 17 18  1  0  0  0  0
 17 25  2  0  0  0  0
 18 19  1  0  0  0  0
 19 20  2  0  0  0  0
 20 21  1  0  0  0  0
 20 24  1  0  0  0  0
 21 22  2  0  0  0  0
 22 23  1  0  0  0  0
 23 24  2  0  0  0  0
 24 25  1  0  0  0  0
 26 27  2  0  0  0  0
 27 28  1  0  0  0  0
 28 29  1  0  0  0  0
  1 30  1  0  0  0  0
  1 31  1  0  0  0  0
  1 32  1  0  0  0  0
  4 33  1  0  0  0  0
  5 34  1  0  0  0  0
  5 35  1  0  0  0  0
 11 36  1  0  0  0  0
 13 37  1  0  0  0  0
 14 38  1  0  0  0  0
 18 39  1  0  0  0  0
 18 40  1  0  0  0  0
 19 41  1  0  0  0  0
 25 42  1  0  0  0  0
 26 43  1  0  0  0  0
 29 44  1  0  0  0  0
 29 45  1  0  0  0  0
 29 46  1  0  0  0  0
M  END
> <IC50[nM]>
12.6

$$$$
CHEMBL3265019
  -OEChem-05192314333D
 Structure written by MMmdl.
 46 50  0     1  0  0  0  0  0999 V2000
   -4.2567   -3.1043   13.5693 C   0  0  0  0  0  0  0  0  0  0  0  0
   -3.8736   -2.3605   14.7157 O   0  0  0  0  0  0  0  0  0  0  0  0
   -2.5257   -2.1110   14.8169 C   0  0  0  0  0  0  0  0  0  0  0  0
   -1.7458   -2.8699   15.6818 C   0  0  0  0  0  0  0  0  0  0  0  0
   -0.3904   -2.6103   15.8137 C   0  0  0  0  0  0  0  0  0  0  0  0
    0.2206   -1.5847   15.0868 C   0  0  0  0  0  0  0  0  0  0  0  0
    1.6037   -1.3593   15.3213 N   0  0  0  0  0  0  0  0  0  0  0  0
    2.5361   -0.4486   14.7616 C   0  0  0  0  0  0  0  0  0  0  0  0
    2.1814    0.3735   13.7239 N   0  0  0  0  0  0  0  0  0  0  0  0
    3.1138    1.2388   13.2174 C   0  0  0  0  0  0  0  0  0  0  0  0
    4.4183    1.2844   13.7022 C   0  0  0  0  0  0  0  0  0  0  0  0
    4.7470    0.4870   14.7610 N   0  0  0  0  0  0  0  0  0  0  0  0
    5.8980    0.3781   15.4861 C   0  0  0  0  0  0  0  0  0  0  0  0
    5.5879   -0.5236   16.5289 C   0  0  0  0  0  0  0  0  0  0  0  0
    4.3760   -1.0435   16.3736 N   0  0  0  0  0  0  0  0  0  0  0  0
    3.8368   -0.3913   15.3236 C   0  0  0  0  0  0  0  0  0  0  0  0
    2.6373    2.1616   12.1208 C   0  0  3  0  0  0  0  0  0  0  0  0
    1.3117    2.6428   12.1323 C   0  0  0  0  0  0  0  0  0  0  0  0
    0.8392    3.5282   11.1613 C   0  0  0  0  0  0  0  0  0  0  0  0
    1.7204    3.9285   10.1646 C   0  0  0  0  0  0  0  0  0  0  0  0
    1.5424    4.7860    9.1151 N   0  0  0  0  0  0  0  0  0  0  0  0
    2.7143    4.8525    8.3999 N   0  0  0  0  0  0  0  0  0  0  0  0
    3.5904    4.0382    9.0000 N   0  0  0  0  0  0  0  0  0  0  0  0
    3.0324    3.4382   10.1221 C   0  0  0  0  0  0  0  0  0  0  0  0
    3.5249    2.5426   11.0797 C   0  0  0  0  0  0  0  0  0  0  0  0
   -0.5551   -0.8189   14.1919 C   0  0  0  0  0  0  0  0  0  0  0  0
   -1.9443   -1.0883   14.0612 C   0  0  0  0  0  0  0  0  0  0  0  0
   -2.7530   -0.3558   13.2052 O   0  0  0  0  0  0  0  0  0  0  0  0
   -2.2324    0.6450   12.3520 C   0  0  0  0  0  0  0  0  0  0  0  0
   -5.3466   -3.2531   13.5755 H   0  0  0  0  0  0  0  0  0  0  0  0
   -3.9670   -2.5543   12.6618 H   0  0  0  0  0  0  0  0  0  0  0  0
   -3.7532   -4.0822   13.5818 H   0  0  0  0  0  0  0  0  0  0  0  0
   -2.1983   -3.6662   16.2542 H   0  0  0  0  0  0  0  0  0  0  0  0
    0.2025   -3.2098   16.4885 H   0  0  0  0  0  0  0  0  0  0  0  0
    5.1530    1.9352   13.2514 H   0  0  0  0  0  0  0  0  0  0  0  0
    6.8402    0.8731   15.3029 H   0  0  0  0  0  0  0  0  0  0  0  0
    6.2517   -0.7597   17.3475 H   0  0  0  0  0  0  0  0  0  0  0  0
    2.9583    3.0313   12.7129 H   0  0  0  0  0  0  0  0  0  0  0  0
    0.6425    2.3170   12.9149 H   0  0  0  0  0  0  0  0  0  0  0  0
   -0.1781    3.8900   11.1844 H   0  0  0  0  0  0  0  0  0  0  0  0
    4.5333    2.1594   11.0287 H   0  0  0  0  0  0  0  0  0  0  0  0
   -0.4612    0.2313   14.5053 H   0  0  0  0  0  0  0  0  0  0  0  0
   -0.1097   -0.9450   13.1940 H   0  0  0  0  0  0  0  0  0  0  0  0
   -3.0505    1.0911   11.7674 H   0  0  0  0  0  0  0  0  0  0  0  0
   -1.7460    1.4250   12.9561 H   0  0  0  0  0  0  0  0  0  0  0  0
   -1.4955    0.1974   11.6689 H   0  0  0  0  0  0  0  0  0  0  0  0
  1  2  1  0  0  0  0
  2  3  1  0  0  0  0
  3  4  1  0  0  0  0
  3 27  2  0  0  0  0
  4  5  2  0  0  0  0
  5  6  1  0  0  0  0
  6  7  2  0  0  0  0
  6 26  1  0  0  0  0
  7  8  1  0  0  0  0
  8  9  2  0  0  0  0
  8 16  1  0  0  0  0
  9 10  1  0  0  0  0
 10 11  2  0  0  0  0
 10 17  1  0  0  0  0
 11 12  1  0  0  0  0
 12 13  1  0  0  0  0
 12 16  1  0  0  0  0
 13 14  2  0  0  0  0
 14 15  1  0  0  0  0
 15 16  2  0  0  0  0
 17 18  1  0  0  0  0
 17 25  1  0  0  0  0
 18 19  2  0  0  0  0
 19 20  1  0  0  0  0
 20 21  2  0  0  0  0
 20 24  1  0  0  0  0
 21 22  1  0  0  0  0
 22 23  2  0  0  0  0
 23 24  1  0  0  0  0
 24 25  2  0  0  0  0
 26 27  1  0  0  0  0
 27 28  1  0  0  0  0
 28 29  1  0  0  0  0
  1 30  1  0  0  0  0
  1 31  1  0  0  0  0
  1 32  1  0  0  0  0
  4 33  1  0  0  0  0
  5 34  1  0  0  0  0
 11 35  1  0  0  0  0
 13 36  1  0  0  0  0
 14 37  1  0  0  0  0
 17 38  1  0  0  0  0
 18 39  1  0  0  0  0
 19 40  1  0  0  0  0
 25 41  1  0  0  0  0
 26 42  1  0  0  0  0
 26 43  1  0  0  0  0
 29 44  1  0  0  0  0
 29 45  1  0  0  0  0
 29 46  1  0  0  0  0
M  END
> <IC50[nM]>
12.6

$$$$
CHEMBL3265019
  -OEChem-05192314333D
 Structure written by MMmdl.
 46 50  0     1  0  0  0  0  0999 V2000
   -4.2567   -3.1043   13.5693 C   0  0  0  0  0  0  0  0  0  0  0  0
   -3.8736   -2.3605   14.7157 O   0  0  0  0  0  0  0  0  0  0  0  0
   -2.5257   -2.1110   14.8169 C   0  0  0  0  0  0  0  0  0  0  0  0
   -1.7458   -2.8699   15.6818 C   0  0  0  0  0  0  0  0  0  0  0  0
   -0.3904   -2.6103   15.8137 C   0  0  0  0  0  0  0  0  0  0  0  0
    0.2206   -1.5847   15.0868 C   0  0  0  0  0  0  0  0  0  0  0  0
    1.6037   -1.3593   15.3213 N   0  0  0  0  0  0  0  0  0  0  0  0
    2.5361   -0.4486   14.7616 C   0  0  0  0  0  0  0  0  0  0  0  0
    2.1814    0.3735   13.7239 N   0  0  0  0  0  0  0  0  0  0  0  0
    3.1138    1.2388   13.2174 C   0  0  0  0  0  0  0  0  0  0  0  0
    4.4183    1.2844   13.7022 C   0  0  0  0  0  0  0  0  0  0  0  0
    4.7470    0.4870   14.7610 N   0  0  0  0  0  0  0  0  0  0  0  0
    5.8980    0.3781   15.4861 C   0  0  0  0  0  0  0  0  0  0  0  0
    5.5879   -0.5236   16.5289 C   0  0  0  0  0  0  0  0  0  0  0  0
    4.3760   -1.0435   16.3736 N   0  0  0  0  0  0  0  0  0  0  0  0
    3.8368   -0.3913   15.3236 C   0  0  0  0  0  0  0  0  0  0  0  0
    2.6373    2.1616   12.1208 C   0  0  0  0  0  0  0  0  0  0  0  0
    1.3117    2.6428   12.1323 C   0  0  0  0  0  0  0  0  0  0  0  0
    0.8392    3.5282   11.1613 C   0  0  0  0  0  0  0  0  0  0  0  0
    1.7204    3.9285   10.1646 C   0  0  0  0  0  0  0  0  0  0  0  0
    1.5424    4.7860    9.1151 N   0  0  0  0  0  0  0  0  0  0  0  0
    2.7143    4.8525    8.3999 N   0  0  0  0  0  0  0  0  0  0  0  0
    3.5904    4.0382    9.0000 N   0  0  0  0  0  0  0  0  0  0  0  0
    3.0324    3.4382   10.1221 C   0  0  3  0  0  0  0  0  0  0  0  0
    3.5249    2.5426   11.0797 C   0  0  0  0  0  0  0  0  0  0  0  0
   -0.5551   -0.8189   14.1919 C   0  0  0  0  0  0  0  0  0  0  0  0
   -1.9443   -1.0883   14.0612 C   0  0  0  0  0  0  0  0  0  0  0  0
   -2.7530   -0.3558   13.2052 O   0  0  0  0  0  0  0  0  0  0  0  0
   -2.2324    0.6450   12.3520 C   0  0  0  0  0  0  0  0  0  0  0  0
   -5.3466   -3.2531   13.5755 H   0  0  0  0  0  0  0  0  0  0  0  0
   -3.9670   -2.5543   12.6618 H   0  0  0  0  0  0  0  0  0  0  0  0
   -3.7532   -4.0822   13.5818 H   0  0  0  0  0  0  0  0  0  0  0  0
   -2.1983   -3.6662   16.2542 H   0  0  0  0  0  0  0  0  0  0  0  0
    0.2025   -3.2098   16.4885 H   0  0  0  0  0  0  0  0  0  0  0  0
    5.1530    1.9352   13.2514 H   0  0  0  0  0  0  0  0  0  0  0  0
    6.8402    0.8731   15.3029 H   0  0  0  0  0  0  0  0  0  0  0  0
    6.2517   -0.7597   17.3475 H   0  0  0  0  0  0  0  0  0  0  0  0
    0.6425    2.3170   12.9149 H   0  0  0  0  0  0  0  0  0  0  0  0
   -0.1781    3.8900   11.1844 H   0  0  0  0  0  0  0  0  0  0  0  0
    2.6968    2.5928    9.5035 H   0  0  0  0  0  0  0  0  0  0  0  0
    4.5333    2.1594   11.0287 H   0  0  0  0  0  0  0  0  0  0  0  0
   -0.4612    0.2313   14.5053 H   0  0  0  0  0  0  0  0  0  0  0  0
   -0.1097   -0.9450   13.1940 H   0  0  0  0  0  0  0  0  0  0  0  0
   -3.0505    1.0911   11.7674 H   0  0  0  0  0  0  0  0  0  0  0  0
   -1.7460    1.4250   12.9561 H   0  0  0  0  0  0  0  0  0  0  0  0
   -1.4955    0.1974   11.6689 H   0  0  0  0  0  0  0  0  0  0  0  0
  1  2  1  0  0  0  0
  2  3  1  0  0  0  0
  3  4  1  0  0  0  0
  3 27  2  0  0  0  0
  4  5  2  0  0  0  0
  5  6  1  0  0  0  0
  6  7  2  0  0  0  0
  6 26  1  0  0  0  0
  7  8  1  0  0  0  0
  8  9  2  0  0  0  0
  8 16  1  0  0  0  0
  9 10  1  0  0  0  0
 10 11  2  0  0  0  0
 10 17  1  0  0  0  0
 11 12  1  0  0  0  0
 12 13  1  0  0  0  0
 12 16  1  0  0  0  0
 13 14  2  0  0  0  0
 14 15  1  0  0  0  0
 15 16  2  0  0  0  0
 17 18  1  0  0  0  0
 17 25  2  0  0  0  0
 18 19  2  0  0  0  0
 19 20  1  0  0  0  0
 20 21  2  0  0  0  0
 20 24  1  0  0  0  0
 21 22  1  0  0  0  0
 22 23  2  0  0  0  0
 23 24  1  0  0  0  0
 24 25  1  0  0  0  0
 26 27  1  0  0  0  0
 27 28  1  0  0  0  0
 28 29  1  0  0  0  0
  1 30  1  0  0  0  0
  1 31  1  0  0  0  0
  1 32  1  0  0  0  0
  4 33  1  0  0  0  0
  5 34  1  0  0  0  0
 11 35  1  0  0  0  0
 13 36  1  0  0  0  0
 14 37  1  0  0  0  0
 18 38  1  0  0  0  0
 19 39  1  0  0  0  0
 24 40  1  0  0  0  0
 25 41  1  0  0  0  0
 26 42  1  0  0  0  0
 26 43  1  0  0  0  0
 29 44  1  0  0  0  0
 29 45  1  0  0  0  0
 29 46  1  0  0  0  0
M  END
> <IC50[nM]>
12.6

$$$$
CHEMBL3265019
  -OEChem-05192314333D
 Structure written by MMmdl.
 46 50  0     1  0  0  0  0  0999 V2000
   -4.2567   -3.1043   13.5693 C   0  0  0  0  0  0  0  0  0  0  0  0
   -3.8736   -2.3605   14.7157 O   0  0  0  0  0  0  0  0  0  0  0  0
   -2.5257   -2.1110   14.8169 C   0  0  0  0  0  0  0  0  0  0  0  0
   -1.7458   -2.8699   15.6818 C   0  0  0  0  0  0  0  0  0  0  0  0
   -0.3904   -2.6103   15.8137 C   0  0  0  0  0  0  0  0  0  0  0  0
    0.2206   -1.5847   15.0868 C   0  0  0  0  0  0  0  0  0  0  0  0
    1.6037   -1.3593   15.3213 N   0  0  0  0  0  0  0  0  0  0  0  0
    2.5361   -0.4486   14.7616 C   0  0  0  0  0  0  0  0  0  0  0  0
    2.1814    0.3735   13.7239 N   0  0  0  0  0  0  0  0  0  0  0  0
    3.1138    1.2388   13.2174 C   0  0  0  0  0  0  0  0  0  0  0  0
    4.4183    1.2844   13.7022 C   0  0  0  0  0  0  0  0  0  0  0  0
    4.7470    0.4870   14.7610 N   0  0  0  0  0  0  0  0  0  0  0  0
    5.8980    0.3781   15.4861 C   0  0  0  0  0  0  0  0  0  0  0  0
    5.5879   -0.5236   16.5289 C   0  0  0  0  0  0  0  0  0  0  0  0
    4.3760   -1.0435   16.3736 N   0  0  0  0  0  0  0  0  0  0  0  0
    3.8368   -0.3913   15.3236 C   0  0  0  0  0  0  0  0  0  0  0  0
    2.6373    2.1616   12.1208 C   0  0  0  0  0  0  0  0  0  0  0  0
    1.3117    2.6428   12.1323 C   0  0  0  0  0  0  0  0  0  0  0  0
    0.8392    3.5282   11.1613 C   0  0  0  0  0  0  0  0  0  0  0  0
    1.7204    3.9285   10.1646 C   0  0  3  0  0  0  0  0  0  0  0  0
    1.5424    4.7860    9.1151 N   0  0  0  0  0  0  0  0  0  0  0  0
    2.7143    4.8525    8.3999 N   0  0  0  0  0  0  0  0  0  0  0  0
    3.5904    4.0382    9.0000 N   0  0  0  0  0  0  0  0  0  0  0  0
    3.0324    3.4382   10.1221 C   0  0  0  0  0  0  0  0  0  0  0  0
    3.5249    2.5426   11.0797 C   0  0  0  0  0  0  0  0  0  0  0  0
   -0.5551   -0.8189   14.1919 C   0  0  0  0  0  0  0  0  0  0  0  0
   -1.9443   -1.0883   14.0612 C   0  0  0  0  0  0  0  0  0  0  0  0
   -2.7530   -0.3558   13.2052 O   0  0  0  0  0  0  0  0  0  0  0  0
   -2.2324    0.6450   12.3520 C   0  0  0  0  0  0  0  0  0  0  0  0
   -5.3466   -3.2531   13.5755 H   0  0  0  0  0  0  0  0  0  0  0  0
   -3.9670   -2.5543   12.6618 H   0  0  0  0  0  0  0  0  0  0  0  0
   -3.7532   -4.0822   13.5818 H   0  0  0  0  0  0  0  0  0  0  0  0
   -2.1983   -3.6662   16.2542 H   0  0  0  0  0  0  0  0  0  0  0  0
    0.2025   -3.2098   16.4885 H   0  0  0  0  0  0  0  0  0  0  0  0
    5.1530    1.9352   13.2514 H   0  0  0  0  0  0  0  0  0  0  0  0
    6.8402    0.8731   15.3029 H   0  0  0  0  0  0  0  0  0  0  0  0
    6.2517   -0.7597   17.3475 H   0  0  0  0  0  0  0  0  0  0  0  0
    0.6425    2.3170   12.9149 H   0  0  0  0  0  0  0  0  0  0  0  0
   -0.1781    3.8900   11.1844 H   0  0  0  0  0  0  0  0  0  0  0  0
    2.0532    4.7668   10.7943 H   0  0  0  0  0  0  0  0  0  0  0  0
    4.5333    2.1594   11.0287 H   0  0  0  0  0  0  0  0  0  0  0  0
   -0.4612    0.2313   14.5053 H   0  0  0  0  0  0  0  0  0  0  0  0
   -0.1097   -0.9450   13.1940 H   0  0  0  0  0  0  0  0  0  0  0  0
   -3.0505    1.0911   11.7674 H   0  0  0  0  0  0  0  0  0  0  0  0
   -1.7460    1.4250   12.9561 H   0  0  0  0  0  0  0  0  0  0  0  0
   -1.4955    0.1974   11.6689 H   0  0  0  0  0  0  0  0  0  0  0  0
  1  2  1  0  0  0  0
  2  3  1  0  0  0  0
  3  4  1  0  0  0  0
  3 27  2  0  0  0  0
  4  5  2  0  0  0  0
  5  6  1  0  0  0  0
  6  7  2  0  0  0  0
  6 26  1  0  0  0  0
  7  8  1  0  0  0  0
  8  9  2  0  0  0  0
  8 16  1  0  0  0  0
  9 10  1  0  0  0  0
 10 11  2  0  0  0  0
 10 17  1  0  0  0  0
 11 12  1  0  0  0  0
 12 13  1  0  0  0  0
 12 16  1  0  0  0  0
 13 14  2  0  0  0  0
 14 15  1  0  0  0  0
 15 16  2  0  0  0  0
 17 18  1  0  0  0  0
 17 25  2  0  0  0  0
 18 19  2  0  0  0  0
 19 20  1  0  0  0  0
 20 21  1  0  0  0  0
 20 24  1  0  0  0  0
 21 22  2  0  0  0  0
 22 23  1  0  0  0  0
 23 24  2  0  0  0  0
 24 25  1  0  0  0  0
 26 27  1  0  0  0  0
 27 28  1  0  0  0  0
 28 29  1  0  0  0  0
  1 30  1  0  0  0  0
  1 31  1  0  0  0  0
  1 32  1  0  0  0  0
  4 33  1  0  0  0  0
  5 34  1  0  0  0  0
 11 35  1  0  0  0  0
 13 36  1  0  0  0  0
 14 37  1  0  0  0  0
 18 38  1  0  0  0  0
 19 39  1  0  0  0  0
 20 40  1  0  0  0  0
 25 41  1  0  0  0  0
 26 42  1  0  0  0  0
 26 43  1  0  0  0  0
 29 44  1  0  0  0  0
 29 45  1  0  0  0  0
 29 46  1  0  0  0  0
M  END
> <IC50[nM]>
12.6

$$$$
CHEMBL3265019
  -OEChem-05192314333D
 Structure written by MMmdl.
 46 50  0     0  0  0  0  0  0999 V2000
   -4.2567   -3.1043   13.5693 C   0  0  0  0  0  0  0  0  0  0  0  0
   -3.8736   -2.3605   14.7157 O   0  0  0  0  0  0  0  0  0  0  0  0
   -2.5257   -2.1110   14.8169 C   0  0  0  0  0  0  0  0  0  0  0  0
   -1.7458   -2.8699   15.6818 C   0  0  0  0  0  0  0  0  0  0  0  0
   -0.3904   -2.6103   15.8137 C   0  0  0  0  0  0  0  0  0  0  0  0
    0.2206   -1.5847   15.0868 C   0  0  0  0  0  0  0  0  0  0  0  0
    1.6037   -1.3593   15.3213 N   0  0  0  0  0  0  0  0  0  0  0  0
    2.5361   -0.4486   14.7616 C   0  0  0  0  0  0  0  0  0  0  0  0
    2.1814    0.3735   13.7239 N   0  0  0  0  0  0  0  0  0  0  0  0
    3.1138    1.2388   13.2174 C   0  0  0  0  0  0  0  0  0  0  0  0
    4.4183    1.2844   13.7022 C   0  0  0  0  0  0  0  0  0  0  0  0
    4.7470    0.4870   14.7610 N   0  0  0  0  0  0  0  0  0  0  0  0
    5.8980    0.3781   15.4861 C   0  0  0  0  0  0  0  0  0  0  0  0
    5.5879   -0.5236   16.5289 C   0  0  0  0  0  0  0  0  0  0  0  0
    4.3760   -1.0435   16.3736 N   0  0  0  0  0  0  0  0  0  0  0  0
    3.8368   -0.3913   15.3236 C   0  0  0  0  0  0  0  0  0  0  0  0
    2.6373    2.1616   12.1208 C   0  0  0  0  0  0  0  0  0  0  0  0
    1.3117    2.6428   12.1323 C   0  0  0  0  0  0  0  0  0  0  0  0
    0.8392    3.5282   11.1613 C   0  0  0  0  0  0  0  0  0  0  0  0
    1.7204    3.9285   10.1646 C   0  0  0  0  0  0  0  0  0  0  0  0
    1.5424    4.7860    9.1151 N   0  0  0  0  0  0  0  0  0  0  0  0
    2.7143    4.8525    8.3999 N   0  0  0  0  0  0  0  0  0  0  0  0
    3.5904    4.0382    9.0000 N   0  0  0  0  0  0  0  0  0  0  0  0
    3.0324    3.4382   10.1221 C   0  0  0  0  0  0  0  0  0  0  0  0
    3.5249    2.5426   11.0797 C   0  0  0  0  0  0  0  0  0  0  0  0
   -0.5551   -0.8189   14.1919 C   0  0  0  0  0  0  0  0  0  0  0  0
   -1.9443   -1.0883   14.0612 C   0  0  0  0  0  0  0  0  0  0  0  0
   -2.7530   -0.3558   13.2052 O   0  0  0  0  0  0  0  0  0  0  0  0
   -2.2324    0.6450   12.3520 C   0  0  0  0  0  0  0  0  0  0  0  0
   -5.3466   -3.2531   13.5755 H   0  0  0  0  0  0  0  0  0  0  0  0
   -3.9670   -2.5543   12.6618 H   0  0  0  0  0  0  0  0  0  0  0  0
   -3.7532   -4.0822   13.5818 H   0  0  0  0  0  0  0  0  0  0  0  0
   -2.1983   -3.6662   16.2542 H   0  0  0  0  0  0  0  0  0  0  0  0
    0.2025   -3.2098   16.4885 H   0  0  0  0  0  0  0  0  0  0  0  0
    5.1530    1.9352   13.2514 H   0  0  0  0  0  0  0  0  0  0  0  0
    6.8402    0.8731   15.3029 H   0  0  0  0  0  0  0  0  0  0  0  0
    6.2517   -0.7597   17.3475 H   0  0  0  0  0  0  0  0  0  0  0  0
    0.6425    2.3170   12.9149 H   0  0  0  0  0  0  0  0  0  0  0  0
   -0.0175    3.0465   10.6674 H   0  0  0  0  0  0  0  0  0  0  0  0
    0.4995    4.4354   11.6823 H   0  0  0  0  0  0  0  0  0  0  0  0
    4.5333    2.1594   11.0287 H   0  0  0  0  0  0  0  0  0  0  0  0
   -0.4612    0.2313   14.5053 H   0  0  0  0  0  0  0  0  0  0  0  0
   -0.1097   -0.9450   13.1940 H   0  0  0  0  0  0  0  0  0  0  0  0
   -3.0505    1.0911   11.7674 H   0  0  0  0  0  0  0  0  0  0  0  0
   -1.7460    1.4250   12.9561 H   0  0  0  0  0  0  0  0  0  0  0  0
   -1.4955    0.1974   11.6689 H   0  0  0  0  0  0  0  0  0  0  0  0
  1  2  1  0  0  0  0
  2  3  1  0  0  0  0
  3  4  1  0  0  0  0
  3 27  2  0  0  0  0
  4  5  2  0  0  0  0
  5  6  1  0  0  0  0
  6  7  2  0  0  0  0
  6 26  1  0  0  0  0
  7  8  1  0  0  0  0
  8  9  2  0  0  0  0
  8 16  1  0  0  0  0
  9 10  1  0  0  0  0
 10 11  2  0  0  0  0
 10 17  1  0  0  0  0
 11 12  1  0  0  0  0
 12 13  1  0  0  0  0
 12 16  1  0  0  0  0
 13 14  2  0  0  0  0
 14 15  1  0  0  0  0
 15 16  2  0  0  0  0
 17 18  2  0  0  0  0
 17 25  1  0  0  0  0
 18 19  1  0  0  0  0
 19 20  1  0  0  0  0
 20 21  2  0  0  0  0
 20 24  1  0  0  0  0
 21 22  1  0  0  0  0
 22 23  2  0  0  0  0
 23 24  1  0  0  0  0
 24 25  2  0  0  0  0
 26 27  1  0  0  0  0
 27 28  1  0  0  0  0
 28 29  1  0  0  0  0
  1 30  1  0  0  0  0
  1 31  1  0  0  0  0
  1 32  1  0  0  0  0
  4 33  1  0  0  0  0
  5 34  1  0  0  0  0
 11 35  1  0  0  0  0
 13 36  1  0  0  0  0
 14 37  1  0  0  0  0
 18 38  1  0  0  0  0
 19 39  1  0  0  0  0
 19 40  1  0  0  0  0
 25 41  1  0  0  0  0
 26 42  1  0  0  0  0
 26 43  1  0  0  0  0
 29 44  1  0  0  0  0
 29 45  1  0  0  0  0
 29 46  1  0  0  0  0
M  END
> <IC50[nM]>
12.6

$$$$
CHEMBL3265019
  -OEChem-05192314333D
 Structure written by MMmdl.
 46 50  0     0  0  0  0  0  0999 V2000
   -4.2567   -3.1043   13.5693 C   0  0  0  0  0  0  0  0  0  0  0  0
   -3.8736   -2.3605   14.7157 O   0  0  0  0  0  0  0  0  0  0  0  0
   -2.5257   -2.1110   14.8169 C   0  0  0  0  0  0  0  0  0  0  0  0
   -1.7458   -2.8699   15.6818 C   0  0  0  0  0  0  0  0  0  0  0  0
   -0.3904   -2.6103   15.8137 C   0  0  0  0  0  0  0  0  0  0  0  0
    0.2206   -1.5847   15.0868 C   0  0  0  0  0  0  0  0  0  0  0  0
    1.6037   -1.3593   15.3213 N   0  0  0  0  0  0  0  0  0  0  0  0
    2.5361   -0.4486   14.7616 C   0  0  0  0  0  0  0  0  0  0  0  0
    2.1814    0.3735   13.7239 N   0  0  0  0  0  0  0  0  0  0  0  0
    3.1138    1.2388   13.2174 C   0  0  0  0  0  0  0  0  0  0  0  0
    4.4183    1.2844   13.7022 C   0  0  0  0  0  0  0  0  0  0  0  0
    4.7470    0.4870   14.7610 N   0  0  0  0  0  0  0  0  0  0  0  0
    5.8980    0.3781   15.4861 C   0  0  0  0  0  0  0  0  0  0  0  0
    5.5879   -0.5236   16.5289 C   0  0  0  0  0  0  0  0  0  0  0  0
    4.3760   -1.0435   16.3736 N   0  0  0  0  0  0  0  0  0  0  0  0
    3.8368   -0.3913   15.3236 C   0  0  0  0  0  0  0  0  0  0  0  0
    2.6373    2.1616   12.1208 C   0  0  0  0  0  0  0  0  0  0  0  0
    1.3117    2.6428   12.1323 C   0  0  0  0  0  0  0  0  0  0  0  0
    0.8392    3.5282   11.1613 C   0  0  0  0  0  0  0  0  0  0  0  0
    1.7204    3.9285   10.1646 C   0  0  0  0  0  0  0  0  0  0  0  0
    1.5424    4.7860    9.1151 N   0  0  0  0  0  0  0  0  0  0  0  0
    2.7143    4.8525    8.3999 N   0  0  0  0  0  0  0  0  0  0  0  0
    3.5904    4.0382    9.0000 N   0  0  0  0  0  0  0  0  0  0  0  0
    3.0324    3.4382   10.1221 C   0  0  0  0  0  0  0  0  0  0  0  0
    3.5249    2.5426   11.0797 C   0  0  0  0  0  0  0  0  0  0  0  0
   -0.5551   -0.8189   14.1919 C   0  0  0  0  0  0  0  0  0  0  0  0
   -1.9443   -1.0883   14.0612 C   0  0  0  0  0  0  0  0  0  0  0  0
   -2.7530   -0.3558   13.2052 O   0  0  0  0  0  0  0  0  0  0  0  0
   -2.2324    0.6450   12.3520 C   0  0  0  0  0  0  0  0  0  0  0  0
   -5.3466   -3.2531   13.5755 H   0  0  0  0  0  0  0  0  0  0  0  0
   -3.9670   -2.5543   12.6618 H   0  0  0  0  0  0  0  0  0  0  0  0
   -3.7532   -4.0822   13.5818 H   0  0  0  0  0  0  0  0  0  0  0  0
   -2.1983   -3.6662   16.2542 H   0  0  0  0  0  0  0  0  0  0  0  0
    0.2025   -3.2098   16.4885 H   0  0  0  0  0  0  0  0  0  0  0  0
    5.1530    1.9352   13.2514 H   0  0  0  0  0  0  0  0  0  0  0  0
    6.8402    0.8731   15.3029 H   0  0  0  0  0  0  0  0  0  0  0  0
    6.2517   -0.7597   17.3475 H   0  0  0  0  0  0  0  0  0  0  0  0
    0.6617    1.7567   12.0840 H   0  0  0  0  0  0  0  0  0  0  0  0
    1.1747    3.1457   13.1009 H   0  0  0  0  0  0  0  0  0  0  0  0
   -0.1781    3.8900   11.1844 H   0  0  0  0  0  0  0  0  0  0  0  0
    4.5333    2.1594   11.0287 H   0  0  0  0  0  0  0  0  0  0  0  0
   -0.4612    0.2313   14.5053 H   0  0  0  0  0  0  0  0  0  0  0  0
   -0.1097   -0.9450   13.1940 H   0  0  0  0  0  0  0  0  0  0  0  0
   -3.0505    1.0911   11.7674 H   0  0  0  0  0  0  0  0  0  0  0  0
   -1.7460    1.4250   12.9561 H   0  0  0  0  0  0  0  0  0  0  0  0
   -1.4955    0.1974   11.6689 H   0  0  0  0  0  0  0  0  0  0  0  0
  1  2  1  0  0  0  0
  2  3  1  0  0  0  0
  3  4  1  0  0  0  0
  3 27  2  0  0  0  0
  4  5  2  0  0  0  0
  5  6  1  0  0  0  0
  6  7  2  0  0  0  0
  6 26  1  0  0  0  0
  7  8  1  0  0  0  0
  8  9  2  0  0  0  0
  8 16  1  0  0  0  0
  9 10  1  0  0  0  0
 10 11  2  0  0  0  0
 10 17  1  0  0  0  0
 11 12  1  0  0  0  0
 12 13  1  0  0  0  0
 12 16  1  0  0  0  0
 13 14  2  0  0  0  0
 14 15  1  0  0  0  0
 15 16  2  0  0  0  0
 17 18  1  0  0  0  0
 17 25  2  0  0  0  0
 18 19  1  0  0  0  0
 19 20  2  0  0  0  0
 20 21  1  0  0  0  0
 20 24  1  0  0  0  0
 21 22  2  0  0  0  0
 22 23  1  0  0  0  0
 23 24  2  0  0  0  0
 24 25  1  0  0  0  0
 26 27  1  0  0  0  0
 27 28  1  0  0  0  0
 28 29  1  0  0  0  0
  1 30  1  0  0  0  0
  1 31  1  0  0  0  0
  1 32  1  0  0  0  0
  4 33  1  0  0  0  0
  5 34  1  0  0  0  0
 11 35  1  0  0  0  0
 13 36  1  0  0  0  0
 14 37  1  0  0  0  0
 18 38  1  0  0  0  0
 18 39  1  0  0  0  0
 19 40  1  0  0  0  0
 25 41  1  0  0  0  0
 26 42  1  0  0  0  0
 26 43  1  0  0  0  0
 29 44  1  0  0  0  0
 29 45  1  0  0  0  0
 29 46  1  0  0  0  0
M  END
> <IC50[nM]>
12.6

$$$$
CHEMBL3265019
  -OEChem-05192314333D
 Structure written by MMmdl.
 46 50  0     1  0  0  0  0  0999 V2000
   -4.2567   -3.1043   13.5693 C   0  0  0  0  0  0  0  0  0  0  0  0
   -3.8736   -2.3605   14.7157 O   0  0  0  0  0  0  0  0  0  0  0  0
   -2.5257   -2.1110   14.8169 C   0  0  3  0  0  0  0  0  0  0  0  0
   -1.7458   -2.8699   15.6818 C   0  0  0  0  0  0  0  0  0  0  0  0
   -0.3904   -2.6103   15.8137 C   0  0  0  0  0  0  0  0  0  0  0  0
    0.2206   -1.5847   15.0868 C   0  0  0  0  0  0  0  0  0  0  0  0
    1.6037   -1.3593   15.3213 N   0  0  0  0  0  0  0  0  0  0  0  0
    2.5361   -0.4486   14.7616 C   0  0  0  0  0  0  0  0  0  0  0  0
    2.1814    0.3735   13.7239 N   0  0  0  0  0  0  0  0  0  0  0  0
    3.1138    1.2388   13.2174 C   0  0  0  0  0  0  0  0  0  0  0  0
    4.4183    1.2844   13.7022 C   0  0  0  0  0  0  0  0  0  0  0  0
    4.7470    0.4870   14.7610 N   0  0  0  0  0  0  0  0  0  0  0  0
    5.8980    0.3781   15.4861 C   0  0  0  0  0  0  0  0  0  0  0  0
    5.5879   -0.5236   16.5289 C   0  0  0  0  0  0  0  0  0  0  0  0
    4.3760   -1.0435   16.3736 N   0  0  0  0  0  0  0  0  0  0  0  0
    3.8368   -0.3913   15.3236 C   0  0  0  0  0  0  0  0  0  0  0  0
    2.6373    2.1616   12.1208 C   0  0  0  0  0  0  0  0  0  0  0  0
    1.3117    2.6428   12.1323 C   0  0  0  0  0  0  0  0  0  0  0  0
    0.8392    3.5282   11.1613 C   0  0  0  0  0  0  0  0  0  0  0  0
    1.7204    3.9285   10.1646 C   0  0  0  0  0  0  0  0  0  0  0  0
    1.5424    4.7860    9.1151 N   0  0  0  0  0  0  0  0  0  0  0  0
    2.7143    4.8525    8.3999 N   0  0  0  0  0  0  0  0  0  0  0  0
    3.5904    4.0382    9.0000 N   0  0  0  0  0  0  0  0  0  0  0  0
    3.0324    3.4382   10.1221 C   0  0  0  0  0  0  0  0  0  0  0  0
    3.5249    2.5426   11.0797 C   0  0  0  0  0  0  0  0  0  0  0  0
   -0.5551   -0.8189   14.1919 C   0  0  0  0  0  0  0  0  0  0  0  0
   -1.9443   -1.0883   14.0612 C   0  0  0  0  0  0  0  0  0  0  0  0
   -2.7530   -0.3558   13.2052 O   0  0  0  0  0  0  0  0  0  0  0  0
   -2.2324    0.6450   12.3520 C   0  0  0  0  0  0  0  0  0  0  0  0
   -5.3466   -3.2531   13.5755 H   0  0  0  0  0  0  0  0  0  0  0  0
   -3.9670   -2.5543   12.6618 H   0  0  0  0  0  0  0  0  0  0  0  0
   -3.7532   -4.0822   13.5818 H   0  0  0  0  0  0  0  0  0  0  0  0
   -2.3287   -2.8271   14.0055 H   0  0  0  0  0  0  0  0  0  0  0  0
   -2.1983   -3.6662   16.2542 H   0  0  0  0  0  0  0  0  0  0  0  0
    0.2025   -3.2098   16.4885 H   0  0  0  0  0  0  0  0  0  0  0  0
    5.1530    1.9352   13.2514 H   0  0  0  0  0  0  0  0  0  0  0  0
    6.8402    0.8731   15.3029 H   0  0  0  0  0  0  0  0  0  0  0  0
    6.2517   -0.7597   17.3475 H   0  0  0  0  0  0  0  0  0  0  0  0
    0.6425    2.3170   12.9149 H   0  0  0  0  0  0  0  0  0  0  0  0
   -0.1781    3.8900   11.1844 H   0  0  0  0  0  0  0  0  0  0  0  0
    4.4054    3.0074   11.5474 H   0  0  0  0  0  0  0  0  0  0  0  0
    3.8304    1.6270   10.5521 H   0  0  0  0  0  0  0  0  0  0  0  0
   -0.0965   -0.0331   13.6099 H   0  0  0  0  0  0  0  0  0  0  0  0
   -3.0505    1.0911   11.7674 H   0  0  0  0  0  0  0  0  0  0  0  0
   -1.7460    1.4250   12.9561 H   0  0  0  0  0  0  0  0  0  0  0  0
   -1.4955    0.1974   11.6689 H   0  0  0  0  0  0  0  0  0  0  0  0
  1  2  1  0  0  0  0
  2  3  1  0  0  0  0
  3  4  1  0  0  0  0
  3 27  1  0  0  0  0
  4  5  2  0  0  0  0
  5  6  1  0  0  0  0
  6  7  2  0  0  0  0
  6 26  1  0  0  0  0
  7  8  1  0  0  0  0
  8  9  2  0  0  0  0
  8 16  1  0  0  0  0
  9 10  1  0  0  0  0
 10 11  2  0  0  0  0
 10 17  1  0  0  0  0
 11 12  1  0  0  0  0
 12 13  1  0  0  0  0
 12 16  1  0  0  0  0
 13 14  2  0  0  0  0
 14 15  1  0  0  0  0
 15 16  2  0  0  0  0
 17 18  2  0  0  0  0
 17 25  1  0  0  0  0
 18 19  1  0  0  0  0
 19 20  2  0  0  0  0
 20 21  1  0  0  0  0
 20 24  1  0  0  0  0
 21 22  2  0  0  0  0
 22 23  1  0  0  0  0
 23 24  2  0  0  0  0
 24 25  1  0  0  0  0
 26 27  2  0  0  0  0
 27 28  1  0  0  0  0
 28 29  1  0  0  0  0
  1 30  1  0  0  0  0
  1 31  1  0  0  0  0
  1 32  1  0  0  0  0
  3 33  1  0  0  0  0
  4 34  1  0  0  0  0
  5 35  1  0  0  0  0
 11 36  1  0  0  0  0
 13 37  1  0  0  0  0
 14 38  1  0  0  0  0
 18 39  1  0  0  0  0
 19 40  1  0  0  0  0
 25 41  1  0  0  0  0
 25 42  1  0  0  0  0
 26 43  1  0  0  0  0
 29 44  1  0  0  0  0
 29 45  1  0  0  0  0
 29 46  1  0  0  0  0
M  END
> <IC50[nM]>
12.6

$$$$
CHEMBL3265019
  -OEChem-05192314333D
 Structure written by MMmdl.
 46 50  0     0  0  0  0  0  0999 V2000
   -4.2567   -3.1043   13.5693 C   0  0  0  0  0  0  0  0  0  0  0  0
   -3.8736   -2.3605   14.7157 O   0  0  0  0  0  0  0  0  0  0  0  0
   -2.5257   -2.1110   14.8169 C   0  0  0  0  0  0  0  0  0  0  0  0
   -1.7458   -2.8699   15.6818 C   0  0  0  0  0  0  0  0  0  0  0  0
   -0.3904   -2.6103   15.8137 C   0  0  0  0  0  0  0  0  0  0  0  0
    0.2206   -1.5847   15.0868 C   0  0  0  0  0  0  0  0  0  0  0  0
    1.6037   -1.3593   15.3213 N   0  0  0  0  0  0  0  0  0  0  0  0
    2.5361   -0.4486   14.7616 C   0  0  0  0  0  0  0  0  0  0  0  0
    2.1814    0.3735   13.7239 N   0  0  0  0  0  0  0  0  0  0  0  0
    3.1138    1.2388   13.2174 C   0  0  0  0  0  0  0  0  0  0  0  0
    4.4183    1.2844   13.7022 C   0  0  0  0  0  0  0  0  0  0  0  0
    4.7470    0.4870   14.7610 N   0  0  0  0  0  0  0  0  0  0  0  0
    5.8980    0.3781   15.4861 C   0  0  0  0  0  0  0  0  0  0  0  0
    5.5879   -0.5236   16.5289 C   0  0  0  0  0  0  0  0  0  0  0  0
    4.3760   -1.0435   16.3736 N   0  0  0  0  0  0  0  0  0  0  0  0
    3.8368   -0.3913   15.3236 C   0  0  0  0  0  0  0  0  0  0  0  0
    2.6373    2.1616   12.1208 C   0  0  0  0  0  0  0  0  0  0  0  0
    1.3117    2.6428   12.1323 C   0  0  0  0  0  0  0  0  0  0  0  0
    0.8392    3.5282   11.1613 C   0  0  0  0  0  0  0  0  0  0  0  0
    1.7204    3.9285   10.1646 C   0  0  0  0  0  0  0  0  0  0  0  0
    1.5424    4.7860    9.1151 N   0  0  0  0  0  0  0  0  0  0  0  0
    2.7143    4.8525    8.3999 N   0  0  0  0  0  0  0  0  0  0  0  0
    3.5904    4.0382    9.0000 N   0  0  0  0  0  0  0  0  0  0  0  0
    3.0324    3.4382   10.1221 C   0  0  0  0  0  0  0  0  0  0  0  0
    3.5249    2.5426   11.0797 C   0  0  0  0  0  0  0  0  0  0  0  0
   -0.5551   -0.8189   14.1919 C   0  0  0  0  0  0  0  0  0  0  0  0
   -1.9443   -1.0883   14.0612 C   0  0  0  0  0  0  0  0  0  0  0  0
   -2.7530   -0.3558   13.2052 O   0  0  0  0  0  0  0  0  0  0  0  0
   -2.2324    0.6450   12.3520 C   0  0  0  0  0  0  0  0  0  0  0  0
   -5.3466   -3.2531   13.5755 H   0  0  0  0  0  0  0  0  0  0  0  0
   -3.9670   -2.5543   12.6618 H   0  0  0  0  0  0  0  0  0  0  0  0
   -3.7532   -4.0822   13.5818 H   0  0  0  0  0  0  0  0  0  0  0  0
   -2.1983   -3.6662   16.2542 H   0  0  0  0  0  0  0  0  0  0  0  0
   -0.2170   -2.3864   16.8766 H   0  0  0  0  0  0  0  0  0  0  0  0
    0.1335   -3.5393   15.5445 H   0  0  0  0  0  0  0  0  0  0  0  0
    5.1530    1.9352   13.2514 H   0  0  0  0  0  0  0  0  0  0  0  0
    6.8402    0.8731   15.3029 H   0  0  0  0  0  0  0  0  0  0  0  0
    6.2517   -0.7597   17.3475 H   0  0  0  0  0  0  0  0  0  0  0  0
    0.6425    2.3170   12.9149 H   0  0  0  0  0  0  0  0  0  0  0  0
   -0.1781    3.8900   11.1844 H   0  0  0  0  0  0  0  0  0  0  0  0
    4.4054    3.0074   11.5474 H   0  0  0  0  0  0  0  0  0  0  0  0
    3.8304    1.6270   10.5521 H   0  0  0  0  0  0  0  0  0  0  0  0
   -0.0965   -0.0331   13.6099 H   0  0  0  0  0  0  0  0  0  0  0  0
   -3.0505    1.0911   11.7674 H   0  0  0  0  0  0  0  0  0  0  0  0
   -1.7460    1.4250   12.9561 H   0  0  0  0  0  0  0  0  0  0  0  0
   -1.4955    0.1974   11.6689 H   0  0  0  0  0  0  0  0  0  0  0  0
  1  2  1  0  0  0  0
  2  3  1  0  0  0  0
  3  4  2  0  0  0  0
  3 27  1  0  0  0  0
  4  5  1  0  0  0  0
  5  6  1  0  0  0  0
  6  7  2  0  0  0  0
  6 26  1  0  0  0  0
  7  8  1  0  0  0  0
  8  9  2  0  0  0  0
  8 16  1  0  0  0  0
  9 10  1  0  0  0  0
 10 11  2  0  0  0  0
 10 17  1  0  0  0  0
 11 12  1  0  0  0  0
 12 13  1  0  0  0  0
 12 16  1  0  0  0  0
 13 14  2  0  0  0  0
 14 15  1  0  0  0  0
 15 16  2  0  0  0  0
 17 18  2  0  0  0  0
 17 25  1  0  0  0  0
 18 19  1  0  0  0  0
 19 20  2  0  0  0  0
 20 21  1  0  0  0  0
 20 24  1  0  0  0  0
 21 22  2  0  0  0  0
 22 23  1  0  0  0  0
 23 24  2  0  0  0  0
 24 25  1  0  0  0  0
 26 27  2  0  0  0  0
 27 28  1  0  0  0  0
 28 29  1  0  0  0  0
  1 30  1  0  0  0  0
  1 31  1  0  0  0  0
  1 32  1  0  0  0  0
  4 33  1  0  0  0  0
  5 34  1  0  0  0  0
  5 35  1  0  0  0  0
 11 36  1  0  0  0  0
 13 37  1  0  0  0  0
 14 38  1  0  0  0  0
 18 39  1  0  0  0  0
 19 40  1  0  0  0  0
 25 41  1  0  0  0  0
 25 42  1  0  0  0  0
 26 43  1  0  0  0  0
 29 44  1  0  0  0  0
 29 45  1  0  0  0  0
 29 46  1  0  0  0  0
M  END
> <IC50[nM]>
12.6

$$$$
CHEMBL3265019
  -OEChem-05192314333D
 Structure written by MMmdl.
 46 50  0     0  0  0  0  0  0999 V2000
   -4.2567   -3.1043   13.5693 C   0  0  0  0  0  0  0  0  0  0  0  0
   -3.8736   -2.3605   14.7157 O   0  0  0  0  0  0  0  0  0  0  0  0
   -2.5257   -2.1110   14.8169 C   0  0  0  0  0  0  0  0  0  0  0  0
   -1.7458   -2.8699   15.6818 C   0  0  0  0  0  0  0  0  0  0  0  0
   -0.3904   -2.6103   15.8137 C   0  0  0  0  0  0  0  0  0  0  0  0
    0.2206   -1.5847   15.0868 C   0  0  0  0  0  0  0  0  0  0  0  0
    1.6037   -1.3593   15.3213 N   0  0  0  0  0  0  0  0  0  0  0  0
    2.5361   -0.4486   14.7616 C   0  0  0  0  0  0  0  0  0  0  0  0
    2.1814    0.3735   13.7239 N   0  0  0  0  0  0  0  0  0  0  0  0
    3.1138    1.2388   13.2174 C   0  0  0  0  0  0  0  0  0  0  0  0
    4.4183    1.2844   13.7022 C   0  0  0  0  0  0  0  0  0  0  0  0
    4.7470    0.4870   14.7610 N   0  0  0  0  0  0  0  0  0  0  0  0
    5.8980    0.3781   15.4861 C   0  0  0  0  0  0  0  0  0  0  0  0
    5.5879   -0.5236   16.5289 C   0  0  0  0  0  0  0  0  0  0  0  0
    4.3760   -1.0435   16.3736 N   0  0  0  0  0  0  0  0  0  0  0  0
    3.8368   -0.3913   15.3236 C   0  0  0  0  0  0  0  0  0  0  0  0
    2.6373    2.1616   12.1208 C   0  0  0  0  0  0  0  0  0  0  0  0
    1.3117    2.6428   12.1323 C   0  0  0  0  0  0  0  0  0  0  0  0
    0.8392    3.5282   11.1613 C   0  0  0  0  0  0  0  0  0  0  0  0
    1.7204    3.9285   10.1646 C   0  0  0  0  0  0  0  0  0  0  0  0
    1.5424    4.7860    9.1151 N   0  0  0  0  0  0  0  0  0  0  0  0
    2.7143    4.8525    8.3999 N   0  0  0  0  0  0  0  0  0  0  0  0
    3.5904    4.0382    9.0000 N   0  0  0  0  0  0  0  0  0  0  0  0
    3.0324    3.4382   10.1221 C   0  0  0  0  0  0  0  0  0  0  0  0
    3.5249    2.5426   11.0797 C   0  0  0  0  0  0  0  0  0  0  0  0
   -0.5551   -0.8189   14.1919 C   0  0  0  0  0  0  0  0  0  0  0  0
   -1.9443   -1.0883   14.0612 C   0  0  0  0  0  0  0  0  0  0  0  0
   -2.7530   -0.3558   13.2052 O   0  0  0  0  0  0  0  0  0  0  0  0
   -2.2324    0.6450   12.3520 C   0  0  0  0  0  0  0  0  0  0  0  0
   -5.3466   -3.2531   13.5755 H   0  0  0  0  0  0  0  0  0  0  0  0
   -3.9670   -2.5543   12.6618 H   0  0  0  0  0  0  0  0  0  0  0  0
   -3.7532   -4.0822   13.5818 H   0  0  0  0  0  0  0  0  0  0  0  0
   -2.1983   -3.6662   16.2542 H   0  0  0  0  0  0  0  0  0  0  0  0
    0.2025   -3.2098   16.4885 H   0  0  0  0  0  0  0  0  0  0  0  0
    5.1530    1.9352   13.2514 H   0  0  0  0  0  0  0  0  0  0  0  0
    6.8402    0.8731   15.3029 H   0  0  0  0  0  0  0  0  0  0  0  0
    6.2517   -0.7597   17.3475 H   0  0  0  0  0  0  0  0  0  0  0  0
    0.6425    2.3170   12.9149 H   0  0  0  0  0  0  0  0  0  0  0  0
   -0.1781    3.8900   11.1844 H   0  0  0  0  0  0  0  0  0  0  0  0
    4.4054    3.0074   11.5474 H   0  0  0  0  0  0  0  0  0  0  0  0
    3.8304    1.6270   10.5521 H   0  0  0  0  0  0  0  0  0  0  0  0
   -0.4612    0.2313   14.5053 H   0  0  0  0  0  0  0  0  0  0  0  0
   -0.1097   -0.9450   13.1940 H   0  0  0  0  0  0  0  0  0  0  0  0
   -3.0505    1.0911   11.7674 H   0  0  0  0  0  0  0  0  0  0  0  0
   -1.7460    1.4250   12.9561 H   0  0  0  0  0  0  0  0  0  0  0  0
   -1.4955    0.1974   11.6689 H   0  0  0  0  0  0  0  0  0  0  0  0
  1  2  1  0  0  0  0
  2  3  1  0  0  0  0
  3  4  1  0  0  0  0
  3 27  2  0  0  0  0
  4  5  2  0  0  0  0
  5  6  1  0  0  0  0
  6  7  2  0  0  0  0
  6 26  1  0  0  0  0
  7  8  1  0  0  0  0
  8  9  2  0  0  0  0
  8 16  1  0  0  0  0
  9 10  1  0  0  0  0
 10 11  2  0  0  0  0
 10 17  1  0  0  0  0
 11 12  1  0  0  0  0
 12 13  1  0  0  0  0
 12 16  1  0  0  0  0
 13 14  2  0  0  0  0
 14 15  1  0  0  0  0
 15 16  2  0  0  0  0
 17 18  2  0  0  0  0
 17 25  1  0  0  0  0
 18 19  1  0  0  0  0
 19 20  2  0  0  0  0
 20 21  1  0  0  0  0
 20 24  1  0  0  0  0
 21 22  2  0  0  0  0
 22 23  1  0  0  0  0
 23 24  2  0  0  0  0
 24 25  1  0  0  0  0
 26 27  1  0  0  0  0
 27 28  1  0  0  0  0
 28 29  1  0  0  0  0
  1 30  1  0  0  0  0
  1 31  1  0  0  0  0
  1 32  1  0  0  0  0
  4 33  1  0  0  0  0
  5 34  1  0  0  0  0
 11 35  1  0  0  0  0
 13 36  1  0  0  0  0
 14 37  1  0  0  0  0
 18 38  1  0  0  0  0
 19 39  1  0  0  0  0
 25 40  1  0  0  0  0
 25 41  1  0  0  0  0
 26 42  1  0  0  0  0
 26 43  1  0  0  0  0
 29 44  1  0  0  0  0
 29 45  1  0  0  0  0
 29 46  1  0  0  0  0
M  END
> <IC50[nM]>
12.6

$$$$
