CHEMBL3265034
  -OEChem-05192314333D
 Structure written by MMmdl.
 53 58  0     0  0  0  0  0  0999 V2000
   -5.7484   -4.1352   14.0916 C   0  0  0  0  0  0  0  0  0  0  0  0
   -4.2467   -3.7965   14.1043 C   0  0  0  0  0  0  0  0  0  0  0  0
   -4.0046   -2.3867   14.6667 C   0  0  0  0  0  0  0  0  0  0  0  0
   -4.7211   -2.2350   16.0203 C   0  0  0  0  0  0  0  0  0  0  0  0
   -6.1989   -2.6529   15.9141 C   0  0  0  0  0  0  0  0  0  0  0  0
   -6.2949   -3.9790   15.3990 O   0  0  0  0  0  0  0  0  0  0  0  0
   -2.5163   -2.1019   14.8026 C   0  0  0  0  0  0  0  0  0  0  0  0
   -1.7444   -2.8650   15.6773 C   0  0  0  0  0  0  0  0  0  0  0  0
   -0.3947   -2.6068   15.8182 C   0  0  0  0  0  0  0  0  0  0  0  0
    0.2168   -1.5789   15.0929 C   0  0  0  0  0  0  0  0  0  0  0  0
    1.5959   -1.3413   15.3408 N   0  0  0  0  0  0  0  0  0  0  0  0
    2.5346   -0.4433   14.7633 C   0  0  0  0  0  0  0  0  0  0  0  0
    2.1825    0.3683   13.7202 N   0  0  0  0  0  0  0  0  0  0  0  0
    3.1144    1.2372   13.2163 C   0  0  0  0  0  0  0  0  0  0  0  0
    4.4190    1.2837   13.7018 C   0  0  0  0  0  0  0  0  0  0  0  0
    4.7465    0.4877   14.7594 N   0  0  0  0  0  0  0  0  0  0  0  0
    5.8977    0.3771   15.4862 C   0  0  0  0  0  0  0  0  0  0  0  0
    5.5879   -0.5237   16.5292 C   0  0  0  0  0  0  0  0  0  0  0  0
    4.3754   -1.0416   16.3746 N   0  0  0  0  0  0  0  0  0  0  0  0
    3.8361   -0.3925   15.3266 C   0  0  0  0  0  0  0  0  0  0  0  0
    2.6384    2.1617   12.1197 C   0  0  0  0  0  0  0  0  0  0  0  0
    3.5461    2.6405   11.1618 C   0  0  0  0  0  0  0  0  0  0  0  0
    3.1445    3.4623   10.1105 C   0  0  0  0  0  0  0  0  0  0  0  0
    1.7985    3.8158   10.0184 C   0  0  0  0  0  0  0  0  0  0  0  0
    0.9907    4.5934    9.1205 C   0  0  0  0  0  0  0  0  0  0  0  0
   -0.2502    4.6054    9.5128 N   0  0  0  0  0  0  0  0  0  0  0  0
   -0.3377    3.8946   10.6262 N   0  0  0  0  0  0  0  0  0  0  0  0
    0.8856    3.3616   10.9945 C   0  0  0  0  0  0  0  0  0  0  0  0
    1.2735    2.5429   12.0624 C   0  0  0  0  0  0  0  0  0  0  0  0
   -0.5534   -0.8155   14.1947 C   0  0  0  0  0  0  0  0  0  0  0  0
   -1.9224   -1.0793   14.0569 C   0  0  0  0  0  0  0  0  0  0  0  0
   -6.2683   -3.4596   13.3964 H   0  0  0  0  0  0  0  0  0  0  0  0
   -5.8843   -5.1758   13.7620 H   0  0  0  0  0  0  0  0  0  0  0  0
   -3.7179   -4.5295   14.7312 H   0  0  0  0  0  0  0  0  0  0  0  0
   -3.8583   -3.8453   13.0763 H   0  0  0  0  0  0  0  0  0  0  0  0
   -4.4360   -1.6572   13.9654 H   0  0  0  0  0  0  0  0  0  0  0  0
   -4.2204   -2.8709   16.7652 H   0  0  0  0  0  0  0  0  0  0  0  0
   -4.6669   -1.1838   16.3398 H   0  0  0  0  0  0  0  0  0  0  0  0
   -6.6607   -2.6153   16.9118 H   0  0  0  0  0  0  0  0  0  0  0  0
   -6.7255   -1.9613   15.2400 H   0  0  0  0  0  0  0  0  0  0  0  0
   -2.2029   -3.6602   16.2464 H   0  0  0  0  0  0  0  0  0  0  0  0
    0.1953   -3.2056   16.4963 H   0  0  0  0  0  0  0  0  0  0  0  0
    1.9808   -1.9178   16.0615 H   0  0  0  0  0  0  0  0  0  0  0  0
    5.1537    1.9347   13.2514 H   0  0  0  0  0  0  0  0  0  0  0  0
    6.8404    0.8712   15.3031 H   0  0  0  0  0  0  0  0  0  0  0  0
    6.2521   -0.7606   17.3472 H   0  0  0  0  0  0  0  0  0  0  0  0
    4.5869    2.3636   11.2421 H   0  0  0  0  0  0  0  0  0  0  0  0
    3.8596    3.8175    9.3833 H   0  0  0  0  0  0  0  0  0  0  0  0
    1.3619    5.0985    8.2410 H   0  0  0  0  0  0  0  0  0  0  0  0
   -1.1853    3.7591   11.1393 H   0  0  0  0  0  0  0  0  0  0  0  0
    0.5648    2.2163   12.8091 H   0  0  0  0  0  0  0  0  0  0  0  0
   -0.0910   -0.0304   13.6148 H   0  0  0  0  0  0  0  0  0  0  0  0
   -2.5192   -0.4925   13.3743 H   0  0  0  0  0  0  0  0  0  0  0  0
  1  2  1  0  0  0  0
  1  6  1  0  0  0  0
  2  3  1  0  0  0  0
  3  4  1  0  0  0  0
  3  7  1  0  0  0  0
  4  5  1  0  0  0  0
  5  6  1  0  0  0  0
  7  8  2  0  0  0  0
  7 31  1  0  0  0  0
  8  9  1  0  0  0  0
  9 10  2  0  0  0  0
 10 11  1  0  0  0  0
 10 30  1  0  0  0  0
 11 12  1  0  0  0  0
 12 13  2  0  0  0  0
 12 20  1  0  0  0  0
 13 14  1  0  0  0  0
 14 15  2  0  0  0  0
 14 21  1  0  0  0  0
 15 16  1  0  0  0  0
 16 17  1  0  0  0  0
 16 20  1  0  0  0  0
 17 18  2  0  0  0  0
 18 19  1  0  0  0  0
 19 20  2  0  0  0  0
 21 22  2  0  0  0  0
 21 29  1  0  0  0  0
 22 23  1  0  0  0  0
 23 24  2  0  0  0  0
 24 25  1  0  0  0  0
 24 28  1  0  0  0  0
 25 26  2  0  0  0  0
 26 27  1  0  0  0  0
 27 28  1  0  0  0  0
 28 29  2  0  0  0  0
 30 31  2  0  0  0  0
  1 32  1  0  0  0  0
  1 33  1  0  0  0  0
  2 34  1  0  0  0  0
  2 35  1  0  0  0  0
  3 36  1  0  0  0  0
  4 37  1  0  0  0  0
  4 38  1  0  0  0  0
  5 39  1  0  0  0  0
  5 40  1  0  0  0  0
  8 41  1  0  0  0  0
  9 42  1  0  0  0  0
 11 43  1  0  0  0  0
 15 44  1  0  0  0  0
 17 45  1  0  0  0  0
 18 46  1  0  0  0  0
 22 47  1  0  0  0  0
 23 48  1  0  0  0  0
 25 49  1  0  0  0  0
 27 50  1  0  0  0  0
 29 51  1  0  0  0  0
 30 52  1  0  0  0  0
 31 53  1  0  0  0  0
M  END
> <IC50[nM]>
3.8

$$$$
CHEMBL3265034
  -OEChem-05192314333D
 Structure written by MMmdl.
 53 58  0     0  0  0  0  0  0999 V2000
   -5.7484   -4.1352   14.0916 C   0  0  0  0  0  0  0  0  0  0  0  0
   -4.2467   -3.7965   14.1043 C   0  0  0  0  0  0  0  0  0  0  0  0
   -4.0046   -2.3867   14.6667 C   0  0  0  0  0  0  0  0  0  0  0  0
   -4.7211   -2.2350   16.0203 C   0  0  0  0  0  0  0  0  0  0  0  0
   -6.1989   -2.6529   15.9141 C   0  0  0  0  0  0  0  0  0  0  0  0
   -6.2949   -3.9790   15.3990 O   0  0  0  0  0  0  0  0  0  0  0  0
   -2.5163   -2.1019   14.8026 C   0  0  0  0  0  0  0  0  0  0  0  0
   -1.7444   -2.8650   15.6773 C   0  0  0  0  0  0  0  0  0  0  0  0
   -0.3947   -2.6068   15.8182 C   0  0  0  0  0  0  0  0  0  0  0  0
    0.2168   -1.5789   15.0929 C   0  0  0  0  0  0  0  0  0  0  0  0
    1.5959   -1.3413   15.3408 N   0  0  0  0  0  0  0  0  0  0  0  0
    2.5346   -0.4433   14.7633 C   0  0  0  0  0  0  0  0  0  0  0  0
    2.1825    0.3683   13.7202 N   0  0  0  0  0  0  0  0  0  0  0  0
    3.1144    1.2372   13.2163 C   0  0  0  0  0  0  0  0  0  0  0  0
    4.4190    1.2837   13.7018 C   0  0  0  0  0  0  0  0  0  0  0  0
    4.7465    0.4877   14.7594 N   0  0  0  0  0  0  0  0  0  0  0  0
    5.8977    0.3771   15.4862 C   0  0  0  0  0  0  0  0  0  0  0  0
    5.5879   -0.5237   16.5292 C   0  0  0  0  0  0  0  0  0  0  0  0
    4.3754   -1.0416   16.3746 N   0  0  0  0  0  0  0  0  0  0  0  0
    3.8361   -0.3925   15.3266 C   0  0  0  0  0  0  0  0  0  0  0  0
    2.6384    2.1617   12.1197 C   0  0  0  0  0  0  0  0  0  0  0  0
    3.5461    2.6405   11.1618 C   0  0  0  0  0  0  0  0  0  0  0  0
    3.1445    3.4623   10.1105 C   0  0  0  0  0  0  0  0  0  0  0  0
    1.7985    3.8158   10.0184 C   0  0  0  0  0  0  0  0  0  0  0  0
    0.9907    4.5934    9.1205 C   0  0  0  0  0  0  0  0  0  0  0  0
   -0.2502    4.6054    9.5128 N   0  0  0  0  0  0  0  0  0  0  0  0
   -0.3377    3.8946   10.6262 N   0  0  0  0  0  0  0  0  0  0  0  0
    0.8856    3.3616   10.9945 C   0  0  0  0  0  0  0  0  0  0  0  0
    1.2735    2.5429   12.0624 C   0  0  0  0  0  0  0  0  0  0  0  0
   -0.5534   -0.8155   14.1947 C   0  0  0  0  0  0  0  0  0  0  0  0
   -1.9224   -1.0793   14.0569 C   0  0  0  0  0  0  0  0  0  0  0  0
   -6.2683   -3.4596   13.3964 H   0  0  0  0  0  0  0  0  0  0  0  0
   -5.8843   -5.1758   13.7620 H   0  0  0  0  0  0  0  0  0  0  0  0
   -3.7179   -4.5295   14.7312 H   0  0  0  0  0  0  0  0  0  0  0  0
   -3.8583   -3.8453   13.0763 H   0  0  0  0  0  0  0  0  0  0  0  0
   -4.4360   -1.6572   13.9654 H   0  0  0  0  0  0  0  0  0  0  0  0
   -4.2204   -2.8709   16.7652 H   0  0  0  0  0  0  0  0  0  0  0  0
   -4.6669   -1.1838   16.3398 H   0  0  0  0  0  0  0  0  0  0  0  0
   -6.6607   -2.6153   16.9118 H   0  0  0  0  0  0  0  0  0  0  0  0
   -6.7255   -1.9613   15.2400 H   0  0  0  0  0  0  0  0  0  0  0  0
   -2.2029   -3.6602   16.2464 H   0  0  0  0  0  0  0  0  0  0  0  0
    0.1953   -3.2056   16.4963 H   0  0  0  0  0  0  0  0  0  0  0  0
    1.9808   -1.9178   16.0615 H   0  0  0  0  0  0  0  0  0  0  0  0
    5.1537    1.9347   13.2514 H   0  0  0  0  0  0  0  0  0  0  0  0
    6.8404    0.8712   15.3031 H   0  0  0  0  0  0  0  0  0  0  0  0
    6.2521   -0.7606   17.3472 H   0  0  0  0  0  0  0  0  0  0  0  0
    4.5869    2.3636   11.2421 H   0  0  0  0  0  0  0  0  0  0  0  0
    3.8596    3.8175    9.3833 H   0  0  0  0  0  0  0  0  0  0  0  0
    1.3619    5.0985    8.2410 H   0  0  0  0  0  0  0  0  0  0  0  0
   -1.0064    5.0708    9.0529 H   0  0  0  0  0  0  0  0  0  0  0  0
    0.5648    2.2163   12.8091 H   0  0  0  0  0  0  0  0  0  0  0  0
   -0.0910   -0.0304   13.6148 H   0  0  0  0  0  0  0  0  0  0  0  0
   -2.5192   -0.4925   13.3743 H   0  0  0  0  0  0  0  0  0  0  0  0
  1  2  1  0  0  0  0
  1  6  1  0  0  0  0
  2  3  1  0  0  0  0
  3  4  1  0  0  0  0
  3  7  1  0  0  0  0
  4  5  1  0  0  0  0
  5  6  1  0  0  0  0
  7  8  2  0  0  0  0
  7 31  1  0  0  0  0
  8  9  1  0  0  0  0
  9 10  2  0  0  0  0
 10 11  1  0  0  0  0
 10 30  1  0  0  0  0
 11 12  1  0  0  0  0
 12 13  2  0  0  0  0
 12 20  1  0  0  0  0
 13 14  1  0  0  0  0
 14 15  2  0  0  0  0
 14 21  1  0  0  0  0
 15 16  1  0  0  0  0
 16 17  1  0  0  0  0
 16 20  1  0  0  0  0
 17 18  2  0  0  0  0
 18 19  1  0  0  0  0
 19 20  2  0  0  0  0
 21 22  1  0  0  0  0
 21 29  2  0  0  0  0
 22 23  2  0  0  0  0
 23 24  1  0  0  0  0
 24 25  2  0  0  0  0
 24 28  1  0  0  0  0
 25 26  1  0  0  0  0
 26 27  1  0  0  0  0
 27 28  2  0  0  0  0
 28 29  1  0  0  0  0
 30 31  2  0  0  0  0
  1 32  1  0  0  0  0
  1 33  1  0  0  0  0
  2 34  1  0  0  0  0
  2 35  1  0  0  0  0
  3 36  1  0  0  0  0
  4 37  1  0  0  0  0
  4 38  1  0  0  0  0
  5 39  1  0  0  0  0
  5 40  1  0  0  0  0
  8 41  1  0  0  0  0
  9 42  1  0  0  0  0
 11 43  1  0  0  0  0
 15 44  1  0  0  0  0
 17 45  1  0  0  0  0
 18 46  1  0  0  0  0
 22 47  1  0  0  0  0
 23 48  1  0  0  0  0
 25 49  1  0  0  0  0
 26 50  1  0  0  0  0
 29 51  1  0  0  0  0
 30 52  1  0  0  0  0
 31 53  1  0  0  0  0
M  END
> <IC50[nM]>
3.8

$$$$
CHEMBL3265034
  -OEChem-05192314333D
 Structure written by MMmdl.
 53 58  0     0  0  0  0  0  0999 V2000
   -5.7484   -4.1352   14.0916 C   0  0  0  0  0  0  0  0  0  0  0  0
   -4.2467   -3.7965   14.1043 C   0  0  0  0  0  0  0  0  0  0  0  0
   -4.0046   -2.3867   14.6667 C   0  0  0  0  0  0  0  0  0  0  0  0
   -4.7211   -2.2350   16.0203 C   0  0  0  0  0  0  0  0  0  0  0  0
   -6.1989   -2.6529   15.9141 C   0  0  0  0  0  0  0  0  0  0  0  0
   -6.2949   -3.9790   15.3990 O   0  0  0  0  0  0  0  0  0  0  0  0
   -2.5163   -2.1019   14.8026 C   0  0  0  0  0  0  0  0  0  0  0  0
   -1.7444   -2.8650   15.6773 C   0  0  0  0  0  0  0  0  0  0  0  0
   -0.3947   -2.6068   15.8182 C   0  0  0  0  0  0  0  0  0  0  0  0
    0.2168   -1.5789   15.0929 C   0  0  0  0  0  0  0  0  0  0  0  0
    1.5959   -1.3413   15.3408 N   0  0  0  0  0  0  0  0  0  0  0  0
    2.5346   -0.4433   14.7633 C   0  0  0  0  0  0  0  0  0  0  0  0
    2.1825    0.3683   13.7202 N   0  0  0  0  0  0  0  0  0  0  0  0
    3.1144    1.2372   13.2163 C   0  0  0  0  0  0  0  0  0  0  0  0
    4.4190    1.2837   13.7018 C   0  0  0  0  0  0  0  0  0  0  0  0
    4.7465    0.4877   14.7594 N   0  0  0  0  0  0  0  0  0  0  0  0
    5.8977    0.3771   15.4862 C   0  0  0  0  0  0  0  0  0  0  0  0
    5.5879   -0.5237   16.5292 C   0  0  0  0  0  0  0  0  0  0  0  0
    4.3754   -1.0416   16.3746 N   0  0  0  0  0  0  0  0  0  0  0  0
    3.8361   -0.3925   15.3266 C   0  0  0  0  0  0  0  0  0  0  0  0
    2.6384    2.1617   12.1197 C   0  0  0  0  0  0  0  0  0  0  0  0
    3.5461    2.6405   11.1618 C   0  0  0  0  0  0  0  0  0  0  0  0
    3.1445    3.4623   10.1105 C   0  0  0  0  0  0  0  0  0  0  0  0
    1.7985    3.8158   10.0184 C   0  0  0  0  0  0  0  0  0  0  0  0
    0.9907    4.5934    9.1205 C   0  0  0  0  0  0  0  0  0  0  0  0
   -0.2502    4.6054    9.5128 N   0  0  0  0  0  0  0  0  0  0  0  0
   -0.3377    3.8946   10.6262 N   0  0  0  0  0  0  0  0  0  0  0  0
    0.8856    3.3616   10.9945 C   0  0  0  0  0  0  0  0  0  0  0  0
    1.2735    2.5429   12.0624 C   0  0  0  0  0  0  0  0  0  0  0  0
   -0.5534   -0.8155   14.1947 C   0  0  0  0  0  0  0  0  0  0  0  0
   -1.9224   -1.0793   14.0569 C   0  0  0  0  0  0  0  0  0  0  0  0
   -6.2683   -3.4596   13.3964 H   0  0  0  0  0  0  0  0  0  0  0  0
   -5.8843   -5.1758   13.7620 H   0  0  0  0  0  0  0  0  0  0  0  0
   -3.7179   -4.5295   14.7312 H   0  0  0  0  0  0  0  0  0  0  0  0
   -3.8583   -3.8453   13.0763 H   0  0  0  0  0  0  0  0  0  0  0  0
   -4.4360   -1.6572   13.9654 H   0  0  0  0  0  0  0  0  0  0  0  0
   -4.2204   -2.8709   16.7652 H   0  0  0  0  0  0  0  0  0  0  0  0
   -4.6669   -1.1838   16.3398 H   0  0  0  0  0  0  0  0  0  0  0  0
   -6.6607   -2.6153   16.9118 H   0  0  0  0  0  0  0  0  0  0  0  0
   -6.7255   -1.9613   15.2400 H   0  0  0  0  0  0  0  0  0  0  0  0
   -2.2029   -3.6602   16.2464 H   0  0  0  0  0  0  0  0  0  0  0  0
    0.1953   -3.2056   16.4963 H   0  0  0  0  0  0  0  0  0  0  0  0
    1.2616    0.3283   13.3324 H   0  0  0  0  0  0  0  0  0  0  0  0
    5.1537    1.9347   13.2514 H   0  0  0  0  0  0  0  0  0  0  0  0
    6.8404    0.8712   15.3031 H   0  0  0  0  0  0  0  0  0  0  0  0
    6.2521   -0.7606   17.3472 H   0  0  0  0  0  0  0  0  0  0  0  0
    4.5869    2.3636   11.2421 H   0  0  0  0  0  0  0  0  0  0  0  0
    3.8596    3.8175    9.3833 H   0  0  0  0  0  0  0  0  0  0  0  0
    1.3619    5.0985    8.2410 H   0  0  0  0  0  0  0  0  0  0  0  0
   -1.1853    3.7591   11.1393 H   0  0  0  0  0  0  0  0  0  0  0  0
    0.5648    2.2163   12.8091 H   0  0  0  0  0  0  0  0  0  0  0  0
   -0.0910   -0.0304   13.6148 H   0  0  0  0  0  0  0  0  0  0  0  0
   -2.5192   -0.4925   13.3743 H   0  0  0  0  0  0  0  0  0  0  0  0
  1  2  1  0  0  0  0
  1  6  1  0  0  0  0
  2  3  1  0  0  0  0
  3  4  1  0  0  0  0
  3  7  1  0  0  0  0
  4  5  1  0  0  0  0
  5  6  1  0  0  0  0
  7  8  2  0  0  0  0
  7 31  1  0  0  0  0
  8  9  1  0  0  0  0
  9 10  2  0  0  0  0
 10 11  1  0  0  0  0
 10 30  1  0  0  0  0
 11 12  2  0  0  0  0
 12 13  1  0  0  0  0
 12 20  1  0  0  0  0
 13 14  1  0  0  0  0
 14 15  2  0  0  0  0
 14 21  1  0  0  0  0
 15 16  1  0  0  0  0
 16 17  1  0  0  0  0
 16 20  1  0  0  0  0
 17 18  2  0  0  0  0
 18 19  1  0  0  0  0
 19 20  2  0  0  0  0
 21 22  2  0  0  0  0
 21 29  1  0  0  0  0
 22 23  1  0  0  0  0
 23 24  2  0  0  0  0
 24 25  1  0  0  0  0
 24 28  1  0  0  0  0
 25 26  2  0  0  0  0
 26 27  1  0  0  0  0
 27 28  1  0  0  0  0
 28 29  2  0  0  0  0
 30 31  2  0  0  0  0
  1 32  1  0  0  0  0
  1 33  1  0  0  0  0
  2 34  1  0  0  0  0
  2 35  1  0  0  0  0
  3 36  1  0  0  0  0
  4 37  1  0  0  0  0
  4 38  1  0  0  0  0
  5 39  1  0  0  0  0
  5 40  1  0  0  0  0
  8 41  1  0  0  0  0
  9 42  1  0  0  0  0
 13 43  1  0  0  0  0
 15 44  1  0  0  0  0
 17 45  1  0  0  0  0
 18 46  1  0  0  0  0
 22 47  1  0  0  0  0
 23 48  1  0  0  0  0
 25 49  1  0  0  0  0
 27 50  1  0  0  0  0
 29 51  1  0  0  0  0
 30 52  1  0  0  0  0
 31 53  1  0  0  0  0
M  END
> <IC50[nM]>
3.8

$$$$
CHEMBL3265034
  -OEChem-05192314333D
 Structure written by MMmdl.
 53 58  0     0  0  0  0  0  0999 V2000
   -5.7484   -4.1352   14.0916 C   0  0  0  0  0  0  0  0  0  0  0  0
   -4.2467   -3.7965   14.1043 C   0  0  0  0  0  0  0  0  0  0  0  0
   -4.0046   -2.3867   14.6667 C   0  0  0  0  0  0  0  0  0  0  0  0
   -4.7211   -2.2350   16.0203 C   0  0  0  0  0  0  0  0  0  0  0  0
   -6.1989   -2.6529   15.9141 C   0  0  0  0  0  0  0  0  0  0  0  0
   -6.2949   -3.9790   15.3990 O   0  0  0  0  0  0  0  0  0  0  0  0
   -2.5163   -2.1019   14.8026 C   0  0  0  0  0  0  0  0  0  0  0  0
   -1.7444   -2.8650   15.6773 C   0  0  0  0  0  0  0  0  0  0  0  0
   -0.3947   -2.6068   15.8182 C   0  0  0  0  0  0  0  0  0  0  0  0
    0.2168   -1.5789   15.0929 C   0  0  0  0  0  0  0  0  0  0  0  0
    1.5959   -1.3413   15.3408 N   0  0  0  0  0  0  0  0  0  0  0  0
    2.5346   -0.4433   14.7633 C   0  0  0  0  0  0  0  0  0  0  0  0
    2.1825    0.3683   13.7202 N   0  0  0  0  0  0  0  0  0  0  0  0
    3.1144    1.2372   13.2163 C   0  0  0  0  0  0  0  0  0  0  0  0
    4.4190    1.2837   13.7018 C   0  0  0  0  0  0  0  0  0  0  0  0
    4.7465    0.4877   14.7594 N   0  0  0  0  0  0  0  0  0  0  0  0
    5.8977    0.3771   15.4862 C   0  0  0  0  0  0  0  0  0  0  0  0
    5.5879   -0.5237   16.5292 C   0  0  0  0  0  0  0  0  0  0  0  0
    4.3754   -1.0416   16.3746 N   0  0  0  0  0  0  0  0  0  0  0  0
    3.8361   -0.3925   15.3266 C   0  0  0  0  0  0  0  0  0  0  0  0
    2.6384    2.1617   12.1197 C   0  0  0  0  0  0  0  0  0  0  0  0
    3.5461    2.6405   11.1618 C   0  0  0  0  0  0  0  0  0  0  0  0
    3.1445    3.4623   10.1105 C   0  0  0  0  0  0  0  0  0  0  0  0
    1.7985    3.8158   10.0184 C   0  0  0  0  0  0  0  0  0  0  0  0
    0.9907    4.5934    9.1205 C   0  0  0  0  0  0  0  0  0  0  0  0
   -0.2502    4.6054    9.5128 N   0  0  0  0  0  0  0  0  0  0  0  0
   -0.3377    3.8946   10.6262 N   0  0  0  0  0  0  0  0  0  0  0  0
    0.8856    3.3616   10.9945 C   0  0  0  0  0  0  0  0  0  0  0  0
    1.2735    2.5429   12.0624 C   0  0  0  0  0  0  0  0  0  0  0  0
   -0.5534   -0.8155   14.1947 C   0  0  0  0  0  0  0  0  0  0  0  0
   -1.9224   -1.0793   14.0569 C   0  0  0  0  0  0  0  0  0  0  0  0
   -6.2683   -3.4596   13.3964 H   0  0  0  0  0  0  0  0  0  0  0  0
   -5.8843   -5.1758   13.7620 H   0  0  0  0  0  0  0  0  0  0  0  0
   -3.7179   -4.5295   14.7312 H   0  0  0  0  0  0  0  0  0  0  0  0
   -3.8583   -3.8453   13.0763 H   0  0  0  0  0  0  0  0  0  0  0  0
   -4.4360   -1.6572   13.9654 H   0  0  0  0  0  0  0  0  0  0  0  0
   -4.2204   -2.8709   16.7652 H   0  0  0  0  0  0  0  0  0  0  0  0
   -4.6669   -1.1838   16.3398 H   0  0  0  0  0  0  0  0  0  0  0  0
   -6.6607   -2.6153   16.9118 H   0  0  0  0  0  0  0  0  0  0  0  0
   -6.7255   -1.9613   15.2400 H   0  0  0  0  0  0  0  0  0  0  0  0
   -2.2029   -3.6602   16.2464 H   0  0  0  0  0  0  0  0  0  0  0  0
    0.1953   -3.2056   16.4963 H   0  0  0  0  0  0  0  0  0  0  0  0
    1.2616    0.3283   13.3324 H   0  0  0  0  0  0  0  0  0  0  0  0
    5.1537    1.9347   13.2514 H   0  0  0  0  0  0  0  0  0  0  0  0
    6.8404    0.8712   15.3031 H   0  0  0  0  0  0  0  0  0  0  0  0
    6.2521   -0.7606   17.3472 H   0  0  0  0  0  0  0  0  0  0  0  0
    4.5869    2.3636   11.2421 H   0  0  0  0  0  0  0  0  0  0  0  0
    3.8596    3.8175    9.3833 H   0  0  0  0  0  0  0  0  0  0  0  0
    1.3619    5.0985    8.2410 H   0  0  0  0  0  0  0  0  0  0  0  0
   -1.0064    5.0708    9.0529 H   0  0  0  0  0  0  0  0  0  0  0  0
    0.5648    2.2163   12.8091 H   0  0  0  0  0  0  0  0  0  0  0  0
   -0.0910   -0.0304   13.6148 H   0  0  0  0  0  0  0  0  0  0  0  0
   -2.5192   -0.4925   13.3743 H   0  0  0  0  0  0  0  0  0  0  0  0
  1  2  1  0  0  0  0
  1  6  1  0  0  0  0
  2  3  1  0  0  0  0
  3  4  1  0  0  0  0
  3  7  1  0  0  0  0
  4  5  1  0  0  0  0
  5  6  1  0  0  0  0
  7  8  2  0  0  0  0
  7 31  1  0  0  0  0
  8  9  1  0  0  0  0
  9 10  2  0  0  0  0
 10 11  1  0  0  0  0
 10 30  1  0  0  0  0
 11 12  2  0  0  0  0
 12 13  1  0  0  0  0
 12 20  1  0  0  0  0
 13 14  1  0  0  0  0
 14 15  2  0  0  0  0
 14 21  1  0  0  0  0
 15 16  1  0  0  0  0
 16 17  1  0  0  0  0
 16 20  1  0  0  0  0
 17 18  2  0  0  0  0
 18 19  1  0  0  0  0
 19 20  2  0  0  0  0
 21 22  1  0  0  0  0
 21 29  2  0  0  0  0
 22 23  2  0  0  0  0
 23 24  1  0  0  0  0
 24 25  2  0  0  0  0
 24 28  1  0  0  0  0
 25 26  1  0  0  0  0
 26 27  1  0  0  0  0
 27 28  2  0  0  0  0
 28 29  1  0  0  0  0
 30 31  2  0  0  0  0
  1 32  1  0  0  0  0
  1 33  1  0  0  0  0
  2 34  1  0  0  0  0
  2 35  1  0  0  0  0
  3 36  1  0  0  0  0
  4 37  1  0  0  0  0
  4 38  1  0  0  0  0
  5 39  1  0  0  0  0
  5 40  1  0  0  0  0
  8 41  1  0  0  0  0
  9 42  1  0  0  0  0
 13 43  1  0  0  0  0
 15 44  1  0  0  0  0
 17 45  1  0  0  0  0
 18 46  1  0  0  0  0
 22 47  1  0  0  0  0
 23 48  1  0  0  0  0
 25 49  1  0  0  0  0
 26 50  1  0  0  0  0
 29 51  1  0  0  0  0
 30 52  1  0  0  0  0
 31 53  1  0  0  0  0
M  END
> <IC50[nM]>
3.8

$$$$
CHEMBL3265034
  -OEChem-05192314333D
 Structure written by MMmdl.
 53 58  0     0  0  0  0  0  0999 V2000
   -5.7484   -4.1352   14.0916 C   0  0  0  0  0  0  0  0  0  0  0  0
   -4.2467   -3.7965   14.1043 C   0  0  0  0  0  0  0  0  0  0  0  0
   -4.0046   -2.3867   14.6667 C   0  0  0  0  0  0  0  0  0  0  0  0
   -4.7211   -2.2350   16.0203 C   0  0  0  0  0  0  0  0  0  0  0  0
   -6.1989   -2.6529   15.9141 C   0  0  0  0  0  0  0  0  0  0  0  0
   -6.2949   -3.9790   15.3990 O   0  0  0  0  0  0  0  0  0  0  0  0
   -2.5163   -2.1019   14.8026 C   0  0  0  0  0  0  0  0  0  0  0  0
   -1.7444   -2.8650   15.6773 C   0  0  0  0  0  0  0  0  0  0  0  0
   -0.3947   -2.6068   15.8182 C   0  0  0  0  0  0  0  0  0  0  0  0
    0.2168   -1.5789   15.0929 C   0  0  0  0  0  0  0  0  0  0  0  0
    1.5959   -1.3413   15.3408 N   0  0  0  0  0  0  0  0  0  0  0  0
    2.5346   -0.4433   14.7633 C   0  0  0  0  0  0  0  0  0  0  0  0
    2.1825    0.3683   13.7202 N   0  0  0  0  0  0  0  0  0  0  0  0
    3.1144    1.2372   13.2163 C   0  0  0  0  0  0  0  0  0  0  0  0
    4.4190    1.2837   13.7018 C   0  0  0  0  0  0  0  0  0  0  0  0
    4.7465    0.4877   14.7594 N   0  0  0  0  0  0  0  0  0  0  0  0
    5.8977    0.3771   15.4862 C   0  0  0  0  0  0  0  0  0  0  0  0
    5.5879   -0.5237   16.5292 C   0  0  0  0  0  0  0  0  0  0  0  0
    4.3754   -1.0416   16.3746 N   0  0  0  0  0  0  0  0  0  0  0  0
    3.8361   -0.3925   15.3266 C   0  0  0  0  0  0  0  0  0  0  0  0
    2.6384    2.1617   12.1197 C   0  0  0  0  0  0  0  0  0  0  0  0
    3.5461    2.6405   11.1618 C   0  0  0  0  0  0  0  0  0  0  0  0
    3.1445    3.4623   10.1105 C   0  0  0  0  0  0  0  0  0  0  0  0
    1.7985    3.8158   10.0184 C   0  0  0  0  0  0  0  0  0  0  0  0
    0.9907    4.5934    9.1205 C   0  0  0  0  0  0  0  0  0  0  0  0
   -0.2502    4.6054    9.5128 N   0  0  0  0  0  0  0  0  0  0  0  0
   -0.3377    3.8946   10.6262 N   0  0  0  0  0  0  0  0  0  0  0  0
    0.8856    3.3616   10.9945 C   0  0  0  0  0  0  0  0  0  0  0  0
    1.2735    2.5429   12.0624 C   0  0  0  0  0  0  0  0  0  0  0  0
   -0.5534   -0.8155   14.1947 C   0  0  0  0  0  0  0  0  0  0  0  0
   -1.9224   -1.0793   14.0569 C   0  0  0  0  0  0  0  0  0  0  0  0
   -6.2683   -3.4596   13.3964 H   0  0  0  0  0  0  0  0  0  0  0  0
   -5.8843   -5.1758   13.7620 H   0  0  0  0  0  0  0  0  0  0  0  0
   -3.7179   -4.5295   14.7312 H   0  0  0  0  0  0  0  0  0  0  0  0
   -3.8583   -3.8453   13.0763 H   0  0  0  0  0  0  0  0  0  0  0  0
   -4.4360   -1.6572   13.9654 H   0  0  0  0  0  0  0  0  0  0  0  0
   -4.2204   -2.8709   16.7652 H   0  0  0  0  0  0  0  0  0  0  0  0
   -4.6669   -1.1838   16.3398 H   0  0  0  0  0  0  0  0  0  0  0  0
   -6.6607   -2.6153   16.9118 H   0  0  0  0  0  0  0  0  0  0  0  0
   -6.7255   -1.9613   15.2400 H   0  0  0  0  0  0  0  0  0  0  0  0
   -2.2029   -3.6602   16.2464 H   0  0  0  0  0  0  0  0  0  0  0  0
    0.1953   -3.2056   16.4963 H   0  0  0  0  0  0  0  0  0  0  0  0
    1.9808   -1.9178   16.0615 H   0  0  0  0  0  0  0  0  0  0  0  0
    5.1537    1.9347   13.2514 H   0  0  0  0  0  0  0  0  0  0  0  0
    6.8404    0.8712   15.3031 H   0  0  0  0  0  0  0  0  0  0  0  0
    6.2521   -0.7606   17.3472 H   0  0  0  0  0  0  0  0  0  0  0  0
    4.5869    2.3636   11.2421 H   0  0  0  0  0  0  0  0  0  0  0  0
    3.8596    3.8175    9.3833 H   0  0  0  0  0  0  0  0  0  0  0  0
    1.3712    5.6252    9.0938 H   0  0  0  0  0  0  0  0  0  0  0  0
    1.0469    4.1557    8.1129 H   0  0  0  0  0  0  0  0  0  0  0  0
    0.5648    2.2163   12.8091 H   0  0  0  0  0  0  0  0  0  0  0  0
   -0.0910   -0.0304   13.6148 H   0  0  0  0  0  0  0  0  0  0  0  0
   -2.5192   -0.4925   13.3743 H   0  0  0  0  0  0  0  0  0  0  0  0
  1  2  1  0  0  0  0
  1  6  1  0  0  0  0
  2  3  1  0  0  0  0
  3  4  1  0  0  0  0
  3  7  1  0  0  0  0
  4  5  1  0  0  0  0
  5  6  1  0  0  0  0
  7  8  2  0  0  0  0
  7 31  1  0  0  0  0
  8  9  1  0  0  0  0
  9 10  2  0  0  0  0
 10 11  1  0  0  0  0
 10 30  1  0  0  0  0
 11 12  1  0  0  0  0
 12 13  2  0  0  0  0
 12 20  1  0  0  0  0
 13 14  1  0  0  0  0
 14 15  2  0  0  0  0
 14 21  1  0  0  0  0
 15 16  1  0  0  0  0
 16 17  1  0  0  0  0
 16 20  1  0  0  0  0
 17 18  2  0  0  0  0
 18 19  1  0  0  0  0
 19 20  2  0  0  0  0
 21 22  2  0  0  0  0
 21 29  1  0  0  0  0
 22 23  1  0  0  0  0
 23 24  2  0  0  0  0
 24 25  1  0  0  0  0
 24 28  1  0  0  0  0
 25 26  1  0  0  0  0
 26 27  2  0  0  0  0
 27 28  1  0  0  0  0
 28 29  2  0  0  0  0
 30 31  2  0  0  0  0
  1 32  1  0  0  0  0
  1 33  1  0  0  0  0
  2 34  1  0  0  0  0
  2 35  1  0  0  0  0
  3 36  1  0  0  0  0
  4 37  1  0  0  0  0
  4 38  1  0  0  0  0
  5 39  1  0  0  0  0
  5 40  1  0  0  0  0
  8 41  1  0  0  0  0
  9 42  1  0  0  0  0
 11 43  1  0  0  0  0
 15 44  1  0  0  0  0
 17 45  1  0  0  0  0
 18 46  1  0  0  0  0
 22 47  1  0  0  0  0
 23 48  1  0  0  0  0
 25 49  1  0  0  0  0
 25 50  1  0  0  0  0
 29 51  1  0  0  0  0
 30 52  1  0  0  0  0
 31 53  1  0  0  0  0
M  END
> <IC50[nM]>
3.8

$$$$
CHEMBL3265034
  -OEChem-05192314333D
 Structure written by MMmdl.
 53 58  0     0  0  0  0  0  0999 V2000
   -5.7484   -4.1352   14.0916 C   0  0  0  0  0  0  0  0  0  0  0  0
   -4.2467   -3.7965   14.1043 C   0  0  0  0  0  0  0  0  0  0  0  0
   -4.0046   -2.3867   14.6667 C   0  0  0  0  0  0  0  0  0  0  0  0
   -4.7211   -2.2350   16.0203 C   0  0  0  0  0  0  0  0  0  0  0  0
   -6.1989   -2.6529   15.9141 C   0  0  0  0  0  0  0  0  0  0  0  0
   -6.2949   -3.9790   15.3990 O   0  0  0  0  0  0  0  0  0  0  0  0
   -2.5163   -2.1019   14.8026 C   0  0  0  0  0  0  0  0  0  0  0  0
   -1.7444   -2.8650   15.6773 C   0  0  0  0  0  0  0  0  0  0  0  0
   -0.3947   -2.6068   15.8182 C   0  0  0  0  0  0  0  0  0  0  0  0
    0.2168   -1.5789   15.0929 C   0  0  0  0  0  0  0  0  0  0  0  0
    1.5959   -1.3413   15.3408 N   0  0  0  0  0  0  0  0  0  0  0  0
    2.5346   -0.4433   14.7633 C   0  0  0  0  0  0  0  0  0  0  0  0
    2.1825    0.3683   13.7202 N   0  0  0  0  0  0  0  0  0  0  0  0
    3.1144    1.2372   13.2163 C   0  0  0  0  0  0  0  0  0  0  0  0
    4.4190    1.2837   13.7018 C   0  0  0  0  0  0  0  0  0  0  0  0
    4.7465    0.4877   14.7594 N   0  0  0  0  0  0  0  0  0  0  0  0
    5.8977    0.3771   15.4862 C   0  0  0  0  0  0  0  0  0  0  0  0
    5.5879   -0.5237   16.5292 C   0  0  0  0  0  0  0  0  0  0  0  0
    4.3754   -1.0416   16.3746 N   0  0  0  0  0  0  0  0  0  0  0  0
    3.8361   -0.3925   15.3266 C   0  0  0  0  0  0  0  0  0  0  0  0
    2.6384    2.1617   12.1197 C   0  0  0  0  0  0  0  0  0  0  0  0
    3.5461    2.6405   11.1618 C   0  0  0  0  0  0  0  0  0  0  0  0
    3.1445    3.4623   10.1105 C   0  0  0  0  0  0  0  0  0  0  0  0
    1.7985    3.8158   10.0184 C   0  0  0  0  0  0  0  0  0  0  0  0
    0.9907    4.5934    9.1205 C   0  0  0  0  0  0  0  0  0  0  0  0
   -0.2502    4.6054    9.5128 N   0  0  0  0  0  0  0  0  0  0  0  0
   -0.3377    3.8946   10.6262 N   0  0  0  0  0  0  0  0  0  0  0  0
    0.8856    3.3616   10.9945 C   0  0  0  0  0  0  0  0  0  0  0  0
    1.2735    2.5429   12.0624 C   0  0  0  0  0  0  0  0  0  0  0  0
   -0.5534   -0.8155   14.1947 C   0  0  0  0  0  0  0  0  0  0  0  0
   -1.9224   -1.0793   14.0569 C   0  0  0  0  0  0  0  0  0  0  0  0
   -6.2683   -3.4596   13.3964 H   0  0  0  0  0  0  0  0  0  0  0  0
   -5.8843   -5.1758   13.7620 H   0  0  0  0  0  0  0  0  0  0  0  0
   -3.7179   -4.5295   14.7312 H   0  0  0  0  0  0  0  0  0  0  0  0
   -3.8583   -3.8453   13.0763 H   0  0  0  0  0  0  0  0  0  0  0  0
   -4.4360   -1.6572   13.9654 H   0  0  0  0  0  0  0  0  0  0  0  0
   -4.2204   -2.8709   16.7652 H   0  0  0  0  0  0  0  0  0  0  0  0
   -4.6669   -1.1838   16.3398 H   0  0  0  0  0  0  0  0  0  0  0  0
   -6.6607   -2.6153   16.9118 H   0  0  0  0  0  0  0  0  0  0  0  0
   -6.7255   -1.9613   15.2400 H   0  0  0  0  0  0  0  0  0  0  0  0
   -2.2029   -3.6602   16.2464 H   0  0  0  0  0  0  0  0  0  0  0  0
    0.1953   -3.2056   16.4963 H   0  0  0  0  0  0  0  0  0  0  0  0
    1.2616    0.3283   13.3324 H   0  0  0  0  0  0  0  0  0  0  0  0
    5.1537    1.9347   13.2514 H   0  0  0  0  0  0  0  0  0  0  0  0
    6.8404    0.8712   15.3031 H   0  0  0  0  0  0  0  0  0  0  0  0
    6.2521   -0.7606   17.3472 H   0  0  0  0  0  0  0  0  0  0  0  0
    4.5869    2.3636   11.2421 H   0  0  0  0  0  0  0  0  0  0  0  0
    3.8596    3.8175    9.3833 H   0  0  0  0  0  0  0  0  0  0  0  0
    1.3712    5.6252    9.0938 H   0  0  0  0  0  0  0  0  0  0  0  0
    1.0469    4.1557    8.1129 H   0  0  0  0  0  0  0  0  0  0  0  0
    0.5648    2.2163   12.8091 H   0  0  0  0  0  0  0  0  0  0  0  0
   -0.0910   -0.0304   13.6148 H   0  0  0  0  0  0  0  0  0  0  0  0
   -2.5192   -0.4925   13.3743 H   0  0  0  0  0  0  0  0  0  0  0  0
  1  2  1  0  0  0  0
  1  6  1  0  0  0  0
  2  3  1  0  0  0  0
  3  4  1  0  0  0  0
  3  7  1  0  0  0  0
  4  5  1  0  0  0  0
  5  6  1  0  0  0  0
  7  8  2  0  0  0  0
  7 31  1  0  0  0  0
  8  9  1  0  0  0  0
  9 10  2  0  0  0  0
 10 11  1  0  0  0  0
 10 30  1  0  0  0  0
 11 12  2  0  0  0  0
 12 13  1  0  0  0  0
 12 20  1  0  0  0  0
 13 14  1  0  0  0  0
 14 15  2  0  0  0  0
 14 21  1  0  0  0  0
 15 16  1  0  0  0  0
 16 17  1  0  0  0  0
 16 20  1  0  0  0  0
 17 18  2  0  0  0  0
 18 19  1  0  0  0  0
 19 20  2  0  0  0  0
 21 22  2  0  0  0  0
 21 29  1  0  0  0  0
 22 23  1  0  0  0  0
 23 24  2  0  0  0  0
 24 25  1  0  0  0  0
 24 28  1  0  0  0  0
 25 26  1  0  0  0  0
 26 27  2  0  0  0  0
 27 28  1  0  0  0  0
 28 29  2  0  0  0  0
 30 31  2  0  0  0  0
  1 32  1  0  0  0  0
  1 33  1  0  0  0  0
  2 34  1  0  0  0  0
  2 35  1  0  0  0  0
  3 36  1  0  0  0  0
  4 37  1  0  0  0  0
  4 38  1  0  0  0  0
  5 39  1  0  0  0  0
  5 40  1  0  0  0  0
  8 41  1  0  0  0  0
  9 42  1  0  0  0  0
 13 43  1  0  0  0  0
 15 44  1  0  0  0  0
 17 45  1  0  0  0  0
 18 46  1  0  0  0  0
 22 47  1  0  0  0  0
 23 48  1  0  0  0  0
 25 49  1  0  0  0  0
 25 50  1  0  0  0  0
 29 51  1  0  0  0  0
 30 52  1  0  0  0  0
 31 53  1  0  0  0  0
M  END
> <IC50[nM]>
3.8

$$$$
CHEMBL3265034
  -OEChem-05192314333D
 Structure written by MMmdl.
 53 58  0     0  0  0  0  0  0999 V2000
   -5.7484   -4.1352   14.0916 C   0  0  0  0  0  0  0  0  0  0  0  0
   -4.2467   -3.7965   14.1043 C   0  0  0  0  0  0  0  0  0  0  0  0
   -4.0046   -2.3867   14.6667 C   0  0  0  0  0  0  0  0  0  0  0  0
   -4.7211   -2.2350   16.0203 C   0  0  0  0  0  0  0  0  0  0  0  0
   -6.1989   -2.6529   15.9141 C   0  0  0  0  0  0  0  0  0  0  0  0
   -6.2949   -3.9790   15.3990 O   0  0  0  0  0  0  0  0  0  0  0  0
   -2.5163   -2.1019   14.8026 C   0  0  0  0  0  0  0  0  0  0  0  0
   -1.7444   -2.8650   15.6773 C   0  0  0  0  0  0  0  0  0  0  0  0
   -0.3947   -2.6068   15.8182 C   0  0  0  0  0  0  0  0  0  0  0  0
    0.2168   -1.5789   15.0929 C   0  0  0  0  0  0  0  0  0  0  0  0
    1.5959   -1.3413   15.3408 N   0  0  0  0  0  0  0  0  0  0  0  0
    2.5346   -0.4433   14.7633 C   0  0  0  0  0  0  0  0  0  0  0  0
    2.1825    0.3683   13.7202 N   0  0  0  0  0  0  0  0  0  0  0  0
    3.1144    1.2372   13.2163 C   0  0  0  0  0  0  0  0  0  0  0  0
    4.4190    1.2837   13.7018 C   0  0  0  0  0  0  0  0  0  0  0  0
    4.7465    0.4877   14.7594 N   0  0  0  0  0  0  0  0  0  0  0  0
    5.8977    0.3771   15.4862 C   0  0  0  0  0  0  0  0  0  0  0  0
    5.5879   -0.5237   16.5292 C   0  0  0  0  0  0  0  0  0  0  0  0
    4.3754   -1.0416   16.3746 N   0  0  0  0  0  0  0  0  0  0  0  0
    3.8361   -0.3925   15.3266 C   0  0  0  0  0  0  0  0  0  0  0  0
    2.6384    2.1617   12.1197 C   0  0  0  0  0  0  0  0  0  0  0  0
    3.5461    2.6405   11.1618 C   0  0  0  0  0  0  0  0  0  0  0  0
    3.1445    3.4623   10.1105 C   0  0  0  0  0  0  0  0  0  0  0  0
    1.7985    3.8158   10.0184 C   0  0  0  0  0  0  0  0  0  0  0  0
    0.9907    4.5934    9.1205 C   0  0  0  0  0  0  0  0  0  0  0  0
   -0.2502    4.6054    9.5128 N   0  0  0  0  0  0  0  0  0  0  0  0
   -0.3377    3.8946   10.6262 N   0  0  0  0  0  0  0  0  0  0  0  0
    0.8856    3.3616   10.9945 C   0  0  0  0  0  0  0  0  0  0  0  0
    1.2735    2.5429   12.0624 C   0  0  0  0  0  0  0  0  0  0  0  0
   -0.5534   -0.8155   14.1947 C   0  0  0  0  0  0  0  0  0  0  0  0
   -1.9224   -1.0793   14.0569 C   0  0  0  0  0  0  0  0  0  0  0  0
   -6.2683   -3.4596   13.3964 H   0  0  0  0  0  0  0  0  0  0  0  0
   -5.8843   -5.1758   13.7620 H   0  0  0  0  0  0  0  0  0  0  0  0
   -3.7179   -4.5295   14.7312 H   0  0  0  0  0  0  0  0  0  0  0  0
   -3.8583   -3.8453   13.0763 H   0  0  0  0  0  0  0  0  0  0  0  0
   -4.4360   -1.6572   13.9654 H   0  0  0  0  0  0  0  0  0  0  0  0
   -4.2204   -2.8709   16.7652 H   0  0  0  0  0  0  0  0  0  0  0  0
   -4.6669   -1.1838   16.3398 H   0  0  0  0  0  0  0  0  0  0  0  0
   -6.6607   -2.6153   16.9118 H   0  0  0  0  0  0  0  0  0  0  0  0
   -6.7255   -1.9613   15.2400 H   0  0  0  0  0  0  0  0  0  0  0  0
   -2.2029   -3.6602   16.2464 H   0  0  0  0  0  0  0  0  0  0  0  0
    0.1953   -3.2056   16.4963 H   0  0  0  0  0  0  0  0  0  0  0  0
    5.0853    1.0101   12.8704 H   0  0  0  0  0  0  0  0  0  0  0  0
    4.6168    2.3229   14.0035 H   0  0  0  0  0  0  0  0  0  0  0  0
    6.8404    0.8712   15.3031 H   0  0  0  0  0  0  0  0  0  0  0  0
    6.2521   -0.7606   17.3472 H   0  0  0  0  0  0  0  0  0  0  0  0
    4.5869    2.3636   11.2421 H   0  0  0  0  0  0  0  0  0  0  0  0
    3.8596    3.8175    9.3833 H   0  0  0  0  0  0  0  0  0  0  0  0
    1.3619    5.0985    8.2410 H   0  0  0  0  0  0  0  0  0  0  0  0
   -1.1853    3.7591   11.1393 H   0  0  0  0  0  0  0  0  0  0  0  0
    0.5648    2.2163   12.8091 H   0  0  0  0  0  0  0  0  0  0  0  0
   -0.0910   -0.0304   13.6148 H   0  0  0  0  0  0  0  0  0  0  0  0
   -2.5192   -0.4925   13.3743 H   0  0  0  0  0  0  0  0  0  0  0  0
  1  2  1  0  0  0  0
  1  6  1  0  0  0  0
  2  3  1  0  0  0  0
  3  4  1  0  0  0  0
  3  7  1  0  0  0  0
  4  5  1  0  0  0  0
  5  6  1  0  0  0  0
  7  8  2  0  0  0  0
  7 31  1  0  0  0  0
  8  9  1  0  0  0  0
  9 10  2  0  0  0  0
 10 11  1  0  0  0  0
 10 30  1  0  0  0  0
 11 12  2  0  0  0  0
 12 13  1  0  0  0  0
 12 20  1  0  0  0  0
 13 14  2  0  0  0  0
 14 15  1  0  0  0  0
 14 21  1  0  0  0  0
 15 16  1  0  0  0  0
 16 17  1  0  0  0  0
 16 20  1  0  0  0  0
 17 18  2  0  0  0  0
 18 19  1  0  0  0  0
 19 20  2  0  0  0  0
 21 22  2  0  0  0  0
 21 29  1  0  0  0  0
 22 23  1  0  0  0  0
 23 24  2  0  0  0  0
 24 25  1  0  0  0  0
 24 28  1  0  0  0  0
 25 26  2  0  0  0  0
 26 27  1  0  0  0  0
 27 28  1  0  0  0  0
 28 29  2  0  0  0  0
 30 31  2  0  0  0  0
  1 32  1  0  0  0  0
  1 33  1  0  0  0  0
  2 34  1  0  0  0  0
  2 35  1  0  0  0  0
  3 36  1  0  0  0  0
  4 37  1  0  0  0  0
  4 38  1  0  0  0  0
  5 39  1  0  0  0  0
  5 40  1  0  0  0  0
  8 41  1  0  0  0  0
  9 42  1  0  0  0  0
 15 43  1  0  0  0  0
 15 44  1  0  0  0  0
 17 45  1  0  0  0  0
 18 46  1  0  0  0  0
 22 47  1  0  0  0  0
 23 48  1  0  0  0  0
 25 49  1  0  0  0  0
 27 50  1  0  0  0  0
 29 51  1  0  0  0  0
 30 52  1  0  0  0  0
 31 53  1  0  0  0  0
M  END
> <IC50[nM]>
3.8

$$$$
CHEMBL3265034
  -OEChem-05192314333D
 Structure written by MMmdl.
 53 58  0     0  0  0  0  0  0999 V2000
   -5.7484   -4.1352   14.0916 C   0  0  0  0  0  0  0  0  0  0  0  0
   -4.2467   -3.7965   14.1043 C   0  0  0  0  0  0  0  0  0  0  0  0
   -4.0046   -2.3867   14.6667 C   0  0  0  0  0  0  0  0  0  0  0  0
   -4.7211   -2.2350   16.0203 C   0  0  0  0  0  0  0  0  0  0  0  0
   -6.1989   -2.6529   15.9141 C   0  0  0  0  0  0  0  0  0  0  0  0
   -6.2949   -3.9790   15.3990 O   0  0  0  0  0  0  0  0  0  0  0  0
   -2.5163   -2.1019   14.8026 C   0  0  0  0  0  0  0  0  0  0  0  0
   -1.7444   -2.8650   15.6773 C   0  0  0  0  0  0  0  0  0  0  0  0
   -0.3947   -2.6068   15.8182 C   0  0  0  0  0  0  0  0  0  0  0  0
    0.2168   -1.5789   15.0929 C   0  0  0  0  0  0  0  0  0  0  0  0
    1.5959   -1.3413   15.3408 N   0  0  0  0  0  0  0  0  0  0  0  0
    2.5346   -0.4433   14.7633 C   0  0  0  0  0  0  0  0  0  0  0  0
    2.1825    0.3683   13.7202 N   0  0  0  0  0  0  0  0  0  0  0  0
    3.1144    1.2372   13.2163 C   0  0  0  0  0  0  0  0  0  0  0  0
    4.4190    1.2837   13.7018 C   0  0  0  0  0  0  0  0  0  0  0  0
    4.7465    0.4877   14.7594 N   0  0  0  0  0  0  0  0  0  0  0  0
    5.8977    0.3771   15.4862 C   0  0  0  0  0  0  0  0  0  0  0  0
    5.5879   -0.5237   16.5292 C   0  0  0  0  0  0  0  0  0  0  0  0
    4.3754   -1.0416   16.3746 N   0  0  0  0  0  0  0  0  0  0  0  0
    3.8361   -0.3925   15.3266 C   0  0  0  0  0  0  0  0  0  0  0  0
    2.6384    2.1617   12.1197 C   0  0  0  0  0  0  0  0  0  0  0  0
    3.5461    2.6405   11.1618 C   0  0  0  0  0  0  0  0  0  0  0  0
    3.1445    3.4623   10.1105 C   0  0  0  0  0  0  0  0  0  0  0  0
    1.7985    3.8158   10.0184 C   0  0  0  0  0  0  0  0  0  0  0  0
    0.9907    4.5934    9.1205 C   0  0  0  0  0  0  0  0  0  0  0  0
   -0.2502    4.6054    9.5128 N   0  0  0  0  0  0  0  0  0  0  0  0
   -0.3377    3.8946   10.6262 N   0  0  0  0  0  0  0  0  0  0  0  0
    0.8856    3.3616   10.9945 C   0  0  0  0  0  0  0  0  0  0  0  0
    1.2735    2.5429   12.0624 C   0  0  0  0  0  0  0  0  0  0  0  0
   -0.5534   -0.8155   14.1947 C   0  0  0  0  0  0  0  0  0  0  0  0
   -1.9224   -1.0793   14.0569 C   0  0  0  0  0  0  0  0  0  0  0  0
   -6.2683   -3.4596   13.3964 H   0  0  0  0  0  0  0  0  0  0  0  0
   -5.8843   -5.1758   13.7620 H   0  0  0  0  0  0  0  0  0  0  0  0
   -3.7179   -4.5295   14.7312 H   0  0  0  0  0  0  0  0  0  0  0  0
   -3.8583   -3.8453   13.0763 H   0  0  0  0  0  0  0  0  0  0  0  0
   -4.4360   -1.6572   13.9654 H   0  0  0  0  0  0  0  0  0  0  0  0
   -4.2204   -2.8709   16.7652 H   0  0  0  0  0  0  0  0  0  0  0  0
   -4.6669   -1.1838   16.3398 H   0  0  0  0  0  0  0  0  0  0  0  0
   -6.6607   -2.6153   16.9118 H   0  0  0  0  0  0  0  0  0  0  0  0
   -6.7255   -1.9613   15.2400 H   0  0  0  0  0  0  0  0  0  0  0  0
   -2.2029   -3.6602   16.2464 H   0  0  0  0  0  0  0  0  0  0  0  0
    0.1953   -3.2056   16.4963 H   0  0  0  0  0  0  0  0  0  0  0  0
    5.0853    1.0101   12.8704 H   0  0  0  0  0  0  0  0  0  0  0  0
    4.6168    2.3229   14.0035 H   0  0  0  0  0  0  0  0  0  0  0  0
    6.8404    0.8712   15.3031 H   0  0  0  0  0  0  0  0  0  0  0  0
    6.2521   -0.7606   17.3472 H   0  0  0  0  0  0  0  0  0  0  0  0
    4.5869    2.3636   11.2421 H   0  0  0  0  0  0  0  0  0  0  0  0
    3.8596    3.8175    9.3833 H   0  0  0  0  0  0  0  0  0  0  0  0
    1.3619    5.0985    8.2410 H   0  0  0  0  0  0  0  0  0  0  0  0
   -1.0064    5.0708    9.0529 H   0  0  0  0  0  0  0  0  0  0  0  0
    0.5648    2.2163   12.8091 H   0  0  0  0  0  0  0  0  0  0  0  0
   -0.0910   -0.0304   13.6148 H   0  0  0  0  0  0  0  0  0  0  0  0
   -2.5192   -0.4925   13.3743 H   0  0  0  0  0  0  0  0  0  0  0  0
  1  2  1  0  0  0  0
  1  6  1  0  0  0  0
  2  3  1  0  0  0  0
  3  4  1  0  0  0  0
  3  7  1  0  0  0  0
  4  5  1  0  0  0  0
  5  6  1  0  0  0  0
  7  8  2  0  0  0  0
  7 31  1  0  0  0  0
  8  9  1  0  0  0  0
  9 10  2  0  0  0  0
 10 11  1  0  0  0  0
 10 30  1  0  0  0  0
 11 12  2  0  0  0  0
 12 13  1  0  0  0  0
 12 20  1  0  0  0  0
 13 14  2  0  0  0  0
 14 15  1  0  0  0  0
 14 21  1  0  0  0  0
 15 16  1  0  0  0  0
 16 17  1  0  0  0  0
 16 20  1  0  0  0  0
 17 18  2  0  0  0  0
 18 19  1  0  0  0  0
 19 20  2  0  0  0  0
 21 22  1  0  0  0  0
 21 29  2  0  0  0  0
 22 23  2  0  0  0  0
 23 24  1  0  0  0  0
 24 25  2  0  0  0  0
 24 28  1  0  0  0  0
 25 26  1  0  0  0  0
 26 27  1  0  0  0  0
 27 28  2  0  0  0  0
 28 29  1  0  0  0  0
 30 31  2  0  0  0  0
  1 32  1  0  0  0  0
  1 33  1  0  0  0  0
  2 34  1  0  0  0  0
  2 35  1  0  0  0  0
  3 36  1  0  0  0  0
  4 37  1  0  0  0  0
  4 38  1  0  0  0  0
  5 39  1  0  0  0  0
  5 40  1  0  0  0  0
  8 41  1  0  0  0  0
  9 42  1  0  0  0  0
 15 43  1  0  0  0  0
 15 44  1  0  0  0  0
 17 45  1  0  0  0  0
 18 46  1  0  0  0  0
 22 47  1  0  0  0  0
 23 48  1  0  0  0  0
 25 49  1  0  0  0  0
 26 50  1  0  0  0  0
 29 51  1  0  0  0  0
 30 52  1  0  0  0  0
 31 53  1  0  0  0  0
M  END
> <IC50[nM]>
3.8

$$$$
CHEMBL3265034
  -OEChem-05192314333D
 Structure written by MMmdl.
 53 58  0     0  0  0  0  0  0999 V2000
   -5.7484   -4.1352   14.0916 C   0  0  0  0  0  0  0  0  0  0  0  0
   -4.2467   -3.7965   14.1043 C   0  0  0  0  0  0  0  0  0  0  0  0
   -4.0046   -2.3867   14.6667 C   0  0  0  0  0  0  0  0  0  0  0  0
   -4.7211   -2.2350   16.0203 C   0  0  0  0  0  0  0  0  0  0  0  0
   -6.1989   -2.6529   15.9141 C   0  0  0  0  0  0  0  0  0  0  0  0
   -6.2949   -3.9790   15.3990 O   0  0  0  0  0  0  0  0  0  0  0  0
   -2.5163   -2.1019   14.8026 C   0  0  0  0  0  0  0  0  0  0  0  0
   -1.7444   -2.8650   15.6773 C   0  0  0  0  0  0  0  0  0  0  0  0
   -0.3947   -2.6068   15.8182 C   0  0  0  0  0  0  0  0  0  0  0  0
    0.2168   -1.5789   15.0929 C   0  0  0  0  0  0  0  0  0  0  0  0
    1.5959   -1.3413   15.3408 N   0  0  0  0  0  0  0  0  0  0  0  0
    2.5346   -0.4433   14.7633 C   0  0  0  0  0  0  0  0  0  0  0  0
    2.1825    0.3683   13.7202 N   0  0  0  0  0  0  0  0  0  0  0  0
    3.1144    1.2372   13.2163 C   0  0  0  0  0  0  0  0  0  0  0  0
    4.4190    1.2837   13.7018 C   0  0  0  0  0  0  0  0  0  0  0  0
    4.7465    0.4877   14.7594 N   0  0  0  0  0  0  0  0  0  0  0  0
    5.8977    0.3771   15.4862 C   0  0  0  0  0  0  0  0  0  0  0  0
    5.5879   -0.5237   16.5292 C   0  0  0  0  0  0  0  0  0  0  0  0
    4.3754   -1.0416   16.3746 N   0  0  0  0  0  0  0  0  0  0  0  0
    3.8361   -0.3925   15.3266 C   0  0  0  0  0  0  0  0  0  0  0  0
    2.6384    2.1617   12.1197 C   0  0  0  0  0  0  0  0  0  0  0  0
    3.5461    2.6405   11.1618 C   0  0  0  0  0  0  0  0  0  0  0  0
    3.1445    3.4623   10.1105 C   0  0  0  0  0  0  0  0  0  0  0  0
    1.7985    3.8158   10.0184 C   0  0  0  0  0  0  0  0  0  0  0  0
    0.9907    4.5934    9.1205 C   0  0  0  0  0  0  0  0  0  0  0  0
   -0.2502    4.6054    9.5128 N   0  0  0  0  0  0  0  0  0  0  0  0
   -0.3377    3.8946   10.6262 N   0  0  0  0  0  0  0  0  0  0  0  0
    0.8856    3.3616   10.9945 C   0  0  0  0  0  0  0  0  0  0  0  0
    1.2735    2.5429   12.0624 C   0  0  0  0  0  0  0  0  0  0  0  0
   -0.5534   -0.8155   14.1947 C   0  0  0  0  0  0  0  0  0  0  0  0
   -1.9224   -1.0793   14.0569 C   0  0  0  0  0  0  0  0  0  0  0  0
   -6.2683   -3.4596   13.3964 H   0  0  0  0  0  0  0  0  0  0  0  0
   -5.8843   -5.1758   13.7620 H   0  0  0  0  0  0  0  0  0  0  0  0
   -3.7179   -4.5295   14.7312 H   0  0  0  0  0  0  0  0  0  0  0  0
   -3.8583   -3.8453   13.0763 H   0  0  0  0  0  0  0  0  0  0  0  0
   -4.4360   -1.6572   13.9654 H   0  0  0  0  0  0  0  0  0  0  0  0
   -4.2204   -2.8709   16.7652 H   0  0  0  0  0  0  0  0  0  0  0  0
   -4.6669   -1.1838   16.3398 H   0  0  0  0  0  0  0  0  0  0  0  0
   -6.6607   -2.6153   16.9118 H   0  0  0  0  0  0  0  0  0  0  0  0
   -6.7255   -1.9613   15.2400 H   0  0  0  0  0  0  0  0  0  0  0  0
   -2.3053   -2.8158   13.9927 H   0  0  0  0  0  0  0  0  0  0  0  0
   -2.2029   -3.6602   16.2464 H   0  0  0  0  0  0  0  0  0  0  0  0
    0.1953   -3.2056   16.4963 H   0  0  0  0  0  0  0  0  0  0  0  0
    5.1537    1.9347   13.2514 H   0  0  0  0  0  0  0  0  0  0  0  0
    6.8404    0.8712   15.3031 H   0  0  0  0  0  0  0  0  0  0  0  0
    6.2521   -0.7606   17.3472 H   0  0  0  0  0  0  0  0  0  0  0  0
    4.5869    2.3636   11.2421 H   0  0  0  0  0  0  0  0  0  0  0  0
    3.8596    3.8175    9.3833 H   0  0  0  0  0  0  0  0  0  0  0  0
    1.3619    5.0985    8.2410 H   0  0  0  0  0  0  0  0  0  0  0  0
   -1.1853    3.7591   11.1393 H   0  0  0  0  0  0  0  0  0  0  0  0
    0.5648    2.2163   12.8091 H   0  0  0  0  0  0  0  0  0  0  0  0
   -0.0910   -0.0304   13.6148 H   0  0  0  0  0  0  0  0  0  0  0  0
   -2.5192   -0.4925   13.3743 H   0  0  0  0  0  0  0  0  0  0  0  0
  1  2  1  0  0  0  0
  1  6  1  0  0  0  0
  2  3  1  0  0  0  0
  3  4  1  0  0  0  0
  3  7  1  0  0  0  0
  4  5  1  0  0  0  0
  5  6  1  0  0  0  0
  7  8  1  0  0  0  0
  7 31  1  0  0  0  0
  8  9  2  0  0  0  0
  9 10  1  0  0  0  0
 10 11  2  0  0  0  0
 10 30  1  0  0  0  0
 11 12  1  0  0  0  0
 12 13  2  0  0  0  0
 12 20  1  0  0  0  0
 13 14  1  0  0  0  0
 14 15  2  0  0  0  0
 14 21  1  0  0  0  0
 15 16  1  0  0  0  0
 16 17  1  0  0  0  0
 16 20  1  0  0  0  0
 17 18  2  0  0  0  0
 18 19  1  0  0  0  0
 19 20  2  0  0  0  0
 21 22  2  0  0  0  0
 21 29  1  0  0  0  0
 22 23  1  0  0  0  0
 23 24  2  0  0  0  0
 24 25  1  0  0  0  0
 24 28  1  0  0  0  0
 25 26  2  0  0  0  0
 26 27  1  0  0  0  0
 27 28  1  0  0  0  0
 28 29  2  0  0  0  0
 30 31  2  0  0  0  0
  1 32  1  0  0  0  0
  1 33  1  0  0  0  0
  2 34  1  0  0  0  0
  2 35  1  0  0  0  0
  3 36  1  0  0  0  0
  4 37  1  0  0  0  0
  4 38  1  0  0  0  0
  5 39  1  0  0  0  0
  5 40  1  0  0  0  0
  7 41  1  0  0  0  0
  8 42  1  0  0  0  0
  9 43  1  0  0  0  0
 15 44  1  0  0  0  0
 17 45  1  0  0  0  0
 18 46  1  0  0  0  0
 22 47  1  0  0  0  0
 23 48  1  0  0  0  0
 25 49  1  0  0  0  0
 27 50  1  0  0  0  0
 29 51  1  0  0  0  0
 30 52  1  0  0  0  0
 31 53  1  0  0  0  0
M  END
> <IC50[nM]>
3.8

$$$$
CHEMBL3265034
  -OEChem-05192314333D
 Structure written by MMmdl.
 53 58  0     0  0  0  0  0  0999 V2000
   -5.7484   -4.1352   14.0916 C   0  0  0  0  0  0  0  0  0  0  0  0
   -4.2467   -3.7965   14.1043 C   0  0  0  0  0  0  0  0  0  0  0  0
   -4.0046   -2.3867   14.6667 C   0  0  0  0  0  0  0  0  0  0  0  0
   -4.7211   -2.2350   16.0203 C   0  0  0  0  0  0  0  0  0  0  0  0
   -6.1989   -2.6529   15.9141 C   0  0  0  0  0  0  0  0  0  0  0  0
   -6.2949   -3.9790   15.3990 O   0  0  0  0  0  0  0  0  0  0  0  0
   -2.5163   -2.1019   14.8026 C   0  0  0  0  0  0  0  0  0  0  0  0
   -1.7444   -2.8650   15.6773 C   0  0  0  0  0  0  0  0  0  0  0  0
   -0.3947   -2.6068   15.8182 C   0  0  0  0  0  0  0  0  0  0  0  0
    0.2168   -1.5789   15.0929 C   0  0  0  0  0  0  0  0  0  0  0  0
    1.5959   -1.3413   15.3408 N   0  0  0  0  0  0  0  0  0  0  0  0
    2.5346   -0.4433   14.7633 C   0  0  0  0  0  0  0  0  0  0  0  0
    2.1825    0.3683   13.7202 N   0  0  0  0  0  0  0  0  0  0  0  0
    3.1144    1.2372   13.2163 C   0  0  0  0  0  0  0  0  0  0  0  0
    4.4190    1.2837   13.7018 C   0  0  0  0  0  0  0  0  0  0  0  0
    4.7465    0.4877   14.7594 N   0  0  0  0  0  0  0  0  0  0  0  0
    5.8977    0.3771   15.4862 C   0  0  0  0  0  0  0  0  0  0  0  0
    5.5879   -0.5237   16.5292 C   0  0  0  0  0  0  0  0  0  0  0  0
    4.3754   -1.0416   16.3746 N   0  0  0  0  0  0  0  0  0  0  0  0
    3.8361   -0.3925   15.3266 C   0  0  0  0  0  0  0  0  0  0  0  0
    2.6384    2.1617   12.1197 C   0  0  0  0  0  0  0  0  0  0  0  0
    3.5461    2.6405   11.1618 C   0  0  0  0  0  0  0  0  0  0  0  0
    3.1445    3.4623   10.1105 C   0  0  0  0  0  0  0  0  0  0  0  0
    1.7985    3.8158   10.0184 C   0  0  0  0  0  0  0  0  0  0  0  0
    0.9907    4.5934    9.1205 C   0  0  0  0  0  0  0  0  0  0  0  0
   -0.2502    4.6054    9.5128 N   0  0  0  0  0  0  0  0  0  0  0  0
   -0.3377    3.8946   10.6262 N   0  0  0  0  0  0  0  0  0  0  0  0
    0.8856    3.3616   10.9945 C   0  0  0  0  0  0  0  0  0  0  0  0
    1.2735    2.5429   12.0624 C   0  0  0  0  0  0  0  0  0  0  0  0
   -0.5534   -0.8155   14.1947 C   0  0  0  0  0  0  0  0  0  0  0  0
   -1.9224   -1.0793   14.0569 C   0  0  0  0  0  0  0  0  0  0  0  0
   -6.2683   -3.4596   13.3964 H   0  0  0  0  0  0  0  0  0  0  0  0
   -5.8843   -5.1758   13.7620 H   0  0  0  0  0  0  0  0  0  0  0  0
   -3.7179   -4.5295   14.7312 H   0  0  0  0  0  0  0  0  0  0  0  0
   -3.8583   -3.8453   13.0763 H   0  0  0  0  0  0  0  0  0  0  0  0
   -4.4360   -1.6572   13.9654 H   0  0  0  0  0  0  0  0  0  0  0  0
   -4.2204   -2.8709   16.7652 H   0  0  0  0  0  0  0  0  0  0  0  0
   -4.6669   -1.1838   16.3398 H   0  0  0  0  0  0  0  0  0  0  0  0
   -6.6607   -2.6153   16.9118 H   0  0  0  0  0  0  0  0  0  0  0  0
   -6.7255   -1.9613   15.2400 H   0  0  0  0  0  0  0  0  0  0  0  0
   -2.3053   -2.8158   13.9927 H   0  0  0  0  0  0  0  0  0  0  0  0
   -2.2029   -3.6602   16.2464 H   0  0  0  0  0  0  0  0  0  0  0  0
    0.1953   -3.2056   16.4963 H   0  0  0  0  0  0  0  0  0  0  0  0
    5.1537    1.9347   13.2514 H   0  0  0  0  0  0  0  0  0  0  0  0
    6.8404    0.8712   15.3031 H   0  0  0  0  0  0  0  0  0  0  0  0
    6.2521   -0.7606   17.3472 H   0  0  0  0  0  0  0  0  0  0  0  0
    4.5869    2.3636   11.2421 H   0  0  0  0  0  0  0  0  0  0  0  0
    3.8596    3.8175    9.3833 H   0  0  0  0  0  0  0  0  0  0  0  0
    1.3619    5.0985    8.2410 H   0  0  0  0  0  0  0  0  0  0  0  0
   -1.0064    5.0708    9.0529 H   0  0  0  0  0  0  0  0  0  0  0  0
    0.5648    2.2163   12.8091 H   0  0  0  0  0  0  0  0  0  0  0  0
   -0.0910   -0.0304   13.6148 H   0  0  0  0  0  0  0  0  0  0  0  0
   -2.5192   -0.4925   13.3743 H   0  0  0  0  0  0  0  0  0  0  0  0
  1  2  1  0  0  0  0
  1  6  1  0  0  0  0
  2  3  1  0  0  0  0
  3  4  1  0  0  0  0
  3  7  1  0  0  0  0
  4  5  1  0  0  0  0
  5  6  1  0  0  0  0
  7  8  1  0  0  0  0
  7 31  1  0  0  0  0
  8  9  2  0  0  0  0
  9 10  1  0  0  0  0
 10 11  2  0  0  0  0
 10 30  1  0  0  0  0
 11 12  1  0  0  0  0
 12 13  2  0  0  0  0
 12 20  1  0  0  0  0
 13 14  1  0  0  0  0
 14 15  2  0  0  0  0
 14 21  1  0  0  0  0
 15 16  1  0  0  0  0
 16 17  1  0  0  0  0
 16 20  1  0  0  0  0
 17 18  2  0  0  0  0
 18 19  1  0  0  0  0
 19 20  2  0  0  0  0
 21 22  1  0  0  0  0
 21 29  2  0  0  0  0
 22 23  2  0  0  0  0
 23 24  1  0  0  0  0
 24 25  2  0  0  0  0
 24 28  1  0  0  0  0
 25 26  1  0  0  0  0
 26 27  1  0  0  0  0
 27 28  2  0  0  0  0
 28 29  1  0  0  0  0
 30 31  2  0  0  0  0
  1 32  1  0  0  0  0
  1 33  1  0  0  0  0
  2 34  1  0  0  0  0
  2 35  1  0  0  0  0
  3 36  1  0  0  0  0
  4 37  1  0  0  0  0
  4 38  1  0  0  0  0
  5 39  1  0  0  0  0
  5 40  1  0  0  0  0
  7 41  1  0  0  0  0
  8 42  1  0  0  0  0
  9 43  1  0  0  0  0
 15 44  1  0  0  0  0
 17 45  1  0  0  0  0
 18 46  1  0  0  0  0
 22 47  1  0  0  0  0
 23 48  1  0  0  0  0
 25 49  1  0  0  0  0
 26 50  1  0  0  0  0
 29 51  1  0  0  0  0
 30 52  1  0  0  0  0
 31 53  1  0  0  0  0
M  END
> <IC50[nM]>
3.8

$$$$
CHEMBL3265034
  -OEChem-05192314333D
 Structure written by MMmdl.
 53 58  0     0  0  0  0  0  0999 V2000
   -5.7484   -4.1352   14.0916 C   0  0  0  0  0  0  0  0  0  0  0  0
   -4.2467   -3.7965   14.1043 C   0  0  0  0  0  0  0  0  0  0  0  0
   -4.0046   -2.3867   14.6667 C   0  0  0  0  0  0  0  0  0  0  0  0
   -4.7211   -2.2350   16.0203 C   0  0  0  0  0  0  0  0  0  0  0  0
   -6.1989   -2.6529   15.9141 C   0  0  0  0  0  0  0  0  0  0  0  0
   -6.2949   -3.9790   15.3990 O   0  0  0  0  0  0  0  0  0  0  0  0
   -2.5163   -2.1019   14.8026 C   0  0  0  0  0  0  0  0  0  0  0  0
   -1.7444   -2.8650   15.6773 C   0  0  0  0  0  0  0  0  0  0  0  0
   -0.3947   -2.6068   15.8182 C   0  0  0  0  0  0  0  0  0  0  0  0
    0.2168   -1.5789   15.0929 C   0  0  0  0  0  0  0  0  0  0  0  0
    1.5959   -1.3413   15.3408 N   0  0  0  0  0  0  0  0  0  0  0  0
    2.5346   -0.4433   14.7633 C   0  0  0  0  0  0  0  0  0  0  0  0
    2.1825    0.3683   13.7202 N   0  0  0  0  0  0  0  0  0  0  0  0
    3.1144    1.2372   13.2163 C   0  0  0  0  0  0  0  0  0  0  0  0
    4.4190    1.2837   13.7018 C   0  0  0  0  0  0  0  0  0  0  0  0
    4.7465    0.4877   14.7594 N   0  0  0  0  0  0  0  0  0  0  0  0
    5.8977    0.3771   15.4862 C   0  0  0  0  0  0  0  0  0  0  0  0
    5.5879   -0.5237   16.5292 C   0  0  0  0  0  0  0  0  0  0  0  0
    4.3754   -1.0416   16.3746 N   0  0  0  0  0  0  0  0  0  0  0  0
    3.8361   -0.3925   15.3266 C   0  0  0  0  0  0  0  0  0  0  0  0
    2.6384    2.1617   12.1197 C   0  0  0  0  0  0  0  0  0  0  0  0
    3.5461    2.6405   11.1618 C   0  0  0  0  0  0  0  0  0  0  0  0
    3.1445    3.4623   10.1105 C   0  0  0  0  0  0  0  0  0  0  0  0
    1.7985    3.8158   10.0184 C   0  0  0  0  0  0  0  0  0  0  0  0
    0.9907    4.5934    9.1205 C   0  0  0  0  0  0  0  0  0  0  0  0
   -0.2502    4.6054    9.5128 N   0  0  0  0  0  0  0  0  0  0  0  0
   -0.3377    3.8946   10.6262 N   0  0  0  0  0  0  0  0  0  0  0  0
    0.8856    3.3616   10.9945 C   0  0  0  0  0  0  0  0  0  0  0  0
    1.2735    2.5429   12.0624 C   0  0  0  0  0  0  0  0  0  0  0  0
   -0.5534   -0.8155   14.1947 C   0  0  0  0  0  0  0  0  0  0  0  0
   -1.9224   -1.0793   14.0569 C   0  0  0  0  0  0  0  0  0  0  0  0
   -6.2683   -3.4596   13.3964 H   0  0  0  0  0  0  0  0  0  0  0  0
   -5.8843   -5.1758   13.7620 H   0  0  0  0  0  0  0  0  0  0  0  0
   -3.7179   -4.5295   14.7312 H   0  0  0  0  0  0  0  0  0  0  0  0
   -3.8583   -3.8453   13.0763 H   0  0  0  0  0  0  0  0  0  0  0  0
   -4.4360   -1.6572   13.9654 H   0  0  0  0  0  0  0  0  0  0  0  0
   -4.2204   -2.8709   16.7652 H   0  0  0  0  0  0  0  0  0  0  0  0
   -4.6669   -1.1838   16.3398 H   0  0  0  0  0  0  0  0  0  0  0  0
   -6.6607   -2.6153   16.9118 H   0  0  0  0  0  0  0  0  0  0  0  0
   -6.7255   -1.9613   15.2400 H   0  0  0  0  0  0  0  0  0  0  0  0
   -2.2029   -3.6602   16.2464 H   0  0  0  0  0  0  0  0  0  0  0  0
   -0.2274   -2.3827   16.8821 H   0  0  0  0  0  0  0  0  0  0  0  0
    0.1319   -3.5351   15.5518 H   0  0  0  0  0  0  0  0  0  0  0  0
    5.1537    1.9347   13.2514 H   0  0  0  0  0  0  0  0  0  0  0  0
    6.8404    0.8712   15.3031 H   0  0  0  0  0  0  0  0  0  0  0  0
    6.2521   -0.7606   17.3472 H   0  0  0  0  0  0  0  0  0  0  0  0
    4.5869    2.3636   11.2421 H   0  0  0  0  0  0  0  0  0  0  0  0
    3.8596    3.8175    9.3833 H   0  0  0  0  0  0  0  0  0  0  0  0
    1.3619    5.0985    8.2410 H   0  0  0  0  0  0  0  0  0  0  0  0
   -1.1853    3.7591   11.1393 H   0  0  0  0  0  0  0  0  0  0  0  0
    0.5648    2.2163   12.8091 H   0  0  0  0  0  0  0  0  0  0  0  0
   -0.0910   -0.0304   13.6148 H   0  0  0  0  0  0  0  0  0  0  0  0
   -2.5192   -0.4925   13.3743 H   0  0  0  0  0  0  0  0  0  0  0  0
  1  2  1  0  0  0  0
  1  6  1  0  0  0  0
  2  3  1  0  0  0  0
  3  4  1  0  0  0  0
  3  7  1  0  0  0  0
  4  5  1  0  0  0  0
  5  6  1  0  0  0  0
  7  8  2  0  0  0  0
  7 31  1  0  0  0  0
  8  9  1  0  0  0  0
  9 10  1  0  0  0  0
 10 11  2  0  0  0  0
 10 30  1  0  0  0  0
 11 12  1  0  0  0  0
 12 13  2  0  0  0  0
 12 20  1  0  0  0  0
 13 14  1  0  0  0  0
 14 15  2  0  0  0  0
 14 21  1  0  0  0  0
 15 16  1  0  0  0  0
 16 17  1  0  0  0  0
 16 20  1  0  0  0  0
 17 18  2  0  0  0  0
 18 19  1  0  0  0  0
 19 20  2  0  0  0  0
 21 22  2  0  0  0  0
 21 29  1  0  0  0  0
 22 23  1  0  0  0  0
 23 24  2  0  0  0  0
 24 25  1  0  0  0  0
 24 28  1  0  0  0  0
 25 26  2  0  0  0  0
 26 27  1  0  0  0  0
 27 28  1  0  0  0  0
 28 29  2  0  0  0  0
 30 31  2  0  0  0  0
  1 32  1  0  0  0  0
  1 33  1  0  0  0  0
  2 34  1  0  0  0  0
  2 35  1  0  0  0  0
  3 36  1  0  0  0  0
  4 37  1  0  0  0  0
  4 38  1  0  0  0  0
  5 39  1  0  0  0  0
  5 40  1  0  0  0  0
  8 41  1  0  0  0  0
  9 42  1  0  0  0  0
  9 43  1  0  0  0  0
 15 44  1  0  0  0  0
 17 45  1  0  0  0  0
 18 46  1  0  0  0  0
 22 47  1  0  0  0  0
 23 48  1  0  0  0  0
 25 49  1  0  0  0  0
 27 50  1  0  0  0  0
 29 51  1  0  0  0  0
 30 52  1  0  0  0  0
 31 53  1  0  0  0  0
M  END
> <IC50[nM]>
3.8

$$$$
CHEMBL3265034
  -OEChem-05192314333D
 Structure written by MMmdl.
 53 58  0     0  0  0  0  0  0999 V2000
   -5.7484   -4.1352   14.0916 C   0  0  0  0  0  0  0  0  0  0  0  0
   -4.2467   -3.7965   14.1043 C   0  0  0  0  0  0  0  0  0  0  0  0
   -4.0046   -2.3867   14.6667 C   0  0  0  0  0  0  0  0  0  0  0  0
   -4.7211   -2.2350   16.0203 C   0  0  0  0  0  0  0  0  0  0  0  0
   -6.1989   -2.6529   15.9141 C   0  0  0  0  0  0  0  0  0  0  0  0
   -6.2949   -3.9790   15.3990 O   0  0  0  0  0  0  0  0  0  0  0  0
   -2.5163   -2.1019   14.8026 C   0  0  0  0  0  0  0  0  0  0  0  0
   -1.7444   -2.8650   15.6773 C   0  0  0  0  0  0  0  0  0  0  0  0
   -0.3947   -2.6068   15.8182 C   0  0  0  0  0  0  0  0  0  0  0  0
    0.2168   -1.5789   15.0929 C   0  0  0  0  0  0  0  0  0  0  0  0
    1.5959   -1.3413   15.3408 N   0  0  0  0  0  0  0  0  0  0  0  0
    2.5346   -0.4433   14.7633 C   0  0  0  0  0  0  0  0  0  0  0  0
    2.1825    0.3683   13.7202 N   0  0  0  0  0  0  0  0  0  0  0  0
    3.1144    1.2372   13.2163 C   0  0  0  0  0  0  0  0  0  0  0  0
    4.4190    1.2837   13.7018 C   0  0  0  0  0  0  0  0  0  0  0  0
    4.7465    0.4877   14.7594 N   0  0  0  0  0  0  0  0  0  0  0  0
    5.8977    0.3771   15.4862 C   0  0  0  0  0  0  0  0  0  0  0  0
    5.5879   -0.5237   16.5292 C   0  0  0  0  0  0  0  0  0  0  0  0
    4.3754   -1.0416   16.3746 N   0  0  0  0  0  0  0  0  0  0  0  0
    3.8361   -0.3925   15.3266 C   0  0  0  0  0  0  0  0  0  0  0  0
    2.6384    2.1617   12.1197 C   0  0  0  0  0  0  0  0  0  0  0  0
    3.5461    2.6405   11.1618 C   0  0  0  0  0  0  0  0  0  0  0  0
    3.1445    3.4623   10.1105 C   0  0  0  0  0  0  0  0  0  0  0  0
    1.7985    3.8158   10.0184 C   0  0  0  0  0  0  0  0  0  0  0  0
    0.9907    4.5934    9.1205 C   0  0  0  0  0  0  0  0  0  0  0  0
   -0.2502    4.6054    9.5128 N   0  0  0  0  0  0  0  0  0  0  0  0
   -0.3377    3.8946   10.6262 N   0  0  0  0  0  0  0  0  0  0  0  0
    0.8856    3.3616   10.9945 C   0  0  0  0  0  0  0  0  0  0  0  0
    1.2735    2.5429   12.0624 C   0  0  0  0  0  0  0  0  0  0  0  0
   -0.5534   -0.8155   14.1947 C   0  0  0  0  0  0  0  0  0  0  0  0
   -1.9224   -1.0793   14.0569 C   0  0  0  0  0  0  0  0  0  0  0  0
   -6.2683   -3.4596   13.3964 H   0  0  0  0  0  0  0  0  0  0  0  0
   -5.8843   -5.1758   13.7620 H   0  0  0  0  0  0  0  0  0  0  0  0
   -3.7179   -4.5295   14.7312 H   0  0  0  0  0  0  0  0  0  0  0  0
   -3.8583   -3.8453   13.0763 H   0  0  0  0  0  0  0  0  0  0  0  0
   -4.4360   -1.6572   13.9654 H   0  0  0  0  0  0  0  0  0  0  0  0
   -4.2204   -2.8709   16.7652 H   0  0  0  0  0  0  0  0  0  0  0  0
   -4.6669   -1.1838   16.3398 H   0  0  0  0  0  0  0  0  0  0  0  0
   -6.6607   -2.6153   16.9118 H   0  0  0  0  0  0  0  0  0  0  0  0
   -6.7255   -1.9613   15.2400 H   0  0  0  0  0  0  0  0  0  0  0  0
   -2.2029   -3.6602   16.2464 H   0  0  0  0  0  0  0  0  0  0  0  0
   -0.2274   -2.3827   16.8821 H   0  0  0  0  0  0  0  0  0  0  0  0
    0.1319   -3.5351   15.5518 H   0  0  0  0  0  0  0  0  0  0  0  0
    5.1537    1.9347   13.2514 H   0  0  0  0  0  0  0  0  0  0  0  0
    6.8404    0.8712   15.3031 H   0  0  0  0  0  0  0  0  0  0  0  0
    6.2521   -0.7606   17.3472 H   0  0  0  0  0  0  0  0  0  0  0  0
    4.5869    2.3636   11.2421 H   0  0  0  0  0  0  0  0  0  0  0  0
    3.8596    3.8175    9.3833 H   0  0  0  0  0  0  0  0  0  0  0  0
    1.3619    5.0985    8.2410 H   0  0  0  0  0  0  0  0  0  0  0  0
   -1.0064    5.0708    9.0529 H   0  0  0  0  0  0  0  0  0  0  0  0
    0.5648    2.2163   12.8091 H   0  0  0  0  0  0  0  0  0  0  0  0
   -0.0910   -0.0304   13.6148 H   0  0  0  0  0  0  0  0  0  0  0  0
   -2.5192   -0.4925   13.3743 H   0  0  0  0  0  0  0  0  0  0  0  0
  1  2  1  0  0  0  0
  1  6  1  0  0  0  0
  2  3  1  0  0  0  0
  3  4  1  0  0  0  0
  3  7  1  0  0  0  0
  4  5  1  0  0  0  0
  5  6  1  0  0  0  0
  7  8  2  0  0  0  0
  7 31  1  0  0  0  0
  8  9  1  0  0  0  0
  9 10  1  0  0  0  0
 10 11  2  0  0  0  0
 10 30  1  0  0  0  0
 11 12  1  0  0  0  0
 12 13  2  0  0  0  0
 12 20  1  0  0  0  0
 13 14  1  0  0  0  0
 14 15  2  0  0  0  0
 14 21  1  0  0  0  0
 15 16  1  0  0  0  0
 16 17  1  0  0  0  0
 16 20  1  0  0  0  0
 17 18  2  0  0  0  0
 18 19  1  0  0  0  0
 19 20  2  0  0  0  0
 21 22  1  0  0  0  0
 21 29  2  0  0  0  0
 22 23  2  0  0  0  0
 23 24  1  0  0  0  0
 24 25  2  0  0  0  0
 24 28  1  0  0  0  0
 25 26  1  0  0  0  0
 26 27  1  0  0  0  0
 27 28  2  0  0  0  0
 28 29  1  0  0  0  0
 30 31  2  0  0  0  0
  1 32  1  0  0  0  0
  1 33  1  0  0  0  0
  2 34  1  0  0  0  0
  2 35  1  0  0  0  0
  3 36  1  0  0  0  0
  4 37  1  0  0  0  0
  4 38  1  0  0  0  0
  5 39  1  0  0  0  0
  5 40  1  0  0  0  0
  8 41  1  0  0  0  0
  9 42  1  0  0  0  0
  9 43  1  0  0  0  0
 15 44  1  0  0  0  0
 17 45  1  0  0  0  0
 18 46  1  0  0  0  0
 22 47  1  0  0  0  0
 23 48  1  0  0  0  0
 25 49  1  0  0  0  0
 26 50  1  0  0  0  0
 29 51  1  0  0  0  0
 30 52  1  0  0  0  0
 31 53  1  0  0  0  0
M  END
> <IC50[nM]>
3.8

$$$$
CHEMBL3265034
  -OEChem-05192314333D
 Structure written by MMmdl.
 53 58  0     0  0  0  0  0  0999 V2000
   -5.7484   -4.1352   14.0916 C   0  0  0  0  0  0  0  0  0  0  0  0
   -4.2467   -3.7965   14.1043 C   0  0  0  0  0  0  0  0  0  0  0  0
   -4.0046   -2.3867   14.6667 C   0  0  0  0  0  0  0  0  0  0  0  0
   -4.7211   -2.2350   16.0203 C   0  0  0  0  0  0  0  0  0  0  0  0
   -6.1989   -2.6529   15.9141 C   0  0  0  0  0  0  0  0  0  0  0  0
   -6.2949   -3.9790   15.3990 O   0  0  0  0  0  0  0  0  0  0  0  0
   -2.5163   -2.1019   14.8026 C   0  0  0  0  0  0  0  0  0  0  0  0
   -1.7444   -2.8650   15.6773 C   0  0  0  0  0  0  0  0  0  0  0  0
   -0.3947   -2.6068   15.8182 C   0  0  0  0  0  0  0  0  0  0  0  0
    0.2168   -1.5789   15.0929 C   0  0  0  0  0  0  0  0  0  0  0  0
    1.5959   -1.3413   15.3408 N   0  0  0  0  0  0  0  0  0  0  0  0
    2.5346   -0.4433   14.7633 C   0  0  0  0  0  0  0  0  0  0  0  0
    2.1825    0.3683   13.7202 N   0  0  0  0  0  0  0  0  0  0  0  0
    3.1144    1.2372   13.2163 C   0  0  0  0  0  0  0  0  0  0  0  0
    4.4190    1.2837   13.7018 C   0  0  0  0  0  0  0  0  0  0  0  0
    4.7465    0.4877   14.7594 N   0  0  0  0  0  0  0  0  0  0  0  0
    5.8977    0.3771   15.4862 C   0  0  0  0  0  0  0  0  0  0  0  0
    5.5879   -0.5237   16.5292 C   0  0  0  0  0  0  0  0  0  0  0  0
    4.3754   -1.0416   16.3746 N   0  0  0  0  0  0  0  0  0  0  0  0
    3.8361   -0.3925   15.3266 C   0  0  0  0  0  0  0  0  0  0  0  0
    2.6384    2.1617   12.1197 C   0  0  0  0  0  0  0  0  0  0  0  0
    3.5461    2.6405   11.1618 C   0  0  0  0  0  0  0  0  0  0  0  0
    3.1445    3.4623   10.1105 C   0  0  0  0  0  0  0  0  0  0  0  0
    1.7985    3.8158   10.0184 C   0  0  0  0  0  0  0  0  0  0  0  0
    0.9907    4.5934    9.1205 C   0  0  0  0  0  0  0  0  0  0  0  0
   -0.2502    4.6054    9.5128 N   0  0  0  0  0  0  0  0  0  0  0  0
   -0.3377    3.8946   10.6262 N   0  0  0  0  0  0  0  0  0  0  0  0
    0.8856    3.3616   10.9945 C   0  0  0  0  0  0  0  0  0  0  0  0
    1.2735    2.5429   12.0624 C   0  0  0  0  0  0  0  0  0  0  0  0
   -0.5534   -0.8155   14.1947 C   0  0  0  0  0  0  0  0  0  0  0  0
   -1.9224   -1.0793   14.0569 C   0  0  0  0  0  0  0  0  0  0  0  0
   -6.2683   -3.4596   13.3964 H   0  0  0  0  0  0  0  0  0  0  0  0
   -5.8843   -5.1758   13.7620 H   0  0  0  0  0  0  0  0  0  0  0  0
   -3.7179   -4.5295   14.7312 H   0  0  0  0  0  0  0  0  0  0  0  0
   -3.8583   -3.8453   13.0763 H   0  0  0  0  0  0  0  0  0  0  0  0
   -4.4360   -1.6572   13.9654 H   0  0  0  0  0  0  0  0  0  0  0  0
   -4.2204   -2.8709   16.7652 H   0  0  0  0  0  0  0  0  0  0  0  0
   -4.6669   -1.1838   16.3398 H   0  0  0  0  0  0  0  0  0  0  0  0
   -6.6607   -2.6153   16.9118 H   0  0  0  0  0  0  0  0  0  0  0  0
   -6.7255   -1.9613   15.2400 H   0  0  0  0  0  0  0  0  0  0  0  0
   -2.2029   -3.6602   16.2464 H   0  0  0  0  0  0  0  0  0  0  0  0
    0.1953   -3.2056   16.4963 H   0  0  0  0  0  0  0  0  0  0  0  0
    5.0853    1.0101   12.8704 H   0  0  0  0  0  0  0  0  0  0  0  0
    4.6168    2.3229   14.0035 H   0  0  0  0  0  0  0  0  0  0  0  0
    6.8404    0.8712   15.3031 H   0  0  0  0  0  0  0  0  0  0  0  0
    6.2521   -0.7606   17.3472 H   0  0  0  0  0  0  0  0  0  0  0  0
    4.5869    2.3636   11.2421 H   0  0  0  0  0  0  0  0  0  0  0  0
    3.8596    3.8175    9.3833 H   0  0  0  0  0  0  0  0  0  0  0  0
    1.3712    5.6252    9.0938 H   0  0  0  0  0  0  0  0  0  0  0  0
    1.0469    4.1557    8.1129 H   0  0  0  0  0  0  0  0  0  0  0  0
    0.5648    2.2163   12.8091 H   0  0  0  0  0  0  0  0  0  0  0  0
   -0.0910   -0.0304   13.6148 H   0  0  0  0  0  0  0  0  0  0  0  0
   -2.5192   -0.4925   13.3743 H   0  0  0  0  0  0  0  0  0  0  0  0
  1  2  1  0  0  0  0
  1  6  1  0  0  0  0
  2  3  1  0  0  0  0
  3  4  1  0  0  0  0
  3  7  1  0  0  0  0
  4  5  1  0  0  0  0
  5  6  1  0  0  0  0
  7  8  2  0  0  0  0
  7 31  1  0  0  0  0
  8  9  1  0  0  0  0
  9 10  2  0  0  0  0
 10 11  1  0  0  0  0
 10 30  1  0  0  0  0
 11 12  2  0  0  0  0
 12 13  1  0  0  0  0
 12 20  1  0  0  0  0
 13 14  2  0  0  0  0
 14 15  1  0  0  0  0
 14 21  1  0  0  0  0
 15 16  1  0  0  0  0
 16 17  1  0  0  0  0
 16 20  1  0  0  0  0
 17 18  2  0  0  0  0
 18 19  1  0  0  0  0
 19 20  2  0  0  0  0
 21 22  2  0  0  0  0
 21 29  1  0  0  0  0
 22 23  1  0  0  0  0
 23 24  2  0  0  0  0
 24 25  1  0  0  0  0
 24 28  1  0  0  0  0
 25 26  1  0  0  0  0
 26 27  2  0  0  0  0
 27 28  1  0  0  0  0
 28 29  2  0  0  0  0
 30 31  2  0  0  0  0
  1 32  1  0  0  0  0
  1 33  1  0  0  0  0
  2 34  1  0  0  0  0
  2 35  1  0  0  0  0
  3 36  1  0  0  0  0
  4 37  1  0  0  0  0
  4 38  1  0  0  0  0
  5 39  1  0  0  0  0
  5 40  1  0  0  0  0
  8 41  1  0  0  0  0
  9 42  1  0  0  0  0
 15 43  1  0  0  0  0
 15 44  1  0  0  0  0
 17 45  1  0  0  0  0
 18 46  1  0  0  0  0
 22 47  1  0  0  0  0
 23 48  1  0  0  0  0
 25 49  1  0  0  0  0
 25 50  1  0  0  0  0
 29 51  1  0  0  0  0
 30 52  1  0  0  0  0
 31 53  1  0  0  0  0
M  END
> <IC50[nM]>
3.8

$$$$
CHEMBL3265034
  -OEChem-05192314333D
 Structure written by MMmdl.
 53 58  0     0  0  0  0  0  0999 V2000
   -5.7484   -4.1352   14.0916 C   0  0  0  0  0  0  0  0  0  0  0  0
   -4.2467   -3.7965   14.1043 C   0  0  0  0  0  0  0  0  0  0  0  0
   -4.0046   -2.3867   14.6667 C   0  0  0  0  0  0  0  0  0  0  0  0
   -4.7211   -2.2350   16.0203 C   0  0  0  0  0  0  0  0  0  0  0  0
   -6.1989   -2.6529   15.9141 C   0  0  0  0  0  0  0  0  0  0  0  0
   -6.2949   -3.9790   15.3990 O   0  0  0  0  0  0  0  0  0  0  0  0
   -2.5163   -2.1019   14.8026 C   0  0  0  0  0  0  0  0  0  0  0  0
   -1.7444   -2.8650   15.6773 C   0  0  0  0  0  0  0  0  0  0  0  0
   -0.3947   -2.6068   15.8182 C   0  0  0  0  0  0  0  0  0  0  0  0
    0.2168   -1.5789   15.0929 C   0  0  0  0  0  0  0  0  0  0  0  0
    1.5959   -1.3413   15.3408 N   0  0  0  0  0  0  0  0  0  0  0  0
    2.5346   -0.4433   14.7633 C   0  0  0  0  0  0  0  0  0  0  0  0
    2.1825    0.3683   13.7202 N   0  0  0  0  0  0  0  0  0  0  0  0
    3.1144    1.2372   13.2163 C   0  0  0  0  0  0  0  0  0  0  0  0
    4.4190    1.2837   13.7018 C   0  0  0  0  0  0  0  0  0  0  0  0
    4.7465    0.4877   14.7594 N   0  0  0  0  0  0  0  0  0  0  0  0
    5.8977    0.3771   15.4862 C   0  0  0  0  0  0  0  0  0  0  0  0
    5.5879   -0.5237   16.5292 C   0  0  0  0  0  0  0  0  0  0  0  0
    4.3754   -1.0416   16.3746 N   0  0  0  0  0  0  0  0  0  0  0  0
    3.8361   -0.3925   15.3266 C   0  0  0  0  0  0  0  0  0  0  0  0
    2.6384    2.1617   12.1197 C   0  0  0  0  0  0  0  0  0  0  0  0
    3.5461    2.6405   11.1618 C   0  0  0  0  0  0  0  0  0  0  0  0
    3.1445    3.4623   10.1105 C   0  0  0  0  0  0  0  0  0  0  0  0
    1.7985    3.8158   10.0184 C   0  0  0  0  0  0  0  0  0  0  0  0
    0.9907    4.5934    9.1205 C   0  0  0  0  0  0  0  0  0  0  0  0
   -0.2502    4.6054    9.5128 N   0  0  0  0  0  0  0  0  0  0  0  0
   -0.3377    3.8946   10.6262 N   0  0  0  0  0  0  0  0  0  0  0  0
    0.8856    3.3616   10.9945 C   0  0  0  0  0  0  0  0  0  0  0  0
    1.2735    2.5429   12.0624 C   0  0  0  0  0  0  0  0  0  0  0  0
   -0.5534   -0.8155   14.1947 C   0  0  0  0  0  0  0  0  0  0  0  0
   -1.9224   -1.0793   14.0569 C   0  0  0  0  0  0  0  0  0  0  0  0
   -6.2683   -3.4596   13.3964 H   0  0  0  0  0  0  0  0  0  0  0  0
   -5.8843   -5.1758   13.7620 H   0  0  0  0  0  0  0  0  0  0  0  0
   -3.7179   -4.5295   14.7312 H   0  0  0  0  0  0  0  0  0  0  0  0
   -3.8583   -3.8453   13.0763 H   0  0  0  0  0  0  0  0  0  0  0  0
   -4.4360   -1.6572   13.9654 H   0  0  0  0  0  0  0  0  0  0  0  0
   -4.2204   -2.8709   16.7652 H   0  0  0  0  0  0  0  0  0  0  0  0
   -4.6669   -1.1838   16.3398 H   0  0  0  0  0  0  0  0  0  0  0  0
   -6.6607   -2.6153   16.9118 H   0  0  0  0  0  0  0  0  0  0  0  0
   -6.7255   -1.9613   15.2400 H   0  0  0  0  0  0  0  0  0  0  0  0
   -2.2029   -3.6602   16.2464 H   0  0  0  0  0  0  0  0  0  0  0  0
    0.1953   -3.2056   16.4963 H   0  0  0  0  0  0  0  0  0  0  0  0
    1.9808   -1.9178   16.0615 H   0  0  0  0  0  0  0  0  0  0  0  0
    5.0853    1.0101   12.8704 H   0  0  0  0  0  0  0  0  0  0  0  0
    4.6168    2.3229   14.0035 H   0  0  0  0  0  0  0  0  0  0  0  0
    6.8404    0.8712   15.3031 H   0  0  0  0  0  0  0  0  0  0  0  0
    6.2521   -0.7606   17.3472 H   0  0  0  0  0  0  0  0  0  0  0  0
    4.5869    2.3636   11.2421 H   0  0  0  0  0  0  0  0  0  0  0  0
    3.8596    3.8175    9.3833 H   0  0  0  0  0  0  0  0  0  0  0  0
    1.3619    5.0985    8.2410 H   0  0  0  0  0  0  0  0  0  0  0  0
    0.5648    2.2163   12.8091 H   0  0  0  0  0  0  0  0  0  0  0  0
   -0.0910   -0.0304   13.6148 H   0  0  0  0  0  0  0  0  0  0  0  0
   -2.5192   -0.4925   13.3743 H   0  0  0  0  0  0  0  0  0  0  0  0
  1  2  1  0  0  0  0
  1  6  1  0  0  0  0
  2  3  1  0  0  0  0
  3  4  1  0  0  0  0
  3  7  1  0  0  0  0
  4  5  1  0  0  0  0
  5  6  1  0  0  0  0
  7  8  2  0  0  0  0
  7 31  1  0  0  0  0
  8  9  1  0  0  0  0
  9 10  2  0  0  0  0
 10 11  1  0  0  0  0
 10 30  1  0  0  0  0
 11 12  1  0  0  0  0
 12 13  2  0  0  0  0
 12 20  1  0  0  0  0
 13 14  1  0  0  0  0
 14 15  1  0  0  0  0
 14 21  2  0  0  0  0
 15 16  1  0  0  0  0
 16 17  1  0  0  0  0
 16 20  1  0  0  0  0
 17 18  2  0  0  0  0
 18 19  1  0  0  0  0
 19 20  2  0  0  0  0
 21 22  1  0  0  0  0
 21 29  1  0  0  0  0
 22 23  2  0  0  0  0
 23 24  1  0  0  0  0
 24 25  2  0  0  0  0
 24 28  1  0  0  0  0
 25 26  1  0  0  0  0
 26 27  2  0  0  0  0
 27 28  1  0  0  0  0
 28 29  2  0  0  0  0
 30 31  2  0  0  0  0
  1 32  1  0  0  0  0
  1 33  1  0  0  0  0
  2 34  1  0  0  0  0
  2 35  1  0  0  0  0
  3 36  1  0  0  0  0
  4 37  1  0  0  0  0
  4 38  1  0  0  0  0
  5 39  1  0  0  0  0
  5 40  1  0  0  0  0
  8 41  1  0  0  0  0
  9 42  1  0  0  0  0
 11 43  1  0  0  0  0
 15 44  1  0  0  0  0
 15 45  1  0  0  0  0
 17 46  1  0  0  0  0
 18 47  1  0  0  0  0
 22 48  1  0  0  0  0
 23 49  1  0  0  0  0
 25 50  1  0  0  0  0
 29 51  1  0  0  0  0
 30 52  1  0  0  0  0
 31 53  1  0  0  0  0
M  END
> <IC50[nM]>
3.8

$$$$
CHEMBL3265034
  -OEChem-05192314333D
 Structure written by MMmdl.
 53 58  0     0  0  0  0  0  0999 V2000
   -5.7484   -4.1352   14.0916 C   0  0  0  0  0  0  0  0  0  0  0  0
   -4.2467   -3.7965   14.1043 C   0  0  0  0  0  0  0  0  0  0  0  0
   -4.0046   -2.3867   14.6667 C   0  0  0  0  0  0  0  0  0  0  0  0
   -4.7211   -2.2350   16.0203 C   0  0  0  0  0  0  0  0  0  0  0  0
   -6.1989   -2.6529   15.9141 C   0  0  0  0  0  0  0  0  0  0  0  0
   -6.2949   -3.9790   15.3990 O   0  0  0  0  0  0  0  0  0  0  0  0
   -2.5163   -2.1019   14.8026 C   0  0  0  0  0  0  0  0  0  0  0  0
   -1.7444   -2.8650   15.6773 C   0  0  0  0  0  0  0  0  0  0  0  0
   -0.3947   -2.6068   15.8182 C   0  0  0  0  0  0  0  0  0  0  0  0
    0.2168   -1.5789   15.0929 C   0  0  0  0  0  0  0  0  0  0  0  0
    1.5959   -1.3413   15.3408 N   0  0  0  0  0  0  0  0  0  0  0  0
    2.5346   -0.4433   14.7633 C   0  0  0  0  0  0  0  0  0  0  0  0
    2.1825    0.3683   13.7202 N   0  0  0  0  0  0  0  0  0  0  0  0
    3.1144    1.2372   13.2163 C   0  0  0  0  0  0  0  0  0  0  0  0
    4.4190    1.2837   13.7018 C   0  0  0  0  0  0  0  0  0  0  0  0
    4.7465    0.4877   14.7594 N   0  0  0  0  0  0  0  0  0  0  0  0
    5.8977    0.3771   15.4862 C   0  0  0  0  0  0  0  0  0  0  0  0
    5.5879   -0.5237   16.5292 C   0  0  0  0  0  0  0  0  0  0  0  0
    4.3754   -1.0416   16.3746 N   0  0  0  0  0  0  0  0  0  0  0  0
    3.8361   -0.3925   15.3266 C   0  0  0  0  0  0  0  0  0  0  0  0
    2.6384    2.1617   12.1197 C   0  0  0  0  0  0  0  0  0  0  0  0
    3.5461    2.6405   11.1618 C   0  0  0  0  0  0  0  0  0  0  0  0
    3.1445    3.4623   10.1105 C   0  0  0  0  0  0  0  0  0  0  0  0
    1.7985    3.8158   10.0184 C   0  0  0  0  0  0  0  0  0  0  0  0
    0.9907    4.5934    9.1205 C   0  0  0  0  0  0  0  0  0  0  0  0
   -0.2502    4.6054    9.5128 N   0  0  0  0  0  0  0  0  0  0  0  0
   -0.3377    3.8946   10.6262 N   0  0  0  0  0  0  0  0  0  0  0  0
    0.8856    3.3616   10.9945 C   0  0  0  0  0  0  0  0  0  0  0  0
    1.2735    2.5429   12.0624 C   0  0  0  0  0  0  0  0  0  0  0  0
   -0.5534   -0.8155   14.1947 C   0  0  0  0  0  0  0  0  0  0  0  0
   -1.9224   -1.0793   14.0569 C   0  0  0  0  0  0  0  0  0  0  0  0
   -6.2683   -3.4596   13.3964 H   0  0  0  0  0  0  0  0  0  0  0  0
   -5.8843   -5.1758   13.7620 H   0  0  0  0  0  0  0  0  0  0  0  0
   -3.7179   -4.5295   14.7312 H   0  0  0  0  0  0  0  0  0  0  0  0
   -3.8583   -3.8453   13.0763 H   0  0  0  0  0  0  0  0  0  0  0  0
   -4.4360   -1.6572   13.9654 H   0  0  0  0  0  0  0  0  0  0  0  0
   -4.2204   -2.8709   16.7652 H   0  0  0  0  0  0  0  0  0  0  0  0
   -4.6669   -1.1838   16.3398 H   0  0  0  0  0  0  0  0  0  0  0  0
   -6.6607   -2.6153   16.9118 H   0  0  0  0  0  0  0  0  0  0  0  0
   -6.7255   -1.9613   15.2400 H   0  0  0  0  0  0  0  0  0  0  0  0
   -2.2029   -3.6602   16.2464 H   0  0  0  0  0  0  0  0  0  0  0  0
    0.1953   -3.2056   16.4963 H   0  0  0  0  0  0  0  0  0  0  0  0
    1.2616    0.3283   13.3324 H   0  0  0  0  0  0  0  0  0  0  0  0
    5.0853    1.0101   12.8704 H   0  0  0  0  0  0  0  0  0  0  0  0
    4.6168    2.3229   14.0035 H   0  0  0  0  0  0  0  0  0  0  0  0
    6.8404    0.8712   15.3031 H   0  0  0  0  0  0  0  0  0  0  0  0
    6.2521   -0.7606   17.3472 H   0  0  0  0  0  0  0  0  0  0  0  0
    4.5869    2.3636   11.2421 H   0  0  0  0  0  0  0  0  0  0  0  0
    3.8596    3.8175    9.3833 H   0  0  0  0  0  0  0  0  0  0  0  0
    1.3619    5.0985    8.2410 H   0  0  0  0  0  0  0  0  0  0  0  0
    0.5648    2.2163   12.8091 H   0  0  0  0  0  0  0  0  0  0  0  0
   -0.0910   -0.0304   13.6148 H   0  0  0  0  0  0  0  0  0  0  0  0
   -2.5192   -0.4925   13.3743 H   0  0  0  0  0  0  0  0  0  0  0  0
  1  2  1  0  0  0  0
  1  6  1  0  0  0  0
  2  3  1  0  0  0  0
  3  4  1  0  0  0  0
  3  7  1  0  0  0  0
  4  5  1  0  0  0  0
  5  6  1  0  0  0  0
  7  8  2  0  0  0  0
  7 31  1  0  0  0  0
  8  9  1  0  0  0  0
  9 10  2  0  0  0  0
 10 11  1  0  0  0  0
 10 30  1  0  0  0  0
 11 12  2  0  0  0  0
 12 13  1  0  0  0  0
 12 20  1  0  0  0  0
 13 14  1  0  0  0  0
 14 15  1  0  0  0  0
 14 21  2  0  0  0  0
 15 16  1  0  0  0  0
 16 17  1  0  0  0  0
 16 20  1  0  0  0  0
 17 18  2  0  0  0  0
 18 19  1  0  0  0  0
 19 20  2  0  0  0  0
 21 22  1  0  0  0  0
 21 29  1  0  0  0  0
 22 23  2  0  0  0  0
 23 24  1  0  0  0  0
 24 25  2  0  0  0  0
 24 28  1  0  0  0  0
 25 26  1  0  0  0  0
 26 27  2  0  0  0  0
 27 28  1  0  0  0  0
 28 29  2  0  0  0  0
 30 31  2  0  0  0  0
  1 32  1  0  0  0  0
  1 33  1  0  0  0  0
  2 34  1  0  0  0  0
  2 35  1  0  0  0  0
  3 36  1  0  0  0  0
  4 37  1  0  0  0  0
  4 38  1  0  0  0  0
  5 39  1  0  0  0  0
  5 40  1  0  0  0  0
  8 41  1  0  0  0  0
  9 42  1  0  0  0  0
 13 43  1  0  0  0  0
 15 44  1  0  0  0  0
 15 45  1  0  0  0  0
 17 46  1  0  0  0  0
 18 47  1  0  0  0  0
 22 48  1  0  0  0  0
 23 49  1  0  0  0  0
 25 50  1  0  0  0  0
 29 51  1  0  0  0  0
 30 52  1  0  0  0  0
 31 53  1  0  0  0  0
M  END
> <IC50[nM]>
3.8

$$$$
CHEMBL3265034
  -OEChem-05192314333D
 Structure written by MMmdl.
 53 58  0     0  0  0  0  0  0999 V2000
   -5.7484   -4.1352   14.0916 C   0  0  0  0  0  0  0  0  0  0  0  0
   -4.2467   -3.7965   14.1043 C   0  0  0  0  0  0  0  0  0  0  0  0
   -4.0046   -2.3867   14.6667 C   0  0  0  0  0  0  0  0  0  0  0  0
   -4.7211   -2.2350   16.0203 C   0  0  0  0  0  0  0  0  0  0  0  0
   -6.1989   -2.6529   15.9141 C   0  0  0  0  0  0  0  0  0  0  0  0
   -6.2949   -3.9790   15.3990 O   0  0  0  0  0  0  0  0  0  0  0  0
   -2.5163   -2.1019   14.8026 C   0  0  0  0  0  0  0  0  0  0  0  0
   -1.7444   -2.8650   15.6773 C   0  0  0  0  0  0  0  0  0  0  0  0
   -0.3947   -2.6068   15.8182 C   0  0  0  0  0  0  0  0  0  0  0  0
    0.2168   -1.5789   15.0929 C   0  0  0  0  0  0  0  0  0  0  0  0
    1.5959   -1.3413   15.3408 N   0  0  0  0  0  0  0  0  0  0  0  0
    2.5346   -0.4433   14.7633 C   0  0  0  0  0  0  0  0  0  0  0  0
    2.1825    0.3683   13.7202 N   0  0  0  0  0  0  0  0  0  0  0  0
    3.1144    1.2372   13.2163 C   0  0  0  0  0  0  0  0  0  0  0  0
    4.4190    1.2837   13.7018 C   0  0  0  0  0  0  0  0  0  0  0  0
    4.7465    0.4877   14.7594 N   0  0  0  0  0  0  0  0  0  0  0  0
    5.8977    0.3771   15.4862 C   0  0  0  0  0  0  0  0  0  0  0  0
    5.5879   -0.5237   16.5292 C   0  0  0  0  0  0  0  0  0  0  0  0
    4.3754   -1.0416   16.3746 N   0  0  0  0  0  0  0  0  0  0  0  0
    3.8361   -0.3925   15.3266 C   0  0  0  0  0  0  0  0  0  0  0  0
    2.6384    2.1617   12.1197 C   0  0  0  0  0  0  0  0  0  0  0  0
    3.5461    2.6405   11.1618 C   0  0  0  0  0  0  0  0  0  0  0  0
    3.1445    3.4623   10.1105 C   0  0  0  0  0  0  0  0  0  0  0  0
    1.7985    3.8158   10.0184 C   0  0  0  0  0  0  0  0  0  0  0  0
    0.9907    4.5934    9.1205 C   0  0  0  0  0  0  0  0  0  0  0  0
   -0.2502    4.6054    9.5128 N   0  0  0  0  0  0  0  0  0  0  0  0
   -0.3377    3.8946   10.6262 N   0  0  0  0  0  0  0  0  0  0  0  0
    0.8856    3.3616   10.9945 C   0  0  0  0  0  0  0  0  0  0  0  0
    1.2735    2.5429   12.0624 C   0  0  0  0  0  0  0  0  0  0  0  0
   -0.5534   -0.8155   14.1947 C   0  0  0  0  0  0  0  0  0  0  0  0
   -1.9224   -1.0793   14.0569 C   0  0  0  0  0  0  0  0  0  0  0  0
   -6.2683   -3.4596   13.3964 H   0  0  0  0  0  0  0  0  0  0  0  0
   -5.8843   -5.1758   13.7620 H   0  0  0  0  0  0  0  0  0  0  0  0
   -3.7179   -4.5295   14.7312 H   0  0  0  0  0  0  0  0  0  0  0  0
   -3.8583   -3.8453   13.0763 H   0  0  0  0  0  0  0  0  0  0  0  0
   -4.4360   -1.6572   13.9654 H   0  0  0  0  0  0  0  0  0  0  0  0
   -4.2204   -2.8709   16.7652 H   0  0  0  0  0  0  0  0  0  0  0  0
   -4.6669   -1.1838   16.3398 H   0  0  0  0  0  0  0  0  0  0  0  0
   -6.6607   -2.6153   16.9118 H   0  0  0  0  0  0  0  0  0  0  0  0
   -6.7255   -1.9613   15.2400 H   0  0  0  0  0  0  0  0  0  0  0  0
   -2.3053   -2.8158   13.9927 H   0  0  0  0  0  0  0  0  0  0  0  0
   -2.2029   -3.6602   16.2464 H   0  0  0  0  0  0  0  0  0  0  0  0
    0.1953   -3.2056   16.4963 H   0  0  0  0  0  0  0  0  0  0  0  0
    5.1537    1.9347   13.2514 H   0  0  0  0  0  0  0  0  0  0  0  0
    6.8404    0.8712   15.3031 H   0  0  0  0  0  0  0  0  0  0  0  0
    6.2521   -0.7606   17.3472 H   0  0  0  0  0  0  0  0  0  0  0  0
    4.5869    2.3636   11.2421 H   0  0  0  0  0  0  0  0  0  0  0  0
    3.8596    3.8175    9.3833 H   0  0  0  0  0  0  0  0  0  0  0  0
    1.3712    5.6252    9.0938 H   0  0  0  0  0  0  0  0  0  0  0  0
    1.0469    4.1557    8.1129 H   0  0  0  0  0  0  0  0  0  0  0  0
    0.5648    2.2163   12.8091 H   0  0  0  0  0  0  0  0  0  0  0  0
   -0.0910   -0.0304   13.6148 H   0  0  0  0  0  0  0  0  0  0  0  0
   -2.5192   -0.4925   13.3743 H   0  0  0  0  0  0  0  0  0  0  0  0
  1  2  1  0  0  0  0
  1  6  1  0  0  0  0
  2  3  1  0  0  0  0
  3  4  1  0  0  0  0
  3  7  1  0  0  0  0
  4  5  1  0  0  0  0
  5  6  1  0  0  0  0
  7  8  1  0  0  0  0
  7 31  1  0  0  0  0
  8  9  2  0  0  0  0
  9 10  1  0  0  0  0
 10 11  2  0  0  0  0
 10 30  1  0  0  0  0
 11 12  1  0  0  0  0
 12 13  2  0  0  0  0
 12 20  1  0  0  0  0
 13 14  1  0  0  0  0
 14 15  2  0  0  0  0
 14 21  1  0  0  0  0
 15 16  1  0  0  0  0
 16 17  1  0  0  0  0
 16 20  1  0  0  0  0
 17 18  2  0  0  0  0
 18 19  1  0  0  0  0
 19 20  2  0  0  0  0
 21 22  2  0  0  0  0
 21 29  1  0  0  0  0
 22 23  1  0  0  0  0
 23 24  2  0  0  0  0
 24 25  1  0  0  0  0
 24 28  1  0  0  0  0
 25 26  1  0  0  0  0
 26 27  2  0  0  0  0
 27 28  1  0  0  0  0
 28 29  2  0  0  0  0
 30 31  2  0  0  0  0
  1 32  1  0  0  0  0
  1 33  1  0  0  0  0
  2 34  1  0  0  0  0
  2 35  1  0  0  0  0
  3 36  1  0  0  0  0
  4 37  1  0  0  0  0
  4 38  1  0  0  0  0
  5 39  1  0  0  0  0
  5 40  1  0  0  0  0
  7 41  1  0  0  0  0
  8 42  1  0  0  0  0
  9 43  1  0  0  0  0
 15 44  1  0  0  0  0
 17 45  1  0  0  0  0
 18 46  1  0  0  0  0
 22 47  1  0  0  0  0
 23 48  1  0  0  0  0
 25 49  1  0  0  0  0
 25 50  1  0  0  0  0
 29 51  1  0  0  0  0
 30 52  1  0  0  0  0
 31 53  1  0  0  0  0
M  END
> <IC50[nM]>
3.8

$$$$
CHEMBL3265034
  -OEChem-05192314333D
 Structure written by MMmdl.
 53 58  0     0  0  0  0  0  0999 V2000
   -5.7484   -4.1352   14.0916 C   0  0  0  0  0  0  0  0  0  0  0  0
   -4.2467   -3.7965   14.1043 C   0  0  0  0  0  0  0  0  0  0  0  0
   -4.0046   -2.3867   14.6667 C   0  0  0  0  0  0  0  0  0  0  0  0
   -4.7211   -2.2350   16.0203 C   0  0  0  0  0  0  0  0  0  0  0  0
   -6.1989   -2.6529   15.9141 C   0  0  0  0  0  0  0  0  0  0  0  0
   -6.2949   -3.9790   15.3990 O   0  0  0  0  0  0  0  0  0  0  0  0
   -2.5163   -2.1019   14.8026 C   0  0  0  0  0  0  0  0  0  0  0  0
   -1.7444   -2.8650   15.6773 C   0  0  0  0  0  0  0  0  0  0  0  0
   -0.3947   -2.6068   15.8182 C   0  0  0  0  0  0  0  0  0  0  0  0
    0.2168   -1.5789   15.0929 C   0  0  0  0  0  0  0  0  0  0  0  0
    1.5959   -1.3413   15.3408 N   0  0  0  0  0  0  0  0  0  0  0  0
    2.5346   -0.4433   14.7633 C   0  0  0  0  0  0  0  0  0  0  0  0
    2.1825    0.3683   13.7202 N   0  0  0  0  0  0  0  0  0  0  0  0
    3.1144    1.2372   13.2163 C   0  0  0  0  0  0  0  0  0  0  0  0
    4.4190    1.2837   13.7018 C   0  0  0  0  0  0  0  0  0  0  0  0
    4.7465    0.4877   14.7594 N   0  0  0  0  0  0  0  0  0  0  0  0
    5.8977    0.3771   15.4862 C   0  0  0  0  0  0  0  0  0  0  0  0
    5.5879   -0.5237   16.5292 C   0  0  0  0  0  0  0  0  0  0  0  0
    4.3754   -1.0416   16.3746 N   0  0  0  0  0  0  0  0  0  0  0  0
    3.8361   -0.3925   15.3266 C   0  0  0  0  0  0  0  0  0  0  0  0
    2.6384    2.1617   12.1197 C   0  0  0  0  0  0  0  0  0  0  0  0
    3.5461    2.6405   11.1618 C   0  0  0  0  0  0  0  0  0  0  0  0
    3.1445    3.4623   10.1105 C   0  0  0  0  0  0  0  0  0  0  0  0
    1.7985    3.8158   10.0184 C   0  0  0  0  0  0  0  0  0  0  0  0
    0.9907    4.5934    9.1205 C   0  0  0  0  0  0  0  0  0  0  0  0
   -0.2502    4.6054    9.5128 N   0  0  0  0  0  0  0  0  0  0  0  0
   -0.3377    3.8946   10.6262 N   0  0  0  0  0  0  0  0  0  0  0  0
    0.8856    3.3616   10.9945 C   0  0  0  0  0  0  0  0  0  0  0  0
    1.2735    2.5429   12.0624 C   0  0  0  0  0  0  0  0  0  0  0  0
   -0.5534   -0.8155   14.1947 C   0  0  0  0  0  0  0  0  0  0  0  0
   -1.9224   -1.0793   14.0569 C   0  0  0  0  0  0  0  0  0  0  0  0
   -6.2683   -3.4596   13.3964 H   0  0  0  0  0  0  0  0  0  0  0  0
   -5.8843   -5.1758   13.7620 H   0  0  0  0  0  0  0  0  0  0  0  0
   -3.7179   -4.5295   14.7312 H   0  0  0  0  0  0  0  0  0  0  0  0
   -3.8583   -3.8453   13.0763 H   0  0  0  0  0  0  0  0  0  0  0  0
   -4.4360   -1.6572   13.9654 H   0  0  0  0  0  0  0  0  0  0  0  0
   -4.2204   -2.8709   16.7652 H   0  0  0  0  0  0  0  0  0  0  0  0
   -4.6669   -1.1838   16.3398 H   0  0  0  0  0  0  0  0  0  0  0  0
   -6.6607   -2.6153   16.9118 H   0  0  0  0  0  0  0  0  0  0  0  0
   -6.7255   -1.9613   15.2400 H   0  0  0  0  0  0  0  0  0  0  0  0
   -2.2029   -3.6602   16.2464 H   0  0  0  0  0  0  0  0  0  0  0  0
   -0.2274   -2.3827   16.8821 H   0  0  0  0  0  0  0  0  0  0  0  0
    0.1319   -3.5351   15.5518 H   0  0  0  0  0  0  0  0  0  0  0  0
    5.1537    1.9347   13.2514 H   0  0  0  0  0  0  0  0  0  0  0  0
    6.8404    0.8712   15.3031 H   0  0  0  0  0  0  0  0  0  0  0  0
    6.2521   -0.7606   17.3472 H   0  0  0  0  0  0  0  0  0  0  0  0
    4.5869    2.3636   11.2421 H   0  0  0  0  0  0  0  0  0  0  0  0
    3.8596    3.8175    9.3833 H   0  0  0  0  0  0  0  0  0  0  0  0
    1.3712    5.6252    9.0938 H   0  0  0  0  0  0  0  0  0  0  0  0
    1.0469    4.1557    8.1129 H   0  0  0  0  0  0  0  0  0  0  0  0
    0.5648    2.2163   12.8091 H   0  0  0  0  0  0  0  0  0  0  0  0
   -0.0910   -0.0304   13.6148 H   0  0  0  0  0  0  0  0  0  0  0  0
   -2.5192   -0.4925   13.3743 H   0  0  0  0  0  0  0  0  0  0  0  0
  1  2  1  0  0  0  0
  1  6  1  0  0  0  0
  2  3  1  0  0  0  0
  3  4  1  0  0  0  0
  3  7  1  0  0  0  0
  4  5  1  0  0  0  0
  5  6  1  0  0  0  0
  7  8  2  0  0  0  0
  7 31  1  0  0  0  0
  8  9  1  0  0  0  0
  9 10  1  0  0  0  0
 10 11  2  0  0  0  0
 10 30  1  0  0  0  0
 11 12  1  0  0  0  0
 12 13  2  0  0  0  0
 12 20  1  0  0  0  0
 13 14  1  0  0  0  0
 14 15  2  0  0  0  0
 14 21  1  0  0  0  0
 15 16  1  0  0  0  0
 16 17  1  0  0  0  0
 16 20  1  0  0  0  0
 17 18  2  0  0  0  0
 18 19  1  0  0  0  0
 19 20  2  0  0  0  0
 21 22  2  0  0  0  0
 21 29  1  0  0  0  0
 22 23  1  0  0  0  0
 23 24  2  0  0  0  0
 24 25  1  0  0  0  0
 24 28  1  0  0  0  0
 25 26  1  0  0  0  0
 26 27  2  0  0  0  0
 27 28  1  0  0  0  0
 28 29  2  0  0  0  0
 30 31  2  0  0  0  0
  1 32  1  0  0  0  0
  1 33  1  0  0  0  0
  2 34  1  0  0  0  0
  2 35  1  0  0  0  0
  3 36  1  0  0  0  0
  4 37  1  0  0  0  0
  4 38  1  0  0  0  0
  5 39  1  0  0  0  0
  5 40  1  0  0  0  0
  8 41  1  0  0  0  0
  9 42  1  0  0  0  0
  9 43  1  0  0  0  0
 15 44  1  0  0  0  0
 17 45  1  0  0  0  0
 18 46  1  0  0  0  0
 22 47  1  0  0  0  0
 23 48  1  0  0  0  0
 25 49  1  0  0  0  0
 25 50  1  0  0  0  0
 29 51  1  0  0  0  0
 30 52  1  0  0  0  0
 31 53  1  0  0  0  0
M  END
> <IC50[nM]>
3.8

$$$$
CHEMBL3265034
  -OEChem-05192314333D
 Structure written by MMmdl.
 53 58  0     1  0  0  0  0  0999 V2000
   -5.7484   -4.1352   14.0916 C   0  0  0  0  0  0  0  0  0  0  0  0
   -4.2467   -3.7965   14.1043 C   0  0  0  0  0  0  0  0  0  0  0  0
   -4.0046   -2.3867   14.6667 C   0  0  0  0  0  0  0  0  0  0  0  0
   -4.7211   -2.2350   16.0203 C   0  0  0  0  0  0  0  0  0  0  0  0
   -6.1989   -2.6529   15.9141 C   0  0  0  0  0  0  0  0  0  0  0  0
   -6.2949   -3.9790   15.3990 O   0  0  0  0  0  0  0  0  0  0  0  0
   -2.5163   -2.1019   14.8026 C   0  0  0  0  0  0  0  0  0  0  0  0
   -1.7444   -2.8650   15.6773 C   0  0  0  0  0  0  0  0  0  0  0  0
   -0.3947   -2.6068   15.8182 C   0  0  0  0  0  0  0  0  0  0  0  0
    0.2168   -1.5789   15.0929 C   0  0  0  0  0  0  0  0  0  0  0  0
    1.5959   -1.3413   15.3408 N   0  0  0  0  0  0  0  0  0  0  0  0
    2.5346   -0.4433   14.7633 C   0  0  0  0  0  0  0  0  0  0  0  0
    2.1825    0.3683   13.7202 N   0  0  0  0  0  0  0  0  0  0  0  0
    3.1144    1.2372   13.2163 C   0  0  0  0  0  0  0  0  0  0  0  0
    4.4190    1.2837   13.7018 C   0  0  0  0  0  0  0  0  0  0  0  0
    4.7465    0.4877   14.7594 N   0  0  0  0  0  0  0  0  0  0  0  0
    5.8977    0.3771   15.4862 C   0  0  0  0  0  0  0  0  0  0  0  0
    5.5879   -0.5237   16.5292 C   0  0  0  0  0  0  0  0  0  0  0  0
    4.3754   -1.0416   16.3746 N   0  0  0  0  0  0  0  0  0  0  0  0
    3.8361   -0.3925   15.3266 C   0  0  0  0  0  0  0  0  0  0  0  0
    2.6384    2.1617   12.1197 C   0  0  0  0  0  0  0  0  0  0  0  0
    3.5461    2.6405   11.1618 C   0  0  0  0  0  0  0  0  0  0  0  0
    3.1445    3.4623   10.1105 C   0  0  0  0  0  0  0  0  0  0  0  0
    1.7985    3.8158   10.0184 C   0  0  3  0  0  0  0  0  0  0  0  0
    0.9907    4.5934    9.1205 C   0  0  0  0  0  0  0  0  0  0  0  0
   -0.2502    4.6054    9.5128 N   0  0  0  0  0  0  0  0  0  0  0  0
   -0.3377    3.8946   10.6262 N   0  0  0  0  0  0  0  0  0  0  0  0
    0.8856    3.3616   10.9945 C   0  0  0  0  0  0  0  0  0  0  0  0
    1.2735    2.5429   12.0624 C   0  0  0  0  0  0  0  0  0  0  0  0
   -0.5534   -0.8155   14.1947 C   0  0  0  0  0  0  0  0  0  0  0  0
   -1.9224   -1.0793   14.0569 C   0  0  0  0  0  0  0  0  0  0  0  0
   -6.2683   -3.4596   13.3964 H   0  0  0  0  0  0  0  0  0  0  0  0
   -5.8843   -5.1758   13.7620 H   0  0  0  0  0  0  0  0  0  0  0  0
   -3.7179   -4.5295   14.7312 H   0  0  0  0  0  0  0  0  0  0  0  0
   -3.8583   -3.8453   13.0763 H   0  0  0  0  0  0  0  0  0  0  0  0
   -4.4360   -1.6572   13.9654 H   0  0  0  0  0  0  0  0  0  0  0  0
   -4.2204   -2.8709   16.7652 H   0  0  0  0  0  0  0  0  0  0  0  0
   -4.6669   -1.1838   16.3398 H   0  0  0  0  0  0  0  0  0  0  0  0
   -6.6607   -2.6153   16.9118 H   0  0  0  0  0  0  0  0  0  0  0  0
   -6.7255   -1.9613   15.2400 H   0  0  0  0  0  0  0  0  0  0  0  0
   -2.2029   -3.6602   16.2464 H   0  0  0  0  0  0  0  0  0  0  0  0
    0.1953   -3.2056   16.4963 H   0  0  0  0  0  0  0  0  0  0  0  0
    1.9808   -1.9178   16.0615 H   0  0  0  0  0  0  0  0  0  0  0  0
    5.1537    1.9347   13.2514 H   0  0  0  0  0  0  0  0  0  0  0  0
    6.8404    0.8712   15.3031 H   0  0  0  0  0  0  0  0  0  0  0  0
    6.2521   -0.7606   17.3472 H   0  0  0  0  0  0  0  0  0  0  0  0
    4.5869    2.3636   11.2421 H   0  0  0  0  0  0  0  0  0  0  0  0
    3.8596    3.8175    9.3833 H   0  0  0  0  0  0  0  0  0  0  0  0
    1.6029    2.9163    9.4162 H   0  0  0  0  0  0  0  0  0  0  0  0
    1.3619    5.0985    8.2410 H   0  0  0  0  0  0  0  0  0  0  0  0
    0.5648    2.2163   12.8091 H   0  0  0  0  0  0  0  0  0  0  0  0
   -0.0910   -0.0304   13.6148 H   0  0  0  0  0  0  0  0  0  0  0  0
   -2.5192   -0.4925   13.3743 H   0  0  0  0  0  0  0  0  0  0  0  0
  1  2  1  0  0  0  0
  1  6  1  0  0  0  0
  2  3  1  0  0  0  0
  3  4  1  0  0  0  0
  3  7  1  0  0  0  0
  4  5  1  0  0  0  0
  5  6  1  0  0  0  0
  7  8  2  0  0  0  0
  7 31  1  0  0  0  0
  8  9  1  0  0  0  0
  9 10  2  0  0  0  0
 10 11  1  0  0  0  0
 10 30  1  0  0  0  0
 11 12  1  0  0  0  0
 12 13  2  0  0  0  0
 12 20  1  0  0  0  0
 13 14  1  0  0  0  0
 14 15  2  0  0  0  0
 14 21  1  0  0  0  0
 15 16  1  0  0  0  0
 16 17  1  0  0  0  0
 16 20  1  0  0  0  0
 17 18  2  0  0  0  0
 18 19  1  0  0  0  0
 19 20  2  0  0  0  0
 21 22  1  0  0  0  0
 21 29  2  0  0  0  0
 22 23  2  0  0  0  0
 23 24  1  0  0  0  0
 24 25  1  0  0  0  0
 24 28  1  0  0  0  0
 25 26  2  0  0  0  0
 26 27  1  0  0  0  0
 27 28  2  0  0  0  0
 28 29  1  0  0  0  0
 30 31  2  0  0  0  0
  1 32  1  0  0  0  0
  1 33  1  0  0  0  0
  2 34  1  0  0  0  0
  2 35  1  0  0  0  0
  3 36  1  0  0  0  0
  4 37  1  0  0  0  0
  4 38  1  0  0  0  0
  5 39  1  0  0  0  0
  5 40  1  0  0  0  0
  8 41  1  0  0  0  0
  9 42  1  0  0  0  0
 11 43  1  0  0  0  0
 15 44  1  0  0  0  0
 17 45  1  0  0  0  0
 18 46  1  0  0  0  0
 22 47  1  0  0  0  0
 23 48  1  0  0  0  0
 24 49  1  0  0  0  0
 25 50  1  0  0  0  0
 29 51  1  0  0  0  0
 30 52  1  0  0  0  0
 31 53  1  0  0  0  0
M  END
> <IC50[nM]>
3.8

$$$$
CHEMBL3265034
  -OEChem-05192314333D
 Structure written by MMmdl.
 53 58  0     0  0  0  0  0  0999 V2000
   -5.7484   -4.1352   14.0916 C   0  0  0  0  0  0  0  0  0  0  0  0
   -4.2467   -3.7965   14.1043 C   0  0  0  0  0  0  0  0  0  0  0  0
   -4.0046   -2.3867   14.6667 C   0  0  0  0  0  0  0  0  0  0  0  0
   -4.7211   -2.2350   16.0203 C   0  0  0  0  0  0  0  0  0  0  0  0
   -6.1989   -2.6529   15.9141 C   0  0  0  0  0  0  0  0  0  0  0  0
   -6.2949   -3.9790   15.3990 O   0  0  0  0  0  0  0  0  0  0  0  0
   -2.5163   -2.1019   14.8026 C   0  0  0  0  0  0  0  0  0  0  0  0
   -1.7444   -2.8650   15.6773 C   0  0  0  0  0  0  0  0  0  0  0  0
   -0.3947   -2.6068   15.8182 C   0  0  0  0  0  0  0  0  0  0  0  0
    0.2168   -1.5789   15.0929 C   0  0  0  0  0  0  0  0  0  0  0  0
    1.5959   -1.3413   15.3408 N   0  0  0  0  0  0  0  0  0  0  0  0
    2.5346   -0.4433   14.7633 C   0  0  0  0  0  0  0  0  0  0  0  0
    2.1825    0.3683   13.7202 N   0  0  0  0  0  0  0  0  0  0  0  0
    3.1144    1.2372   13.2163 C   0  0  0  0  0  0  0  0  0  0  0  0
    4.4190    1.2837   13.7018 C   0  0  0  0  0  0  0  0  0  0  0  0
    4.7465    0.4877   14.7594 N   0  0  0  0  0  0  0  0  0  0  0  0
    5.8977    0.3771   15.4862 C   0  0  0  0  0  0  0  0  0  0  0  0
    5.5879   -0.5237   16.5292 C   0  0  0  0  0  0  0  0  0  0  0  0
    4.3754   -1.0416   16.3746 N   0  0  0  0  0  0  0  0  0  0  0  0
    3.8361   -0.3925   15.3266 C   0  0  0  0  0  0  0  0  0  0  0  0
    2.6384    2.1617   12.1197 C   0  0  0  0  0  0  0  0  0  0  0  0
    3.5461    2.6405   11.1618 C   0  0  0  0  0  0  0  0  0  0  0  0
    3.1445    3.4623   10.1105 C   0  0  0  0  0  0  0  0  0  0  0  0
    1.7985    3.8158   10.0184 C   0  0  0  0  0  0  0  0  0  0  0  0
    0.9907    4.5934    9.1205 C   0  0  0  0  0  0  0  0  0  0  0  0
   -0.2502    4.6054    9.5128 N   0  0  0  0  0  0  0  0  0  0  0  0
   -0.3377    3.8946   10.6262 N   0  0  0  0  0  0  0  0  0  0  0  0
    0.8856    3.3616   10.9945 C   0  0  0  0  0  0  0  0  0  0  0  0
    1.2735    2.5429   12.0624 C   0  0  0  0  0  0  0  0  0  0  0  0
   -0.5534   -0.8155   14.1947 C   0  0  0  0  0  0  0  0  0  0  0  0
   -1.9224   -1.0793   14.0569 C   0  0  0  0  0  0  0  0  0  0  0  0
   -6.2683   -3.4596   13.3964 H   0  0  0  0  0  0  0  0  0  0  0  0
   -5.8843   -5.1758   13.7620 H   0  0  0  0  0  0  0  0  0  0  0  0
   -3.7179   -4.5295   14.7312 H   0  0  0  0  0  0  0  0  0  0  0  0
   -3.8583   -3.8453   13.0763 H   0  0  0  0  0  0  0  0  0  0  0  0
   -4.4360   -1.6572   13.9654 H   0  0  0  0  0  0  0  0  0  0  0  0
   -4.2204   -2.8709   16.7652 H   0  0  0  0  0  0  0  0  0  0  0  0
   -4.6669   -1.1838   16.3398 H   0  0  0  0  0  0  0  0  0  0  0  0
   -6.6607   -2.6153   16.9118 H   0  0  0  0  0  0  0  0  0  0  0  0
   -6.7255   -1.9613   15.2400 H   0  0  0  0  0  0  0  0  0  0  0  0
   -2.2029   -3.6602   16.2464 H   0  0  0  0  0  0  0  0  0  0  0  0
    0.1953   -3.2056   16.4963 H   0  0  0  0  0  0  0  0  0  0  0  0
    1.9808   -1.9178   16.0615 H   0  0  0  0  0  0  0  0  0  0  0  0
    5.1537    1.9347   13.2514 H   0  0  0  0  0  0  0  0  0  0  0  0
    6.8404    0.8712   15.3031 H   0  0  0  0  0  0  0  0  0  0  0  0
    6.2521   -0.7606   17.3472 H   0  0  0  0  0  0  0  0  0  0  0  0
    4.3118    3.2024   11.7168 H   0  0  0  0  0  0  0  0  0  0  0  0
    4.0045    1.7530   10.7012 H   0  0  0  0  0  0  0  0  0  0  0  0
    3.8596    3.8175    9.3833 H   0  0  0  0  0  0  0  0  0  0  0  0
    1.3619    5.0985    8.2410 H   0  0  0  0  0  0  0  0  0  0  0  0
    0.5648    2.2163   12.8091 H   0  0  0  0  0  0  0  0  0  0  0  0
   -0.0910   -0.0304   13.6148 H   0  0  0  0  0  0  0  0  0  0  0  0
   -2.5192   -0.4925   13.3743 H   0  0  0  0  0  0  0  0  0  0  0  0
  1  2  1  0  0  0  0
  1  6  1  0  0  0  0
  2  3  1  0  0  0  0
  3  4  1  0  0  0  0
  3  7  1  0  0  0  0
  4  5  1  0  0  0  0
  5  6  1  0  0  0  0
  7  8  2  0  0  0  0
  7 31  1  0  0  0  0
  8  9  1  0  0  0  0
  9 10  2  0  0  0  0
 10 11  1  0  0  0  0
 10 30  1  0  0  0  0
 11 12  1  0  0  0  0
 12 13  2  0  0  0  0
 12 20  1  0  0  0  0
 13 14  1  0  0  0  0
 14 15  2  0  0  0  0
 14 21  1  0  0  0  0
 15 16  1  0  0  0  0
 16 17  1  0  0  0  0
 16 20  1  0  0  0  0
 17 18  2  0  0  0  0
 18 19  1  0  0  0  0
 19 20  2  0  0  0  0
 21 22  1  0  0  0  0
 21 29  2  0  0  0  0
 22 23  1  0  0  0  0
 23 24  2  0  0  0  0
 24 25  1  0  0  0  0
 24 28  1  0  0  0  0
 25 26  2  0  0  0  0
 26 27  1  0  0  0  0
 27 28  2  0  0  0  0
 28 29  1  0  0  0  0
 30 31  2  0  0  0  0
  1 32  1  0  0  0  0
  1 33  1  0  0  0  0
  2 34  1  0  0  0  0
  2 35  1  0  0  0  0
  3 36  1  0  0  0  0
  4 37  1  0  0  0  0
  4 38  1  0  0  0  0
  5 39  1  0  0  0  0
  5 40  1  0  0  0  0
  8 41  1  0  0  0  0
  9 42  1  0  0  0  0
 11 43  1  0  0  0  0
 15 44  1  0  0  0  0
 17 45  1  0  0  0  0
 18 46  1  0  0  0  0
 22 47  1  0  0  0  0
 22 48  1  0  0  0  0
 23 49  1  0  0  0  0
 25 50  1  0  0  0  0
 29 51  1  0  0  0  0
 30 52  1  0  0  0  0
 31 53  1  0  0  0  0
M  END
> <IC50[nM]>
3.8

$$$$
CHEMBL3265034
  -OEChem-05192314333D
 Structure written by MMmdl.
 53 58  0     0  0  0  0  0  0999 V2000
   -5.7484   -4.1352   14.0916 C   0  0  0  0  0  0  0  0  0  0  0  0
   -4.2467   -3.7965   14.1043 C   0  0  0  0  0  0  0  0  0  0  0  0
   -4.0046   -2.3867   14.6667 C   0  0  0  0  0  0  0  0  0  0  0  0
   -4.7211   -2.2350   16.0203 C   0  0  0  0  0  0  0  0  0  0  0  0
   -6.1989   -2.6529   15.9141 C   0  0  0  0  0  0  0  0  0  0  0  0
   -6.2949   -3.9790   15.3990 O   0  0  0  0  0  0  0  0  0  0  0  0
   -2.5163   -2.1019   14.8026 C   0  0  0  0  0  0  0  0  0  0  0  0
   -1.7444   -2.8650   15.6773 C   0  0  0  0  0  0  0  0  0  0  0  0
   -0.3947   -2.6068   15.8182 C   0  0  0  0  0  0  0  0  0  0  0  0
    0.2168   -1.5789   15.0929 C   0  0  0  0  0  0  0  0  0  0  0  0
    1.5959   -1.3413   15.3408 N   0  0  0  0  0  0  0  0  0  0  0  0
    2.5346   -0.4433   14.7633 C   0  0  0  0  0  0  0  0  0  0  0  0
    2.1825    0.3683   13.7202 N   0  0  0  0  0  0  0  0  0  0  0  0
    3.1144    1.2372   13.2163 C   0  0  0  0  0  0  0  0  0  0  0  0
    4.4190    1.2837   13.7018 C   0  0  0  0  0  0  0  0  0  0  0  0
    4.7465    0.4877   14.7594 N   0  0  0  0  0  0  0  0  0  0  0  0
    5.8977    0.3771   15.4862 C   0  0  0  0  0  0  0  0  0  0  0  0
    5.5879   -0.5237   16.5292 C   0  0  0  0  0  0  0  0  0  0  0  0
    4.3754   -1.0416   16.3746 N   0  0  0  0  0  0  0  0  0  0  0  0
    3.8361   -0.3925   15.3266 C   0  0  0  0  0  0  0  0  0  0  0  0
    2.6384    2.1617   12.1197 C   0  0  0  0  0  0  0  0  0  0  0  0
    3.5461    2.6405   11.1618 C   0  0  0  0  0  0  0  0  0  0  0  0
    3.1445    3.4623   10.1105 C   0  0  0  0  0  0  0  0  0  0  0  0
    1.7985    3.8158   10.0184 C   0  0  0  0  0  0  0  0  0  0  0  0
    0.9907    4.5934    9.1205 C   0  0  0  0  0  0  0  0  0  0  0  0
   -0.2502    4.6054    9.5128 N   0  0  0  0  0  0  0  0  0  0  0  0
   -0.3377    3.8946   10.6262 N   0  0  0  0  0  0  0  0  0  0  0  0
    0.8856    3.3616   10.9945 C   0  0  0  0  0  0  0  0  0  0  0  0
    1.2735    2.5429   12.0624 C   0  0  0  0  0  0  0  0  0  0  0  0
   -0.5534   -0.8155   14.1947 C   0  0  0  0  0  0  0  0  0  0  0  0
   -1.9224   -1.0793   14.0569 C   0  0  0  0  0  0  0  0  0  0  0  0
   -6.2683   -3.4596   13.3964 H   0  0  0  0  0  0  0  0  0  0  0  0
   -5.8843   -5.1758   13.7620 H   0  0  0  0  0  0  0  0  0  0  0  0
   -3.7179   -4.5295   14.7312 H   0  0  0  0  0  0  0  0  0  0  0  0
   -3.8583   -3.8453   13.0763 H   0  0  0  0  0  0  0  0  0  0  0  0
   -4.4360   -1.6572   13.9654 H   0  0  0  0  0  0  0  0  0  0  0  0
   -4.2204   -2.8709   16.7652 H   0  0  0  0  0  0  0  0  0  0  0  0
   -4.6669   -1.1838   16.3398 H   0  0  0  0  0  0  0  0  0  0  0  0
   -6.6607   -2.6153   16.9118 H   0  0  0  0  0  0  0  0  0  0  0  0
   -6.7255   -1.9613   15.2400 H   0  0  0  0  0  0  0  0  0  0  0  0
   -2.2029   -3.6602   16.2464 H   0  0  0  0  0  0  0  0  0  0  0  0
    0.1953   -3.2056   16.4963 H   0  0  0  0  0  0  0  0  0  0  0  0
    1.9808   -1.9178   16.0615 H   0  0  0  0  0  0  0  0  0  0  0  0
    5.1537    1.9347   13.2514 H   0  0  0  0  0  0  0  0  0  0  0  0
    6.8404    0.8712   15.3031 H   0  0  0  0  0  0  0  0  0  0  0  0
    6.2521   -0.7606   17.3472 H   0  0  0  0  0  0  0  0  0  0  0  0
    4.5869    2.3636   11.2421 H   0  0  0  0  0  0  0  0  0  0  0  0
    3.8596    3.8175    9.3833 H   0  0  0  0  0  0  0  0  0  0  0  0
    1.3619    5.0985    8.2410 H   0  0  0  0  0  0  0  0  0  0  0  0
    0.6739    1.6222   12.0093 H   0  0  0  0  0  0  0  0  0  0  0  0
    1.0396    3.0795   12.9937 H   0  0  0  0  0  0  0  0  0  0  0  0
   -0.0910   -0.0304   13.6148 H   0  0  0  0  0  0  0  0  0  0  0  0
   -2.5192   -0.4925   13.3743 H   0  0  0  0  0  0  0  0  0  0  0  0
  1  2  1  0  0  0  0
  1  6  1  0  0  0  0
  2  3  1  0  0  0  0
  3  4  1  0  0  0  0
  3  7  1  0  0  0  0
  4  5  1  0  0  0  0
  5  6  1  0  0  0  0
  7  8  2  0  0  0  0
  7 31  1  0  0  0  0
  8  9  1  0  0  0  0
  9 10  2  0  0  0  0
 10 11  1  0  0  0  0
 10 30  1  0  0  0  0
 11 12  1  0  0  0  0
 12 13  2  0  0  0  0
 12 20  1  0  0  0  0
 13 14  1  0  0  0  0
 14 15  2  0  0  0  0
 14 21  1  0  0  0  0
 15 16  1  0  0  0  0
 16 17  1  0  0  0  0
 16 20  1  0  0  0  0
 17 18  2  0  0  0  0
 18 19  1  0  0  0  0
 19 20  2  0  0  0  0
 21 22  2  0  0  0  0
 21 29  1  0  0  0  0
 22 23  1  0  0  0  0
 23 24  2  0  0  0  0
 24 25  1  0  0  0  0
 24 28  1  0  0  0  0
 25 26  2  0  0  0  0
 26 27  1  0  0  0  0
 27 28  2  0  0  0  0
 28 29  1  0  0  0  0
 30 31  2  0  0  0  0
  1 32  1  0  0  0  0
  1 33  1  0  0  0  0
  2 34  1  0  0  0  0
  2 35  1  0  0  0  0
  3 36  1  0  0  0  0
  4 37  1  0  0  0  0
  4 38  1  0  0  0  0
  5 39  1  0  0  0  0
  5 40  1  0  0  0  0
  8 41  1  0  0  0  0
  9 42  1  0  0  0  0
 11 43  1  0  0  0  0
 15 44  1  0  0  0  0
 17 45  1  0  0  0  0
 18 46  1  0  0  0  0
 22 47  1  0  0  0  0
 23 48  1  0  0  0  0
 25 49  1  0  0  0  0
 29 50  1  0  0  0  0
 29 51  1  0  0  0  0
 30 52  1  0  0  0  0
 31 53  1  0  0  0  0
M  END
> <IC50[nM]>
3.8

$$$$
CHEMBL3265034
  -OEChem-05192314333D
 Structure written by MMmdl.
 53 58  0     1  0  0  0  0  0999 V2000
   -5.7484   -4.1352   14.0916 C   0  0  0  0  0  0  0  0  0  0  0  0
   -4.2467   -3.7965   14.1043 C   0  0  0  0  0  0  0  0  0  0  0  0
   -4.0046   -2.3867   14.6667 C   0  0  0  0  0  0  0  0  0  0  0  0
   -4.7211   -2.2350   16.0203 C   0  0  0  0  0  0  0  0  0  0  0  0
   -6.1989   -2.6529   15.9141 C   0  0  0  0  0  0  0  0  0  0  0  0
   -6.2949   -3.9790   15.3990 O   0  0  0  0  0  0  0  0  0  0  0  0
   -2.5163   -2.1019   14.8026 C   0  0  0  0  0  0  0  0  0  0  0  0
   -1.7444   -2.8650   15.6773 C   0  0  0  0  0  0  0  0  0  0  0  0
   -0.3947   -2.6068   15.8182 C   0  0  0  0  0  0  0  0  0  0  0  0
    0.2168   -1.5789   15.0929 C   0  0  0  0  0  0  0  0  0  0  0  0
    1.5959   -1.3413   15.3408 N   0  0  0  0  0  0  0  0  0  0  0  0
    2.5346   -0.4433   14.7633 C   0  0  0  0  0  0  0  0  0  0  0  0
    2.1825    0.3683   13.7202 N   0  0  0  0  0  0  0  0  0  0  0  0
    3.1144    1.2372   13.2163 C   0  0  0  0  0  0  0  0  0  0  0  0
    4.4190    1.2837   13.7018 C   0  0  0  0  0  0  0  0  0  0  0  0
    4.7465    0.4877   14.7594 N   0  0  0  0  0  0  0  0  0  0  0  0
    5.8977    0.3771   15.4862 C   0  0  0  0  0  0  0  0  0  0  0  0
    5.5879   -0.5237   16.5292 C   0  0  0  0  0  0  0  0  0  0  0  0
    4.3754   -1.0416   16.3746 N   0  0  0  0  0  0  0  0  0  0  0  0
    3.8361   -0.3925   15.3266 C   0  0  0  0  0  0  0  0  0  0  0  0
    2.6384    2.1617   12.1197 C   0  0  3  0  0  0  0  0  0  0  0  0
    3.5461    2.6405   11.1618 C   0  0  0  0  0  0  0  0  0  0  0  0
    3.1445    3.4623   10.1105 C   0  0  0  0  0  0  0  0  0  0  0  0
    1.7985    3.8158   10.0184 C   0  0  0  0  0  0  0  0  0  0  0  0
    0.9907    4.5934    9.1205 C   0  0  0  0  0  0  0  0  0  0  0  0
   -0.2502    4.6054    9.5128 N   0  0  0  0  0  0  0  0  0  0  0  0
   -0.3377    3.8946   10.6262 N   0  0  0  0  0  0  0  0  0  0  0  0
    0.8856    3.3616   10.9945 C   0  0  0  0  0  0  0  0  0  0  0  0
    1.2735    2.5429   12.0624 C   0  0  0  0  0  0  0  0  0  0  0  0
   -0.5534   -0.8155   14.1947 C   0  0  0  0  0  0  0  0  0  0  0  0
   -1.9224   -1.0793   14.0569 C   0  0  0  0  0  0  0  0  0  0  0  0
   -6.2683   -3.4596   13.3964 H   0  0  0  0  0  0  0  0  0  0  0  0
   -5.8843   -5.1758   13.7620 H   0  0  0  0  0  0  0  0  0  0  0  0
   -3.7179   -4.5295   14.7312 H   0  0  0  0  0  0  0  0  0  0  0  0
   -3.8583   -3.8453   13.0763 H   0  0  0  0  0  0  0  0  0  0  0  0
   -4.4360   -1.6572   13.9654 H   0  0  0  0  0  0  0  0  0  0  0  0
   -4.2204   -2.8709   16.7652 H   0  0  0  0  0  0  0  0  0  0  0  0
   -4.6669   -1.1838   16.3398 H   0  0  0  0  0  0  0  0  0  0  0  0
   -6.6607   -2.6153   16.9118 H   0  0  0  0  0  0  0  0  0  0  0  0
   -6.7255   -1.9613   15.2400 H   0  0  0  0  0  0  0  0  0  0  0  0
   -2.2029   -3.6602   16.2464 H   0  0  0  0  0  0  0  0  0  0  0  0
    0.1953   -3.2056   16.4963 H   0  0  0  0  0  0  0  0  0  0  0  0
    1.9808   -1.9178   16.0615 H   0  0  0  0  0  0  0  0  0  0  0  0
    5.1537    1.9347   13.2514 H   0  0  0  0  0  0  0  0  0  0  0  0
    6.8404    0.8712   15.3031 H   0  0  0  0  0  0  0  0  0  0  0  0
    6.2521   -0.7606   17.3472 H   0  0  0  0  0  0  0  0  0  0  0  0
    2.4225    1.2927   11.4808 H   0  0  0  0  0  0  0  0  0  0  0  0
    4.5869    2.3636   11.2421 H   0  0  0  0  0  0  0  0  0  0  0  0
    3.8596    3.8175    9.3833 H   0  0  0  0  0  0  0  0  0  0  0  0
    1.3619    5.0985    8.2410 H   0  0  0  0  0  0  0  0  0  0  0  0
    0.5648    2.2163   12.8091 H   0  0  0  0  0  0  0  0  0  0  0  0
   -0.0910   -0.0304   13.6148 H   0  0  0  0  0  0  0  0  0  0  0  0
   -2.5192   -0.4925   13.3743 H   0  0  0  0  0  0  0  0  0  0  0  0
  1  2  1  0  0  0  0
  1  6  1  0  0  0  0
  2  3  1  0  0  0  0
  3  4  1  0  0  0  0
  3  7  1  0  0  0  0
  4  5  1  0  0  0  0
  5  6  1  0  0  0  0
  7  8  2  0  0  0  0
  7 31  1  0  0  0  0
  8  9  1  0  0  0  0
  9 10  2  0  0  0  0
 10 11  1  0  0  0  0
 10 30  1  0  0  0  0
 11 12  1  0  0  0  0
 12 13  2  0  0  0  0
 12 20  1  0  0  0  0
 13 14  1  0  0  0  0
 14 15  2  0  0  0  0
 14 21  1  0  0  0  0
 15 16  1  0  0  0  0
 16 17  1  0  0  0  0
 16 20  1  0  0  0  0
 17 18  2  0  0  0  0
 18 19  1  0  0  0  0
 19 20  2  0  0  0  0
 21 22  1  0  0  0  0
 21 29  1  0  0  0  0
 22 23  2  0  0  0  0
 23 24  1  0  0  0  0
 24 25  2  0  0  0  0
 24 28  1  0  0  0  0
 25 26  1  0  0  0  0
 26 27  2  0  0  0  0
 27 28  1  0  0  0  0
 28 29  2  0  0  0  0
 30 31  2  0  0  0  0
  1 32  1  0  0  0  0
  1 33  1  0  0  0  0
  2 34  1  0  0  0  0
  2 35  1  0  0  0  0
  3 36  1  0  0  0  0
  4 37  1  0  0  0  0
  4 38  1  0  0  0  0
  5 39  1  0  0  0  0
  5 40  1  0  0  0  0
  8 41  1  0  0  0  0
  9 42  1  0  0  0  0
 11 43  1  0  0  0  0
 15 44  1  0  0  0  0
 17 45  1  0  0  0  0
 18 46  1  0  0  0  0
 21 47  1  0  0  0  0
 22 48  1  0  0  0  0
 23 49  1  0  0  0  0
 25 50  1  0  0  0  0
 29 51  1  0  0  0  0
 30 52  1  0  0  0  0
 31 53  1  0  0  0  0
M  END
> <IC50[nM]>
3.8

$$$$
CHEMBL3265034
  -OEChem-05192314333D
 Structure written by MMmdl.
 53 58  0     1  0  0  0  0  0999 V2000
   -5.7484   -4.1352   14.0916 C   0  0  0  0  0  0  0  0  0  0  0  0
   -4.2467   -3.7965   14.1043 C   0  0  0  0  0  0  0  0  0  0  0  0
   -4.0046   -2.3867   14.6667 C   0  0  0  0  0  0  0  0  0  0  0  0
   -4.7211   -2.2350   16.0203 C   0  0  0  0  0  0  0  0  0  0  0  0
   -6.1989   -2.6529   15.9141 C   0  0  0  0  0  0  0  0  0  0  0  0
   -6.2949   -3.9790   15.3990 O   0  0  0  0  0  0  0  0  0  0  0  0
   -2.5163   -2.1019   14.8026 C   0  0  0  0  0  0  0  0  0  0  0  0
   -1.7444   -2.8650   15.6773 C   0  0  0  0  0  0  0  0  0  0  0  0
   -0.3947   -2.6068   15.8182 C   0  0  0  0  0  0  0  0  0  0  0  0
    0.2168   -1.5789   15.0929 C   0  0  0  0  0  0  0  0  0  0  0  0
    1.5959   -1.3413   15.3408 N   0  0  0  0  0  0  0  0  0  0  0  0
    2.5346   -0.4433   14.7633 C   0  0  0  0  0  0  0  0  0  0  0  0
    2.1825    0.3683   13.7202 N   0  0  0  0  0  0  0  0  0  0  0  0
    3.1144    1.2372   13.2163 C   0  0  0  0  0  0  0  0  0  0  0  0
    4.4190    1.2837   13.7018 C   0  0  0  0  0  0  0  0  0  0  0  0
    4.7465    0.4877   14.7594 N   0  0  0  0  0  0  0  0  0  0  0  0
    5.8977    0.3771   15.4862 C   0  0  0  0  0  0  0  0  0  0  0  0
    5.5879   -0.5237   16.5292 C   0  0  0  0  0  0  0  0  0  0  0  0
    4.3754   -1.0416   16.3746 N   0  0  0  0  0  0  0  0  0  0  0  0
    3.8361   -0.3925   15.3266 C   0  0  0  0  0  0  0  0  0  0  0  0
    2.6384    2.1617   12.1197 C   0  0  0  0  0  0  0  0  0  0  0  0
    3.5461    2.6405   11.1618 C   0  0  0  0  0  0  0  0  0  0  0  0
    3.1445    3.4623   10.1105 C   0  0  0  0  0  0  0  0  0  0  0  0
    1.7985    3.8158   10.0184 C   0  0  0  0  0  0  0  0  0  0  0  0
    0.9907    4.5934    9.1205 C   0  0  0  0  0  0  0  0  0  0  0  0
   -0.2502    4.6054    9.5128 N   0  0  0  0  0  0  0  0  0  0  0  0
   -0.3377    3.8946   10.6262 N   0  0  0  0  0  0  0  0  0  0  0  0
    0.8856    3.3616   10.9945 C   0  0  3  0  0  0  0  0  0  0  0  0
    1.2735    2.5429   12.0624 C   0  0  0  0  0  0  0  0  0  0  0  0
   -0.5534   -0.8155   14.1947 C   0  0  0  0  0  0  0  0  0  0  0  0
   -1.9224   -1.0793   14.0569 C   0  0  0  0  0  0  0  0  0  0  0  0
   -6.2683   -3.4596   13.3964 H   0  0  0  0  0  0  0  0  0  0  0  0
   -5.8843   -5.1758   13.7620 H   0  0  0  0  0  0  0  0  0  0  0  0
   -3.7179   -4.5295   14.7312 H   0  0  0  0  0  0  0  0  0  0  0  0
   -3.8583   -3.8453   13.0763 H   0  0  0  0  0  0  0  0  0  0  0  0
   -4.4360   -1.6572   13.9654 H   0  0  0  0  0  0  0  0  0  0  0  0
   -4.2204   -2.8709   16.7652 H   0  0  0  0  0  0  0  0  0  0  0  0
   -4.6669   -1.1838   16.3398 H   0  0  0  0  0  0  0  0  0  0  0  0
   -6.6607   -2.6153   16.9118 H   0  0  0  0  0  0  0  0  0  0  0  0
   -6.7255   -1.9613   15.2400 H   0  0  0  0  0  0  0  0  0  0  0  0
   -2.2029   -3.6602   16.2464 H   0  0  0  0  0  0  0  0  0  0  0  0
    0.1953   -3.2056   16.4963 H   0  0  0  0  0  0  0  0  0  0  0  0
    1.9808   -1.9178   16.0615 H   0  0  0  0  0  0  0  0  0  0  0  0
    5.1537    1.9347   13.2514 H   0  0  0  0  0  0  0  0  0  0  0  0
    6.8404    0.8712   15.3031 H   0  0  0  0  0  0  0  0  0  0  0  0
    6.2521   -0.7606   17.3472 H   0  0  0  0  0  0  0  0  0  0  0  0
    4.5869    2.3636   11.2421 H   0  0  0  0  0  0  0  0  0  0  0  0
    3.8596    3.8175    9.3833 H   0  0  0  0  0  0  0  0  0  0  0  0
    1.3619    5.0985    8.2410 H   0  0  0  0  0  0  0  0  0  0  0  0
    1.0918    4.2542   11.6033 H   0  0  0  0  0  0  0  0  0  0  0  0
    0.5648    2.2163   12.8091 H   0  0  0  0  0  0  0  0  0  0  0  0
   -0.0910   -0.0304   13.6148 H   0  0  0  0  0  0  0  0  0  0  0  0
   -2.5192   -0.4925   13.3743 H   0  0  0  0  0  0  0  0  0  0  0  0
  1  2  1  0  0  0  0
  1  6  1  0  0  0  0
  2  3  1  0  0  0  0
  3  4  1  0  0  0  0
  3  7  1  0  0  0  0
  4  5  1  0  0  0  0
  5  6  1  0  0  0  0
  7  8  2  0  0  0  0
  7 31  1  0  0  0  0
  8  9  1  0  0  0  0
  9 10  2  0  0  0  0
 10 11  1  0  0  0  0
 10 30  1  0  0  0  0
 11 12  1  0  0  0  0
 12 13  2  0  0  0  0
 12 20  1  0  0  0  0
 13 14  1  0  0  0  0
 14 15  2  0  0  0  0
 14 21  1  0  0  0  0
 15 16  1  0  0  0  0
 16 17  1  0  0  0  0
 16 20  1  0  0  0  0
 17 18  2  0  0  0  0
 18 19  1  0  0  0  0
 19 20  2  0  0  0  0
 21 22  1  0  0  0  0
 21 29  2  0  0  0  0
 22 23  2  0  0  0  0
 23 24  1  0  0  0  0
 24 25  2  0  0  0  0
 24 28  1  0  0  0  0
 25 26  1  0  0  0  0
 26 27  2  0  0  0  0
 27 28  1  0  0  0  0
 28 29  1  0  0  0  0
 30 31  2  0  0  0  0
  1 32  1  0  0  0  0
  1 33  1  0  0  0  0
  2 34  1  0  0  0  0
  2 35  1  0  0  0  0
  3 36  1  0  0  0  0
  4 37  1  0  0  0  0
  4 38  1  0  0  0  0
  5 39  1  0  0  0  0
  5 40  1  0  0  0  0
  8 41  1  0  0  0  0
  9 42  1  0  0  0  0
 11 43  1  0  0  0  0
 15 44  1  0  0  0  0
 17 45  1  0  0  0  0
 18 46  1  0  0  0  0
 22 47  1  0  0  0  0
 23 48  1  0  0  0  0
 25 49  1  0  0  0  0
 28 50  1  0  0  0  0
 29 51  1  0  0  0  0
 30 52  1  0  0  0  0
 31 53  1  0  0  0  0
M  END
> <IC50[nM]>
3.8

$$$$
CHEMBL3265034
  -OEChem-05192314333D
 Structure written by MMmdl.
 53 58  0     0  0  0  0  0  0999 V2000
   -5.7484   -4.1352   14.0916 C   0  0  0  0  0  0  0  0  0  0  0  0
   -4.2467   -3.7965   14.1043 C   0  0  0  0  0  0  0  0  0  0  0  0
   -4.0046   -2.3867   14.6667 C   0  0  0  0  0  0  0  0  0  0  0  0
   -4.7211   -2.2350   16.0203 C   0  0  0  0  0  0  0  0  0  0  0  0
   -6.1989   -2.6529   15.9141 C   0  0  0  0  0  0  0  0  0  0  0  0
   -6.2949   -3.9790   15.3990 O   0  0  0  0  0  0  0  0  0  0  0  0
   -2.5163   -2.1019   14.8026 C   0  0  0  0  0  0  0  0  0  0  0  0
   -1.7444   -2.8650   15.6773 C   0  0  0  0  0  0  0  0  0  0  0  0
   -0.3947   -2.6068   15.8182 C   0  0  0  0  0  0  0  0  0  0  0  0
    0.2168   -1.5789   15.0929 C   0  0  0  0  0  0  0  0  0  0  0  0
    1.5959   -1.3413   15.3408 N   0  0  0  0  0  0  0  0  0  0  0  0
    2.5346   -0.4433   14.7633 C   0  0  0  0  0  0  0  0  0  0  0  0
    2.1825    0.3683   13.7202 N   0  0  0  0  0  0  0  0  0  0  0  0
    3.1144    1.2372   13.2163 C   0  0  0  0  0  0  0  0  0  0  0  0
    4.4190    1.2837   13.7018 C   0  0  0  0  0  0  0  0  0  0  0  0
    4.7465    0.4877   14.7594 N   0  0  0  0  0  0  0  0  0  0  0  0
    5.8977    0.3771   15.4862 C   0  0  0  0  0  0  0  0  0  0  0  0
    5.5879   -0.5237   16.5292 C   0  0  0  0  0  0  0  0  0  0  0  0
    4.3754   -1.0416   16.3746 N   0  0  0  0  0  0  0  0  0  0  0  0
    3.8361   -0.3925   15.3266 C   0  0  0  0  0  0  0  0  0  0  0  0
    2.6384    2.1617   12.1197 C   0  0  0  0  0  0  0  0  0  0  0  0
    3.5461    2.6405   11.1618 C   0  0  0  0  0  0  0  0  0  0  0  0
    3.1445    3.4623   10.1105 C   0  0  0  0  0  0  0  0  0  0  0  0
    1.7985    3.8158   10.0184 C   0  0  0  0  0  0  0  0  0  0  0  0
    0.9907    4.5934    9.1205 C   0  0  0  0  0  0  0  0  0  0  0  0
   -0.2502    4.6054    9.5128 N   0  0  0  0  0  0  0  0  0  0  0  0
   -0.3377    3.8946   10.6262 N   0  0  0  0  0  0  0  0  0  0  0  0
    0.8856    3.3616   10.9945 C   0  0  0  0  0  0  0  0  0  0  0  0
    1.2735    2.5429   12.0624 C   0  0  0  0  0  0  0  0  0  0  0  0
   -0.5534   -0.8155   14.1947 C   0  0  0  0  0  0  0  0  0  0  0  0
   -1.9224   -1.0793   14.0569 C   0  0  0  0  0  0  0  0  0  0  0  0
   -6.2683   -3.4596   13.3964 H   0  0  0  0  0  0  0  0  0  0  0  0
   -5.8843   -5.1758   13.7620 H   0  0  0  0  0  0  0  0  0  0  0  0
   -3.7179   -4.5295   14.7312 H   0  0  0  0  0  0  0  0  0  0  0  0
   -3.8583   -3.8453   13.0763 H   0  0  0  0  0  0  0  0  0  0  0  0
   -4.4360   -1.6572   13.9654 H   0  0  0  0  0  0  0  0  0  0  0  0
   -4.2204   -2.8709   16.7652 H   0  0  0  0  0  0  0  0  0  0  0  0
   -4.6669   -1.1838   16.3398 H   0  0  0  0  0  0  0  0  0  0  0  0
   -6.6607   -2.6153   16.9118 H   0  0  0  0  0  0  0  0  0  0  0  0
   -6.7255   -1.9613   15.2400 H   0  0  0  0  0  0  0  0  0  0  0  0
   -2.2029   -3.6602   16.2464 H   0  0  0  0  0  0  0  0  0  0  0  0
    0.1953   -3.2056   16.4963 H   0  0  0  0  0  0  0  0  0  0  0  0
    1.9808   -1.9178   16.0615 H   0  0  0  0  0  0  0  0  0  0  0  0
    5.1537    1.9347   13.2514 H   0  0  0  0  0  0  0  0  0  0  0  0
    6.8404    0.8712   15.3031 H   0  0  0  0  0  0  0  0  0  0  0  0
    6.2521   -0.7606   17.3472 H   0  0  0  0  0  0  0  0  0  0  0  0
    4.5869    2.3636   11.2421 H   0  0  0  0  0  0  0  0  0  0  0  0
    3.7206    4.3960   10.1900 H   0  0  0  0  0  0  0  0  0  0  0  0
    3.4094    2.9464    9.1758 H   0  0  0  0  0  0  0  0  0  0  0  0
    1.3619    5.0985    8.2410 H   0  0  0  0  0  0  0  0  0  0  0  0
    0.5648    2.2163   12.8091 H   0  0  0  0  0  0  0  0  0  0  0  0
   -0.0910   -0.0304   13.6148 H   0  0  0  0  0  0  0  0  0  0  0  0
   -2.5192   -0.4925   13.3743 H   0  0  0  0  0  0  0  0  0  0  0  0
  1  2  1  0  0  0  0
  1  6  1  0  0  0  0
  2  3  1  0  0  0  0
  3  4  1  0  0  0  0
  3  7  1  0  0  0  0
  4  5  1  0  0  0  0
  5  6  1  0  0  0  0
  7  8  2  0  0  0  0
  7 31  1  0  0  0  0
  8  9  1  0  0  0  0
  9 10  2  0  0  0  0
 10 11  1  0  0  0  0
 10 30  1  0  0  0  0
 11 12  1  0  0  0  0
 12 13  2  0  0  0  0
 12 20  1  0  0  0  0
 13 14  1  0  0  0  0
 14 15  2  0  0  0  0
 14 21  1  0  0  0  0
 15 16  1  0  0  0  0
 16 17  1  0  0  0  0
 16 20  1  0  0  0  0
 17 18  2  0  0  0  0
 18 19  1  0  0  0  0
 19 20  2  0  0  0  0
 21 22  2  0  0  0  0
 21 29  1  0  0  0  0
 22 23  1  0  0  0  0
 23 24  1  0  0  0  0
 24 25  2  0  0  0  0
 24 28  1  0  0  0  0
 25 26  1  0  0  0  0
 26 27  2  0  0  0  0
 27 28  1  0  0  0  0
 28 29  2  0  0  0  0
 30 31  2  0  0  0  0
  1 32  1  0  0  0  0
  1 33  1  0  0  0  0
  2 34  1  0  0  0  0
  2 35  1  0  0  0  0
  3 36  1  0  0  0  0
  4 37  1  0  0  0  0
  4 38  1  0  0  0  0
  5 39  1  0  0  0  0
  5 40  1  0  0  0  0
  8 41  1  0  0  0  0
  9 42  1  0  0  0  0
 11 43  1  0  0  0  0
 15 44  1  0  0  0  0
 17 45  1  0  0  0  0
 18 46  1  0  0  0  0
 22 47  1  0  0  0  0
 23 48  1  0  0  0  0
 23 49  1  0  0  0  0
 25 50  1  0  0  0  0
 29 51  1  0  0  0  0
 30 52  1  0  0  0  0
 31 53  1  0  0  0  0
M  END
> <IC50[nM]>
3.8

$$$$
CHEMBL3265034
  -OEChem-05192314333D
 Structure written by MMmdl.
 53 58  0     1  0  0  0  0  0999 V2000
   -5.7484   -4.1352   14.0916 C   0  0  0  0  0  0  0  0  0  0  0  0
   -4.2467   -3.7965   14.1043 C   0  0  0  0  0  0  0  0  0  0  0  0
   -4.0046   -2.3867   14.6667 C   0  0  0  0  0  0  0  0  0  0  0  0
   -4.7211   -2.2350   16.0203 C   0  0  0  0  0  0  0  0  0  0  0  0
   -6.1989   -2.6529   15.9141 C   0  0  0  0  0  0  0  0  0  0  0  0
   -6.2949   -3.9790   15.3990 O   0  0  0  0  0  0  0  0  0  0  0  0
   -2.5163   -2.1019   14.8026 C   0  0  0  0  0  0  0  0  0  0  0  0
   -1.7444   -2.8650   15.6773 C   0  0  0  0  0  0  0  0  0  0  0  0
   -0.3947   -2.6068   15.8182 C   0  0  0  0  0  0  0  0  0  0  0  0
    0.2168   -1.5789   15.0929 C   0  0  0  0  0  0  0  0  0  0  0  0
    1.5959   -1.3413   15.3408 N   0  0  0  0  0  0  0  0  0  0  0  0
    2.5346   -0.4433   14.7633 C   0  0  0  0  0  0  0  0  0  0  0  0
    2.1825    0.3683   13.7202 N   0  0  0  0  0  0  0  0  0  0  0  0
    3.1144    1.2372   13.2163 C   0  0  0  0  0  0  0  0  0  0  0  0
    4.4190    1.2837   13.7018 C   0  0  0  0  0  0  0  0  0  0  0  0
    4.7465    0.4877   14.7594 N   0  0  0  0  0  0  0  0  0  0  0  0
    5.8977    0.3771   15.4862 C   0  0  0  0  0  0  0  0  0  0  0  0
    5.5879   -0.5237   16.5292 C   0  0  0  0  0  0  0  0  0  0  0  0
    4.3754   -1.0416   16.3746 N   0  0  0  0  0  0  0  0  0  0  0  0
    3.8361   -0.3925   15.3266 C   0  0  0  0  0  0  0  0  0  0  0  0
    2.6384    2.1617   12.1197 C   0  0  0  0  0  0  0  0  0  0  0  0
    3.5461    2.6405   11.1618 C   0  0  0  0  0  0  0  0  0  0  0  0
    3.1445    3.4623   10.1105 C   0  0  0  0  0  0  0  0  0  0  0  0
    1.7985    3.8158   10.0184 C   0  0  3  0  0  0  0  0  0  0  0  0
    0.9907    4.5934    9.1205 C   0  0  0  0  0  0  0  0  0  0  0  0
   -0.2502    4.6054    9.5128 N   0  0  0  0  0  0  0  0  0  0  0  0
   -0.3377    3.8946   10.6262 N   0  0  0  0  0  0  0  0  0  0  0  0
    0.8856    3.3616   10.9945 C   0  0  0  0  0  0  0  0  0  0  0  0
    1.2735    2.5429   12.0624 C   0  0  0  0  0  0  0  0  0  0  0  0
   -0.5534   -0.8155   14.1947 C   0  0  0  0  0  0  0  0  0  0  0  0
   -1.9224   -1.0793   14.0569 C   0  0  0  0  0  0  0  0  0  0  0  0
   -6.2683   -3.4596   13.3964 H   0  0  0  0  0  0  0  0  0  0  0  0
   -5.8843   -5.1758   13.7620 H   0  0  0  0  0  0  0  0  0  0  0  0
   -3.7179   -4.5295   14.7312 H   0  0  0  0  0  0  0  0  0  0  0  0
   -3.8583   -3.8453   13.0763 H   0  0  0  0  0  0  0  0  0  0  0  0
   -4.4360   -1.6572   13.9654 H   0  0  0  0  0  0  0  0  0  0  0  0
   -4.2204   -2.8709   16.7652 H   0  0  0  0  0  0  0  0  0  0  0  0
   -4.6669   -1.1838   16.3398 H   0  0  0  0  0  0  0  0  0  0  0  0
   -6.6607   -2.6153   16.9118 H   0  0  0  0  0  0  0  0  0  0  0  0
   -6.7255   -1.9613   15.2400 H   0  0  0  0  0  0  0  0  0  0  0  0
   -2.2029   -3.6602   16.2464 H   0  0  0  0  0  0  0  0  0  0  0  0
    0.1953   -3.2056   16.4963 H   0  0  0  0  0  0  0  0  0  0  0  0
    1.2616    0.3283   13.3324 H   0  0  0  0  0  0  0  0  0  0  0  0
    5.1537    1.9347   13.2514 H   0  0  0  0  0  0  0  0  0  0  0  0
    6.8404    0.8712   15.3031 H   0  0  0  0  0  0  0  0  0  0  0  0
    6.2521   -0.7606   17.3472 H   0  0  0  0  0  0  0  0  0  0  0  0
    4.5869    2.3636   11.2421 H   0  0  0  0  0  0  0  0  0  0  0  0
    3.8596    3.8175    9.3833 H   0  0  0  0  0  0  0  0  0  0  0  0
    1.6029    2.9163    9.4162 H   0  0  0  0  0  0  0  0  0  0  0  0
    1.3619    5.0985    8.2410 H   0  0  0  0  0  0  0  0  0  0  0  0
    0.5648    2.2163   12.8091 H   0  0  0  0  0  0  0  0  0  0  0  0
   -0.0910   -0.0304   13.6148 H   0  0  0  0  0  0  0  0  0  0  0  0
   -2.5192   -0.4925   13.3743 H   0  0  0  0  0  0  0  0  0  0  0  0
  1  2  1  0  0  0  0
  1  6  1  0  0  0  0
  2  3  1  0  0  0  0
  3  4  1  0  0  0  0
  3  7  1  0  0  0  0
  4  5  1  0  0  0  0
  5  6  1  0  0  0  0
  7  8  2  0  0  0  0
  7 31  1  0  0  0  0
  8  9  1  0  0  0  0
  9 10  2  0  0  0  0
 10 11  1  0  0  0  0
 10 30  1  0  0  0  0
 11 12  2  0  0  0  0
 12 13  1  0  0  0  0
 12 20  1  0  0  0  0
 13 14  1  0  0  0  0
 14 15  2  0  0  0  0
 14 21  1  0  0  0  0
 15 16  1  0  0  0  0
 16 17  1  0  0  0  0
 16 20  1  0  0  0  0
 17 18  2  0  0  0  0
 18 19  1  0  0  0  0
 19 20  2  0  0  0  0
 21 22  1  0  0  0  0
 21 29  2  0  0  0  0
 22 23  2  0  0  0  0
 23 24  1  0  0  0  0
 24 25  1  0  0  0  0
 24 28  1  0  0  0  0
 25 26  2  0  0  0  0
 26 27  1  0  0  0  0
 27 28  2  0  0  0  0
 28 29  1  0  0  0  0
 30 31  2  0  0  0  0
  1 32  1  0  0  0  0
  1 33  1  0  0  0  0
  2 34  1  0  0  0  0
  2 35  1  0  0  0  0
  3 36  1  0  0  0  0
  4 37  1  0  0  0  0
  4 38  1  0  0  0  0
  5 39  1  0  0  0  0
  5 40  1  0  0  0  0
  8 41  1  0  0  0  0
  9 42  1  0  0  0  0
 13 43  1  0  0  0  0
 15 44  1  0  0  0  0
 17 45  1  0  0  0  0
 18 46  1  0  0  0  0
 22 47  1  0  0  0  0
 23 48  1  0  0  0  0
 24 49  1  0  0  0  0
 25 50  1  0  0  0  0
 29 51  1  0  0  0  0
 30 52  1  0  0  0  0
 31 53  1  0  0  0  0
M  END
> <IC50[nM]>
3.8

$$$$
CHEMBL3265034
  -OEChem-05192314333D
 Structure written by MMmdl.
 53 58  0     0  0  0  0  0  0999 V2000
   -5.7484   -4.1352   14.0916 C   0  0  0  0  0  0  0  0  0  0  0  0
   -4.2467   -3.7965   14.1043 C   0  0  0  0  0  0  0  0  0  0  0  0
   -4.0046   -2.3867   14.6667 C   0  0  0  0  0  0  0  0  0  0  0  0
   -4.7211   -2.2350   16.0203 C   0  0  0  0  0  0  0  0  0  0  0  0
   -6.1989   -2.6529   15.9141 C   0  0  0  0  0  0  0  0  0  0  0  0
   -6.2949   -3.9790   15.3990 O   0  0  0  0  0  0  0  0  0  0  0  0
   -2.5163   -2.1019   14.8026 C   0  0  0  0  0  0  0  0  0  0  0  0
   -1.7444   -2.8650   15.6773 C   0  0  0  0  0  0  0  0  0  0  0  0
   -0.3947   -2.6068   15.8182 C   0  0  0  0  0  0  0  0  0  0  0  0
    0.2168   -1.5789   15.0929 C   0  0  0  0  0  0  0  0  0  0  0  0
    1.5959   -1.3413   15.3408 N   0  0  0  0  0  0  0  0  0  0  0  0
    2.5346   -0.4433   14.7633 C   0  0  0  0  0  0  0  0  0  0  0  0
    2.1825    0.3683   13.7202 N   0  0  0  0  0  0  0  0  0  0  0  0
    3.1144    1.2372   13.2163 C   0  0  0  0  0  0  0  0  0  0  0  0
    4.4190    1.2837   13.7018 C   0  0  0  0  0  0  0  0  0  0  0  0
    4.7465    0.4877   14.7594 N   0  0  0  0  0  0  0  0  0  0  0  0
    5.8977    0.3771   15.4862 C   0  0  0  0  0  0  0  0  0  0  0  0
    5.5879   -0.5237   16.5292 C   0  0  0  0  0  0  0  0  0  0  0  0
    4.3754   -1.0416   16.3746 N   0  0  0  0  0  0  0  0  0  0  0  0
    3.8361   -0.3925   15.3266 C   0  0  0  0  0  0  0  0  0  0  0  0
    2.6384    2.1617   12.1197 C   0  0  0  0  0  0  0  0  0  0  0  0
    3.5461    2.6405   11.1618 C   0  0  0  0  0  0  0  0  0  0  0  0
    3.1445    3.4623   10.1105 C   0  0  0  0  0  0  0  0  0  0  0  0
    1.7985    3.8158   10.0184 C   0  0  0  0  0  0  0  0  0  0  0  0
    0.9907    4.5934    9.1205 C   0  0  0  0  0  0  0  0  0  0  0  0
   -0.2502    4.6054    9.5128 N   0  0  0  0  0  0  0  0  0  0  0  0
   -0.3377    3.8946   10.6262 N   0  0  0  0  0  0  0  0  0  0  0  0
    0.8856    3.3616   10.9945 C   0  0  0  0  0  0  0  0  0  0  0  0
    1.2735    2.5429   12.0624 C   0  0  0  0  0  0  0  0  0  0  0  0
   -0.5534   -0.8155   14.1947 C   0  0  0  0  0  0  0  0  0  0  0  0
   -1.9224   -1.0793   14.0569 C   0  0  0  0  0  0  0  0  0  0  0  0
   -6.2683   -3.4596   13.3964 H   0  0  0  0  0  0  0  0  0  0  0  0
   -5.8843   -5.1758   13.7620 H   0  0  0  0  0  0  0  0  0  0  0  0
   -3.7179   -4.5295   14.7312 H   0  0  0  0  0  0  0  0  0  0  0  0
   -3.8583   -3.8453   13.0763 H   0  0  0  0  0  0  0  0  0  0  0  0
   -4.4360   -1.6572   13.9654 H   0  0  0  0  0  0  0  0  0  0  0  0
   -4.2204   -2.8709   16.7652 H   0  0  0  0  0  0  0  0  0  0  0  0
   -4.6669   -1.1838   16.3398 H   0  0  0  0  0  0  0  0  0  0  0  0
   -6.6607   -2.6153   16.9118 H   0  0  0  0  0  0  0  0  0  0  0  0
   -6.7255   -1.9613   15.2400 H   0  0  0  0  0  0  0  0  0  0  0  0
   -2.2029   -3.6602   16.2464 H   0  0  0  0  0  0  0  0  0  0  0  0
    0.1953   -3.2056   16.4963 H   0  0  0  0  0  0  0  0  0  0  0  0
    1.2616    0.3283   13.3324 H   0  0  0  0  0  0  0  0  0  0  0  0
    5.1537    1.9347   13.2514 H   0  0  0  0  0  0  0  0  0  0  0  0
    6.8404    0.8712   15.3031 H   0  0  0  0  0  0  0  0  0  0  0  0
    6.2521   -0.7606   17.3472 H   0  0  0  0  0  0  0  0  0  0  0  0
    4.3118    3.2024   11.7168 H   0  0  0  0  0  0  0  0  0  0  0  0
    4.0045    1.7530   10.7012 H   0  0  0  0  0  0  0  0  0  0  0  0
    3.8596    3.8175    9.3833 H   0  0  0  0  0  0  0  0  0  0  0  0
    1.3619    5.0985    8.2410 H   0  0  0  0  0  0  0  0  0  0  0  0
    0.5648    2.2163   12.8091 H   0  0  0  0  0  0  0  0  0  0  0  0
   -0.0910   -0.0304   13.6148 H   0  0  0  0  0  0  0  0  0  0  0  0
   -2.5192   -0.4925   13.3743 H   0  0  0  0  0  0  0  0  0  0  0  0
  1  2  1  0  0  0  0
  1  6  1  0  0  0  0
  2  3  1  0  0  0  0
  3  4  1  0  0  0  0
  3  7  1  0  0  0  0
  4  5  1  0  0  0  0
  5  6  1  0  0  0  0
  7  8  2  0  0  0  0
  7 31  1  0  0  0  0
  8  9  1  0  0  0  0
  9 10  2  0  0  0  0
 10 11  1  0  0  0  0
 10 30  1  0  0  0  0
 11 12  2  0  0  0  0
 12 13  1  0  0  0  0
 12 20  1  0  0  0  0
 13 14  1  0  0  0  0
 14 15  2  0  0  0  0
 14 21  1  0  0  0  0
 15 16  1  0  0  0  0
 16 17  1  0  0  0  0
 16 20  1  0  0  0  0
 17 18  2  0  0  0  0
 18 19  1  0  0  0  0
 19 20  2  0  0  0  0
 21 22  1  0  0  0  0
 21 29  2  0  0  0  0
 22 23  1  0  0  0  0
 23 24  2  0  0  0  0
 24 25  1  0  0  0  0
 24 28  1  0  0  0  0
 25 26  2  0  0  0  0
 26 27  1  0  0  0  0
 27 28  2  0  0  0  0
 28 29  1  0  0  0  0
 30 31  2  0  0  0  0
  1 32  1  0  0  0  0
  1 33  1  0  0  0  0
  2 34  1  0  0  0  0
  2 35  1  0  0  0  0
  3 36  1  0  0  0  0
  4 37  1  0  0  0  0
  4 38  1  0  0  0  0
  5 39  1  0  0  0  0
  5 40  1  0  0  0  0
  8 41  1  0  0  0  0
  9 42  1  0  0  0  0
 13 43  1  0  0  0  0
 15 44  1  0  0  0  0
 17 45  1  0  0  0  0
 18 46  1  0  0  0  0
 22 47  1  0  0  0  0
 22 48  1  0  0  0  0
 23 49  1  0  0  0  0
 25 50  1  0  0  0  0
 29 51  1  0  0  0  0
 30 52  1  0  0  0  0
 31 53  1  0  0  0  0
M  END
> <IC50[nM]>
3.8

$$$$
CHEMBL3265034
  -OEChem-05192314333D
 Structure written by MMmdl.
 53 58  0     0  0  0  0  0  0999 V2000
   -5.7484   -4.1352   14.0916 C   0  0  0  0  0  0  0  0  0  0  0  0
   -4.2467   -3.7965   14.1043 C   0  0  0  0  0  0  0  0  0  0  0  0
   -4.0046   -2.3867   14.6667 C   0  0  0  0  0  0  0  0  0  0  0  0
   -4.7211   -2.2350   16.0203 C   0  0  0  0  0  0  0  0  0  0  0  0
   -6.1989   -2.6529   15.9141 C   0  0  0  0  0  0  0  0  0  0  0  0
   -6.2949   -3.9790   15.3990 O   0  0  0  0  0  0  0  0  0  0  0  0
   -2.5163   -2.1019   14.8026 C   0  0  0  0  0  0  0  0  0  0  0  0
   -1.7444   -2.8650   15.6773 C   0  0  0  0  0  0  0  0  0  0  0  0
   -0.3947   -2.6068   15.8182 C   0  0  0  0  0  0  0  0  0  0  0  0
    0.2168   -1.5789   15.0929 C   0  0  0  0  0  0  0  0  0  0  0  0
    1.5959   -1.3413   15.3408 N   0  0  0  0  0  0  0  0  0  0  0  0
    2.5346   -0.4433   14.7633 C   0  0  0  0  0  0  0  0  0  0  0  0
    2.1825    0.3683   13.7202 N   0  0  0  0  0  0  0  0  0  0  0  0
    3.1144    1.2372   13.2163 C   0  0  0  0  0  0  0  0  0  0  0  0
    4.4190    1.2837   13.7018 C   0  0  0  0  0  0  0  0  0  0  0  0
    4.7465    0.4877   14.7594 N   0  0  0  0  0  0  0  0  0  0  0  0
    5.8977    0.3771   15.4862 C   0  0  0  0  0  0  0  0  0  0  0  0
    5.5879   -0.5237   16.5292 C   0  0  0  0  0  0  0  0  0  0  0  0
    4.3754   -1.0416   16.3746 N   0  0  0  0  0  0  0  0  0  0  0  0
    3.8361   -0.3925   15.3266 C   0  0  0  0  0  0  0  0  0  0  0  0
    2.6384    2.1617   12.1197 C   0  0  0  0  0  0  0  0  0  0  0  0
    3.5461    2.6405   11.1618 C   0  0  0  0  0  0  0  0  0  0  0  0
    3.1445    3.4623   10.1105 C   0  0  0  0  0  0  0  0  0  0  0  0
    1.7985    3.8158   10.0184 C   0  0  0  0  0  0  0  0  0  0  0  0
    0.9907    4.5934    9.1205 C   0  0  0  0  0  0  0  0  0  0  0  0
   -0.2502    4.6054    9.5128 N   0  0  0  0  0  0  0  0  0  0  0  0
   -0.3377    3.8946   10.6262 N   0  0  0  0  0  0  0  0  0  0  0  0
    0.8856    3.3616   10.9945 C   0  0  0  0  0  0  0  0  0  0  0  0
    1.2735    2.5429   12.0624 C   0  0  0  0  0  0  0  0  0  0  0  0
   -0.5534   -0.8155   14.1947 C   0  0  0  0  0  0  0  0  0  0  0  0
   -1.9224   -1.0793   14.0569 C   0  0  0  0  0  0  0  0  0  0  0  0
   -6.2683   -3.4596   13.3964 H   0  0  0  0  0  0  0  0  0  0  0  0
   -5.8843   -5.1758   13.7620 H   0  0  0  0  0  0  0  0  0  0  0  0
   -3.7179   -4.5295   14.7312 H   0  0  0  0  0  0  0  0  0  0  0  0
   -3.8583   -3.8453   13.0763 H   0  0  0  0  0  0  0  0  0  0  0  0
   -4.4360   -1.6572   13.9654 H   0  0  0  0  0  0  0  0  0  0  0  0
   -4.2204   -2.8709   16.7652 H   0  0  0  0  0  0  0  0  0  0  0  0
   -4.6669   -1.1838   16.3398 H   0  0  0  0  0  0  0  0  0  0  0  0
   -6.6607   -2.6153   16.9118 H   0  0  0  0  0  0  0  0  0  0  0  0
   -6.7255   -1.9613   15.2400 H   0  0  0  0  0  0  0  0  0  0  0  0
   -2.2029   -3.6602   16.2464 H   0  0  0  0  0  0  0  0  0  0  0  0
    0.1953   -3.2056   16.4963 H   0  0  0  0  0  0  0  0  0  0  0  0
    1.2616    0.3283   13.3324 H   0  0  0  0  0  0  0  0  0  0  0  0
    5.1537    1.9347   13.2514 H   0  0  0  0  0  0  0  0  0  0  0  0
    6.8404    0.8712   15.3031 H   0  0  0  0  0  0  0  0  0  0  0  0
    6.2521   -0.7606   17.3472 H   0  0  0  0  0  0  0  0  0  0  0  0
    4.5869    2.3636   11.2421 H   0  0  0  0  0  0  0  0  0  0  0  0
    3.8596    3.8175    9.3833 H   0  0  0  0  0  0  0  0  0  0  0  0
    1.3619    5.0985    8.2410 H   0  0  0  0  0  0  0  0  0  0  0  0
    0.6739    1.6222   12.0093 H   0  0  0  0  0  0  0  0  0  0  0  0
    1.0396    3.0795   12.9937 H   0  0  0  0  0  0  0  0  0  0  0  0
   -0.0910   -0.0304   13.6148 H   0  0  0  0  0  0  0  0  0  0  0  0
   -2.5192   -0.4925   13.3743 H   0  0  0  0  0  0  0  0  0  0  0  0
  1  2  1  0  0  0  0
  1  6  1  0  0  0  0
  2  3  1  0  0  0  0
  3  4  1  0  0  0  0
  3  7  1  0  0  0  0
  4  5  1  0  0  0  0
  5  6  1  0  0  0  0
  7  8  2  0  0  0  0
  7 31  1  0  0  0  0
  8  9  1  0  0  0  0
  9 10  2  0  0  0  0
 10 11  1  0  0  0  0
 10 30  1  0  0  0  0
 11 12  2  0  0  0  0
 12 13  1  0  0  0  0
 12 20  1  0  0  0  0
 13 14  1  0  0  0  0
 14 15  2  0  0  0  0
 14 21  1  0  0  0  0
 15 16  1  0  0  0  0
 16 17  1  0  0  0  0
 16 20  1  0  0  0  0
 17 18  2  0  0  0  0
 18 19  1  0  0  0  0
 19 20  2  0  0  0  0
 21 22  2  0  0  0  0
 21 29  1  0  0  0  0
 22 23  1  0  0  0  0
 23 24  2  0  0  0  0
 24 25  1  0  0  0  0
 24 28  1  0  0  0  0
 25 26  2  0  0  0  0
 26 27  1  0  0  0  0
 27 28  2  0  0  0  0
 28 29  1  0  0  0  0
 30 31  2  0  0  0  0
  1 32  1  0  0  0  0
  1 33  1  0  0  0  0
  2 34  1  0  0  0  0
  2 35  1  0  0  0  0
  3 36  1  0  0  0  0
  4 37  1  0  0  0  0
  4 38  1  0  0  0  0
  5 39  1  0  0  0  0
  5 40  1  0  0  0  0
  8 41  1  0  0  0  0
  9 42  1  0  0  0  0
 13 43  1  0  0  0  0
 15 44  1  0  0  0  0
 17 45  1  0  0  0  0
 18 46  1  0  0  0  0
 22 47  1  0  0  0  0
 23 48  1  0  0  0  0
 25 49  1  0  0  0  0
 29 50  1  0  0  0  0
 29 51  1  0  0  0  0
 30 52  1  0  0  0  0
 31 53  1  0  0  0  0
M  END
> <IC50[nM]>
3.8

$$$$
CHEMBL3265034
  -OEChem-05192314333D
 Structure written by MMmdl.
 53 58  0     1  0  0  0  0  0999 V2000
   -5.7484   -4.1352   14.0916 C   0  0  0  0  0  0  0  0  0  0  0  0
   -4.2467   -3.7965   14.1043 C   0  0  0  0  0  0  0  0  0  0  0  0
   -4.0046   -2.3867   14.6667 C   0  0  0  0  0  0  0  0  0  0  0  0
   -4.7211   -2.2350   16.0203 C   0  0  0  0  0  0  0  0  0  0  0  0
   -6.1989   -2.6529   15.9141 C   0  0  0  0  0  0  0  0  0  0  0  0
   -6.2949   -3.9790   15.3990 O   0  0  0  0  0  0  0  0  0  0  0  0
   -2.5163   -2.1019   14.8026 C   0  0  0  0  0  0  0  0  0  0  0  0
   -1.7444   -2.8650   15.6773 C   0  0  0  0  0  0  0  0  0  0  0  0
   -0.3947   -2.6068   15.8182 C   0  0  0  0  0  0  0  0  0  0  0  0
    0.2168   -1.5789   15.0929 C   0  0  0  0  0  0  0  0  0  0  0  0
    1.5959   -1.3413   15.3408 N   0  0  0  0  0  0  0  0  0  0  0  0
    2.5346   -0.4433   14.7633 C   0  0  0  0  0  0  0  0  0  0  0  0
    2.1825    0.3683   13.7202 N   0  0  0  0  0  0  0  0  0  0  0  0
    3.1144    1.2372   13.2163 C   0  0  0  0  0  0  0  0  0  0  0  0
    4.4190    1.2837   13.7018 C   0  0  0  0  0  0  0  0  0  0  0  0
    4.7465    0.4877   14.7594 N   0  0  0  0  0  0  0  0  0  0  0  0
    5.8977    0.3771   15.4862 C   0  0  0  0  0  0  0  0  0  0  0  0
    5.5879   -0.5237   16.5292 C   0  0  0  0  0  0  0  0  0  0  0  0
    4.3754   -1.0416   16.3746 N   0  0  0  0  0  0  0  0  0  0  0  0
    3.8361   -0.3925   15.3266 C   0  0  0  0  0  0  0  0  0  0  0  0
    2.6384    2.1617   12.1197 C   0  0  3  0  0  0  0  0  0  0  0  0
    3.5461    2.6405   11.1618 C   0  0  0  0  0  0  0  0  0  0  0  0
    3.1445    3.4623   10.1105 C   0  0  0  0  0  0  0  0  0  0  0  0
    1.7985    3.8158   10.0184 C   0  0  0  0  0  0  0  0  0  0  0  0
    0.9907    4.5934    9.1205 C   0  0  0  0  0  0  0  0  0  0  0  0
   -0.2502    4.6054    9.5128 N   0  0  0  0  0  0  0  0  0  0  0  0
   -0.3377    3.8946   10.6262 N   0  0  0  0  0  0  0  0  0  0  0  0
    0.8856    3.3616   10.9945 C   0  0  0  0  0  0  0  0  0  0  0  0
    1.2735    2.5429   12.0624 C   0  0  0  0  0  0  0  0  0  0  0  0
   -0.5534   -0.8155   14.1947 C   0  0  0  0  0  0  0  0  0  0  0  0
   -1.9224   -1.0793   14.0569 C   0  0  0  0  0  0  0  0  0  0  0  0
   -6.2683   -3.4596   13.3964 H   0  0  0  0  0  0  0  0  0  0  0  0
   -5.8843   -5.1758   13.7620 H   0  0  0  0  0  0  0  0  0  0  0  0
   -3.7179   -4.5295   14.7312 H   0  0  0  0  0  0  0  0  0  0  0  0
   -3.8583   -3.8453   13.0763 H   0  0  0  0  0  0  0  0  0  0  0  0
   -4.4360   -1.6572   13.9654 H   0  0  0  0  0  0  0  0  0  0  0  0
   -4.2204   -2.8709   16.7652 H   0  0  0  0  0  0  0  0  0  0  0  0
   -4.6669   -1.1838   16.3398 H   0  0  0  0  0  0  0  0  0  0  0  0
   -6.6607   -2.6153   16.9118 H   0  0  0  0  0  0  0  0  0  0  0  0
   -6.7255   -1.9613   15.2400 H   0  0  0  0  0  0  0  0  0  0  0  0
   -2.2029   -3.6602   16.2464 H   0  0  0  0  0  0  0  0  0  0  0  0
    0.1953   -3.2056   16.4963 H   0  0  0  0  0  0  0  0  0  0  0  0
    1.2616    0.3283   13.3324 H   0  0  0  0  0  0  0  0  0  0  0  0
    5.1537    1.9347   13.2514 H   0  0  0  0  0  0  0  0  0  0  0  0
    6.8404    0.8712   15.3031 H   0  0  0  0  0  0  0  0  0  0  0  0
    6.2521   -0.7606   17.3472 H   0  0  0  0  0  0  0  0  0  0  0  0
    2.4225    1.2927   11.4808 H   0  0  0  0  0  0  0  0  0  0  0  0
    4.5869    2.3636   11.2421 H   0  0  0  0  0  0  0  0  0  0  0  0
    3.8596    3.8175    9.3833 H   0  0  0  0  0  0  0  0  0  0  0  0
    1.3619    5.0985    8.2410 H   0  0  0  0  0  0  0  0  0  0  0  0
    0.5648    2.2163   12.8091 H   0  0  0  0  0  0  0  0  0  0  0  0
   -0.0910   -0.0304   13.6148 H   0  0  0  0  0  0  0  0  0  0  0  0
   -2.5192   -0.4925   13.3743 H   0  0  0  0  0  0  0  0  0  0  0  0
  1  2  1  0  0  0  0
  1  6  1  0  0  0  0
  2  3  1  0  0  0  0
  3  4  1  0  0  0  0
  3  7  1  0  0  0  0
  4  5  1  0  0  0  0
  5  6  1  0  0  0  0
  7  8  2  0  0  0  0
  7 31  1  0  0  0  0
  8  9  1  0  0  0  0
  9 10  2  0  0  0  0
 10 11  1  0  0  0  0
 10 30  1  0  0  0  0
 11 12  2  0  0  0  0
 12 13  1  0  0  0  0
 12 20  1  0  0  0  0
 13 14  1  0  0  0  0
 14 15  2  0  0  0  0
 14 21  1  0  0  0  0
 15 16  1  0  0  0  0
 16 17  1  0  0  0  0
 16 20  1  0  0  0  0
 17 18  2  0  0  0  0
 18 19  1  0  0  0  0
 19 20  2  0  0  0  0
 21 22  1  0  0  0  0
 21 29  1  0  0  0  0
 22 23  2  0  0  0  0
 23 24  1  0  0  0  0
 24 25  2  0  0  0  0
 24 28  1  0  0  0  0
 25 26  1  0  0  0  0
 26 27  2  0  0  0  0
 27 28  1  0  0  0  0
 28 29  2  0  0  0  0
 30 31  2  0  0  0  0
  1 32  1  0  0  0  0
  1 33  1  0  0  0  0
  2 34  1  0  0  0  0
  2 35  1  0  0  0  0
  3 36  1  0  0  0  0
  4 37  1  0  0  0  0
  4 38  1  0  0  0  0
  5 39  1  0  0  0  0
  5 40  1  0  0  0  0
  8 41  1  0  0  0  0
  9 42  1  0  0  0  0
 13 43  1  0  0  0  0
 15 44  1  0  0  0  0
 17 45  1  0  0  0  0
 18 46  1  0  0  0  0
 21 47  1  0  0  0  0
 22 48  1  0  0  0  0
 23 49  1  0  0  0  0
 25 50  1  0  0  0  0
 29 51  1  0  0  0  0
 30 52  1  0  0  0  0
 31 53  1  0  0  0  0
M  END
> <IC50[nM]>
3.8

$$$$
CHEMBL3265034
  -OEChem-05192314333D
 Structure written by MMmdl.
 53 58  0     1  0  0  0  0  0999 V2000
   -5.7484   -4.1352   14.0916 C   0  0  0  0  0  0  0  0  0  0  0  0
   -4.2467   -3.7965   14.1043 C   0  0  0  0  0  0  0  0  0  0  0  0
   -4.0046   -2.3867   14.6667 C   0  0  0  0  0  0  0  0  0  0  0  0
   -4.7211   -2.2350   16.0203 C   0  0  0  0  0  0  0  0  0  0  0  0
   -6.1989   -2.6529   15.9141 C   0  0  0  0  0  0  0  0  0  0  0  0
   -6.2949   -3.9790   15.3990 O   0  0  0  0  0  0  0  0  0  0  0  0
   -2.5163   -2.1019   14.8026 C   0  0  0  0  0  0  0  0  0  0  0  0
   -1.7444   -2.8650   15.6773 C   0  0  0  0  0  0  0  0  0  0  0  0
   -0.3947   -2.6068   15.8182 C   0  0  0  0  0  0  0  0  0  0  0  0
    0.2168   -1.5789   15.0929 C   0  0  0  0  0  0  0  0  0  0  0  0
    1.5959   -1.3413   15.3408 N   0  0  0  0  0  0  0  0  0  0  0  0
    2.5346   -0.4433   14.7633 C   0  0  0  0  0  0  0  0  0  0  0  0
    2.1825    0.3683   13.7202 N   0  0  0  0  0  0  0  0  0  0  0  0
    3.1144    1.2372   13.2163 C   0  0  0  0  0  0  0  0  0  0  0  0
    4.4190    1.2837   13.7018 C   0  0  0  0  0  0  0  0  0  0  0  0
    4.7465    0.4877   14.7594 N   0  0  0  0  0  0  0  0  0  0  0  0
    5.8977    0.3771   15.4862 C   0  0  0  0  0  0  0  0  0  0  0  0
    5.5879   -0.5237   16.5292 C   0  0  0  0  0  0  0  0  0  0  0  0
    4.3754   -1.0416   16.3746 N   0  0  0  0  0  0  0  0  0  0  0  0
    3.8361   -0.3925   15.3266 C   0  0  0  0  0  0  0  0  0  0  0  0
    2.6384    2.1617   12.1197 C   0  0  0  0  0  0  0  0  0  0  0  0
    3.5461    2.6405   11.1618 C   0  0  0  0  0  0  0  0  0  0  0  0
    3.1445    3.4623   10.1105 C   0  0  0  0  0  0  0  0  0  0  0  0
    1.7985    3.8158   10.0184 C   0  0  0  0  0  0  0  0  0  0  0  0
    0.9907    4.5934    9.1205 C   0  0  0  0  0  0  0  0  0  0  0  0
   -0.2502    4.6054    9.5128 N   0  0  0  0  0  0  0  0  0  0  0  0
   -0.3377    3.8946   10.6262 N   0  0  0  0  0  0  0  0  0  0  0  0
    0.8856    3.3616   10.9945 C   0  0  3  0  0  0  0  0  0  0  0  0
    1.2735    2.5429   12.0624 C   0  0  0  0  0  0  0  0  0  0  0  0
   -0.5534   -0.8155   14.1947 C   0  0  0  0  0  0  0  0  0  0  0  0
   -1.9224   -1.0793   14.0569 C   0  0  0  0  0  0  0  0  0  0  0  0
   -6.2683   -3.4596   13.3964 H   0  0  0  0  0  0  0  0  0  0  0  0
   -5.8843   -5.1758   13.7620 H   0  0  0  0  0  0  0  0  0  0  0  0
   -3.7179   -4.5295   14.7312 H   0  0  0  0  0  0  0  0  0  0  0  0
   -3.8583   -3.8453   13.0763 H   0  0  0  0  0  0  0  0  0  0  0  0
   -4.4360   -1.6572   13.9654 H   0  0  0  0  0  0  0  0  0  0  0  0
   -4.2204   -2.8709   16.7652 H   0  0  0  0  0  0  0  0  0  0  0  0
   -4.6669   -1.1838   16.3398 H   0  0  0  0  0  0  0  0  0  0  0  0
   -6.6607   -2.6153   16.9118 H   0  0  0  0  0  0  0  0  0  0  0  0
   -6.7255   -1.9613   15.2400 H   0  0  0  0  0  0  0  0  0  0  0  0
   -2.2029   -3.6602   16.2464 H   0  0  0  0  0  0  0  0  0  0  0  0
    0.1953   -3.2056   16.4963 H   0  0  0  0  0  0  0  0  0  0  0  0
    1.2616    0.3283   13.3324 H   0  0  0  0  0  0  0  0  0  0  0  0
    5.1537    1.9347   13.2514 H   0  0  0  0  0  0  0  0  0  0  0  0
    6.8404    0.8712   15.3031 H   0  0  0  0  0  0  0  0  0  0  0  0
    6.2521   -0.7606   17.3472 H   0  0  0  0  0  0  0  0  0  0  0  0
    4.5869    2.3636   11.2421 H   0  0  0  0  0  0  0  0  0  0  0  0
    3.8596    3.8175    9.3833 H   0  0  0  0  0  0  0  0  0  0  0  0
    1.3619    5.0985    8.2410 H   0  0  0  0  0  0  0  0  0  0  0  0
    1.0918    4.2542   11.6033 H   0  0  0  0  0  0  0  0  0  0  0  0
    0.5648    2.2163   12.8091 H   0  0  0  0  0  0  0  0  0  0  0  0
   -0.0910   -0.0304   13.6148 H   0  0  0  0  0  0  0  0  0  0  0  0
   -2.5192   -0.4925   13.3743 H   0  0  0  0  0  0  0  0  0  0  0  0
  1  2  1  0  0  0  0
  1  6  1  0  0  0  0
  2  3  1  0  0  0  0
  3  4  1  0  0  0  0
  3  7  1  0  0  0  0
  4  5  1  0  0  0  0
  5  6  1  0  0  0  0
  7  8  2  0  0  0  0
  7 31  1  0  0  0  0
  8  9  1  0  0  0  0
  9 10  2  0  0  0  0
 10 11  1  0  0  0  0
 10 30  1  0  0  0  0
 11 12  2  0  0  0  0
 12 13  1  0  0  0  0
 12 20  1  0  0  0  0
 13 14  1  0  0  0  0
 14 15  2  0  0  0  0
 14 21  1  0  0  0  0
 15 16  1  0  0  0  0
 16 17  1  0  0  0  0
 16 20  1  0  0  0  0
 17 18  2  0  0  0  0
 18 19  1  0  0  0  0
 19 20  2  0  0  0  0
 21 22  1  0  0  0  0
 21 29  2  0  0  0  0
 22 23  2  0  0  0  0
 23 24  1  0  0  0  0
 24 25  2  0  0  0  0
 24 28  1  0  0  0  0
 25 26  1  0  0  0  0
 26 27  2  0  0  0  0
 27 28  1  0  0  0  0
 28 29  1  0  0  0  0
 30 31  2  0  0  0  0
  1 32  1  0  0  0  0
  1 33  1  0  0  0  0
  2 34  1  0  0  0  0
  2 35  1  0  0  0  0
  3 36  1  0  0  0  0
  4 37  1  0  0  0  0
  4 38  1  0  0  0  0
  5 39  1  0  0  0  0
  5 40  1  0  0  0  0
  8 41  1  0  0  0  0
  9 42  1  0  0  0  0
 13 43  1  0  0  0  0
 15 44  1  0  0  0  0
 17 45  1  0  0  0  0
 18 46  1  0  0  0  0
 22 47  1  0  0  0  0
 23 48  1  0  0  0  0
 25 49  1  0  0  0  0
 28 50  1  0  0  0  0
 29 51  1  0  0  0  0
 30 52  1  0  0  0  0
 31 53  1  0  0  0  0
M  END
> <IC50[nM]>
3.8

$$$$
CHEMBL3265034
  -OEChem-05192314333D
 Structure written by MMmdl.
 53 58  0     0  0  0  0  0  0999 V2000
   -5.7484   -4.1352   14.0916 C   0  0  0  0  0  0  0  0  0  0  0  0
   -4.2467   -3.7965   14.1043 C   0  0  0  0  0  0  0  0  0  0  0  0
   -4.0046   -2.3867   14.6667 C   0  0  0  0  0  0  0  0  0  0  0  0
   -4.7211   -2.2350   16.0203 C   0  0  0  0  0  0  0  0  0  0  0  0
   -6.1989   -2.6529   15.9141 C   0  0  0  0  0  0  0  0  0  0  0  0
   -6.2949   -3.9790   15.3990 O   0  0  0  0  0  0  0  0  0  0  0  0
   -2.5163   -2.1019   14.8026 C   0  0  0  0  0  0  0  0  0  0  0  0
   -1.7444   -2.8650   15.6773 C   0  0  0  0  0  0  0  0  0  0  0  0
   -0.3947   -2.6068   15.8182 C   0  0  0  0  0  0  0  0  0  0  0  0
    0.2168   -1.5789   15.0929 C   0  0  0  0  0  0  0  0  0  0  0  0
    1.5959   -1.3413   15.3408 N   0  0  0  0  0  0  0  0  0  0  0  0
    2.5346   -0.4433   14.7633 C   0  0  0  0  0  0  0  0  0  0  0  0
    2.1825    0.3683   13.7202 N   0  0  0  0  0  0  0  0  0  0  0  0
    3.1144    1.2372   13.2163 C   0  0  0  0  0  0  0  0  0  0  0  0
    4.4190    1.2837   13.7018 C   0  0  0  0  0  0  0  0  0  0  0  0
    4.7465    0.4877   14.7594 N   0  0  0  0  0  0  0  0  0  0  0  0
    5.8977    0.3771   15.4862 C   0  0  0  0  0  0  0  0  0  0  0  0
    5.5879   -0.5237   16.5292 C   0  0  0  0  0  0  0  0  0  0  0  0
    4.3754   -1.0416   16.3746 N   0  0  0  0  0  0  0  0  0  0  0  0
    3.8361   -0.3925   15.3266 C   0  0  0  0  0  0  0  0  0  0  0  0
    2.6384    2.1617   12.1197 C   0  0  0  0  0  0  0  0  0  0  0  0
    3.5461    2.6405   11.1618 C   0  0  0  0  0  0  0  0  0  0  0  0
    3.1445    3.4623   10.1105 C   0  0  0  0  0  0  0  0  0  0  0  0
    1.7985    3.8158   10.0184 C   0  0  0  0  0  0  0  0  0  0  0  0
    0.9907    4.5934    9.1205 C   0  0  0  0  0  0  0  0  0  0  0  0
   -0.2502    4.6054    9.5128 N   0  0  0  0  0  0  0  0  0  0  0  0
   -0.3377    3.8946   10.6262 N   0  0  0  0  0  0  0  0  0  0  0  0
    0.8856    3.3616   10.9945 C   0  0  0  0  0  0  0  0  0  0  0  0
    1.2735    2.5429   12.0624 C   0  0  0  0  0  0  0  0  0  0  0  0
   -0.5534   -0.8155   14.1947 C   0  0  0  0  0  0  0  0  0  0  0  0
   -1.9224   -1.0793   14.0569 C   0  0  0  0  0  0  0  0  0  0  0  0
   -6.2683   -3.4596   13.3964 H   0  0  0  0  0  0  0  0  0  0  0  0
   -5.8843   -5.1758   13.7620 H   0  0  0  0  0  0  0  0  0  0  0  0
   -3.7179   -4.5295   14.7312 H   0  0  0  0  0  0  0  0  0  0  0  0
   -3.8583   -3.8453   13.0763 H   0  0  0  0  0  0  0  0  0  0  0  0
   -4.4360   -1.6572   13.9654 H   0  0  0  0  0  0  0  0  0  0  0  0
   -4.2204   -2.8709   16.7652 H   0  0  0  0  0  0  0  0  0  0  0  0
   -4.6669   -1.1838   16.3398 H   0  0  0  0  0  0  0  0  0  0  0  0
   -6.6607   -2.6153   16.9118 H   0  0  0  0  0  0  0  0  0  0  0  0
   -6.7255   -1.9613   15.2400 H   0  0  0  0  0  0  0  0  0  0  0  0
   -2.2029   -3.6602   16.2464 H   0  0  0  0  0  0  0  0  0  0  0  0
    0.1953   -3.2056   16.4963 H   0  0  0  0  0  0  0  0  0  0  0  0
    1.2616    0.3283   13.3324 H   0  0  0  0  0  0  0  0  0  0  0  0
    5.1537    1.9347   13.2514 H   0  0  0  0  0  0  0  0  0  0  0  0
    6.8404    0.8712   15.3031 H   0  0  0  0  0  0  0  0  0  0  0  0
    6.2521   -0.7606   17.3472 H   0  0  0  0  0  0  0  0  0  0  0  0
    4.5869    2.3636   11.2421 H   0  0  0  0  0  0  0  0  0  0  0  0
    3.7206    4.3960   10.1900 H   0  0  0  0  0  0  0  0  0  0  0  0
    3.4094    2.9464    9.1758 H   0  0  0  0  0  0  0  0  0  0  0  0
    1.3619    5.0985    8.2410 H   0  0  0  0  0  0  0  0  0  0  0  0
    0.5648    2.2163   12.8091 H   0  0  0  0  0  0  0  0  0  0  0  0
   -0.0910   -0.0304   13.6148 H   0  0  0  0  0  0  0  0  0  0  0  0
   -2.5192   -0.4925   13.3743 H   0  0  0  0  0  0  0  0  0  0  0  0
  1  2  1  0  0  0  0
  1  6  1  0  0  0  0
  2  3  1  0  0  0  0
  3  4  1  0  0  0  0
  3  7  1  0  0  0  0
  4  5  1  0  0  0  0
  5  6  1  0  0  0  0
  7  8  2  0  0  0  0
  7 31  1  0  0  0  0
  8  9  1  0  0  0  0
  9 10  2  0  0  0  0
 10 11  1  0  0  0  0
 10 30  1  0  0  0  0
 11 12  2  0  0  0  0
 12 13  1  0  0  0  0
 12 20  1  0  0  0  0
 13 14  1  0  0  0  0
 14 15  2  0  0  0  0
 14 21  1  0  0  0  0
 15 16  1  0  0  0  0
 16 17  1  0  0  0  0
 16 20  1  0  0  0  0
 17 18  2  0  0  0  0
 18 19  1  0  0  0  0
 19 20  2  0  0  0  0
 21 22  2  0  0  0  0
 21 29  1  0  0  0  0
 22 23  1  0  0  0  0
 23 24  1  0  0  0  0
 24 25  2  0  0  0  0
 24 28  1  0  0  0  0
 25 26  1  0  0  0  0
 26 27  2  0  0  0  0
 27 28  1  0  0  0  0
 28 29  2  0  0  0  0
 30 31  2  0  0  0  0
  1 32  1  0  0  0  0
  1 33  1  0  0  0  0
  2 34  1  0  0  0  0
  2 35  1  0  0  0  0
  3 36  1  0  0  0  0
  4 37  1  0  0  0  0
  4 38  1  0  0  0  0
  5 39  1  0  0  0  0
  5 40  1  0  0  0  0
  8 41  1  0  0  0  0
  9 42  1  0  0  0  0
 13 43  1  0  0  0  0
 15 44  1  0  0  0  0
 17 45  1  0  0  0  0
 18 46  1  0  0  0  0
 22 47  1  0  0  0  0
 23 48  1  0  0  0  0
 23 49  1  0  0  0  0
 25 50  1  0  0  0  0
 29 51  1  0  0  0  0
 30 52  1  0  0  0  0
 31 53  1  0  0  0  0
M  END
> <IC50[nM]>
3.8

$$$$
CHEMBL3265034
  -OEChem-05192314333D
 Structure written by MMmdl.
 53 58  0     1  0  0  0  0  0999 V2000
   -5.7484   -4.1352   14.0916 C   0  0  0  0  0  0  0  0  0  0  0  0
   -4.2467   -3.7965   14.1043 C   0  0  0  0  0  0  0  0  0  0  0  0
   -4.0046   -2.3867   14.6667 C   0  0  0  0  0  0  0  0  0  0  0  0
   -4.7211   -2.2350   16.0203 C   0  0  0  0  0  0  0  0  0  0  0  0
   -6.1989   -2.6529   15.9141 C   0  0  0  0  0  0  0  0  0  0  0  0
   -6.2949   -3.9790   15.3990 O   0  0  0  0  0  0  0  0  0  0  0  0
   -2.5163   -2.1019   14.8026 C   0  0  0  0  0  0  0  0  0  0  0  0
   -1.7444   -2.8650   15.6773 C   0  0  0  0  0  0  0  0  0  0  0  0
   -0.3947   -2.6068   15.8182 C   0  0  0  0  0  0  0  0  0  0  0  0
    0.2168   -1.5789   15.0929 C   0  0  0  0  0  0  0  0  0  0  0  0
    1.5959   -1.3413   15.3408 N   0  0  0  0  0  0  0  0  0  0  0  0
    2.5346   -0.4433   14.7633 C   0  0  0  0  0  0  0  0  0  0  0  0
    2.1825    0.3683   13.7202 N   0  0  0  0  0  0  0  0  0  0  0  0
    3.1144    1.2372   13.2163 C   0  0  0  0  0  0  0  0  0  0  0  0
    4.4190    1.2837   13.7018 C   0  0  0  0  0  0  0  0  0  0  0  0
    4.7465    0.4877   14.7594 N   0  0  0  0  0  0  0  0  0  0  0  0
    5.8977    0.3771   15.4862 C   0  0  0  0  0  0  0  0  0  0  0  0
    5.5879   -0.5237   16.5292 C   0  0  0  0  0  0  0  0  0  0  0  0
    4.3754   -1.0416   16.3746 N   0  0  0  0  0  0  0  0  0  0  0  0
    3.8361   -0.3925   15.3266 C   0  0  0  0  0  0  0  0  0  0  0  0
    2.6384    2.1617   12.1197 C   0  0  0  0  0  0  0  0  0  0  0  0
    3.5461    2.6405   11.1618 C   0  0  0  0  0  0  0  0  0  0  0  0
    3.1445    3.4623   10.1105 C   0  0  0  0  0  0  0  0  0  0  0  0
    1.7985    3.8158   10.0184 C   0  0  3  0  0  0  0  0  0  0  0  0
    0.9907    4.5934    9.1205 C   0  0  0  0  0  0  0  0  0  0  0  0
   -0.2502    4.6054    9.5128 N   0  0  0  0  0  0  0  0  0  0  0  0
   -0.3377    3.8946   10.6262 N   0  0  0  0  0  0  0  0  0  0  0  0
    0.8856    3.3616   10.9945 C   0  0  0  0  0  0  0  0  0  0  0  0
    1.2735    2.5429   12.0624 C   0  0  0  0  0  0  0  0  0  0  0  0
   -0.5534   -0.8155   14.1947 C   0  0  0  0  0  0  0  0  0  0  0  0
   -1.9224   -1.0793   14.0569 C   0  0  0  0  0  0  0  0  0  0  0  0
   -6.2683   -3.4596   13.3964 H   0  0  0  0  0  0  0  0  0  0  0  0
   -5.8843   -5.1758   13.7620 H   0  0  0  0  0  0  0  0  0  0  0  0
   -3.7179   -4.5295   14.7312 H   0  0  0  0  0  0  0  0  0  0  0  0
   -3.8583   -3.8453   13.0763 H   0  0  0  0  0  0  0  0  0  0  0  0
   -4.4360   -1.6572   13.9654 H   0  0  0  0  0  0  0  0  0  0  0  0
   -4.2204   -2.8709   16.7652 H   0  0  0  0  0  0  0  0  0  0  0  0
   -4.6669   -1.1838   16.3398 H   0  0  0  0  0  0  0  0  0  0  0  0
   -6.6607   -2.6153   16.9118 H   0  0  0  0  0  0  0  0  0  0  0  0
   -6.7255   -1.9613   15.2400 H   0  0  0  0  0  0  0  0  0  0  0  0
   -2.2029   -3.6602   16.2464 H   0  0  0  0  0  0  0  0  0  0  0  0
    0.1953   -3.2056   16.4963 H   0  0  0  0  0  0  0  0  0  0  0  0
    5.0853    1.0101   12.8704 H   0  0  0  0  0  0  0  0  0  0  0  0
    4.6168    2.3229   14.0035 H   0  0  0  0  0  0  0  0  0  0  0  0
    6.8404    0.8712   15.3031 H   0  0  0  0  0  0  0  0  0  0  0  0
    6.2521   -0.7606   17.3472 H   0  0  0  0  0  0  0  0  0  0  0  0
    4.5869    2.3636   11.2421 H   0  0  0  0  0  0  0  0  0  0  0  0
    3.8596    3.8175    9.3833 H   0  0  0  0  0  0  0  0  0  0  0  0
    1.6029    2.9163    9.4162 H   0  0  0  0  0  0  0  0  0  0  0  0
    1.3619    5.0985    8.2410 H   0  0  0  0  0  0  0  0  0  0  0  0
    0.5648    2.2163   12.8091 H   0  0  0  0  0  0  0  0  0  0  0  0
   -0.0910   -0.0304   13.6148 H   0  0  0  0  0  0  0  0  0  0  0  0
   -2.5192   -0.4925   13.3743 H   0  0  0  0  0  0  0  0  0  0  0  0
  1  2  1  0  0  0  0
  1  6  1  0  0  0  0
  2  3  1  0  0  0  0
  3  4  1  0  0  0  0
  3  7  1  0  0  0  0
  4  5  1  0  0  0  0
  5  6  1  0  0  0  0
  7  8  2  0  0  0  0
  7 31  1  0  0  0  0
  8  9  1  0  0  0  0
  9 10  2  0  0  0  0
 10 11  1  0  0  0  0
 10 30  1  0  0  0  0
 11 12  2  0  0  0  0
 12 13  1  0  0  0  0
 12 20  1  0  0  0  0
 13 14  2  0  0  0  0
 14 15  1  0  0  0  0
 14 21  1  0  0  0  0
 15 16  1  0  0  0  0
 16 17  1  0  0  0  0
 16 20  1  0  0  0  0
 17 18  2  0  0  0  0
 18 19  1  0  0  0  0
 19 20  2  0  0  0  0
 21 22  1  0  0  0  0
 21 29  2  0  0  0  0
 22 23  2  0  0  0  0
 23 24  1  0  0  0  0
 24 25  1  0  0  0  0
 24 28  1  0  0  0  0
 25 26  2  0  0  0  0
 26 27  1  0  0  0  0
 27 28  2  0  0  0  0
 28 29  1  0  0  0  0
 30 31  2  0  0  0  0
  1 32  1  0  0  0  0
  1 33  1  0  0  0  0
  2 34  1  0  0  0  0
  2 35  1  0  0  0  0
  3 36  1  0  0  0  0
  4 37  1  0  0  0  0
  4 38  1  0  0  0  0
  5 39  1  0  0  0  0
  5 40  1  0  0  0  0
  8 41  1  0  0  0  0
  9 42  1  0  0  0  0
 15 43  1  0  0  0  0
 15 44  1  0  0  0  0
 17 45  1  0  0  0  0
 18 46  1  0  0  0  0
 22 47  1  0  0  0  0
 23 48  1  0  0  0  0
 24 49  1  0  0  0  0
 25 50  1  0  0  0  0
 29 51  1  0  0  0  0
 30 52  1  0  0  0  0
 31 53  1  0  0  0  0
M  END
> <IC50[nM]>
3.8

$$$$
CHEMBL3265034
  -OEChem-05192314333D
 Structure written by MMmdl.
 53 58  0     0  0  0  0  0  0999 V2000
   -5.7484   -4.1352   14.0916 C   0  0  0  0  0  0  0  0  0  0  0  0
   -4.2467   -3.7965   14.1043 C   0  0  0  0  0  0  0  0  0  0  0  0
   -4.0046   -2.3867   14.6667 C   0  0  0  0  0  0  0  0  0  0  0  0
   -4.7211   -2.2350   16.0203 C   0  0  0  0  0  0  0  0  0  0  0  0
   -6.1989   -2.6529   15.9141 C   0  0  0  0  0  0  0  0  0  0  0  0
   -6.2949   -3.9790   15.3990 O   0  0  0  0  0  0  0  0  0  0  0  0
   -2.5163   -2.1019   14.8026 C   0  0  0  0  0  0  0  0  0  0  0  0
   -1.7444   -2.8650   15.6773 C   0  0  0  0  0  0  0  0  0  0  0  0
   -0.3947   -2.6068   15.8182 C   0  0  0  0  0  0  0  0  0  0  0  0
    0.2168   -1.5789   15.0929 C   0  0  0  0  0  0  0  0  0  0  0  0
    1.5959   -1.3413   15.3408 N   0  0  0  0  0  0  0  0  0  0  0  0
    2.5346   -0.4433   14.7633 C   0  0  0  0  0  0  0  0  0  0  0  0
    2.1825    0.3683   13.7202 N   0  0  0  0  0  0  0  0  0  0  0  0
    3.1144    1.2372   13.2163 C   0  0  0  0  0  0  0  0  0  0  0  0
    4.4190    1.2837   13.7018 C   0  0  0  0  0  0  0  0  0  0  0  0
    4.7465    0.4877   14.7594 N   0  0  0  0  0  0  0  0  0  0  0  0
    5.8977    0.3771   15.4862 C   0  0  0  0  0  0  0  0  0  0  0  0
    5.5879   -0.5237   16.5292 C   0  0  0  0  0  0  0  0  0  0  0  0
    4.3754   -1.0416   16.3746 N   0  0  0  0  0  0  0  0  0  0  0  0
    3.8361   -0.3925   15.3266 C   0  0  0  0  0  0  0  0  0  0  0  0
    2.6384    2.1617   12.1197 C   0  0  0  0  0  0  0  0  0  0  0  0
    3.5461    2.6405   11.1618 C   0  0  0  0  0  0  0  0  0  0  0  0
    3.1445    3.4623   10.1105 C   0  0  0  0  0  0  0  0  0  0  0  0
    1.7985    3.8158   10.0184 C   0  0  0  0  0  0  0  0  0  0  0  0
    0.9907    4.5934    9.1205 C   0  0  0  0  0  0  0  0  0  0  0  0
   -0.2502    4.6054    9.5128 N   0  0  0  0  0  0  0  0  0  0  0  0
   -0.3377    3.8946   10.6262 N   0  0  0  0  0  0  0  0  0  0  0  0
    0.8856    3.3616   10.9945 C   0  0  0  0  0  0  0  0  0  0  0  0
    1.2735    2.5429   12.0624 C   0  0  0  0  0  0  0  0  0  0  0  0
   -0.5534   -0.8155   14.1947 C   0  0  0  0  0  0  0  0  0  0  0  0
   -1.9224   -1.0793   14.0569 C   0  0  0  0  0  0  0  0  0  0  0  0
   -6.2683   -3.4596   13.3964 H   0  0  0  0  0  0  0  0  0  0  0  0
   -5.8843   -5.1758   13.7620 H   0  0  0  0  0  0  0  0  0  0  0  0
   -3.7179   -4.5295   14.7312 H   0  0  0  0  0  0  0  0  0  0  0  0
   -3.8583   -3.8453   13.0763 H   0  0  0  0  0  0  0  0  0  0  0  0
   -4.4360   -1.6572   13.9654 H   0  0  0  0  0  0  0  0  0  0  0  0
   -4.2204   -2.8709   16.7652 H   0  0  0  0  0  0  0  0  0  0  0  0
   -4.6669   -1.1838   16.3398 H   0  0  0  0  0  0  0  0  0  0  0  0
   -6.6607   -2.6153   16.9118 H   0  0  0  0  0  0  0  0  0  0  0  0
   -6.7255   -1.9613   15.2400 H   0  0  0  0  0  0  0  0  0  0  0  0
   -2.2029   -3.6602   16.2464 H   0  0  0  0  0  0  0  0  0  0  0  0
    0.1953   -3.2056   16.4963 H   0  0  0  0  0  0  0  0  0  0  0  0
    5.0853    1.0101   12.8704 H   0  0  0  0  0  0  0  0  0  0  0  0
    4.6168    2.3229   14.0035 H   0  0  0  0  0  0  0  0  0  0  0  0
    6.8404    0.8712   15.3031 H   0  0  0  0  0  0  0  0  0  0  0  0
    6.2521   -0.7606   17.3472 H   0  0  0  0  0  0  0  0  0  0  0  0
    4.3118    3.2024   11.7168 H   0  0  0  0  0  0  0  0  0  0  0  0
    4.0045    1.7530   10.7012 H   0  0  0  0  0  0  0  0  0  0  0  0
    3.8596    3.8175    9.3833 H   0  0  0  0  0  0  0  0  0  0  0  0
    1.3619    5.0985    8.2410 H   0  0  0  0  0  0  0  0  0  0  0  0
    0.5648    2.2163   12.8091 H   0  0  0  0  0  0  0  0  0  0  0  0
   -0.0910   -0.0304   13.6148 H   0  0  0  0  0  0  0  0  0  0  0  0
   -2.5192   -0.4925   13.3743 H   0  0  0  0  0  0  0  0  0  0  0  0
  1  2  1  0  0  0  0
  1  6  1  0  0  0  0
  2  3  1  0  0  0  0
  3  4  1  0  0  0  0
  3  7  1  0  0  0  0
  4  5  1  0  0  0  0
  5  6  1  0  0  0  0
  7  8  2  0  0  0  0
  7 31  1  0  0  0  0
  8  9  1  0  0  0  0
  9 10  2  0  0  0  0
 10 11  1  0  0  0  0
 10 30  1  0  0  0  0
 11 12  2  0  0  0  0
 12 13  1  0  0  0  0
 12 20  1  0  0  0  0
 13 14  2  0  0  0  0
 14 15  1  0  0  0  0
 14 21  1  0  0  0  0
 15 16  1  0  0  0  0
 16 17  1  0  0  0  0
 16 20  1  0  0  0  0
 17 18  2  0  0  0  0
 18 19  1  0  0  0  0
 19 20  2  0  0  0  0
 21 22  1  0  0  0  0
 21 29  2  0  0  0  0
 22 23  1  0  0  0  0
 23 24  2  0  0  0  0
 24 25  1  0  0  0  0
 24 28  1  0  0  0  0
 25 26  2  0  0  0  0
 26 27  1  0  0  0  0
 27 28  2  0  0  0  0
 28 29  1  0  0  0  0
 30 31  2  0  0  0  0
  1 32  1  0  0  0  0
  1 33  1  0  0  0  0
  2 34  1  0  0  0  0
  2 35  1  0  0  0  0
  3 36  1  0  0  0  0
  4 37  1  0  0  0  0
  4 38  1  0  0  0  0
  5 39  1  0  0  0  0
  5 40  1  0  0  0  0
  8 41  1  0  0  0  0
  9 42  1  0  0  0  0
 15 43  1  0  0  0  0
 15 44  1  0  0  0  0
 17 45  1  0  0  0  0
 18 46  1  0  0  0  0
 22 47  1  0  0  0  0
 22 48  1  0  0  0  0
 23 49  1  0  0  0  0
 25 50  1  0  0  0  0
 29 51  1  0  0  0  0
 30 52  1  0  0  0  0
 31 53  1  0  0  0  0
M  END
> <IC50[nM]>
3.8

$$$$
CHEMBL3265034
  -OEChem-05192314333D
 Structure written by MMmdl.
 53 58  0     0  0  0  0  0  0999 V2000
   -5.7484   -4.1352   14.0916 C   0  0  0  0  0  0  0  0  0  0  0  0
   -4.2467   -3.7965   14.1043 C   0  0  0  0  0  0  0  0  0  0  0  0
   -4.0046   -2.3867   14.6667 C   0  0  0  0  0  0  0  0  0  0  0  0
   -4.7211   -2.2350   16.0203 C   0  0  0  0  0  0  0  0  0  0  0  0
   -6.1989   -2.6529   15.9141 C   0  0  0  0  0  0  0  0  0  0  0  0
   -6.2949   -3.9790   15.3990 O   0  0  0  0  0  0  0  0  0  0  0  0
   -2.5163   -2.1019   14.8026 C   0  0  0  0  0  0  0  0  0  0  0  0
   -1.7444   -2.8650   15.6773 C   0  0  0  0  0  0  0  0  0  0  0  0
   -0.3947   -2.6068   15.8182 C   0  0  0  0  0  0  0  0  0  0  0  0
    0.2168   -1.5789   15.0929 C   0  0  0  0  0  0  0  0  0  0  0  0
    1.5959   -1.3413   15.3408 N   0  0  0  0  0  0  0  0  0  0  0  0
    2.5346   -0.4433   14.7633 C   0  0  0  0  0  0  0  0  0  0  0  0
    2.1825    0.3683   13.7202 N   0  0  0  0  0  0  0  0  0  0  0  0
    3.1144    1.2372   13.2163 C   0  0  0  0  0  0  0  0  0  0  0  0
    4.4190    1.2837   13.7018 C   0  0  0  0  0  0  0  0  0  0  0  0
    4.7465    0.4877   14.7594 N   0  0  0  0  0  0  0  0  0  0  0  0
    5.8977    0.3771   15.4862 C   0  0  0  0  0  0  0  0  0  0  0  0
    5.5879   -0.5237   16.5292 C   0  0  0  0  0  0  0  0  0  0  0  0
    4.3754   -1.0416   16.3746 N   0  0  0  0  0  0  0  0  0  0  0  0
    3.8361   -0.3925   15.3266 C   0  0  0  0  0  0  0  0  0  0  0  0
    2.6384    2.1617   12.1197 C   0  0  0  0  0  0  0  0  0  0  0  0
    3.5461    2.6405   11.1618 C   0  0  0  0  0  0  0  0  0  0  0  0
    3.1445    3.4623   10.1105 C   0  0  0  0  0  0  0  0  0  0  0  0
    1.7985    3.8158   10.0184 C   0  0  0  0  0  0  0  0  0  0  0  0
    0.9907    4.5934    9.1205 C   0  0  0  0  0  0  0  0  0  0  0  0
   -0.2502    4.6054    9.5128 N   0  0  0  0  0  0  0  0  0  0  0  0
   -0.3377    3.8946   10.6262 N   0  0  0  0  0  0  0  0  0  0  0  0
    0.8856    3.3616   10.9945 C   0  0  0  0  0  0  0  0  0  0  0  0
    1.2735    2.5429   12.0624 C   0  0  0  0  0  0  0  0  0  0  0  0
   -0.5534   -0.8155   14.1947 C   0  0  0  0  0  0  0  0  0  0  0  0
   -1.9224   -1.0793   14.0569 C   0  0  0  0  0  0  0  0  0  0  0  0
   -6.2683   -3.4596   13.3964 H   0  0  0  0  0  0  0  0  0  0  0  0
   -5.8843   -5.1758   13.7620 H   0  0  0  0  0  0  0  0  0  0  0  0
   -3.7179   -4.5295   14.7312 H   0  0  0  0  0  0  0  0  0  0  0  0
   -3.8583   -3.8453   13.0763 H   0  0  0  0  0  0  0  0  0  0  0  0
   -4.4360   -1.6572   13.9654 H   0  0  0  0  0  0  0  0  0  0  0  0
   -4.2204   -2.8709   16.7652 H   0  0  0  0  0  0  0  0  0  0  0  0
   -4.6669   -1.1838   16.3398 H   0  0  0  0  0  0  0  0  0  0  0  0
   -6.6607   -2.6153   16.9118 H   0  0  0  0  0  0  0  0  0  0  0  0
   -6.7255   -1.9613   15.2400 H   0  0  0  0  0  0  0  0  0  0  0  0
   -2.2029   -3.6602   16.2464 H   0  0  0  0  0  0  0  0  0  0  0  0
    0.1953   -3.2056   16.4963 H   0  0  0  0  0  0  0  0  0  0  0  0
    5.0853    1.0101   12.8704 H   0  0  0  0  0  0  0  0  0  0  0  0
    4.6168    2.3229   14.0035 H   0  0  0  0  0  0  0  0  0  0  0  0
    6.8404    0.8712   15.3031 H   0  0  0  0  0  0  0  0  0  0  0  0
    6.2521   -0.7606   17.3472 H   0  0  0  0  0  0  0  0  0  0  0  0
    4.5869    2.3636   11.2421 H   0  0  0  0  0  0  0  0  0  0  0  0
    3.8596    3.8175    9.3833 H   0  0  0  0  0  0  0  0  0  0  0  0
    1.3619    5.0985    8.2410 H   0  0  0  0  0  0  0  0  0  0  0  0
    0.6739    1.6222   12.0093 H   0  0  0  0  0  0  0  0  0  0  0  0
    1.0396    3.0795   12.9937 H   0  0  0  0  0  0  0  0  0  0  0  0
   -0.0910   -0.0304   13.6148 H   0  0  0  0  0  0  0  0  0  0  0  0
   -2.5192   -0.4925   13.3743 H   0  0  0  0  0  0  0  0  0  0  0  0
  1  2  1  0  0  0  0
  1  6  1  0  0  0  0
  2  3  1  0  0  0  0
  3  4  1  0  0  0  0
  3  7  1  0  0  0  0
  4  5  1  0  0  0  0
  5  6  1  0  0  0  0
  7  8  2  0  0  0  0
  7 31  1  0  0  0  0
  8  9  1  0  0  0  0
  9 10  2  0  0  0  0
 10 11  1  0  0  0  0
 10 30  1  0  0  0  0
 11 12  2  0  0  0  0
 12 13  1  0  0  0  0
 12 20  1  0  0  0  0
 13 14  2  0  0  0  0
 14 15  1  0  0  0  0
 14 21  1  0  0  0  0
 15 16  1  0  0  0  0
 16 17  1  0  0  0  0
 16 20  1  0  0  0  0
 17 18  2  0  0  0  0
 18 19  1  0  0  0  0
 19 20  2  0  0  0  0
 21 22  2  0  0  0  0
 21 29  1  0  0  0  0
 22 23  1  0  0  0  0
 23 24  2  0  0  0  0
 24 25  1  0  0  0  0
 24 28  1  0  0  0  0
 25 26  2  0  0  0  0
 26 27  1  0  0  0  0
 27 28  2  0  0  0  0
 28 29  1  0  0  0  0
 30 31  2  0  0  0  0
  1 32  1  0  0  0  0
  1 33  1  0  0  0  0
  2 34  1  0  0  0  0
  2 35  1  0  0  0  0
  3 36  1  0  0  0  0
  4 37  1  0  0  0  0
  4 38  1  0  0  0  0
  5 39  1  0  0  0  0
  5 40  1  0  0  0  0
  8 41  1  0  0  0  0
  9 42  1  0  0  0  0
 15 43  1  0  0  0  0
 15 44  1  0  0  0  0
 17 45  1  0  0  0  0
 18 46  1  0  0  0  0
 22 47  1  0  0  0  0
 23 48  1  0  0  0  0
 25 49  1  0  0  0  0
 29 50  1  0  0  0  0
 29 51  1  0  0  0  0
 30 52  1  0  0  0  0
 31 53  1  0  0  0  0
M  END
> <IC50[nM]>
3.8

$$$$
CHEMBL3265034
  -OEChem-05192314333D
 Structure written by MMmdl.
 53 58  0     1  0  0  0  0  0999 V2000
   -5.7484   -4.1352   14.0916 C   0  0  0  0  0  0  0  0  0  0  0  0
   -4.2467   -3.7965   14.1043 C   0  0  0  0  0  0  0  0  0  0  0  0
   -4.0046   -2.3867   14.6667 C   0  0  0  0  0  0  0  0  0  0  0  0
   -4.7211   -2.2350   16.0203 C   0  0  0  0  0  0  0  0  0  0  0  0
   -6.1989   -2.6529   15.9141 C   0  0  0  0  0  0  0  0  0  0  0  0
   -6.2949   -3.9790   15.3990 O   0  0  0  0  0  0  0  0  0  0  0  0
   -2.5163   -2.1019   14.8026 C   0  0  0  0  0  0  0  0  0  0  0  0
   -1.7444   -2.8650   15.6773 C   0  0  0  0  0  0  0  0  0  0  0  0
   -0.3947   -2.6068   15.8182 C   0  0  0  0  0  0  0  0  0  0  0  0
    0.2168   -1.5789   15.0929 C   0  0  0  0  0  0  0  0  0  0  0  0
    1.5959   -1.3413   15.3408 N   0  0  0  0  0  0  0  0  0  0  0  0
    2.5346   -0.4433   14.7633 C   0  0  0  0  0  0  0  0  0  0  0  0
    2.1825    0.3683   13.7202 N   0  0  0  0  0  0  0  0  0  0  0  0
    3.1144    1.2372   13.2163 C   0  0  0  0  0  0  0  0  0  0  0  0
    4.4190    1.2837   13.7018 C   0  0  0  0  0  0  0  0  0  0  0  0
    4.7465    0.4877   14.7594 N   0  0  0  0  0  0  0  0  0  0  0  0
    5.8977    0.3771   15.4862 C   0  0  0  0  0  0  0  0  0  0  0  0
    5.5879   -0.5237   16.5292 C   0  0  0  0  0  0  0  0  0  0  0  0
    4.3754   -1.0416   16.3746 N   0  0  0  0  0  0  0  0  0  0  0  0
    3.8361   -0.3925   15.3266 C   0  0  0  0  0  0  0  0  0  0  0  0
    2.6384    2.1617   12.1197 C   0  0  3  0  0  0  0  0  0  0  0  0
    3.5461    2.6405   11.1618 C   0  0  0  0  0  0  0  0  0  0  0  0
    3.1445    3.4623   10.1105 C   0  0  0  0  0  0  0  0  0  0  0  0
    1.7985    3.8158   10.0184 C   0  0  0  0  0  0  0  0  0  0  0  0
    0.9907    4.5934    9.1205 C   0  0  0  0  0  0  0  0  0  0  0  0
   -0.2502    4.6054    9.5128 N   0  0  0  0  0  0  0  0  0  0  0  0
   -0.3377    3.8946   10.6262 N   0  0  0  0  0  0  0  0  0  0  0  0
    0.8856    3.3616   10.9945 C   0  0  0  0  0  0  0  0  0  0  0  0
    1.2735    2.5429   12.0624 C   0  0  0  0  0  0  0  0  0  0  0  0
   -0.5534   -0.8155   14.1947 C   0  0  0  0  0  0  0  0  0  0  0  0
   -1.9224   -1.0793   14.0569 C   0  0  0  0  0  0  0  0  0  0  0  0
   -6.2683   -3.4596   13.3964 H   0  0  0  0  0  0  0  0  0  0  0  0
   -5.8843   -5.1758   13.7620 H   0  0  0  0  0  0  0  0  0  0  0  0
   -3.7179   -4.5295   14.7312 H   0  0  0  0  0  0  0  0  0  0  0  0
   -3.8583   -3.8453   13.0763 H   0  0  0  0  0  0  0  0  0  0  0  0
   -4.4360   -1.6572   13.9654 H   0  0  0  0  0  0  0  0  0  0  0  0
   -4.2204   -2.8709   16.7652 H   0  0  0  0  0  0  0  0  0  0  0  0
   -4.6669   -1.1838   16.3398 H   0  0  0  0  0  0  0  0  0  0  0  0
   -6.6607   -2.6153   16.9118 H   0  0  0  0  0  0  0  0  0  0  0  0
   -6.7255   -1.9613   15.2400 H   0  0  0  0  0  0  0  0  0  0  0  0
   -2.2029   -3.6602   16.2464 H   0  0  0  0  0  0  0  0  0  0  0  0
    0.1953   -3.2056   16.4963 H   0  0  0  0  0  0  0  0  0  0  0  0
    5.0853    1.0101   12.8704 H   0  0  0  0  0  0  0  0  0  0  0  0
    4.6168    2.3229   14.0035 H   0  0  0  0  0  0  0  0  0  0  0  0
    6.8404    0.8712   15.3031 H   0  0  0  0  0  0  0  0  0  0  0  0
    6.2521   -0.7606   17.3472 H   0  0  0  0  0  0  0  0  0  0  0  0
    2.4225    1.2927   11.4808 H   0  0  0  0  0  0  0  0  0  0  0  0
    4.5869    2.3636   11.2421 H   0  0  0  0  0  0  0  0  0  0  0  0
    3.8596    3.8175    9.3833 H   0  0  0  0  0  0  0  0  0  0  0  0
    1.3619    5.0985    8.2410 H   0  0  0  0  0  0  0  0  0  0  0  0
    0.5648    2.2163   12.8091 H   0  0  0  0  0  0  0  0  0  0  0  0
   -0.0910   -0.0304   13.6148 H   0  0  0  0  0  0  0  0  0  0  0  0
   -2.5192   -0.4925   13.3743 H   0  0  0  0  0  0  0  0  0  0  0  0
  1  2  1  0  0  0  0
  1  6  1  0  0  0  0
  2  3  1  0  0  0  0
  3  4  1  0  0  0  0
  3  7  1  0  0  0  0
  4  5  1  0  0  0  0
  5  6  1  0  0  0  0
  7  8  2  0  0  0  0
  7 31  1  0  0  0  0
  8  9  1  0  0  0  0
  9 10  2  0  0  0  0
 10 11  1  0  0  0  0
 10 30  1  0  0  0  0
 11 12  2  0  0  0  0
 12 13  1  0  0  0  0
 12 20  1  0  0  0  0
 13 14  2  0  0  0  0
 14 15  1  0  0  0  0
 14 21  1  0  0  0  0
 15 16  1  0  0  0  0
 16 17  1  0  0  0  0
 16 20  1  0  0  0  0
 17 18  2  0  0  0  0
 18 19  1  0  0  0  0
 19 20  2  0  0  0  0
 21 22  1  0  0  0  0
 21 29  1  0  0  0  0
 22 23  2  0  0  0  0
 23 24  1  0  0  0  0
 24 25  2  0  0  0  0
 24 28  1  0  0  0  0
 25 26  1  0  0  0  0
 26 27  2  0  0  0  0
 27 28  1  0  0  0  0
 28 29  2  0  0  0  0
 30 31  2  0  0  0  0
  1 32  1  0  0  0  0
  1 33  1  0  0  0  0
  2 34  1  0  0  0  0
  2 35  1  0  0  0  0
  3 36  1  0  0  0  0
  4 37  1  0  0  0  0
  4 38  1  0  0  0  0
  5 39  1  0  0  0  0
  5 40  1  0  0  0  0
  8 41  1  0  0  0  0
  9 42  1  0  0  0  0
 15 43  1  0  0  0  0
 15 44  1  0  0  0  0
 17 45  1  0  0  0  0
 18 46  1  0  0  0  0
 21 47  1  0  0  0  0
 22 48  1  0  0  0  0
 23 49  1  0  0  0  0
 25 50  1  0  0  0  0
 29 51  1  0  0  0  0
 30 52  1  0  0  0  0
 31 53  1  0  0  0  0
M  END
> <IC50[nM]>
3.8

$$$$
CHEMBL3265034
  -OEChem-05192314333D
 Structure written by MMmdl.
 53 58  0     1  0  0  0  0  0999 V2000
   -5.7484   -4.1352   14.0916 C   0  0  0  0  0  0  0  0  0  0  0  0
   -4.2467   -3.7965   14.1043 C   0  0  0  0  0  0  0  0  0  0  0  0
   -4.0046   -2.3867   14.6667 C   0  0  0  0  0  0  0  0  0  0  0  0
   -4.7211   -2.2350   16.0203 C   0  0  0  0  0  0  0  0  0  0  0  0
   -6.1989   -2.6529   15.9141 C   0  0  0  0  0  0  0  0  0  0  0  0
   -6.2949   -3.9790   15.3990 O   0  0  0  0  0  0  0  0  0  0  0  0
   -2.5163   -2.1019   14.8026 C   0  0  0  0  0  0  0  0  0  0  0  0
   -1.7444   -2.8650   15.6773 C   0  0  0  0  0  0  0  0  0  0  0  0
   -0.3947   -2.6068   15.8182 C   0  0  0  0  0  0  0  0  0  0  0  0
    0.2168   -1.5789   15.0929 C   0  0  0  0  0  0  0  0  0  0  0  0
    1.5959   -1.3413   15.3408 N   0  0  0  0  0  0  0  0  0  0  0  0
    2.5346   -0.4433   14.7633 C   0  0  0  0  0  0  0  0  0  0  0  0
    2.1825    0.3683   13.7202 N   0  0  0  0  0  0  0  0  0  0  0  0
    3.1144    1.2372   13.2163 C   0  0  0  0  0  0  0  0  0  0  0  0
    4.4190    1.2837   13.7018 C   0  0  0  0  0  0  0  0  0  0  0  0
    4.7465    0.4877   14.7594 N   0  0  0  0  0  0  0  0  0  0  0  0
    5.8977    0.3771   15.4862 C   0  0  0  0  0  0  0  0  0  0  0  0
    5.5879   -0.5237   16.5292 C   0  0  0  0  0  0  0  0  0  0  0  0
    4.3754   -1.0416   16.3746 N   0  0  0  0  0  0  0  0  0  0  0  0
    3.8361   -0.3925   15.3266 C   0  0  0  0  0  0  0  0  0  0  0  0
    2.6384    2.1617   12.1197 C   0  0  0  0  0  0  0  0  0  0  0  0
    3.5461    2.6405   11.1618 C   0  0  0  0  0  0  0  0  0  0  0  0
    3.1445    3.4623   10.1105 C   0  0  0  0  0  0  0  0  0  0  0  0
    1.7985    3.8158   10.0184 C   0  0  0  0  0  0  0  0  0  0  0  0
    0.9907    4.5934    9.1205 C   0  0  0  0  0  0  0  0  0  0  0  0
   -0.2502    4.6054    9.5128 N   0  0  0  0  0  0  0  0  0  0  0  0
   -0.3377    3.8946   10.6262 N   0  0  0  0  0  0  0  0  0  0  0  0
    0.8856    3.3616   10.9945 C   0  0  3  0  0  0  0  0  0  0  0  0
    1.2735    2.5429   12.0624 C   0  0  0  0  0  0  0  0  0  0  0  0
   -0.5534   -0.8155   14.1947 C   0  0  0  0  0  0  0  0  0  0  0  0
   -1.9224   -1.0793   14.0569 C   0  0  0  0  0  0  0  0  0  0  0  0
   -6.2683   -3.4596   13.3964 H   0  0  0  0  0  0  0  0  0  0  0  0
   -5.8843   -5.1758   13.7620 H   0  0  0  0  0  0  0  0  0  0  0  0
   -3.7179   -4.5295   14.7312 H   0  0  0  0  0  0  0  0  0  0  0  0
   -3.8583   -3.8453   13.0763 H   0  0  0  0  0  0  0  0  0  0  0  0
   -4.4360   -1.6572   13.9654 H   0  0  0  0  0  0  0  0  0  0  0  0
   -4.2204   -2.8709   16.7652 H   0  0  0  0  0  0  0  0  0  0  0  0
   -4.6669   -1.1838   16.3398 H   0  0  0  0  0  0  0  0  0  0  0  0
   -6.6607   -2.6153   16.9118 H   0  0  0  0  0  0  0  0  0  0  0  0
   -6.7255   -1.9613   15.2400 H   0  0  0  0  0  0  0  0  0  0  0  0
   -2.2029   -3.6602   16.2464 H   0  0  0  0  0  0  0  0  0  0  0  0
    0.1953   -3.2056   16.4963 H   0  0  0  0  0  0  0  0  0  0  0  0
    5.0853    1.0101   12.8704 H   0  0  0  0  0  0  0  0  0  0  0  0
    4.6168    2.3229   14.0035 H   0  0  0  0  0  0  0  0  0  0  0  0
    6.8404    0.8712   15.3031 H   0  0  0  0  0  0  0  0  0  0  0  0
    6.2521   -0.7606   17.3472 H   0  0  0  0  0  0  0  0  0  0  0  0
    4.5869    2.3636   11.2421 H   0  0  0  0  0  0  0  0  0  0  0  0
    3.8596    3.8175    9.3833 H   0  0  0  0  0  0  0  0  0  0  0  0
    1.3619    5.0985    8.2410 H   0  0  0  0  0  0  0  0  0  0  0  0
    1.0918    4.2542   11.6033 H   0  0  0  0  0  0  0  0  0  0  0  0
    0.5648    2.2163   12.8091 H   0  0  0  0  0  0  0  0  0  0  0  0
   -0.0910   -0.0304   13.6148 H   0  0  0  0  0  0  0  0  0  0  0  0
   -2.5192   -0.4925   13.3743 H   0  0  0  0  0  0  0  0  0  0  0  0
  1  2  1  0  0  0  0
  1  6  1  0  0  0  0
  2  3  1  0  0  0  0
  3  4  1  0  0  0  0
  3  7  1  0  0  0  0
  4  5  1  0  0  0  0
  5  6  1  0  0  0  0
  7  8  2  0  0  0  0
  7 31  1  0  0  0  0
  8  9  1  0  0  0  0
  9 10  2  0  0  0  0
 10 11  1  0  0  0  0
 10 30  1  0  0  0  0
 11 12  2  0  0  0  0
 12 13  1  0  0  0  0
 12 20  1  0  0  0  0
 13 14  2  0  0  0  0
 14 15  1  0  0  0  0
 14 21  1  0  0  0  0
 15 16  1  0  0  0  0
 16 17  1  0  0  0  0
 16 20  1  0  0  0  0
 17 18  2  0  0  0  0
 18 19  1  0  0  0  0
 19 20  2  0  0  0  0
 21 22  1  0  0  0  0
 21 29  2  0  0  0  0
 22 23  2  0  0  0  0
 23 24  1  0  0  0  0
 24 25  2  0  0  0  0
 24 28  1  0  0  0  0
 25 26  1  0  0  0  0
 26 27  2  0  0  0  0
 27 28  1  0  0  0  0
 28 29  1  0  0  0  0
 30 31  2  0  0  0  0
  1 32  1  0  0  0  0
  1 33  1  0  0  0  0
  2 34  1  0  0  0  0
  2 35  1  0  0  0  0
  3 36  1  0  0  0  0
  4 37  1  0  0  0  0
  4 38  1  0  0  0  0
  5 39  1  0  0  0  0
  5 40  1  0  0  0  0
  8 41  1  0  0  0  0
  9 42  1  0  0  0  0
 15 43  1  0  0  0  0
 15 44  1  0  0  0  0
 17 45  1  0  0  0  0
 18 46  1  0  0  0  0
 22 47  1  0  0  0  0
 23 48  1  0  0  0  0
 25 49  1  0  0  0  0
 28 50  1  0  0  0  0
 29 51  1  0  0  0  0
 30 52  1  0  0  0  0
 31 53  1  0  0  0  0
M  END
> <IC50[nM]>
3.8

$$$$
CHEMBL3265034
  -OEChem-05192314333D
 Structure written by MMmdl.
 53 58  0     0  0  0  0  0  0999 V2000
   -5.7484   -4.1352   14.0916 C   0  0  0  0  0  0  0  0  0  0  0  0
   -4.2467   -3.7965   14.1043 C   0  0  0  0  0  0  0  0  0  0  0  0
   -4.0046   -2.3867   14.6667 C   0  0  0  0  0  0  0  0  0  0  0  0
   -4.7211   -2.2350   16.0203 C   0  0  0  0  0  0  0  0  0  0  0  0
   -6.1989   -2.6529   15.9141 C   0  0  0  0  0  0  0  0  0  0  0  0
   -6.2949   -3.9790   15.3990 O   0  0  0  0  0  0  0  0  0  0  0  0
   -2.5163   -2.1019   14.8026 C   0  0  0  0  0  0  0  0  0  0  0  0
   -1.7444   -2.8650   15.6773 C   0  0  0  0  0  0  0  0  0  0  0  0
   -0.3947   -2.6068   15.8182 C   0  0  0  0  0  0  0  0  0  0  0  0
    0.2168   -1.5789   15.0929 C   0  0  0  0  0  0  0  0  0  0  0  0
    1.5959   -1.3413   15.3408 N   0  0  0  0  0  0  0  0  0  0  0  0
    2.5346   -0.4433   14.7633 C   0  0  0  0  0  0  0  0  0  0  0  0
    2.1825    0.3683   13.7202 N   0  0  0  0  0  0  0  0  0  0  0  0
    3.1144    1.2372   13.2163 C   0  0  0  0  0  0  0  0  0  0  0  0
    4.4190    1.2837   13.7018 C   0  0  0  0  0  0  0  0  0  0  0  0
    4.7465    0.4877   14.7594 N   0  0  0  0  0  0  0  0  0  0  0  0
    5.8977    0.3771   15.4862 C   0  0  0  0  0  0  0  0  0  0  0  0
    5.5879   -0.5237   16.5292 C   0  0  0  0  0  0  0  0  0  0  0  0
    4.3754   -1.0416   16.3746 N   0  0  0  0  0  0  0  0  0  0  0  0
    3.8361   -0.3925   15.3266 C   0  0  0  0  0  0  0  0  0  0  0  0
    2.6384    2.1617   12.1197 C   0  0  0  0  0  0  0  0  0  0  0  0
    3.5461    2.6405   11.1618 C   0  0  0  0  0  0  0  0  0  0  0  0
    3.1445    3.4623   10.1105 C   0  0  0  0  0  0  0  0  0  0  0  0
    1.7985    3.8158   10.0184 C   0  0  0  0  0  0  0  0  0  0  0  0
    0.9907    4.5934    9.1205 C   0  0  0  0  0  0  0  0  0  0  0  0
   -0.2502    4.6054    9.5128 N   0  0  0  0  0  0  0  0  0  0  0  0
   -0.3377    3.8946   10.6262 N   0  0  0  0  0  0  0  0  0  0  0  0
    0.8856    3.3616   10.9945 C   0  0  0  0  0  0  0  0  0  0  0  0
    1.2735    2.5429   12.0624 C   0  0  0  0  0  0  0  0  0  0  0  0
   -0.5534   -0.8155   14.1947 C   0  0  0  0  0  0  0  0  0  0  0  0
   -1.9224   -1.0793   14.0569 C   0  0  0  0  0  0  0  0  0  0  0  0
   -6.2683   -3.4596   13.3964 H   0  0  0  0  0  0  0  0  0  0  0  0
   -5.8843   -5.1758   13.7620 H   0  0  0  0  0  0  0  0  0  0  0  0
   -3.7179   -4.5295   14.7312 H   0  0  0  0  0  0  0  0  0  0  0  0
   -3.8583   -3.8453   13.0763 H   0  0  0  0  0  0  0  0  0  0  0  0
   -4.4360   -1.6572   13.9654 H   0  0  0  0  0  0  0  0  0  0  0  0
   -4.2204   -2.8709   16.7652 H   0  0  0  0  0  0  0  0  0  0  0  0
   -4.6669   -1.1838   16.3398 H   0  0  0  0  0  0  0  0  0  0  0  0
   -6.6607   -2.6153   16.9118 H   0  0  0  0  0  0  0  0  0  0  0  0
   -6.7255   -1.9613   15.2400 H   0  0  0  0  0  0  0  0  0  0  0  0
   -2.2029   -3.6602   16.2464 H   0  0  0  0  0  0  0  0  0  0  0  0
    0.1953   -3.2056   16.4963 H   0  0  0  0  0  0  0  0  0  0  0  0
    5.0853    1.0101   12.8704 H   0  0  0  0  0  0  0  0  0  0  0  0
    4.6168    2.3229   14.0035 H   0  0  0  0  0  0  0  0  0  0  0  0
    6.8404    0.8712   15.3031 H   0  0  0  0  0  0  0  0  0  0  0  0
    6.2521   -0.7606   17.3472 H   0  0  0  0  0  0  0  0  0  0  0  0
    4.5869    2.3636   11.2421 H   0  0  0  0  0  0  0  0  0  0  0  0
    3.7206    4.3960   10.1900 H   0  0  0  0  0  0  0  0  0  0  0  0
    3.4094    2.9464    9.1758 H   0  0  0  0  0  0  0  0  0  0  0  0
    1.3619    5.0985    8.2410 H   0  0  0  0  0  0  0  0  0  0  0  0
    0.5648    2.2163   12.8091 H   0  0  0  0  0  0  0  0  0  0  0  0
   -0.0910   -0.0304   13.6148 H   0  0  0  0  0  0  0  0  0  0  0  0
   -2.5192   -0.4925   13.3743 H   0  0  0  0  0  0  0  0  0  0  0  0
  1  2  1  0  0  0  0
  1  6  1  0  0  0  0
  2  3  1  0  0  0  0
  3  4  1  0  0  0  0
  3  7  1  0  0  0  0
  4  5  1  0  0  0  0
  5  6  1  0  0  0  0
  7  8  2  0  0  0  0
  7 31  1  0  0  0  0
  8  9  1  0  0  0  0
  9 10  2  0  0  0  0
 10 11  1  0  0  0  0
 10 30  1  0  0  0  0
 11 12  2  0  0  0  0
 12 13  1  0  0  0  0
 12 20  1  0  0  0  0
 13 14  2  0  0  0  0
 14 15  1  0  0  0  0
 14 21  1  0  0  0  0
 15 16  1  0  0  0  0
 16 17  1  0  0  0  0
 16 20  1  0  0  0  0
 17 18  2  0  0  0  0
 18 19  1  0  0  0  0
 19 20  2  0  0  0  0
 21 22  2  0  0  0  0
 21 29  1  0  0  0  0
 22 23  1  0  0  0  0
 23 24  1  0  0  0  0
 24 25  2  0  0  0  0
 24 28  1  0  0  0  0
 25 26  1  0  0  0  0
 26 27  2  0  0  0  0
 27 28  1  0  0  0  0
 28 29  2  0  0  0  0
 30 31  2  0  0  0  0
  1 32  1  0  0  0  0
  1 33  1  0  0  0  0
  2 34  1  0  0  0  0
  2 35  1  0  0  0  0
  3 36  1  0  0  0  0
  4 37  1  0  0  0  0
  4 38  1  0  0  0  0
  5 39  1  0  0  0  0
  5 40  1  0  0  0  0
  8 41  1  0  0  0  0
  9 42  1  0  0  0  0
 15 43  1  0  0  0  0
 15 44  1  0  0  0  0
 17 45  1  0  0  0  0
 18 46  1  0  0  0  0
 22 47  1  0  0  0  0
 23 48  1  0  0  0  0
 23 49  1  0  0  0  0
 25 50  1  0  0  0  0
 29 51  1  0  0  0  0
 30 52  1  0  0  0  0
 31 53  1  0  0  0  0
M  END
> <IC50[nM]>
3.8

$$$$
CHEMBL3265034
  -OEChem-05192314333D
 Structure written by MMmdl.
 53 58  0     0  0  0  0  0  0999 V2000
   -5.7484   -4.1352   14.0916 C   0  0  0  0  0  0  0  0  0  0  0  0
   -4.2467   -3.7965   14.1043 C   0  0  0  0  0  0  0  0  0  0  0  0
   -4.0046   -2.3867   14.6667 C   0  0  0  0  0  0  0  0  0  0  0  0
   -4.7211   -2.2350   16.0203 C   0  0  0  0  0  0  0  0  0  0  0  0
   -6.1989   -2.6529   15.9141 C   0  0  0  0  0  0  0  0  0  0  0  0
   -6.2949   -3.9790   15.3990 O   0  0  0  0  0  0  0  0  0  0  0  0
   -2.5163   -2.1019   14.8026 C   0  0  0  0  0  0  0  0  0  0  0  0
   -1.7444   -2.8650   15.6773 C   0  0  0  0  0  0  0  0  0  0  0  0
   -0.3947   -2.6068   15.8182 C   0  0  0  0  0  0  0  0  0  0  0  0
    0.2168   -1.5789   15.0929 C   0  0  0  0  0  0  0  0  0  0  0  0
    1.5959   -1.3413   15.3408 N   0  0  0  0  0  0  0  0  0  0  0  0
    2.5346   -0.4433   14.7633 C   0  0  0  0  0  0  0  0  0  0  0  0
    2.1825    0.3683   13.7202 N   0  0  0  0  0  0  0  0  0  0  0  0
    3.1144    1.2372   13.2163 C   0  0  0  0  0  0  0  0  0  0  0  0
    4.4190    1.2837   13.7018 C   0  0  0  0  0  0  0  0  0  0  0  0
    4.7465    0.4877   14.7594 N   0  0  0  0  0  0  0  0  0  0  0  0
    5.8977    0.3771   15.4862 C   0  0  0  0  0  0  0  0  0  0  0  0
    5.5879   -0.5237   16.5292 C   0  0  0  0  0  0  0  0  0  0  0  0
    4.3754   -1.0416   16.3746 N   0  0  0  0  0  0  0  0  0  0  0  0
    3.8361   -0.3925   15.3266 C   0  0  0  0  0  0  0  0  0  0  0  0
    2.6384    2.1617   12.1197 C   0  0  0  0  0  0  0  0  0  0  0  0
    3.5461    2.6405   11.1618 C   0  0  0  0  0  0  0  0  0  0  0  0
    3.1445    3.4623   10.1105 C   0  0  0  0  0  0  0  0  0  0  0  0
    1.7985    3.8158   10.0184 C   0  0  0  0  0  0  0  0  0  0  0  0
    0.9907    4.5934    9.1205 C   0  0  0  0  0  0  0  0  0  0  0  0
   -0.2502    4.6054    9.5128 N   0  0  0  0  0  0  0  0  0  0  0  0
   -0.3377    3.8946   10.6262 N   0  0  0  0  0  0  0  0  0  0  0  0
    0.8856    3.3616   10.9945 C   0  0  0  0  0  0  0  0  0  0  0  0
    1.2735    2.5429   12.0624 C   0  0  0  0  0  0  0  0  0  0  0  0
   -0.5534   -0.8155   14.1947 C   0  0  0  0  0  0  0  0  0  0  0  0
   -1.9224   -1.0793   14.0569 C   0  0  0  0  0  0  0  0  0  0  0  0
   -6.2683   -3.4596   13.3964 H   0  0  0  0  0  0  0  0  0  0  0  0
   -5.8843   -5.1758   13.7620 H   0  0  0  0  0  0  0  0  0  0  0  0
   -3.7179   -4.5295   14.7312 H   0  0  0  0  0  0  0  0  0  0  0  0
   -3.8583   -3.8453   13.0763 H   0  0  0  0  0  0  0  0  0  0  0  0
   -4.4360   -1.6572   13.9654 H   0  0  0  0  0  0  0  0  0  0  0  0
   -4.2204   -2.8709   16.7652 H   0  0  0  0  0  0  0  0  0  0  0  0
   -4.6669   -1.1838   16.3398 H   0  0  0  0  0  0  0  0  0  0  0  0
   -6.6607   -2.6153   16.9118 H   0  0  0  0  0  0  0  0  0  0  0  0
   -6.7255   -1.9613   15.2400 H   0  0  0  0  0  0  0  0  0  0  0  0
   -2.3053   -2.8158   13.9927 H   0  0  0  0  0  0  0  0  0  0  0  0
   -2.2029   -3.6602   16.2464 H   0  0  0  0  0  0  0  0  0  0  0  0
    0.1953   -3.2056   16.4963 H   0  0  0  0  0  0  0  0  0  0  0  0
    5.0853    1.0101   12.8704 H   0  0  0  0  0  0  0  0  0  0  0  0
    4.6168    2.3229   14.0035 H   0  0  0  0  0  0  0  0  0  0  0  0
    6.8404    0.8712   15.3031 H   0  0  0  0  0  0  0  0  0  0  0  0
    6.2521   -0.7606   17.3472 H   0  0  0  0  0  0  0  0  0  0  0  0
    4.5869    2.3636   11.2421 H   0  0  0  0  0  0  0  0  0  0  0  0
    3.8596    3.8175    9.3833 H   0  0  0  0  0  0  0  0  0  0  0  0
    1.3619    5.0985    8.2410 H   0  0  0  0  0  0  0  0  0  0  0  0
    0.5648    2.2163   12.8091 H   0  0  0  0  0  0  0  0  0  0  0  0
   -0.0910   -0.0304   13.6148 H   0  0  0  0  0  0  0  0  0  0  0  0
   -2.5192   -0.4925   13.3743 H   0  0  0  0  0  0  0  0  0  0  0  0
  1  2  1  0  0  0  0
  1  6  1  0  0  0  0
  2  3  1  0  0  0  0
  3  4  1  0  0  0  0
  3  7  1  0  0  0  0
  4  5  1  0  0  0  0
  5  6  1  0  0  0  0
  7  8  1  0  0  0  0
  7 31  1  0  0  0  0
  8  9  2  0  0  0  0
  9 10  1  0  0  0  0
 10 11  2  0  0  0  0
 10 30  1  0  0  0  0
 11 12  1  0  0  0  0
 12 13  2  0  0  0  0
 12 20  1  0  0  0  0
 13 14  1  0  0  0  0
 14 15  1  0  0  0  0
 14 21  2  0  0  0  0
 15 16  1  0  0  0  0
 16 17  1  0  0  0  0
 16 20  1  0  0  0  0
 17 18  2  0  0  0  0
 18 19  1  0  0  0  0
 19 20  2  0  0  0  0
 21 22  1  0  0  0  0
 21 29  1  0  0  0  0
 22 23  2  0  0  0  0
 23 24  1  0  0  0  0
 24 25  2  0  0  0  0
 24 28  1  0  0  0  0
 25 26  1  0  0  0  0
 26 27  2  0  0  0  0
 27 28  1  0  0  0  0
 28 29  2  0  0  0  0
 30 31  2  0  0  0  0
  1 32  1  0  0  0  0
  1 33  1  0  0  0  0
  2 34  1  0  0  0  0
  2 35  1  0  0  0  0
  3 36  1  0  0  0  0
  4 37  1  0  0  0  0
  4 38  1  0  0  0  0
  5 39  1  0  0  0  0
  5 40  1  0  0  0  0
  7 41  1  0  0  0  0
  8 42  1  0  0  0  0
  9 43  1  0  0  0  0
 15 44  1  0  0  0  0
 15 45  1  0  0  0  0
 17 46  1  0  0  0  0
 18 47  1  0  0  0  0
 22 48  1  0  0  0  0
 23 49  1  0  0  0  0
 25 50  1  0  0  0  0
 29 51  1  0  0  0  0
 30 52  1  0  0  0  0
 31 53  1  0  0  0  0
M  END
> <IC50[nM]>
3.8

$$$$
CHEMBL3265034
  -OEChem-05192314333D
 Structure written by MMmdl.
 53 58  0     0  0  0  0  0  0999 V2000
   -5.7484   -4.1352   14.0916 C   0  0  0  0  0  0  0  0  0  0  0  0
   -4.2467   -3.7965   14.1043 C   0  0  0  0  0  0  0  0  0  0  0  0
   -4.0046   -2.3867   14.6667 C   0  0  0  0  0  0  0  0  0  0  0  0
   -4.7211   -2.2350   16.0203 C   0  0  0  0  0  0  0  0  0  0  0  0
   -6.1989   -2.6529   15.9141 C   0  0  0  0  0  0  0  0  0  0  0  0
   -6.2949   -3.9790   15.3990 O   0  0  0  0  0  0  0  0  0  0  0  0
   -2.5163   -2.1019   14.8026 C   0  0  0  0  0  0  0  0  0  0  0  0
   -1.7444   -2.8650   15.6773 C   0  0  0  0  0  0  0  0  0  0  0  0
   -0.3947   -2.6068   15.8182 C   0  0  0  0  0  0  0  0  0  0  0  0
    0.2168   -1.5789   15.0929 C   0  0  0  0  0  0  0  0  0  0  0  0
    1.5959   -1.3413   15.3408 N   0  0  0  0  0  0  0  0  0  0  0  0
    2.5346   -0.4433   14.7633 C   0  0  0  0  0  0  0  0  0  0  0  0
    2.1825    0.3683   13.7202 N   0  0  0  0  0  0  0  0  0  0  0  0
    3.1144    1.2372   13.2163 C   0  0  0  0  0  0  0  0  0  0  0  0
    4.4190    1.2837   13.7018 C   0  0  0  0  0  0  0  0  0  0  0  0
    4.7465    0.4877   14.7594 N   0  0  0  0  0  0  0  0  0  0  0  0
    5.8977    0.3771   15.4862 C   0  0  0  0  0  0  0  0  0  0  0  0
    5.5879   -0.5237   16.5292 C   0  0  0  0  0  0  0  0  0  0  0  0
    4.3754   -1.0416   16.3746 N   0  0  0  0  0  0  0  0  0  0  0  0
    3.8361   -0.3925   15.3266 C   0  0  0  0  0  0  0  0  0  0  0  0
    2.6384    2.1617   12.1197 C   0  0  0  0  0  0  0  0  0  0  0  0
    3.5461    2.6405   11.1618 C   0  0  0  0  0  0  0  0  0  0  0  0
    3.1445    3.4623   10.1105 C   0  0  0  0  0  0  0  0  0  0  0  0
    1.7985    3.8158   10.0184 C   0  0  0  0  0  0  0  0  0  0  0  0
    0.9907    4.5934    9.1205 C   0  0  0  0  0  0  0  0  0  0  0  0
   -0.2502    4.6054    9.5128 N   0  0  0  0  0  0  0  0  0  0  0  0
   -0.3377    3.8946   10.6262 N   0  0  0  0  0  0  0  0  0  0  0  0
    0.8856    3.3616   10.9945 C   0  0  0  0  0  0  0  0  0  0  0  0
    1.2735    2.5429   12.0624 C   0  0  0  0  0  0  0  0  0  0  0  0
   -0.5534   -0.8155   14.1947 C   0  0  0  0  0  0  0  0  0  0  0  0
   -1.9224   -1.0793   14.0569 C   0  0  0  0  0  0  0  0  0  0  0  0
   -6.2683   -3.4596   13.3964 H   0  0  0  0  0  0  0  0  0  0  0  0
   -5.8843   -5.1758   13.7620 H   0  0  0  0  0  0  0  0  0  0  0  0
   -3.7179   -4.5295   14.7312 H   0  0  0  0  0  0  0  0  0  0  0  0
   -3.8583   -3.8453   13.0763 H   0  0  0  0  0  0  0  0  0  0  0  0
   -4.4360   -1.6572   13.9654 H   0  0  0  0  0  0  0  0  0  0  0  0
   -4.2204   -2.8709   16.7652 H   0  0  0  0  0  0  0  0  0  0  0  0
   -4.6669   -1.1838   16.3398 H   0  0  0  0  0  0  0  0  0  0  0  0
   -6.6607   -2.6153   16.9118 H   0  0  0  0  0  0  0  0  0  0  0  0
   -6.7255   -1.9613   15.2400 H   0  0  0  0  0  0  0  0  0  0  0  0
   -2.2029   -3.6602   16.2464 H   0  0  0  0  0  0  0  0  0  0  0  0
   -0.2274   -2.3827   16.8821 H   0  0  0  0  0  0  0  0  0  0  0  0
    0.1319   -3.5351   15.5518 H   0  0  0  0  0  0  0  0  0  0  0  0
    5.0853    1.0101   12.8704 H   0  0  0  0  0  0  0  0  0  0  0  0
    4.6168    2.3229   14.0035 H   0  0  0  0  0  0  0  0  0  0  0  0
    6.8404    0.8712   15.3031 H   0  0  0  0  0  0  0  0  0  0  0  0
    6.2521   -0.7606   17.3472 H   0  0  0  0  0  0  0  0  0  0  0  0
    4.5869    2.3636   11.2421 H   0  0  0  0  0  0  0  0  0  0  0  0
    3.8596    3.8175    9.3833 H   0  0  0  0  0  0  0  0  0  0  0  0
    1.3619    5.0985    8.2410 H   0  0  0  0  0  0  0  0  0  0  0  0
    0.5648    2.2163   12.8091 H   0  0  0  0  0  0  0  0  0  0  0  0
   -0.0910   -0.0304   13.6148 H   0  0  0  0  0  0  0  0  0  0  0  0
   -2.5192   -0.4925   13.3743 H   0  0  0  0  0  0  0  0  0  0  0  0
  1  2  1  0  0  0  0
  1  6  1  0  0  0  0
  2  3  1  0  0  0  0
  3  4  1  0  0  0  0
  3  7  1  0  0  0  0
  4  5  1  0  0  0  0
  5  6  1  0  0  0  0
  7  8  2  0  0  0  0
  7 31  1  0  0  0  0
  8  9  1  0  0  0  0
  9 10  1  0  0  0  0
 10 11  2  0  0  0  0
 10 30  1  0  0  0  0
 11 12  1  0  0  0  0
 12 13  2  0  0  0  0
 12 20  1  0  0  0  0
 13 14  1  0  0  0  0
 14 15  1  0  0  0  0
 14 21  2  0  0  0  0
 15 16  1  0  0  0  0
 16 17  1  0  0  0  0
 16 20  1  0  0  0  0
 17 18  2  0  0  0  0
 18 19  1  0  0  0  0
 19 20  2  0  0  0  0
 21 22  1  0  0  0  0
 21 29  1  0  0  0  0
 22 23  2  0  0  0  0
 23 24  1  0  0  0  0
 24 25  2  0  0  0  0
 24 28  1  0  0  0  0
 25 26  1  0  0  0  0
 26 27  2  0  0  0  0
 27 28  1  0  0  0  0
 28 29  2  0  0  0  0
 30 31  2  0  0  0  0
  1 32  1  0  0  0  0
  1 33  1  0  0  0  0
  2 34  1  0  0  0  0
  2 35  1  0  0  0  0
  3 36  1  0  0  0  0
  4 37  1  0  0  0  0
  4 38  1  0  0  0  0
  5 39  1  0  0  0  0
  5 40  1  0  0  0  0
  8 41  1  0  0  0  0
  9 42  1  0  0  0  0
  9 43  1  0  0  0  0
 15 44  1  0  0  0  0
 15 45  1  0  0  0  0
 17 46  1  0  0  0  0
 18 47  1  0  0  0  0
 22 48  1  0  0  0  0
 23 49  1  0  0  0  0
 25 50  1  0  0  0  0
 29 51  1  0  0  0  0
 30 52  1  0  0  0  0
 31 53  1  0  0  0  0
M  END
> <IC50[nM]>
3.8

$$$$
CHEMBL3265034
  -OEChem-05192314333D
 Structure written by MMmdl.
 53 58  0     1  0  0  0  0  0999 V2000
   -5.7484   -4.1352   14.0916 C   0  0  0  0  0  0  0  0  0  0  0  0
   -4.2467   -3.7965   14.1043 C   0  0  0  0  0  0  0  0  0  0  0  0
   -4.0046   -2.3867   14.6667 C   0  0  0  0  0  0  0  0  0  0  0  0
   -4.7211   -2.2350   16.0203 C   0  0  0  0  0  0  0  0  0  0  0  0
   -6.1989   -2.6529   15.9141 C   0  0  0  0  0  0  0  0  0  0  0  0
   -6.2949   -3.9790   15.3990 O   0  0  0  0  0  0  0  0  0  0  0  0
   -2.5163   -2.1019   14.8026 C   0  0  0  0  0  0  0  0  0  0  0  0
   -1.7444   -2.8650   15.6773 C   0  0  0  0  0  0  0  0  0  0  0  0
   -0.3947   -2.6068   15.8182 C   0  0  0  0  0  0  0  0  0  0  0  0
    0.2168   -1.5789   15.0929 C   0  0  0  0  0  0  0  0  0  0  0  0
    1.5959   -1.3413   15.3408 N   0  0  0  0  0  0  0  0  0  0  0  0
    2.5346   -0.4433   14.7633 C   0  0  0  0  0  0  0  0  0  0  0  0
    2.1825    0.3683   13.7202 N   0  0  0  0  0  0  0  0  0  0  0  0
    3.1144    1.2372   13.2163 C   0  0  0  0  0  0  0  0  0  0  0  0
    4.4190    1.2837   13.7018 C   0  0  0  0  0  0  0  0  0  0  0  0
    4.7465    0.4877   14.7594 N   0  0  0  0  0  0  0  0  0  0  0  0
    5.8977    0.3771   15.4862 C   0  0  0  0  0  0  0  0  0  0  0  0
    5.5879   -0.5237   16.5292 C   0  0  0  0  0  0  0  0  0  0  0  0
    4.3754   -1.0416   16.3746 N   0  0  0  0  0  0  0  0  0  0  0  0
    3.8361   -0.3925   15.3266 C   0  0  0  0  0  0  0  0  0  0  0  0
    2.6384    2.1617   12.1197 C   0  0  0  0  0  0  0  0  0  0  0  0
    3.5461    2.6405   11.1618 C   0  0  0  0  0  0  0  0  0  0  0  0
    3.1445    3.4623   10.1105 C   0  0  0  0  0  0  0  0  0  0  0  0
    1.7985    3.8158   10.0184 C   0  0  3  0  0  0  0  0  0  0  0  0
    0.9907    4.5934    9.1205 C   0  0  0  0  0  0  0  0  0  0  0  0
   -0.2502    4.6054    9.5128 N   0  0  0  0  0  0  0  0  0  0  0  0
   -0.3377    3.8946   10.6262 N   0  0  0  0  0  0  0  0  0  0  0  0
    0.8856    3.3616   10.9945 C   0  0  0  0  0  0  0  0  0  0  0  0
    1.2735    2.5429   12.0624 C   0  0  0  0  0  0  0  0  0  0  0  0
   -0.5534   -0.8155   14.1947 C   0  0  0  0  0  0  0  0  0  0  0  0
   -1.9224   -1.0793   14.0569 C   0  0  0  0  0  0  0  0  0  0  0  0
   -6.2683   -3.4596   13.3964 H   0  0  0  0  0  0  0  0  0  0  0  0
   -5.8843   -5.1758   13.7620 H   0  0  0  0  0  0  0  0  0  0  0  0
   -3.7179   -4.5295   14.7312 H   0  0  0  0  0  0  0  0  0  0  0  0
   -3.8583   -3.8453   13.0763 H   0  0  0  0  0  0  0  0  0  0  0  0
   -4.4360   -1.6572   13.9654 H   0  0  0  0  0  0  0  0  0  0  0  0
   -4.2204   -2.8709   16.7652 H   0  0  0  0  0  0  0  0  0  0  0  0
   -4.6669   -1.1838   16.3398 H   0  0  0  0  0  0  0  0  0  0  0  0
   -6.6607   -2.6153   16.9118 H   0  0  0  0  0  0  0  0  0  0  0  0
   -6.7255   -1.9613   15.2400 H   0  0  0  0  0  0  0  0  0  0  0  0
   -2.3053   -2.8158   13.9927 H   0  0  0  0  0  0  0  0  0  0  0  0
   -2.2029   -3.6602   16.2464 H   0  0  0  0  0  0  0  0  0  0  0  0
    0.1953   -3.2056   16.4963 H   0  0  0  0  0  0  0  0  0  0  0  0
    5.1537    1.9347   13.2514 H   0  0  0  0  0  0  0  0  0  0  0  0
    6.8404    0.8712   15.3031 H   0  0  0  0  0  0  0  0  0  0  0  0
    6.2521   -0.7606   17.3472 H   0  0  0  0  0  0  0  0  0  0  0  0
    4.5869    2.3636   11.2421 H   0  0  0  0  0  0  0  0  0  0  0  0
    3.8596    3.8175    9.3833 H   0  0  0  0  0  0  0  0  0  0  0  0
    1.6029    2.9163    9.4162 H   0  0  0  0  0  0  0  0  0  0  0  0
    1.3619    5.0985    8.2410 H   0  0  0  0  0  0  0  0  0  0  0  0
    0.5648    2.2163   12.8091 H   0  0  0  0  0  0  0  0  0  0  0  0
   -0.0910   -0.0304   13.6148 H   0  0  0  0  0  0  0  0  0  0  0  0
   -2.5192   -0.4925   13.3743 H   0  0  0  0  0  0  0  0  0  0  0  0
  1  2  1  0  0  0  0
  1  6  1  0  0  0  0
  2  3  1  0  0  0  0
  3  4  1  0  0  0  0
  3  7  1  0  0  0  0
  4  5  1  0  0  0  0
  5  6  1  0  0  0  0
  7  8  1  0  0  0  0
  7 31  1  0  0  0  0
  8  9  2  0  0  0  0
  9 10  1  0  0  0  0
 10 11  2  0  0  0  0
 10 30  1  0  0  0  0
 11 12  1  0  0  0  0
 12 13  2  0  0  0  0
 12 20  1  0  0  0  0
 13 14  1  0  0  0  0
 14 15  2  0  0  0  0
 14 21  1  0  0  0  0
 15 16  1  0  0  0  0
 16 17  1  0  0  0  0
 16 20  1  0  0  0  0
 17 18  2  0  0  0  0
 18 19  1  0  0  0  0
 19 20  2  0  0  0  0
 21 22  1  0  0  0  0
 21 29  2  0  0  0  0
 22 23  2  0  0  0  0
 23 24  1  0  0  0  0
 24 25  1  0  0  0  0
 24 28  1  0  0  0  0
 25 26  2  0  0  0  0
 26 27  1  0  0  0  0
 27 28  2  0  0  0  0
 28 29  1  0  0  0  0
 30 31  2  0  0  0  0
  1 32  1  0  0  0  0
  1 33  1  0  0  0  0
  2 34  1  0  0  0  0
  2 35  1  0  0  0  0
  3 36  1  0  0  0  0
  4 37  1  0  0  0  0
  4 38  1  0  0  0  0
  5 39  1  0  0  0  0
  5 40  1  0  0  0  0
  7 41  1  0  0  0  0
  8 42  1  0  0  0  0
  9 43  1  0  0  0  0
 15 44  1  0  0  0  0
 17 45  1  0  0  0  0
 18 46  1  0  0  0  0
 22 47  1  0  0  0  0
 23 48  1  0  0  0  0
 24 49  1  0  0  0  0
 25 50  1  0  0  0  0
 29 51  1  0  0  0  0
 30 52  1  0  0  0  0
 31 53  1  0  0  0  0
M  END
> <IC50[nM]>
3.8

$$$$
CHEMBL3265034
  -OEChem-05192314333D
 Structure written by MMmdl.
 53 58  0     1  0  0  0  0  0999 V2000
   -5.7484   -4.1352   14.0916 C   0  0  0  0  0  0  0  0  0  0  0  0
   -4.2467   -3.7965   14.1043 C   0  0  0  0  0  0  0  0  0  0  0  0
   -4.0046   -2.3867   14.6667 C   0  0  0  0  0  0  0  0  0  0  0  0
   -4.7211   -2.2350   16.0203 C   0  0  0  0  0  0  0  0  0  0  0  0
   -6.1989   -2.6529   15.9141 C   0  0  0  0  0  0  0  0  0  0  0  0
   -6.2949   -3.9790   15.3990 O   0  0  0  0  0  0  0  0  0  0  0  0
   -2.5163   -2.1019   14.8026 C   0  0  0  0  0  0  0  0  0  0  0  0
   -1.7444   -2.8650   15.6773 C   0  0  0  0  0  0  0  0  0  0  0  0
   -0.3947   -2.6068   15.8182 C   0  0  0  0  0  0  0  0  0  0  0  0
    0.2168   -1.5789   15.0929 C   0  0  0  0  0  0  0  0  0  0  0  0
    1.5959   -1.3413   15.3408 N   0  0  0  0  0  0  0  0  0  0  0  0
    2.5346   -0.4433   14.7633 C   0  0  0  0  0  0  0  0  0  0  0  0
    2.1825    0.3683   13.7202 N   0  0  0  0  0  0  0  0  0  0  0  0
    3.1144    1.2372   13.2163 C   0  0  0  0  0  0  0  0  0  0  0  0
    4.4190    1.2837   13.7018 C   0  0  0  0  0  0  0  0  0  0  0  0
    4.7465    0.4877   14.7594 N   0  0  0  0  0  0  0  0  0  0  0  0
    5.8977    0.3771   15.4862 C   0  0  0  0  0  0  0  0  0  0  0  0
    5.5879   -0.5237   16.5292 C   0  0  0  0  0  0  0  0  0  0  0  0
    4.3754   -1.0416   16.3746 N   0  0  0  0  0  0  0  0  0  0  0  0
    3.8361   -0.3925   15.3266 C   0  0  0  0  0  0  0  0  0  0  0  0
    2.6384    2.1617   12.1197 C   0  0  0  0  0  0  0  0  0  0  0  0
    3.5461    2.6405   11.1618 C   0  0  0  0  0  0  0  0  0  0  0  0
    3.1445    3.4623   10.1105 C   0  0  0  0  0  0  0  0  0  0  0  0
    1.7985    3.8158   10.0184 C   0  0  3  0  0  0  0  0  0  0  0  0
    0.9907    4.5934    9.1205 C   0  0  0  0  0  0  0  0  0  0  0  0
   -0.2502    4.6054    9.5128 N   0  0  0  0  0  0  0  0  0  0  0  0
   -0.3377    3.8946   10.6262 N   0  0  0  0  0  0  0  0  0  0  0  0
    0.8856    3.3616   10.9945 C   0  0  0  0  0  0  0  0  0  0  0  0
    1.2735    2.5429   12.0624 C   0  0  0  0  0  0  0  0  0  0  0  0
   -0.5534   -0.8155   14.1947 C   0  0  0  0  0  0  0  0  0  0  0  0
   -1.9224   -1.0793   14.0569 C   0  0  0  0  0  0  0  0  0  0  0  0
   -6.2683   -3.4596   13.3964 H   0  0  0  0  0  0  0  0  0  0  0  0
   -5.8843   -5.1758   13.7620 H   0  0  0  0  0  0  0  0  0  0  0  0
   -3.7179   -4.5295   14.7312 H   0  0  0  0  0  0  0  0  0  0  0  0
   -3.8583   -3.8453   13.0763 H   0  0  0  0  0  0  0  0  0  0  0  0
   -4.4360   -1.6572   13.9654 H   0  0  0  0  0  0  0  0  0  0  0  0
   -4.2204   -2.8709   16.7652 H   0  0  0  0  0  0  0  0  0  0  0  0
   -4.6669   -1.1838   16.3398 H   0  0  0  0  0  0  0  0  0  0  0  0
   -6.6607   -2.6153   16.9118 H   0  0  0  0  0  0  0  0  0  0  0  0
   -6.7255   -1.9613   15.2400 H   0  0  0  0  0  0  0  0  0  0  0  0
   -2.2029   -3.6602   16.2464 H   0  0  0  0  0  0  0  0  0  0  0  0
   -0.2274   -2.3827   16.8821 H   0  0  0  0  0  0  0  0  0  0  0  0
    0.1319   -3.5351   15.5518 H   0  0  0  0  0  0  0  0  0  0  0  0
    5.1537    1.9347   13.2514 H   0  0  0  0  0  0  0  0  0  0  0  0
    6.8404    0.8712   15.3031 H   0  0  0  0  0  0  0  0  0  0  0  0
    6.2521   -0.7606   17.3472 H   0  0  0  0  0  0  0  0  0  0  0  0
    4.5869    2.3636   11.2421 H   0  0  0  0  0  0  0  0  0  0  0  0
    3.8596    3.8175    9.3833 H   0  0  0  0  0  0  0  0  0  0  0  0
    1.6029    2.9163    9.4162 H   0  0  0  0  0  0  0  0  0  0  0  0
    1.3619    5.0985    8.2410 H   0  0  0  0  0  0  0  0  0  0  0  0
    0.5648    2.2163   12.8091 H   0  0  0  0  0  0  0  0  0  0  0  0
   -0.0910   -0.0304   13.6148 H   0  0  0  0  0  0  0  0  0  0  0  0
   -2.5192   -0.4925   13.3743 H   0  0  0  0  0  0  0  0  0  0  0  0
  1  2  1  0  0  0  0
  1  6  1  0  0  0  0
  2  3  1  0  0  0  0
  3  4  1  0  0  0  0
  3  7  1  0  0  0  0
  4  5  1  0  0  0  0
  5  6  1  0  0  0  0
  7  8  2  0  0  0  0
  7 31  1  0  0  0  0
  8  9  1  0  0  0  0
  9 10  1  0  0  0  0
 10 11  2  0  0  0  0
 10 30  1  0  0  0  0
 11 12  1  0  0  0  0
 12 13  2  0  0  0  0
 12 20  1  0  0  0  0
 13 14  1  0  0  0  0
 14 15  2  0  0  0  0
 14 21  1  0  0  0  0
 15 16  1  0  0  0  0
 16 17  1  0  0  0  0
 16 20  1  0  0  0  0
 17 18  2  0  0  0  0
 18 19  1  0  0  0  0
 19 20  2  0  0  0  0
 21 22  1  0  0  0  0
 21 29  2  0  0  0  0
 22 23  2  0  0  0  0
 23 24  1  0  0  0  0
 24 25  1  0  0  0  0
 24 28  1  0  0  0  0
 25 26  2  0  0  0  0
 26 27  1  0  0  0  0
 27 28  2  0  0  0  0
 28 29  1  0  0  0  0
 30 31  2  0  0  0  0
  1 32  1  0  0  0  0
  1 33  1  0  0  0  0
  2 34  1  0  0  0  0
  2 35  1  0  0  0  0
  3 36  1  0  0  0  0
  4 37  1  0  0  0  0
  4 38  1  0  0  0  0
  5 39  1  0  0  0  0
  5 40  1  0  0  0  0
  8 41  1  0  0  0  0
  9 42  1  0  0  0  0
  9 43  1  0  0  0  0
 15 44  1  0  0  0  0
 17 45  1  0  0  0  0
 18 46  1  0  0  0  0
 22 47  1  0  0  0  0
 23 48  1  0  0  0  0
 24 49  1  0  0  0  0
 25 50  1  0  0  0  0
 29 51  1  0  0  0  0
 30 52  1  0  0  0  0
 31 53  1  0  0  0  0
M  END
> <IC50[nM]>
3.8

$$$$
CHEMBL3265034
  -OEChem-05192314333D
 Structure written by MMmdl.
 53 58  0     0  0  0  0  0  0999 V2000
   -5.7484   -4.1352   14.0916 C   0  0  0  0  0  0  0  0  0  0  0  0
   -4.2467   -3.7965   14.1043 C   0  0  0  0  0  0  0  0  0  0  0  0
   -4.0046   -2.3867   14.6667 C   0  0  0  0  0  0  0  0  0  0  0  0
   -4.7211   -2.2350   16.0203 C   0  0  0  0  0  0  0  0  0  0  0  0
   -6.1989   -2.6529   15.9141 C   0  0  0  0  0  0  0  0  0  0  0  0
   -6.2949   -3.9790   15.3990 O   0  0  0  0  0  0  0  0  0  0  0  0
   -2.5163   -2.1019   14.8026 C   0  0  0  0  0  0  0  0  0  0  0  0
   -1.7444   -2.8650   15.6773 C   0  0  0  0  0  0  0  0  0  0  0  0
   -0.3947   -2.6068   15.8182 C   0  0  0  0  0  0  0  0  0  0  0  0
    0.2168   -1.5789   15.0929 C   0  0  0  0  0  0  0  0  0  0  0  0
    1.5959   -1.3413   15.3408 N   0  0  0  0  0  0  0  0  0  0  0  0
    2.5346   -0.4433   14.7633 C   0  0  0  0  0  0  0  0  0  0  0  0
    2.1825    0.3683   13.7202 N   0  0  0  0  0  0  0  0  0  0  0  0
    3.1144    1.2372   13.2163 C   0  0  0  0  0  0  0  0  0  0  0  0
    4.4190    1.2837   13.7018 C   0  0  0  0  0  0  0  0  0  0  0  0
    4.7465    0.4877   14.7594 N   0  0  0  0  0  0  0  0  0  0  0  0
    5.8977    0.3771   15.4862 C   0  0  0  0  0  0  0  0  0  0  0  0
    5.5879   -0.5237   16.5292 C   0  0  0  0  0  0  0  0  0  0  0  0
    4.3754   -1.0416   16.3746 N   0  0  0  0  0  0  0  0  0  0  0  0
    3.8361   -0.3925   15.3266 C   0  0  0  0  0  0  0  0  0  0  0  0
    2.6384    2.1617   12.1197 C   0  0  0  0  0  0  0  0  0  0  0  0
    3.5461    2.6405   11.1618 C   0  0  0  0  0  0  0  0  0  0  0  0
    3.1445    3.4623   10.1105 C   0  0  0  0  0  0  0  0  0  0  0  0
    1.7985    3.8158   10.0184 C   0  0  0  0  0  0  0  0  0  0  0  0
    0.9907    4.5934    9.1205 C   0  0  0  0  0  0  0  0  0  0  0  0
   -0.2502    4.6054    9.5128 N   0  0  0  0  0  0  0  0  0  0  0  0
   -0.3377    3.8946   10.6262 N   0  0  0  0  0  0  0  0  0  0  0  0
    0.8856    3.3616   10.9945 C   0  0  0  0  0  0  0  0  0  0  0  0
    1.2735    2.5429   12.0624 C   0  0  0  0  0  0  0  0  0  0  0  0
   -0.5534   -0.8155   14.1947 C   0  0  0  0  0  0  0  0  0  0  0  0
   -1.9224   -1.0793   14.0569 C   0  0  0  0  0  0  0  0  0  0  0  0
   -6.2683   -3.4596   13.3964 H   0  0  0  0  0  0  0  0  0  0  0  0
   -5.8843   -5.1758   13.7620 H   0  0  0  0  0  0  0  0  0  0  0  0
   -3.7179   -4.5295   14.7312 H   0  0  0  0  0  0  0  0  0  0  0  0
   -3.8583   -3.8453   13.0763 H   0  0  0  0  0  0  0  0  0  0  0  0
   -4.4360   -1.6572   13.9654 H   0  0  0  0  0  0  0  0  0  0  0  0
   -4.2204   -2.8709   16.7652 H   0  0  0  0  0  0  0  0  0  0  0  0
   -4.6669   -1.1838   16.3398 H   0  0  0  0  0  0  0  0  0  0  0  0
   -6.6607   -2.6153   16.9118 H   0  0  0  0  0  0  0  0  0  0  0  0
   -6.7255   -1.9613   15.2400 H   0  0  0  0  0  0  0  0  0  0  0  0
   -2.3053   -2.8158   13.9927 H   0  0  0  0  0  0  0  0  0  0  0  0
   -2.2029   -3.6602   16.2464 H   0  0  0  0  0  0  0  0  0  0  0  0
    0.1953   -3.2056   16.4963 H   0  0  0  0  0  0  0  0  0  0  0  0
    5.1537    1.9347   13.2514 H   0  0  0  0  0  0  0  0  0  0  0  0
    6.8404    0.8712   15.3031 H   0  0  0  0  0  0  0  0  0  0  0  0
    6.2521   -0.7606   17.3472 H   0  0  0  0  0  0  0  0  0  0  0  0
    4.3118    3.2024   11.7168 H   0  0  0  0  0  0  0  0  0  0  0  0
    4.0045    1.7530   10.7012 H   0  0  0  0  0  0  0  0  0  0  0  0
    3.8596    3.8175    9.3833 H   0  0  0  0  0  0  0  0  0  0  0  0
    1.3619    5.0985    8.2410 H   0  0  0  0  0  0  0  0  0  0  0  0
    0.5648    2.2163   12.8091 H   0  0  0  0  0  0  0  0  0  0  0  0
   -0.0910   -0.0304   13.6148 H   0  0  0  0  0  0  0  0  0  0  0  0
   -2.5192   -0.4925   13.3743 H   0  0  0  0  0  0  0  0  0  0  0  0
  1  2  1  0  0  0  0
  1  6  1  0  0  0  0
  2  3  1  0  0  0  0
  3  4  1  0  0  0  0
  3  7  1  0  0  0  0
  4  5  1  0  0  0  0
  5  6  1  0  0  0  0
  7  8  1  0  0  0  0
  7 31  1  0  0  0  0
  8  9  2  0  0  0  0
  9 10  1  0  0  0  0
 10 11  2  0  0  0  0
 10 30  1  0  0  0  0
 11 12  1  0  0  0  0
 12 13  2  0  0  0  0
 12 20  1  0  0  0  0
 13 14  1  0  0  0  0
 14 15  2  0  0  0  0
 14 21  1  0  0  0  0
 15 16  1  0  0  0  0
 16 17  1  0  0  0  0
 16 20  1  0  0  0  0
 17 18  2  0  0  0  0
 18 19  1  0  0  0  0
 19 20  2  0  0  0  0
 21 22  1  0  0  0  0
 21 29  2  0  0  0  0
 22 23  1  0  0  0  0
 23 24  2  0  0  0  0
 24 25  1  0  0  0  0
 24 28  1  0  0  0  0
 25 26  2  0  0  0  0
 26 27  1  0  0  0  0
 27 28  2  0  0  0  0
 28 29  1  0  0  0  0
 30 31  2  0  0  0  0
  1 32  1  0  0  0  0
  1 33  1  0  0  0  0
  2 34  1  0  0  0  0
  2 35  1  0  0  0  0
  3 36  1  0  0  0  0
  4 37  1  0  0  0  0
  4 38  1  0  0  0  0
  5 39  1  0  0  0  0
  5 40  1  0  0  0  0
  7 41  1  0  0  0  0
  8 42  1  0  0  0  0
  9 43  1  0  0  0  0
 15 44  1  0  0  0  0
 17 45  1  0  0  0  0
 18 46  1  0  0  0  0
 22 47  1  0  0  0  0
 22 48  1  0  0  0  0
 23 49  1  0  0  0  0
 25 50  1  0  0  0  0
 29 51  1  0  0  0  0
 30 52  1  0  0  0  0
 31 53  1  0  0  0  0
M  END
> <IC50[nM]>
3.8

$$$$
CHEMBL3265034
  -OEChem-05192314333D
 Structure written by MMmdl.
 53 58  0     0  0  0  0  0  0999 V2000
   -5.7484   -4.1352   14.0916 C   0  0  0  0  0  0  0  0  0  0  0  0
   -4.2467   -3.7965   14.1043 C   0  0  0  0  0  0  0  0  0  0  0  0
   -4.0046   -2.3867   14.6667 C   0  0  0  0  0  0  0  0  0  0  0  0
   -4.7211   -2.2350   16.0203 C   0  0  0  0  0  0  0  0  0  0  0  0
   -6.1989   -2.6529   15.9141 C   0  0  0  0  0  0  0  0  0  0  0  0
   -6.2949   -3.9790   15.3990 O   0  0  0  0  0  0  0  0  0  0  0  0
   -2.5163   -2.1019   14.8026 C   0  0  0  0  0  0  0  0  0  0  0  0
   -1.7444   -2.8650   15.6773 C   0  0  0  0  0  0  0  0  0  0  0  0
   -0.3947   -2.6068   15.8182 C   0  0  0  0  0  0  0  0  0  0  0  0
    0.2168   -1.5789   15.0929 C   0  0  0  0  0  0  0  0  0  0  0  0
    1.5959   -1.3413   15.3408 N   0  0  0  0  0  0  0  0  0  0  0  0
    2.5346   -0.4433   14.7633 C   0  0  0  0  0  0  0  0  0  0  0  0
    2.1825    0.3683   13.7202 N   0  0  0  0  0  0  0  0  0  0  0  0
    3.1144    1.2372   13.2163 C   0  0  0  0  0  0  0  0  0  0  0  0
    4.4190    1.2837   13.7018 C   0  0  0  0  0  0  0  0  0  0  0  0
    4.7465    0.4877   14.7594 N   0  0  0  0  0  0  0  0  0  0  0  0
    5.8977    0.3771   15.4862 C   0  0  0  0  0  0  0  0  0  0  0  0
    5.5879   -0.5237   16.5292 C   0  0  0  0  0  0  0  0  0  0  0  0
    4.3754   -1.0416   16.3746 N   0  0  0  0  0  0  0  0  0  0  0  0
    3.8361   -0.3925   15.3266 C   0  0  0  0  0  0  0  0  0  0  0  0
    2.6384    2.1617   12.1197 C   0  0  0  0  0  0  0  0  0  0  0  0
    3.5461    2.6405   11.1618 C   0  0  0  0  0  0  0  0  0  0  0  0
    3.1445    3.4623   10.1105 C   0  0  0  0  0  0  0  0  0  0  0  0
    1.7985    3.8158   10.0184 C   0  0  0  0  0  0  0  0  0  0  0  0
    0.9907    4.5934    9.1205 C   0  0  0  0  0  0  0  0  0  0  0  0
   -0.2502    4.6054    9.5128 N   0  0  0  0  0  0  0  0  0  0  0  0
   -0.3377    3.8946   10.6262 N   0  0  0  0  0  0  0  0  0  0  0  0
    0.8856    3.3616   10.9945 C   0  0  0  0  0  0  0  0  0  0  0  0
    1.2735    2.5429   12.0624 C   0  0  0  0  0  0  0  0  0  0  0  0
   -0.5534   -0.8155   14.1947 C   0  0  0  0  0  0  0  0  0  0  0  0
   -1.9224   -1.0793   14.0569 C   0  0  0  0  0  0  0  0  0  0  0  0
   -6.2683   -3.4596   13.3964 H   0  0  0  0  0  0  0  0  0  0  0  0
   -5.8843   -5.1758   13.7620 H   0  0  0  0  0  0  0  0  0  0  0  0
   -3.7179   -4.5295   14.7312 H   0  0  0  0  0  0  0  0  0  0  0  0
   -3.8583   -3.8453   13.0763 H   0  0  0  0  0  0  0  0  0  0  0  0
   -4.4360   -1.6572   13.9654 H   0  0  0  0  0  0  0  0  0  0  0  0
   -4.2204   -2.8709   16.7652 H   0  0  0  0  0  0  0  0  0  0  0  0
   -4.6669   -1.1838   16.3398 H   0  0  0  0  0  0  0  0  0  0  0  0
   -6.6607   -2.6153   16.9118 H   0  0  0  0  0  0  0  0  0  0  0  0
   -6.7255   -1.9613   15.2400 H   0  0  0  0  0  0  0  0  0  0  0  0
   -2.2029   -3.6602   16.2464 H   0  0  0  0  0  0  0  0  0  0  0  0
   -0.2274   -2.3827   16.8821 H   0  0  0  0  0  0  0  0  0  0  0  0
    0.1319   -3.5351   15.5518 H   0  0  0  0  0  0  0  0  0  0  0  0
    5.1537    1.9347   13.2514 H   0  0  0  0  0  0  0  0  0  0  0  0
    6.8404    0.8712   15.3031 H   0  0  0  0  0  0  0  0  0  0  0  0
    6.2521   -0.7606   17.3472 H   0  0  0  0  0  0  0  0  0  0  0  0
    4.3118    3.2024   11.7168 H   0  0  0  0  0  0  0  0  0  0  0  0
    4.0045    1.7530   10.7012 H   0  0  0  0  0  0  0  0  0  0  0  0
    3.8596    3.8175    9.3833 H   0  0  0  0  0  0  0  0  0  0  0  0
    1.3619    5.0985    8.2410 H   0  0  0  0  0  0  0  0  0  0  0  0
    0.5648    2.2163   12.8091 H   0  0  0  0  0  0  0  0  0  0  0  0
   -0.0910   -0.0304   13.6148 H   0  0  0  0  0  0  0  0  0  0  0  0
   -2.5192   -0.4925   13.3743 H   0  0  0  0  0  0  0  0  0  0  0  0
  1  2  1  0  0  0  0
  1  6  1  0  0  0  0
  2  3  1  0  0  0  0
  3  4  1  0  0  0  0
  3  7  1  0  0  0  0
  4  5  1  0  0  0  0
  5  6  1  0  0  0  0
  7  8  2  0  0  0  0
  7 31  1  0  0  0  0
  8  9  1  0  0  0  0
  9 10  1  0  0  0  0
 10 11  2  0  0  0  0
 10 30  1  0  0  0  0
 11 12  1  0  0  0  0
 12 13  2  0  0  0  0
 12 20  1  0  0  0  0
 13 14  1  0  0  0  0
 14 15  2  0  0  0  0
 14 21  1  0  0  0  0
 15 16  1  0  0  0  0
 16 17  1  0  0  0  0
 16 20  1  0  0  0  0
 17 18  2  0  0  0  0
 18 19  1  0  0  0  0
 19 20  2  0  0  0  0
 21 22  1  0  0  0  0
 21 29  2  0  0  0  0
 22 23  1  0  0  0  0
 23 24  2  0  0  0  0
 24 25  1  0  0  0  0
 24 28  1  0  0  0  0
 25 26  2  0  0  0  0
 26 27  1  0  0  0  0
 27 28  2  0  0  0  0
 28 29  1  0  0  0  0
 30 31  2  0  0  0  0
  1 32  1  0  0  0  0
  1 33  1  0  0  0  0
  2 34  1  0  0  0  0
  2 35  1  0  0  0  0
  3 36  1  0  0  0  0
  4 37  1  0  0  0  0
  4 38  1  0  0  0  0
  5 39  1  0  0  0  0
  5 40  1  0  0  0  0
  8 41  1  0  0  0  0
  9 42  1  0  0  0  0
  9 43  1  0  0  0  0
 15 44  1  0  0  0  0
 17 45  1  0  0  0  0
 18 46  1  0  0  0  0
 22 47  1  0  0  0  0
 22 48  1  0  0  0  0
 23 49  1  0  0  0  0
 25 50  1  0  0  0  0
 29 51  1  0  0  0  0
 30 52  1  0  0  0  0
 31 53  1  0  0  0  0
M  END
> <IC50[nM]>
3.8

$$$$
CHEMBL3265034
  -OEChem-05192314333D
 Structure written by MMmdl.
 53 58  0     0  0  0  0  0  0999 V2000
   -5.7484   -4.1352   14.0916 C   0  0  0  0  0  0  0  0  0  0  0  0
   -4.2467   -3.7965   14.1043 C   0  0  0  0  0  0  0  0  0  0  0  0
   -4.0046   -2.3867   14.6667 C   0  0  0  0  0  0  0  0  0  0  0  0
   -4.7211   -2.2350   16.0203 C   0  0  0  0  0  0  0  0  0  0  0  0
   -6.1989   -2.6529   15.9141 C   0  0  0  0  0  0  0  0  0  0  0  0
   -6.2949   -3.9790   15.3990 O   0  0  0  0  0  0  0  0  0  0  0  0
   -2.5163   -2.1019   14.8026 C   0  0  0  0  0  0  0  0  0  0  0  0
   -1.7444   -2.8650   15.6773 C   0  0  0  0  0  0  0  0  0  0  0  0
   -0.3947   -2.6068   15.8182 C   0  0  0  0  0  0  0  0  0  0  0  0
    0.2168   -1.5789   15.0929 C   0  0  0  0  0  0  0  0  0  0  0  0
    1.5959   -1.3413   15.3408 N   0  0  0  0  0  0  0  0  0  0  0  0
    2.5346   -0.4433   14.7633 C   0  0  0  0  0  0  0  0  0  0  0  0
    2.1825    0.3683   13.7202 N   0  0  0  0  0  0  0  0  0  0  0  0
    3.1144    1.2372   13.2163 C   0  0  0  0  0  0  0  0  0  0  0  0
    4.4190    1.2837   13.7018 C   0  0  0  0  0  0  0  0  0  0  0  0
    4.7465    0.4877   14.7594 N   0  0  0  0  0  0  0  0  0  0  0  0
    5.8977    0.3771   15.4862 C   0  0  0  0  0  0  0  0  0  0  0  0
    5.5879   -0.5237   16.5292 C   0  0  0  0  0  0  0  0  0  0  0  0
    4.3754   -1.0416   16.3746 N   0  0  0  0  0  0  0  0  0  0  0  0
    3.8361   -0.3925   15.3266 C   0  0  0  0  0  0  0  0  0  0  0  0
    2.6384    2.1617   12.1197 C   0  0  0  0  0  0  0  0  0  0  0  0
    3.5461    2.6405   11.1618 C   0  0  0  0  0  0  0  0  0  0  0  0
    3.1445    3.4623   10.1105 C   0  0  0  0  0  0  0  0  0  0  0  0
    1.7985    3.8158   10.0184 C   0  0  0  0  0  0  0  0  0  0  0  0
    0.9907    4.5934    9.1205 C   0  0  0  0  0  0  0  0  0  0  0  0
   -0.2502    4.6054    9.5128 N   0  0  0  0  0  0  0  0  0  0  0  0
   -0.3377    3.8946   10.6262 N   0  0  0  0  0  0  0  0  0  0  0  0
    0.8856    3.3616   10.9945 C   0  0  0  0  0  0  0  0  0  0  0  0
    1.2735    2.5429   12.0624 C   0  0  0  0  0  0  0  0  0  0  0  0
   -0.5534   -0.8155   14.1947 C   0  0  0  0  0  0  0  0  0  0  0  0
   -1.9224   -1.0793   14.0569 C   0  0  0  0  0  0  0  0  0  0  0  0
   -6.2683   -3.4596   13.3964 H   0  0  0  0  0  0  0  0  0  0  0  0
   -5.8843   -5.1758   13.7620 H   0  0  0  0  0  0  0  0  0  0  0  0
   -3.7179   -4.5295   14.7312 H   0  0  0  0  0  0  0  0  0  0  0  0
   -3.8583   -3.8453   13.0763 H   0  0  0  0  0  0  0  0  0  0  0  0
   -4.4360   -1.6572   13.9654 H   0  0  0  0  0  0  0  0  0  0  0  0
   -4.2204   -2.8709   16.7652 H   0  0  0  0  0  0  0  0  0  0  0  0
   -4.6669   -1.1838   16.3398 H   0  0  0  0  0  0  0  0  0  0  0  0
   -6.6607   -2.6153   16.9118 H   0  0  0  0  0  0  0  0  0  0  0  0
   -6.7255   -1.9613   15.2400 H   0  0  0  0  0  0  0  0  0  0  0  0
   -2.3053   -2.8158   13.9927 H   0  0  0  0  0  0  0  0  0  0  0  0
   -2.2029   -3.6602   16.2464 H   0  0  0  0  0  0  0  0  0  0  0  0
    0.1953   -3.2056   16.4963 H   0  0  0  0  0  0  0  0  0  0  0  0
    5.1537    1.9347   13.2514 H   0  0  0  0  0  0  0  0  0  0  0  0
    6.8404    0.8712   15.3031 H   0  0  0  0  0  0  0  0  0  0  0  0
    6.2521   -0.7606   17.3472 H   0  0  0  0  0  0  0  0  0  0  0  0
    4.5869    2.3636   11.2421 H   0  0  0  0  0  0  0  0  0  0  0  0
    3.8596    3.8175    9.3833 H   0  0  0  0  0  0  0  0  0  0  0  0
    1.3619    5.0985    8.2410 H   0  0  0  0  0  0  0  0  0  0  0  0
    0.6739    1.6222   12.0093 H   0  0  0  0  0  0  0  0  0  0  0  0
    1.0396    3.0795   12.9937 H   0  0  0  0  0  0  0  0  0  0  0  0
   -0.0910   -0.0304   13.6148 H   0  0  0  0  0  0  0  0  0  0  0  0
   -2.5192   -0.4925   13.3743 H   0  0  0  0  0  0  0  0  0  0  0  0
  1  2  1  0  0  0  0
  1  6  1  0  0  0  0
  2  3  1  0  0  0  0
  3  4  1  0  0  0  0
  3  7  1  0  0  0  0
  4  5  1  0  0  0  0
  5  6  1  0  0  0  0
  7  8  1  0  0  0  0
  7 31  1  0  0  0  0
  8  9  2  0  0  0  0
  9 10  1  0  0  0  0
 10 11  2  0  0  0  0
 10 30  1  0  0  0  0
 11 12  1  0  0  0  0
 12 13  2  0  0  0  0
 12 20  1  0  0  0  0
 13 14  1  0  0  0  0
 14 15  2  0  0  0  0
 14 21  1  0  0  0  0
 15 16  1  0  0  0  0
 16 17  1  0  0  0  0
 16 20  1  0  0  0  0
 17 18  2  0  0  0  0
 18 19  1  0  0  0  0
 19 20  2  0  0  0  0
 21 22  2  0  0  0  0
 21 29  1  0  0  0  0
 22 23  1  0  0  0  0
 23 24  2  0  0  0  0
 24 25  1  0  0  0  0
 24 28  1  0  0  0  0
 25 26  2  0  0  0  0
 26 27  1  0  0  0  0
 27 28  2  0  0  0  0
 28 29  1  0  0  0  0
 30 31  2  0  0  0  0
  1 32  1  0  0  0  0
  1 33  1  0  0  0  0
  2 34  1  0  0  0  0
  2 35  1  0  0  0  0
  3 36  1  0  0  0  0
  4 37  1  0  0  0  0
  4 38  1  0  0  0  0
  5 39  1  0  0  0  0
  5 40  1  0  0  0  0
  7 41  1  0  0  0  0
  8 42  1  0  0  0  0
  9 43  1  0  0  0  0
 15 44  1  0  0  0  0
 17 45  1  0  0  0  0
 18 46  1  0  0  0  0
 22 47  1  0  0  0  0
 23 48  1  0  0  0  0
 25 49  1  0  0  0  0
 29 50  1  0  0  0  0
 29 51  1  0  0  0  0
 30 52  1  0  0  0  0
 31 53  1  0  0  0  0
M  END
> <IC50[nM]>
3.8

$$$$
CHEMBL3265034
  -OEChem-05192314333D
 Structure written by MMmdl.
 53 58  0     0  0  0  0  0  0999 V2000
   -5.7484   -4.1352   14.0916 C   0  0  0  0  0  0  0  0  0  0  0  0
   -4.2467   -3.7965   14.1043 C   0  0  0  0  0  0  0  0  0  0  0  0
   -4.0046   -2.3867   14.6667 C   0  0  0  0  0  0  0  0  0  0  0  0
   -4.7211   -2.2350   16.0203 C   0  0  0  0  0  0  0  0  0  0  0  0
   -6.1989   -2.6529   15.9141 C   0  0  0  0  0  0  0  0  0  0  0  0
   -6.2949   -3.9790   15.3990 O   0  0  0  0  0  0  0  0  0  0  0  0
   -2.5163   -2.1019   14.8026 C   0  0  0  0  0  0  0  0  0  0  0  0
   -1.7444   -2.8650   15.6773 C   0  0  0  0  0  0  0  0  0  0  0  0
   -0.3947   -2.6068   15.8182 C   0  0  0  0  0  0  0  0  0  0  0  0
    0.2168   -1.5789   15.0929 C   0  0  0  0  0  0  0  0  0  0  0  0
    1.5959   -1.3413   15.3408 N   0  0  0  0  0  0  0  0  0  0  0  0
    2.5346   -0.4433   14.7633 C   0  0  0  0  0  0  0  0  0  0  0  0
    2.1825    0.3683   13.7202 N   0  0  0  0  0  0  0  0  0  0  0  0
    3.1144    1.2372   13.2163 C   0  0  0  0  0  0  0  0  0  0  0  0
    4.4190    1.2837   13.7018 C   0  0  0  0  0  0  0  0  0  0  0  0
    4.7465    0.4877   14.7594 N   0  0  0  0  0  0  0  0  0  0  0  0
    5.8977    0.3771   15.4862 C   0  0  0  0  0  0  0  0  0  0  0  0
    5.5879   -0.5237   16.5292 C   0  0  0  0  0  0  0  0  0  0  0  0
    4.3754   -1.0416   16.3746 N   0  0  0  0  0  0  0  0  0  0  0  0
    3.8361   -0.3925   15.3266 C   0  0  0  0  0  0  0  0  0  0  0  0
    2.6384    2.1617   12.1197 C   0  0  0  0  0  0  0  0  0  0  0  0
    3.5461    2.6405   11.1618 C   0  0  0  0  0  0  0  0  0  0  0  0
    3.1445    3.4623   10.1105 C   0  0  0  0  0  0  0  0  0  0  0  0
    1.7985    3.8158   10.0184 C   0  0  0  0  0  0  0  0  0  0  0  0
    0.9907    4.5934    9.1205 C   0  0  0  0  0  0  0  0  0  0  0  0
   -0.2502    4.6054    9.5128 N   0  0  0  0  0  0  0  0  0  0  0  0
   -0.3377    3.8946   10.6262 N   0  0  0  0  0  0  0  0  0  0  0  0
    0.8856    3.3616   10.9945 C   0  0  0  0  0  0  0  0  0  0  0  0
    1.2735    2.5429   12.0624 C   0  0  0  0  0  0  0  0  0  0  0  0
   -0.5534   -0.8155   14.1947 C   0  0  0  0  0  0  0  0  0  0  0  0
   -1.9224   -1.0793   14.0569 C   0  0  0  0  0  0  0  0  0  0  0  0
   -6.2683   -3.4596   13.3964 H   0  0  0  0  0  0  0  0  0  0  0  0
   -5.8843   -5.1758   13.7620 H   0  0  0  0  0  0  0  0  0  0  0  0
   -3.7179   -4.5295   14.7312 H   0  0  0  0  0  0  0  0  0  0  0  0
   -3.8583   -3.8453   13.0763 H   0  0  0  0  0  0  0  0  0  0  0  0
   -4.4360   -1.6572   13.9654 H   0  0  0  0  0  0  0  0  0  0  0  0
   -4.2204   -2.8709   16.7652 H   0  0  0  0  0  0  0  0  0  0  0  0
   -4.6669   -1.1838   16.3398 H   0  0  0  0  0  0  0  0  0  0  0  0
   -6.6607   -2.6153   16.9118 H   0  0  0  0  0  0  0  0  0  0  0  0
   -6.7255   -1.9613   15.2400 H   0  0  0  0  0  0  0  0  0  0  0  0
   -2.2029   -3.6602   16.2464 H   0  0  0  0  0  0  0  0  0  0  0  0
   -0.2274   -2.3827   16.8821 H   0  0  0  0  0  0  0  0  0  0  0  0
    0.1319   -3.5351   15.5518 H   0  0  0  0  0  0  0  0  0  0  0  0
    5.1537    1.9347   13.2514 H   0  0  0  0  0  0  0  0  0  0  0  0
    6.8404    0.8712   15.3031 H   0  0  0  0  0  0  0  0  0  0  0  0
    6.2521   -0.7606   17.3472 H   0  0  0  0  0  0  0  0  0  0  0  0
    4.5869    2.3636   11.2421 H   0  0  0  0  0  0  0  0  0  0  0  0
    3.8596    3.8175    9.3833 H   0  0  0  0  0  0  0  0  0  0  0  0
    1.3619    5.0985    8.2410 H   0  0  0  0  0  0  0  0  0  0  0  0
    0.6739    1.6222   12.0093 H   0  0  0  0  0  0  0  0  0  0  0  0
    1.0396    3.0795   12.9937 H   0  0  0  0  0  0  0  0  0  0  0  0
   -0.0910   -0.0304   13.6148 H   0  0  0  0  0  0  0  0  0  0  0  0
   -2.5192   -0.4925   13.3743 H   0  0  0  0  0  0  0  0  0  0  0  0
  1  2  1  0  0  0  0
  1  6  1  0  0  0  0
  2  3  1  0  0  0  0
  3  4  1  0  0  0  0
  3  7  1  0  0  0  0
  4  5  1  0  0  0  0
  5  6  1  0  0  0  0
  7  8  2  0  0  0  0
  7 31  1  0  0  0  0
  8  9  1  0  0  0  0
  9 10  1  0  0  0  0
 10 11  2  0  0  0  0
 10 30  1  0  0  0  0
 11 12  1  0  0  0  0
 12 13  2  0  0  0  0
 12 20  1  0  0  0  0
 13 14  1  0  0  0  0
 14 15  2  0  0  0  0
 14 21  1  0  0  0  0
 15 16  1  0  0  0  0
 16 17  1  0  0  0  0
 16 20  1  0  0  0  0
 17 18  2  0  0  0  0
 18 19  1  0  0  0  0
 19 20  2  0  0  0  0
 21 22  2  0  0  0  0
 21 29  1  0  0  0  0
 22 23  1  0  0  0  0
 23 24  2  0  0  0  0
 24 25  1  0  0  0  0
 24 28  1  0  0  0  0
 25 26  2  0  0  0  0
 26 27  1  0  0  0  0
 27 28  2  0  0  0  0
 28 29  1  0  0  0  0
 30 31  2  0  0  0  0
  1 32  1  0  0  0  0
  1 33  1  0  0  0  0
  2 34  1  0  0  0  0
  2 35  1  0  0  0  0
  3 36  1  0  0  0  0
  4 37  1  0  0  0  0
  4 38  1  0  0  0  0
  5 39  1  0  0  0  0
  5 40  1  0  0  0  0
  8 41  1  0  0  0  0
  9 42  1  0  0  0  0
  9 43  1  0  0  0  0
 15 44  1  0  0  0  0
 17 45  1  0  0  0  0
 18 46  1  0  0  0  0
 22 47  1  0  0  0  0
 23 48  1  0  0  0  0
 25 49  1  0  0  0  0
 29 50  1  0  0  0  0
 29 51  1  0  0  0  0
 30 52  1  0  0  0  0
 31 53  1  0  0  0  0
M  END
> <IC50[nM]>
3.8

$$$$
CHEMBL3265034
  -OEChem-05192314333D
 Structure written by MMmdl.
 53 58  0     1  0  0  0  0  0999 V2000
   -5.7484   -4.1352   14.0916 C   0  0  0  0  0  0  0  0  0  0  0  0
   -4.2467   -3.7965   14.1043 C   0  0  0  0  0  0  0  0  0  0  0  0
   -4.0046   -2.3867   14.6667 C   0  0  0  0  0  0  0  0  0  0  0  0
   -4.7211   -2.2350   16.0203 C   0  0  0  0  0  0  0  0  0  0  0  0
   -6.1989   -2.6529   15.9141 C   0  0  0  0  0  0  0  0  0  0  0  0
   -6.2949   -3.9790   15.3990 O   0  0  0  0  0  0  0  0  0  0  0  0
   -2.5163   -2.1019   14.8026 C   0  0  0  0  0  0  0  0  0  0  0  0
   -1.7444   -2.8650   15.6773 C   0  0  0  0  0  0  0  0  0  0  0  0
   -0.3947   -2.6068   15.8182 C   0  0  0  0  0  0  0  0  0  0  0  0
    0.2168   -1.5789   15.0929 C   0  0  0  0  0  0  0  0  0  0  0  0
    1.5959   -1.3413   15.3408 N   0  0  0  0  0  0  0  0  0  0  0  0
    2.5346   -0.4433   14.7633 C   0  0  0  0  0  0  0  0  0  0  0  0
    2.1825    0.3683   13.7202 N   0  0  0  0  0  0  0  0  0  0  0  0
    3.1144    1.2372   13.2163 C   0  0  0  0  0  0  0  0  0  0  0  0
    4.4190    1.2837   13.7018 C   0  0  0  0  0  0  0  0  0  0  0  0
    4.7465    0.4877   14.7594 N   0  0  0  0  0  0  0  0  0  0  0  0
    5.8977    0.3771   15.4862 C   0  0  0  0  0  0  0  0  0  0  0  0
    5.5879   -0.5237   16.5292 C   0  0  0  0  0  0  0  0  0  0  0  0
    4.3754   -1.0416   16.3746 N   0  0  0  0  0  0  0  0  0  0  0  0
    3.8361   -0.3925   15.3266 C   0  0  0  0  0  0  0  0  0  0  0  0
    2.6384    2.1617   12.1197 C   0  0  3  0  0  0  0  0  0  0  0  0
    3.5461    2.6405   11.1618 C   0  0  0  0  0  0  0  0  0  0  0  0
    3.1445    3.4623   10.1105 C   0  0  0  0  0  0  0  0  0  0  0  0
    1.7985    3.8158   10.0184 C   0  0  0  0  0  0  0  0  0  0  0  0
    0.9907    4.5934    9.1205 C   0  0  0  0  0  0  0  0  0  0  0  0
   -0.2502    4.6054    9.5128 N   0  0  0  0  0  0  0  0  0  0  0  0
   -0.3377    3.8946   10.6262 N   0  0  0  0  0  0  0  0  0  0  0  0
    0.8856    3.3616   10.9945 C   0  0  0  0  0  0  0  0  0  0  0  0
    1.2735    2.5429   12.0624 C   0  0  0  0  0  0  0  0  0  0  0  0
   -0.5534   -0.8155   14.1947 C   0  0  0  0  0  0  0  0  0  0  0  0
   -1.9224   -1.0793   14.0569 C   0  0  0  0  0  0  0  0  0  0  0  0
   -6.2683   -3.4596   13.3964 H   0  0  0  0  0  0  0  0  0  0  0  0
   -5.8843   -5.1758   13.7620 H   0  0  0  0  0  0  0  0  0  0  0  0
   -3.7179   -4.5295   14.7312 H   0  0  0  0  0  0  0  0  0  0  0  0
   -3.8583   -3.8453   13.0763 H   0  0  0  0  0  0  0  0  0  0  0  0
   -4.4360   -1.6572   13.9654 H   0  0  0  0  0  0  0  0  0  0  0  0
   -4.2204   -2.8709   16.7652 H   0  0  0  0  0  0  0  0  0  0  0  0
   -4.6669   -1.1838   16.3398 H   0  0  0  0  0  0  0  0  0  0  0  0
   -6.6607   -2.6153   16.9118 H   0  0  0  0  0  0  0  0  0  0  0  0
   -6.7255   -1.9613   15.2400 H   0  0  0  0  0  0  0  0  0  0  0  0
   -2.3053   -2.8158   13.9927 H   0  0  0  0  0  0  0  0  0  0  0  0
   -2.2029   -3.6602   16.2464 H   0  0  0  0  0  0  0  0  0  0  0  0
    0.1953   -3.2056   16.4963 H   0  0  0  0  0  0  0  0  0  0  0  0
    5.1537    1.9347   13.2514 H   0  0  0  0  0  0  0  0  0  0  0  0
    6.8404    0.8712   15.3031 H   0  0  0  0  0  0  0  0  0  0  0  0
    6.2521   -0.7606   17.3472 H   0  0  0  0  0  0  0  0  0  0  0  0
    2.4225    1.2927   11.4808 H   0  0  0  0  0  0  0  0  0  0  0  0
    4.5869    2.3636   11.2421 H   0  0  0  0  0  0  0  0  0  0  0  0
    3.8596    3.8175    9.3833 H   0  0  0  0  0  0  0  0  0  0  0  0
    1.3619    5.0985    8.2410 H   0  0  0  0  0  0  0  0  0  0  0  0
    0.5648    2.2163   12.8091 H   0  0  0  0  0  0  0  0  0  0  0  0
   -0.0910   -0.0304   13.6148 H   0  0  0  0  0  0  0  0  0  0  0  0
   -2.5192   -0.4925   13.3743 H   0  0  0  0  0  0  0  0  0  0  0  0
  1  2  1  0  0  0  0
  1  6  1  0  0  0  0
  2  3  1  0  0  0  0
  3  4  1  0  0  0  0
  3  7  1  0  0  0  0
  4  5  1  0  0  0  0
  5  6  1  0  0  0  0
  7  8  1  0  0  0  0
  7 31  1  0  0  0  0
  8  9  2  0  0  0  0
  9 10  1  0  0  0  0
 10 11  2  0  0  0  0
 10 30  1  0  0  0  0
 11 12  1  0  0  0  0
 12 13  2  0  0  0  0
 12 20  1  0  0  0  0
 13 14  1  0  0  0  0
 14 15  2  0  0  0  0
 14 21  1  0  0  0  0
 15 16  1  0  0  0  0
 16 17  1  0  0  0  0
 16 20  1  0  0  0  0
 17 18  2  0  0  0  0
 18 19  1  0  0  0  0
 19 20  2  0  0  0  0
 21 22  1  0  0  0  0
 21 29  1  0  0  0  0
 22 23  2  0  0  0  0
 23 24  1  0  0  0  0
 24 25  2  0  0  0  0
 24 28  1  0  0  0  0
 25 26  1  0  0  0  0
 26 27  2  0  0  0  0
 27 28  1  0  0  0  0
 28 29  2  0  0  0  0
 30 31  2  0  0  0  0
  1 32  1  0  0  0  0
  1 33  1  0  0  0  0
  2 34  1  0  0  0  0
  2 35  1  0  0  0  0
  3 36  1  0  0  0  0
  4 37  1  0  0  0  0
  4 38  1  0  0  0  0
  5 39  1  0  0  0  0
  5 40  1  0  0  0  0
  7 41  1  0  0  0  0
  8 42  1  0  0  0  0
  9 43  1  0  0  0  0
 15 44  1  0  0  0  0
 17 45  1  0  0  0  0
 18 46  1  0  0  0  0
 21 47  1  0  0  0  0
 22 48  1  0  0  0  0
 23 49  1  0  0  0  0
 25 50  1  0  0  0  0
 29 51  1  0  0  0  0
 30 52  1  0  0  0  0
 31 53  1  0  0  0  0
M  END
> <IC50[nM]>
3.8

$$$$
CHEMBL3265034
  -OEChem-05192314333D
 Structure written by MMmdl.
 53 58  0     1  0  0  0  0  0999 V2000
   -5.7484   -4.1352   14.0916 C   0  0  0  0  0  0  0  0  0  0  0  0
   -4.2467   -3.7965   14.1043 C   0  0  0  0  0  0  0  0  0  0  0  0
   -4.0046   -2.3867   14.6667 C   0  0  0  0  0  0  0  0  0  0  0  0
   -4.7211   -2.2350   16.0203 C   0  0  0  0  0  0  0  0  0  0  0  0
   -6.1989   -2.6529   15.9141 C   0  0  0  0  0  0  0  0  0  0  0  0
   -6.2949   -3.9790   15.3990 O   0  0  0  0  0  0  0  0  0  0  0  0
   -2.5163   -2.1019   14.8026 C   0  0  0  0  0  0  0  0  0  0  0  0
   -1.7444   -2.8650   15.6773 C   0  0  0  0  0  0  0  0  0  0  0  0
   -0.3947   -2.6068   15.8182 C   0  0  0  0  0  0  0  0  0  0  0  0
    0.2168   -1.5789   15.0929 C   0  0  0  0  0  0  0  0  0  0  0  0
    1.5959   -1.3413   15.3408 N   0  0  0  0  0  0  0  0  0  0  0  0
    2.5346   -0.4433   14.7633 C   0  0  0  0  0  0  0  0  0  0  0  0
    2.1825    0.3683   13.7202 N   0  0  0  0  0  0  0  0  0  0  0  0
    3.1144    1.2372   13.2163 C   0  0  0  0  0  0  0  0  0  0  0  0
    4.4190    1.2837   13.7018 C   0  0  0  0  0  0  0  0  0  0  0  0
    4.7465    0.4877   14.7594 N   0  0  0  0  0  0  0  0  0  0  0  0
    5.8977    0.3771   15.4862 C   0  0  0  0  0  0  0  0  0  0  0  0
    5.5879   -0.5237   16.5292 C   0  0  0  0  0  0  0  0  0  0  0  0
    4.3754   -1.0416   16.3746 N   0  0  0  0  0  0  0  0  0  0  0  0
    3.8361   -0.3925   15.3266 C   0  0  0  0  0  0  0  0  0  0  0  0
    2.6384    2.1617   12.1197 C   0  0  0  0  0  0  0  0  0  0  0  0
    3.5461    2.6405   11.1618 C   0  0  0  0  0  0  0  0  0  0  0  0
    3.1445    3.4623   10.1105 C   0  0  0  0  0  0  0  0  0  0  0  0
    1.7985    3.8158   10.0184 C   0  0  0  0  0  0  0  0  0  0  0  0
    0.9907    4.5934    9.1205 C   0  0  0  0  0  0  0  0  0  0  0  0
   -0.2502    4.6054    9.5128 N   0  0  0  0  0  0  0  0  0  0  0  0
   -0.3377    3.8946   10.6262 N   0  0  0  0  0  0  0  0  0  0  0  0
    0.8856    3.3616   10.9945 C   0  0  3  0  0  0  0  0  0  0  0  0
    1.2735    2.5429   12.0624 C   0  0  0  0  0  0  0  0  0  0  0  0
   -0.5534   -0.8155   14.1947 C   0  0  0  0  0  0  0  0  0  0  0  0
   -1.9224   -1.0793   14.0569 C   0  0  0  0  0  0  0  0  0  0  0  0
   -6.2683   -3.4596   13.3964 H   0  0  0  0  0  0  0  0  0  0  0  0
   -5.8843   -5.1758   13.7620 H   0  0  0  0  0  0  0  0  0  0  0  0
   -3.7179   -4.5295   14.7312 H   0  0  0  0  0  0  0  0  0  0  0  0
   -3.8583   -3.8453   13.0763 H   0  0  0  0  0  0  0  0  0  0  0  0
   -4.4360   -1.6572   13.9654 H   0  0  0  0  0  0  0  0  0  0  0  0
   -4.2204   -2.8709   16.7652 H   0  0  0  0  0  0  0  0  0  0  0  0
   -4.6669   -1.1838   16.3398 H   0  0  0  0  0  0  0  0  0  0  0  0
   -6.6607   -2.6153   16.9118 H   0  0  0  0  0  0  0  0  0  0  0  0
   -6.7255   -1.9613   15.2400 H   0  0  0  0  0  0  0  0  0  0  0  0
   -2.3053   -2.8158   13.9927 H   0  0  0  0  0  0  0  0  0  0  0  0
   -2.2029   -3.6602   16.2464 H   0  0  0  0  0  0  0  0  0  0  0  0
    0.1953   -3.2056   16.4963 H   0  0  0  0  0  0  0  0  0  0  0  0
    5.1537    1.9347   13.2514 H   0  0  0  0  0  0  0  0  0  0  0  0
    6.8404    0.8712   15.3031 H   0  0  0  0  0  0  0  0  0  0  0  0
    6.2521   -0.7606   17.3472 H   0  0  0  0  0  0  0  0  0  0  0  0
    4.5869    2.3636   11.2421 H   0  0  0  0  0  0  0  0  0  0  0  0
    3.8596    3.8175    9.3833 H   0  0  0  0  0  0  0  0  0  0  0  0
    1.3619    5.0985    8.2410 H   0  0  0  0  0  0  0  0  0  0  0  0
    1.0918    4.2542   11.6033 H   0  0  0  0  0  0  0  0  0  0  0  0
    0.5648    2.2163   12.8091 H   0  0  0  0  0  0  0  0  0  0  0  0
   -0.0910   -0.0304   13.6148 H   0  0  0  0  0  0  0  0  0  0  0  0
   -2.5192   -0.4925   13.3743 H   0  0  0  0  0  0  0  0  0  0  0  0
  1  2  1  0  0  0  0
  1  6  1  0  0  0  0
  2  3  1  0  0  0  0
  3  4  1  0  0  0  0
  3  7  1  0  0  0  0
  4  5  1  0  0  0  0
  5  6  1  0  0  0  0
  7  8  1  0  0  0  0
  7 31  1  0  0  0  0
  8  9  2  0  0  0  0
  9 10  1  0  0  0  0
 10 11  2  0  0  0  0
 10 30  1  0  0  0  0
 11 12  1  0  0  0  0
 12 13  2  0  0  0  0
 12 20  1  0  0  0  0
 13 14  1  0  0  0  0
 14 15  2  0  0  0  0
 14 21  1  0  0  0  0
 15 16  1  0  0  0  0
 16 17  1  0  0  0  0
 16 20  1  0  0  0  0
 17 18  2  0  0  0  0
 18 19  1  0  0  0  0
 19 20  2  0  0  0  0
 21 22  1  0  0  0  0
 21 29  2  0  0  0  0
 22 23  2  0  0  0  0
 23 24  1  0  0  0  0
 24 25  2  0  0  0  0
 24 28  1  0  0  0  0
 25 26  1  0  0  0  0
 26 27  2  0  0  0  0
 27 28  1  0  0  0  0
 28 29  1  0  0  0  0
 30 31  2  0  0  0  0
  1 32  1  0  0  0  0
  1 33  1  0  0  0  0
  2 34  1  0  0  0  0
  2 35  1  0  0  0  0
  3 36  1  0  0  0  0
  4 37  1  0  0  0  0
  4 38  1  0  0  0  0
  5 39  1  0  0  0  0
  5 40  1  0  0  0  0
  7 41  1  0  0  0  0
  8 42  1  0  0  0  0
  9 43  1  0  0  0  0
 15 44  1  0  0  0  0
 17 45  1  0  0  0  0
 18 46  1  0  0  0  0
 22 47  1  0  0  0  0
 23 48  1  0  0  0  0
 25 49  1  0  0  0  0
 28 50  1  0  0  0  0
 29 51  1  0  0  0  0
 30 52  1  0  0  0  0
 31 53  1  0  0  0  0
M  END
> <IC50[nM]>
3.8

$$$$
CHEMBL3265034
  -OEChem-05192314333D
 Structure written by MMmdl.
 53 58  0     1  0  0  0  0  0999 V2000
   -5.7484   -4.1352   14.0916 C   0  0  0  0  0  0  0  0  0  0  0  0
   -4.2467   -3.7965   14.1043 C   0  0  0  0  0  0  0  0  0  0  0  0
   -4.0046   -2.3867   14.6667 C   0  0  0  0  0  0  0  0  0  0  0  0
   -4.7211   -2.2350   16.0203 C   0  0  0  0  0  0  0  0  0  0  0  0
   -6.1989   -2.6529   15.9141 C   0  0  0  0  0  0  0  0  0  0  0  0
   -6.2949   -3.9790   15.3990 O   0  0  0  0  0  0  0  0  0  0  0  0
   -2.5163   -2.1019   14.8026 C   0  0  0  0  0  0  0  0  0  0  0  0
   -1.7444   -2.8650   15.6773 C   0  0  0  0  0  0  0  0  0  0  0  0
   -0.3947   -2.6068   15.8182 C   0  0  0  0  0  0  0  0  0  0  0  0
    0.2168   -1.5789   15.0929 C   0  0  0  0  0  0  0  0  0  0  0  0
    1.5959   -1.3413   15.3408 N   0  0  0  0  0  0  0  0  0  0  0  0
    2.5346   -0.4433   14.7633 C   0  0  0  0  0  0  0  0  0  0  0  0
    2.1825    0.3683   13.7202 N   0  0  0  0  0  0  0  0  0  0  0  0
    3.1144    1.2372   13.2163 C   0  0  0  0  0  0  0  0  0  0  0  0
    4.4190    1.2837   13.7018 C   0  0  0  0  0  0  0  0  0  0  0  0
    4.7465    0.4877   14.7594 N   0  0  0  0  0  0  0  0  0  0  0  0
    5.8977    0.3771   15.4862 C   0  0  0  0  0  0  0  0  0  0  0  0
    5.5879   -0.5237   16.5292 C   0  0  0  0  0  0  0  0  0  0  0  0
    4.3754   -1.0416   16.3746 N   0  0  0  0  0  0  0  0  0  0  0  0
    3.8361   -0.3925   15.3266 C   0  0  0  0  0  0  0  0  0  0  0  0
    2.6384    2.1617   12.1197 C   0  0  3  0  0  0  0  0  0  0  0  0
    3.5461    2.6405   11.1618 C   0  0  0  0  0  0  0  0  0  0  0  0
    3.1445    3.4623   10.1105 C   0  0  0  0  0  0  0  0  0  0  0  0
    1.7985    3.8158   10.0184 C   0  0  0  0  0  0  0  0  0  0  0  0
    0.9907    4.5934    9.1205 C   0  0  0  0  0  0  0  0  0  0  0  0
   -0.2502    4.6054    9.5128 N   0  0  0  0  0  0  0  0  0  0  0  0
   -0.3377    3.8946   10.6262 N   0  0  0  0  0  0  0  0  0  0  0  0
    0.8856    3.3616   10.9945 C   0  0  0  0  0  0  0  0  0  0  0  0
    1.2735    2.5429   12.0624 C   0  0  0  0  0  0  0  0  0  0  0  0
   -0.5534   -0.8155   14.1947 C   0  0  0  0  0  0  0  0  0  0  0  0
   -1.9224   -1.0793   14.0569 C   0  0  0  0  0  0  0  0  0  0  0  0
   -6.2683   -3.4596   13.3964 H   0  0  0  0  0  0  0  0  0  0  0  0
   -5.8843   -5.1758   13.7620 H   0  0  0  0  0  0  0  0  0  0  0  0
   -3.7179   -4.5295   14.7312 H   0  0  0  0  0  0  0  0  0  0  0  0
   -3.8583   -3.8453   13.0763 H   0  0  0  0  0  0  0  0  0  0  0  0
   -4.4360   -1.6572   13.9654 H   0  0  0  0  0  0  0  0  0  0  0  0
   -4.2204   -2.8709   16.7652 H   0  0  0  0  0  0  0  0  0  0  0  0
   -4.6669   -1.1838   16.3398 H   0  0  0  0  0  0  0  0  0  0  0  0
   -6.6607   -2.6153   16.9118 H   0  0  0  0  0  0  0  0  0  0  0  0
   -6.7255   -1.9613   15.2400 H   0  0  0  0  0  0  0  0  0  0  0  0
   -2.2029   -3.6602   16.2464 H   0  0  0  0  0  0  0  0  0  0  0  0
   -0.2274   -2.3827   16.8821 H   0  0  0  0  0  0  0  0  0  0  0  0
    0.1319   -3.5351   15.5518 H   0  0  0  0  0  0  0  0  0  0  0  0
    5.1537    1.9347   13.2514 H   0  0  0  0  0  0  0  0  0  0  0  0
    6.8404    0.8712   15.3031 H   0  0  0  0  0  0  0  0  0  0  0  0
    6.2521   -0.7606   17.3472 H   0  0  0  0  0  0  0  0  0  0  0  0
    2.4225    1.2927   11.4808 H   0  0  0  0  0  0  0  0  0  0  0  0
    4.5869    2.3636   11.2421 H   0  0  0  0  0  0  0  0  0  0  0  0
    3.8596    3.8175    9.3833 H   0  0  0  0  0  0  0  0  0  0  0  0
    1.3619    5.0985    8.2410 H   0  0  0  0  0  0  0  0  0  0  0  0
    0.5648    2.2163   12.8091 H   0  0  0  0  0  0  0  0  0  0  0  0
   -0.0910   -0.0304   13.6148 H   0  0  0  0  0  0  0  0  0  0  0  0
   -2.5192   -0.4925   13.3743 H   0  0  0  0  0  0  0  0  0  0  0  0
  1  2  1  0  0  0  0
  1  6  1  0  0  0  0
  2  3  1  0  0  0  0
  3  4  1  0  0  0  0
  3  7  1  0  0  0  0
  4  5  1  0  0  0  0
  5  6  1  0  0  0  0
  7  8  2  0  0  0  0
  7 31  1  0  0  0  0
  8  9  1  0  0  0  0
  9 10  1  0  0  0  0
 10 11  2  0  0  0  0
 10 30  1  0  0  0  0
 11 12  1  0  0  0  0
 12 13  2  0  0  0  0
 12 20  1  0  0  0  0
 13 14  1  0  0  0  0
 14 15  2  0  0  0  0
 14 21  1  0  0  0  0
 15 16  1  0  0  0  0
 16 17  1  0  0  0  0
 16 20  1  0  0  0  0
 17 18  2  0  0  0  0
 18 19  1  0  0  0  0
 19 20  2  0  0  0  0
 21 22  1  0  0  0  0
 21 29  1  0  0  0  0
 22 23  2  0  0  0  0
 23 24  1  0  0  0  0
 24 25  2  0  0  0  0
 24 28  1  0  0  0  0
 25 26  1  0  0  0  0
 26 27  2  0  0  0  0
 27 28  1  0  0  0  0
 28 29  2  0  0  0  0
 30 31  2  0  0  0  0
  1 32  1  0  0  0  0
  1 33  1  0  0  0  0
  2 34  1  0  0  0  0
  2 35  1  0  0  0  0
  3 36  1  0  0  0  0
  4 37  1  0  0  0  0
  4 38  1  0  0  0  0
  5 39  1  0  0  0  0
  5 40  1  0  0  0  0
  8 41  1  0  0  0  0
  9 42  1  0  0  0  0
  9 43  1  0  0  0  0
 15 44  1  0  0  0  0
 17 45  1  0  0  0  0
 18 46  1  0  0  0  0
 21 47  1  0  0  0  0
 22 48  1  0  0  0  0
 23 49  1  0  0  0  0
 25 50  1  0  0  0  0
 29 51  1  0  0  0  0
 30 52  1  0  0  0  0
 31 53  1  0  0  0  0
M  END
> <IC50[nM]>
3.8

$$$$
CHEMBL3265034
  -OEChem-05192314333D
 Structure written by MMmdl.
 53 58  0     1  0  0  0  0  0999 V2000
   -5.7484   -4.1352   14.0916 C   0  0  0  0  0  0  0  0  0  0  0  0
   -4.2467   -3.7965   14.1043 C   0  0  0  0  0  0  0  0  0  0  0  0
   -4.0046   -2.3867   14.6667 C   0  0  0  0  0  0  0  0  0  0  0  0
   -4.7211   -2.2350   16.0203 C   0  0  0  0  0  0  0  0  0  0  0  0
   -6.1989   -2.6529   15.9141 C   0  0  0  0  0  0  0  0  0  0  0  0
   -6.2949   -3.9790   15.3990 O   0  0  0  0  0  0  0  0  0  0  0  0
   -2.5163   -2.1019   14.8026 C   0  0  0  0  0  0  0  0  0  0  0  0
   -1.7444   -2.8650   15.6773 C   0  0  0  0  0  0  0  0  0  0  0  0
   -0.3947   -2.6068   15.8182 C   0  0  0  0  0  0  0  0  0  0  0  0
    0.2168   -1.5789   15.0929 C   0  0  0  0  0  0  0  0  0  0  0  0
    1.5959   -1.3413   15.3408 N   0  0  0  0  0  0  0  0  0  0  0  0
    2.5346   -0.4433   14.7633 C   0  0  0  0  0  0  0  0  0  0  0  0
    2.1825    0.3683   13.7202 N   0  0  0  0  0  0  0  0  0  0  0  0
    3.1144    1.2372   13.2163 C   0  0  0  0  0  0  0  0  0  0  0  0
    4.4190    1.2837   13.7018 C   0  0  0  0  0  0  0  0  0  0  0  0
    4.7465    0.4877   14.7594 N   0  0  0  0  0  0  0  0  0  0  0  0
    5.8977    0.3771   15.4862 C   0  0  0  0  0  0  0  0  0  0  0  0
    5.5879   -0.5237   16.5292 C   0  0  0  0  0  0  0  0  0  0  0  0
    4.3754   -1.0416   16.3746 N   0  0  0  0  0  0  0  0  0  0  0  0
    3.8361   -0.3925   15.3266 C   0  0  0  0  0  0  0  0  0  0  0  0
    2.6384    2.1617   12.1197 C   0  0  0  0  0  0  0  0  0  0  0  0
    3.5461    2.6405   11.1618 C   0  0  0  0  0  0  0  0  0  0  0  0
    3.1445    3.4623   10.1105 C   0  0  0  0  0  0  0  0  0  0  0  0
    1.7985    3.8158   10.0184 C   0  0  0  0  0  0  0  0  0  0  0  0
    0.9907    4.5934    9.1205 C   0  0  0  0  0  0  0  0  0  0  0  0
   -0.2502    4.6054    9.5128 N   0  0  0  0  0  0  0  0  0  0  0  0
   -0.3377    3.8946   10.6262 N   0  0  0  0  0  0  0  0  0  0  0  0
    0.8856    3.3616   10.9945 C   0  0  3  0  0  0  0  0  0  0  0  0
    1.2735    2.5429   12.0624 C   0  0  0  0  0  0  0  0  0  0  0  0
   -0.5534   -0.8155   14.1947 C   0  0  0  0  0  0  0  0  0  0  0  0
   -1.9224   -1.0793   14.0569 C   0  0  0  0  0  0  0  0  0  0  0  0
   -6.2683   -3.4596   13.3964 H   0  0  0  0  0  0  0  0  0  0  0  0
   -5.8843   -5.1758   13.7620 H   0  0  0  0  0  0  0  0  0  0  0  0
   -3.7179   -4.5295   14.7312 H   0  0  0  0  0  0  0  0  0  0  0  0
   -3.8583   -3.8453   13.0763 H   0  0  0  0  0  0  0  0  0  0  0  0
   -4.4360   -1.6572   13.9654 H   0  0  0  0  0  0  0  0  0  0  0  0
   -4.2204   -2.8709   16.7652 H   0  0  0  0  0  0  0  0  0  0  0  0
   -4.6669   -1.1838   16.3398 H   0  0  0  0  0  0  0  0  0  0  0  0
   -6.6607   -2.6153   16.9118 H   0  0  0  0  0  0  0  0  0  0  0  0
   -6.7255   -1.9613   15.2400 H   0  0  0  0  0  0  0  0  0  0  0  0
   -2.2029   -3.6602   16.2464 H   0  0  0  0  0  0  0  0  0  0  0  0
   -0.2274   -2.3827   16.8821 H   0  0  0  0  0  0  0  0  0  0  0  0
    0.1319   -3.5351   15.5518 H   0  0  0  0  0  0  0  0  0  0  0  0
    5.1537    1.9347   13.2514 H   0  0  0  0  0  0  0  0  0  0  0  0
    6.8404    0.8712   15.3031 H   0  0  0  0  0  0  0  0  0  0  0  0
    6.2521   -0.7606   17.3472 H   0  0  0  0  0  0  0  0  0  0  0  0
    4.5869    2.3636   11.2421 H   0  0  0  0  0  0  0  0  0  0  0  0
    3.8596    3.8175    9.3833 H   0  0  0  0  0  0  0  0  0  0  0  0
    1.3619    5.0985    8.2410 H   0  0  0  0  0  0  0  0  0  0  0  0
    1.0918    4.2542   11.6033 H   0  0  0  0  0  0  0  0  0  0  0  0
    0.5648    2.2163   12.8091 H   0  0  0  0  0  0  0  0  0  0  0  0
   -0.0910   -0.0304   13.6148 H   0  0  0  0  0  0  0  0  0  0  0  0
   -2.5192   -0.4925   13.3743 H   0  0  0  0  0  0  0  0  0  0  0  0
  1  2  1  0  0  0  0
  1  6  1  0  0  0  0
  2  3  1  0  0  0  0
  3  4  1  0  0  0  0
  3  7  1  0  0  0  0
  4  5  1  0  0  0  0
  5  6  1  0  0  0  0
  7  8  2  0  0  0  0
  7 31  1  0  0  0  0
  8  9  1  0  0  0  0
  9 10  1  0  0  0  0
 10 11  2  0  0  0  0
 10 30  1  0  0  0  0
 11 12  1  0  0  0  0
 12 13  2  0  0  0  0
 12 20  1  0  0  0  0
 13 14  1  0  0  0  0
 14 15  2  0  0  0  0
 14 21  1  0  0  0  0
 15 16  1  0  0  0  0
 16 17  1  0  0  0  0
 16 20  1  0  0  0  0
 17 18  2  0  0  0  0
 18 19  1  0  0  0  0
 19 20  2  0  0  0  0
 21 22  1  0  0  0  0
 21 29  2  0  0  0  0
 22 23  2  0  0  0  0
 23 24  1  0  0  0  0
 24 25  2  0  0  0  0
 24 28  1  0  0  0  0
 25 26  1  0  0  0  0
 26 27  2  0  0  0  0
 27 28  1  0  0  0  0
 28 29  1  0  0  0  0
 30 31  2  0  0  0  0
  1 32  1  0  0  0  0
  1 33  1  0  0  0  0
  2 34  1  0  0  0  0
  2 35  1  0  0  0  0
  3 36  1  0  0  0  0
  4 37  1  0  0  0  0
  4 38  1  0  0  0  0
  5 39  1  0  0  0  0
  5 40  1  0  0  0  0
  8 41  1  0  0  0  0
  9 42  1  0  0  0  0
  9 43  1  0  0  0  0
 15 44  1  0  0  0  0
 17 45  1  0  0  0  0
 18 46  1  0  0  0  0
 22 47  1  0  0  0  0
 23 48  1  0  0  0  0
 25 49  1  0  0  0  0
 28 50  1  0  0  0  0
 29 51  1  0  0  0  0
 30 52  1  0  0  0  0
 31 53  1  0  0  0  0
M  END
> <IC50[nM]>
3.8

$$$$
CHEMBL3265034
  -OEChem-05192314333D
 Structure written by MMmdl.
 53 58  0     0  0  0  0  0  0999 V2000
   -5.7484   -4.1352   14.0916 C   0  0  0  0  0  0  0  0  0  0  0  0
   -4.2467   -3.7965   14.1043 C   0  0  0  0  0  0  0  0  0  0  0  0
   -4.0046   -2.3867   14.6667 C   0  0  0  0  0  0  0  0  0  0  0  0
   -4.7211   -2.2350   16.0203 C   0  0  0  0  0  0  0  0  0  0  0  0
   -6.1989   -2.6529   15.9141 C   0  0  0  0  0  0  0  0  0  0  0  0
   -6.2949   -3.9790   15.3990 O   0  0  0  0  0  0  0  0  0  0  0  0
   -2.5163   -2.1019   14.8026 C   0  0  0  0  0  0  0  0  0  0  0  0
   -1.7444   -2.8650   15.6773 C   0  0  0  0  0  0  0  0  0  0  0  0
   -0.3947   -2.6068   15.8182 C   0  0  0  0  0  0  0  0  0  0  0  0
    0.2168   -1.5789   15.0929 C   0  0  0  0  0  0  0  0  0  0  0  0
    1.5959   -1.3413   15.3408 N   0  0  0  0  0  0  0  0  0  0  0  0
    2.5346   -0.4433   14.7633 C   0  0  0  0  0  0  0  0  0  0  0  0
    2.1825    0.3683   13.7202 N   0  0  0  0  0  0  0  0  0  0  0  0
    3.1144    1.2372   13.2163 C   0  0  0  0  0  0  0  0  0  0  0  0
    4.4190    1.2837   13.7018 C   0  0  0  0  0  0  0  0  0  0  0  0
    4.7465    0.4877   14.7594 N   0  0  0  0  0  0  0  0  0  0  0  0
    5.8977    0.3771   15.4862 C   0  0  0  0  0  0  0  0  0  0  0  0
    5.5879   -0.5237   16.5292 C   0  0  0  0  0  0  0  0  0  0  0  0
    4.3754   -1.0416   16.3746 N   0  0  0  0  0  0  0  0  0  0  0  0
    3.8361   -0.3925   15.3266 C   0  0  0  0  0  0  0  0  0  0  0  0
    2.6384    2.1617   12.1197 C   0  0  0  0  0  0  0  0  0  0  0  0
    3.5461    2.6405   11.1618 C   0  0  0  0  0  0  0  0  0  0  0  0
    3.1445    3.4623   10.1105 C   0  0  0  0  0  0  0  0  0  0  0  0
    1.7985    3.8158   10.0184 C   0  0  0  0  0  0  0  0  0  0  0  0
    0.9907    4.5934    9.1205 C   0  0  0  0  0  0  0  0  0  0  0  0
   -0.2502    4.6054    9.5128 N   0  0  0  0  0  0  0  0  0  0  0  0
   -0.3377    3.8946   10.6262 N   0  0  0  0  0  0  0  0  0  0  0  0
    0.8856    3.3616   10.9945 C   0  0  0  0  0  0  0  0  0  0  0  0
    1.2735    2.5429   12.0624 C   0  0  0  0  0  0  0  0  0  0  0  0
   -0.5534   -0.8155   14.1947 C   0  0  0  0  0  0  0  0  0  0  0  0
   -1.9224   -1.0793   14.0569 C   0  0  0  0  0  0  0  0  0  0  0  0
   -6.2683   -3.4596   13.3964 H   0  0  0  0  0  0  0  0  0  0  0  0
   -5.8843   -5.1758   13.7620 H   0  0  0  0  0  0  0  0  0  0  0  0
   -3.7179   -4.5295   14.7312 H   0  0  0  0  0  0  0  0  0  0  0  0
   -3.8583   -3.8453   13.0763 H   0  0  0  0  0  0  0  0  0  0  0  0
   -4.4360   -1.6572   13.9654 H   0  0  0  0  0  0  0  0  0  0  0  0
   -4.2204   -2.8709   16.7652 H   0  0  0  0  0  0  0  0  0  0  0  0
   -4.6669   -1.1838   16.3398 H   0  0  0  0  0  0  0  0  0  0  0  0
   -6.6607   -2.6153   16.9118 H   0  0  0  0  0  0  0  0  0  0  0  0
   -6.7255   -1.9613   15.2400 H   0  0  0  0  0  0  0  0  0  0  0  0
   -2.3053   -2.8158   13.9927 H   0  0  0  0  0  0  0  0  0  0  0  0
   -2.2029   -3.6602   16.2464 H   0  0  0  0  0  0  0  0  0  0  0  0
    0.1953   -3.2056   16.4963 H   0  0  0  0  0  0  0  0  0  0  0  0
    5.1537    1.9347   13.2514 H   0  0  0  0  0  0  0  0  0  0  0  0
    6.8404    0.8712   15.3031 H   0  0  0  0  0  0  0  0  0  0  0  0
    6.2521   -0.7606   17.3472 H   0  0  0  0  0  0  0  0  0  0  0  0
    4.5869    2.3636   11.2421 H   0  0  0  0  0  0  0  0  0  0  0  0
    3.7206    4.3960   10.1900 H   0  0  0  0  0  0  0  0  0  0  0  0
    3.4094    2.9464    9.1758 H   0  0  0  0  0  0  0  0  0  0  0  0
    1.3619    5.0985    8.2410 H   0  0  0  0  0  0  0  0  0  0  0  0
    0.5648    2.2163   12.8091 H   0  0  0  0  0  0  0  0  0  0  0  0
   -0.0910   -0.0304   13.6148 H   0  0  0  0  0  0  0  0  0  0  0  0
   -2.5192   -0.4925   13.3743 H   0  0  0  0  0  0  0  0  0  0  0  0
  1  2  1  0  0  0  0
  1  6  1  0  0  0  0
  2  3  1  0  0  0  0
  3  4  1  0  0  0  0
  3  7  1  0  0  0  0
  4  5  1  0  0  0  0
  5  6  1  0  0  0  0
  7  8  1  0  0  0  0
  7 31  1  0  0  0  0
  8  9  2  0  0  0  0
  9 10  1  0  0  0  0
 10 11  2  0  0  0  0
 10 30  1  0  0  0  0
 11 12  1  0  0  0  0
 12 13  2  0  0  0  0
 12 20  1  0  0  0  0
 13 14  1  0  0  0  0
 14 15  2  0  0  0  0
 14 21  1  0  0  0  0
 15 16  1  0  0  0  0
 16 17  1  0  0  0  0
 16 20  1  0  0  0  0
 17 18  2  0  0  0  0
 18 19  1  0  0  0  0
 19 20  2  0  0  0  0
 21 22  2  0  0  0  0
 21 29  1  0  0  0  0
 22 23  1  0  0  0  0
 23 24  1  0  0  0  0
 24 25  2  0  0  0  0
 24 28  1  0  0  0  0
 25 26  1  0  0  0  0
 26 27  2  0  0  0  0
 27 28  1  0  0  0  0
 28 29  2  0  0  0  0
 30 31  2  0  0  0  0
  1 32  1  0  0  0  0
  1 33  1  0  0  0  0
  2 34  1  0  0  0  0
  2 35  1  0  0  0  0
  3 36  1  0  0  0  0
  4 37  1  0  0  0  0
  4 38  1  0  0  0  0
  5 39  1  0  0  0  0
  5 40  1  0  0  0  0
  7 41  1  0  0  0  0
  8 42  1  0  0  0  0
  9 43  1  0  0  0  0
 15 44  1  0  0  0  0
 17 45  1  0  0  0  0
 18 46  1  0  0  0  0
 22 47  1  0  0  0  0
 23 48  1  0  0  0  0
 23 49  1  0  0  0  0
 25 50  1  0  0  0  0
 29 51  1  0  0  0  0
 30 52  1  0  0  0  0
 31 53  1  0  0  0  0
M  END
> <IC50[nM]>
3.8

$$$$
CHEMBL3265034
  -OEChem-05192314333D
 Structure written by MMmdl.
 53 58  0     0  0  0  0  0  0999 V2000
   -5.7484   -4.1352   14.0916 C   0  0  0  0  0  0  0  0  0  0  0  0
   -4.2467   -3.7965   14.1043 C   0  0  0  0  0  0  0  0  0  0  0  0
   -4.0046   -2.3867   14.6667 C   0  0  0  0  0  0  0  0  0  0  0  0
   -4.7211   -2.2350   16.0203 C   0  0  0  0  0  0  0  0  0  0  0  0
   -6.1989   -2.6529   15.9141 C   0  0  0  0  0  0  0  0  0  0  0  0
   -6.2949   -3.9790   15.3990 O   0  0  0  0  0  0  0  0  0  0  0  0
   -2.5163   -2.1019   14.8026 C   0  0  0  0  0  0  0  0  0  0  0  0
   -1.7444   -2.8650   15.6773 C   0  0  0  0  0  0  0  0  0  0  0  0
   -0.3947   -2.6068   15.8182 C   0  0  0  0  0  0  0  0  0  0  0  0
    0.2168   -1.5789   15.0929 C   0  0  0  0  0  0  0  0  0  0  0  0
    1.5959   -1.3413   15.3408 N   0  0  0  0  0  0  0  0  0  0  0  0
    2.5346   -0.4433   14.7633 C   0  0  0  0  0  0  0  0  0  0  0  0
    2.1825    0.3683   13.7202 N   0  0  0  0  0  0  0  0  0  0  0  0
    3.1144    1.2372   13.2163 C   0  0  0  0  0  0  0  0  0  0  0  0
    4.4190    1.2837   13.7018 C   0  0  0  0  0  0  0  0  0  0  0  0
    4.7465    0.4877   14.7594 N   0  0  0  0  0  0  0  0  0  0  0  0
    5.8977    0.3771   15.4862 C   0  0  0  0  0  0  0  0  0  0  0  0
    5.5879   -0.5237   16.5292 C   0  0  0  0  0  0  0  0  0  0  0  0
    4.3754   -1.0416   16.3746 N   0  0  0  0  0  0  0  0  0  0  0  0
    3.8361   -0.3925   15.3266 C   0  0  0  0  0  0  0  0  0  0  0  0
    2.6384    2.1617   12.1197 C   0  0  0  0  0  0  0  0  0  0  0  0
    3.5461    2.6405   11.1618 C   0  0  0  0  0  0  0  0  0  0  0  0
    3.1445    3.4623   10.1105 C   0  0  0  0  0  0  0  0  0  0  0  0
    1.7985    3.8158   10.0184 C   0  0  0  0  0  0  0  0  0  0  0  0
    0.9907    4.5934    9.1205 C   0  0  0  0  0  0  0  0  0  0  0  0
   -0.2502    4.6054    9.5128 N   0  0  0  0  0  0  0  0  0  0  0  0
   -0.3377    3.8946   10.6262 N   0  0  0  0  0  0  0  0  0  0  0  0
    0.8856    3.3616   10.9945 C   0  0  0  0  0  0  0  0  0  0  0  0
    1.2735    2.5429   12.0624 C   0  0  0  0  0  0  0  0  0  0  0  0
   -0.5534   -0.8155   14.1947 C   0  0  0  0  0  0  0  0  0  0  0  0
   -1.9224   -1.0793   14.0569 C   0  0  0  0  0  0  0  0  0  0  0  0
   -6.2683   -3.4596   13.3964 H   0  0  0  0  0  0  0  0  0  0  0  0
   -5.8843   -5.1758   13.7620 H   0  0  0  0  0  0  0  0  0  0  0  0
   -3.7179   -4.5295   14.7312 H   0  0  0  0  0  0  0  0  0  0  0  0
   -3.8583   -3.8453   13.0763 H   0  0  0  0  0  0  0  0  0  0  0  0
   -4.4360   -1.6572   13.9654 H   0  0  0  0  0  0  0  0  0  0  0  0
   -4.2204   -2.8709   16.7652 H   0  0  0  0  0  0  0  0  0  0  0  0
   -4.6669   -1.1838   16.3398 H   0  0  0  0  0  0  0  0  0  0  0  0
   -6.6607   -2.6153   16.9118 H   0  0  0  0  0  0  0  0  0  0  0  0
   -6.7255   -1.9613   15.2400 H   0  0  0  0  0  0  0  0  0  0  0  0
   -2.2029   -3.6602   16.2464 H   0  0  0  0  0  0  0  0  0  0  0  0
   -0.2274   -2.3827   16.8821 H   0  0  0  0  0  0  0  0  0  0  0  0
    0.1319   -3.5351   15.5518 H   0  0  0  0  0  0  0  0  0  0  0  0
    5.1537    1.9347   13.2514 H   0  0  0  0  0  0  0  0  0  0  0  0
    6.8404    0.8712   15.3031 H   0  0  0  0  0  0  0  0  0  0  0  0
    6.2521   -0.7606   17.3472 H   0  0  0  0  0  0  0  0  0  0  0  0
    4.5869    2.3636   11.2421 H   0  0  0  0  0  0  0  0  0  0  0  0
    3.7206    4.3960   10.1900 H   0  0  0  0  0  0  0  0  0  0  0  0
    3.4094    2.9464    9.1758 H   0  0  0  0  0  0  0  0  0  0  0  0
    1.3619    5.0985    8.2410 H   0  0  0  0  0  0  0  0  0  0  0  0
    0.5648    2.2163   12.8091 H   0  0  0  0  0  0  0  0  0  0  0  0
   -0.0910   -0.0304   13.6148 H   0  0  0  0  0  0  0  0  0  0  0  0
   -2.5192   -0.4925   13.3743 H   0  0  0  0  0  0  0  0  0  0  0  0
  1  2  1  0  0  0  0
  1  6  1  0  0  0  0
  2  3  1  0  0  0  0
  3  4  1  0  0  0  0
  3  7  1  0  0  0  0
  4  5  1  0  0  0  0
  5  6  1  0  0  0  0
  7  8  2  0  0  0  0
  7 31  1  0  0  0  0
  8  9  1  0  0  0  0
  9 10  1  0  0  0  0
 10 11  2  0  0  0  0
 10 30  1  0  0  0  0
 11 12  1  0  0  0  0
 12 13  2  0  0  0  0
 12 20  1  0  0  0  0
 13 14  1  0  0  0  0
 14 15  2  0  0  0  0
 14 21  1  0  0  0  0
 15 16  1  0  0  0  0
 16 17  1  0  0  0  0
 16 20  1  0  0  0  0
 17 18  2  0  0  0  0
 18 19  1  0  0  0  0
 19 20  2  0  0  0  0
 21 22  2  0  0  0  0
 21 29  1  0  0  0  0
 22 23  1  0  0  0  0
 23 24  1  0  0  0  0
 24 25  2  0  0  0  0
 24 28  1  0  0  0  0
 25 26  1  0  0  0  0
 26 27  2  0  0  0  0
 27 28  1  0  0  0  0
 28 29  2  0  0  0  0
 30 31  2  0  0  0  0
  1 32  1  0  0  0  0
  1 33  1  0  0  0  0
  2 34  1  0  0  0  0
  2 35  1  0  0  0  0
  3 36  1  0  0  0  0
  4 37  1  0  0  0  0
  4 38  1  0  0  0  0
  5 39  1  0  0  0  0
  5 40  1  0  0  0  0
  8 41  1  0  0  0  0
  9 42  1  0  0  0  0
  9 43  1  0  0  0  0
 15 44  1  0  0  0  0
 17 45  1  0  0  0  0
 18 46  1  0  0  0  0
 22 47  1  0  0  0  0
 23 48  1  0  0  0  0
 23 49  1  0  0  0  0
 25 50  1  0  0  0  0
 29 51  1  0  0  0  0
 30 52  1  0  0  0  0
 31 53  1  0  0  0  0
M  END
> <IC50[nM]>
3.8

$$$$
