CHEMBL3265029
  -OEChem-05192314333D
 Structure written by MMmdl.
 43 47  0     0  0  0  0  0  0999 V2000
   -4.2507   -3.1011   13.5632 C   0  0  0  0  0  0  0  0  0  0  0  0
   -3.8673   -2.3305   14.6902 O   0  0  0  0  0  0  0  0  0  0  0  0
   -2.5168   -2.0957   14.8067 C   0  0  0  0  0  0  0  0  0  0  0  0
   -1.9172   -1.0702   14.0633 C   0  0  0  0  0  0  0  0  0  0  0  0
   -0.5491   -0.8101   14.2065 C   0  0  0  0  0  0  0  0  0  0  0  0
    0.2199   -1.5870   15.0928 C   0  0  0  0  0  0  0  0  0  0  0  0
    1.6080   -1.3729   15.3230 N   0  0  0  0  0  0  0  0  0  0  0  0
    2.5324   -0.4358   14.7759 C   0  0  0  0  0  0  0  0  0  0  0  0
    2.1663    0.3860   13.7470 N   0  0  0  0  0  0  0  0  0  0  0  0
    3.0989    1.2355   13.2241 C   0  0  0  0  0  0  0  0  0  0  0  0
    4.4088    1.2797   13.7018 C   0  0  0  0  0  0  0  0  0  0  0  0
    4.7449    0.4891   14.7567 N   0  0  0  0  0  0  0  0  0  0  0  0
    5.8960    0.3776   15.4790 C   0  0  0  0  0  0  0  0  0  0  0  0
    5.5960   -0.5292   16.5069 C   0  0  0  0  0  0  0  0  0  0  0  0
    4.3874   -1.0583   16.3532 N   0  0  0  0  0  0  0  0  0  0  0  0
    3.8346   -0.3857   15.3305 C   0  0  0  0  0  0  0  0  0  0  0  0
    2.6263    2.1555   12.1187 C   0  0  0  0  0  0  0  0  0  0  0  0
    3.5439    2.6382   11.1639 C   0  0  0  0  0  0  0  0  0  0  0  0
    3.1468    3.4593   10.1107 C   0  0  0  0  0  0  0  0  0  0  0  0
    1.8029    3.8136   10.0160 C   0  0  0  0  0  0  0  0  0  0  0  0
    0.9932    4.6001    9.1195 C   0  0  0  0  0  0  0  0  0  0  0  0
   -0.2428    4.6141    9.5158 N   0  0  0  0  0  0  0  0  0  0  0  0
   -0.3351    3.8865   10.6250 N   0  0  0  0  0  0  0  0  0  0  0  0
    0.8815    3.3478   10.9920 C   0  0  0  0  0  0  0  0  0  0  0  0
    1.2640    2.5243   12.0473 C   0  0  0  0  0  0  0  0  0  0  0  0
   -0.3962   -2.6164   15.8132 C   0  0  0  0  0  0  0  0  0  0  0  0
   -1.7505   -2.8679   15.6748 C   0  0  0  0  0  0  0  0  0  0  0  0
   -5.3430   -3.2313   13.5618 H   0  0  0  0  0  0  0  0  0  0  0  0
   -3.9421   -2.5834   12.6430 H   0  0  0  0  0  0  0  0  0  0  0  0
   -3.7642   -4.0865   13.6103 H   0  0  0  0  0  0  0  0  0  0  0  0
   -2.5104   -0.4806   13.3800 H   0  0  0  0  0  0  0  0  0  0  0  0
   -0.0857   -0.0165   13.6391 H   0  0  0  0  0  0  0  0  0  0  0  0
    2.0098   -1.9963   15.9938 H   0  0  0  0  0  0  0  0  0  0  0  0
    5.1410    1.9281   13.2437 H   0  0  0  0  0  0  0  0  0  0  0  0
    6.8355    0.8789   15.2989 H   0  0  0  0  0  0  0  0  0  0  0  0
    6.2643   -0.7672   17.3213 H   0  0  0  0  0  0  0  0  0  0  0  0
    4.5848    2.3637   11.2512 H   0  0  0  0  0  0  0  0  0  0  0  0
    3.8640    3.8128    9.3848 H   0  0  0  0  0  0  0  0  0  0  0  0
    1.3633    5.1070    8.2406 H   0  0  0  0  0  0  0  0  0  0  0  0
   -1.1850    3.7463   11.1329 H   0  0  0  0  0  0  0  0  0  0  0  0
    0.5493    2.1816   12.7809 H   0  0  0  0  0  0  0  0  0  0  0  0
    0.1925   -3.2225   16.4859 H   0  0  0  0  0  0  0  0  0  0  0  0
   -2.2125   -3.6634   16.2406 H   0  0  0  0  0  0  0  0  0  0  0  0
  1  2  1  0  0  0  0
  2  3  1  0  0  0  0
  3  4  2  0  0  0  0
  3 27  1  0  0  0  0
  4  5  1  0  0  0  0
  5  6  2  0  0  0  0
  6  7  1  0  0  0  0
  6 26  1  0  0  0  0
  7  8  1  0  0  0  0
  8  9  2  0  0  0  0
  8 16  1  0  0  0  0
  9 10  1  0  0  0  0
 10 11  2  0  0  0  0
 10 17  1  0  0  0  0
 11 12  1  0  0  0  0
 12 13  1  0  0  0  0
 12 16  1  0  0  0  0
 13 14  2  0  0  0  0
 14 15  1  0  0  0  0
 15 16  2  0  0  0  0
 17 18  2  0  0  0  0
 17 25  1  0  0  0  0
 18 19  1  0  0  0  0
 19 20  2  0  0  0  0
 20 21  1  0  0  0  0
 20 24  1  0  0  0  0
 21 22  2  0  0  0  0
 22 23  1  0  0  0  0
 23 24  1  0  0  0  0
 24 25  2  0  0  0  0
 26 27  2  0  0  0  0
  1 28  1  0  0  0  0
  1 29  1  0  0  0  0
  1 30  1  0  0  0  0
  4 31  1  0  0  0  0
  5 32  1  0  0  0  0
  7 33  1  0  0  0  0
 11 34  1  0  0  0  0
 13 35  1  0  0  0  0
 14 36  1  0  0  0  0
 18 37  1  0  0  0  0
 19 38  1  0  0  0  0
 21 39  1  0  0  0  0
 23 40  1  0  0  0  0
 25 41  1  0  0  0  0
 26 42  1  0  0  0  0
 27 43  1  0  0  0  0
M  END
> <IC50[nM]>
7

$$$$
CHEMBL3265029
  -OEChem-05192314333D
 Structure written by MMmdl.
 43 47  0     0  0  0  0  0  0999 V2000
   -4.2507   -3.1011   13.5632 C   0  0  0  0  0  0  0  0  0  0  0  0
   -3.8673   -2.3305   14.6902 O   0  0  0  0  0  0  0  0  0  0  0  0
   -2.5168   -2.0957   14.8067 C   0  0  0  0  0  0  0  0  0  0  0  0
   -1.9172   -1.0702   14.0633 C   0  0  0  0  0  0  0  0  0  0  0  0
   -0.5491   -0.8101   14.2065 C   0  0  0  0  0  0  0  0  0  0  0  0
    0.2199   -1.5870   15.0928 C   0  0  0  0  0  0  0  0  0  0  0  0
    1.6080   -1.3729   15.3230 N   0  0  0  0  0  0  0  0  0  0  0  0
    2.5324   -0.4358   14.7759 C   0  0  0  0  0  0  0  0  0  0  0  0
    2.1663    0.3860   13.7470 N   0  0  0  0  0  0  0  0  0  0  0  0
    3.0989    1.2355   13.2241 C   0  0  0  0  0  0  0  0  0  0  0  0
    4.4088    1.2797   13.7018 C   0  0  0  0  0  0  0  0  0  0  0  0
    4.7449    0.4891   14.7567 N   0  0  0  0  0  0  0  0  0  0  0  0
    5.8960    0.3776   15.4790 C   0  0  0  0  0  0  0  0  0  0  0  0
    5.5960   -0.5292   16.5069 C   0  0  0  0  0  0  0  0  0  0  0  0
    4.3874   -1.0583   16.3532 N   0  0  0  0  0  0  0  0  0  0  0  0
    3.8346   -0.3857   15.3305 C   0  0  0  0  0  0  0  0  0  0  0  0
    2.6263    2.1555   12.1187 C   0  0  0  0  0  0  0  0  0  0  0  0
    3.5439    2.6382   11.1639 C   0  0  0  0  0  0  0  0  0  0  0  0
    3.1468    3.4593   10.1107 C   0  0  0  0  0  0  0  0  0  0  0  0
    1.8029    3.8136   10.0160 C   0  0  0  0  0  0  0  0  0  0  0  0
    0.9932    4.6001    9.1195 C   0  0  0  0  0  0  0  0  0  0  0  0
   -0.2428    4.6141    9.5158 N   0  0  0  0  0  0  0  0  0  0  0  0
   -0.3351    3.8865   10.6250 N   0  0  0  0  0  0  0  0  0  0  0  0
    0.8815    3.3478   10.9920 C   0  0  0  0  0  0  0  0  0  0  0  0
    1.2640    2.5243   12.0473 C   0  0  0  0  0  0  0  0  0  0  0  0
   -0.3962   -2.6164   15.8132 C   0  0  0  0  0  0  0  0  0  0  0  0
   -1.7505   -2.8679   15.6748 C   0  0  0  0  0  0  0  0  0  0  0  0
   -5.3430   -3.2313   13.5618 H   0  0  0  0  0  0  0  0  0  0  0  0
   -3.9421   -2.5834   12.6430 H   0  0  0  0  0  0  0  0  0  0  0  0
   -3.7642   -4.0865   13.6103 H   0  0  0  0  0  0  0  0  0  0  0  0
   -2.5104   -0.4806   13.3800 H   0  0  0  0  0  0  0  0  0  0  0  0
   -0.0857   -0.0165   13.6391 H   0  0  0  0  0  0  0  0  0  0  0  0
    2.0098   -1.9963   15.9938 H   0  0  0  0  0  0  0  0  0  0  0  0
    5.1410    1.9281   13.2437 H   0  0  0  0  0  0  0  0  0  0  0  0
    6.8355    0.8789   15.2989 H   0  0  0  0  0  0  0  0  0  0  0  0
    6.2643   -0.7672   17.3213 H   0  0  0  0  0  0  0  0  0  0  0  0
    4.5848    2.3637   11.2512 H   0  0  0  0  0  0  0  0  0  0  0  0
    3.8640    3.8128    9.3848 H   0  0  0  0  0  0  0  0  0  0  0  0
    1.3633    5.1070    8.2406 H   0  0  0  0  0  0  0  0  0  0  0  0
   -0.9969    5.0907    9.0640 H   0  0  0  0  0  0  0  0  0  0  0  0
    0.5493    2.1816   12.7809 H   0  0  0  0  0  0  0  0  0  0  0  0
    0.1925   -3.2225   16.4859 H   0  0  0  0  0  0  0  0  0  0  0  0
   -2.2125   -3.6634   16.2406 H   0  0  0  0  0  0  0  0  0  0  0  0
  1  2  1  0  0  0  0
  2  3  1  0  0  0  0
  3  4  2  0  0  0  0
  3 27  1  0  0  0  0
  4  5  1  0  0  0  0
  5  6  2  0  0  0  0
  6  7  1  0  0  0  0
  6 26  1  0  0  0  0
  7  8  1  0  0  0  0
  8  9  2  0  0  0  0
  8 16  1  0  0  0  0
  9 10  1  0  0  0  0
 10 11  2  0  0  0  0
 10 17  1  0  0  0  0
 11 12  1  0  0  0  0
 12 13  1  0  0  0  0
 12 16  1  0  0  0  0
 13 14  2  0  0  0  0
 14 15  1  0  0  0  0
 15 16  2  0  0  0  0
 17 18  1  0  0  0  0
 17 25  2  0  0  0  0
 18 19  2  0  0  0  0
 19 20  1  0  0  0  0
 20 21  2  0  0  0  0
 20 24  1  0  0  0  0
 21 22  1  0  0  0  0
 22 23  1  0  0  0  0
 23 24  2  0  0  0  0
 24 25  1  0  0  0  0
 26 27  2  0  0  0  0
  1 28  1  0  0  0  0
  1 29  1  0  0  0  0
  1 30  1  0  0  0  0
  4 31  1  0  0  0  0
  5 32  1  0  0  0  0
  7 33  1  0  0  0  0
 11 34  1  0  0  0  0
 13 35  1  0  0  0  0
 14 36  1  0  0  0  0
 18 37  1  0  0  0  0
 19 38  1  0  0  0  0
 21 39  1  0  0  0  0
 22 40  1  0  0  0  0
 25 41  1  0  0  0  0
 26 42  1  0  0  0  0
 27 43  1  0  0  0  0
M  END
> <IC50[nM]>
7

$$$$
CHEMBL3265029
  -OEChem-05192314333D
 Structure written by MMmdl.
 43 47  0     0  0  0  0  0  0999 V2000
   -4.2507   -3.1011   13.5632 C   0  0  0  0  0  0  0  0  0  0  0  0
   -3.8673   -2.3305   14.6902 O   0  0  0  0  0  0  0  0  0  0  0  0
   -2.5168   -2.0957   14.8067 C   0  0  0  0  0  0  0  0  0  0  0  0
   -1.9172   -1.0702   14.0633 C   0  0  0  0  0  0  0  0  0  0  0  0
   -0.5491   -0.8101   14.2065 C   0  0  0  0  0  0  0  0  0  0  0  0
    0.2199   -1.5870   15.0928 C   0  0  0  0  0  0  0  0  0  0  0  0
    1.6080   -1.3729   15.3230 N   0  0  0  0  0  0  0  0  0  0  0  0
    2.5324   -0.4358   14.7759 C   0  0  0  0  0  0  0  0  0  0  0  0
    2.1663    0.3860   13.7470 N   0  0  0  0  0  0  0  0  0  0  0  0
    3.0989    1.2355   13.2241 C   0  0  0  0  0  0  0  0  0  0  0  0
    4.4088    1.2797   13.7018 C   0  0  0  0  0  0  0  0  0  0  0  0
    4.7449    0.4891   14.7567 N   0  0  0  0  0  0  0  0  0  0  0  0
    5.8960    0.3776   15.4790 C   0  0  0  0  0  0  0  0  0  0  0  0
    5.5960   -0.5292   16.5069 C   0  0  0  0  0  0  0  0  0  0  0  0
    4.3874   -1.0583   16.3532 N   0  0  0  0  0  0  0  0  0  0  0  0
    3.8346   -0.3857   15.3305 C   0  0  0  0  0  0  0  0  0  0  0  0
    2.6263    2.1555   12.1187 C   0  0  0  0  0  0  0  0  0  0  0  0
    3.5439    2.6382   11.1639 C   0  0  0  0  0  0  0  0  0  0  0  0
    3.1468    3.4593   10.1107 C   0  0  0  0  0  0  0  0  0  0  0  0
    1.8029    3.8136   10.0160 C   0  0  0  0  0  0  0  0  0  0  0  0
    0.9932    4.6001    9.1195 C   0  0  0  0  0  0  0  0  0  0  0  0
   -0.2428    4.6141    9.5158 N   0  0  0  0  0  0  0  0  0  0  0  0
   -0.3351    3.8865   10.6250 N   0  0  0  0  0  0  0  0  0  0  0  0
    0.8815    3.3478   10.9920 C   0  0  0  0  0  0  0  0  0  0  0  0
    1.2640    2.5243   12.0473 C   0  0  0  0  0  0  0  0  0  0  0  0
   -0.3962   -2.6164   15.8132 C   0  0  0  0  0  0  0  0  0  0  0  0
   -1.7505   -2.8679   15.6748 C   0  0  0  0  0  0  0  0  0  0  0  0
   -5.3430   -3.2313   13.5618 H   0  0  0  0  0  0  0  0  0  0  0  0
   -3.9421   -2.5834   12.6430 H   0  0  0  0  0  0  0  0  0  0  0  0
   -3.7642   -4.0865   13.6103 H   0  0  0  0  0  0  0  0  0  0  0  0
   -2.5104   -0.4806   13.3800 H   0  0  0  0  0  0  0  0  0  0  0  0
   -0.0857   -0.0165   13.6391 H   0  0  0  0  0  0  0  0  0  0  0  0
    1.2345    0.3656   13.3845 H   0  0  0  0  0  0  0  0  0  0  0  0
    5.1410    1.9281   13.2437 H   0  0  0  0  0  0  0  0  0  0  0  0
    6.8355    0.8789   15.2989 H   0  0  0  0  0  0  0  0  0  0  0  0
    6.2643   -0.7672   17.3213 H   0  0  0  0  0  0  0  0  0  0  0  0
    4.5848    2.3637   11.2512 H   0  0  0  0  0  0  0  0  0  0  0  0
    3.8640    3.8128    9.3848 H   0  0  0  0  0  0  0  0  0  0  0  0
    1.3633    5.1070    8.2406 H   0  0  0  0  0  0  0  0  0  0  0  0
   -1.1850    3.7463   11.1329 H   0  0  0  0  0  0  0  0  0  0  0  0
    0.5493    2.1816   12.7809 H   0  0  0  0  0  0  0  0  0  0  0  0
    0.1925   -3.2225   16.4859 H   0  0  0  0  0  0  0  0  0  0  0  0
   -2.2125   -3.6634   16.2406 H   0  0  0  0  0  0  0  0  0  0  0  0
  1  2  1  0  0  0  0
  2  3  1  0  0  0  0
  3  4  2  0  0  0  0
  3 27  1  0  0  0  0
  4  5  1  0  0  0  0
  5  6  2  0  0  0  0
  6  7  1  0  0  0  0
  6 26  1  0  0  0  0
  7  8  2  0  0  0  0
  8  9  1  0  0  0  0
  8 16  1  0  0  0  0
  9 10  1  0  0  0  0
 10 11  2  0  0  0  0
 10 17  1  0  0  0  0
 11 12  1  0  0  0  0
 12 13  1  0  0  0  0
 12 16  1  0  0  0  0
 13 14  2  0  0  0  0
 14 15  1  0  0  0  0
 15 16  2  0  0  0  0
 17 18  2  0  0  0  0
 17 25  1  0  0  0  0
 18 19  1  0  0  0  0
 19 20  2  0  0  0  0
 20 21  1  0  0  0  0
 20 24  1  0  0  0  0
 21 22  2  0  0  0  0
 22 23  1  0  0  0  0
 23 24  1  0  0  0  0
 24 25  2  0  0  0  0
 26 27  2  0  0  0  0
  1 28  1  0  0  0  0
  1 29  1  0  0  0  0
  1 30  1  0  0  0  0
  4 31  1  0  0  0  0
  5 32  1  0  0  0  0
  9 33  1  0  0  0  0
 11 34  1  0  0  0  0
 13 35  1  0  0  0  0
 14 36  1  0  0  0  0
 18 37  1  0  0  0  0
 19 38  1  0  0  0  0
 21 39  1  0  0  0  0
 23 40  1  0  0  0  0
 25 41  1  0  0  0  0
 26 42  1  0  0  0  0
 27 43  1  0  0  0  0
M  END
> <IC50[nM]>
7

$$$$
CHEMBL3265029
  -OEChem-05192314333D
 Structure written by MMmdl.
 43 47  0     0  0  0  0  0  0999 V2000
   -4.2507   -3.1011   13.5632 C   0  0  0  0  0  0  0  0  0  0  0  0
   -3.8673   -2.3305   14.6902 O   0  0  0  0  0  0  0  0  0  0  0  0
   -2.5168   -2.0957   14.8067 C   0  0  0  0  0  0  0  0  0  0  0  0
   -1.9172   -1.0702   14.0633 C   0  0  0  0  0  0  0  0  0  0  0  0
   -0.5491   -0.8101   14.2065 C   0  0  0  0  0  0  0  0  0  0  0  0
    0.2199   -1.5870   15.0928 C   0  0  0  0  0  0  0  0  0  0  0  0
    1.6080   -1.3729   15.3230 N   0  0  0  0  0  0  0  0  0  0  0  0
    2.5324   -0.4358   14.7759 C   0  0  0  0  0  0  0  0  0  0  0  0
    2.1663    0.3860   13.7470 N   0  0  0  0  0  0  0  0  0  0  0  0
    3.0989    1.2355   13.2241 C   0  0  0  0  0  0  0  0  0  0  0  0
    4.4088    1.2797   13.7018 C   0  0  0  0  0  0  0  0  0  0  0  0
    4.7449    0.4891   14.7567 N   0  0  0  0  0  0  0  0  0  0  0  0
    5.8960    0.3776   15.4790 C   0  0  0  0  0  0  0  0  0  0  0  0
    5.5960   -0.5292   16.5069 C   0  0  0  0  0  0  0  0  0  0  0  0
    4.3874   -1.0583   16.3532 N   0  0  0  0  0  0  0  0  0  0  0  0
    3.8346   -0.3857   15.3305 C   0  0  0  0  0  0  0  0  0  0  0  0
    2.6263    2.1555   12.1187 C   0  0  0  0  0  0  0  0  0  0  0  0
    3.5439    2.6382   11.1639 C   0  0  0  0  0  0  0  0  0  0  0  0
    3.1468    3.4593   10.1107 C   0  0  0  0  0  0  0  0  0  0  0  0
    1.8029    3.8136   10.0160 C   0  0  0  0  0  0  0  0  0  0  0  0
    0.9932    4.6001    9.1195 C   0  0  0  0  0  0  0  0  0  0  0  0
   -0.2428    4.6141    9.5158 N   0  0  0  0  0  0  0  0  0  0  0  0
   -0.3351    3.8865   10.6250 N   0  0  0  0  0  0  0  0  0  0  0  0
    0.8815    3.3478   10.9920 C   0  0  0  0  0  0  0  0  0  0  0  0
    1.2640    2.5243   12.0473 C   0  0  0  0  0  0  0  0  0  0  0  0
   -0.3962   -2.6164   15.8132 C   0  0  0  0  0  0  0  0  0  0  0  0
   -1.7505   -2.8679   15.6748 C   0  0  0  0  0  0  0  0  0  0  0  0
   -5.3430   -3.2313   13.5618 H   0  0  0  0  0  0  0  0  0  0  0  0
   -3.9421   -2.5834   12.6430 H   0  0  0  0  0  0  0  0  0  0  0  0
   -3.7642   -4.0865   13.6103 H   0  0  0  0  0  0  0  0  0  0  0  0
   -2.5104   -0.4806   13.3800 H   0  0  0  0  0  0  0  0  0  0  0  0
   -0.0857   -0.0165   13.6391 H   0  0  0  0  0  0  0  0  0  0  0  0
    1.2345    0.3656   13.3845 H   0  0  0  0  0  0  0  0  0  0  0  0
    5.1410    1.9281   13.2437 H   0  0  0  0  0  0  0  0  0  0  0  0
    6.8355    0.8789   15.2989 H   0  0  0  0  0  0  0  0  0  0  0  0
    6.2643   -0.7672   17.3213 H   0  0  0  0  0  0  0  0  0  0  0  0
    4.5848    2.3637   11.2512 H   0  0  0  0  0  0  0  0  0  0  0  0
    3.8640    3.8128    9.3848 H   0  0  0  0  0  0  0  0  0  0  0  0
    1.3633    5.1070    8.2406 H   0  0  0  0  0  0  0  0  0  0  0  0
   -0.9969    5.0907    9.0640 H   0  0  0  0  0  0  0  0  0  0  0  0
    0.5493    2.1816   12.7809 H   0  0  0  0  0  0  0  0  0  0  0  0
    0.1925   -3.2225   16.4859 H   0  0  0  0  0  0  0  0  0  0  0  0
   -2.2125   -3.6634   16.2406 H   0  0  0  0  0  0  0  0  0  0  0  0
  1  2  1  0  0  0  0
  2  3  1  0  0  0  0
  3  4  2  0  0  0  0
  3 27  1  0  0  0  0
  4  5  1  0  0  0  0
  5  6  2  0  0  0  0
  6  7  1  0  0  0  0
  6 26  1  0  0  0  0
  7  8  2  0  0  0  0
  8  9  1  0  0  0  0
  8 16  1  0  0  0  0
  9 10  1  0  0  0  0
 10 11  2  0  0  0  0
 10 17  1  0  0  0  0
 11 12  1  0  0  0  0
 12 13  1  0  0  0  0
 12 16  1  0  0  0  0
 13 14  2  0  0  0  0
 14 15  1  0  0  0  0
 15 16  2  0  0  0  0
 17 18  1  0  0  0  0
 17 25  2  0  0  0  0
 18 19  2  0  0  0  0
 19 20  1  0  0  0  0
 20 21  2  0  0  0  0
 20 24  1  0  0  0  0
 21 22  1  0  0  0  0
 22 23  1  0  0  0  0
 23 24  2  0  0  0  0
 24 25  1  0  0  0  0
 26 27  2  0  0  0  0
  1 28  1  0  0  0  0
  1 29  1  0  0  0  0
  1 30  1  0  0  0  0
  4 31  1  0  0  0  0
  5 32  1  0  0  0  0
  9 33  1  0  0  0  0
 11 34  1  0  0  0  0
 13 35  1  0  0  0  0
 14 36  1  0  0  0  0
 18 37  1  0  0  0  0
 19 38  1  0  0  0  0
 21 39  1  0  0  0  0
 22 40  1  0  0  0  0
 25 41  1  0  0  0  0
 26 42  1  0  0  0  0
 27 43  1  0  0  0  0
M  END
> <IC50[nM]>
7

$$$$
CHEMBL3265029
  -OEChem-05192314333D
 Structure written by MMmdl.
 43 47  0     0  0  0  0  0  0999 V2000
   -4.2507   -3.1011   13.5632 C   0  0  0  0  0  0  0  0  0  0  0  0
   -3.8673   -2.3305   14.6902 O   0  0  0  0  0  0  0  0  0  0  0  0
   -2.5168   -2.0957   14.8067 C   0  0  0  0  0  0  0  0  0  0  0  0
   -1.9172   -1.0702   14.0633 C   0  0  0  0  0  0  0  0  0  0  0  0
   -0.5491   -0.8101   14.2065 C   0  0  0  0  0  0  0  0  0  0  0  0
    0.2199   -1.5870   15.0928 C   0  0  0  0  0  0  0  0  0  0  0  0
    1.6080   -1.3729   15.3230 N   0  0  0  0  0  0  0  0  0  0  0  0
    2.5324   -0.4358   14.7759 C   0  0  0  0  0  0  0  0  0  0  0  0
    2.1663    0.3860   13.7470 N   0  0  0  0  0  0  0  0  0  0  0  0
    3.0989    1.2355   13.2241 C   0  0  0  0  0  0  0  0  0  0  0  0
    4.4088    1.2797   13.7018 C   0  0  0  0  0  0  0  0  0  0  0  0
    4.7449    0.4891   14.7567 N   0  0  0  0  0  0  0  0  0  0  0  0
    5.8960    0.3776   15.4790 C   0  0  0  0  0  0  0  0  0  0  0  0
    5.5960   -0.5292   16.5069 C   0  0  0  0  0  0  0  0  0  0  0  0
    4.3874   -1.0583   16.3532 N   0  0  0  0  0  0  0  0  0  0  0  0
    3.8346   -0.3857   15.3305 C   0  0  0  0  0  0  0  0  0  0  0  0
    2.6263    2.1555   12.1187 C   0  0  0  0  0  0  0  0  0  0  0  0
    3.5439    2.6382   11.1639 C   0  0  0  0  0  0  0  0  0  0  0  0
    3.1468    3.4593   10.1107 C   0  0  0  0  0  0  0  0  0  0  0  0
    1.8029    3.8136   10.0160 C   0  0  0  0  0  0  0  0  0  0  0  0
    0.9932    4.6001    9.1195 C   0  0  0  0  0  0  0  0  0  0  0  0
   -0.2428    4.6141    9.5158 N   0  0  0  0  0  0  0  0  0  0  0  0
   -0.3351    3.8865   10.6250 N   0  0  0  0  0  0  0  0  0  0  0  0
    0.8815    3.3478   10.9920 C   0  0  0  0  0  0  0  0  0  0  0  0
    1.2640    2.5243   12.0473 C   0  0  0  0  0  0  0  0  0  0  0  0
   -0.3962   -2.6164   15.8132 C   0  0  0  0  0  0  0  0  0  0  0  0
   -1.7505   -2.8679   15.6748 C   0  0  0  0  0  0  0  0  0  0  0  0
   -5.3430   -3.2313   13.5618 H   0  0  0  0  0  0  0  0  0  0  0  0
   -3.9421   -2.5834   12.6430 H   0  0  0  0  0  0  0  0  0  0  0  0
   -3.7642   -4.0865   13.6103 H   0  0  0  0  0  0  0  0  0  0  0  0
   -2.5104   -0.4806   13.3800 H   0  0  0  0  0  0  0  0  0  0  0  0
   -0.0857   -0.0165   13.6391 H   0  0  0  0  0  0  0  0  0  0  0  0
    2.0098   -1.9963   15.9938 H   0  0  0  0  0  0  0  0  0  0  0  0
    5.1410    1.9281   13.2437 H   0  0  0  0  0  0  0  0  0  0  0  0
    6.8355    0.8789   15.2989 H   0  0  0  0  0  0  0  0  0  0  0  0
    6.2643   -0.7672   17.3213 H   0  0  0  0  0  0  0  0  0  0  0  0
    4.5848    2.3637   11.2512 H   0  0  0  0  0  0  0  0  0  0  0  0
    3.8640    3.8128    9.3848 H   0  0  0  0  0  0  0  0  0  0  0  0
    1.3770    5.6307    9.0952 H   0  0  0  0  0  0  0  0  0  0  0  0
    1.0446    4.1657    8.1102 H   0  0  0  0  0  0  0  0  0  0  0  0
    0.5493    2.1816   12.7809 H   0  0  0  0  0  0  0  0  0  0  0  0
    0.1925   -3.2225   16.4859 H   0  0  0  0  0  0  0  0  0  0  0  0
   -2.2125   -3.6634   16.2406 H   0  0  0  0  0  0  0  0  0  0  0  0
  1  2  1  0  0  0  0
  2  3  1  0  0  0  0
  3  4  2  0  0  0  0
  3 27  1  0  0  0  0
  4  5  1  0  0  0  0
  5  6  2  0  0  0  0
  6  7  1  0  0  0  0
  6 26  1  0  0  0  0
  7  8  1  0  0  0  0
  8  9  2  0  0  0  0
  8 16  1  0  0  0  0
  9 10  1  0  0  0  0
 10 11  2  0  0  0  0
 10 17  1  0  0  0  0
 11 12  1  0  0  0  0
 12 13  1  0  0  0  0
 12 16  1  0  0  0  0
 13 14  2  0  0  0  0
 14 15  1  0  0  0  0
 15 16  2  0  0  0  0
 17 18  2  0  0  0  0
 17 25  1  0  0  0  0
 18 19  1  0  0  0  0
 19 20  2  0  0  0  0
 20 21  1  0  0  0  0
 20 24  1  0  0  0  0
 21 22  1  0  0  0  0
 22 23  2  0  0  0  0
 23 24  1  0  0  0  0
 24 25  2  0  0  0  0
 26 27  2  0  0  0  0
  1 28  1  0  0  0  0
  1 29  1  0  0  0  0
  1 30  1  0  0  0  0
  4 31  1  0  0  0  0
  5 32  1  0  0  0  0
  7 33  1  0  0  0  0
 11 34  1  0  0  0  0
 13 35  1  0  0  0  0
 14 36  1  0  0  0  0
 18 37  1  0  0  0  0
 19 38  1  0  0  0  0
 21 39  1  0  0  0  0
 21 40  1  0  0  0  0
 25 41  1  0  0  0  0
 26 42  1  0  0  0  0
 27 43  1  0  0  0  0
M  END
> <IC50[nM]>
7

$$$$
CHEMBL3265029
  -OEChem-05192314333D
 Structure written by MMmdl.
 43 47  0     0  0  0  0  0  0999 V2000
   -4.2507   -3.1011   13.5632 C   0  0  0  0  0  0  0  0  0  0  0  0
   -3.8673   -2.3305   14.6902 O   0  0  0  0  0  0  0  0  0  0  0  0
   -2.5168   -2.0957   14.8067 C   0  0  0  0  0  0  0  0  0  0  0  0
   -1.9172   -1.0702   14.0633 C   0  0  0  0  0  0  0  0  0  0  0  0
   -0.5491   -0.8101   14.2065 C   0  0  0  0  0  0  0  0  0  0  0  0
    0.2199   -1.5870   15.0928 C   0  0  0  0  0  0  0  0  0  0  0  0
    1.6080   -1.3729   15.3230 N   0  0  0  0  0  0  0  0  0  0  0  0
    2.5324   -0.4358   14.7759 C   0  0  0  0  0  0  0  0  0  0  0  0
    2.1663    0.3860   13.7470 N   0  0  0  0  0  0  0  0  0  0  0  0
    3.0989    1.2355   13.2241 C   0  0  0  0  0  0  0  0  0  0  0  0
    4.4088    1.2797   13.7018 C   0  0  0  0  0  0  0  0  0  0  0  0
    4.7449    0.4891   14.7567 N   0  0  0  0  0  0  0  0  0  0  0  0
    5.8960    0.3776   15.4790 C   0  0  0  0  0  0  0  0  0  0  0  0
    5.5960   -0.5292   16.5069 C   0  0  0  0  0  0  0  0  0  0  0  0
    4.3874   -1.0583   16.3532 N   0  0  0  0  0  0  0  0  0  0  0  0
    3.8346   -0.3857   15.3305 C   0  0  0  0  0  0  0  0  0  0  0  0
    2.6263    2.1555   12.1187 C   0  0  0  0  0  0  0  0  0  0  0  0
    3.5439    2.6382   11.1639 C   0  0  0  0  0  0  0  0  0  0  0  0
    3.1468    3.4593   10.1107 C   0  0  0  0  0  0  0  0  0  0  0  0
    1.8029    3.8136   10.0160 C   0  0  0  0  0  0  0  0  0  0  0  0
    0.9932    4.6001    9.1195 C   0  0  0  0  0  0  0  0  0  0  0  0
   -0.2428    4.6141    9.5158 N   0  0  0  0  0  0  0  0  0  0  0  0
   -0.3351    3.8865   10.6250 N   0  0  0  0  0  0  0  0  0  0  0  0
    0.8815    3.3478   10.9920 C   0  0  0  0  0  0  0  0  0  0  0  0
    1.2640    2.5243   12.0473 C   0  0  0  0  0  0  0  0  0  0  0  0
   -0.3962   -2.6164   15.8132 C   0  0  0  0  0  0  0  0  0  0  0  0
   -1.7505   -2.8679   15.6748 C   0  0  0  0  0  0  0  0  0  0  0  0
   -5.3430   -3.2313   13.5618 H   0  0  0  0  0  0  0  0  0  0  0  0
   -3.9421   -2.5834   12.6430 H   0  0  0  0  0  0  0  0  0  0  0  0
   -3.7642   -4.0865   13.6103 H   0  0  0  0  0  0  0  0  0  0  0  0
   -2.5104   -0.4806   13.3800 H   0  0  0  0  0  0  0  0  0  0  0  0
   -0.0857   -0.0165   13.6391 H   0  0  0  0  0  0  0  0  0  0  0  0
    1.2345    0.3656   13.3845 H   0  0  0  0  0  0  0  0  0  0  0  0
    5.1410    1.9281   13.2437 H   0  0  0  0  0  0  0  0  0  0  0  0
    6.8355    0.8789   15.2989 H   0  0  0  0  0  0  0  0  0  0  0  0
    6.2643   -0.7672   17.3213 H   0  0  0  0  0  0  0  0  0  0  0  0
    4.5848    2.3637   11.2512 H   0  0  0  0  0  0  0  0  0  0  0  0
    3.8640    3.8128    9.3848 H   0  0  0  0  0  0  0  0  0  0  0  0
    1.3770    5.6307    9.0952 H   0  0  0  0  0  0  0  0  0  0  0  0
    1.0446    4.1657    8.1102 H   0  0  0  0  0  0  0  0  0  0  0  0
    0.5493    2.1816   12.7809 H   0  0  0  0  0  0  0  0  0  0  0  0
    0.1925   -3.2225   16.4859 H   0  0  0  0  0  0  0  0  0  0  0  0
   -2.2125   -3.6634   16.2406 H   0  0  0  0  0  0  0  0  0  0  0  0
  1  2  1  0  0  0  0
  2  3  1  0  0  0  0
  3  4  2  0  0  0  0
  3 27  1  0  0  0  0
  4  5  1  0  0  0  0
  5  6  2  0  0  0  0
  6  7  1  0  0  0  0
  6 26  1  0  0  0  0
  7  8  2  0  0  0  0
  8  9  1  0  0  0  0
  8 16  1  0  0  0  0
  9 10  1  0  0  0  0
 10 11  2  0  0  0  0
 10 17  1  0  0  0  0
 11 12  1  0  0  0  0
 12 13  1  0  0  0  0
 12 16  1  0  0  0  0
 13 14  2  0  0  0  0
 14 15  1  0  0  0  0
 15 16  2  0  0  0  0
 17 18  2  0  0  0  0
 17 25  1  0  0  0  0
 18 19  1  0  0  0  0
 19 20  2  0  0  0  0
 20 21  1  0  0  0  0
 20 24  1  0  0  0  0
 21 22  1  0  0  0  0
 22 23  2  0  0  0  0
 23 24  1  0  0  0  0
 24 25  2  0  0  0  0
 26 27  2  0  0  0  0
  1 28  1  0  0  0  0
  1 29  1  0  0  0  0
  1 30  1  0  0  0  0
  4 31  1  0  0  0  0
  5 32  1  0  0  0  0
  9 33  1  0  0  0  0
 11 34  1  0  0  0  0
 13 35  1  0  0  0  0
 14 36  1  0  0  0  0
 18 37  1  0  0  0  0
 19 38  1  0  0  0  0
 21 39  1  0  0  0  0
 21 40  1  0  0  0  0
 25 41  1  0  0  0  0
 26 42  1  0  0  0  0
 27 43  1  0  0  0  0
M  END
> <IC50[nM]>
7

$$$$
CHEMBL3265029
  -OEChem-05192314333D
 Structure written by MMmdl.
 43 47  0     0  0  0  0  0  0999 V2000
   -4.2507   -3.1011   13.5632 C   0  0  0  0  0  0  0  0  0  0  0  0
   -3.8673   -2.3305   14.6902 O   0  0  0  0  0  0  0  0  0  0  0  0
   -2.5168   -2.0957   14.8067 C   0  0  0  0  0  0  0  0  0  0  0  0
   -1.9172   -1.0702   14.0633 C   0  0  0  0  0  0  0  0  0  0  0  0
   -0.5491   -0.8101   14.2065 C   0  0  0  0  0  0  0  0  0  0  0  0
    0.2199   -1.5870   15.0928 C   0  0  0  0  0  0  0  0  0  0  0  0
    1.6080   -1.3729   15.3230 N   0  0  0  0  0  0  0  0  0  0  0  0
    2.5324   -0.4358   14.7759 C   0  0  0  0  0  0  0  0  0  0  0  0
    2.1663    0.3860   13.7470 N   0  0  0  0  0  0  0  0  0  0  0  0
    3.0989    1.2355   13.2241 C   0  0  0  0  0  0  0  0  0  0  0  0
    4.4088    1.2797   13.7018 C   0  0  0  0  0  0  0  0  0  0  0  0
    4.7449    0.4891   14.7567 N   0  0  0  0  0  0  0  0  0  0  0  0
    5.8960    0.3776   15.4790 C   0  0  0  0  0  0  0  0  0  0  0  0
    5.5960   -0.5292   16.5069 C   0  0  0  0  0  0  0  0  0  0  0  0
    4.3874   -1.0583   16.3532 N   0  0  0  0  0  0  0  0  0  0  0  0
    3.8346   -0.3857   15.3305 C   0  0  0  0  0  0  0  0  0  0  0  0
    2.6263    2.1555   12.1187 C   0  0  0  0  0  0  0  0  0  0  0  0
    3.5439    2.6382   11.1639 C   0  0  0  0  0  0  0  0  0  0  0  0
    3.1468    3.4593   10.1107 C   0  0  0  0  0  0  0  0  0  0  0  0
    1.8029    3.8136   10.0160 C   0  0  0  0  0  0  0  0  0  0  0  0
    0.9932    4.6001    9.1195 C   0  0  0  0  0  0  0  0  0  0  0  0
   -0.2428    4.6141    9.5158 N   0  0  0  0  0  0  0  0  0  0  0  0
   -0.3351    3.8865   10.6250 N   0  0  0  0  0  0  0  0  0  0  0  0
    0.8815    3.3478   10.9920 C   0  0  0  0  0  0  0  0  0  0  0  0
    1.2640    2.5243   12.0473 C   0  0  0  0  0  0  0  0  0  0  0  0
   -0.3962   -2.6164   15.8132 C   0  0  0  0  0  0  0  0  0  0  0  0
   -1.7505   -2.8679   15.6748 C   0  0  0  0  0  0  0  0  0  0  0  0
   -5.3430   -3.2313   13.5618 H   0  0  0  0  0  0  0  0  0  0  0  0
   -3.9421   -2.5834   12.6430 H   0  0  0  0  0  0  0  0  0  0  0  0
   -3.7642   -4.0865   13.6103 H   0  0  0  0  0  0  0  0  0  0  0  0
   -2.5104   -0.4806   13.3800 H   0  0  0  0  0  0  0  0  0  0  0  0
   -0.0857   -0.0165   13.6391 H   0  0  0  0  0  0  0  0  0  0  0  0
    5.0681    1.0025   12.8660 H   0  0  0  0  0  0  0  0  0  0  0  0
    4.6106    2.3195   13.9988 H   0  0  0  0  0  0  0  0  0  0  0  0
    6.8355    0.8789   15.2989 H   0  0  0  0  0  0  0  0  0  0  0  0
    6.2643   -0.7672   17.3213 H   0  0  0  0  0  0  0  0  0  0  0  0
    4.5848    2.3637   11.2512 H   0  0  0  0  0  0  0  0  0  0  0  0
    3.8640    3.8128    9.3848 H   0  0  0  0  0  0  0  0  0  0  0  0
    1.3633    5.1070    8.2406 H   0  0  0  0  0  0  0  0  0  0  0  0
   -1.1850    3.7463   11.1329 H   0  0  0  0  0  0  0  0  0  0  0  0
    0.5493    2.1816   12.7809 H   0  0  0  0  0  0  0  0  0  0  0  0
    0.1925   -3.2225   16.4859 H   0  0  0  0  0  0  0  0  0  0  0  0
   -2.2125   -3.6634   16.2406 H   0  0  0  0  0  0  0  0  0  0  0  0
  1  2  1  0  0  0  0
  2  3  1  0  0  0  0
  3  4  2  0  0  0  0
  3 27  1  0  0  0  0
  4  5  1  0  0  0  0
  5  6  2  0  0  0  0
  6  7  1  0  0  0  0
  6 26  1  0  0  0  0
  7  8  2  0  0  0  0
  8  9  1  0  0  0  0
  8 16  1  0  0  0  0
  9 10  2  0  0  0  0
 10 11  1  0  0  0  0
 10 17  1  0  0  0  0
 11 12  1  0  0  0  0
 12 13  1  0  0  0  0
 12 16  1  0  0  0  0
 13 14  2  0  0  0  0
 14 15  1  0  0  0  0
 15 16  2  0  0  0  0
 17 18  2  0  0  0  0
 17 25  1  0  0  0  0
 18 19  1  0  0  0  0
 19 20  2  0  0  0  0
 20 21  1  0  0  0  0
 20 24  1  0  0  0  0
 21 22  2  0  0  0  0
 22 23  1  0  0  0  0
 23 24  1  0  0  0  0
 24 25  2  0  0  0  0
 26 27  2  0  0  0  0
  1 28  1  0  0  0  0
  1 29  1  0  0  0  0
  1 30  1  0  0  0  0
  4 31  1  0  0  0  0
  5 32  1  0  0  0  0
 11 33  1  0  0  0  0
 11 34  1  0  0  0  0
 13 35  1  0  0  0  0
 14 36  1  0  0  0  0
 18 37  1  0  0  0  0
 19 38  1  0  0  0  0
 21 39  1  0  0  0  0
 23 40  1  0  0  0  0
 25 41  1  0  0  0  0
 26 42  1  0  0  0  0
 27 43  1  0  0  0  0
M  END
> <IC50[nM]>
7

$$$$
CHEMBL3265029
  -OEChem-05192314333D
 Structure written by MMmdl.
 43 47  0     0  0  0  0  0  0999 V2000
   -4.2507   -3.1011   13.5632 C   0  0  0  0  0  0  0  0  0  0  0  0
   -3.8673   -2.3305   14.6902 O   0  0  0  0  0  0  0  0  0  0  0  0
   -2.5168   -2.0957   14.8067 C   0  0  0  0  0  0  0  0  0  0  0  0
   -1.9172   -1.0702   14.0633 C   0  0  0  0  0  0  0  0  0  0  0  0
   -0.5491   -0.8101   14.2065 C   0  0  0  0  0  0  0  0  0  0  0  0
    0.2199   -1.5870   15.0928 C   0  0  0  0  0  0  0  0  0  0  0  0
    1.6080   -1.3729   15.3230 N   0  0  0  0  0  0  0  0  0  0  0  0
    2.5324   -0.4358   14.7759 C   0  0  0  0  0  0  0  0  0  0  0  0
    2.1663    0.3860   13.7470 N   0  0  0  0  0  0  0  0  0  0  0  0
    3.0989    1.2355   13.2241 C   0  0  0  0  0  0  0  0  0  0  0  0
    4.4088    1.2797   13.7018 C   0  0  0  0  0  0  0  0  0  0  0  0
    4.7449    0.4891   14.7567 N   0  0  0  0  0  0  0  0  0  0  0  0
    5.8960    0.3776   15.4790 C   0  0  0  0  0  0  0  0  0  0  0  0
    5.5960   -0.5292   16.5069 C   0  0  0  0  0  0  0  0  0  0  0  0
    4.3874   -1.0583   16.3532 N   0  0  0  0  0  0  0  0  0  0  0  0
    3.8346   -0.3857   15.3305 C   0  0  0  0  0  0  0  0  0  0  0  0
    2.6263    2.1555   12.1187 C   0  0  0  0  0  0  0  0  0  0  0  0
    3.5439    2.6382   11.1639 C   0  0  0  0  0  0  0  0  0  0  0  0
    3.1468    3.4593   10.1107 C   0  0  0  0  0  0  0  0  0  0  0  0
    1.8029    3.8136   10.0160 C   0  0  0  0  0  0  0  0  0  0  0  0
    0.9932    4.6001    9.1195 C   0  0  0  0  0  0  0  0  0  0  0  0
   -0.2428    4.6141    9.5158 N   0  0  0  0  0  0  0  0  0  0  0  0
   -0.3351    3.8865   10.6250 N   0  0  0  0  0  0  0  0  0  0  0  0
    0.8815    3.3478   10.9920 C   0  0  0  0  0  0  0  0  0  0  0  0
    1.2640    2.5243   12.0473 C   0  0  0  0  0  0  0  0  0  0  0  0
   -0.3962   -2.6164   15.8132 C   0  0  0  0  0  0  0  0  0  0  0  0
   -1.7505   -2.8679   15.6748 C   0  0  0  0  0  0  0  0  0  0  0  0
   -5.3430   -3.2313   13.5618 H   0  0  0  0  0  0  0  0  0  0  0  0
   -3.9421   -2.5834   12.6430 H   0  0  0  0  0  0  0  0  0  0  0  0
   -3.7642   -4.0865   13.6103 H   0  0  0  0  0  0  0  0  0  0  0  0
   -2.5104   -0.4806   13.3800 H   0  0  0  0  0  0  0  0  0  0  0  0
   -0.0857   -0.0165   13.6391 H   0  0  0  0  0  0  0  0  0  0  0  0
    5.0681    1.0025   12.8660 H   0  0  0  0  0  0  0  0  0  0  0  0
    4.6106    2.3195   13.9988 H   0  0  0  0  0  0  0  0  0  0  0  0
    6.8355    0.8789   15.2989 H   0  0  0  0  0  0  0  0  0  0  0  0
    6.2643   -0.7672   17.3213 H   0  0  0  0  0  0  0  0  0  0  0  0
    4.5848    2.3637   11.2512 H   0  0  0  0  0  0  0  0  0  0  0  0
    3.8640    3.8128    9.3848 H   0  0  0  0  0  0  0  0  0  0  0  0
    1.3633    5.1070    8.2406 H   0  0  0  0  0  0  0  0  0  0  0  0
   -0.9969    5.0907    9.0640 H   0  0  0  0  0  0  0  0  0  0  0  0
    0.5493    2.1816   12.7809 H   0  0  0  0  0  0  0  0  0  0  0  0
    0.1925   -3.2225   16.4859 H   0  0  0  0  0  0  0  0  0  0  0  0
   -2.2125   -3.6634   16.2406 H   0  0  0  0  0  0  0  0  0  0  0  0
  1  2  1  0  0  0  0
  2  3  1  0  0  0  0
  3  4  2  0  0  0  0
  3 27  1  0  0  0  0
  4  5  1  0  0  0  0
  5  6  2  0  0  0  0
  6  7  1  0  0  0  0
  6 26  1  0  0  0  0
  7  8  2  0  0  0  0
  8  9  1  0  0  0  0
  8 16  1  0  0  0  0
  9 10  2  0  0  0  0
 10 11  1  0  0  0  0
 10 17  1  0  0  0  0
 11 12  1  0  0  0  0
 12 13  1  0  0  0  0
 12 16  1  0  0  0  0
 13 14  2  0  0  0  0
 14 15  1  0  0  0  0
 15 16  2  0  0  0  0
 17 18  1  0  0  0  0
 17 25  2  0  0  0  0
 18 19  2  0  0  0  0
 19 20  1  0  0  0  0
 20 21  2  0  0  0  0
 20 24  1  0  0  0  0
 21 22  1  0  0  0  0
 22 23  1  0  0  0  0
 23 24  2  0  0  0  0
 24 25  1  0  0  0  0
 26 27  2  0  0  0  0
  1 28  1  0  0  0  0
  1 29  1  0  0  0  0
  1 30  1  0  0  0  0
  4 31  1  0  0  0  0
  5 32  1  0  0  0  0
 11 33  1  0  0  0  0
 11 34  1  0  0  0  0
 13 35  1  0  0  0  0
 14 36  1  0  0  0  0
 18 37  1  0  0  0  0
 19 38  1  0  0  0  0
 21 39  1  0  0  0  0
 22 40  1  0  0  0  0
 25 41  1  0  0  0  0
 26 42  1  0  0  0  0
 27 43  1  0  0  0  0
M  END
> <IC50[nM]>
7

$$$$
CHEMBL3265029
  -OEChem-05192314333D
 Structure written by MMmdl.
 43 47  0     0  0  0  0  0  0999 V2000
   -4.2507   -3.1011   13.5632 C   0  0  0  0  0  0  0  0  0  0  0  0
   -3.8673   -2.3305   14.6902 O   0  0  0  0  0  0  0  0  0  0  0  0
   -2.5168   -2.0957   14.8067 C   0  0  0  0  0  0  0  0  0  0  0  0
   -1.9172   -1.0702   14.0633 C   0  0  0  0  0  0  0  0  0  0  0  0
   -0.5491   -0.8101   14.2065 C   0  0  0  0  0  0  0  0  0  0  0  0
    0.2199   -1.5870   15.0928 C   0  0  0  0  0  0  0  0  0  0  0  0
    1.6080   -1.3729   15.3230 N   0  0  0  0  0  0  0  0  0  0  0  0
    2.5324   -0.4358   14.7759 C   0  0  0  0  0  0  0  0  0  0  0  0
    2.1663    0.3860   13.7470 N   0  0  0  0  0  0  0  0  0  0  0  0
    3.0989    1.2355   13.2241 C   0  0  0  0  0  0  0  0  0  0  0  0
    4.4088    1.2797   13.7018 C   0  0  0  0  0  0  0  0  0  0  0  0
    4.7449    0.4891   14.7567 N   0  0  0  0  0  0  0  0  0  0  0  0
    5.8960    0.3776   15.4790 C   0  0  0  0  0  0  0  0  0  0  0  0
    5.5960   -0.5292   16.5069 C   0  0  0  0  0  0  0  0  0  0  0  0
    4.3874   -1.0583   16.3532 N   0  0  0  0  0  0  0  0  0  0  0  0
    3.8346   -0.3857   15.3305 C   0  0  0  0  0  0  0  0  0  0  0  0
    2.6263    2.1555   12.1187 C   0  0  0  0  0  0  0  0  0  0  0  0
    3.5439    2.6382   11.1639 C   0  0  0  0  0  0  0  0  0  0  0  0
    3.1468    3.4593   10.1107 C   0  0  0  0  0  0  0  0  0  0  0  0
    1.8029    3.8136   10.0160 C   0  0  0  0  0  0  0  0  0  0  0  0
    0.9932    4.6001    9.1195 C   0  0  0  0  0  0  0  0  0  0  0  0
   -0.2428    4.6141    9.5158 N   0  0  0  0  0  0  0  0  0  0  0  0
   -0.3351    3.8865   10.6250 N   0  0  0  0  0  0  0  0  0  0  0  0
    0.8815    3.3478   10.9920 C   0  0  0  0  0  0  0  0  0  0  0  0
    1.2640    2.5243   12.0473 C   0  0  0  0  0  0  0  0  0  0  0  0
   -0.3962   -2.6164   15.8132 C   0  0  0  0  0  0  0  0  0  0  0  0
   -1.7505   -2.8679   15.6748 C   0  0  0  0  0  0  0  0  0  0  0  0
   -5.3430   -3.2313   13.5618 H   0  0  0  0  0  0  0  0  0  0  0  0
   -3.9421   -2.5834   12.6430 H   0  0  0  0  0  0  0  0  0  0  0  0
   -3.7642   -4.0865   13.6103 H   0  0  0  0  0  0  0  0  0  0  0  0
   -2.3186   -2.8077   13.9920 H   0  0  0  0  0  0  0  0  0  0  0  0
   -2.5104   -0.4806   13.3800 H   0  0  0  0  0  0  0  0  0  0  0  0
   -0.0857   -0.0165   13.6391 H   0  0  0  0  0  0  0  0  0  0  0  0
    5.1410    1.9281   13.2437 H   0  0  0  0  0  0  0  0  0  0  0  0
    6.8355    0.8789   15.2989 H   0  0  0  0  0  0  0  0  0  0  0  0
    6.2643   -0.7672   17.3213 H   0  0  0  0  0  0  0  0  0  0  0  0
    4.5848    2.3637   11.2512 H   0  0  0  0  0  0  0  0  0  0  0  0
    3.8640    3.8128    9.3848 H   0  0  0  0  0  0  0  0  0  0  0  0
    1.3633    5.1070    8.2406 H   0  0  0  0  0  0  0  0  0  0  0  0
   -1.1850    3.7463   11.1329 H   0  0  0  0  0  0  0  0  0  0  0  0
    0.5493    2.1816   12.7809 H   0  0  0  0  0  0  0  0  0  0  0  0
    0.1925   -3.2225   16.4859 H   0  0  0  0  0  0  0  0  0  0  0  0
   -2.2125   -3.6634   16.2406 H   0  0  0  0  0  0  0  0  0  0  0  0
  1  2  1  0  0  0  0
  2  3  1  0  0  0  0
  3  4  1  0  0  0  0
  3 27  1  0  0  0  0
  4  5  2  0  0  0  0
  5  6  1  0  0  0  0
  6  7  2  0  0  0  0
  6 26  1  0  0  0  0
  7  8  1  0  0  0  0
  8  9  2  0  0  0  0
  8 16  1  0  0  0  0
  9 10  1  0  0  0  0
 10 11  2  0  0  0  0
 10 17  1  0  0  0  0
 11 12  1  0  0  0  0
 12 13  1  0  0  0  0
 12 16  1  0  0  0  0
 13 14  2  0  0  0  0
 14 15  1  0  0  0  0
 15 16  2  0  0  0  0
 17 18  2  0  0  0  0
 17 25  1  0  0  0  0
 18 19  1  0  0  0  0
 19 20  2  0  0  0  0
 20 21  1  0  0  0  0
 20 24  1  0  0  0  0
 21 22  2  0  0  0  0
 22 23  1  0  0  0  0
 23 24  1  0  0  0  0
 24 25  2  0  0  0  0
 26 27  2  0  0  0  0
  1 28  1  0  0  0  0
  1 29  1  0  0  0  0
  1 30  1  0  0  0  0
  3 31  1  0  0  0  0
  4 32  1  0  0  0  0
  5 33  1  0  0  0  0
 11 34  1  0  0  0  0
 13 35  1  0  0  0  0
 14 36  1  0  0  0  0
 18 37  1  0  0  0  0
 19 38  1  0  0  0  0
 21 39  1  0  0  0  0
 23 40  1  0  0  0  0
 25 41  1  0  0  0  0
 26 42  1  0  0  0  0
 27 43  1  0  0  0  0
M  END
> <IC50[nM]>
7

$$$$
CHEMBL3265029
  -OEChem-05192314333D
 Structure written by MMmdl.
 43 47  0     0  0  0  0  0  0999 V2000
   -4.2507   -3.1011   13.5632 C   0  0  0  0  0  0  0  0  0  0  0  0
   -3.8673   -2.3305   14.6902 O   0  0  0  0  0  0  0  0  0  0  0  0
   -2.5168   -2.0957   14.8067 C   0  0  0  0  0  0  0  0  0  0  0  0
   -1.9172   -1.0702   14.0633 C   0  0  0  0  0  0  0  0  0  0  0  0
   -0.5491   -0.8101   14.2065 C   0  0  0  0  0  0  0  0  0  0  0  0
    0.2199   -1.5870   15.0928 C   0  0  0  0  0  0  0  0  0  0  0  0
    1.6080   -1.3729   15.3230 N   0  0  0  0  0  0  0  0  0  0  0  0
    2.5324   -0.4358   14.7759 C   0  0  0  0  0  0  0  0  0  0  0  0
    2.1663    0.3860   13.7470 N   0  0  0  0  0  0  0  0  0  0  0  0
    3.0989    1.2355   13.2241 C   0  0  0  0  0  0  0  0  0  0  0  0
    4.4088    1.2797   13.7018 C   0  0  0  0  0  0  0  0  0  0  0  0
    4.7449    0.4891   14.7567 N   0  0  0  0  0  0  0  0  0  0  0  0
    5.8960    0.3776   15.4790 C   0  0  0  0  0  0  0  0  0  0  0  0
    5.5960   -0.5292   16.5069 C   0  0  0  0  0  0  0  0  0  0  0  0
    4.3874   -1.0583   16.3532 N   0  0  0  0  0  0  0  0  0  0  0  0
    3.8346   -0.3857   15.3305 C   0  0  0  0  0  0  0  0  0  0  0  0
    2.6263    2.1555   12.1187 C   0  0  0  0  0  0  0  0  0  0  0  0
    3.5439    2.6382   11.1639 C   0  0  0  0  0  0  0  0  0  0  0  0
    3.1468    3.4593   10.1107 C   0  0  0  0  0  0  0  0  0  0  0  0
    1.8029    3.8136   10.0160 C   0  0  0  0  0  0  0  0  0  0  0  0
    0.9932    4.6001    9.1195 C   0  0  0  0  0  0  0  0  0  0  0  0
   -0.2428    4.6141    9.5158 N   0  0  0  0  0  0  0  0  0  0  0  0
   -0.3351    3.8865   10.6250 N   0  0  0  0  0  0  0  0  0  0  0  0
    0.8815    3.3478   10.9920 C   0  0  0  0  0  0  0  0  0  0  0  0
    1.2640    2.5243   12.0473 C   0  0  0  0  0  0  0  0  0  0  0  0
   -0.3962   -2.6164   15.8132 C   0  0  0  0  0  0  0  0  0  0  0  0
   -1.7505   -2.8679   15.6748 C   0  0  0  0  0  0  0  0  0  0  0  0
   -5.3430   -3.2313   13.5618 H   0  0  0  0  0  0  0  0  0  0  0  0
   -3.9421   -2.5834   12.6430 H   0  0  0  0  0  0  0  0  0  0  0  0
   -3.7642   -4.0865   13.6103 H   0  0  0  0  0  0  0  0  0  0  0  0
   -2.3186   -2.8077   13.9920 H   0  0  0  0  0  0  0  0  0  0  0  0
   -2.5104   -0.4806   13.3800 H   0  0  0  0  0  0  0  0  0  0  0  0
   -0.0857   -0.0165   13.6391 H   0  0  0  0  0  0  0  0  0  0  0  0
    5.1410    1.9281   13.2437 H   0  0  0  0  0  0  0  0  0  0  0  0
    6.8355    0.8789   15.2989 H   0  0  0  0  0  0  0  0  0  0  0  0
    6.2643   -0.7672   17.3213 H   0  0  0  0  0  0  0  0  0  0  0  0
    4.5848    2.3637   11.2512 H   0  0  0  0  0  0  0  0  0  0  0  0
    3.8640    3.8128    9.3848 H   0  0  0  0  0  0  0  0  0  0  0  0
    1.3633    5.1070    8.2406 H   0  0  0  0  0  0  0  0  0  0  0  0
   -0.9969    5.0907    9.0640 H   0  0  0  0  0  0  0  0  0  0  0  0
    0.5493    2.1816   12.7809 H   0  0  0  0  0  0  0  0  0  0  0  0
    0.1925   -3.2225   16.4859 H   0  0  0  0  0  0  0  0  0  0  0  0
   -2.2125   -3.6634   16.2406 H   0  0  0  0  0  0  0  0  0  0  0  0
  1  2  1  0  0  0  0
  2  3  1  0  0  0  0
  3  4  1  0  0  0  0
  3 27  1  0  0  0  0
  4  5  2  0  0  0  0
  5  6  1  0  0  0  0
  6  7  2  0  0  0  0
  6 26  1  0  0  0  0
  7  8  1  0  0  0  0
  8  9  2  0  0  0  0
  8 16  1  0  0  0  0
  9 10  1  0  0  0  0
 10 11  2  0  0  0  0
 10 17  1  0  0  0  0
 11 12  1  0  0  0  0
 12 13  1  0  0  0  0
 12 16  1  0  0  0  0
 13 14  2  0  0  0  0
 14 15  1  0  0  0  0
 15 16  2  0  0  0  0
 17 18  1  0  0  0  0
 17 25  2  0  0  0  0
 18 19  2  0  0  0  0
 19 20  1  0  0  0  0
 20 21  2  0  0  0  0
 20 24  1  0  0  0  0
 21 22  1  0  0  0  0
 22 23  1  0  0  0  0
 23 24  2  0  0  0  0
 24 25  1  0  0  0  0
 26 27  2  0  0  0  0
  1 28  1  0  0  0  0
  1 29  1  0  0  0  0
  1 30  1  0  0  0  0
  3 31  1  0  0  0  0
  4 32  1  0  0  0  0
  5 33  1  0  0  0  0
 11 34  1  0  0  0  0
 13 35  1  0  0  0  0
 14 36  1  0  0  0  0
 18 37  1  0  0  0  0
 19 38  1  0  0  0  0
 21 39  1  0  0  0  0
 22 40  1  0  0  0  0
 25 41  1  0  0  0  0
 26 42  1  0  0  0  0
 27 43  1  0  0  0  0
M  END
> <IC50[nM]>
7

$$$$
CHEMBL3265029
  -OEChem-05192314333D
 Structure written by MMmdl.
 43 47  0     0  0  0  0  0  0999 V2000
   -4.2507   -3.1011   13.5632 C   0  0  0  0  0  0  0  0  0  0  0  0
   -3.8673   -2.3305   14.6902 O   0  0  0  0  0  0  0  0  0  0  0  0
   -2.5168   -2.0957   14.8067 C   0  0  0  0  0  0  0  0  0  0  0  0
   -1.9172   -1.0702   14.0633 C   0  0  0  0  0  0  0  0  0  0  0  0
   -0.5491   -0.8101   14.2065 C   0  0  0  0  0  0  0  0  0  0  0  0
    0.2199   -1.5870   15.0928 C   0  0  0  0  0  0  0  0  0  0  0  0
    1.6080   -1.3729   15.3230 N   0  0  0  0  0  0  0  0  0  0  0  0
    2.5324   -0.4358   14.7759 C   0  0  0  0  0  0  0  0  0  0  0  0
    2.1663    0.3860   13.7470 N   0  0  0  0  0  0  0  0  0  0  0  0
    3.0989    1.2355   13.2241 C   0  0  0  0  0  0  0  0  0  0  0  0
    4.4088    1.2797   13.7018 C   0  0  0  0  0  0  0  0  0  0  0  0
    4.7449    0.4891   14.7567 N   0  0  0  0  0  0  0  0  0  0  0  0
    5.8960    0.3776   15.4790 C   0  0  0  0  0  0  0  0  0  0  0  0
    5.5960   -0.5292   16.5069 C   0  0  0  0  0  0  0  0  0  0  0  0
    4.3874   -1.0583   16.3532 N   0  0  0  0  0  0  0  0  0  0  0  0
    3.8346   -0.3857   15.3305 C   0  0  0  0  0  0  0  0  0  0  0  0
    2.6263    2.1555   12.1187 C   0  0  0  0  0  0  0  0  0  0  0  0
    3.5439    2.6382   11.1639 C   0  0  0  0  0  0  0  0  0  0  0  0
    3.1468    3.4593   10.1107 C   0  0  0  0  0  0  0  0  0  0  0  0
    1.8029    3.8136   10.0160 C   0  0  0  0  0  0  0  0  0  0  0  0
    0.9932    4.6001    9.1195 C   0  0  0  0  0  0  0  0  0  0  0  0
   -0.2428    4.6141    9.5158 N   0  0  0  0  0  0  0  0  0  0  0  0
   -0.3351    3.8865   10.6250 N   0  0  0  0  0  0  0  0  0  0  0  0
    0.8815    3.3478   10.9920 C   0  0  0  0  0  0  0  0  0  0  0  0
    1.2640    2.5243   12.0473 C   0  0  0  0  0  0  0  0  0  0  0  0
   -0.3962   -2.6164   15.8132 C   0  0  0  0  0  0  0  0  0  0  0  0
   -1.7505   -2.8679   15.6748 C   0  0  0  0  0  0  0  0  0  0  0  0
   -5.3430   -3.2313   13.5618 H   0  0  0  0  0  0  0  0  0  0  0  0
   -3.9421   -2.5834   12.6430 H   0  0  0  0  0  0  0  0  0  0  0  0
   -3.7642   -4.0865   13.6103 H   0  0  0  0  0  0  0  0  0  0  0  0
   -2.5104   -0.4806   13.3800 H   0  0  0  0  0  0  0  0  0  0  0  0
   -0.0857   -0.0165   13.6391 H   0  0  0  0  0  0  0  0  0  0  0  0
    5.1410    1.9281   13.2437 H   0  0  0  0  0  0  0  0  0  0  0  0
    6.8355    0.8789   15.2989 H   0  0  0  0  0  0  0  0  0  0  0  0
    6.2643   -0.7672   17.3213 H   0  0  0  0  0  0  0  0  0  0  0  0
    4.5848    2.3637   11.2512 H   0  0  0  0  0  0  0  0  0  0  0  0
    3.8640    3.8128    9.3848 H   0  0  0  0  0  0  0  0  0  0  0  0
    1.3633    5.1070    8.2406 H   0  0  0  0  0  0  0  0  0  0  0  0
   -1.1850    3.7463   11.1329 H   0  0  0  0  0  0  0  0  0  0  0  0
    0.5493    2.1816   12.7809 H   0  0  0  0  0  0  0  0  0  0  0  0
    0.1247   -3.5458   15.5395 H   0  0  0  0  0  0  0  0  0  0  0  0
   -0.2248   -2.3999   16.8780 H   0  0  0  0  0  0  0  0  0  0  0  0
   -2.2125   -3.6634   16.2406 H   0  0  0  0  0  0  0  0  0  0  0  0
  1  2  1  0  0  0  0
  2  3  1  0  0  0  0
  3  4  1  0  0  0  0
  3 27  2  0  0  0  0
  4  5  2  0  0  0  0
  5  6  1  0  0  0  0
  6  7  2  0  0  0  0
  6 26  1  0  0  0  0
  7  8  1  0  0  0  0
  8  9  2  0  0  0  0
  8 16  1  0  0  0  0
  9 10  1  0  0  0  0
 10 11  2  0  0  0  0
 10 17  1  0  0  0  0
 11 12  1  0  0  0  0
 12 13  1  0  0  0  0
 12 16  1  0  0  0  0
 13 14  2  0  0  0  0
 14 15  1  0  0  0  0
 15 16  2  0  0  0  0
 17 18  2  0  0  0  0
 17 25  1  0  0  0  0
 18 19  1  0  0  0  0
 19 20  2  0  0  0  0
 20 21  1  0  0  0  0
 20 24  1  0  0  0  0
 21 22  2  0  0  0  0
 22 23  1  0  0  0  0
 23 24  1  0  0  0  0
 24 25  2  0  0  0  0
 26 27  1  0  0  0  0
  1 28  1  0  0  0  0
  1 29  1  0  0  0  0
  1 30  1  0  0  0  0
  4 31  1  0  0  0  0
  5 32  1  0  0  0  0
 11 33  1  0  0  0  0
 13 34  1  0  0  0  0
 14 35  1  0  0  0  0
 18 36  1  0  0  0  0
 19 37  1  0  0  0  0
 21 38  1  0  0  0  0
 23 39  1  0  0  0  0
 25 40  1  0  0  0  0
 26 41  1  0  0  0  0
 26 42  1  0  0  0  0
 27 43  1  0  0  0  0
M  END
> <IC50[nM]>
7

$$$$
CHEMBL3265029
  -OEChem-05192314333D
 Structure written by MMmdl.
 43 47  0     0  0  0  0  0  0999 V2000
   -4.2507   -3.1011   13.5632 C   0  0  0  0  0  0  0  0  0  0  0  0
   -3.8673   -2.3305   14.6902 O   0  0  0  0  0  0  0  0  0  0  0  0
   -2.5168   -2.0957   14.8067 C   0  0  0  0  0  0  0  0  0  0  0  0
   -1.9172   -1.0702   14.0633 C   0  0  0  0  0  0  0  0  0  0  0  0
   -0.5491   -0.8101   14.2065 C   0  0  0  0  0  0  0  0  0  0  0  0
    0.2199   -1.5870   15.0928 C   0  0  0  0  0  0  0  0  0  0  0  0
    1.6080   -1.3729   15.3230 N   0  0  0  0  0  0  0  0  0  0  0  0
    2.5324   -0.4358   14.7759 C   0  0  0  0  0  0  0  0  0  0  0  0
    2.1663    0.3860   13.7470 N   0  0  0  0  0  0  0  0  0  0  0  0
    3.0989    1.2355   13.2241 C   0  0  0  0  0  0  0  0  0  0  0  0
    4.4088    1.2797   13.7018 C   0  0  0  0  0  0  0  0  0  0  0  0
    4.7449    0.4891   14.7567 N   0  0  0  0  0  0  0  0  0  0  0  0
    5.8960    0.3776   15.4790 C   0  0  0  0  0  0  0  0  0  0  0  0
    5.5960   -0.5292   16.5069 C   0  0  0  0  0  0  0  0  0  0  0  0
    4.3874   -1.0583   16.3532 N   0  0  0  0  0  0  0  0  0  0  0  0
    3.8346   -0.3857   15.3305 C   0  0  0  0  0  0  0  0  0  0  0  0
    2.6263    2.1555   12.1187 C   0  0  0  0  0  0  0  0  0  0  0  0
    3.5439    2.6382   11.1639 C   0  0  0  0  0  0  0  0  0  0  0  0
    3.1468    3.4593   10.1107 C   0  0  0  0  0  0  0  0  0  0  0  0
    1.8029    3.8136   10.0160 C   0  0  0  0  0  0  0  0  0  0  0  0
    0.9932    4.6001    9.1195 C   0  0  0  0  0  0  0  0  0  0  0  0
   -0.2428    4.6141    9.5158 N   0  0  0  0  0  0  0  0  0  0  0  0
   -0.3351    3.8865   10.6250 N   0  0  0  0  0  0  0  0  0  0  0  0
    0.8815    3.3478   10.9920 C   0  0  0  0  0  0  0  0  0  0  0  0
    1.2640    2.5243   12.0473 C   0  0  0  0  0  0  0  0  0  0  0  0
   -0.3962   -2.6164   15.8132 C   0  0  0  0  0  0  0  0  0  0  0  0
   -1.7505   -2.8679   15.6748 C   0  0  0  0  0  0  0  0  0  0  0  0
   -5.3430   -3.2313   13.5618 H   0  0  0  0  0  0  0  0  0  0  0  0
   -3.9421   -2.5834   12.6430 H   0  0  0  0  0  0  0  0  0  0  0  0
   -3.7642   -4.0865   13.6103 H   0  0  0  0  0  0  0  0  0  0  0  0
   -2.5104   -0.4806   13.3800 H   0  0  0  0  0  0  0  0  0  0  0  0
   -0.0857   -0.0165   13.6391 H   0  0  0  0  0  0  0  0  0  0  0  0
    5.1410    1.9281   13.2437 H   0  0  0  0  0  0  0  0  0  0  0  0
    6.8355    0.8789   15.2989 H   0  0  0  0  0  0  0  0  0  0  0  0
    6.2643   -0.7672   17.3213 H   0  0  0  0  0  0  0  0  0  0  0  0
    4.5848    2.3637   11.2512 H   0  0  0  0  0  0  0  0  0  0  0  0
    3.8640    3.8128    9.3848 H   0  0  0  0  0  0  0  0  0  0  0  0
    1.3633    5.1070    8.2406 H   0  0  0  0  0  0  0  0  0  0  0  0
   -0.9969    5.0907    9.0640 H   0  0  0  0  0  0  0  0  0  0  0  0
    0.5493    2.1816   12.7809 H   0  0  0  0  0  0  0  0  0  0  0  0
    0.1247   -3.5458   15.5395 H   0  0  0  0  0  0  0  0  0  0  0  0
   -0.2248   -2.3999   16.8780 H   0  0  0  0  0  0  0  0  0  0  0  0
   -2.2125   -3.6634   16.2406 H   0  0  0  0  0  0  0  0  0  0  0  0
  1  2  1  0  0  0  0
  2  3  1  0  0  0  0
  3  4  1  0  0  0  0
  3 27  2  0  0  0  0
  4  5  2  0  0  0  0
  5  6  1  0  0  0  0
  6  7  2  0  0  0  0
  6 26  1  0  0  0  0
  7  8  1  0  0  0  0
  8  9  2  0  0  0  0
  8 16  1  0  0  0  0
  9 10  1  0  0  0  0
 10 11  2  0  0  0  0
 10 17  1  0  0  0  0
 11 12  1  0  0  0  0
 12 13  1  0  0  0  0
 12 16  1  0  0  0  0
 13 14  2  0  0  0  0
 14 15  1  0  0  0  0
 15 16  2  0  0  0  0
 17 18  1  0  0  0  0
 17 25  2  0  0  0  0
 18 19  2  0  0  0  0
 19 20  1  0  0  0  0
 20 21  2  0  0  0  0
 20 24  1  0  0  0  0
 21 22  1  0  0  0  0
 22 23  1  0  0  0  0
 23 24  2  0  0  0  0
 24 25  1  0  0  0  0
 26 27  1  0  0  0  0
  1 28  1  0  0  0  0
  1 29  1  0  0  0  0
  1 30  1  0  0  0  0
  4 31  1  0  0  0  0
  5 32  1  0  0  0  0
 11 33  1  0  0  0  0
 13 34  1  0  0  0  0
 14 35  1  0  0  0  0
 18 36  1  0  0  0  0
 19 37  1  0  0  0  0
 21 38  1  0  0  0  0
 22 39  1  0  0  0  0
 25 40  1  0  0  0  0
 26 41  1  0  0  0  0
 26 42  1  0  0  0  0
 27 43  1  0  0  0  0
M  END
> <IC50[nM]>
7

$$$$
CHEMBL3265029
  -OEChem-05192314333D
 Structure written by MMmdl.
 43 47  0     0  0  0  0  0  0999 V2000
   -4.2507   -3.1011   13.5632 C   0  0  0  0  0  0  0  0  0  0  0  0
   -3.8673   -2.3305   14.6902 O   0  0  0  0  0  0  0  0  0  0  0  0
   -2.5168   -2.0957   14.8067 C   0  0  0  0  0  0  0  0  0  0  0  0
   -1.9172   -1.0702   14.0633 C   0  0  0  0  0  0  0  0  0  0  0  0
   -0.5491   -0.8101   14.2065 C   0  0  0  0  0  0  0  0  0  0  0  0
    0.2199   -1.5870   15.0928 C   0  0  0  0  0  0  0  0  0  0  0  0
    1.6080   -1.3729   15.3230 N   0  0  0  0  0  0  0  0  0  0  0  0
    2.5324   -0.4358   14.7759 C   0  0  0  0  0  0  0  0  0  0  0  0
    2.1663    0.3860   13.7470 N   0  0  0  0  0  0  0  0  0  0  0  0
    3.0989    1.2355   13.2241 C   0  0  0  0  0  0  0  0  0  0  0  0
    4.4088    1.2797   13.7018 C   0  0  0  0  0  0  0  0  0  0  0  0
    4.7449    0.4891   14.7567 N   0  0  0  0  0  0  0  0  0  0  0  0
    5.8960    0.3776   15.4790 C   0  0  0  0  0  0  0  0  0  0  0  0
    5.5960   -0.5292   16.5069 C   0  0  0  0  0  0  0  0  0  0  0  0
    4.3874   -1.0583   16.3532 N   0  0  0  0  0  0  0  0  0  0  0  0
    3.8346   -0.3857   15.3305 C   0  0  0  0  0  0  0  0  0  0  0  0
    2.6263    2.1555   12.1187 C   0  0  0  0  0  0  0  0  0  0  0  0
    3.5439    2.6382   11.1639 C   0  0  0  0  0  0  0  0  0  0  0  0
    3.1468    3.4593   10.1107 C   0  0  0  0  0  0  0  0  0  0  0  0
    1.8029    3.8136   10.0160 C   0  0  0  0  0  0  0  0  0  0  0  0
    0.9932    4.6001    9.1195 C   0  0  0  0  0  0  0  0  0  0  0  0
   -0.2428    4.6141    9.5158 N   0  0  0  0  0  0  0  0  0  0  0  0
   -0.3351    3.8865   10.6250 N   0  0  0  0  0  0  0  0  0  0  0  0
    0.8815    3.3478   10.9920 C   0  0  0  0  0  0  0  0  0  0  0  0
    1.2640    2.5243   12.0473 C   0  0  0  0  0  0  0  0  0  0  0  0
   -0.3962   -2.6164   15.8132 C   0  0  0  0  0  0  0  0  0  0  0  0
   -1.7505   -2.8679   15.6748 C   0  0  0  0  0  0  0  0  0  0  0  0
   -5.3430   -3.2313   13.5618 H   0  0  0  0  0  0  0  0  0  0  0  0
   -3.9421   -2.5834   12.6430 H   0  0  0  0  0  0  0  0  0  0  0  0
   -3.7642   -4.0865   13.6103 H   0  0  0  0  0  0  0  0  0  0  0  0
   -2.5104   -0.4806   13.3800 H   0  0  0  0  0  0  0  0  0  0  0  0
   -0.0857   -0.0165   13.6391 H   0  0  0  0  0  0  0  0  0  0  0  0
    5.0681    1.0025   12.8660 H   0  0  0  0  0  0  0  0  0  0  0  0
    4.6106    2.3195   13.9988 H   0  0  0  0  0  0  0  0  0  0  0  0
    6.8355    0.8789   15.2989 H   0  0  0  0  0  0  0  0  0  0  0  0
    6.2643   -0.7672   17.3213 H   0  0  0  0  0  0  0  0  0  0  0  0
    4.5848    2.3637   11.2512 H   0  0  0  0  0  0  0  0  0  0  0  0
    3.8640    3.8128    9.3848 H   0  0  0  0  0  0  0  0  0  0  0  0
    1.3770    5.6307    9.0952 H   0  0  0  0  0  0  0  0  0  0  0  0
    1.0446    4.1657    8.1102 H   0  0  0  0  0  0  0  0  0  0  0  0
    0.5493    2.1816   12.7809 H   0  0  0  0  0  0  0  0  0  0  0  0
    0.1925   -3.2225   16.4859 H   0  0  0  0  0  0  0  0  0  0  0  0
   -2.2125   -3.6634   16.2406 H   0  0  0  0  0  0  0  0  0  0  0  0
  1  2  1  0  0  0  0
  2  3  1  0  0  0  0
  3  4  2  0  0  0  0
  3 27  1  0  0  0  0
  4  5  1  0  0  0  0
  5  6  2  0  0  0  0
  6  7  1  0  0  0  0
  6 26  1  0  0  0  0
  7  8  2  0  0  0  0
  8  9  1  0  0  0  0
  8 16  1  0  0  0  0
  9 10  2  0  0  0  0
 10 11  1  0  0  0  0
 10 17  1  0  0  0  0
 11 12  1  0  0  0  0
 12 13  1  0  0  0  0
 12 16  1  0  0  0  0
 13 14  2  0  0  0  0
 14 15  1  0  0  0  0
 15 16  2  0  0  0  0
 17 18  2  0  0  0  0
 17 25  1  0  0  0  0
 18 19  1  0  0  0  0
 19 20  2  0  0  0  0
 20 21  1  0  0  0  0
 20 24  1  0  0  0  0
 21 22  1  0  0  0  0
 22 23  2  0  0  0  0
 23 24  1  0  0  0  0
 24 25  2  0  0  0  0
 26 27  2  0  0  0  0
  1 28  1  0  0  0  0
  1 29  1  0  0  0  0
  1 30  1  0  0  0  0
  4 31  1  0  0  0  0
  5 32  1  0  0  0  0
 11 33  1  0  0  0  0
 11 34  1  0  0  0  0
 13 35  1  0  0  0  0
 14 36  1  0  0  0  0
 18 37  1  0  0  0  0
 19 38  1  0  0  0  0
 21 39  1  0  0  0  0
 21 40  1  0  0  0  0
 25 41  1  0  0  0  0
 26 42  1  0  0  0  0
 27 43  1  0  0  0  0
M  END
> <IC50[nM]>
7

$$$$
CHEMBL3265029
  -OEChem-05192314333D
 Structure written by MMmdl.
 43 47  0     0  0  0  0  0  0999 V2000
   -4.2507   -3.1011   13.5632 C   0  0  0  0  0  0  0  0  0  0  0  0
   -3.8673   -2.3305   14.6902 O   0  0  0  0  0  0  0  0  0  0  0  0
   -2.5168   -2.0957   14.8067 C   0  0  0  0  0  0  0  0  0  0  0  0
   -1.9172   -1.0702   14.0633 C   0  0  0  0  0  0  0  0  0  0  0  0
   -0.5491   -0.8101   14.2065 C   0  0  0  0  0  0  0  0  0  0  0  0
    0.2199   -1.5870   15.0928 C   0  0  0  0  0  0  0  0  0  0  0  0
    1.6080   -1.3729   15.3230 N   0  0  0  0  0  0  0  0  0  0  0  0
    2.5324   -0.4358   14.7759 C   0  0  0  0  0  0  0  0  0  0  0  0
    2.1663    0.3860   13.7470 N   0  0  0  0  0  0  0  0  0  0  0  0
    3.0989    1.2355   13.2241 C   0  0  0  0  0  0  0  0  0  0  0  0
    4.4088    1.2797   13.7018 C   0  0  0  0  0  0  0  0  0  0  0  0
    4.7449    0.4891   14.7567 N   0  0  0  0  0  0  0  0  0  0  0  0
    5.8960    0.3776   15.4790 C   0  0  0  0  0  0  0  0  0  0  0  0
    5.5960   -0.5292   16.5069 C   0  0  0  0  0  0  0  0  0  0  0  0
    4.3874   -1.0583   16.3532 N   0  0  0  0  0  0  0  0  0  0  0  0
    3.8346   -0.3857   15.3305 C   0  0  0  0  0  0  0  0  0  0  0  0
    2.6263    2.1555   12.1187 C   0  0  0  0  0  0  0  0  0  0  0  0
    3.5439    2.6382   11.1639 C   0  0  0  0  0  0  0  0  0  0  0  0
    3.1468    3.4593   10.1107 C   0  0  0  0  0  0  0  0  0  0  0  0
    1.8029    3.8136   10.0160 C   0  0  0  0  0  0  0  0  0  0  0  0
    0.9932    4.6001    9.1195 C   0  0  0  0  0  0  0  0  0  0  0  0
   -0.2428    4.6141    9.5158 N   0  0  0  0  0  0  0  0  0  0  0  0
   -0.3351    3.8865   10.6250 N   0  0  0  0  0  0  0  0  0  0  0  0
    0.8815    3.3478   10.9920 C   0  0  0  0  0  0  0  0  0  0  0  0
    1.2640    2.5243   12.0473 C   0  0  0  0  0  0  0  0  0  0  0  0
   -0.3962   -2.6164   15.8132 C   0  0  0  0  0  0  0  0  0  0  0  0
   -1.7505   -2.8679   15.6748 C   0  0  0  0  0  0  0  0  0  0  0  0
   -5.3430   -3.2313   13.5618 H   0  0  0  0  0  0  0  0  0  0  0  0
   -3.9421   -2.5834   12.6430 H   0  0  0  0  0  0  0  0  0  0  0  0
   -3.7642   -4.0865   13.6103 H   0  0  0  0  0  0  0  0  0  0  0  0
   -2.5104   -0.4806   13.3800 H   0  0  0  0  0  0  0  0  0  0  0  0
   -0.0857   -0.0165   13.6391 H   0  0  0  0  0  0  0  0  0  0  0  0
    2.0098   -1.9963   15.9938 H   0  0  0  0  0  0  0  0  0  0  0  0
    5.0681    1.0025   12.8660 H   0  0  0  0  0  0  0  0  0  0  0  0
    4.6106    2.3195   13.9988 H   0  0  0  0  0  0  0  0  0  0  0  0
    6.8355    0.8789   15.2989 H   0  0  0  0  0  0  0  0  0  0  0  0
    6.2643   -0.7672   17.3213 H   0  0  0  0  0  0  0  0  0  0  0  0
    4.5848    2.3637   11.2512 H   0  0  0  0  0  0  0  0  0  0  0  0
    3.8640    3.8128    9.3848 H   0  0  0  0  0  0  0  0  0  0  0  0
    1.3633    5.1070    8.2406 H   0  0  0  0  0  0  0  0  0  0  0  0
    0.5493    2.1816   12.7809 H   0  0  0  0  0  0  0  0  0  0  0  0
    0.1925   -3.2225   16.4859 H   0  0  0  0  0  0  0  0  0  0  0  0
   -2.2125   -3.6634   16.2406 H   0  0  0  0  0  0  0  0  0  0  0  0
  1  2  1  0  0  0  0
  2  3  1  0  0  0  0
  3  4  2  0  0  0  0
  3 27  1  0  0  0  0
  4  5  1  0  0  0  0
  5  6  2  0  0  0  0
  6  7  1  0  0  0  0
  6 26  1  0  0  0  0
  7  8  1  0  0  0  0
  8  9  2  0  0  0  0
  8 16  1  0  0  0  0
  9 10  1  0  0  0  0
 10 11  1  0  0  0  0
 10 17  2  0  0  0  0
 11 12  1  0  0  0  0
 12 13  1  0  0  0  0
 12 16  1  0  0  0  0
 13 14  2  0  0  0  0
 14 15  1  0  0  0  0
 15 16  2  0  0  0  0
 17 18  1  0  0  0  0
 17 25  1  0  0  0  0
 18 19  2  0  0  0  0
 19 20  1  0  0  0  0
 20 21  2  0  0  0  0
 20 24  1  0  0  0  0
 21 22  1  0  0  0  0
 22 23  2  0  0  0  0
 23 24  1  0  0  0  0
 24 25  2  0  0  0  0
 26 27  2  0  0  0  0
  1 28  1  0  0  0  0
  1 29  1  0  0  0  0
  1 30  1  0  0  0  0
  4 31  1  0  0  0  0
  5 32  1  0  0  0  0
  7 33  1  0  0  0  0
 11 34  1  0  0  0  0
 11 35  1  0  0  0  0
 13 36  1  0  0  0  0
 14 37  1  0  0  0  0
 18 38  1  0  0  0  0
 19 39  1  0  0  0  0
 21 40  1  0  0  0  0
 25 41  1  0  0  0  0
 26 42  1  0  0  0  0
 27 43  1  0  0  0  0
M  END
> <IC50[nM]>
7

$$$$
CHEMBL3265029
  -OEChem-05192314333D
 Structure written by MMmdl.
 43 47  0     0  0  0  0  0  0999 V2000
   -4.2507   -3.1011   13.5632 C   0  0  0  0  0  0  0  0  0  0  0  0
   -3.8673   -2.3305   14.6902 O   0  0  0  0  0  0  0  0  0  0  0  0
   -2.5168   -2.0957   14.8067 C   0  0  0  0  0  0  0  0  0  0  0  0
   -1.9172   -1.0702   14.0633 C   0  0  0  0  0  0  0  0  0  0  0  0
   -0.5491   -0.8101   14.2065 C   0  0  0  0  0  0  0  0  0  0  0  0
    0.2199   -1.5870   15.0928 C   0  0  0  0  0  0  0  0  0  0  0  0
    1.6080   -1.3729   15.3230 N   0  0  0  0  0  0  0  0  0  0  0  0
    2.5324   -0.4358   14.7759 C   0  0  0  0  0  0  0  0  0  0  0  0
    2.1663    0.3860   13.7470 N   0  0  0  0  0  0  0  0  0  0  0  0
    3.0989    1.2355   13.2241 C   0  0  0  0  0  0  0  0  0  0  0  0
    4.4088    1.2797   13.7018 C   0  0  0  0  0  0  0  0  0  0  0  0
    4.7449    0.4891   14.7567 N   0  0  0  0  0  0  0  0  0  0  0  0
    5.8960    0.3776   15.4790 C   0  0  0  0  0  0  0  0  0  0  0  0
    5.5960   -0.5292   16.5069 C   0  0  0  0  0  0  0  0  0  0  0  0
    4.3874   -1.0583   16.3532 N   0  0  0  0  0  0  0  0  0  0  0  0
    3.8346   -0.3857   15.3305 C   0  0  0  0  0  0  0  0  0  0  0  0
    2.6263    2.1555   12.1187 C   0  0  0  0  0  0  0  0  0  0  0  0
    3.5439    2.6382   11.1639 C   0  0  0  0  0  0  0  0  0  0  0  0
    3.1468    3.4593   10.1107 C   0  0  0  0  0  0  0  0  0  0  0  0
    1.8029    3.8136   10.0160 C   0  0  0  0  0  0  0  0  0  0  0  0
    0.9932    4.6001    9.1195 C   0  0  0  0  0  0  0  0  0  0  0  0
   -0.2428    4.6141    9.5158 N   0  0  0  0  0  0  0  0  0  0  0  0
   -0.3351    3.8865   10.6250 N   0  0  0  0  0  0  0  0  0  0  0  0
    0.8815    3.3478   10.9920 C   0  0  0  0  0  0  0  0  0  0  0  0
    1.2640    2.5243   12.0473 C   0  0  0  0  0  0  0  0  0  0  0  0
   -0.3962   -2.6164   15.8132 C   0  0  0  0  0  0  0  0  0  0  0  0
   -1.7505   -2.8679   15.6748 C   0  0  0  0  0  0  0  0  0  0  0  0
   -5.3430   -3.2313   13.5618 H   0  0  0  0  0  0  0  0  0  0  0  0
   -3.9421   -2.5834   12.6430 H   0  0  0  0  0  0  0  0  0  0  0  0
   -3.7642   -4.0865   13.6103 H   0  0  0  0  0  0  0  0  0  0  0  0
   -2.5104   -0.4806   13.3800 H   0  0  0  0  0  0  0  0  0  0  0  0
   -0.0857   -0.0165   13.6391 H   0  0  0  0  0  0  0  0  0  0  0  0
    1.2345    0.3656   13.3845 H   0  0  0  0  0  0  0  0  0  0  0  0
    5.0681    1.0025   12.8660 H   0  0  0  0  0  0  0  0  0  0  0  0
    4.6106    2.3195   13.9988 H   0  0  0  0  0  0  0  0  0  0  0  0
    6.8355    0.8789   15.2989 H   0  0  0  0  0  0  0  0  0  0  0  0
    6.2643   -0.7672   17.3213 H   0  0  0  0  0  0  0  0  0  0  0  0
    4.5848    2.3637   11.2512 H   0  0  0  0  0  0  0  0  0  0  0  0
    3.8640    3.8128    9.3848 H   0  0  0  0  0  0  0  0  0  0  0  0
    1.3633    5.1070    8.2406 H   0  0  0  0  0  0  0  0  0  0  0  0
    0.5493    2.1816   12.7809 H   0  0  0  0  0  0  0  0  0  0  0  0
    0.1925   -3.2225   16.4859 H   0  0  0  0  0  0  0  0  0  0  0  0
   -2.2125   -3.6634   16.2406 H   0  0  0  0  0  0  0  0  0  0  0  0
  1  2  1  0  0  0  0
  2  3  1  0  0  0  0
  3  4  2  0  0  0  0
  3 27  1  0  0  0  0
  4  5  1  0  0  0  0
  5  6  2  0  0  0  0
  6  7  1  0  0  0  0
  6 26  1  0  0  0  0
  7  8  2  0  0  0  0
  8  9  1  0  0  0  0
  8 16  1  0  0  0  0
  9 10  1  0  0  0  0
 10 11  1  0  0  0  0
 10 17  2  0  0  0  0
 11 12  1  0  0  0  0
 12 13  1  0  0  0  0
 12 16  1  0  0  0  0
 13 14  2  0  0  0  0
 14 15  1  0  0  0  0
 15 16  2  0  0  0  0
 17 18  1  0  0  0  0
 17 25  1  0  0  0  0
 18 19  2  0  0  0  0
 19 20  1  0  0  0  0
 20 21  2  0  0  0  0
 20 24  1  0  0  0  0
 21 22  1  0  0  0  0
 22 23  2  0  0  0  0
 23 24  1  0  0  0  0
 24 25  2  0  0  0  0
 26 27  2  0  0  0  0
  1 28  1  0  0  0  0
  1 29  1  0  0  0  0
  1 30  1  0  0  0  0
  4 31  1  0  0  0  0
  5 32  1  0  0  0  0
  9 33  1  0  0  0  0
 11 34  1  0  0  0  0
 11 35  1  0  0  0  0
 13 36  1  0  0  0  0
 14 37  1  0  0  0  0
 18 38  1  0  0  0  0
 19 39  1  0  0  0  0
 21 40  1  0  0  0  0
 25 41  1  0  0  0  0
 26 42  1  0  0  0  0
 27 43  1  0  0  0  0
M  END
> <IC50[nM]>
7

$$$$
CHEMBL3265029
  -OEChem-05192314333D
 Structure written by MMmdl.
 43 47  0     0  0  0  0  0  0999 V2000
   -4.2507   -3.1011   13.5632 C   0  0  0  0  0  0  0  0  0  0  0  0
   -3.8673   -2.3305   14.6902 O   0  0  0  0  0  0  0  0  0  0  0  0
   -2.5168   -2.0957   14.8067 C   0  0  0  0  0  0  0  0  0  0  0  0
   -1.9172   -1.0702   14.0633 C   0  0  0  0  0  0  0  0  0  0  0  0
   -0.5491   -0.8101   14.2065 C   0  0  0  0  0  0  0  0  0  0  0  0
    0.2199   -1.5870   15.0928 C   0  0  0  0  0  0  0  0  0  0  0  0
    1.6080   -1.3729   15.3230 N   0  0  0  0  0  0  0  0  0  0  0  0
    2.5324   -0.4358   14.7759 C   0  0  0  0  0  0  0  0  0  0  0  0
    2.1663    0.3860   13.7470 N   0  0  0  0  0  0  0  0  0  0  0  0
    3.0989    1.2355   13.2241 C   0  0  0  0  0  0  0  0  0  0  0  0
    4.4088    1.2797   13.7018 C   0  0  0  0  0  0  0  0  0  0  0  0
    4.7449    0.4891   14.7567 N   0  0  0  0  0  0  0  0  0  0  0  0
    5.8960    0.3776   15.4790 C   0  0  0  0  0  0  0  0  0  0  0  0
    5.5960   -0.5292   16.5069 C   0  0  0  0  0  0  0  0  0  0  0  0
    4.3874   -1.0583   16.3532 N   0  0  0  0  0  0  0  0  0  0  0  0
    3.8346   -0.3857   15.3305 C   0  0  0  0  0  0  0  0  0  0  0  0
    2.6263    2.1555   12.1187 C   0  0  0  0  0  0  0  0  0  0  0  0
    3.5439    2.6382   11.1639 C   0  0  0  0  0  0  0  0  0  0  0  0
    3.1468    3.4593   10.1107 C   0  0  0  0  0  0  0  0  0  0  0  0
    1.8029    3.8136   10.0160 C   0  0  0  0  0  0  0  0  0  0  0  0
    0.9932    4.6001    9.1195 C   0  0  0  0  0  0  0  0  0  0  0  0
   -0.2428    4.6141    9.5158 N   0  0  0  0  0  0  0  0  0  0  0  0
   -0.3351    3.8865   10.6250 N   0  0  0  0  0  0  0  0  0  0  0  0
    0.8815    3.3478   10.9920 C   0  0  0  0  0  0  0  0  0  0  0  0
    1.2640    2.5243   12.0473 C   0  0  0  0  0  0  0  0  0  0  0  0
   -0.3962   -2.6164   15.8132 C   0  0  0  0  0  0  0  0  0  0  0  0
   -1.7505   -2.8679   15.6748 C   0  0  0  0  0  0  0  0  0  0  0  0
   -5.3430   -3.2313   13.5618 H   0  0  0  0  0  0  0  0  0  0  0  0
   -3.9421   -2.5834   12.6430 H   0  0  0  0  0  0  0  0  0  0  0  0
   -3.7642   -4.0865   13.6103 H   0  0  0  0  0  0  0  0  0  0  0  0
   -2.3186   -2.8077   13.9920 H   0  0  0  0  0  0  0  0  0  0  0  0
   -2.5104   -0.4806   13.3800 H   0  0  0  0  0  0  0  0  0  0  0  0
   -0.0857   -0.0165   13.6391 H   0  0  0  0  0  0  0  0  0  0  0  0
    5.1410    1.9281   13.2437 H   0  0  0  0  0  0  0  0  0  0  0  0
    6.8355    0.8789   15.2989 H   0  0  0  0  0  0  0  0  0  0  0  0
    6.2643   -0.7672   17.3213 H   0  0  0  0  0  0  0  0  0  0  0  0
    4.5848    2.3637   11.2512 H   0  0  0  0  0  0  0  0  0  0  0  0
    3.8640    3.8128    9.3848 H   0  0  0  0  0  0  0  0  0  0  0  0
    1.3770    5.6307    9.0952 H   0  0  0  0  0  0  0  0  0  0  0  0
    1.0446    4.1657    8.1102 H   0  0  0  0  0  0  0  0  0  0  0  0
    0.5493    2.1816   12.7809 H   0  0  0  0  0  0  0  0  0  0  0  0
    0.1925   -3.2225   16.4859 H   0  0  0  0  0  0  0  0  0  0  0  0
   -2.2125   -3.6634   16.2406 H   0  0  0  0  0  0  0  0  0  0  0  0
  1  2  1  0  0  0  0
  2  3  1  0  0  0  0
  3  4  1  0  0  0  0
  3 27  1  0  0  0  0
  4  5  2  0  0  0  0
  5  6  1  0  0  0  0
  6  7  2  0  0  0  0
  6 26  1  0  0  0  0
  7  8  1  0  0  0  0
  8  9  2  0  0  0  0
  8 16  1  0  0  0  0
  9 10  1  0  0  0  0
 10 11  2  0  0  0  0
 10 17  1  0  0  0  0
 11 12  1  0  0  0  0
 12 13  1  0  0  0  0
 12 16  1  0  0  0  0
 13 14  2  0  0  0  0
 14 15  1  0  0  0  0
 15 16  2  0  0  0  0
 17 18  2  0  0  0  0
 17 25  1  0  0  0  0
 18 19  1  0  0  0  0
 19 20  2  0  0  0  0
 20 21  1  0  0  0  0
 20 24  1  0  0  0  0
 21 22  1  0  0  0  0
 22 23  2  0  0  0  0
 23 24  1  0  0  0  0
 24 25  2  0  0  0  0
 26 27  2  0  0  0  0
  1 28  1  0  0  0  0
  1 29  1  0  0  0  0
  1 30  1  0  0  0  0
  3 31  1  0  0  0  0
  4 32  1  0  0  0  0
  5 33  1  0  0  0  0
 11 34  1  0  0  0  0
 13 35  1  0  0  0  0
 14 36  1  0  0  0  0
 18 37  1  0  0  0  0
 19 38  1  0  0  0  0
 21 39  1  0  0  0  0
 21 40  1  0  0  0  0
 25 41  1  0  0  0  0
 26 42  1  0  0  0  0
 27 43  1  0  0  0  0
M  END
> <IC50[nM]>
7

$$$$
CHEMBL3265029
  -OEChem-05192314333D
 Structure written by MMmdl.
 43 47  0     0  0  0  0  0  0999 V2000
   -4.2507   -3.1011   13.5632 C   0  0  0  0  0  0  0  0  0  0  0  0
   -3.8673   -2.3305   14.6902 O   0  0  0  0  0  0  0  0  0  0  0  0
   -2.5168   -2.0957   14.8067 C   0  0  0  0  0  0  0  0  0  0  0  0
   -1.9172   -1.0702   14.0633 C   0  0  0  0  0  0  0  0  0  0  0  0
   -0.5491   -0.8101   14.2065 C   0  0  0  0  0  0  0  0  0  0  0  0
    0.2199   -1.5870   15.0928 C   0  0  0  0  0  0  0  0  0  0  0  0
    1.6080   -1.3729   15.3230 N   0  0  0  0  0  0  0  0  0  0  0  0
    2.5324   -0.4358   14.7759 C   0  0  0  0  0  0  0  0  0  0  0  0
    2.1663    0.3860   13.7470 N   0  0  0  0  0  0  0  0  0  0  0  0
    3.0989    1.2355   13.2241 C   0  0  0  0  0  0  0  0  0  0  0  0
    4.4088    1.2797   13.7018 C   0  0  0  0  0  0  0  0  0  0  0  0
    4.7449    0.4891   14.7567 N   0  0  0  0  0  0  0  0  0  0  0  0
    5.8960    0.3776   15.4790 C   0  0  0  0  0  0  0  0  0  0  0  0
    5.5960   -0.5292   16.5069 C   0  0  0  0  0  0  0  0  0  0  0  0
    4.3874   -1.0583   16.3532 N   0  0  0  0  0  0  0  0  0  0  0  0
    3.8346   -0.3857   15.3305 C   0  0  0  0  0  0  0  0  0  0  0  0
    2.6263    2.1555   12.1187 C   0  0  0  0  0  0  0  0  0  0  0  0
    3.5439    2.6382   11.1639 C   0  0  0  0  0  0  0  0  0  0  0  0
    3.1468    3.4593   10.1107 C   0  0  0  0  0  0  0  0  0  0  0  0
    1.8029    3.8136   10.0160 C   0  0  0  0  0  0  0  0  0  0  0  0
    0.9932    4.6001    9.1195 C   0  0  0  0  0  0  0  0  0  0  0  0
   -0.2428    4.6141    9.5158 N   0  0  0  0  0  0  0  0  0  0  0  0
   -0.3351    3.8865   10.6250 N   0  0  0  0  0  0  0  0  0  0  0  0
    0.8815    3.3478   10.9920 C   0  0  0  0  0  0  0  0  0  0  0  0
    1.2640    2.5243   12.0473 C   0  0  0  0  0  0  0  0  0  0  0  0
   -0.3962   -2.6164   15.8132 C   0  0  0  0  0  0  0  0  0  0  0  0
   -1.7505   -2.8679   15.6748 C   0  0  0  0  0  0  0  0  0  0  0  0
   -5.3430   -3.2313   13.5618 H   0  0  0  0  0  0  0  0  0  0  0  0
   -3.9421   -2.5834   12.6430 H   0  0  0  0  0  0  0  0  0  0  0  0
   -3.7642   -4.0865   13.6103 H   0  0  0  0  0  0  0  0  0  0  0  0
   -2.5104   -0.4806   13.3800 H   0  0  0  0  0  0  0  0  0  0  0  0
   -0.0857   -0.0165   13.6391 H   0  0  0  0  0  0  0  0  0  0  0  0
    5.1410    1.9281   13.2437 H   0  0  0  0  0  0  0  0  0  0  0  0
    6.8355    0.8789   15.2989 H   0  0  0  0  0  0  0  0  0  0  0  0
    6.2643   -0.7672   17.3213 H   0  0  0  0  0  0  0  0  0  0  0  0
    4.5848    2.3637   11.2512 H   0  0  0  0  0  0  0  0  0  0  0  0
    3.8640    3.8128    9.3848 H   0  0  0  0  0  0  0  0  0  0  0  0
    1.3770    5.6307    9.0952 H   0  0  0  0  0  0  0  0  0  0  0  0
    1.0446    4.1657    8.1102 H   0  0  0  0  0  0  0  0  0  0  0  0
    0.5493    2.1816   12.7809 H   0  0  0  0  0  0  0  0  0  0  0  0
    0.1247   -3.5458   15.5395 H   0  0  0  0  0  0  0  0  0  0  0  0
   -0.2248   -2.3999   16.8780 H   0  0  0  0  0  0  0  0  0  0  0  0
   -2.2125   -3.6634   16.2406 H   0  0  0  0  0  0  0  0  0  0  0  0
  1  2  1  0  0  0  0
  2  3  1  0  0  0  0
  3  4  1  0  0  0  0
  3 27  2  0  0  0  0
  4  5  2  0  0  0  0
  5  6  1  0  0  0  0
  6  7  2  0  0  0  0
  6 26  1  0  0  0  0
  7  8  1  0  0  0  0
  8  9  2  0  0  0  0
  8 16  1  0  0  0  0
  9 10  1  0  0  0  0
 10 11  2  0  0  0  0
 10 17  1  0  0  0  0
 11 12  1  0  0  0  0
 12 13  1  0  0  0  0
 12 16  1  0  0  0  0
 13 14  2  0  0  0  0
 14 15  1  0  0  0  0
 15 16  2  0  0  0  0
 17 18  2  0  0  0  0
 17 25  1  0  0  0  0
 18 19  1  0  0  0  0
 19 20  2  0  0  0  0
 20 21  1  0  0  0  0
 20 24  1  0  0  0  0
 21 22  1  0  0  0  0
 22 23  2  0  0  0  0
 23 24  1  0  0  0  0
 24 25  2  0  0  0  0
 26 27  1  0  0  0  0
  1 28  1  0  0  0  0
  1 29  1  0  0  0  0
  1 30  1  0  0  0  0
  4 31  1  0  0  0  0
  5 32  1  0  0  0  0
 11 33  1  0  0  0  0
 13 34  1  0  0  0  0
 14 35  1  0  0  0  0
 18 36  1  0  0  0  0
 19 37  1  0  0  0  0
 21 38  1  0  0  0  0
 21 39  1  0  0  0  0
 25 40  1  0  0  0  0
 26 41  1  0  0  0  0
 26 42  1  0  0  0  0
 27 43  1  0  0  0  0
M  END
> <IC50[nM]>
7

$$$$
CHEMBL3265029
  -OEChem-05192314333D
 Structure written by MMmdl.
 43 47  0     1  0  0  0  0  0999 V2000
   -4.2507   -3.1011   13.5632 C   0  0  0  0  0  0  0  0  0  0  0  0
   -3.8673   -2.3305   14.6902 O   0  0  0  0  0  0  0  0  0  0  0  0
   -2.5168   -2.0957   14.8067 C   0  0  0  0  0  0  0  0  0  0  0  0
   -1.9172   -1.0702   14.0633 C   0  0  0  0  0  0  0  0  0  0  0  0
   -0.5491   -0.8101   14.2065 C   0  0  0  0  0  0  0  0  0  0  0  0
    0.2199   -1.5870   15.0928 C   0  0  0  0  0  0  0  0  0  0  0  0
    1.6080   -1.3729   15.3230 N   0  0  0  0  0  0  0  0  0  0  0  0
    2.5324   -0.4358   14.7759 C   0  0  0  0  0  0  0  0  0  0  0  0
    2.1663    0.3860   13.7470 N   0  0  0  0  0  0  0  0  0  0  0  0
    3.0989    1.2355   13.2241 C   0  0  0  0  0  0  0  0  0  0  0  0
    4.4088    1.2797   13.7018 C   0  0  0  0  0  0  0  0  0  0  0  0
    4.7449    0.4891   14.7567 N   0  0  0  0  0  0  0  0  0  0  0  0
    5.8960    0.3776   15.4790 C   0  0  0  0  0  0  0  0  0  0  0  0
    5.5960   -0.5292   16.5069 C   0  0  0  0  0  0  0  0  0  0  0  0
    4.3874   -1.0583   16.3532 N   0  0  0  0  0  0  0  0  0  0  0  0
    3.8346   -0.3857   15.3305 C   0  0  0  0  0  0  0  0  0  0  0  0
    2.6263    2.1555   12.1187 C   0  0  0  0  0  0  0  0  0  0  0  0
    3.5439    2.6382   11.1639 C   0  0  0  0  0  0  0  0  0  0  0  0
    3.1468    3.4593   10.1107 C   0  0  0  0  0  0  0  0  0  0  0  0
    1.8029    3.8136   10.0160 C   0  0  3  0  0  0  0  0  0  0  0  0
    0.9932    4.6001    9.1195 C   0  0  0  0  0  0  0  0  0  0  0  0
   -0.2428    4.6141    9.5158 N   0  0  0  0  0  0  0  0  0  0  0  0
   -0.3351    3.8865   10.6250 N   0  0  0  0  0  0  0  0  0  0  0  0
    0.8815    3.3478   10.9920 C   0  0  0  0  0  0  0  0  0  0  0  0
    1.2640    2.5243   12.0473 C   0  0  0  0  0  0  0  0  0  0  0  0
   -0.3962   -2.6164   15.8132 C   0  0  0  0  0  0  0  0  0  0  0  0
   -1.7505   -2.8679   15.6748 C   0  0  0  0  0  0  0  0  0  0  0  0
   -5.3430   -3.2313   13.5618 H   0  0  0  0  0  0  0  0  0  0  0  0
   -3.9421   -2.5834   12.6430 H   0  0  0  0  0  0  0  0  0  0  0  0
   -3.7642   -4.0865   13.6103 H   0  0  0  0  0  0  0  0  0  0  0  0
   -2.5104   -0.4806   13.3800 H   0  0  0  0  0  0  0  0  0  0  0  0
   -0.0857   -0.0165   13.6391 H   0  0  0  0  0  0  0  0  0  0  0  0
    2.0098   -1.9963   15.9938 H   0  0  0  0  0  0  0  0  0  0  0  0
    5.1410    1.9281   13.2437 H   0  0  0  0  0  0  0  0  0  0  0  0
    6.8355    0.8789   15.2989 H   0  0  0  0  0  0  0  0  0  0  0  0
    6.2643   -0.7672   17.3213 H   0  0  0  0  0  0  0  0  0  0  0  0
    4.5848    2.3637   11.2512 H   0  0  0  0  0  0  0  0  0  0  0  0
    3.8640    3.8128    9.3848 H   0  0  0  0  0  0  0  0  0  0  0  0
    1.6096    2.9188    9.4061 H   0  0  0  0  0  0  0  0  0  0  0  0
    1.3633    5.1070    8.2406 H   0  0  0  0  0  0  0  0  0  0  0  0
    0.5493    2.1816   12.7809 H   0  0  0  0  0  0  0  0  0  0  0  0
    0.1925   -3.2225   16.4859 H   0  0  0  0  0  0  0  0  0  0  0  0
   -2.2125   -3.6634   16.2406 H   0  0  0  0  0  0  0  0  0  0  0  0
  1  2  1  0  0  0  0
  2  3  1  0  0  0  0
  3  4  2  0  0  0  0
  3 27  1  0  0  0  0
  4  5  1  0  0  0  0
  5  6  2  0  0  0  0
  6  7  1  0  0  0  0
  6 26  1  0  0  0  0
  7  8  1  0  0  0  0
  8  9  2  0  0  0  0
  8 16  1  0  0  0  0
  9 10  1  0  0  0  0
 10 11  2  0  0  0  0
 10 17  1  0  0  0  0
 11 12  1  0  0  0  0
 12 13  1  0  0  0  0
 12 16  1  0  0  0  0
 13 14  2  0  0  0  0
 14 15  1  0  0  0  0
 15 16  2  0  0  0  0
 17 18  1  0  0  0  0
 17 25  2  0  0  0  0
 18 19  2  0  0  0  0
 19 20  1  0  0  0  0
 20 21  1  0  0  0  0
 20 24  1  0  0  0  0
 21 22  2  0  0  0  0
 22 23  1  0  0  0  0
 23 24  2  0  0  0  0
 24 25  1  0  0  0  0
 26 27  2  0  0  0  0
  1 28  1  0  0  0  0
  1 29  1  0  0  0  0
  1 30  1  0  0  0  0
  4 31  1  0  0  0  0
  5 32  1  0  0  0  0
  7 33  1  0  0  0  0
 11 34  1  0  0  0  0
 13 35  1  0  0  0  0
 14 36  1  0  0  0  0
 18 37  1  0  0  0  0
 19 38  1  0  0  0  0
 20 39  1  0  0  0  0
 21 40  1  0  0  0  0
 25 41  1  0  0  0  0
 26 42  1  0  0  0  0
 27 43  1  0  0  0  0
M  END
> <IC50[nM]>
7

$$$$
CHEMBL3265029
  -OEChem-05192314333D
 Structure written by MMmdl.
 43 47  0     0  0  0  0  0  0999 V2000
   -4.2507   -3.1011   13.5632 C   0  0  0  0  0  0  0  0  0  0  0  0
   -3.8673   -2.3305   14.6902 O   0  0  0  0  0  0  0  0  0  0  0  0
   -2.5168   -2.0957   14.8067 C   0  0  0  0  0  0  0  0  0  0  0  0
   -1.9172   -1.0702   14.0633 C   0  0  0  0  0  0  0  0  0  0  0  0
   -0.5491   -0.8101   14.2065 C   0  0  0  0  0  0  0  0  0  0  0  0
    0.2199   -1.5870   15.0928 C   0  0  0  0  0  0  0  0  0  0  0  0
    1.6080   -1.3729   15.3230 N   0  0  0  0  0  0  0  0  0  0  0  0
    2.5324   -0.4358   14.7759 C   0  0  0  0  0  0  0  0  0  0  0  0
    2.1663    0.3860   13.7470 N   0  0  0  0  0  0  0  0  0  0  0  0
    3.0989    1.2355   13.2241 C   0  0  0  0  0  0  0  0  0  0  0  0
    4.4088    1.2797   13.7018 C   0  0  0  0  0  0  0  0  0  0  0  0
    4.7449    0.4891   14.7567 N   0  0  0  0  0  0  0  0  0  0  0  0
    5.8960    0.3776   15.4790 C   0  0  0  0  0  0  0  0  0  0  0  0
    5.5960   -0.5292   16.5069 C   0  0  0  0  0  0  0  0  0  0  0  0
    4.3874   -1.0583   16.3532 N   0  0  0  0  0  0  0  0  0  0  0  0
    3.8346   -0.3857   15.3305 C   0  0  0  0  0  0  0  0  0  0  0  0
    2.6263    2.1555   12.1187 C   0  0  0  0  0  0  0  0  0  0  0  0
    3.5439    2.6382   11.1639 C   0  0  0  0  0  0  0  0  0  0  0  0
    3.1468    3.4593   10.1107 C   0  0  0  0  0  0  0  0  0  0  0  0
    1.8029    3.8136   10.0160 C   0  0  0  0  0  0  0  0  0  0  0  0
    0.9932    4.6001    9.1195 C   0  0  0  0  0  0  0  0  0  0  0  0
   -0.2428    4.6141    9.5158 N   0  0  0  0  0  0  0  0  0  0  0  0
   -0.3351    3.8865   10.6250 N   0  0  0  0  0  0  0  0  0  0  0  0
    0.8815    3.3478   10.9920 C   0  0  0  0  0  0  0  0  0  0  0  0
    1.2640    2.5243   12.0473 C   0  0  0  0  0  0  0  0  0  0  0  0
   -0.3962   -2.6164   15.8132 C   0  0  0  0  0  0  0  0  0  0  0  0
   -1.7505   -2.8679   15.6748 C   0  0  0  0  0  0  0  0  0  0  0  0
   -5.3430   -3.2313   13.5618 H   0  0  0  0  0  0  0  0  0  0  0  0
   -3.9421   -2.5834   12.6430 H   0  0  0  0  0  0  0  0  0  0  0  0
   -3.7642   -4.0865   13.6103 H   0  0  0  0  0  0  0  0  0  0  0  0
   -2.5104   -0.4806   13.3800 H   0  0  0  0  0  0  0  0  0  0  0  0
   -0.0857   -0.0165   13.6391 H   0  0  0  0  0  0  0  0  0  0  0  0
    2.0098   -1.9963   15.9938 H   0  0  0  0  0  0  0  0  0  0  0  0
    5.1410    1.9281   13.2437 H   0  0  0  0  0  0  0  0  0  0  0  0
    6.8355    0.8789   15.2989 H   0  0  0  0  0  0  0  0  0  0  0  0
    6.2643   -0.7672   17.3213 H   0  0  0  0  0  0  0  0  0  0  0  0
    4.3044    3.2016   11.7244 H   0  0  0  0  0  0  0  0  0  0  0  0
    4.0075    1.7519   10.7061 H   0  0  0  0  0  0  0  0  0  0  0  0
    3.8640    3.8128    9.3848 H   0  0  0  0  0  0  0  0  0  0  0  0
    1.3633    5.1070    8.2406 H   0  0  0  0  0  0  0  0  0  0  0  0
    0.5493    2.1816   12.7809 H   0  0  0  0  0  0  0  0  0  0  0  0
    0.1925   -3.2225   16.4859 H   0  0  0  0  0  0  0  0  0  0  0  0
   -2.2125   -3.6634   16.2406 H   0  0  0  0  0  0  0  0  0  0  0  0
  1  2  1  0  0  0  0
  2  3  1  0  0  0  0
  3  4  2  0  0  0  0
  3 27  1  0  0  0  0
  4  5  1  0  0  0  0
  5  6  2  0  0  0  0
  6  7  1  0  0  0  0
  6 26  1  0  0  0  0
  7  8  1  0  0  0  0
  8  9  2  0  0  0  0
  8 16  1  0  0  0  0
  9 10  1  0  0  0  0
 10 11  2  0  0  0  0
 10 17  1  0  0  0  0
 11 12  1  0  0  0  0
 12 13  1  0  0  0  0
 12 16  1  0  0  0  0
 13 14  2  0  0  0  0
 14 15  1  0  0  0  0
 15 16  2  0  0  0  0
 17 18  1  0  0  0  0
 17 25  2  0  0  0  0
 18 19  1  0  0  0  0
 19 20  2  0  0  0  0
 20 21  1  0  0  0  0
 20 24  1  0  0  0  0
 21 22  2  0  0  0  0
 22 23  1  0  0  0  0
 23 24  2  0  0  0  0
 24 25  1  0  0  0  0
 26 27  2  0  0  0  0
  1 28  1  0  0  0  0
  1 29  1  0  0  0  0
  1 30  1  0  0  0  0
  4 31  1  0  0  0  0
  5 32  1  0  0  0  0
  7 33  1  0  0  0  0
 11 34  1  0  0  0  0
 13 35  1  0  0  0  0
 14 36  1  0  0  0  0
 18 37  1  0  0  0  0
 18 38  1  0  0  0  0
 19 39  1  0  0  0  0
 21 40  1  0  0  0  0
 25 41  1  0  0  0  0
 26 42  1  0  0  0  0
 27 43  1  0  0  0  0
M  END
> <IC50[nM]>
7

$$$$
CHEMBL3265029
  -OEChem-05192314333D
 Structure written by MMmdl.
 43 47  0     0  0  0  0  0  0999 V2000
   -4.2507   -3.1011   13.5632 C   0  0  0  0  0  0  0  0  0  0  0  0
   -3.8673   -2.3305   14.6902 O   0  0  0  0  0  0  0  0  0  0  0  0
   -2.5168   -2.0957   14.8067 C   0  0  0  0  0  0  0  0  0  0  0  0
   -1.9172   -1.0702   14.0633 C   0  0  0  0  0  0  0  0  0  0  0  0
   -0.5491   -0.8101   14.2065 C   0  0  0  0  0  0  0  0  0  0  0  0
    0.2199   -1.5870   15.0928 C   0  0  0  0  0  0  0  0  0  0  0  0
    1.6080   -1.3729   15.3230 N   0  0  0  0  0  0  0  0  0  0  0  0
    2.5324   -0.4358   14.7759 C   0  0  0  0  0  0  0  0  0  0  0  0
    2.1663    0.3860   13.7470 N   0  0  0  0  0  0  0  0  0  0  0  0
    3.0989    1.2355   13.2241 C   0  0  0  0  0  0  0  0  0  0  0  0
    4.4088    1.2797   13.7018 C   0  0  0  0  0  0  0  0  0  0  0  0
    4.7449    0.4891   14.7567 N   0  0  0  0  0  0  0  0  0  0  0  0
    5.8960    0.3776   15.4790 C   0  0  0  0  0  0  0  0  0  0  0  0
    5.5960   -0.5292   16.5069 C   0  0  0  0  0  0  0  0  0  0  0  0
    4.3874   -1.0583   16.3532 N   0  0  0  0  0  0  0  0  0  0  0  0
    3.8346   -0.3857   15.3305 C   0  0  0  0  0  0  0  0  0  0  0  0
    2.6263    2.1555   12.1187 C   0  0  0  0  0  0  0  0  0  0  0  0
    3.5439    2.6382   11.1639 C   0  0  0  0  0  0  0  0  0  0  0  0
    3.1468    3.4593   10.1107 C   0  0  0  0  0  0  0  0  0  0  0  0
    1.8029    3.8136   10.0160 C   0  0  0  0  0  0  0  0  0  0  0  0
    0.9932    4.6001    9.1195 C   0  0  0  0  0  0  0  0  0  0  0  0
   -0.2428    4.6141    9.5158 N   0  0  0  0  0  0  0  0  0  0  0  0
   -0.3351    3.8865   10.6250 N   0  0  0  0  0  0  0  0  0  0  0  0
    0.8815    3.3478   10.9920 C   0  0  0  0  0  0  0  0  0  0  0  0
    1.2640    2.5243   12.0473 C   0  0  0  0  0  0  0  0  0  0  0  0
   -0.3962   -2.6164   15.8132 C   0  0  0  0  0  0  0  0  0  0  0  0
   -1.7505   -2.8679   15.6748 C   0  0  0  0  0  0  0  0  0  0  0  0
   -5.3430   -3.2313   13.5618 H   0  0  0  0  0  0  0  0  0  0  0  0
   -3.9421   -2.5834   12.6430 H   0  0  0  0  0  0  0  0  0  0  0  0
   -3.7642   -4.0865   13.6103 H   0  0  0  0  0  0  0  0  0  0  0  0
   -2.5104   -0.4806   13.3800 H   0  0  0  0  0  0  0  0  0  0  0  0
   -0.0857   -0.0165   13.6391 H   0  0  0  0  0  0  0  0  0  0  0  0
    2.0098   -1.9963   15.9938 H   0  0  0  0  0  0  0  0  0  0  0  0
    5.1410    1.9281   13.2437 H   0  0  0  0  0  0  0  0  0  0  0  0
    6.8355    0.8789   15.2989 H   0  0  0  0  0  0  0  0  0  0  0  0
    6.2643   -0.7672   17.3213 H   0  0  0  0  0  0  0  0  0  0  0  0
    4.5848    2.3637   11.2512 H   0  0  0  0  0  0  0  0  0  0  0  0
    3.8640    3.8128    9.3848 H   0  0  0  0  0  0  0  0  0  0  0  0
    1.3633    5.1070    8.2406 H   0  0  0  0  0  0  0  0  0  0  0  0
    0.6741    1.5987   11.9751 H   0  0  0  0  0  0  0  0  0  0  0  0
    1.0134    3.0469   12.9822 H   0  0  0  0  0  0  0  0  0  0  0  0
    0.1925   -3.2225   16.4859 H   0  0  0  0  0  0  0  0  0  0  0  0
   -2.2125   -3.6634   16.2406 H   0  0  0  0  0  0  0  0  0  0  0  0
  1  2  1  0  0  0  0
  2  3  1  0  0  0  0
  3  4  2  0  0  0  0
  3 27  1  0  0  0  0
  4  5  1  0  0  0  0
  5  6  2  0  0  0  0
  6  7  1  0  0  0  0
  6 26  1  0  0  0  0
  7  8  1  0  0  0  0
  8  9  2  0  0  0  0
  8 16  1  0  0  0  0
  9 10  1  0  0  0  0
 10 11  2  0  0  0  0
 10 17  1  0  0  0  0
 11 12  1  0  0  0  0
 12 13  1  0  0  0  0
 12 16  1  0  0  0  0
 13 14  2  0  0  0  0
 14 15  1  0  0  0  0
 15 16  2  0  0  0  0
 17 18  2  0  0  0  0
 17 25  1  0  0  0  0
 18 19  1  0  0  0  0
 19 20  2  0  0  0  0
 20 21  1  0  0  0  0
 20 24  1  0  0  0  0
 21 22  2  0  0  0  0
 22 23  1  0  0  0  0
 23 24  2  0  0  0  0
 24 25  1  0  0  0  0
 26 27  2  0  0  0  0
  1 28  1  0  0  0  0
  1 29  1  0  0  0  0
  1 30  1  0  0  0  0
  4 31  1  0  0  0  0
  5 32  1  0  0  0  0
  7 33  1  0  0  0  0
 11 34  1  0  0  0  0
 13 35  1  0  0  0  0
 14 36  1  0  0  0  0
 18 37  1  0  0  0  0
 19 38  1  0  0  0  0
 21 39  1  0  0  0  0
 25 40  1  0  0  0  0
 25 41  1  0  0  0  0
 26 42  1  0  0  0  0
 27 43  1  0  0  0  0
M  END
> <IC50[nM]>
7

$$$$
CHEMBL3265029
  -OEChem-05192314333D
 Structure written by MMmdl.
 43 47  0     1  0  0  0  0  0999 V2000
   -4.2507   -3.1011   13.5632 C   0  0  0  0  0  0  0  0  0  0  0  0
   -3.8673   -2.3305   14.6902 O   0  0  0  0  0  0  0  0  0  0  0  0
   -2.5168   -2.0957   14.8067 C   0  0  0  0  0  0  0  0  0  0  0  0
   -1.9172   -1.0702   14.0633 C   0  0  0  0  0  0  0  0  0  0  0  0
   -0.5491   -0.8101   14.2065 C   0  0  0  0  0  0  0  0  0  0  0  0
    0.2199   -1.5870   15.0928 C   0  0  0  0  0  0  0  0  0  0  0  0
    1.6080   -1.3729   15.3230 N   0  0  0  0  0  0  0  0  0  0  0  0
    2.5324   -0.4358   14.7759 C   0  0  0  0  0  0  0  0  0  0  0  0
    2.1663    0.3860   13.7470 N   0  0  0  0  0  0  0  0  0  0  0  0
    3.0989    1.2355   13.2241 C   0  0  0  0  0  0  0  0  0  0  0  0
    4.4088    1.2797   13.7018 C   0  0  0  0  0  0  0  0  0  0  0  0
    4.7449    0.4891   14.7567 N   0  0  0  0  0  0  0  0  0  0  0  0
    5.8960    0.3776   15.4790 C   0  0  0  0  0  0  0  0  0  0  0  0
    5.5960   -0.5292   16.5069 C   0  0  0  0  0  0  0  0  0  0  0  0
    4.3874   -1.0583   16.3532 N   0  0  0  0  0  0  0  0  0  0  0  0
    3.8346   -0.3857   15.3305 C   0  0  0  0  0  0  0  0  0  0  0  0
    2.6263    2.1555   12.1187 C   0  0  3  0  0  0  0  0  0  0  0  0
    3.5439    2.6382   11.1639 C   0  0  0  0  0  0  0  0  0  0  0  0
    3.1468    3.4593   10.1107 C   0  0  0  0  0  0  0  0  0  0  0  0
    1.8029    3.8136   10.0160 C   0  0  0  0  0  0  0  0  0  0  0  0
    0.9932    4.6001    9.1195 C   0  0  0  0  0  0  0  0  0  0  0  0
   -0.2428    4.6141    9.5158 N   0  0  0  0  0  0  0  0  0  0  0  0
   -0.3351    3.8865   10.6250 N   0  0  0  0  0  0  0  0  0  0  0  0
    0.8815    3.3478   10.9920 C   0  0  0  0  0  0  0  0  0  0  0  0
    1.2640    2.5243   12.0473 C   0  0  0  0  0  0  0  0  0  0  0  0
   -0.3962   -2.6164   15.8132 C   0  0  0  0  0  0  0  0  0  0  0  0
   -1.7505   -2.8679   15.6748 C   0  0  0  0  0  0  0  0  0  0  0  0
   -5.3430   -3.2313   13.5618 H   0  0  0  0  0  0  0  0  0  0  0  0
   -3.9421   -2.5834   12.6430 H   0  0  0  0  0  0  0  0  0  0  0  0
   -3.7642   -4.0865   13.6103 H   0  0  0  0  0  0  0  0  0  0  0  0
   -2.5104   -0.4806   13.3800 H   0  0  0  0  0  0  0  0  0  0  0  0
   -0.0857   -0.0165   13.6391 H   0  0  0  0  0  0  0  0  0  0  0  0
    2.0098   -1.9963   15.9938 H   0  0  0  0  0  0  0  0  0  0  0  0
    5.1410    1.9281   13.2437 H   0  0  0  0  0  0  0  0  0  0  0  0
    6.8355    0.8789   15.2989 H   0  0  0  0  0  0  0  0  0  0  0  0
    6.2643   -0.7672   17.3213 H   0  0  0  0  0  0  0  0  0  0  0  0
    2.8299    3.0281   12.7568 H   0  0  0  0  0  0  0  0  0  0  0  0
    4.5848    2.3637   11.2512 H   0  0  0  0  0  0  0  0  0  0  0  0
    3.8640    3.8128    9.3848 H   0  0  0  0  0  0  0  0  0  0  0  0
    1.3633    5.1070    8.2406 H   0  0  0  0  0  0  0  0  0  0  0  0
    0.5493    2.1816   12.7809 H   0  0  0  0  0  0  0  0  0  0  0  0
    0.1925   -3.2225   16.4859 H   0  0  0  0  0  0  0  0  0  0  0  0
   -2.2125   -3.6634   16.2406 H   0  0  0  0  0  0  0  0  0  0  0  0
  1  2  1  0  0  0  0
  2  3  1  0  0  0  0
  3  4  2  0  0  0  0
  3 27  1  0  0  0  0
  4  5  1  0  0  0  0
  5  6  2  0  0  0  0
  6  7  1  0  0  0  0
  6 26  1  0  0  0  0
  7  8  1  0  0  0  0
  8  9  2  0  0  0  0
  8 16  1  0  0  0  0
  9 10  1  0  0  0  0
 10 11  2  0  0  0  0
 10 17  1  0  0  0  0
 11 12  1  0  0  0  0
 12 13  1  0  0  0  0
 12 16  1  0  0  0  0
 13 14  2  0  0  0  0
 14 15  1  0  0  0  0
 15 16  2  0  0  0  0
 17 18  1  0  0  0  0
 17 25  1  0  0  0  0
 18 19  2  0  0  0  0
 19 20  1  0  0  0  0
 20 21  2  0  0  0  0
 20 24  1  0  0  0  0
 21 22  1  0  0  0  0
 22 23  2  0  0  0  0
 23 24  1  0  0  0  0
 24 25  2  0  0  0  0
 26 27  2  0  0  0  0
  1 28  1  0  0  0  0
  1 29  1  0  0  0  0
  1 30  1  0  0  0  0
  4 31  1  0  0  0  0
  5 32  1  0  0  0  0
  7 33  1  0  0  0  0
 11 34  1  0  0  0  0
 13 35  1  0  0  0  0
 14 36  1  0  0  0  0
 17 37  1  0  0  0  0
 18 38  1  0  0  0  0
 19 39  1  0  0  0  0
 21 40  1  0  0  0  0
 25 41  1  0  0  0  0
 26 42  1  0  0  0  0
 27 43  1  0  0  0  0
M  END
> <IC50[nM]>
7

$$$$
CHEMBL3265029
  -OEChem-05192314333D
 Structure written by MMmdl.
 43 47  0     1  0  0  0  0  0999 V2000
   -4.2507   -3.1011   13.5632 C   0  0  0  0  0  0  0  0  0  0  0  0
   -3.8673   -2.3305   14.6902 O   0  0  0  0  0  0  0  0  0  0  0  0
   -2.5168   -2.0957   14.8067 C   0  0  0  0  0  0  0  0  0  0  0  0
   -1.9172   -1.0702   14.0633 C   0  0  0  0  0  0  0  0  0  0  0  0
   -0.5491   -0.8101   14.2065 C   0  0  0  0  0  0  0  0  0  0  0  0
    0.2199   -1.5870   15.0928 C   0  0  0  0  0  0  0  0  0  0  0  0
    1.6080   -1.3729   15.3230 N   0  0  0  0  0  0  0  0  0  0  0  0
    2.5324   -0.4358   14.7759 C   0  0  0  0  0  0  0  0  0  0  0  0
    2.1663    0.3860   13.7470 N   0  0  0  0  0  0  0  0  0  0  0  0
    3.0989    1.2355   13.2241 C   0  0  0  0  0  0  0  0  0  0  0  0
    4.4088    1.2797   13.7018 C   0  0  0  0  0  0  0  0  0  0  0  0
    4.7449    0.4891   14.7567 N   0  0  0  0  0  0  0  0  0  0  0  0
    5.8960    0.3776   15.4790 C   0  0  0  0  0  0  0  0  0  0  0  0
    5.5960   -0.5292   16.5069 C   0  0  0  0  0  0  0  0  0  0  0  0
    4.3874   -1.0583   16.3532 N   0  0  0  0  0  0  0  0  0  0  0  0
    3.8346   -0.3857   15.3305 C   0  0  0  0  0  0  0  0  0  0  0  0
    2.6263    2.1555   12.1187 C   0  0  0  0  0  0  0  0  0  0  0  0
    3.5439    2.6382   11.1639 C   0  0  0  0  0  0  0  0  0  0  0  0
    3.1468    3.4593   10.1107 C   0  0  0  0  0  0  0  0  0  0  0  0
    1.8029    3.8136   10.0160 C   0  0  0  0  0  0  0  0  0  0  0  0
    0.9932    4.6001    9.1195 C   0  0  0  0  0  0  0  0  0  0  0  0
   -0.2428    4.6141    9.5158 N   0  0  0  0  0  0  0  0  0  0  0  0
   -0.3351    3.8865   10.6250 N   0  0  0  0  0  0  0  0  0  0  0  0
    0.8815    3.3478   10.9920 C   0  0  3  0  0  0  0  0  0  0  0  0
    1.2640    2.5243   12.0473 C   0  0  0  0  0  0  0  0  0  0  0  0
   -0.3962   -2.6164   15.8132 C   0  0  0  0  0  0  0  0  0  0  0  0
   -1.7505   -2.8679   15.6748 C   0  0  0  0  0  0  0  0  0  0  0  0
   -5.3430   -3.2313   13.5618 H   0  0  0  0  0  0  0  0  0  0  0  0
   -3.9421   -2.5834   12.6430 H   0  0  0  0  0  0  0  0  0  0  0  0
   -3.7642   -4.0865   13.6103 H   0  0  0  0  0  0  0  0  0  0  0  0
   -2.5104   -0.4806   13.3800 H   0  0  0  0  0  0  0  0  0  0  0  0
   -0.0857   -0.0165   13.6391 H   0  0  0  0  0  0  0  0  0  0  0  0
    2.0098   -1.9963   15.9938 H   0  0  0  0  0  0  0  0  0  0  0  0
    5.1410    1.9281   13.2437 H   0  0  0  0  0  0  0  0  0  0  0  0
    6.8355    0.8789   15.2989 H   0  0  0  0  0  0  0  0  0  0  0  0
    6.2643   -0.7672   17.3213 H   0  0  0  0  0  0  0  0  0  0  0  0
    4.5848    2.3637   11.2512 H   0  0  0  0  0  0  0  0  0  0  0  0
    3.8640    3.8128    9.3848 H   0  0  0  0  0  0  0  0  0  0  0  0
    1.3633    5.1070    8.2406 H   0  0  0  0  0  0  0  0  0  0  0  0
    0.6754    2.4611   10.3745 H   0  0  0  0  0  0  0  0  0  0  0  0
    0.5493    2.1816   12.7809 H   0  0  0  0  0  0  0  0  0  0  0  0
    0.1925   -3.2225   16.4859 H   0  0  0  0  0  0  0  0  0  0  0  0
   -2.2125   -3.6634   16.2406 H   0  0  0  0  0  0  0  0  0  0  0  0
  1  2  1  0  0  0  0
  2  3  1  0  0  0  0
  3  4  2  0  0  0  0
  3 27  1  0  0  0  0
  4  5  1  0  0  0  0
  5  6  2  0  0  0  0
  6  7  1  0  0  0  0
  6 26  1  0  0  0  0
  7  8  1  0  0  0  0
  8  9  2  0  0  0  0
  8 16  1  0  0  0  0
  9 10  1  0  0  0  0
 10 11  2  0  0  0  0
 10 17  1  0  0  0  0
 11 12  1  0  0  0  0
 12 13  1  0  0  0  0
 12 16  1  0  0  0  0
 13 14  2  0  0  0  0
 14 15  1  0  0  0  0
 15 16  2  0  0  0  0
 17 18  1  0  0  0  0
 17 25  2  0  0  0  0
 18 19  2  0  0  0  0
 19 20  1  0  0  0  0
 20 21  2  0  0  0  0
 20 24  1  0  0  0  0
 21 22  1  0  0  0  0
 22 23  2  0  0  0  0
 23 24  1  0  0  0  0
 24 25  1  0  0  0  0
 26 27  2  0  0  0  0
  1 28  1  0  0  0  0
  1 29  1  0  0  0  0
  1 30  1  0  0  0  0
  4 31  1  0  0  0  0
  5 32  1  0  0  0  0
  7 33  1  0  0  0  0
 11 34  1  0  0  0  0
 13 35  1  0  0  0  0
 14 36  1  0  0  0  0
 18 37  1  0  0  0  0
 19 38  1  0  0  0  0
 21 39  1  0  0  0  0
 24 40  1  0  0  0  0
 25 41  1  0  0  0  0
 26 42  1  0  0  0  0
 27 43  1  0  0  0  0
M  END
> <IC50[nM]>
7

$$$$
CHEMBL3265029
  -OEChem-05192314333D
 Structure written by MMmdl.
 43 47  0     0  0  0  0  0  0999 V2000
   -4.2507   -3.1011   13.5632 C   0  0  0  0  0  0  0  0  0  0  0  0
   -3.8673   -2.3305   14.6902 O   0  0  0  0  0  0  0  0  0  0  0  0
   -2.5168   -2.0957   14.8067 C   0  0  0  0  0  0  0  0  0  0  0  0
   -1.9172   -1.0702   14.0633 C   0  0  0  0  0  0  0  0  0  0  0  0
   -0.5491   -0.8101   14.2065 C   0  0  0  0  0  0  0  0  0  0  0  0
    0.2199   -1.5870   15.0928 C   0  0  0  0  0  0  0  0  0  0  0  0
    1.6080   -1.3729   15.3230 N   0  0  0  0  0  0  0  0  0  0  0  0
    2.5324   -0.4358   14.7759 C   0  0  0  0  0  0  0  0  0  0  0  0
    2.1663    0.3860   13.7470 N   0  0  0  0  0  0  0  0  0  0  0  0
    3.0989    1.2355   13.2241 C   0  0  0  0  0  0  0  0  0  0  0  0
    4.4088    1.2797   13.7018 C   0  0  0  0  0  0  0  0  0  0  0  0
    4.7449    0.4891   14.7567 N   0  0  0  0  0  0  0  0  0  0  0  0
    5.8960    0.3776   15.4790 C   0  0  0  0  0  0  0  0  0  0  0  0
    5.5960   -0.5292   16.5069 C   0  0  0  0  0  0  0  0  0  0  0  0
    4.3874   -1.0583   16.3532 N   0  0  0  0  0  0  0  0  0  0  0  0
    3.8346   -0.3857   15.3305 C   0  0  0  0  0  0  0  0  0  0  0  0
    2.6263    2.1555   12.1187 C   0  0  0  0  0  0  0  0  0  0  0  0
    3.5439    2.6382   11.1639 C   0  0  0  0  0  0  0  0  0  0  0  0
    3.1468    3.4593   10.1107 C   0  0  0  0  0  0  0  0  0  0  0  0
    1.8029    3.8136   10.0160 C   0  0  0  0  0  0  0  0  0  0  0  0
    0.9932    4.6001    9.1195 C   0  0  0  0  0  0  0  0  0  0  0  0
   -0.2428    4.6141    9.5158 N   0  0  0  0  0  0  0  0  0  0  0  0
   -0.3351    3.8865   10.6250 N   0  0  0  0  0  0  0  0  0  0  0  0
    0.8815    3.3478   10.9920 C   0  0  0  0  0  0  0  0  0  0  0  0
    1.2640    2.5243   12.0473 C   0  0  0  0  0  0  0  0  0  0  0  0
   -0.3962   -2.6164   15.8132 C   0  0  0  0  0  0  0  0  0  0  0  0
   -1.7505   -2.8679   15.6748 C   0  0  0  0  0  0  0  0  0  0  0  0
   -5.3430   -3.2313   13.5618 H   0  0  0  0  0  0  0  0  0  0  0  0
   -3.9421   -2.5834   12.6430 H   0  0  0  0  0  0  0  0  0  0  0  0
   -3.7642   -4.0865   13.6103 H   0  0  0  0  0  0  0  0  0  0  0  0
   -2.5104   -0.4806   13.3800 H   0  0  0  0  0  0  0  0  0  0  0  0
   -0.0857   -0.0165   13.6391 H   0  0  0  0  0  0  0  0  0  0  0  0
    2.0098   -1.9963   15.9938 H   0  0  0  0  0  0  0  0  0  0  0  0
    5.1410    1.9281   13.2437 H   0  0  0  0  0  0  0  0  0  0  0  0
    6.8355    0.8789   15.2989 H   0  0  0  0  0  0  0  0  0  0  0  0
    6.2643   -0.7672   17.3213 H   0  0  0  0  0  0  0  0  0  0  0  0
    4.5848    2.3637   11.2512 H   0  0  0  0  0  0  0  0  0  0  0  0
    3.7240    4.3923   10.1905 H   0  0  0  0  0  0  0  0  0  0  0  0
    3.4131    2.9421    9.1771 H   0  0  0  0  0  0  0  0  0  0  0  0
    1.3633    5.1070    8.2406 H   0  0  0  0  0  0  0  0  0  0  0  0
    0.5493    2.1816   12.7809 H   0  0  0  0  0  0  0  0  0  0  0  0
    0.1925   -3.2225   16.4859 H   0  0  0  0  0  0  0  0  0  0  0  0
   -2.2125   -3.6634   16.2406 H   0  0  0  0  0  0  0  0  0  0  0  0
  1  2  1  0  0  0  0
  2  3  1  0  0  0  0
  3  4  2  0  0  0  0
  3 27  1  0  0  0  0
  4  5  1  0  0  0  0
  5  6  2  0  0  0  0
  6  7  1  0  0  0  0
  6 26  1  0  0  0  0
  7  8  1  0  0  0  0
  8  9  2  0  0  0  0
  8 16  1  0  0  0  0
  9 10  1  0  0  0  0
 10 11  2  0  0  0  0
 10 17  1  0  0  0  0
 11 12  1  0  0  0  0
 12 13  1  0  0  0  0
 12 16  1  0  0  0  0
 13 14  2  0  0  0  0
 14 15  1  0  0  0  0
 15 16  2  0  0  0  0
 17 18  2  0  0  0  0
 17 25  1  0  0  0  0
 18 19  1  0  0  0  0
 19 20  1  0  0  0  0
 20 21  2  0  0  0  0
 20 24  1  0  0  0  0
 21 22  1  0  0  0  0
 22 23  2  0  0  0  0
 23 24  1  0  0  0  0
 24 25  2  0  0  0  0
 26 27  2  0  0  0  0
  1 28  1  0  0  0  0
  1 29  1  0  0  0  0
  1 30  1  0  0  0  0
  4 31  1  0  0  0  0
  5 32  1  0  0  0  0
  7 33  1  0  0  0  0
 11 34  1  0  0  0  0
 13 35  1  0  0  0  0
 14 36  1  0  0  0  0
 18 37  1  0  0  0  0
 19 38  1  0  0  0  0
 19 39  1  0  0  0  0
 21 40  1  0  0  0  0
 25 41  1  0  0  0  0
 26 42  1  0  0  0  0
 27 43  1  0  0  0  0
M  END
> <IC50[nM]>
7

$$$$
CHEMBL3265029
  -OEChem-05192314333D
 Structure written by MMmdl.
 43 47  0     1  0  0  0  0  0999 V2000
   -4.2507   -3.1011   13.5632 C   0  0  0  0  0  0  0  0  0  0  0  0
   -3.8673   -2.3305   14.6902 O   0  0  0  0  0  0  0  0  0  0  0  0
   -2.5168   -2.0957   14.8067 C   0  0  0  0  0  0  0  0  0  0  0  0
   -1.9172   -1.0702   14.0633 C   0  0  0  0  0  0  0  0  0  0  0  0
   -0.5491   -0.8101   14.2065 C   0  0  0  0  0  0  0  0  0  0  0  0
    0.2199   -1.5870   15.0928 C   0  0  0  0  0  0  0  0  0  0  0  0
    1.6080   -1.3729   15.3230 N   0  0  0  0  0  0  0  0  0  0  0  0
    2.5324   -0.4358   14.7759 C   0  0  0  0  0  0  0  0  0  0  0  0
    2.1663    0.3860   13.7470 N   0  0  0  0  0  0  0  0  0  0  0  0
    3.0989    1.2355   13.2241 C   0  0  0  0  0  0  0  0  0  0  0  0
    4.4088    1.2797   13.7018 C   0  0  0  0  0  0  0  0  0  0  0  0
    4.7449    0.4891   14.7567 N   0  0  0  0  0  0  0  0  0  0  0  0
    5.8960    0.3776   15.4790 C   0  0  0  0  0  0  0  0  0  0  0  0
    5.5960   -0.5292   16.5069 C   0  0  0  0  0  0  0  0  0  0  0  0
    4.3874   -1.0583   16.3532 N   0  0  0  0  0  0  0  0  0  0  0  0
    3.8346   -0.3857   15.3305 C   0  0  0  0  0  0  0  0  0  0  0  0
    2.6263    2.1555   12.1187 C   0  0  0  0  0  0  0  0  0  0  0  0
    3.5439    2.6382   11.1639 C   0  0  0  0  0  0  0  0  0  0  0  0
    3.1468    3.4593   10.1107 C   0  0  0  0  0  0  0  0  0  0  0  0
    1.8029    3.8136   10.0160 C   0  0  3  0  0  0  0  0  0  0  0  0
    0.9932    4.6001    9.1195 C   0  0  0  0  0  0  0  0  0  0  0  0
   -0.2428    4.6141    9.5158 N   0  0  0  0  0  0  0  0  0  0  0  0
   -0.3351    3.8865   10.6250 N   0  0  0  0  0  0  0  0  0  0  0  0
    0.8815    3.3478   10.9920 C   0  0  0  0  0  0  0  0  0  0  0  0
    1.2640    2.5243   12.0473 C   0  0  0  0  0  0  0  0  0  0  0  0
   -0.3962   -2.6164   15.8132 C   0  0  0  0  0  0  0  0  0  0  0  0
   -1.7505   -2.8679   15.6748 C   0  0  0  0  0  0  0  0  0  0  0  0
   -5.3430   -3.2313   13.5618 H   0  0  0  0  0  0  0  0  0  0  0  0
   -3.9421   -2.5834   12.6430 H   0  0  0  0  0  0  0  0  0  0  0  0
   -3.7642   -4.0865   13.6103 H   0  0  0  0  0  0  0  0  0  0  0  0
   -2.5104   -0.4806   13.3800 H   0  0  0  0  0  0  0  0  0  0  0  0
   -0.0857   -0.0165   13.6391 H   0  0  0  0  0  0  0  0  0  0  0  0
    1.2345    0.3656   13.3845 H   0  0  0  0  0  0  0  0  0  0  0  0
    5.1410    1.9281   13.2437 H   0  0  0  0  0  0  0  0  0  0  0  0
    6.8355    0.8789   15.2989 H   0  0  0  0  0  0  0  0  0  0  0  0
    6.2643   -0.7672   17.3213 H   0  0  0  0  0  0  0  0  0  0  0  0
    4.5848    2.3637   11.2512 H   0  0  0  0  0  0  0  0  0  0  0  0
    3.8640    3.8128    9.3848 H   0  0  0  0  0  0  0  0  0  0  0  0
    1.6096    2.9188    9.4061 H   0  0  0  0  0  0  0  0  0  0  0  0
    1.3633    5.1070    8.2406 H   0  0  0  0  0  0  0  0  0  0  0  0
    0.5493    2.1816   12.7809 H   0  0  0  0  0  0  0  0  0  0  0  0
    0.1925   -3.2225   16.4859 H   0  0  0  0  0  0  0  0  0  0  0  0
   -2.2125   -3.6634   16.2406 H   0  0  0  0  0  0  0  0  0  0  0  0
  1  2  1  0  0  0  0
  2  3  1  0  0  0  0
  3  4  2  0  0  0  0
  3 27  1  0  0  0  0
  4  5  1  0  0  0  0
  5  6  2  0  0  0  0
  6  7  1  0  0  0  0
  6 26  1  0  0  0  0
  7  8  2  0  0  0  0
  8  9  1  0  0  0  0
  8 16  1  0  0  0  0
  9 10  1  0  0  0  0
 10 11  2  0  0  0  0
 10 17  1  0  0  0  0
 11 12  1  0  0  0  0
 12 13  1  0  0  0  0
 12 16  1  0  0  0  0
 13 14  2  0  0  0  0
 14 15  1  0  0  0  0
 15 16  2  0  0  0  0
 17 18  1  0  0  0  0
 17 25  2  0  0  0  0
 18 19  2  0  0  0  0
 19 20  1  0  0  0  0
 20 21  1  0  0  0  0
 20 24  1  0  0  0  0
 21 22  2  0  0  0  0
 22 23  1  0  0  0  0
 23 24  2  0  0  0  0
 24 25  1  0  0  0  0
 26 27  2  0  0  0  0
  1 28  1  0  0  0  0
  1 29  1  0  0  0  0
  1 30  1  0  0  0  0
  4 31  1  0  0  0  0
  5 32  1  0  0  0  0
  9 33  1  0  0  0  0
 11 34  1  0  0  0  0
 13 35  1  0  0  0  0
 14 36  1  0  0  0  0
 18 37  1  0  0  0  0
 19 38  1  0  0  0  0
 20 39  1  0  0  0  0
 21 40  1  0  0  0  0
 25 41  1  0  0  0  0
 26 42  1  0  0  0  0
 27 43  1  0  0  0  0
M  END
> <IC50[nM]>
7

$$$$
CHEMBL3265029
  -OEChem-05192314333D
 Structure written by MMmdl.
 43 47  0     0  0  0  0  0  0999 V2000
   -4.2507   -3.1011   13.5632 C   0  0  0  0  0  0  0  0  0  0  0  0
   -3.8673   -2.3305   14.6902 O   0  0  0  0  0  0  0  0  0  0  0  0
   -2.5168   -2.0957   14.8067 C   0  0  0  0  0  0  0  0  0  0  0  0
   -1.9172   -1.0702   14.0633 C   0  0  0  0  0  0  0  0  0  0  0  0
   -0.5491   -0.8101   14.2065 C   0  0  0  0  0  0  0  0  0  0  0  0
    0.2199   -1.5870   15.0928 C   0  0  0  0  0  0  0  0  0  0  0  0
    1.6080   -1.3729   15.3230 N   0  0  0  0  0  0  0  0  0  0  0  0
    2.5324   -0.4358   14.7759 C   0  0  0  0  0  0  0  0  0  0  0  0
    2.1663    0.3860   13.7470 N   0  0  0  0  0  0  0  0  0  0  0  0
    3.0989    1.2355   13.2241 C   0  0  0  0  0  0  0  0  0  0  0  0
    4.4088    1.2797   13.7018 C   0  0  0  0  0  0  0  0  0  0  0  0
    4.7449    0.4891   14.7567 N   0  0  0  0  0  0  0  0  0  0  0  0
    5.8960    0.3776   15.4790 C   0  0  0  0  0  0  0  0  0  0  0  0
    5.5960   -0.5292   16.5069 C   0  0  0  0  0  0  0  0  0  0  0  0
    4.3874   -1.0583   16.3532 N   0  0  0  0  0  0  0  0  0  0  0  0
    3.8346   -0.3857   15.3305 C   0  0  0  0  0  0  0  0  0  0  0  0
    2.6263    2.1555   12.1187 C   0  0  0  0  0  0  0  0  0  0  0  0
    3.5439    2.6382   11.1639 C   0  0  0  0  0  0  0  0  0  0  0  0
    3.1468    3.4593   10.1107 C   0  0  0  0  0  0  0  0  0  0  0  0
    1.8029    3.8136   10.0160 C   0  0  0  0  0  0  0  0  0  0  0  0
    0.9932    4.6001    9.1195 C   0  0  0  0  0  0  0  0  0  0  0  0
   -0.2428    4.6141    9.5158 N   0  0  0  0  0  0  0  0  0  0  0  0
   -0.3351    3.8865   10.6250 N   0  0  0  0  0  0  0  0  0  0  0  0
    0.8815    3.3478   10.9920 C   0  0  0  0  0  0  0  0  0  0  0  0
    1.2640    2.5243   12.0473 C   0  0  0  0  0  0  0  0  0  0  0  0
   -0.3962   -2.6164   15.8132 C   0  0  0  0  0  0  0  0  0  0  0  0
   -1.7505   -2.8679   15.6748 C   0  0  0  0  0  0  0  0  0  0  0  0
   -5.3430   -3.2313   13.5618 H   0  0  0  0  0  0  0  0  0  0  0  0
   -3.9421   -2.5834   12.6430 H   0  0  0  0  0  0  0  0  0  0  0  0
   -3.7642   -4.0865   13.6103 H   0  0  0  0  0  0  0  0  0  0  0  0
   -2.5104   -0.4806   13.3800 H   0  0  0  0  0  0  0  0  0  0  0  0
   -0.0857   -0.0165   13.6391 H   0  0  0  0  0  0  0  0  0  0  0  0
    1.2345    0.3656   13.3845 H   0  0  0  0  0  0  0  0  0  0  0  0
    5.1410    1.9281   13.2437 H   0  0  0  0  0  0  0  0  0  0  0  0
    6.8355    0.8789   15.2989 H   0  0  0  0  0  0  0  0  0  0  0  0
    6.2643   -0.7672   17.3213 H   0  0  0  0  0  0  0  0  0  0  0  0
    4.3044    3.2016   11.7244 H   0  0  0  0  0  0  0  0  0  0  0  0
    4.0075    1.7519   10.7061 H   0  0  0  0  0  0  0  0  0  0  0  0
    3.8640    3.8128    9.3848 H   0  0  0  0  0  0  0  0  0  0  0  0
    1.3633    5.1070    8.2406 H   0  0  0  0  0  0  0  0  0  0  0  0
    0.5493    2.1816   12.7809 H   0  0  0  0  0  0  0  0  0  0  0  0
    0.1925   -3.2225   16.4859 H   0  0  0  0  0  0  0  0  0  0  0  0
   -2.2125   -3.6634   16.2406 H   0  0  0  0  0  0  0  0  0  0  0  0
  1  2  1  0  0  0  0
  2  3  1  0  0  0  0
  3  4  2  0  0  0  0
  3 27  1  0  0  0  0
  4  5  1  0  0  0  0
  5  6  2  0  0  0  0
  6  7  1  0  0  0  0
  6 26  1  0  0  0  0
  7  8  2  0  0  0  0
  8  9  1  0  0  0  0
  8 16  1  0  0  0  0
  9 10  1  0  0  0  0
 10 11  2  0  0  0  0
 10 17  1  0  0  0  0
 11 12  1  0  0  0  0
 12 13  1  0  0  0  0
 12 16  1  0  0  0  0
 13 14  2  0  0  0  0
 14 15  1  0  0  0  0
 15 16  2  0  0  0  0
 17 18  1  0  0  0  0
 17 25  2  0  0  0  0
 18 19  1  0  0  0  0
 19 20  2  0  0  0  0
 20 21  1  0  0  0  0
 20 24  1  0  0  0  0
 21 22  2  0  0  0  0
 22 23  1  0  0  0  0
 23 24  2  0  0  0  0
 24 25  1  0  0  0  0
 26 27  2  0  0  0  0
  1 28  1  0  0  0  0
  1 29  1  0  0  0  0
  1 30  1  0  0  0  0
  4 31  1  0  0  0  0
  5 32  1  0  0  0  0
  9 33  1  0  0  0  0
 11 34  1  0  0  0  0
 13 35  1  0  0  0  0
 14 36  1  0  0  0  0
 18 37  1  0  0  0  0
 18 38  1  0  0  0  0
 19 39  1  0  0  0  0
 21 40  1  0  0  0  0
 25 41  1  0  0  0  0
 26 42  1  0  0  0  0
 27 43  1  0  0  0  0
M  END
> <IC50[nM]>
7

$$$$
CHEMBL3265029
  -OEChem-05192314333D
 Structure written by MMmdl.
 43 47  0     0  0  0  0  0  0999 V2000
   -4.2507   -3.1011   13.5632 C   0  0  0  0  0  0  0  0  0  0  0  0
   -3.8673   -2.3305   14.6902 O   0  0  0  0  0  0  0  0  0  0  0  0
   -2.5168   -2.0957   14.8067 C   0  0  0  0  0  0  0  0  0  0  0  0
   -1.9172   -1.0702   14.0633 C   0  0  0  0  0  0  0  0  0  0  0  0
   -0.5491   -0.8101   14.2065 C   0  0  0  0  0  0  0  0  0  0  0  0
    0.2199   -1.5870   15.0928 C   0  0  0  0  0  0  0  0  0  0  0  0
    1.6080   -1.3729   15.3230 N   0  0  0  0  0  0  0  0  0  0  0  0
    2.5324   -0.4358   14.7759 C   0  0  0  0  0  0  0  0  0  0  0  0
    2.1663    0.3860   13.7470 N   0  0  0  0  0  0  0  0  0  0  0  0
    3.0989    1.2355   13.2241 C   0  0  0  0  0  0  0  0  0  0  0  0
    4.4088    1.2797   13.7018 C   0  0  0  0  0  0  0  0  0  0  0  0
    4.7449    0.4891   14.7567 N   0  0  0  0  0  0  0  0  0  0  0  0
    5.8960    0.3776   15.4790 C   0  0  0  0  0  0  0  0  0  0  0  0
    5.5960   -0.5292   16.5069 C   0  0  0  0  0  0  0  0  0  0  0  0
    4.3874   -1.0583   16.3532 N   0  0  0  0  0  0  0  0  0  0  0  0
    3.8346   -0.3857   15.3305 C   0  0  0  0  0  0  0  0  0  0  0  0
    2.6263    2.1555   12.1187 C   0  0  0  0  0  0  0  0  0  0  0  0
    3.5439    2.6382   11.1639 C   0  0  0  0  0  0  0  0  0  0  0  0
    3.1468    3.4593   10.1107 C   0  0  0  0  0  0  0  0  0  0  0  0
    1.8029    3.8136   10.0160 C   0  0  0  0  0  0  0  0  0  0  0  0
    0.9932    4.6001    9.1195 C   0  0  0  0  0  0  0  0  0  0  0  0
   -0.2428    4.6141    9.5158 N   0  0  0  0  0  0  0  0  0  0  0  0
   -0.3351    3.8865   10.6250 N   0  0  0  0  0  0  0  0  0  0  0  0
    0.8815    3.3478   10.9920 C   0  0  0  0  0  0  0  0  0  0  0  0
    1.2640    2.5243   12.0473 C   0  0  0  0  0  0  0  0  0  0  0  0
   -0.3962   -2.6164   15.8132 C   0  0  0  0  0  0  0  0  0  0  0  0
   -1.7505   -2.8679   15.6748 C   0  0  0  0  0  0  0  0  0  0  0  0
   -5.3430   -3.2313   13.5618 H   0  0  0  0  0  0  0  0  0  0  0  0
   -3.9421   -2.5834   12.6430 H   0  0  0  0  0  0  0  0  0  0  0  0
   -3.7642   -4.0865   13.6103 H   0  0  0  0  0  0  0  0  0  0  0  0
   -2.5104   -0.4806   13.3800 H   0  0  0  0  0  0  0  0  0  0  0  0
   -0.0857   -0.0165   13.6391 H   0  0  0  0  0  0  0  0  0  0  0  0
    1.2345    0.3656   13.3845 H   0  0  0  0  0  0  0  0  0  0  0  0
    5.1410    1.9281   13.2437 H   0  0  0  0  0  0  0  0  0  0  0  0
    6.8355    0.8789   15.2989 H   0  0  0  0  0  0  0  0  0  0  0  0
    6.2643   -0.7672   17.3213 H   0  0  0  0  0  0  0  0  0  0  0  0
    4.5848    2.3637   11.2512 H   0  0  0  0  0  0  0  0  0  0  0  0
    3.8640    3.8128    9.3848 H   0  0  0  0  0  0  0  0  0  0  0  0
    1.3633    5.1070    8.2406 H   0  0  0  0  0  0  0  0  0  0  0  0
    0.6741    1.5987   11.9751 H   0  0  0  0  0  0  0  0  0  0  0  0
    1.0134    3.0469   12.9822 H   0  0  0  0  0  0  0  0  0  0  0  0
    0.1925   -3.2225   16.4859 H   0  0  0  0  0  0  0  0  0  0  0  0
   -2.2125   -3.6634   16.2406 H   0  0  0  0  0  0  0  0  0  0  0  0
  1  2  1  0  0  0  0
  2  3  1  0  0  0  0
  3  4  2  0  0  0  0
  3 27  1  0  0  0  0
  4  5  1  0  0  0  0
  5  6  2  0  0  0  0
  6  7  1  0  0  0  0
  6 26  1  0  0  0  0
  7  8  2  0  0  0  0
  8  9  1  0  0  0  0
  8 16  1  0  0  0  0
  9 10  1  0  0  0  0
 10 11  2  0  0  0  0
 10 17  1  0  0  0  0
 11 12  1  0  0  0  0
 12 13  1  0  0  0  0
 12 16  1  0  0  0  0
 13 14  2  0  0  0  0
 14 15  1  0  0  0  0
 15 16  2  0  0  0  0
 17 18  2  0  0  0  0
 17 25  1  0  0  0  0
 18 19  1  0  0  0  0
 19 20  2  0  0  0  0
 20 21  1  0  0  0  0
 20 24  1  0  0  0  0
 21 22  2  0  0  0  0
 22 23  1  0  0  0  0
 23 24  2  0  0  0  0
 24 25  1  0  0  0  0
 26 27  2  0  0  0  0
  1 28  1  0  0  0  0
  1 29  1  0  0  0  0
  1 30  1  0  0  0  0
  4 31  1  0  0  0  0
  5 32  1  0  0  0  0
  9 33  1  0  0  0  0
 11 34  1  0  0  0  0
 13 35  1  0  0  0  0
 14 36  1  0  0  0  0
 18 37  1  0  0  0  0
 19 38  1  0  0  0  0
 21 39  1  0  0  0  0
 25 40  1  0  0  0  0
 25 41  1  0  0  0  0
 26 42  1  0  0  0  0
 27 43  1  0  0  0  0
M  END
> <IC50[nM]>
7

$$$$
CHEMBL3265029
  -OEChem-05192314333D
 Structure written by MMmdl.
 43 47  0     1  0  0  0  0  0999 V2000
   -4.2507   -3.1011   13.5632 C   0  0  0  0  0  0  0  0  0  0  0  0
   -3.8673   -2.3305   14.6902 O   0  0  0  0  0  0  0  0  0  0  0  0
   -2.5168   -2.0957   14.8067 C   0  0  0  0  0  0  0  0  0  0  0  0
   -1.9172   -1.0702   14.0633 C   0  0  0  0  0  0  0  0  0  0  0  0
   -0.5491   -0.8101   14.2065 C   0  0  0  0  0  0  0  0  0  0  0  0
    0.2199   -1.5870   15.0928 C   0  0  0  0  0  0  0  0  0  0  0  0
    1.6080   -1.3729   15.3230 N   0  0  0  0  0  0  0  0  0  0  0  0
    2.5324   -0.4358   14.7759 C   0  0  0  0  0  0  0  0  0  0  0  0
    2.1663    0.3860   13.7470 N   0  0  0  0  0  0  0  0  0  0  0  0
    3.0989    1.2355   13.2241 C   0  0  0  0  0  0  0  0  0  0  0  0
    4.4088    1.2797   13.7018 C   0  0  0  0  0  0  0  0  0  0  0  0
    4.7449    0.4891   14.7567 N   0  0  0  0  0  0  0  0  0  0  0  0
    5.8960    0.3776   15.4790 C   0  0  0  0  0  0  0  0  0  0  0  0
    5.5960   -0.5292   16.5069 C   0  0  0  0  0  0  0  0  0  0  0  0
    4.3874   -1.0583   16.3532 N   0  0  0  0  0  0  0  0  0  0  0  0
    3.8346   -0.3857   15.3305 C   0  0  0  0  0  0  0  0  0  0  0  0
    2.6263    2.1555   12.1187 C   0  0  3  0  0  0  0  0  0  0  0  0
    3.5439    2.6382   11.1639 C   0  0  0  0  0  0  0  0  0  0  0  0
    3.1468    3.4593   10.1107 C   0  0  0  0  0  0  0  0  0  0  0  0
    1.8029    3.8136   10.0160 C   0  0  0  0  0  0  0  0  0  0  0  0
    0.9932    4.6001    9.1195 C   0  0  0  0  0  0  0  0  0  0  0  0
   -0.2428    4.6141    9.5158 N   0  0  0  0  0  0  0  0  0  0  0  0
   -0.3351    3.8865   10.6250 N   0  0  0  0  0  0  0  0  0  0  0  0
    0.8815    3.3478   10.9920 C   0  0  0  0  0  0  0  0  0  0  0  0
    1.2640    2.5243   12.0473 C   0  0  0  0  0  0  0  0  0  0  0  0
   -0.3962   -2.6164   15.8132 C   0  0  0  0  0  0  0  0  0  0  0  0
   -1.7505   -2.8679   15.6748 C   0  0  0  0  0  0  0  0  0  0  0  0
   -5.3430   -3.2313   13.5618 H   0  0  0  0  0  0  0  0  0  0  0  0
   -3.9421   -2.5834   12.6430 H   0  0  0  0  0  0  0  0  0  0  0  0
   -3.7642   -4.0865   13.6103 H   0  0  0  0  0  0  0  0  0  0  0  0
   -2.5104   -0.4806   13.3800 H   0  0  0  0  0  0  0  0  0  0  0  0
   -0.0857   -0.0165   13.6391 H   0  0  0  0  0  0  0  0  0  0  0  0
    1.2345    0.3656   13.3845 H   0  0  0  0  0  0  0  0  0  0  0  0
    5.1410    1.9281   13.2437 H   0  0  0  0  0  0  0  0  0  0  0  0
    6.8355    0.8789   15.2989 H   0  0  0  0  0  0  0  0  0  0  0  0
    6.2643   -0.7672   17.3213 H   0  0  0  0  0  0  0  0  0  0  0  0
    2.8299    3.0281   12.7568 H   0  0  0  0  0  0  0  0  0  0  0  0
    4.5848    2.3637   11.2512 H   0  0  0  0  0  0  0  0  0  0  0  0
    3.8640    3.8128    9.3848 H   0  0  0  0  0  0  0  0  0  0  0  0
    1.3633    5.1070    8.2406 H   0  0  0  0  0  0  0  0  0  0  0  0
    0.5493    2.1816   12.7809 H   0  0  0  0  0  0  0  0  0  0  0  0
    0.1925   -3.2225   16.4859 H   0  0  0  0  0  0  0  0  0  0  0  0
   -2.2125   -3.6634   16.2406 H   0  0  0  0  0  0  0  0  0  0  0  0
  1  2  1  0  0  0  0
  2  3  1  0  0  0  0
  3  4  2  0  0  0  0
  3 27  1  0  0  0  0
  4  5  1  0  0  0  0
  5  6  2  0  0  0  0
  6  7  1  0  0  0  0
  6 26  1  0  0  0  0
  7  8  2  0  0  0  0
  8  9  1  0  0  0  0
  8 16  1  0  0  0  0
  9 10  1  0  0  0  0
 10 11  2  0  0  0  0
 10 17  1  0  0  0  0
 11 12  1  0  0  0  0
 12 13  1  0  0  0  0
 12 16  1  0  0  0  0
 13 14  2  0  0  0  0
 14 15  1  0  0  0  0
 15 16  2  0  0  0  0
 17 18  1  0  0  0  0
 17 25  1  0  0  0  0
 18 19  2  0  0  0  0
 19 20  1  0  0  0  0
 20 21  2  0  0  0  0
 20 24  1  0  0  0  0
 21 22  1  0  0  0  0
 22 23  2  0  0  0  0
 23 24  1  0  0  0  0
 24 25  2  0  0  0  0
 26 27  2  0  0  0  0
  1 28  1  0  0  0  0
  1 29  1  0  0  0  0
  1 30  1  0  0  0  0
  4 31  1  0  0  0  0
  5 32  1  0  0  0  0
  9 33  1  0  0  0  0
 11 34  1  0  0  0  0
 13 35  1  0  0  0  0
 14 36  1  0  0  0  0
 17 37  1  0  0  0  0
 18 38  1  0  0  0  0
 19 39  1  0  0  0  0
 21 40  1  0  0  0  0
 25 41  1  0  0  0  0
 26 42  1  0  0  0  0
 27 43  1  0  0  0  0
M  END
> <IC50[nM]>
7

$$$$
CHEMBL3265029
  -OEChem-05192314333D
 Structure written by MMmdl.
 43 47  0     1  0  0  0  0  0999 V2000
   -4.2507   -3.1011   13.5632 C   0  0  0  0  0  0  0  0  0  0  0  0
   -3.8673   -2.3305   14.6902 O   0  0  0  0  0  0  0  0  0  0  0  0
   -2.5168   -2.0957   14.8067 C   0  0  0  0  0  0  0  0  0  0  0  0
   -1.9172   -1.0702   14.0633 C   0  0  0  0  0  0  0  0  0  0  0  0
   -0.5491   -0.8101   14.2065 C   0  0  0  0  0  0  0  0  0  0  0  0
    0.2199   -1.5870   15.0928 C   0  0  0  0  0  0  0  0  0  0  0  0
    1.6080   -1.3729   15.3230 N   0  0  0  0  0  0  0  0  0  0  0  0
    2.5324   -0.4358   14.7759 C   0  0  0  0  0  0  0  0  0  0  0  0
    2.1663    0.3860   13.7470 N   0  0  0  0  0  0  0  0  0  0  0  0
    3.0989    1.2355   13.2241 C   0  0  0  0  0  0  0  0  0  0  0  0
    4.4088    1.2797   13.7018 C   0  0  0  0  0  0  0  0  0  0  0  0
    4.7449    0.4891   14.7567 N   0  0  0  0  0  0  0  0  0  0  0  0
    5.8960    0.3776   15.4790 C   0  0  0  0  0  0  0  0  0  0  0  0
    5.5960   -0.5292   16.5069 C   0  0  0  0  0  0  0  0  0  0  0  0
    4.3874   -1.0583   16.3532 N   0  0  0  0  0  0  0  0  0  0  0  0
    3.8346   -0.3857   15.3305 C   0  0  0  0  0  0  0  0  0  0  0  0
    2.6263    2.1555   12.1187 C   0  0  0  0  0  0  0  0  0  0  0  0
    3.5439    2.6382   11.1639 C   0  0  0  0  0  0  0  0  0  0  0  0
    3.1468    3.4593   10.1107 C   0  0  0  0  0  0  0  0  0  0  0  0
    1.8029    3.8136   10.0160 C   0  0  0  0  0  0  0  0  0  0  0  0
    0.9932    4.6001    9.1195 C   0  0  0  0  0  0  0  0  0  0  0  0
   -0.2428    4.6141    9.5158 N   0  0  0  0  0  0  0  0  0  0  0  0
   -0.3351    3.8865   10.6250 N   0  0  0  0  0  0  0  0  0  0  0  0
    0.8815    3.3478   10.9920 C   0  0  3  0  0  0  0  0  0  0  0  0
    1.2640    2.5243   12.0473 C   0  0  0  0  0  0  0  0  0  0  0  0
   -0.3962   -2.6164   15.8132 C   0  0  0  0  0  0  0  0  0  0  0  0
   -1.7505   -2.8679   15.6748 C   0  0  0  0  0  0  0  0  0  0  0  0
   -5.3430   -3.2313   13.5618 H   0  0  0  0  0  0  0  0  0  0  0  0
   -3.9421   -2.5834   12.6430 H   0  0  0  0  0  0  0  0  0  0  0  0
   -3.7642   -4.0865   13.6103 H   0  0  0  0  0  0  0  0  0  0  0  0
   -2.5104   -0.4806   13.3800 H   0  0  0  0  0  0  0  0  0  0  0  0
   -0.0857   -0.0165   13.6391 H   0  0  0  0  0  0  0  0  0  0  0  0
    1.2345    0.3656   13.3845 H   0  0  0  0  0  0  0  0  0  0  0  0
    5.1410    1.9281   13.2437 H   0  0  0  0  0  0  0  0  0  0  0  0
    6.8355    0.8789   15.2989 H   0  0  0  0  0  0  0  0  0  0  0  0
    6.2643   -0.7672   17.3213 H   0  0  0  0  0  0  0  0  0  0  0  0
    4.5848    2.3637   11.2512 H   0  0  0  0  0  0  0  0  0  0  0  0
    3.8640    3.8128    9.3848 H   0  0  0  0  0  0  0  0  0  0  0  0
    1.3633    5.1070    8.2406 H   0  0  0  0  0  0  0  0  0  0  0  0
    0.6754    2.4611   10.3745 H   0  0  0  0  0  0  0  0  0  0  0  0
    0.5493    2.1816   12.7809 H   0  0  0  0  0  0  0  0  0  0  0  0
    0.1925   -3.2225   16.4859 H   0  0  0  0  0  0  0  0  0  0  0  0
   -2.2125   -3.6634   16.2406 H   0  0  0  0  0  0  0  0  0  0  0  0
  1  2  1  0  0  0  0
  2  3  1  0  0  0  0
  3  4  2  0  0  0  0
  3 27  1  0  0  0  0
  4  5  1  0  0  0  0
  5  6  2  0  0  0  0
  6  7  1  0  0  0  0
  6 26  1  0  0  0  0
  7  8  2  0  0  0  0
  8  9  1  0  0  0  0
  8 16  1  0  0  0  0
  9 10  1  0  0  0  0
 10 11  2  0  0  0  0
 10 17  1  0  0  0  0
 11 12  1  0  0  0  0
 12 13  1  0  0  0  0
 12 16  1  0  0  0  0
 13 14  2  0  0  0  0
 14 15  1  0  0  0  0
 15 16  2  0  0  0  0
 17 18  1  0  0  0  0
 17 25  2  0  0  0  0
 18 19  2  0  0  0  0
 19 20  1  0  0  0  0
 20 21  2  0  0  0  0
 20 24  1  0  0  0  0
 21 22  1  0  0  0  0
 22 23  2  0  0  0  0
 23 24  1  0  0  0  0
 24 25  1  0  0  0  0
 26 27  2  0  0  0  0
  1 28  1  0  0  0  0
  1 29  1  0  0  0  0
  1 30  1  0  0  0  0
  4 31  1  0  0  0  0
  5 32  1  0  0  0  0
  9 33  1  0  0  0  0
 11 34  1  0  0  0  0
 13 35  1  0  0  0  0
 14 36  1  0  0  0  0
 18 37  1  0  0  0  0
 19 38  1  0  0  0  0
 21 39  1  0  0  0  0
 24 40  1  0  0  0  0
 25 41  1  0  0  0  0
 26 42  1  0  0  0  0
 27 43  1  0  0  0  0
M  END
> <IC50[nM]>
7

$$$$
CHEMBL3265029
  -OEChem-05192314333D
 Structure written by MMmdl.
 43 47  0     0  0  0  0  0  0999 V2000
   -4.2507   -3.1011   13.5632 C   0  0  0  0  0  0  0  0  0  0  0  0
   -3.8673   -2.3305   14.6902 O   0  0  0  0  0  0  0  0  0  0  0  0
   -2.5168   -2.0957   14.8067 C   0  0  0  0  0  0  0  0  0  0  0  0
   -1.9172   -1.0702   14.0633 C   0  0  0  0  0  0  0  0  0  0  0  0
   -0.5491   -0.8101   14.2065 C   0  0  0  0  0  0  0  0  0  0  0  0
    0.2199   -1.5870   15.0928 C   0  0  0  0  0  0  0  0  0  0  0  0
    1.6080   -1.3729   15.3230 N   0  0  0  0  0  0  0  0  0  0  0  0
    2.5324   -0.4358   14.7759 C   0  0  0  0  0  0  0  0  0  0  0  0
    2.1663    0.3860   13.7470 N   0  0  0  0  0  0  0  0  0  0  0  0
    3.0989    1.2355   13.2241 C   0  0  0  0  0  0  0  0  0  0  0  0
    4.4088    1.2797   13.7018 C   0  0  0  0  0  0  0  0  0  0  0  0
    4.7449    0.4891   14.7567 N   0  0  0  0  0  0  0  0  0  0  0  0
    5.8960    0.3776   15.4790 C   0  0  0  0  0  0  0  0  0  0  0  0
    5.5960   -0.5292   16.5069 C   0  0  0  0  0  0  0  0  0  0  0  0
    4.3874   -1.0583   16.3532 N   0  0  0  0  0  0  0  0  0  0  0  0
    3.8346   -0.3857   15.3305 C   0  0  0  0  0  0  0  0  0  0  0  0
    2.6263    2.1555   12.1187 C   0  0  0  0  0  0  0  0  0  0  0  0
    3.5439    2.6382   11.1639 C   0  0  0  0  0  0  0  0  0  0  0  0
    3.1468    3.4593   10.1107 C   0  0  0  0  0  0  0  0  0  0  0  0
    1.8029    3.8136   10.0160 C   0  0  0  0  0  0  0  0  0  0  0  0
    0.9932    4.6001    9.1195 C   0  0  0  0  0  0  0  0  0  0  0  0
   -0.2428    4.6141    9.5158 N   0  0  0  0  0  0  0  0  0  0  0  0
   -0.3351    3.8865   10.6250 N   0  0  0  0  0  0  0  0  0  0  0  0
    0.8815    3.3478   10.9920 C   0  0  0  0  0  0  0  0  0  0  0  0
    1.2640    2.5243   12.0473 C   0  0  0  0  0  0  0  0  0  0  0  0
   -0.3962   -2.6164   15.8132 C   0  0  0  0  0  0  0  0  0  0  0  0
   -1.7505   -2.8679   15.6748 C   0  0  0  0  0  0  0  0  0  0  0  0
   -5.3430   -3.2313   13.5618 H   0  0  0  0  0  0  0  0  0  0  0  0
   -3.9421   -2.5834   12.6430 H   0  0  0  0  0  0  0  0  0  0  0  0
   -3.7642   -4.0865   13.6103 H   0  0  0  0  0  0  0  0  0  0  0  0
   -2.5104   -0.4806   13.3800 H   0  0  0  0  0  0  0  0  0  0  0  0
   -0.0857   -0.0165   13.6391 H   0  0  0  0  0  0  0  0  0  0  0  0
    1.2345    0.3656   13.3845 H   0  0  0  0  0  0  0  0  0  0  0  0
    5.1410    1.9281   13.2437 H   0  0  0  0  0  0  0  0  0  0  0  0
    6.8355    0.8789   15.2989 H   0  0  0  0  0  0  0  0  0  0  0  0
    6.2643   -0.7672   17.3213 H   0  0  0  0  0  0  0  0  0  0  0  0
    4.5848    2.3637   11.2512 H   0  0  0  0  0  0  0  0  0  0  0  0
    3.7240    4.3923   10.1905 H   0  0  0  0  0  0  0  0  0  0  0  0
    3.4131    2.9421    9.1771 H   0  0  0  0  0  0  0  0  0  0  0  0
    1.3633    5.1070    8.2406 H   0  0  0  0  0  0  0  0  0  0  0  0
    0.5493    2.1816   12.7809 H   0  0  0  0  0  0  0  0  0  0  0  0
    0.1925   -3.2225   16.4859 H   0  0  0  0  0  0  0  0  0  0  0  0
   -2.2125   -3.6634   16.2406 H   0  0  0  0  0  0  0  0  0  0  0  0
  1  2  1  0  0  0  0
  2  3  1  0  0  0  0
  3  4  2  0  0  0  0
  3 27  1  0  0  0  0
  4  5  1  0  0  0  0
  5  6  2  0  0  0  0
  6  7  1  0  0  0  0
  6 26  1  0  0  0  0
  7  8  2  0  0  0  0
  8  9  1  0  0  0  0
  8 16  1  0  0  0  0
  9 10  1  0  0  0  0
 10 11  2  0  0  0  0
 10 17  1  0  0  0  0
 11 12  1  0  0  0  0
 12 13  1  0  0  0  0
 12 16  1  0  0  0  0
 13 14  2  0  0  0  0
 14 15  1  0  0  0  0
 15 16  2  0  0  0  0
 17 18  2  0  0  0  0
 17 25  1  0  0  0  0
 18 19  1  0  0  0  0
 19 20  1  0  0  0  0
 20 21  2  0  0  0  0
 20 24  1  0  0  0  0
 21 22  1  0  0  0  0
 22 23  2  0  0  0  0
 23 24  1  0  0  0  0
 24 25  2  0  0  0  0
 26 27  2  0  0  0  0
  1 28  1  0  0  0  0
  1 29  1  0  0  0  0
  1 30  1  0  0  0  0
  4 31  1  0  0  0  0
  5 32  1  0  0  0  0
  9 33  1  0  0  0  0
 11 34  1  0  0  0  0
 13 35  1  0  0  0  0
 14 36  1  0  0  0  0
 18 37  1  0  0  0  0
 19 38  1  0  0  0  0
 19 39  1  0  0  0  0
 21 40  1  0  0  0  0
 25 41  1  0  0  0  0
 26 42  1  0  0  0  0
 27 43  1  0  0  0  0
M  END
> <IC50[nM]>
7

$$$$
CHEMBL3265029
  -OEChem-05192314333D
 Structure written by MMmdl.
 43 47  0     1  0  0  0  0  0999 V2000
   -4.2507   -3.1011   13.5632 C   0  0  0  0  0  0  0  0  0  0  0  0
   -3.8673   -2.3305   14.6902 O   0  0  0  0  0  0  0  0  0  0  0  0
   -2.5168   -2.0957   14.8067 C   0  0  0  0  0  0  0  0  0  0  0  0
   -1.9172   -1.0702   14.0633 C   0  0  0  0  0  0  0  0  0  0  0  0
   -0.5491   -0.8101   14.2065 C   0  0  0  0  0  0  0  0  0  0  0  0
    0.2199   -1.5870   15.0928 C   0  0  0  0  0  0  0  0  0  0  0  0
    1.6080   -1.3729   15.3230 N   0  0  0  0  0  0  0  0  0  0  0  0
    2.5324   -0.4358   14.7759 C   0  0  0  0  0  0  0  0  0  0  0  0
    2.1663    0.3860   13.7470 N   0  0  0  0  0  0  0  0  0  0  0  0
    3.0989    1.2355   13.2241 C   0  0  0  0  0  0  0  0  0  0  0  0
    4.4088    1.2797   13.7018 C   0  0  0  0  0  0  0  0  0  0  0  0
    4.7449    0.4891   14.7567 N   0  0  0  0  0  0  0  0  0  0  0  0
    5.8960    0.3776   15.4790 C   0  0  0  0  0  0  0  0  0  0  0  0
    5.5960   -0.5292   16.5069 C   0  0  0  0  0  0  0  0  0  0  0  0
    4.3874   -1.0583   16.3532 N   0  0  0  0  0  0  0  0  0  0  0  0
    3.8346   -0.3857   15.3305 C   0  0  0  0  0  0  0  0  0  0  0  0
    2.6263    2.1555   12.1187 C   0  0  0  0  0  0  0  0  0  0  0  0
    3.5439    2.6382   11.1639 C   0  0  0  0  0  0  0  0  0  0  0  0
    3.1468    3.4593   10.1107 C   0  0  0  0  0  0  0  0  0  0  0  0
    1.8029    3.8136   10.0160 C   0  0  3  0  0  0  0  0  0  0  0  0
    0.9932    4.6001    9.1195 C   0  0  0  0  0  0  0  0  0  0  0  0
   -0.2428    4.6141    9.5158 N   0  0  0  0  0  0  0  0  0  0  0  0
   -0.3351    3.8865   10.6250 N   0  0  0  0  0  0  0  0  0  0  0  0
    0.8815    3.3478   10.9920 C   0  0  0  0  0  0  0  0  0  0  0  0
    1.2640    2.5243   12.0473 C   0  0  0  0  0  0  0  0  0  0  0  0
   -0.3962   -2.6164   15.8132 C   0  0  0  0  0  0  0  0  0  0  0  0
   -1.7505   -2.8679   15.6748 C   0  0  0  0  0  0  0  0  0  0  0  0
   -5.3430   -3.2313   13.5618 H   0  0  0  0  0  0  0  0  0  0  0  0
   -3.9421   -2.5834   12.6430 H   0  0  0  0  0  0  0  0  0  0  0  0
   -3.7642   -4.0865   13.6103 H   0  0  0  0  0  0  0  0  0  0  0  0
   -2.5104   -0.4806   13.3800 H   0  0  0  0  0  0  0  0  0  0  0  0
   -0.0857   -0.0165   13.6391 H   0  0  0  0  0  0  0  0  0  0  0  0
    5.0681    1.0025   12.8660 H   0  0  0  0  0  0  0  0  0  0  0  0
    4.6106    2.3195   13.9988 H   0  0  0  0  0  0  0  0  0  0  0  0
    6.8355    0.8789   15.2989 H   0  0  0  0  0  0  0  0  0  0  0  0
    6.2643   -0.7672   17.3213 H   0  0  0  0  0  0  0  0  0  0  0  0
    4.5848    2.3637   11.2512 H   0  0  0  0  0  0  0  0  0  0  0  0
    3.8640    3.8128    9.3848 H   0  0  0  0  0  0  0  0  0  0  0  0
    1.6096    2.9188    9.4061 H   0  0  0  0  0  0  0  0  0  0  0  0
    1.3633    5.1070    8.2406 H   0  0  0  0  0  0  0  0  0  0  0  0
    0.5493    2.1816   12.7809 H   0  0  0  0  0  0  0  0  0  0  0  0
    0.1925   -3.2225   16.4859 H   0  0  0  0  0  0  0  0  0  0  0  0
   -2.2125   -3.6634   16.2406 H   0  0  0  0  0  0  0  0  0  0  0  0
  1  2  1  0  0  0  0
  2  3  1  0  0  0  0
  3  4  2  0  0  0  0
  3 27  1  0  0  0  0
  4  5  1  0  0  0  0
  5  6  2  0  0  0  0
  6  7  1  0  0  0  0
  6 26  1  0  0  0  0
  7  8  2  0  0  0  0
  8  9  1  0  0  0  0
  8 16  1  0  0  0  0
  9 10  2  0  0  0  0
 10 11  1  0  0  0  0
 10 17  1  0  0  0  0
 11 12  1  0  0  0  0
 12 13  1  0  0  0  0
 12 16  1  0  0  0  0
 13 14  2  0  0  0  0
 14 15  1  0  0  0  0
 15 16  2  0  0  0  0
 17 18  1  0  0  0  0
 17 25  2  0  0  0  0
 18 19  2  0  0  0  0
 19 20  1  0  0  0  0
 20 21  1  0  0  0  0
 20 24  1  0  0  0  0
 21 22  2  0  0  0  0
 22 23  1  0  0  0  0
 23 24  2  0  0  0  0
 24 25  1  0  0  0  0
 26 27  2  0  0  0  0
  1 28  1  0  0  0  0
  1 29  1  0  0  0  0
  1 30  1  0  0  0  0
  4 31  1  0  0  0  0
  5 32  1  0  0  0  0
 11 33  1  0  0  0  0
 11 34  1  0  0  0  0
 13 35  1  0  0  0  0
 14 36  1  0  0  0  0
 18 37  1  0  0  0  0
 19 38  1  0  0  0  0
 20 39  1  0  0  0  0
 21 40  1  0  0  0  0
 25 41  1  0  0  0  0
 26 42  1  0  0  0  0
 27 43  1  0  0  0  0
M  END
> <IC50[nM]>
7

$$$$
CHEMBL3265029
  -OEChem-05192314333D
 Structure written by MMmdl.
 43 47  0     0  0  0  0  0  0999 V2000
   -4.2507   -3.1011   13.5632 C   0  0  0  0  0  0  0  0  0  0  0  0
   -3.8673   -2.3305   14.6902 O   0  0  0  0  0  0  0  0  0  0  0  0
   -2.5168   -2.0957   14.8067 C   0  0  0  0  0  0  0  0  0  0  0  0
   -1.9172   -1.0702   14.0633 C   0  0  0  0  0  0  0  0  0  0  0  0
   -0.5491   -0.8101   14.2065 C   0  0  0  0  0  0  0  0  0  0  0  0
    0.2199   -1.5870   15.0928 C   0  0  0  0  0  0  0  0  0  0  0  0
    1.6080   -1.3729   15.3230 N   0  0  0  0  0  0  0  0  0  0  0  0
    2.5324   -0.4358   14.7759 C   0  0  0  0  0  0  0  0  0  0  0  0
    2.1663    0.3860   13.7470 N   0  0  0  0  0  0  0  0  0  0  0  0
    3.0989    1.2355   13.2241 C   0  0  0  0  0  0  0  0  0  0  0  0
    4.4088    1.2797   13.7018 C   0  0  0  0  0  0  0  0  0  0  0  0
    4.7449    0.4891   14.7567 N   0  0  0  0  0  0  0  0  0  0  0  0
    5.8960    0.3776   15.4790 C   0  0  0  0  0  0  0  0  0  0  0  0
    5.5960   -0.5292   16.5069 C   0  0  0  0  0  0  0  0  0  0  0  0
    4.3874   -1.0583   16.3532 N   0  0  0  0  0  0  0  0  0  0  0  0
    3.8346   -0.3857   15.3305 C   0  0  0  0  0  0  0  0  0  0  0  0
    2.6263    2.1555   12.1187 C   0  0  0  0  0  0  0  0  0  0  0  0
    3.5439    2.6382   11.1639 C   0  0  0  0  0  0  0  0  0  0  0  0
    3.1468    3.4593   10.1107 C   0  0  0  0  0  0  0  0  0  0  0  0
    1.8029    3.8136   10.0160 C   0  0  0  0  0  0  0  0  0  0  0  0
    0.9932    4.6001    9.1195 C   0  0  0  0  0  0  0  0  0  0  0  0
   -0.2428    4.6141    9.5158 N   0  0  0  0  0  0  0  0  0  0  0  0
   -0.3351    3.8865   10.6250 N   0  0  0  0  0  0  0  0  0  0  0  0
    0.8815    3.3478   10.9920 C   0  0  0  0  0  0  0  0  0  0  0  0
    1.2640    2.5243   12.0473 C   0  0  0  0  0  0  0  0  0  0  0  0
   -0.3962   -2.6164   15.8132 C   0  0  0  0  0  0  0  0  0  0  0  0
   -1.7505   -2.8679   15.6748 C   0  0  0  0  0  0  0  0  0  0  0  0
   -5.3430   -3.2313   13.5618 H   0  0  0  0  0  0  0  0  0  0  0  0
   -3.9421   -2.5834   12.6430 H   0  0  0  0  0  0  0  0  0  0  0  0
   -3.7642   -4.0865   13.6103 H   0  0  0  0  0  0  0  0  0  0  0  0
   -2.5104   -0.4806   13.3800 H   0  0  0  0  0  0  0  0  0  0  0  0
   -0.0857   -0.0165   13.6391 H   0  0  0  0  0  0  0  0  0  0  0  0
    5.0681    1.0025   12.8660 H   0  0  0  0  0  0  0  0  0  0  0  0
    4.6106    2.3195   13.9988 H   0  0  0  0  0  0  0  0  0  0  0  0
    6.8355    0.8789   15.2989 H   0  0  0  0  0  0  0  0  0  0  0  0
    6.2643   -0.7672   17.3213 H   0  0  0  0  0  0  0  0  0  0  0  0
    4.3044    3.2016   11.7244 H   0  0  0  0  0  0  0  0  0  0  0  0
    4.0075    1.7519   10.7061 H   0  0  0  0  0  0  0  0  0  0  0  0
    3.8640    3.8128    9.3848 H   0  0  0  0  0  0  0  0  0  0  0  0
    1.3633    5.1070    8.2406 H   0  0  0  0  0  0  0  0  0  0  0  0
    0.5493    2.1816   12.7809 H   0  0  0  0  0  0  0  0  0  0  0  0
    0.1925   -3.2225   16.4859 H   0  0  0  0  0  0  0  0  0  0  0  0
   -2.2125   -3.6634   16.2406 H   0  0  0  0  0  0  0  0  0  0  0  0
  1  2  1  0  0  0  0
  2  3  1  0  0  0  0
  3  4  2  0  0  0  0
  3 27  1  0  0  0  0
  4  5  1  0  0  0  0
  5  6  2  0  0  0  0
  6  7  1  0  0  0  0
  6 26  1  0  0  0  0
  7  8  2  0  0  0  0
  8  9  1  0  0  0  0
  8 16  1  0  0  0  0
  9 10  2  0  0  0  0
 10 11  1  0  0  0  0
 10 17  1  0  0  0  0
 11 12  1  0  0  0  0
 12 13  1  0  0  0  0
 12 16  1  0  0  0  0
 13 14  2  0  0  0  0
 14 15  1  0  0  0  0
 15 16  2  0  0  0  0
 17 18  1  0  0  0  0
 17 25  2  0  0  0  0
 18 19  1  0  0  0  0
 19 20  2  0  0  0  0
 20 21  1  0  0  0  0
 20 24  1  0  0  0  0
 21 22  2  0  0  0  0
 22 23  1  0  0  0  0
 23 24  2  0  0  0  0
 24 25  1  0  0  0  0
 26 27  2  0  0  0  0
  1 28  1  0  0  0  0
  1 29  1  0  0  0  0
  1 30  1  0  0  0  0
  4 31  1  0  0  0  0
  5 32  1  0  0  0  0
 11 33  1  0  0  0  0
 11 34  1  0  0  0  0
 13 35  1  0  0  0  0
 14 36  1  0  0  0  0
 18 37  1  0  0  0  0
 18 38  1  0  0  0  0
 19 39  1  0  0  0  0
 21 40  1  0  0  0  0
 25 41  1  0  0  0  0
 26 42  1  0  0  0  0
 27 43  1  0  0  0  0
M  END
> <IC50[nM]>
7

$$$$
CHEMBL3265029
  -OEChem-05192314333D
 Structure written by MMmdl.
 43 47  0     0  0  0  0  0  0999 V2000
   -4.2507   -3.1011   13.5632 C   0  0  0  0  0  0  0  0  0  0  0  0
   -3.8673   -2.3305   14.6902 O   0  0  0  0  0  0  0  0  0  0  0  0
   -2.5168   -2.0957   14.8067 C   0  0  0  0  0  0  0  0  0  0  0  0
   -1.9172   -1.0702   14.0633 C   0  0  0  0  0  0  0  0  0  0  0  0
   -0.5491   -0.8101   14.2065 C   0  0  0  0  0  0  0  0  0  0  0  0
    0.2199   -1.5870   15.0928 C   0  0  0  0  0  0  0  0  0  0  0  0
    1.6080   -1.3729   15.3230 N   0  0  0  0  0  0  0  0  0  0  0  0
    2.5324   -0.4358   14.7759 C   0  0  0  0  0  0  0  0  0  0  0  0
    2.1663    0.3860   13.7470 N   0  0  0  0  0  0  0  0  0  0  0  0
    3.0989    1.2355   13.2241 C   0  0  0  0  0  0  0  0  0  0  0  0
    4.4088    1.2797   13.7018 C   0  0  0  0  0  0  0  0  0  0  0  0
    4.7449    0.4891   14.7567 N   0  0  0  0  0  0  0  0  0  0  0  0
    5.8960    0.3776   15.4790 C   0  0  0  0  0  0  0  0  0  0  0  0
    5.5960   -0.5292   16.5069 C   0  0  0  0  0  0  0  0  0  0  0  0
    4.3874   -1.0583   16.3532 N   0  0  0  0  0  0  0  0  0  0  0  0
    3.8346   -0.3857   15.3305 C   0  0  0  0  0  0  0  0  0  0  0  0
    2.6263    2.1555   12.1187 C   0  0  0  0  0  0  0  0  0  0  0  0
    3.5439    2.6382   11.1639 C   0  0  0  0  0  0  0  0  0  0  0  0
    3.1468    3.4593   10.1107 C   0  0  0  0  0  0  0  0  0  0  0  0
    1.8029    3.8136   10.0160 C   0  0  0  0  0  0  0  0  0  0  0  0
    0.9932    4.6001    9.1195 C   0  0  0  0  0  0  0  0  0  0  0  0
   -0.2428    4.6141    9.5158 N   0  0  0  0  0  0  0  0  0  0  0  0
   -0.3351    3.8865   10.6250 N   0  0  0  0  0  0  0  0  0  0  0  0
    0.8815    3.3478   10.9920 C   0  0  0  0  0  0  0  0  0  0  0  0
    1.2640    2.5243   12.0473 C   0  0  0  0  0  0  0  0  0  0  0  0
   -0.3962   -2.6164   15.8132 C   0  0  0  0  0  0  0  0  0  0  0  0
   -1.7505   -2.8679   15.6748 C   0  0  0  0  0  0  0  0  0  0  0  0
   -5.3430   -3.2313   13.5618 H   0  0  0  0  0  0  0  0  0  0  0  0
   -3.9421   -2.5834   12.6430 H   0  0  0  0  0  0  0  0  0  0  0  0
   -3.7642   -4.0865   13.6103 H   0  0  0  0  0  0  0  0  0  0  0  0
   -2.5104   -0.4806   13.3800 H   0  0  0  0  0  0  0  0  0  0  0  0
   -0.0857   -0.0165   13.6391 H   0  0  0  0  0  0  0  0  0  0  0  0
    5.0681    1.0025   12.8660 H   0  0  0  0  0  0  0  0  0  0  0  0
    4.6106    2.3195   13.9988 H   0  0  0  0  0  0  0  0  0  0  0  0
    6.8355    0.8789   15.2989 H   0  0  0  0  0  0  0  0  0  0  0  0
    6.2643   -0.7672   17.3213 H   0  0  0  0  0  0  0  0  0  0  0  0
    4.5848    2.3637   11.2512 H   0  0  0  0  0  0  0  0  0  0  0  0
    3.8640    3.8128    9.3848 H   0  0  0  0  0  0  0  0  0  0  0  0
    1.3633    5.1070    8.2406 H   0  0  0  0  0  0  0  0  0  0  0  0
    0.6741    1.5987   11.9751 H   0  0  0  0  0  0  0  0  0  0  0  0
    1.0134    3.0469   12.9822 H   0  0  0  0  0  0  0  0  0  0  0  0
    0.1925   -3.2225   16.4859 H   0  0  0  0  0  0  0  0  0  0  0  0
   -2.2125   -3.6634   16.2406 H   0  0  0  0  0  0  0  0  0  0  0  0
  1  2  1  0  0  0  0
  2  3  1  0  0  0  0
  3  4  2  0  0  0  0
  3 27  1  0  0  0  0
  4  5  1  0  0  0  0
  5  6  2  0  0  0  0
  6  7  1  0  0  0  0
  6 26  1  0  0  0  0
  7  8  2  0  0  0  0
  8  9  1  0  0  0  0
  8 16  1  0  0  0  0
  9 10  2  0  0  0  0
 10 11  1  0  0  0  0
 10 17  1  0  0  0  0
 11 12  1  0  0  0  0
 12 13  1  0  0  0  0
 12 16  1  0  0  0  0
 13 14  2  0  0  0  0
 14 15  1  0  0  0  0
 15 16  2  0  0  0  0
 17 18  2  0  0  0  0
 17 25  1  0  0  0  0
 18 19  1  0  0  0  0
 19 20  2  0  0  0  0
 20 21  1  0  0  0  0
 20 24  1  0  0  0  0
 21 22  2  0  0  0  0
 22 23  1  0  0  0  0
 23 24  2  0  0  0  0
 24 25  1  0  0  0  0
 26 27  2  0  0  0  0
  1 28  1  0  0  0  0
  1 29  1  0  0  0  0
  1 30  1  0  0  0  0
  4 31  1  0  0  0  0
  5 32  1  0  0  0  0
 11 33  1  0  0  0  0
 11 34  1  0  0  0  0
 13 35  1  0  0  0  0
 14 36  1  0  0  0  0
 18 37  1  0  0  0  0
 19 38  1  0  0  0  0
 21 39  1  0  0  0  0
 25 40  1  0  0  0  0
 25 41  1  0  0  0  0
 26 42  1  0  0  0  0
 27 43  1  0  0  0  0
M  END
> <IC50[nM]>
7

$$$$
CHEMBL3265029
  -OEChem-05192314333D
 Structure written by MMmdl.
 43 47  0     1  0  0  0  0  0999 V2000
   -4.2507   -3.1011   13.5632 C   0  0  0  0  0  0  0  0  0  0  0  0
   -3.8673   -2.3305   14.6902 O   0  0  0  0  0  0  0  0  0  0  0  0
   -2.5168   -2.0957   14.8067 C   0  0  0  0  0  0  0  0  0  0  0  0
   -1.9172   -1.0702   14.0633 C   0  0  0  0  0  0  0  0  0  0  0  0
   -0.5491   -0.8101   14.2065 C   0  0  0  0  0  0  0  0  0  0  0  0
    0.2199   -1.5870   15.0928 C   0  0  0  0  0  0  0  0  0  0  0  0
    1.6080   -1.3729   15.3230 N   0  0  0  0  0  0  0  0  0  0  0  0
    2.5324   -0.4358   14.7759 C   0  0  0  0  0  0  0  0  0  0  0  0
    2.1663    0.3860   13.7470 N   0  0  0  0  0  0  0  0  0  0  0  0
    3.0989    1.2355   13.2241 C   0  0  0  0  0  0  0  0  0  0  0  0
    4.4088    1.2797   13.7018 C   0  0  0  0  0  0  0  0  0  0  0  0
    4.7449    0.4891   14.7567 N   0  0  0  0  0  0  0  0  0  0  0  0
    5.8960    0.3776   15.4790 C   0  0  0  0  0  0  0  0  0  0  0  0
    5.5960   -0.5292   16.5069 C   0  0  0  0  0  0  0  0  0  0  0  0
    4.3874   -1.0583   16.3532 N   0  0  0  0  0  0  0  0  0  0  0  0
    3.8346   -0.3857   15.3305 C   0  0  0  0  0  0  0  0  0  0  0  0
    2.6263    2.1555   12.1187 C   0  0  3  0  0  0  0  0  0  0  0  0
    3.5439    2.6382   11.1639 C   0  0  0  0  0  0  0  0  0  0  0  0
    3.1468    3.4593   10.1107 C   0  0  0  0  0  0  0  0  0  0  0  0
    1.8029    3.8136   10.0160 C   0  0  0  0  0  0  0  0  0  0  0  0
    0.9932    4.6001    9.1195 C   0  0  0  0  0  0  0  0  0  0  0  0
   -0.2428    4.6141    9.5158 N   0  0  0  0  0  0  0  0  0  0  0  0
   -0.3351    3.8865   10.6250 N   0  0  0  0  0  0  0  0  0  0  0  0
    0.8815    3.3478   10.9920 C   0  0  0  0  0  0  0  0  0  0  0  0
    1.2640    2.5243   12.0473 C   0  0  0  0  0  0  0  0  0  0  0  0
   -0.3962   -2.6164   15.8132 C   0  0  0  0  0  0  0  0  0  0  0  0
   -1.7505   -2.8679   15.6748 C   0  0  0  0  0  0  0  0  0  0  0  0
   -5.3430   -3.2313   13.5618 H   0  0  0  0  0  0  0  0  0  0  0  0
   -3.9421   -2.5834   12.6430 H   0  0  0  0  0  0  0  0  0  0  0  0
   -3.7642   -4.0865   13.6103 H   0  0  0  0  0  0  0  0  0  0  0  0
   -2.5104   -0.4806   13.3800 H   0  0  0  0  0  0  0  0  0  0  0  0
   -0.0857   -0.0165   13.6391 H   0  0  0  0  0  0  0  0  0  0  0  0
    5.0681    1.0025   12.8660 H   0  0  0  0  0  0  0  0  0  0  0  0
    4.6106    2.3195   13.9988 H   0  0  0  0  0  0  0  0  0  0  0  0
    6.8355    0.8789   15.2989 H   0  0  0  0  0  0  0  0  0  0  0  0
    6.2643   -0.7672   17.3213 H   0  0  0  0  0  0  0  0  0  0  0  0
    2.8299    3.0281   12.7568 H   0  0  0  0  0  0  0  0  0  0  0  0
    4.5848    2.3637   11.2512 H   0  0  0  0  0  0  0  0  0  0  0  0
    3.8640    3.8128    9.3848 H   0  0  0  0  0  0  0  0  0  0  0  0
    1.3633    5.1070    8.2406 H   0  0  0  0  0  0  0  0  0  0  0  0
    0.5493    2.1816   12.7809 H   0  0  0  0  0  0  0  0  0  0  0  0
    0.1925   -3.2225   16.4859 H   0  0  0  0  0  0  0  0  0  0  0  0
   -2.2125   -3.6634   16.2406 H   0  0  0  0  0  0  0  0  0  0  0  0
  1  2  1  0  0  0  0
  2  3  1  0  0  0  0
  3  4  2  0  0  0  0
  3 27  1  0  0  0  0
  4  5  1  0  0  0  0
  5  6  2  0  0  0  0
  6  7  1  0  0  0  0
  6 26  1  0  0  0  0
  7  8  2  0  0  0  0
  8  9  1  0  0  0  0
  8 16  1  0  0  0  0
  9 10  2  0  0  0  0
 10 11  1  0  0  0  0
 10 17  1  0  0  0  0
 11 12  1  0  0  0  0
 12 13  1  0  0  0  0
 12 16  1  0  0  0  0
 13 14  2  0  0  0  0
 14 15  1  0  0  0  0
 15 16  2  0  0  0  0
 17 18  1  0  0  0  0
 17 25  1  0  0  0  0
 18 19  2  0  0  0  0
 19 20  1  0  0  0  0
 20 21  2  0  0  0  0
 20 24  1  0  0  0  0
 21 22  1  0  0  0  0
 22 23  2  0  0  0  0
 23 24  1  0  0  0  0
 24 25  2  0  0  0  0
 26 27  2  0  0  0  0
  1 28  1  0  0  0  0
  1 29  1  0  0  0  0
  1 30  1  0  0  0  0
  4 31  1  0  0  0  0
  5 32  1  0  0  0  0
 11 33  1  0  0  0  0
 11 34  1  0  0  0  0
 13 35  1  0  0  0  0
 14 36  1  0  0  0  0
 17 37  1  0  0  0  0
 18 38  1  0  0  0  0
 19 39  1  0  0  0  0
 21 40  1  0  0  0  0
 25 41  1  0  0  0  0
 26 42  1  0  0  0  0
 27 43  1  0  0  0  0
M  END
> <IC50[nM]>
7

$$$$
CHEMBL3265029
  -OEChem-05192314333D
 Structure written by MMmdl.
 43 47  0     1  0  0  0  0  0999 V2000
   -4.2507   -3.1011   13.5632 C   0  0  0  0  0  0  0  0  0  0  0  0
   -3.8673   -2.3305   14.6902 O   0  0  0  0  0  0  0  0  0  0  0  0
   -2.5168   -2.0957   14.8067 C   0  0  0  0  0  0  0  0  0  0  0  0
   -1.9172   -1.0702   14.0633 C   0  0  0  0  0  0  0  0  0  0  0  0
   -0.5491   -0.8101   14.2065 C   0  0  0  0  0  0  0  0  0  0  0  0
    0.2199   -1.5870   15.0928 C   0  0  0  0  0  0  0  0  0  0  0  0
    1.6080   -1.3729   15.3230 N   0  0  0  0  0  0  0  0  0  0  0  0
    2.5324   -0.4358   14.7759 C   0  0  0  0  0  0  0  0  0  0  0  0
    2.1663    0.3860   13.7470 N   0  0  0  0  0  0  0  0  0  0  0  0
    3.0989    1.2355   13.2241 C   0  0  0  0  0  0  0  0  0  0  0  0
    4.4088    1.2797   13.7018 C   0  0  0  0  0  0  0  0  0  0  0  0
    4.7449    0.4891   14.7567 N   0  0  0  0  0  0  0  0  0  0  0  0
    5.8960    0.3776   15.4790 C   0  0  0  0  0  0  0  0  0  0  0  0
    5.5960   -0.5292   16.5069 C   0  0  0  0  0  0  0  0  0  0  0  0
    4.3874   -1.0583   16.3532 N   0  0  0  0  0  0  0  0  0  0  0  0
    3.8346   -0.3857   15.3305 C   0  0  0  0  0  0  0  0  0  0  0  0
    2.6263    2.1555   12.1187 C   0  0  0  0  0  0  0  0  0  0  0  0
    3.5439    2.6382   11.1639 C   0  0  0  0  0  0  0  0  0  0  0  0
    3.1468    3.4593   10.1107 C   0  0  0  0  0  0  0  0  0  0  0  0
    1.8029    3.8136   10.0160 C   0  0  0  0  0  0  0  0  0  0  0  0
    0.9932    4.6001    9.1195 C   0  0  0  0  0  0  0  0  0  0  0  0
   -0.2428    4.6141    9.5158 N   0  0  0  0  0  0  0  0  0  0  0  0
   -0.3351    3.8865   10.6250 N   0  0  0  0  0  0  0  0  0  0  0  0
    0.8815    3.3478   10.9920 C   0  0  3  0  0  0  0  0  0  0  0  0
    1.2640    2.5243   12.0473 C   0  0  0  0  0  0  0  0  0  0  0  0
   -0.3962   -2.6164   15.8132 C   0  0  0  0  0  0  0  0  0  0  0  0
   -1.7505   -2.8679   15.6748 C   0  0  0  0  0  0  0  0  0  0  0  0
   -5.3430   -3.2313   13.5618 H   0  0  0  0  0  0  0  0  0  0  0  0
   -3.9421   -2.5834   12.6430 H   0  0  0  0  0  0  0  0  0  0  0  0
   -3.7642   -4.0865   13.6103 H   0  0  0  0  0  0  0  0  0  0  0  0
   -2.5104   -0.4806   13.3800 H   0  0  0  0  0  0  0  0  0  0  0  0
   -0.0857   -0.0165   13.6391 H   0  0  0  0  0  0  0  0  0  0  0  0
    5.0681    1.0025   12.8660 H   0  0  0  0  0  0  0  0  0  0  0  0
    4.6106    2.3195   13.9988 H   0  0  0  0  0  0  0  0  0  0  0  0
    6.8355    0.8789   15.2989 H   0  0  0  0  0  0  0  0  0  0  0  0
    6.2643   -0.7672   17.3213 H   0  0  0  0  0  0  0  0  0  0  0  0
    4.5848    2.3637   11.2512 H   0  0  0  0  0  0  0  0  0  0  0  0
    3.8640    3.8128    9.3848 H   0  0  0  0  0  0  0  0  0  0  0  0
    1.3633    5.1070    8.2406 H   0  0  0  0  0  0  0  0  0  0  0  0
    0.6754    2.4611   10.3745 H   0  0  0  0  0  0  0  0  0  0  0  0
    0.5493    2.1816   12.7809 H   0  0  0  0  0  0  0  0  0  0  0  0
    0.1925   -3.2225   16.4859 H   0  0  0  0  0  0  0  0  0  0  0  0
   -2.2125   -3.6634   16.2406 H   0  0  0  0  0  0  0  0  0  0  0  0
  1  2  1  0  0  0  0
  2  3  1  0  0  0  0
  3  4  2  0  0  0  0
  3 27  1  0  0  0  0
  4  5  1  0  0  0  0
  5  6  2  0  0  0  0
  6  7  1  0  0  0  0
  6 26  1  0  0  0  0
  7  8  2  0  0  0  0
  8  9  1  0  0  0  0
  8 16  1  0  0  0  0
  9 10  2  0  0  0  0
 10 11  1  0  0  0  0
 10 17  1  0  0  0  0
 11 12  1  0  0  0  0
 12 13  1  0  0  0  0
 12 16  1  0  0  0  0
 13 14  2  0  0  0  0
 14 15  1  0  0  0  0
 15 16  2  0  0  0  0
 17 18  1  0  0  0  0
 17 25  2  0  0  0  0
 18 19  2  0  0  0  0
 19 20  1  0  0  0  0
 20 21  2  0  0  0  0
 20 24  1  0  0  0  0
 21 22  1  0  0  0  0
 22 23  2  0  0  0  0
 23 24  1  0  0  0  0
 24 25  1  0  0  0  0
 26 27  2  0  0  0  0
  1 28  1  0  0  0  0
  1 29  1  0  0  0  0
  1 30  1  0  0  0  0
  4 31  1  0  0  0  0
  5 32  1  0  0  0  0
 11 33  1  0  0  0  0
 11 34  1  0  0  0  0
 13 35  1  0  0  0  0
 14 36  1  0  0  0  0
 18 37  1  0  0  0  0
 19 38  1  0  0  0  0
 21 39  1  0  0  0  0
 24 40  1  0  0  0  0
 25 41  1  0  0  0  0
 26 42  1  0  0  0  0
 27 43  1  0  0  0  0
M  END
> <IC50[nM]>
7

$$$$
CHEMBL3265029
  -OEChem-05192314333D
 Structure written by MMmdl.
 43 47  0     0  0  0  0  0  0999 V2000
   -4.2507   -3.1011   13.5632 C   0  0  0  0  0  0  0  0  0  0  0  0
   -3.8673   -2.3305   14.6902 O   0  0  0  0  0  0  0  0  0  0  0  0
   -2.5168   -2.0957   14.8067 C   0  0  0  0  0  0  0  0  0  0  0  0
   -1.9172   -1.0702   14.0633 C   0  0  0  0  0  0  0  0  0  0  0  0
   -0.5491   -0.8101   14.2065 C   0  0  0  0  0  0  0  0  0  0  0  0
    0.2199   -1.5870   15.0928 C   0  0  0  0  0  0  0  0  0  0  0  0
    1.6080   -1.3729   15.3230 N   0  0  0  0  0  0  0  0  0  0  0  0
    2.5324   -0.4358   14.7759 C   0  0  0  0  0  0  0  0  0  0  0  0
    2.1663    0.3860   13.7470 N   0  0  0  0  0  0  0  0  0  0  0  0
    3.0989    1.2355   13.2241 C   0  0  0  0  0  0  0  0  0  0  0  0
    4.4088    1.2797   13.7018 C   0  0  0  0  0  0  0  0  0  0  0  0
    4.7449    0.4891   14.7567 N   0  0  0  0  0  0  0  0  0  0  0  0
    5.8960    0.3776   15.4790 C   0  0  0  0  0  0  0  0  0  0  0  0
    5.5960   -0.5292   16.5069 C   0  0  0  0  0  0  0  0  0  0  0  0
    4.3874   -1.0583   16.3532 N   0  0  0  0  0  0  0  0  0  0  0  0
    3.8346   -0.3857   15.3305 C   0  0  0  0  0  0  0  0  0  0  0  0
    2.6263    2.1555   12.1187 C   0  0  0  0  0  0  0  0  0  0  0  0
    3.5439    2.6382   11.1639 C   0  0  0  0  0  0  0  0  0  0  0  0
    3.1468    3.4593   10.1107 C   0  0  0  0  0  0  0  0  0  0  0  0
    1.8029    3.8136   10.0160 C   0  0  0  0  0  0  0  0  0  0  0  0
    0.9932    4.6001    9.1195 C   0  0  0  0  0  0  0  0  0  0  0  0
   -0.2428    4.6141    9.5158 N   0  0  0  0  0  0  0  0  0  0  0  0
   -0.3351    3.8865   10.6250 N   0  0  0  0  0  0  0  0  0  0  0  0
    0.8815    3.3478   10.9920 C   0  0  0  0  0  0  0  0  0  0  0  0
    1.2640    2.5243   12.0473 C   0  0  0  0  0  0  0  0  0  0  0  0
   -0.3962   -2.6164   15.8132 C   0  0  0  0  0  0  0  0  0  0  0  0
   -1.7505   -2.8679   15.6748 C   0  0  0  0  0  0  0  0  0  0  0  0
   -5.3430   -3.2313   13.5618 H   0  0  0  0  0  0  0  0  0  0  0  0
   -3.9421   -2.5834   12.6430 H   0  0  0  0  0  0  0  0  0  0  0  0
   -3.7642   -4.0865   13.6103 H   0  0  0  0  0  0  0  0  0  0  0  0
   -2.5104   -0.4806   13.3800 H   0  0  0  0  0  0  0  0  0  0  0  0
   -0.0857   -0.0165   13.6391 H   0  0  0  0  0  0  0  0  0  0  0  0
    5.0681    1.0025   12.8660 H   0  0  0  0  0  0  0  0  0  0  0  0
    4.6106    2.3195   13.9988 H   0  0  0  0  0  0  0  0  0  0  0  0
    6.8355    0.8789   15.2989 H   0  0  0  0  0  0  0  0  0  0  0  0
    6.2643   -0.7672   17.3213 H   0  0  0  0  0  0  0  0  0  0  0  0
    4.5848    2.3637   11.2512 H   0  0  0  0  0  0  0  0  0  0  0  0
    3.7240    4.3923   10.1905 H   0  0  0  0  0  0  0  0  0  0  0  0
    3.4131    2.9421    9.1771 H   0  0  0  0  0  0  0  0  0  0  0  0
    1.3633    5.1070    8.2406 H   0  0  0  0  0  0  0  0  0  0  0  0
    0.5493    2.1816   12.7809 H   0  0  0  0  0  0  0  0  0  0  0  0
    0.1925   -3.2225   16.4859 H   0  0  0  0  0  0  0  0  0  0  0  0
   -2.2125   -3.6634   16.2406 H   0  0  0  0  0  0  0  0  0  0  0  0
  1  2  1  0  0  0  0
  2  3  1  0  0  0  0
  3  4  2  0  0  0  0
  3 27  1  0  0  0  0
  4  5  1  0  0  0  0
  5  6  2  0  0  0  0
  6  7  1  0  0  0  0
  6 26  1  0  0  0  0
  7  8  2  0  0  0  0
  8  9  1  0  0  0  0
  8 16  1  0  0  0  0
  9 10  2  0  0  0  0
 10 11  1  0  0  0  0
 10 17  1  0  0  0  0
 11 12  1  0  0  0  0
 12 13  1  0  0  0  0
 12 16  1  0  0  0  0
 13 14  2  0  0  0  0
 14 15  1  0  0  0  0
 15 16  2  0  0  0  0
 17 18  2  0  0  0  0
 17 25  1  0  0  0  0
 18 19  1  0  0  0  0
 19 20  1  0  0  0  0
 20 21  2  0  0  0  0
 20 24  1  0  0  0  0
 21 22  1  0  0  0  0
 22 23  2  0  0  0  0
 23 24  1  0  0  0  0
 24 25  2  0  0  0  0
 26 27  2  0  0  0  0
  1 28  1  0  0  0  0
  1 29  1  0  0  0  0
  1 30  1  0  0  0  0
  4 31  1  0  0  0  0
  5 32  1  0  0  0  0
 11 33  1  0  0  0  0
 11 34  1  0  0  0  0
 13 35  1  0  0  0  0
 14 36  1  0  0  0  0
 18 37  1  0  0  0  0
 19 38  1  0  0  0  0
 19 39  1  0  0  0  0
 21 40  1  0  0  0  0
 25 41  1  0  0  0  0
 26 42  1  0  0  0  0
 27 43  1  0  0  0  0
M  END
> <IC50[nM]>
7

$$$$
CHEMBL3265029
  -OEChem-05192314333D
 Structure written by MMmdl.
 43 47  0     0  0  0  0  0  0999 V2000
   -4.2507   -3.1011   13.5632 C   0  0  0  0  0  0  0  0  0  0  0  0
   -3.8673   -2.3305   14.6902 O   0  0  0  0  0  0  0  0  0  0  0  0
   -2.5168   -2.0957   14.8067 C   0  0  0  0  0  0  0  0  0  0  0  0
   -1.9172   -1.0702   14.0633 C   0  0  0  0  0  0  0  0  0  0  0  0
   -0.5491   -0.8101   14.2065 C   0  0  0  0  0  0  0  0  0  0  0  0
    0.2199   -1.5870   15.0928 C   0  0  0  0  0  0  0  0  0  0  0  0
    1.6080   -1.3729   15.3230 N   0  0  0  0  0  0  0  0  0  0  0  0
    2.5324   -0.4358   14.7759 C   0  0  0  0  0  0  0  0  0  0  0  0
    2.1663    0.3860   13.7470 N   0  0  0  0  0  0  0  0  0  0  0  0
    3.0989    1.2355   13.2241 C   0  0  0  0  0  0  0  0  0  0  0  0
    4.4088    1.2797   13.7018 C   0  0  0  0  0  0  0  0  0  0  0  0
    4.7449    0.4891   14.7567 N   0  0  0  0  0  0  0  0  0  0  0  0
    5.8960    0.3776   15.4790 C   0  0  0  0  0  0  0  0  0  0  0  0
    5.5960   -0.5292   16.5069 C   0  0  0  0  0  0  0  0  0  0  0  0
    4.3874   -1.0583   16.3532 N   0  0  0  0  0  0  0  0  0  0  0  0
    3.8346   -0.3857   15.3305 C   0  0  0  0  0  0  0  0  0  0  0  0
    2.6263    2.1555   12.1187 C   0  0  0  0  0  0  0  0  0  0  0  0
    3.5439    2.6382   11.1639 C   0  0  0  0  0  0  0  0  0  0  0  0
    3.1468    3.4593   10.1107 C   0  0  0  0  0  0  0  0  0  0  0  0
    1.8029    3.8136   10.0160 C   0  0  0  0  0  0  0  0  0  0  0  0
    0.9932    4.6001    9.1195 C   0  0  0  0  0  0  0  0  0  0  0  0
   -0.2428    4.6141    9.5158 N   0  0  0  0  0  0  0  0  0  0  0  0
   -0.3351    3.8865   10.6250 N   0  0  0  0  0  0  0  0  0  0  0  0
    0.8815    3.3478   10.9920 C   0  0  0  0  0  0  0  0  0  0  0  0
    1.2640    2.5243   12.0473 C   0  0  0  0  0  0  0  0  0  0  0  0
   -0.3962   -2.6164   15.8132 C   0  0  0  0  0  0  0  0  0  0  0  0
   -1.7505   -2.8679   15.6748 C   0  0  0  0  0  0  0  0  0  0  0  0
   -5.3430   -3.2313   13.5618 H   0  0  0  0  0  0  0  0  0  0  0  0
   -3.9421   -2.5834   12.6430 H   0  0  0  0  0  0  0  0  0  0  0  0
   -3.7642   -4.0865   13.6103 H   0  0  0  0  0  0  0  0  0  0  0  0
   -2.3186   -2.8077   13.9920 H   0  0  0  0  0  0  0  0  0  0  0  0
   -2.5104   -0.4806   13.3800 H   0  0  0  0  0  0  0  0  0  0  0  0
   -0.0857   -0.0165   13.6391 H   0  0  0  0  0  0  0  0  0  0  0  0
    5.0681    1.0025   12.8660 H   0  0  0  0  0  0  0  0  0  0  0  0
    4.6106    2.3195   13.9988 H   0  0  0  0  0  0  0  0  0  0  0  0
    6.8355    0.8789   15.2989 H   0  0  0  0  0  0  0  0  0  0  0  0
    6.2643   -0.7672   17.3213 H   0  0  0  0  0  0  0  0  0  0  0  0
    4.5848    2.3637   11.2512 H   0  0  0  0  0  0  0  0  0  0  0  0
    3.8640    3.8128    9.3848 H   0  0  0  0  0  0  0  0  0  0  0  0
    1.3633    5.1070    8.2406 H   0  0  0  0  0  0  0  0  0  0  0  0
    0.5493    2.1816   12.7809 H   0  0  0  0  0  0  0  0  0  0  0  0
    0.1925   -3.2225   16.4859 H   0  0  0  0  0  0  0  0  0  0  0  0
   -2.2125   -3.6634   16.2406 H   0  0  0  0  0  0  0  0  0  0  0  0
  1  2  1  0  0  0  0
  2  3  1  0  0  0  0
  3  4  1  0  0  0  0
  3 27  1  0  0  0  0
  4  5  2  0  0  0  0
  5  6  1  0  0  0  0
  6  7  2  0  0  0  0
  6 26  1  0  0  0  0
  7  8  1  0  0  0  0
  8  9  2  0  0  0  0
  8 16  1  0  0  0  0
  9 10  1  0  0  0  0
 10 11  1  0  0  0  0
 10 17  2  0  0  0  0
 11 12  1  0  0  0  0
 12 13  1  0  0  0  0
 12 16  1  0  0  0  0
 13 14  2  0  0  0  0
 14 15  1  0  0  0  0
 15 16  2  0  0  0  0
 17 18  1  0  0  0  0
 17 25  1  0  0  0  0
 18 19  2  0  0  0  0
 19 20  1  0  0  0  0
 20 21  2  0  0  0  0
 20 24  1  0  0  0  0
 21 22  1  0  0  0  0
 22 23  2  0  0  0  0
 23 24  1  0  0  0  0
 24 25  2  0  0  0  0
 26 27  2  0  0  0  0
  1 28  1  0  0  0  0
  1 29  1  0  0  0  0
  1 30  1  0  0  0  0
  3 31  1  0  0  0  0
  4 32  1  0  0  0  0
  5 33  1  0  0  0  0
 11 34  1  0  0  0  0
 11 35  1  0  0  0  0
 13 36  1  0  0  0  0
 14 37  1  0  0  0  0
 18 38  1  0  0  0  0
 19 39  1  0  0  0  0
 21 40  1  0  0  0  0
 25 41  1  0  0  0  0
 26 42  1  0  0  0  0
 27 43  1  0  0  0  0
M  END
> <IC50[nM]>
7

$$$$
CHEMBL3265029
  -OEChem-05192314333D
 Structure written by MMmdl.
 43 47  0     0  0  0  0  0  0999 V2000
   -4.2507   -3.1011   13.5632 C   0  0  0  0  0  0  0  0  0  0  0  0
   -3.8673   -2.3305   14.6902 O   0  0  0  0  0  0  0  0  0  0  0  0
   -2.5168   -2.0957   14.8067 C   0  0  0  0  0  0  0  0  0  0  0  0
   -1.9172   -1.0702   14.0633 C   0  0  0  0  0  0  0  0  0  0  0  0
   -0.5491   -0.8101   14.2065 C   0  0  0  0  0  0  0  0  0  0  0  0
    0.2199   -1.5870   15.0928 C   0  0  0  0  0  0  0  0  0  0  0  0
    1.6080   -1.3729   15.3230 N   0  0  0  0  0  0  0  0  0  0  0  0
    2.5324   -0.4358   14.7759 C   0  0  0  0  0  0  0  0  0  0  0  0
    2.1663    0.3860   13.7470 N   0  0  0  0  0  0  0  0  0  0  0  0
    3.0989    1.2355   13.2241 C   0  0  0  0  0  0  0  0  0  0  0  0
    4.4088    1.2797   13.7018 C   0  0  0  0  0  0  0  0  0  0  0  0
    4.7449    0.4891   14.7567 N   0  0  0  0  0  0  0  0  0  0  0  0
    5.8960    0.3776   15.4790 C   0  0  0  0  0  0  0  0  0  0  0  0
    5.5960   -0.5292   16.5069 C   0  0  0  0  0  0  0  0  0  0  0  0
    4.3874   -1.0583   16.3532 N   0  0  0  0  0  0  0  0  0  0  0  0
    3.8346   -0.3857   15.3305 C   0  0  0  0  0  0  0  0  0  0  0  0
    2.6263    2.1555   12.1187 C   0  0  0  0  0  0  0  0  0  0  0  0
    3.5439    2.6382   11.1639 C   0  0  0  0  0  0  0  0  0  0  0  0
    3.1468    3.4593   10.1107 C   0  0  0  0  0  0  0  0  0  0  0  0
    1.8029    3.8136   10.0160 C   0  0  0  0  0  0  0  0  0  0  0  0
    0.9932    4.6001    9.1195 C   0  0  0  0  0  0  0  0  0  0  0  0
   -0.2428    4.6141    9.5158 N   0  0  0  0  0  0  0  0  0  0  0  0
   -0.3351    3.8865   10.6250 N   0  0  0  0  0  0  0  0  0  0  0  0
    0.8815    3.3478   10.9920 C   0  0  0  0  0  0  0  0  0  0  0  0
    1.2640    2.5243   12.0473 C   0  0  0  0  0  0  0  0  0  0  0  0
   -0.3962   -2.6164   15.8132 C   0  0  0  0  0  0  0  0  0  0  0  0
   -1.7505   -2.8679   15.6748 C   0  0  0  0  0  0  0  0  0  0  0  0
   -5.3430   -3.2313   13.5618 H   0  0  0  0  0  0  0  0  0  0  0  0
   -3.9421   -2.5834   12.6430 H   0  0  0  0  0  0  0  0  0  0  0  0
   -3.7642   -4.0865   13.6103 H   0  0  0  0  0  0  0  0  0  0  0  0
   -2.5104   -0.4806   13.3800 H   0  0  0  0  0  0  0  0  0  0  0  0
   -0.0857   -0.0165   13.6391 H   0  0  0  0  0  0  0  0  0  0  0  0
    5.0681    1.0025   12.8660 H   0  0  0  0  0  0  0  0  0  0  0  0
    4.6106    2.3195   13.9988 H   0  0  0  0  0  0  0  0  0  0  0  0
    6.8355    0.8789   15.2989 H   0  0  0  0  0  0  0  0  0  0  0  0
    6.2643   -0.7672   17.3213 H   0  0  0  0  0  0  0  0  0  0  0  0
    4.5848    2.3637   11.2512 H   0  0  0  0  0  0  0  0  0  0  0  0
    3.8640    3.8128    9.3848 H   0  0  0  0  0  0  0  0  0  0  0  0
    1.3633    5.1070    8.2406 H   0  0  0  0  0  0  0  0  0  0  0  0
    0.5493    2.1816   12.7809 H   0  0  0  0  0  0  0  0  0  0  0  0
    0.1247   -3.5458   15.5395 H   0  0  0  0  0  0  0  0  0  0  0  0
   -0.2248   -2.3999   16.8780 H   0  0  0  0  0  0  0  0  0  0  0  0
   -2.2125   -3.6634   16.2406 H   0  0  0  0  0  0  0  0  0  0  0  0
  1  2  1  0  0  0  0
  2  3  1  0  0  0  0
  3  4  1  0  0  0  0
  3 27  2  0  0  0  0
  4  5  2  0  0  0  0
  5  6  1  0  0  0  0
  6  7  2  0  0  0  0
  6 26  1  0  0  0  0
  7  8  1  0  0  0  0
  8  9  2  0  0  0  0
  8 16  1  0  0  0  0
  9 10  1  0  0  0  0
 10 11  1  0  0  0  0
 10 17  2  0  0  0  0
 11 12  1  0  0  0  0
 12 13  1  0  0  0  0
 12 16  1  0  0  0  0
 13 14  2  0  0  0  0
 14 15  1  0  0  0  0
 15 16  2  0  0  0  0
 17 18  1  0  0  0  0
 17 25  1  0  0  0  0
 18 19  2  0  0  0  0
 19 20  1  0  0  0  0
 20 21  2  0  0  0  0
 20 24  1  0  0  0  0
 21 22  1  0  0  0  0
 22 23  2  0  0  0  0
 23 24  1  0  0  0  0
 24 25  2  0  0  0  0
 26 27  1  0  0  0  0
  1 28  1  0  0  0  0
  1 29  1  0  0  0  0
  1 30  1  0  0  0  0
  4 31  1  0  0  0  0
  5 32  1  0  0  0  0
 11 33  1  0  0  0  0
 11 34  1  0  0  0  0
 13 35  1  0  0  0  0
 14 36  1  0  0  0  0
 18 37  1  0  0  0  0
 19 38  1  0  0  0  0
 21 39  1  0  0  0  0
 25 40  1  0  0  0  0
 26 41  1  0  0  0  0
 26 42  1  0  0  0  0
 27 43  1  0  0  0  0
M  END
> <IC50[nM]>
7

$$$$
CHEMBL3265029
  -OEChem-05192314333D
 Structure written by MMmdl.
 43 47  0     1  0  0  0  0  0999 V2000
   -4.2507   -3.1011   13.5632 C   0  0  0  0  0  0  0  0  0  0  0  0
   -3.8673   -2.3305   14.6902 O   0  0  0  0  0  0  0  0  0  0  0  0
   -2.5168   -2.0957   14.8067 C   0  0  0  0  0  0  0  0  0  0  0  0
   -1.9172   -1.0702   14.0633 C   0  0  0  0  0  0  0  0  0  0  0  0
   -0.5491   -0.8101   14.2065 C   0  0  0  0  0  0  0  0  0  0  0  0
    0.2199   -1.5870   15.0928 C   0  0  0  0  0  0  0  0  0  0  0  0
    1.6080   -1.3729   15.3230 N   0  0  0  0  0  0  0  0  0  0  0  0
    2.5324   -0.4358   14.7759 C   0  0  0  0  0  0  0  0  0  0  0  0
    2.1663    0.3860   13.7470 N   0  0  0  0  0  0  0  0  0  0  0  0
    3.0989    1.2355   13.2241 C   0  0  0  0  0  0  0  0  0  0  0  0
    4.4088    1.2797   13.7018 C   0  0  0  0  0  0  0  0  0  0  0  0
    4.7449    0.4891   14.7567 N   0  0  0  0  0  0  0  0  0  0  0  0
    5.8960    0.3776   15.4790 C   0  0  0  0  0  0  0  0  0  0  0  0
    5.5960   -0.5292   16.5069 C   0  0  0  0  0  0  0  0  0  0  0  0
    4.3874   -1.0583   16.3532 N   0  0  0  0  0  0  0  0  0  0  0  0
    3.8346   -0.3857   15.3305 C   0  0  0  0  0  0  0  0  0  0  0  0
    2.6263    2.1555   12.1187 C   0  0  0  0  0  0  0  0  0  0  0  0
    3.5439    2.6382   11.1639 C   0  0  0  0  0  0  0  0  0  0  0  0
    3.1468    3.4593   10.1107 C   0  0  0  0  0  0  0  0  0  0  0  0
    1.8029    3.8136   10.0160 C   0  0  3  0  0  0  0  0  0  0  0  0
    0.9932    4.6001    9.1195 C   0  0  0  0  0  0  0  0  0  0  0  0
   -0.2428    4.6141    9.5158 N   0  0  0  0  0  0  0  0  0  0  0  0
   -0.3351    3.8865   10.6250 N   0  0  0  0  0  0  0  0  0  0  0  0
    0.8815    3.3478   10.9920 C   0  0  0  0  0  0  0  0  0  0  0  0
    1.2640    2.5243   12.0473 C   0  0  0  0  0  0  0  0  0  0  0  0
   -0.3962   -2.6164   15.8132 C   0  0  0  0  0  0  0  0  0  0  0  0
   -1.7505   -2.8679   15.6748 C   0  0  0  0  0  0  0  0  0  0  0  0
   -5.3430   -3.2313   13.5618 H   0  0  0  0  0  0  0  0  0  0  0  0
   -3.9421   -2.5834   12.6430 H   0  0  0  0  0  0  0  0  0  0  0  0
   -3.7642   -4.0865   13.6103 H   0  0  0  0  0  0  0  0  0  0  0  0
   -2.3186   -2.8077   13.9920 H   0  0  0  0  0  0  0  0  0  0  0  0
   -2.5104   -0.4806   13.3800 H   0  0  0  0  0  0  0  0  0  0  0  0
   -0.0857   -0.0165   13.6391 H   0  0  0  0  0  0  0  0  0  0  0  0
    5.1410    1.9281   13.2437 H   0  0  0  0  0  0  0  0  0  0  0  0
    6.8355    0.8789   15.2989 H   0  0  0  0  0  0  0  0  0  0  0  0
    6.2643   -0.7672   17.3213 H   0  0  0  0  0  0  0  0  0  0  0  0
    4.5848    2.3637   11.2512 H   0  0  0  0  0  0  0  0  0  0  0  0
    3.8640    3.8128    9.3848 H   0  0  0  0  0  0  0  0  0  0  0  0
    1.6096    2.9188    9.4061 H   0  0  0  0  0  0  0  0  0  0  0  0
    1.3633    5.1070    8.2406 H   0  0  0  0  0  0  0  0  0  0  0  0
    0.5493    2.1816   12.7809 H   0  0  0  0  0  0  0  0  0  0  0  0
    0.1925   -3.2225   16.4859 H   0  0  0  0  0  0  0  0  0  0  0  0
   -2.2125   -3.6634   16.2406 H   0  0  0  0  0  0  0  0  0  0  0  0
  1  2  1  0  0  0  0
  2  3  1  0  0  0  0
  3  4  1  0  0  0  0
  3 27  1  0  0  0  0
  4  5  2  0  0  0  0
  5  6  1  0  0  0  0
  6  7  2  0  0  0  0
  6 26  1  0  0  0  0
  7  8  1  0  0  0  0
  8  9  2  0  0  0  0
  8 16  1  0  0  0  0
  9 10  1  0  0  0  0
 10 11  2  0  0  0  0
 10 17  1  0  0  0  0
 11 12  1  0  0  0  0
 12 13  1  0  0  0  0
 12 16  1  0  0  0  0
 13 14  2  0  0  0  0
 14 15  1  0  0  0  0
 15 16  2  0  0  0  0
 17 18  1  0  0  0  0
 17 25  2  0  0  0  0
 18 19  2  0  0  0  0
 19 20  1  0  0  0  0
 20 21  1  0  0  0  0
 20 24  1  0  0  0  0
 21 22  2  0  0  0  0
 22 23  1  0  0  0  0
 23 24  2  0  0  0  0
 24 25  1  0  0  0  0
 26 27  2  0  0  0  0
  1 28  1  0  0  0  0
  1 29  1  0  0  0  0
  1 30  1  0  0  0  0
  3 31  1  0  0  0  0
  4 32  1  0  0  0  0
  5 33  1  0  0  0  0
 11 34  1  0  0  0  0
 13 35  1  0  0  0  0
 14 36  1  0  0  0  0
 18 37  1  0  0  0  0
 19 38  1  0  0  0  0
 20 39  1  0  0  0  0
 21 40  1  0  0  0  0
 25 41  1  0  0  0  0
 26 42  1  0  0  0  0
 27 43  1  0  0  0  0
M  END
> <IC50[nM]>
7

$$$$
CHEMBL3265029
  -OEChem-05192314333D
 Structure written by MMmdl.
 43 47  0     1  0  0  0  0  0999 V2000
   -4.2507   -3.1011   13.5632 C   0  0  0  0  0  0  0  0  0  0  0  0
   -3.8673   -2.3305   14.6902 O   0  0  0  0  0  0  0  0  0  0  0  0
   -2.5168   -2.0957   14.8067 C   0  0  0  0  0  0  0  0  0  0  0  0
   -1.9172   -1.0702   14.0633 C   0  0  0  0  0  0  0  0  0  0  0  0
   -0.5491   -0.8101   14.2065 C   0  0  0  0  0  0  0  0  0  0  0  0
    0.2199   -1.5870   15.0928 C   0  0  0  0  0  0  0  0  0  0  0  0
    1.6080   -1.3729   15.3230 N   0  0  0  0  0  0  0  0  0  0  0  0
    2.5324   -0.4358   14.7759 C   0  0  0  0  0  0  0  0  0  0  0  0
    2.1663    0.3860   13.7470 N   0  0  0  0  0  0  0  0  0  0  0  0
    3.0989    1.2355   13.2241 C   0  0  0  0  0  0  0  0  0  0  0  0
    4.4088    1.2797   13.7018 C   0  0  0  0  0  0  0  0  0  0  0  0
    4.7449    0.4891   14.7567 N   0  0  0  0  0  0  0  0  0  0  0  0
    5.8960    0.3776   15.4790 C   0  0  0  0  0  0  0  0  0  0  0  0
    5.5960   -0.5292   16.5069 C   0  0  0  0  0  0  0  0  0  0  0  0
    4.3874   -1.0583   16.3532 N   0  0  0  0  0  0  0  0  0  0  0  0
    3.8346   -0.3857   15.3305 C   0  0  0  0  0  0  0  0  0  0  0  0
    2.6263    2.1555   12.1187 C   0  0  0  0  0  0  0  0  0  0  0  0
    3.5439    2.6382   11.1639 C   0  0  0  0  0  0  0  0  0  0  0  0
    3.1468    3.4593   10.1107 C   0  0  0  0  0  0  0  0  0  0  0  0
    1.8029    3.8136   10.0160 C   0  0  3  0  0  0  0  0  0  0  0  0
    0.9932    4.6001    9.1195 C   0  0  0  0  0  0  0  0  0  0  0  0
   -0.2428    4.6141    9.5158 N   0  0  0  0  0  0  0  0  0  0  0  0
   -0.3351    3.8865   10.6250 N   0  0  0  0  0  0  0  0  0  0  0  0
    0.8815    3.3478   10.9920 C   0  0  0  0  0  0  0  0  0  0  0  0
    1.2640    2.5243   12.0473 C   0  0  0  0  0  0  0  0  0  0  0  0
   -0.3962   -2.6164   15.8132 C   0  0  0  0  0  0  0  0  0  0  0  0
   -1.7505   -2.8679   15.6748 C   0  0  0  0  0  0  0  0  0  0  0  0
   -5.3430   -3.2313   13.5618 H   0  0  0  0  0  0  0  0  0  0  0  0
   -3.9421   -2.5834   12.6430 H   0  0  0  0  0  0  0  0  0  0  0  0
   -3.7642   -4.0865   13.6103 H   0  0  0  0  0  0  0  0  0  0  0  0
   -2.5104   -0.4806   13.3800 H   0  0  0  0  0  0  0  0  0  0  0  0
   -0.0857   -0.0165   13.6391 H   0  0  0  0  0  0  0  0  0  0  0  0
    5.1410    1.9281   13.2437 H   0  0  0  0  0  0  0  0  0  0  0  0
    6.8355    0.8789   15.2989 H   0  0  0  0  0  0  0  0  0  0  0  0
    6.2643   -0.7672   17.3213 H   0  0  0  0  0  0  0  0  0  0  0  0
    4.5848    2.3637   11.2512 H   0  0  0  0  0  0  0  0  0  0  0  0
    3.8640    3.8128    9.3848 H   0  0  0  0  0  0  0  0  0  0  0  0
    1.6096    2.9188    9.4061 H   0  0  0  0  0  0  0  0  0  0  0  0
    1.3633    5.1070    8.2406 H   0  0  0  0  0  0  0  0  0  0  0  0
    0.5493    2.1816   12.7809 H   0  0  0  0  0  0  0  0  0  0  0  0
    0.1247   -3.5458   15.5395 H   0  0  0  0  0  0  0  0  0  0  0  0
   -0.2248   -2.3999   16.8780 H   0  0  0  0  0  0  0  0  0  0  0  0
   -2.2125   -3.6634   16.2406 H   0  0  0  0  0  0  0  0  0  0  0  0
  1  2  1  0  0  0  0
  2  3  1  0  0  0  0
  3  4  1  0  0  0  0
  3 27  2  0  0  0  0
  4  5  2  0  0  0  0
  5  6  1  0  0  0  0
  6  7  2  0  0  0  0
  6 26  1  0  0  0  0
  7  8  1  0  0  0  0
  8  9  2  0  0  0  0
  8 16  1  0  0  0  0
  9 10  1  0  0  0  0
 10 11  2  0  0  0  0
 10 17  1  0  0  0  0
 11 12  1  0  0  0  0
 12 13  1  0  0  0  0
 12 16  1  0  0  0  0
 13 14  2  0  0  0  0
 14 15  1  0  0  0  0
 15 16  2  0  0  0  0
 17 18  1  0  0  0  0
 17 25  2  0  0  0  0
 18 19  2  0  0  0  0
 19 20  1  0  0  0  0
 20 21  1  0  0  0  0
 20 24  1  0  0  0  0
 21 22  2  0  0  0  0
 22 23  1  0  0  0  0
 23 24  2  0  0  0  0
 24 25  1  0  0  0  0
 26 27  1  0  0  0  0
  1 28  1  0  0  0  0
  1 29  1  0  0  0  0
  1 30  1  0  0  0  0
  4 31  1  0  0  0  0
  5 32  1  0  0  0  0
 11 33  1  0  0  0  0
 13 34  1  0  0  0  0
 14 35  1  0  0  0  0
 18 36  1  0  0  0  0
 19 37  1  0  0  0  0
 20 38  1  0  0  0  0
 21 39  1  0  0  0  0
 25 40  1  0  0  0  0
 26 41  1  0  0  0  0
 26 42  1  0  0  0  0
 27 43  1  0  0  0  0
M  END
> <IC50[nM]>
7

$$$$
CHEMBL3265029
  -OEChem-05192314333D
 Structure written by MMmdl.
 43 47  0     0  0  0  0  0  0999 V2000
   -4.2507   -3.1011   13.5632 C   0  0  0  0  0  0  0  0  0  0  0  0
   -3.8673   -2.3305   14.6902 O   0  0  0  0  0  0  0  0  0  0  0  0
   -2.5168   -2.0957   14.8067 C   0  0  0  0  0  0  0  0  0  0  0  0
   -1.9172   -1.0702   14.0633 C   0  0  0  0  0  0  0  0  0  0  0  0
   -0.5491   -0.8101   14.2065 C   0  0  0  0  0  0  0  0  0  0  0  0
    0.2199   -1.5870   15.0928 C   0  0  0  0  0  0  0  0  0  0  0  0
    1.6080   -1.3729   15.3230 N   0  0  0  0  0  0  0  0  0  0  0  0
    2.5324   -0.4358   14.7759 C   0  0  0  0  0  0  0  0  0  0  0  0
    2.1663    0.3860   13.7470 N   0  0  0  0  0  0  0  0  0  0  0  0
    3.0989    1.2355   13.2241 C   0  0  0  0  0  0  0  0  0  0  0  0
    4.4088    1.2797   13.7018 C   0  0  0  0  0  0  0  0  0  0  0  0
    4.7449    0.4891   14.7567 N   0  0  0  0  0  0  0  0  0  0  0  0
    5.8960    0.3776   15.4790 C   0  0  0  0  0  0  0  0  0  0  0  0
    5.5960   -0.5292   16.5069 C   0  0  0  0  0  0  0  0  0  0  0  0
    4.3874   -1.0583   16.3532 N   0  0  0  0  0  0  0  0  0  0  0  0
    3.8346   -0.3857   15.3305 C   0  0  0  0  0  0  0  0  0  0  0  0
    2.6263    2.1555   12.1187 C   0  0  0  0  0  0  0  0  0  0  0  0
    3.5439    2.6382   11.1639 C   0  0  0  0  0  0  0  0  0  0  0  0
    3.1468    3.4593   10.1107 C   0  0  0  0  0  0  0  0  0  0  0  0
    1.8029    3.8136   10.0160 C   0  0  0  0  0  0  0  0  0  0  0  0
    0.9932    4.6001    9.1195 C   0  0  0  0  0  0  0  0  0  0  0  0
   -0.2428    4.6141    9.5158 N   0  0  0  0  0  0  0  0  0  0  0  0
   -0.3351    3.8865   10.6250 N   0  0  0  0  0  0  0  0  0  0  0  0
    0.8815    3.3478   10.9920 C   0  0  0  0  0  0  0  0  0  0  0  0
    1.2640    2.5243   12.0473 C   0  0  0  0  0  0  0  0  0  0  0  0
   -0.3962   -2.6164   15.8132 C   0  0  0  0  0  0  0  0  0  0  0  0
   -1.7505   -2.8679   15.6748 C   0  0  0  0  0  0  0  0  0  0  0  0
   -5.3430   -3.2313   13.5618 H   0  0  0  0  0  0  0  0  0  0  0  0
   -3.9421   -2.5834   12.6430 H   0  0  0  0  0  0  0  0  0  0  0  0
   -3.7642   -4.0865   13.6103 H   0  0  0  0  0  0  0  0  0  0  0  0
   -2.3186   -2.8077   13.9920 H   0  0  0  0  0  0  0  0  0  0  0  0
   -2.5104   -0.4806   13.3800 H   0  0  0  0  0  0  0  0  0  0  0  0
   -0.0857   -0.0165   13.6391 H   0  0  0  0  0  0  0  0  0  0  0  0
    5.1410    1.9281   13.2437 H   0  0  0  0  0  0  0  0  0  0  0  0
    6.8355    0.8789   15.2989 H   0  0  0  0  0  0  0  0  0  0  0  0
    6.2643   -0.7672   17.3213 H   0  0  0  0  0  0  0  0  0  0  0  0
    4.3044    3.2016   11.7244 H   0  0  0  0  0  0  0  0  0  0  0  0
    4.0075    1.7519   10.7061 H   0  0  0  0  0  0  0  0  0  0  0  0
    3.8640    3.8128    9.3848 H   0  0  0  0  0  0  0  0  0  0  0  0
    1.3633    5.1070    8.2406 H   0  0  0  0  0  0  0  0  0  0  0  0
    0.5493    2.1816   12.7809 H   0  0  0  0  0  0  0  0  0  0  0  0
    0.1925   -3.2225   16.4859 H   0  0  0  0  0  0  0  0  0  0  0  0
   -2.2125   -3.6634   16.2406 H   0  0  0  0  0  0  0  0  0  0  0  0
  1  2  1  0  0  0  0
  2  3  1  0  0  0  0
  3  4  1  0  0  0  0
  3 27  1  0  0  0  0
  4  5  2  0  0  0  0
  5  6  1  0  0  0  0
  6  7  2  0  0  0  0
  6 26  1  0  0  0  0
  7  8  1  0  0  0  0
  8  9  2  0  0  0  0
  8 16  1  0  0  0  0
  9 10  1  0  0  0  0
 10 11  2  0  0  0  0
 10 17  1  0  0  0  0
 11 12  1  0  0  0  0
 12 13  1  0  0  0  0
 12 16  1  0  0  0  0
 13 14  2  0  0  0  0
 14 15  1  0  0  0  0
 15 16  2  0  0  0  0
 17 18  1  0  0  0  0
 17 25  2  0  0  0  0
 18 19  1  0  0  0  0
 19 20  2  0  0  0  0
 20 21  1  0  0  0  0
 20 24  1  0  0  0  0
 21 22  2  0  0  0  0
 22 23  1  0  0  0  0
 23 24  2  0  0  0  0
 24 25  1  0  0  0  0
 26 27  2  0  0  0  0
  1 28  1  0  0  0  0
  1 29  1  0  0  0  0
  1 30  1  0  0  0  0
  3 31  1  0  0  0  0
  4 32  1  0  0  0  0
  5 33  1  0  0  0  0
 11 34  1  0  0  0  0
 13 35  1  0  0  0  0
 14 36  1  0  0  0  0
 18 37  1  0  0  0  0
 18 38  1  0  0  0  0
 19 39  1  0  0  0  0
 21 40  1  0  0  0  0
 25 41  1  0  0  0  0
 26 42  1  0  0  0  0
 27 43  1  0  0  0  0
M  END
> <IC50[nM]>
7

$$$$
CHEMBL3265029
  -OEChem-05192314333D
 Structure written by MMmdl.
 43 47  0     0  0  0  0  0  0999 V2000
   -4.2507   -3.1011   13.5632 C   0  0  0  0  0  0  0  0  0  0  0  0
   -3.8673   -2.3305   14.6902 O   0  0  0  0  0  0  0  0  0  0  0  0
   -2.5168   -2.0957   14.8067 C   0  0  0  0  0  0  0  0  0  0  0  0
   -1.9172   -1.0702   14.0633 C   0  0  0  0  0  0  0  0  0  0  0  0
   -0.5491   -0.8101   14.2065 C   0  0  0  0  0  0  0  0  0  0  0  0
    0.2199   -1.5870   15.0928 C   0  0  0  0  0  0  0  0  0  0  0  0
    1.6080   -1.3729   15.3230 N   0  0  0  0  0  0  0  0  0  0  0  0
    2.5324   -0.4358   14.7759 C   0  0  0  0  0  0  0  0  0  0  0  0
    2.1663    0.3860   13.7470 N   0  0  0  0  0  0  0  0  0  0  0  0
    3.0989    1.2355   13.2241 C   0  0  0  0  0  0  0  0  0  0  0  0
    4.4088    1.2797   13.7018 C   0  0  0  0  0  0  0  0  0  0  0  0
    4.7449    0.4891   14.7567 N   0  0  0  0  0  0  0  0  0  0  0  0
    5.8960    0.3776   15.4790 C   0  0  0  0  0  0  0  0  0  0  0  0
    5.5960   -0.5292   16.5069 C   0  0  0  0  0  0  0  0  0  0  0  0
    4.3874   -1.0583   16.3532 N   0  0  0  0  0  0  0  0  0  0  0  0
    3.8346   -0.3857   15.3305 C   0  0  0  0  0  0  0  0  0  0  0  0
    2.6263    2.1555   12.1187 C   0  0  0  0  0  0  0  0  0  0  0  0
    3.5439    2.6382   11.1639 C   0  0  0  0  0  0  0  0  0  0  0  0
    3.1468    3.4593   10.1107 C   0  0  0  0  0  0  0  0  0  0  0  0
    1.8029    3.8136   10.0160 C   0  0  0  0  0  0  0  0  0  0  0  0
    0.9932    4.6001    9.1195 C   0  0  0  0  0  0  0  0  0  0  0  0
   -0.2428    4.6141    9.5158 N   0  0  0  0  0  0  0  0  0  0  0  0
   -0.3351    3.8865   10.6250 N   0  0  0  0  0  0  0  0  0  0  0  0
    0.8815    3.3478   10.9920 C   0  0  0  0  0  0  0  0  0  0  0  0
    1.2640    2.5243   12.0473 C   0  0  0  0  0  0  0  0  0  0  0  0
   -0.3962   -2.6164   15.8132 C   0  0  0  0  0  0  0  0  0  0  0  0
   -1.7505   -2.8679   15.6748 C   0  0  0  0  0  0  0  0  0  0  0  0
   -5.3430   -3.2313   13.5618 H   0  0  0  0  0  0  0  0  0  0  0  0
   -3.9421   -2.5834   12.6430 H   0  0  0  0  0  0  0  0  0  0  0  0
   -3.7642   -4.0865   13.6103 H   0  0  0  0  0  0  0  0  0  0  0  0
   -2.5104   -0.4806   13.3800 H   0  0  0  0  0  0  0  0  0  0  0  0
   -0.0857   -0.0165   13.6391 H   0  0  0  0  0  0  0  0  0  0  0  0
    5.1410    1.9281   13.2437 H   0  0  0  0  0  0  0  0  0  0  0  0
    6.8355    0.8789   15.2989 H   0  0  0  0  0  0  0  0  0  0  0  0
    6.2643   -0.7672   17.3213 H   0  0  0  0  0  0  0  0  0  0  0  0
    4.3044    3.2016   11.7244 H   0  0  0  0  0  0  0  0  0  0  0  0
    4.0075    1.7519   10.7061 H   0  0  0  0  0  0  0  0  0  0  0  0
    3.8640    3.8128    9.3848 H   0  0  0  0  0  0  0  0  0  0  0  0
    1.3633    5.1070    8.2406 H   0  0  0  0  0  0  0  0  0  0  0  0
    0.5493    2.1816   12.7809 H   0  0  0  0  0  0  0  0  0  0  0  0
    0.1247   -3.5458   15.5395 H   0  0  0  0  0  0  0  0  0  0  0  0
   -0.2248   -2.3999   16.8780 H   0  0  0  0  0  0  0  0  0  0  0  0
   -2.2125   -3.6634   16.2406 H   0  0  0  0  0  0  0  0  0  0  0  0
  1  2  1  0  0  0  0
  2  3  1  0  0  0  0
  3  4  1  0  0  0  0
  3 27  2  0  0  0  0
  4  5  2  0  0  0  0
  5  6  1  0  0  0  0
  6  7  2  0  0  0  0
  6 26  1  0  0  0  0
  7  8  1  0  0  0  0
  8  9  2  0  0  0  0
  8 16  1  0  0  0  0
  9 10  1  0  0  0  0
 10 11  2  0  0  0  0
 10 17  1  0  0  0  0
 11 12  1  0  0  0  0
 12 13  1  0  0  0  0
 12 16  1  0  0  0  0
 13 14  2  0  0  0  0
 14 15  1  0  0  0  0
 15 16  2  0  0  0  0
 17 18  1  0  0  0  0
 17 25  2  0  0  0  0
 18 19  1  0  0  0  0
 19 20  2  0  0  0  0
 20 21  1  0  0  0  0
 20 24  1  0  0  0  0
 21 22  2  0  0  0  0
 22 23  1  0  0  0  0
 23 24  2  0  0  0  0
 24 25  1  0  0  0  0
 26 27  1  0  0  0  0
  1 28  1  0  0  0  0
  1 29  1  0  0  0  0
  1 30  1  0  0  0  0
  4 31  1  0  0  0  0
  5 32  1  0  0  0  0
 11 33  1  0  0  0  0
 13 34  1  0  0  0  0
 14 35  1  0  0  0  0
 18 36  1  0  0  0  0
 18 37  1  0  0  0  0
 19 38  1  0  0  0  0
 21 39  1  0  0  0  0
 25 40  1  0  0  0  0
 26 41  1  0  0  0  0
 26 42  1  0  0  0  0
 27 43  1  0  0  0  0
M  END
> <IC50[nM]>
7

$$$$
CHEMBL3265029
  -OEChem-05192314333D
 Structure written by MMmdl.
 43 47  0     0  0  0  0  0  0999 V2000
   -4.2507   -3.1011   13.5632 C   0  0  0  0  0  0  0  0  0  0  0  0
   -3.8673   -2.3305   14.6902 O   0  0  0  0  0  0  0  0  0  0  0  0
   -2.5168   -2.0957   14.8067 C   0  0  0  0  0  0  0  0  0  0  0  0
   -1.9172   -1.0702   14.0633 C   0  0  0  0  0  0  0  0  0  0  0  0
   -0.5491   -0.8101   14.2065 C   0  0  0  0  0  0  0  0  0  0  0  0
    0.2199   -1.5870   15.0928 C   0  0  0  0  0  0  0  0  0  0  0  0
    1.6080   -1.3729   15.3230 N   0  0  0  0  0  0  0  0  0  0  0  0
    2.5324   -0.4358   14.7759 C   0  0  0  0  0  0  0  0  0  0  0  0
    2.1663    0.3860   13.7470 N   0  0  0  0  0  0  0  0  0  0  0  0
    3.0989    1.2355   13.2241 C   0  0  0  0  0  0  0  0  0  0  0  0
    4.4088    1.2797   13.7018 C   0  0  0  0  0  0  0  0  0  0  0  0
    4.7449    0.4891   14.7567 N   0  0  0  0  0  0  0  0  0  0  0  0
    5.8960    0.3776   15.4790 C   0  0  0  0  0  0  0  0  0  0  0  0
    5.5960   -0.5292   16.5069 C   0  0  0  0  0  0  0  0  0  0  0  0
    4.3874   -1.0583   16.3532 N   0  0  0  0  0  0  0  0  0  0  0  0
    3.8346   -0.3857   15.3305 C   0  0  0  0  0  0  0  0  0  0  0  0
    2.6263    2.1555   12.1187 C   0  0  0  0  0  0  0  0  0  0  0  0
    3.5439    2.6382   11.1639 C   0  0  0  0  0  0  0  0  0  0  0  0
    3.1468    3.4593   10.1107 C   0  0  0  0  0  0  0  0  0  0  0  0
    1.8029    3.8136   10.0160 C   0  0  0  0  0  0  0  0  0  0  0  0
    0.9932    4.6001    9.1195 C   0  0  0  0  0  0  0  0  0  0  0  0
   -0.2428    4.6141    9.5158 N   0  0  0  0  0  0  0  0  0  0  0  0
   -0.3351    3.8865   10.6250 N   0  0  0  0  0  0  0  0  0  0  0  0
    0.8815    3.3478   10.9920 C   0  0  0  0  0  0  0  0  0  0  0  0
    1.2640    2.5243   12.0473 C   0  0  0  0  0  0  0  0  0  0  0  0
   -0.3962   -2.6164   15.8132 C   0  0  0  0  0  0  0  0  0  0  0  0
   -1.7505   -2.8679   15.6748 C   0  0  0  0  0  0  0  0  0  0  0  0
   -5.3430   -3.2313   13.5618 H   0  0  0  0  0  0  0  0  0  0  0  0
   -3.9421   -2.5834   12.6430 H   0  0  0  0  0  0  0  0  0  0  0  0
   -3.7642   -4.0865   13.6103 H   0  0  0  0  0  0  0  0  0  0  0  0
   -2.3186   -2.8077   13.9920 H   0  0  0  0  0  0  0  0  0  0  0  0
   -2.5104   -0.4806   13.3800 H   0  0  0  0  0  0  0  0  0  0  0  0
   -0.0857   -0.0165   13.6391 H   0  0  0  0  0  0  0  0  0  0  0  0
    5.1410    1.9281   13.2437 H   0  0  0  0  0  0  0  0  0  0  0  0
    6.8355    0.8789   15.2989 H   0  0  0  0  0  0  0  0  0  0  0  0
    6.2643   -0.7672   17.3213 H   0  0  0  0  0  0  0  0  0  0  0  0
    4.5848    2.3637   11.2512 H   0  0  0  0  0  0  0  0  0  0  0  0
    3.8640    3.8128    9.3848 H   0  0  0  0  0  0  0  0  0  0  0  0
    1.3633    5.1070    8.2406 H   0  0  0  0  0  0  0  0  0  0  0  0
    0.6741    1.5987   11.9751 H   0  0  0  0  0  0  0  0  0  0  0  0
    1.0134    3.0469   12.9822 H   0  0  0  0  0  0  0  0  0  0  0  0
    0.1925   -3.2225   16.4859 H   0  0  0  0  0  0  0  0  0  0  0  0
   -2.2125   -3.6634   16.2406 H   0  0  0  0  0  0  0  0  0  0  0  0
  1  2  1  0  0  0  0
  2  3  1  0  0  0  0
  3  4  1  0  0  0  0
  3 27  1  0  0  0  0
  4  5  2  0  0  0  0
  5  6  1  0  0  0  0
  6  7  2  0  0  0  0
  6 26  1  0  0  0  0
  7  8  1  0  0  0  0
  8  9  2  0  0  0  0
  8 16  1  0  0  0  0
  9 10  1  0  0  0  0
 10 11  2  0  0  0  0
 10 17  1  0  0  0  0
 11 12  1  0  0  0  0
 12 13  1  0  0  0  0
 12 16  1  0  0  0  0
 13 14  2  0  0  0  0
 14 15  1  0  0  0  0
 15 16  2  0  0  0  0
 17 18  2  0  0  0  0
 17 25  1  0  0  0  0
 18 19  1  0  0  0  0
 19 20  2  0  0  0  0
 20 21  1  0  0  0  0
 20 24  1  0  0  0  0
 21 22  2  0  0  0  0
 22 23  1  0  0  0  0
 23 24  2  0  0  0  0
 24 25  1  0  0  0  0
 26 27  2  0  0  0  0
  1 28  1  0  0  0  0
  1 29  1  0  0  0  0
  1 30  1  0  0  0  0
  3 31  1  0  0  0  0
  4 32  1  0  0  0  0
  5 33  1  0  0  0  0
 11 34  1  0  0  0  0
 13 35  1  0  0  0  0
 14 36  1  0  0  0  0
 18 37  1  0  0  0  0
 19 38  1  0  0  0  0
 21 39  1  0  0  0  0
 25 40  1  0  0  0  0
 25 41  1  0  0  0  0
 26 42  1  0  0  0  0
 27 43  1  0  0  0  0
M  END
> <IC50[nM]>
7

$$$$
CHEMBL3265029
  -OEChem-05192314333D
 Structure written by MMmdl.
 43 47  0     0  0  0  0  0  0999 V2000
   -4.2507   -3.1011   13.5632 C   0  0  0  0  0  0  0  0  0  0  0  0
   -3.8673   -2.3305   14.6902 O   0  0  0  0  0  0  0  0  0  0  0  0
   -2.5168   -2.0957   14.8067 C   0  0  0  0  0  0  0  0  0  0  0  0
   -1.9172   -1.0702   14.0633 C   0  0  0  0  0  0  0  0  0  0  0  0
   -0.5491   -0.8101   14.2065 C   0  0  0  0  0  0  0  0  0  0  0  0
    0.2199   -1.5870   15.0928 C   0  0  0  0  0  0  0  0  0  0  0  0
    1.6080   -1.3729   15.3230 N   0  0  0  0  0  0  0  0  0  0  0  0
    2.5324   -0.4358   14.7759 C   0  0  0  0  0  0  0  0  0  0  0  0
    2.1663    0.3860   13.7470 N   0  0  0  0  0  0  0  0  0  0  0  0
    3.0989    1.2355   13.2241 C   0  0  0  0  0  0  0  0  0  0  0  0
    4.4088    1.2797   13.7018 C   0  0  0  0  0  0  0  0  0  0  0  0
    4.7449    0.4891   14.7567 N   0  0  0  0  0  0  0  0  0  0  0  0
    5.8960    0.3776   15.4790 C   0  0  0  0  0  0  0  0  0  0  0  0
    5.5960   -0.5292   16.5069 C   0  0  0  0  0  0  0  0  0  0  0  0
    4.3874   -1.0583   16.3532 N   0  0  0  0  0  0  0  0  0  0  0  0
    3.8346   -0.3857   15.3305 C   0  0  0  0  0  0  0  0  0  0  0  0
    2.6263    2.1555   12.1187 C   0  0  0  0  0  0  0  0  0  0  0  0
    3.5439    2.6382   11.1639 C   0  0  0  0  0  0  0  0  0  0  0  0
    3.1468    3.4593   10.1107 C   0  0  0  0  0  0  0  0  0  0  0  0
    1.8029    3.8136   10.0160 C   0  0  0  0  0  0  0  0  0  0  0  0
    0.9932    4.6001    9.1195 C   0  0  0  0  0  0  0  0  0  0  0  0
   -0.2428    4.6141    9.5158 N   0  0  0  0  0  0  0  0  0  0  0  0
   -0.3351    3.8865   10.6250 N   0  0  0  0  0  0  0  0  0  0  0  0
    0.8815    3.3478   10.9920 C   0  0  0  0  0  0  0  0  0  0  0  0
    1.2640    2.5243   12.0473 C   0  0  0  0  0  0  0  0  0  0  0  0
   -0.3962   -2.6164   15.8132 C   0  0  0  0  0  0  0  0  0  0  0  0
   -1.7505   -2.8679   15.6748 C   0  0  0  0  0  0  0  0  0  0  0  0
   -5.3430   -3.2313   13.5618 H   0  0  0  0  0  0  0  0  0  0  0  0
   -3.9421   -2.5834   12.6430 H   0  0  0  0  0  0  0  0  0  0  0  0
   -3.7642   -4.0865   13.6103 H   0  0  0  0  0  0  0  0  0  0  0  0
   -2.5104   -0.4806   13.3800 H   0  0  0  0  0  0  0  0  0  0  0  0
   -0.0857   -0.0165   13.6391 H   0  0  0  0  0  0  0  0  0  0  0  0
    5.1410    1.9281   13.2437 H   0  0  0  0  0  0  0  0  0  0  0  0
    6.8355    0.8789   15.2989 H   0  0  0  0  0  0  0  0  0  0  0  0
    6.2643   -0.7672   17.3213 H   0  0  0  0  0  0  0  0  0  0  0  0
    4.5848    2.3637   11.2512 H   0  0  0  0  0  0  0  0  0  0  0  0
    3.8640    3.8128    9.3848 H   0  0  0  0  0  0  0  0  0  0  0  0
    1.3633    5.1070    8.2406 H   0  0  0  0  0  0  0  0  0  0  0  0
    0.6741    1.5987   11.9751 H   0  0  0  0  0  0  0  0  0  0  0  0
    1.0134    3.0469   12.9822 H   0  0  0  0  0  0  0  0  0  0  0  0
    0.1247   -3.5458   15.5395 H   0  0  0  0  0  0  0  0  0  0  0  0
   -0.2248   -2.3999   16.8780 H   0  0  0  0  0  0  0  0  0  0  0  0
   -2.2125   -3.6634   16.2406 H   0  0  0  0  0  0  0  0  0  0  0  0
  1  2  1  0  0  0  0
  2  3  1  0  0  0  0
  3  4  1  0  0  0  0
  3 27  2  0  0  0  0
  4  5  2  0  0  0  0
  5  6  1  0  0  0  0
  6  7  2  0  0  0  0
  6 26  1  0  0  0  0
  7  8  1  0  0  0  0
  8  9  2  0  0  0  0
  8 16  1  0  0  0  0
  9 10  1  0  0  0  0
 10 11  2  0  0  0  0
 10 17  1  0  0  0  0
 11 12  1  0  0  0  0
 12 13  1  0  0  0  0
 12 16  1  0  0  0  0
 13 14  2  0  0  0  0
 14 15  1  0  0  0  0
 15 16  2  0  0  0  0
 17 18  2  0  0  0  0
 17 25  1  0  0  0  0
 18 19  1  0  0  0  0
 19 20  2  0  0  0  0
 20 21  1  0  0  0  0
 20 24  1  0  0  0  0
 21 22  2  0  0  0  0
 22 23  1  0  0  0  0
 23 24  2  0  0  0  0
 24 25  1  0  0  0  0
 26 27  1  0  0  0  0
  1 28  1  0  0  0  0
  1 29  1  0  0  0  0
  1 30  1  0  0  0  0
  4 31  1  0  0  0  0
  5 32  1  0  0  0  0
 11 33  1  0  0  0  0
 13 34  1  0  0  0  0
 14 35  1  0  0  0  0
 18 36  1  0  0  0  0
 19 37  1  0  0  0  0
 21 38  1  0  0  0  0
 25 39  1  0  0  0  0
 25 40  1  0  0  0  0
 26 41  1  0  0  0  0
 26 42  1  0  0  0  0
 27 43  1  0  0  0  0
M  END
> <IC50[nM]>
7

$$$$
CHEMBL3265029
  -OEChem-05192314333D
 Structure written by MMmdl.
 43 47  0     1  0  0  0  0  0999 V2000
   -4.2507   -3.1011   13.5632 C   0  0  0  0  0  0  0  0  0  0  0  0
   -3.8673   -2.3305   14.6902 O   0  0  0  0  0  0  0  0  0  0  0  0
   -2.5168   -2.0957   14.8067 C   0  0  0  0  0  0  0  0  0  0  0  0
   -1.9172   -1.0702   14.0633 C   0  0  0  0  0  0  0  0  0  0  0  0
   -0.5491   -0.8101   14.2065 C   0  0  0  0  0  0  0  0  0  0  0  0
    0.2199   -1.5870   15.0928 C   0  0  0  0  0  0  0  0  0  0  0  0
    1.6080   -1.3729   15.3230 N   0  0  0  0  0  0  0  0  0  0  0  0
    2.5324   -0.4358   14.7759 C   0  0  0  0  0  0  0  0  0  0  0  0
    2.1663    0.3860   13.7470 N   0  0  0  0  0  0  0  0  0  0  0  0
    3.0989    1.2355   13.2241 C   0  0  0  0  0  0  0  0  0  0  0  0
    4.4088    1.2797   13.7018 C   0  0  0  0  0  0  0  0  0  0  0  0
    4.7449    0.4891   14.7567 N   0  0  0  0  0  0  0  0  0  0  0  0
    5.8960    0.3776   15.4790 C   0  0  0  0  0  0  0  0  0  0  0  0
    5.5960   -0.5292   16.5069 C   0  0  0  0  0  0  0  0  0  0  0  0
    4.3874   -1.0583   16.3532 N   0  0  0  0  0  0  0  0  0  0  0  0
    3.8346   -0.3857   15.3305 C   0  0  0  0  0  0  0  0  0  0  0  0
    2.6263    2.1555   12.1187 C   0  0  3  0  0  0  0  0  0  0  0  0
    3.5439    2.6382   11.1639 C   0  0  0  0  0  0  0  0  0  0  0  0
    3.1468    3.4593   10.1107 C   0  0  0  0  0  0  0  0  0  0  0  0
    1.8029    3.8136   10.0160 C   0  0  0  0  0  0  0  0  0  0  0  0
    0.9932    4.6001    9.1195 C   0  0  0  0  0  0  0  0  0  0  0  0
   -0.2428    4.6141    9.5158 N   0  0  0  0  0  0  0  0  0  0  0  0
   -0.3351    3.8865   10.6250 N   0  0  0  0  0  0  0  0  0  0  0  0
    0.8815    3.3478   10.9920 C   0  0  0  0  0  0  0  0  0  0  0  0
    1.2640    2.5243   12.0473 C   0  0  0  0  0  0  0  0  0  0  0  0
   -0.3962   -2.6164   15.8132 C   0  0  0  0  0  0  0  0  0  0  0  0
   -1.7505   -2.8679   15.6748 C   0  0  0  0  0  0  0  0  0  0  0  0
   -5.3430   -3.2313   13.5618 H   0  0  0  0  0  0  0  0  0  0  0  0
   -3.9421   -2.5834   12.6430 H   0  0  0  0  0  0  0  0  0  0  0  0
   -3.7642   -4.0865   13.6103 H   0  0  0  0  0  0  0  0  0  0  0  0
   -2.3186   -2.8077   13.9920 H   0  0  0  0  0  0  0  0  0  0  0  0
   -2.5104   -0.4806   13.3800 H   0  0  0  0  0  0  0  0  0  0  0  0
   -0.0857   -0.0165   13.6391 H   0  0  0  0  0  0  0  0  0  0  0  0
    5.1410    1.9281   13.2437 H   0  0  0  0  0  0  0  0  0  0  0  0
    6.8355    0.8789   15.2989 H   0  0  0  0  0  0  0  0  0  0  0  0
    6.2643   -0.7672   17.3213 H   0  0  0  0  0  0  0  0  0  0  0  0
    2.8299    3.0281   12.7568 H   0  0  0  0  0  0  0  0  0  0  0  0
    4.5848    2.3637   11.2512 H   0  0  0  0  0  0  0  0  0  0  0  0
    3.8640    3.8128    9.3848 H   0  0  0  0  0  0  0  0  0  0  0  0
    1.3633    5.1070    8.2406 H   0  0  0  0  0  0  0  0  0  0  0  0
    0.5493    2.1816   12.7809 H   0  0  0  0  0  0  0  0  0  0  0  0
    0.1925   -3.2225   16.4859 H   0  0  0  0  0  0  0  0  0  0  0  0
   -2.2125   -3.6634   16.2406 H   0  0  0  0  0  0  0  0  0  0  0  0
  1  2  1  0  0  0  0
  2  3  1  0  0  0  0
  3  4  1  0  0  0  0
  3 27  1  0  0  0  0
  4  5  2  0  0  0  0
  5  6  1  0  0  0  0
  6  7  2  0  0  0  0
  6 26  1  0  0  0  0
  7  8  1  0  0  0  0
  8  9  2  0  0  0  0
  8 16  1  0  0  0  0
  9 10  1  0  0  0  0
 10 11  2  0  0  0  0
 10 17  1  0  0  0  0
 11 12  1  0  0  0  0
 12 13  1  0  0  0  0
 12 16  1  0  0  0  0
 13 14  2  0  0  0  0
 14 15  1  0  0  0  0
 15 16  2  0  0  0  0
 17 18  1  0  0  0  0
 17 25  1  0  0  0  0
 18 19  2  0  0  0  0
 19 20  1  0  0  0  0
 20 21  2  0  0  0  0
 20 24  1  0  0  0  0
 21 22  1  0  0  0  0
 22 23  2  0  0  0  0
 23 24  1  0  0  0  0
 24 25  2  0  0  0  0
 26 27  2  0  0  0  0
  1 28  1  0  0  0  0
  1 29  1  0  0  0  0
  1 30  1  0  0  0  0
  3 31  1  0  0  0  0
  4 32  1  0  0  0  0
  5 33  1  0  0  0  0
 11 34  1  0  0  0  0
 13 35  1  0  0  0  0
 14 36  1  0  0  0  0
 17 37  1  0  0  0  0
 18 38  1  0  0  0  0
 19 39  1  0  0  0  0
 21 40  1  0  0  0  0
 25 41  1  0  0  0  0
 26 42  1  0  0  0  0
 27 43  1  0  0  0  0
M  END
> <IC50[nM]>
7

$$$$
CHEMBL3265029
  -OEChem-05192314333D
 Structure written by MMmdl.
 43 47  0     1  0  0  0  0  0999 V2000
   -4.2507   -3.1011   13.5632 C   0  0  0  0  0  0  0  0  0  0  0  0
   -3.8673   -2.3305   14.6902 O   0  0  0  0  0  0  0  0  0  0  0  0
   -2.5168   -2.0957   14.8067 C   0  0  0  0  0  0  0  0  0  0  0  0
   -1.9172   -1.0702   14.0633 C   0  0  0  0  0  0  0  0  0  0  0  0
   -0.5491   -0.8101   14.2065 C   0  0  0  0  0  0  0  0  0  0  0  0
    0.2199   -1.5870   15.0928 C   0  0  0  0  0  0  0  0  0  0  0  0
    1.6080   -1.3729   15.3230 N   0  0  0  0  0  0  0  0  0  0  0  0
    2.5324   -0.4358   14.7759 C   0  0  0  0  0  0  0  0  0  0  0  0
    2.1663    0.3860   13.7470 N   0  0  0  0  0  0  0  0  0  0  0  0
    3.0989    1.2355   13.2241 C   0  0  0  0  0  0  0  0  0  0  0  0
    4.4088    1.2797   13.7018 C   0  0  0  0  0  0  0  0  0  0  0  0
    4.7449    0.4891   14.7567 N   0  0  0  0  0  0  0  0  0  0  0  0
    5.8960    0.3776   15.4790 C   0  0  0  0  0  0  0  0  0  0  0  0
    5.5960   -0.5292   16.5069 C   0  0  0  0  0  0  0  0  0  0  0  0
    4.3874   -1.0583   16.3532 N   0  0  0  0  0  0  0  0  0  0  0  0
    3.8346   -0.3857   15.3305 C   0  0  0  0  0  0  0  0  0  0  0  0
    2.6263    2.1555   12.1187 C   0  0  0  0  0  0  0  0  0  0  0  0
    3.5439    2.6382   11.1639 C   0  0  0  0  0  0  0  0  0  0  0  0
    3.1468    3.4593   10.1107 C   0  0  0  0  0  0  0  0  0  0  0  0
    1.8029    3.8136   10.0160 C   0  0  0  0  0  0  0  0  0  0  0  0
    0.9932    4.6001    9.1195 C   0  0  0  0  0  0  0  0  0  0  0  0
   -0.2428    4.6141    9.5158 N   0  0  0  0  0  0  0  0  0  0  0  0
   -0.3351    3.8865   10.6250 N   0  0  0  0  0  0  0  0  0  0  0  0
    0.8815    3.3478   10.9920 C   0  0  3  0  0  0  0  0  0  0  0  0
    1.2640    2.5243   12.0473 C   0  0  0  0  0  0  0  0  0  0  0  0
   -0.3962   -2.6164   15.8132 C   0  0  0  0  0  0  0  0  0  0  0  0
   -1.7505   -2.8679   15.6748 C   0  0  0  0  0  0  0  0  0  0  0  0
   -5.3430   -3.2313   13.5618 H   0  0  0  0  0  0  0  0  0  0  0  0
   -3.9421   -2.5834   12.6430 H   0  0  0  0  0  0  0  0  0  0  0  0
   -3.7642   -4.0865   13.6103 H   0  0  0  0  0  0  0  0  0  0  0  0
   -2.3186   -2.8077   13.9920 H   0  0  0  0  0  0  0  0  0  0  0  0
   -2.5104   -0.4806   13.3800 H   0  0  0  0  0  0  0  0  0  0  0  0
   -0.0857   -0.0165   13.6391 H   0  0  0  0  0  0  0  0  0  0  0  0
    5.1410    1.9281   13.2437 H   0  0  0  0  0  0  0  0  0  0  0  0
    6.8355    0.8789   15.2989 H   0  0  0  0  0  0  0  0  0  0  0  0
    6.2643   -0.7672   17.3213 H   0  0  0  0  0  0  0  0  0  0  0  0
    4.5848    2.3637   11.2512 H   0  0  0  0  0  0  0  0  0  0  0  0
    3.8640    3.8128    9.3848 H   0  0  0  0  0  0  0  0  0  0  0  0
    1.3633    5.1070    8.2406 H   0  0  0  0  0  0  0  0  0  0  0  0
    0.6754    2.4611   10.3745 H   0  0  0  0  0  0  0  0  0  0  0  0
    0.5493    2.1816   12.7809 H   0  0  0  0  0  0  0  0  0  0  0  0
    0.1925   -3.2225   16.4859 H   0  0  0  0  0  0  0  0  0  0  0  0
   -2.2125   -3.6634   16.2406 H   0  0  0  0  0  0  0  0  0  0  0  0
  1  2  1  0  0  0  0
  2  3  1  0  0  0  0
  3  4  1  0  0  0  0
  3 27  1  0  0  0  0
  4  5  2  0  0  0  0
  5  6  1  0  0  0  0
  6  7  2  0  0  0  0
  6 26  1  0  0  0  0
  7  8  1  0  0  0  0
  8  9  2  0  0  0  0
  8 16  1  0  0  0  0
  9 10  1  0  0  0  0
 10 11  2  0  0  0  0
 10 17  1  0  0  0  0
 11 12  1  0  0  0  0
 12 13  1  0  0  0  0
 12 16  1  0  0  0  0
 13 14  2  0  0  0  0
 14 15  1  0  0  0  0
 15 16  2  0  0  0  0
 17 18  1  0  0  0  0
 17 25  2  0  0  0  0
 18 19  2  0  0  0  0
 19 20  1  0  0  0  0
 20 21  2  0  0  0  0
 20 24  1  0  0  0  0
 21 22  1  0  0  0  0
 22 23  2  0  0  0  0
 23 24  1  0  0  0  0
 24 25  1  0  0  0  0
 26 27  2  0  0  0  0
  1 28  1  0  0  0  0
  1 29  1  0  0  0  0
  1 30  1  0  0  0  0
  3 31  1  0  0  0  0
  4 32  1  0  0  0  0
  5 33  1  0  0  0  0
 11 34  1  0  0  0  0
 13 35  1  0  0  0  0
 14 36  1  0  0  0  0
 18 37  1  0  0  0  0
 19 38  1  0  0  0  0
 21 39  1  0  0  0  0
 24 40  1  0  0  0  0
 25 41  1  0  0  0  0
 26 42  1  0  0  0  0
 27 43  1  0  0  0  0
M  END
> <IC50[nM]>
7

$$$$
CHEMBL3265029
  -OEChem-05192314333D
 Structure written by MMmdl.
 43 47  0     1  0  0  0  0  0999 V2000
   -4.2507   -3.1011   13.5632 C   0  0  0  0  0  0  0  0  0  0  0  0
   -3.8673   -2.3305   14.6902 O   0  0  0  0  0  0  0  0  0  0  0  0
   -2.5168   -2.0957   14.8067 C   0  0  0  0  0  0  0  0  0  0  0  0
   -1.9172   -1.0702   14.0633 C   0  0  0  0  0  0  0  0  0  0  0  0
   -0.5491   -0.8101   14.2065 C   0  0  0  0  0  0  0  0  0  0  0  0
    0.2199   -1.5870   15.0928 C   0  0  0  0  0  0  0  0  0  0  0  0
    1.6080   -1.3729   15.3230 N   0  0  0  0  0  0  0  0  0  0  0  0
    2.5324   -0.4358   14.7759 C   0  0  0  0  0  0  0  0  0  0  0  0
    2.1663    0.3860   13.7470 N   0  0  0  0  0  0  0  0  0  0  0  0
    3.0989    1.2355   13.2241 C   0  0  0  0  0  0  0  0  0  0  0  0
    4.4088    1.2797   13.7018 C   0  0  0  0  0  0  0  0  0  0  0  0
    4.7449    0.4891   14.7567 N   0  0  0  0  0  0  0  0  0  0  0  0
    5.8960    0.3776   15.4790 C   0  0  0  0  0  0  0  0  0  0  0  0
    5.5960   -0.5292   16.5069 C   0  0  0  0  0  0  0  0  0  0  0  0
    4.3874   -1.0583   16.3532 N   0  0  0  0  0  0  0  0  0  0  0  0
    3.8346   -0.3857   15.3305 C   0  0  0  0  0  0  0  0  0  0  0  0
    2.6263    2.1555   12.1187 C   0  0  3  0  0  0  0  0  0  0  0  0
    3.5439    2.6382   11.1639 C   0  0  0  0  0  0  0  0  0  0  0  0
    3.1468    3.4593   10.1107 C   0  0  0  0  0  0  0  0  0  0  0  0
    1.8029    3.8136   10.0160 C   0  0  0  0  0  0  0  0  0  0  0  0
    0.9932    4.6001    9.1195 C   0  0  0  0  0  0  0  0  0  0  0  0
   -0.2428    4.6141    9.5158 N   0  0  0  0  0  0  0  0  0  0  0  0
   -0.3351    3.8865   10.6250 N   0  0  0  0  0  0  0  0  0  0  0  0
    0.8815    3.3478   10.9920 C   0  0  0  0  0  0  0  0  0  0  0  0
    1.2640    2.5243   12.0473 C   0  0  0  0  0  0  0  0  0  0  0  0
   -0.3962   -2.6164   15.8132 C   0  0  0  0  0  0  0  0  0  0  0  0
   -1.7505   -2.8679   15.6748 C   0  0  0  0  0  0  0  0  0  0  0  0
   -5.3430   -3.2313   13.5618 H   0  0  0  0  0  0  0  0  0  0  0  0
   -3.9421   -2.5834   12.6430 H   0  0  0  0  0  0  0  0  0  0  0  0
   -3.7642   -4.0865   13.6103 H   0  0  0  0  0  0  0  0  0  0  0  0
   -2.5104   -0.4806   13.3800 H   0  0  0  0  0  0  0  0  0  0  0  0
   -0.0857   -0.0165   13.6391 H   0  0  0  0  0  0  0  0  0  0  0  0
    5.1410    1.9281   13.2437 H   0  0  0  0  0  0  0  0  0  0  0  0
    6.8355    0.8789   15.2989 H   0  0  0  0  0  0  0  0  0  0  0  0
    6.2643   -0.7672   17.3213 H   0  0  0  0  0  0  0  0  0  0  0  0
    2.8299    3.0281   12.7568 H   0  0  0  0  0  0  0  0  0  0  0  0
    4.5848    2.3637   11.2512 H   0  0  0  0  0  0  0  0  0  0  0  0
    3.8640    3.8128    9.3848 H   0  0  0  0  0  0  0  0  0  0  0  0
    1.3633    5.1070    8.2406 H   0  0  0  0  0  0  0  0  0  0  0  0
    0.5493    2.1816   12.7809 H   0  0  0  0  0  0  0  0  0  0  0  0
    0.1247   -3.5458   15.5395 H   0  0  0  0  0  0  0  0  0  0  0  0
   -0.2248   -2.3999   16.8780 H   0  0  0  0  0  0  0  0  0  0  0  0
   -2.2125   -3.6634   16.2406 H   0  0  0  0  0  0  0  0  0  0  0  0
  1  2  1  0  0  0  0
  2  3  1  0  0  0  0
  3  4  1  0  0  0  0
  3 27  2  0  0  0  0
  4  5  2  0  0  0  0
  5  6  1  0  0  0  0
  6  7  2  0  0  0  0
  6 26  1  0  0  0  0
  7  8  1  0  0  0  0
  8  9  2  0  0  0  0
  8 16  1  0  0  0  0
  9 10  1  0  0  0  0
 10 11  2  0  0  0  0
 10 17  1  0  0  0  0
 11 12  1  0  0  0  0
 12 13  1  0  0  0  0
 12 16  1  0  0  0  0
 13 14  2  0  0  0  0
 14 15  1  0  0  0  0
 15 16  2  0  0  0  0
 17 18  1  0  0  0  0
 17 25  1  0  0  0  0
 18 19  2  0  0  0  0
 19 20  1  0  0  0  0
 20 21  2  0  0  0  0
 20 24  1  0  0  0  0
 21 22  1  0  0  0  0
 22 23  2  0  0  0  0
 23 24  1  0  0  0  0
 24 25  2  0  0  0  0
 26 27  1  0  0  0  0
  1 28  1  0  0  0  0
  1 29  1  0  0  0  0
  1 30  1  0  0  0  0
  4 31  1  0  0  0  0
  5 32  1  0  0  0  0
 11 33  1  0  0  0  0
 13 34  1  0  0  0  0
 14 35  1  0  0  0  0
 17 36  1  0  0  0  0
 18 37  1  0  0  0  0
 19 38  1  0  0  0  0
 21 39  1  0  0  0  0
 25 40  1  0  0  0  0
 26 41  1  0  0  0  0
 26 42  1  0  0  0  0
 27 43  1  0  0  0  0
M  END
> <IC50[nM]>
7

$$$$
CHEMBL3265029
  -OEChem-05192314333D
 Structure written by MMmdl.
 43 47  0     1  0  0  0  0  0999 V2000
   -4.2507   -3.1011   13.5632 C   0  0  0  0  0  0  0  0  0  0  0  0
   -3.8673   -2.3305   14.6902 O   0  0  0  0  0  0  0  0  0  0  0  0
   -2.5168   -2.0957   14.8067 C   0  0  0  0  0  0  0  0  0  0  0  0
   -1.9172   -1.0702   14.0633 C   0  0  0  0  0  0  0  0  0  0  0  0
   -0.5491   -0.8101   14.2065 C   0  0  0  0  0  0  0  0  0  0  0  0
    0.2199   -1.5870   15.0928 C   0  0  0  0  0  0  0  0  0  0  0  0
    1.6080   -1.3729   15.3230 N   0  0  0  0  0  0  0  0  0  0  0  0
    2.5324   -0.4358   14.7759 C   0  0  0  0  0  0  0  0  0  0  0  0
    2.1663    0.3860   13.7470 N   0  0  0  0  0  0  0  0  0  0  0  0
    3.0989    1.2355   13.2241 C   0  0  0  0  0  0  0  0  0  0  0  0
    4.4088    1.2797   13.7018 C   0  0  0  0  0  0  0  0  0  0  0  0
    4.7449    0.4891   14.7567 N   0  0  0  0  0  0  0  0  0  0  0  0
    5.8960    0.3776   15.4790 C   0  0  0  0  0  0  0  0  0  0  0  0
    5.5960   -0.5292   16.5069 C   0  0  0  0  0  0  0  0  0  0  0  0
    4.3874   -1.0583   16.3532 N   0  0  0  0  0  0  0  0  0  0  0  0
    3.8346   -0.3857   15.3305 C   0  0  0  0  0  0  0  0  0  0  0  0
    2.6263    2.1555   12.1187 C   0  0  0  0  0  0  0  0  0  0  0  0
    3.5439    2.6382   11.1639 C   0  0  0  0  0  0  0  0  0  0  0  0
    3.1468    3.4593   10.1107 C   0  0  0  0  0  0  0  0  0  0  0  0
    1.8029    3.8136   10.0160 C   0  0  0  0  0  0  0  0  0  0  0  0
    0.9932    4.6001    9.1195 C   0  0  0  0  0  0  0  0  0  0  0  0
   -0.2428    4.6141    9.5158 N   0  0  0  0  0  0  0  0  0  0  0  0
   -0.3351    3.8865   10.6250 N   0  0  0  0  0  0  0  0  0  0  0  0
    0.8815    3.3478   10.9920 C   0  0  3  0  0  0  0  0  0  0  0  0
    1.2640    2.5243   12.0473 C   0  0  0  0  0  0  0  0  0  0  0  0
   -0.3962   -2.6164   15.8132 C   0  0  0  0  0  0  0  0  0  0  0  0
   -1.7505   -2.8679   15.6748 C   0  0  0  0  0  0  0  0  0  0  0  0
   -5.3430   -3.2313   13.5618 H   0  0  0  0  0  0  0  0  0  0  0  0
   -3.9421   -2.5834   12.6430 H   0  0  0  0  0  0  0  0  0  0  0  0
   -3.7642   -4.0865   13.6103 H   0  0  0  0  0  0  0  0  0  0  0  0
   -2.5104   -0.4806   13.3800 H   0  0  0  0  0  0  0  0  0  0  0  0
   -0.0857   -0.0165   13.6391 H   0  0  0  0  0  0  0  0  0  0  0  0
    5.1410    1.9281   13.2437 H   0  0  0  0  0  0  0  0  0  0  0  0
    6.8355    0.8789   15.2989 H   0  0  0  0  0  0  0  0  0  0  0  0
    6.2643   -0.7672   17.3213 H   0  0  0  0  0  0  0  0  0  0  0  0
    4.5848    2.3637   11.2512 H   0  0  0  0  0  0  0  0  0  0  0  0
    3.8640    3.8128    9.3848 H   0  0  0  0  0  0  0  0  0  0  0  0
    1.3633    5.1070    8.2406 H   0  0  0  0  0  0  0  0  0  0  0  0
    0.6754    2.4611   10.3745 H   0  0  0  0  0  0  0  0  0  0  0  0
    0.5493    2.1816   12.7809 H   0  0  0  0  0  0  0  0  0  0  0  0
    0.1247   -3.5458   15.5395 H   0  0  0  0  0  0  0  0  0  0  0  0
   -0.2248   -2.3999   16.8780 H   0  0  0  0  0  0  0  0  0  0  0  0
   -2.2125   -3.6634   16.2406 H   0  0  0  0  0  0  0  0  0  0  0  0
  1  2  1  0  0  0  0
  2  3  1  0  0  0  0
  3  4  1  0  0  0  0
  3 27  2  0  0  0  0
  4  5  2  0  0  0  0
  5  6  1  0  0  0  0
  6  7  2  0  0  0  0
  6 26  1  0  0  0  0
  7  8  1  0  0  0  0
  8  9  2  0  0  0  0
  8 16  1  0  0  0  0
  9 10  1  0  0  0  0
 10 11  2  0  0  0  0
 10 17  1  0  0  0  0
 11 12  1  0  0  0  0
 12 13  1  0  0  0  0
 12 16  1  0  0  0  0
 13 14  2  0  0  0  0
 14 15  1  0  0  0  0
 15 16  2  0  0  0  0
 17 18  1  0  0  0  0
 17 25  2  0  0  0  0
 18 19  2  0  0  0  0
 19 20  1  0  0  0  0
 20 21  2  0  0  0  0
 20 24  1  0  0  0  0
 21 22  1  0  0  0  0
 22 23  2  0  0  0  0
 23 24  1  0  0  0  0
 24 25  1  0  0  0  0
 26 27  1  0  0  0  0
  1 28  1  0  0  0  0
  1 29  1  0  0  0  0
  1 30  1  0  0  0  0
  4 31  1  0  0  0  0
  5 32  1  0  0  0  0
 11 33  1  0  0  0  0
 13 34  1  0  0  0  0
 14 35  1  0  0  0  0
 18 36  1  0  0  0  0
 19 37  1  0  0  0  0
 21 38  1  0  0  0  0
 24 39  1  0  0  0  0
 25 40  1  0  0  0  0
 26 41  1  0  0  0  0
 26 42  1  0  0  0  0
 27 43  1  0  0  0  0
M  END
> <IC50[nM]>
7

$$$$
CHEMBL3265029
  -OEChem-05192314333D
 Structure written by MMmdl.
 43 47  0     0  0  0  0  0  0999 V2000
   -4.2507   -3.1011   13.5632 C   0  0  0  0  0  0  0  0  0  0  0  0
   -3.8673   -2.3305   14.6902 O   0  0  0  0  0  0  0  0  0  0  0  0
   -2.5168   -2.0957   14.8067 C   0  0  0  0  0  0  0  0  0  0  0  0
   -1.9172   -1.0702   14.0633 C   0  0  0  0  0  0  0  0  0  0  0  0
   -0.5491   -0.8101   14.2065 C   0  0  0  0  0  0  0  0  0  0  0  0
    0.2199   -1.5870   15.0928 C   0  0  0  0  0  0  0  0  0  0  0  0
    1.6080   -1.3729   15.3230 N   0  0  0  0  0  0  0  0  0  0  0  0
    2.5324   -0.4358   14.7759 C   0  0  0  0  0  0  0  0  0  0  0  0
    2.1663    0.3860   13.7470 N   0  0  0  0  0  0  0  0  0  0  0  0
    3.0989    1.2355   13.2241 C   0  0  0  0  0  0  0  0  0  0  0  0
    4.4088    1.2797   13.7018 C   0  0  0  0  0  0  0  0  0  0  0  0
    4.7449    0.4891   14.7567 N   0  0  0  0  0  0  0  0  0  0  0  0
    5.8960    0.3776   15.4790 C   0  0  0  0  0  0  0  0  0  0  0  0
    5.5960   -0.5292   16.5069 C   0  0  0  0  0  0  0  0  0  0  0  0
    4.3874   -1.0583   16.3532 N   0  0  0  0  0  0  0  0  0  0  0  0
    3.8346   -0.3857   15.3305 C   0  0  0  0  0  0  0  0  0  0  0  0
    2.6263    2.1555   12.1187 C   0  0  0  0  0  0  0  0  0  0  0  0
    3.5439    2.6382   11.1639 C   0  0  0  0  0  0  0  0  0  0  0  0
    3.1468    3.4593   10.1107 C   0  0  0  0  0  0  0  0  0  0  0  0
    1.8029    3.8136   10.0160 C   0  0  0  0  0  0  0  0  0  0  0  0
    0.9932    4.6001    9.1195 C   0  0  0  0  0  0  0  0  0  0  0  0
   -0.2428    4.6141    9.5158 N   0  0  0  0  0  0  0  0  0  0  0  0
   -0.3351    3.8865   10.6250 N   0  0  0  0  0  0  0  0  0  0  0  0
    0.8815    3.3478   10.9920 C   0  0  0  0  0  0  0  0  0  0  0  0
    1.2640    2.5243   12.0473 C   0  0  0  0  0  0  0  0  0  0  0  0
   -0.3962   -2.6164   15.8132 C   0  0  0  0  0  0  0  0  0  0  0  0
   -1.7505   -2.8679   15.6748 C   0  0  0  0  0  0  0  0  0  0  0  0
   -5.3430   -3.2313   13.5618 H   0  0  0  0  0  0  0  0  0  0  0  0
   -3.9421   -2.5834   12.6430 H   0  0  0  0  0  0  0  0  0  0  0  0
   -3.7642   -4.0865   13.6103 H   0  0  0  0  0  0  0  0  0  0  0  0
   -2.3186   -2.8077   13.9920 H   0  0  0  0  0  0  0  0  0  0  0  0
   -2.5104   -0.4806   13.3800 H   0  0  0  0  0  0  0  0  0  0  0  0
   -0.0857   -0.0165   13.6391 H   0  0  0  0  0  0  0  0  0  0  0  0
    5.1410    1.9281   13.2437 H   0  0  0  0  0  0  0  0  0  0  0  0
    6.8355    0.8789   15.2989 H   0  0  0  0  0  0  0  0  0  0  0  0
    6.2643   -0.7672   17.3213 H   0  0  0  0  0  0  0  0  0  0  0  0
    4.5848    2.3637   11.2512 H   0  0  0  0  0  0  0  0  0  0  0  0
    3.7240    4.3923   10.1905 H   0  0  0  0  0  0  0  0  0  0  0  0
    3.4131    2.9421    9.1771 H   0  0  0  0  0  0  0  0  0  0  0  0
    1.3633    5.1070    8.2406 H   0  0  0  0  0  0  0  0  0  0  0  0
    0.5493    2.1816   12.7809 H   0  0  0  0  0  0  0  0  0  0  0  0
    0.1925   -3.2225   16.4859 H   0  0  0  0  0  0  0  0  0  0  0  0
   -2.2125   -3.6634   16.2406 H   0  0  0  0  0  0  0  0  0  0  0  0
  1  2  1  0  0  0  0
  2  3  1  0  0  0  0
  3  4  1  0  0  0  0
  3 27  1  0  0  0  0
  4  5  2  0  0  0  0
  5  6  1  0  0  0  0
  6  7  2  0  0  0  0
  6 26  1  0  0  0  0
  7  8  1  0  0  0  0
  8  9  2  0  0  0  0
  8 16  1  0  0  0  0
  9 10  1  0  0  0  0
 10 11  2  0  0  0  0
 10 17  1  0  0  0  0
 11 12  1  0  0  0  0
 12 13  1  0  0  0  0
 12 16  1  0  0  0  0
 13 14  2  0  0  0  0
 14 15  1  0  0  0  0
 15 16  2  0  0  0  0
 17 18  2  0  0  0  0
 17 25  1  0  0  0  0
 18 19  1  0  0  0  0
 19 20  1  0  0  0  0
 20 21  2  0  0  0  0
 20 24  1  0  0  0  0
 21 22  1  0  0  0  0
 22 23  2  0  0  0  0
 23 24  1  0  0  0  0
 24 25  2  0  0  0  0
 26 27  2  0  0  0  0
  1 28  1  0  0  0  0
  1 29  1  0  0  0  0
  1 30  1  0  0  0  0
  3 31  1  0  0  0  0
  4 32  1  0  0  0  0
  5 33  1  0  0  0  0
 11 34  1  0  0  0  0
 13 35  1  0  0  0  0
 14 36  1  0  0  0  0
 18 37  1  0  0  0  0
 19 38  1  0  0  0  0
 19 39  1  0  0  0  0
 21 40  1  0  0  0  0
 25 41  1  0  0  0  0
 26 42  1  0  0  0  0
 27 43  1  0  0  0  0
M  END
> <IC50[nM]>
7

$$$$
CHEMBL3265029
  -OEChem-05192314333D
 Structure written by MMmdl.
 43 47  0     0  0  0  0  0  0999 V2000
   -4.2507   -3.1011   13.5632 C   0  0  0  0  0  0  0  0  0  0  0  0
   -3.8673   -2.3305   14.6902 O   0  0  0  0  0  0  0  0  0  0  0  0
   -2.5168   -2.0957   14.8067 C   0  0  0  0  0  0  0  0  0  0  0  0
   -1.9172   -1.0702   14.0633 C   0  0  0  0  0  0  0  0  0  0  0  0
   -0.5491   -0.8101   14.2065 C   0  0  0  0  0  0  0  0  0  0  0  0
    0.2199   -1.5870   15.0928 C   0  0  0  0  0  0  0  0  0  0  0  0
    1.6080   -1.3729   15.3230 N   0  0  0  0  0  0  0  0  0  0  0  0
    2.5324   -0.4358   14.7759 C   0  0  0  0  0  0  0  0  0  0  0  0
    2.1663    0.3860   13.7470 N   0  0  0  0  0  0  0  0  0  0  0  0
    3.0989    1.2355   13.2241 C   0  0  0  0  0  0  0  0  0  0  0  0
    4.4088    1.2797   13.7018 C   0  0  0  0  0  0  0  0  0  0  0  0
    4.7449    0.4891   14.7567 N   0  0  0  0  0  0  0  0  0  0  0  0
    5.8960    0.3776   15.4790 C   0  0  0  0  0  0  0  0  0  0  0  0
    5.5960   -0.5292   16.5069 C   0  0  0  0  0  0  0  0  0  0  0  0
    4.3874   -1.0583   16.3532 N   0  0  0  0  0  0  0  0  0  0  0  0
    3.8346   -0.3857   15.3305 C   0  0  0  0  0  0  0  0  0  0  0  0
    2.6263    2.1555   12.1187 C   0  0  0  0  0  0  0  0  0  0  0  0
    3.5439    2.6382   11.1639 C   0  0  0  0  0  0  0  0  0  0  0  0
    3.1468    3.4593   10.1107 C   0  0  0  0  0  0  0  0  0  0  0  0
    1.8029    3.8136   10.0160 C   0  0  0  0  0  0  0  0  0  0  0  0
    0.9932    4.6001    9.1195 C   0  0  0  0  0  0  0  0  0  0  0  0
   -0.2428    4.6141    9.5158 N   0  0  0  0  0  0  0  0  0  0  0  0
   -0.3351    3.8865   10.6250 N   0  0  0  0  0  0  0  0  0  0  0  0
    0.8815    3.3478   10.9920 C   0  0  0  0  0  0  0  0  0  0  0  0
    1.2640    2.5243   12.0473 C   0  0  0  0  0  0  0  0  0  0  0  0
   -0.3962   -2.6164   15.8132 C   0  0  0  0  0  0  0  0  0  0  0  0
   -1.7505   -2.8679   15.6748 C   0  0  0  0  0  0  0  0  0  0  0  0
   -5.3430   -3.2313   13.5618 H   0  0  0  0  0  0  0  0  0  0  0  0
   -3.9421   -2.5834   12.6430 H   0  0  0  0  0  0  0  0  0  0  0  0
   -3.7642   -4.0865   13.6103 H   0  0  0  0  0  0  0  0  0  0  0  0
   -2.5104   -0.4806   13.3800 H   0  0  0  0  0  0  0  0  0  0  0  0
   -0.0857   -0.0165   13.6391 H   0  0  0  0  0  0  0  0  0  0  0  0
    5.1410    1.9281   13.2437 H   0  0  0  0  0  0  0  0  0  0  0  0
    6.8355    0.8789   15.2989 H   0  0  0  0  0  0  0  0  0  0  0  0
    6.2643   -0.7672   17.3213 H   0  0  0  0  0  0  0  0  0  0  0  0
    4.5848    2.3637   11.2512 H   0  0  0  0  0  0  0  0  0  0  0  0
    3.7240    4.3923   10.1905 H   0  0  0  0  0  0  0  0  0  0  0  0
    3.4131    2.9421    9.1771 H   0  0  0  0  0  0  0  0  0  0  0  0
    1.3633    5.1070    8.2406 H   0  0  0  0  0  0  0  0  0  0  0  0
    0.5493    2.1816   12.7809 H   0  0  0  0  0  0  0  0  0  0  0  0
    0.1247   -3.5458   15.5395 H   0  0  0  0  0  0  0  0  0  0  0  0
   -0.2248   -2.3999   16.8780 H   0  0  0  0  0  0  0  0  0  0  0  0
   -2.2125   -3.6634   16.2406 H   0  0  0  0  0  0  0  0  0  0  0  0
  1  2  1  0  0  0  0
  2  3  1  0  0  0  0
  3  4  1  0  0  0  0
  3 27  2  0  0  0  0
  4  5  2  0  0  0  0
  5  6  1  0  0  0  0
  6  7  2  0  0  0  0
  6 26  1  0  0  0  0
  7  8  1  0  0  0  0
  8  9  2  0  0  0  0
  8 16  1  0  0  0  0
  9 10  1  0  0  0  0
 10 11  2  0  0  0  0
 10 17  1  0  0  0  0
 11 12  1  0  0  0  0
 12 13  1  0  0  0  0
 12 16  1  0  0  0  0
 13 14  2  0  0  0  0
 14 15  1  0  0  0  0
 15 16  2  0  0  0  0
 17 18  2  0  0  0  0
 17 25  1  0  0  0  0
 18 19  1  0  0  0  0
 19 20  1  0  0  0  0
 20 21  2  0  0  0  0
 20 24  1  0  0  0  0
 21 22  1  0  0  0  0
 22 23  2  0  0  0  0
 23 24  1  0  0  0  0
 24 25  2  0  0  0  0
 26 27  1  0  0  0  0
  1 28  1  0  0  0  0
  1 29  1  0  0  0  0
  1 30  1  0  0  0  0
  4 31  1  0  0  0  0
  5 32  1  0  0  0  0
 11 33  1  0  0  0  0
 13 34  1  0  0  0  0
 14 35  1  0  0  0  0
 18 36  1  0  0  0  0
 19 37  1  0  0  0  0
 19 38  1  0  0  0  0
 21 39  1  0  0  0  0
 25 40  1  0  0  0  0
 26 41  1  0  0  0  0
 26 42  1  0  0  0  0
 27 43  1  0  0  0  0
M  END
> <IC50[nM]>
7

$$$$
