CHEMBL3264997
  -OEChem-05192314333D
 Structure written by MMmdl.
 61 65  0     0  0  0  0  0  0999 V2000
   -4.2555   -3.1029   13.5707 C   0  0  0  0  0  0  0  0  0  0  0  0
   -3.8740   -2.3535   14.7166 O   0  0  0  0  0  0  0  0  0  0  0  0
   -2.5261   -2.1057   14.8053 C   0  0  0  0  0  0  0  0  0  0  0  0
   -1.7497   -2.8673   15.6804 C   0  0  0  0  0  0  0  0  0  0  0  0
   -0.3863   -2.6106   15.8150 C   0  0  0  0  0  0  0  0  0  0  0  0
    0.2220   -1.5829   15.0890 C   0  0  0  0  0  0  0  0  0  0  0  0
    1.5930   -1.3491   15.3060 N   0  0  0  0  0  0  0  0  0  0  0  0
    2.5452   -0.4689   14.7536 C   0  0  0  0  0  0  0  0  0  0  0  0
    2.2178    0.3551   13.7190 N   0  0  0  0  0  0  0  0  0  0  0  0
    3.1227    1.2406   13.2181 C   0  0  0  0  0  0  0  0  0  0  0  0
    4.4207    1.3039   13.7175 C   0  0  0  0  0  0  0  0  0  0  0  0
    4.7482    0.4921   14.7654 N   0  0  0  0  0  0  0  0  0  0  0  0
    5.8898    0.3836   15.5035 C   0  0  0  0  0  0  0  0  0  0  0  0
    5.5715   -0.5089   16.5177 C   0  0  0  0  0  0  0  0  0  0  0  0
    4.3818   -1.0543   16.3920 N   0  0  0  0  0  0  0  0  0  0  0  0
    3.8330   -0.4170   15.3252 C   0  0  0  0  0  0  0  0  0  0  0  0
    2.6564    2.1560   12.1340 C   0  0  0  0  0  0  0  0  0  0  0  0
    3.5566    2.6280   11.1666 C   0  0  0  0  0  0  0  0  0  0  0  0
    3.1294    3.4499   10.1277 C   0  0  0  0  0  0  0  0  0  0  0  0
    1.7879    3.8078   10.0318 C   0  0  0  0  0  0  0  0  0  0  0  0
    0.8660    3.3707   10.9895 C   0  0  0  0  0  0  0  0  0  0  0  0
    1.3140    2.5576   12.0419 C   0  0  0  0  0  0  0  0  0  0  0  0
   -0.5783    3.7648   10.8956 C   0  0  0  0  0  0  0  0  0  0  0  0
   -1.2610    3.7179    9.8765 O   0  0  0  0  0  0  0  0  0  0  0  0
   -1.0553    4.1831   12.0683 N   0  0  0  0  0  0  0  0  0  0  0  0
   -2.4212    4.6362   12.3150 C   0  0  0  0  0  0  0  0  0  0  0  0
   -2.7024    5.4228   13.4257 C   0  0  0  0  0  0  0  0  0  0  0  0
   -4.0026    5.8541   13.6606 C   0  0  0  0  0  0  0  0  0  0  0  0
   -5.0215    5.4987   12.7847 C   0  0  0  0  0  0  0  0  0  0  0  0
   -4.7403    4.7121   11.6740 C   0  0  0  0  0  0  0  0  0  0  0  0
   -3.4401    4.2808   11.4391 C   0  0  0  0  0  0  0  0  0  0  0  0
   -5.8399    4.3286   10.7287 C   0  0  0  0  0  0  0  0  0  0  0  0
   -5.6116    3.6277    9.7316 O   0  0  0  0  0  0  0  0  0  0  0  0
   -6.9848    4.7354   10.9767 O   0  0  0  0  0  0  0  0  0  0  0  0
   -0.5664   -0.8256   14.2115 C   0  0  0  0  0  0  0  0  0  0  0  0
   -1.9389   -1.0760   14.0580 C   0  0  0  0  0  0  0  0  0  0  0  0
   -2.6991   -0.3052   13.2021 O   0  0  0  0  0  0  0  0  0  0  0  0
   -2.0020    0.6746   12.5251 C   0  0  0  0  0  0  0  0  0  0  0  0
   -5.3448   -3.2555   13.5777 H   0  0  0  0  0  0  0  0  0  0  0  0
   -3.9681   -2.5543   12.6616 H   0  0  0  0  0  0  0  0  0  0  0  0
   -3.7486   -4.0790   13.5856 H   0  0  0  0  0  0  0  0  0  0  0  0
   -2.2073   -3.6587   16.2555 H   0  0  0  0  0  0  0  0  0  0  0  0
    0.2066   -3.2125   16.4877 H   0  0  0  0  0  0  0  0  0  0  0  0
    1.9791   -1.9422   16.0125 H   0  0  0  0  0  0  0  0  0  0  0  0
    5.1484    1.9765   13.2880 H   0  0  0  0  0  0  0  0  0  0  0  0
    6.8331    0.8820   15.3359 H   0  0  0  0  0  0  0  0  0  0  0  0
    6.2400   -0.7347   17.3354 H   0  0  0  0  0  0  0  0  0  0  0  0
    4.5981    2.3490   11.2292 H   0  0  0  0  0  0  0  0  0  0  0  0
    3.8383    3.8096    9.3966 H   0  0  0  0  0  0  0  0  0  0  0  0
    1.4559    4.4276    9.2120 H   0  0  0  0  0  0  0  0  0  0  0  0
    0.6121    2.2342   12.7963 H   0  0  0  0  0  0  0  0  0  0  0  0
   -0.4244    4.1868   12.8442 H   0  0  0  0  0  0  0  0  0  0  0  0
   -1.9106    5.6989   14.1063 H   0  0  0  0  0  0  0  0  0  0  0  0
   -4.2212    6.4654   14.5237 H   0  0  0  0  0  0  0  0  0  0  0  0
   -6.0318    5.8338   12.9672 H   0  0  0  0  0  0  0  0  0  0  0  0
   -3.2215    3.6695   10.5760 H   0  0  0  0  0  0  0  0  0  0  0  0
   -7.5834    4.4255   10.3073 H   0  0  0  0  0  0  0  0  0  0  0  0
   -0.1075   -0.0318   13.6408 H   0  0  0  0  0  0  0  0  0  0  0  0
   -2.6909    1.2310   11.8726 H   0  0  0  0  0  0  0  0  0  0  0  0
   -1.5443    1.3652   13.2487 H   0  0  0  0  0  0  0  0  0  0  0  0
   -1.2146    0.2087   11.9144 H   0  0  0  0  0  0  0  0  0  0  0  0
  1  2  1  0  0  0  0
  2  3  1  0  0  0  0
  3  4  2  0  0  0  0
  3 36  1  0  0  0  0
  4  5  1  0  0  0  0
  5  6  2  0  0  0  0
  6  7  1  0  0  0  0
  6 35  1  0  0  0  0
  7  8  1  0  0  0  0
  8  9  2  0  0  0  0
  8 16  1  0  0  0  0
  9 10  1  0  0  0  0
 10 11  2  0  0  0  0
 10 17  1  0  0  0  0
 11 12  1  0  0  0  0
 12 13  1  0  0  0  0
 12 16  1  0  0  0  0
 13 14  2  0  0  0  0
 14 15  1  0  0  0  0
 15 16  2  0  0  0  0
 17 18  2  0  0  0  0
 17 22  1  0  0  0  0
 18 19  1  0  0  0  0
 19 20  2  0  0  0  0
 20 21  1  0  0  0  0
 21 22  2  0  0  0  0
 21 23  1  0  0  0  0
 23 24  2  0  0  0  0
 23 25  1  0  0  0  0
 25 26  1  0  0  0  0
 26 27  2  0  0  0  0
 26 31  1  0  0  0  0
 27 28  1  0  0  0  0
 28 29  2  0  0  0  0
 29 30  1  0  0  0  0
 30 31  2  0  0  0  0
 30 32  1  0  0  0  0
 32 33  2  0  0  0  0
 32 34  1  0  0  0  0
 35 36  2  0  0  0  0
 36 37  1  0  0  0  0
 37 38  1  0  0  0  0
  1 39  1  0  0  0  0
  1 40  1  0  0  0  0
  1 41  1  0  0  0  0
  4 42  1  0  0  0  0
  5 43  1  0  0  0  0
  7 44  1  0  0  0  0
 11 45  1  0  0  0  0
 13 46  1  0  0  0  0
 14 47  1  0  0  0  0
 18 48  1  0  0  0  0
 19 49  1  0  0  0  0
 20 50  1  0  0  0  0
 22 51  1  0  0  0  0
 25 52  1  0  0  0  0
 27 53  1  0  0  0  0
 28 54  1  0  0  0  0
 29 55  1  0  0  0  0
 31 56  1  0  0  0  0
 34 57  1  0  0  0  0
 35 58  1  0  0  0  0
 38 59  1  0  0  0  0
 38 60  1  0  0  0  0
 38 61  1  0  0  0  0
M  END
> <IC50[nM]>
8.9

$$$$
CHEMBL3264997
  -OEChem-05192314333D
 Structure written by MMmdl.
 61 65  0     0  0  0  0  0  0999 V2000
   -4.2555   -3.1029   13.5707 C   0  0  0  0  0  0  0  0  0  0  0  0
   -3.8740   -2.3535   14.7166 O   0  0  0  0  0  0  0  0  0  0  0  0
   -2.5261   -2.1057   14.8053 C   0  0  0  0  0  0  0  0  0  0  0  0
   -1.7497   -2.8673   15.6804 C   0  0  0  0  0  0  0  0  0  0  0  0
   -0.3863   -2.6106   15.8150 C   0  0  0  0  0  0  0  0  0  0  0  0
    0.2220   -1.5829   15.0890 C   0  0  0  0  0  0  0  0  0  0  0  0
    1.5930   -1.3491   15.3060 N   0  0  0  0  0  0  0  0  0  0  0  0
    2.5452   -0.4689   14.7536 C   0  0  0  0  0  0  0  0  0  0  0  0
    2.2178    0.3551   13.7190 N   0  0  0  0  0  0  0  0  0  0  0  0
    3.1227    1.2406   13.2181 C   0  0  0  0  0  0  0  0  0  0  0  0
    4.4207    1.3039   13.7175 C   0  0  0  0  0  0  0  0  0  0  0  0
    4.7482    0.4921   14.7654 N   0  0  0  0  0  0  0  0  0  0  0  0
    5.8898    0.3836   15.5035 C   0  0  0  0  0  0  0  0  0  0  0  0
    5.5715   -0.5089   16.5177 C   0  0  0  0  0  0  0  0  0  0  0  0
    4.3818   -1.0543   16.3920 N   0  0  0  0  0  0  0  0  0  0  0  0
    3.8330   -0.4170   15.3252 C   0  0  0  0  0  0  0  0  0  0  0  0
    2.6564    2.1560   12.1340 C   0  0  0  0  0  0  0  0  0  0  0  0
    3.5566    2.6280   11.1666 C   0  0  0  0  0  0  0  0  0  0  0  0
    3.1294    3.4499   10.1277 C   0  0  0  0  0  0  0  0  0  0  0  0
    1.7879    3.8078   10.0318 C   0  0  0  0  0  0  0  0  0  0  0  0
    0.8660    3.3707   10.9895 C   0  0  0  0  0  0  0  0  0  0  0  0
    1.3140    2.5576   12.0419 C   0  0  0  0  0  0  0  0  0  0  0  0
   -0.5783    3.7648   10.8956 C   0  0  0  0  0  0  0  0  0  0  0  0
   -1.2610    3.7179    9.8765 O   0  0  0  0  0  0  0  0  0  0  0  0
   -1.0553    4.1831   12.0683 N   0  0  0  0  0  0  0  0  0  0  0  0
   -2.4212    4.6362   12.3150 C   0  0  0  0  0  0  0  0  0  0  0  0
   -2.7024    5.4228   13.4257 C   0  0  0  0  0  0  0  0  0  0  0  0
   -4.0026    5.8541   13.6606 C   0  0  0  0  0  0  0  0  0  0  0  0
   -5.0215    5.4987   12.7847 C   0  0  0  0  0  0  0  0  0  0  0  0
   -4.7403    4.7121   11.6740 C   0  0  0  0  0  0  0  0  0  0  0  0
   -3.4401    4.2808   11.4391 C   0  0  0  0  0  0  0  0  0  0  0  0
   -5.8399    4.3286   10.7287 C   0  0  0  0  0  0  0  0  0  0  0  0
   -5.6116    3.6277    9.7316 O   0  0  0  0  0  0  0  0  0  0  0  0
   -6.9848    4.7354   10.9767 O   0  0  0  0  0  0  0  0  0  0  0  0
   -0.5664   -0.8256   14.2115 C   0  0  0  0  0  0  0  0  0  0  0  0
   -1.9389   -1.0760   14.0580 C   0  0  0  0  0  0  0  0  0  0  0  0
   -2.6991   -0.3052   13.2021 O   0  0  0  0  0  0  0  0  0  0  0  0
   -2.0020    0.6746   12.5251 C   0  0  0  0  0  0  0  0  0  0  0  0
   -5.3448   -3.2555   13.5777 H   0  0  0  0  0  0  0  0  0  0  0  0
   -3.9681   -2.5543   12.6616 H   0  0  0  0  0  0  0  0  0  0  0  0
   -3.7486   -4.0790   13.5856 H   0  0  0  0  0  0  0  0  0  0  0  0
   -2.2073   -3.6587   16.2555 H   0  0  0  0  0  0  0  0  0  0  0  0
    0.2066   -3.2125   16.4877 H   0  0  0  0  0  0  0  0  0  0  0  0
    1.9791   -1.9422   16.0125 H   0  0  0  0  0  0  0  0  0  0  0  0
    5.1484    1.9765   13.2880 H   0  0  0  0  0  0  0  0  0  0  0  0
    6.8331    0.8820   15.3359 H   0  0  0  0  0  0  0  0  0  0  0  0
    6.2400   -0.7347   17.3354 H   0  0  0  0  0  0  0  0  0  0  0  0
    4.5981    2.3490   11.2292 H   0  0  0  0  0  0  0  0  0  0  0  0
    3.8383    3.8096    9.3966 H   0  0  0  0  0  0  0  0  0  0  0  0
    1.4559    4.4276    9.2120 H   0  0  0  0  0  0  0  0  0  0  0  0
    0.6121    2.2342   12.7963 H   0  0  0  0  0  0  0  0  0  0  0  0
   -2.1412    4.0181   10.0704 H   0  0  0  0  0  0  0  0  0  0  0  0
   -1.9106    5.6989   14.1063 H   0  0  0  0  0  0  0  0  0  0  0  0
   -4.2212    6.4654   14.5237 H   0  0  0  0  0  0  0  0  0  0  0  0
   -6.0318    5.8338   12.9672 H   0  0  0  0  0  0  0  0  0  0  0  0
   -3.2215    3.6695   10.5760 H   0  0  0  0  0  0  0  0  0  0  0  0
   -7.5834    4.4255   10.3073 H   0  0  0  0  0  0  0  0  0  0  0  0
   -0.1075   -0.0318   13.6408 H   0  0  0  0  0  0  0  0  0  0  0  0
   -2.6909    1.2310   11.8726 H   0  0  0  0  0  0  0  0  0  0  0  0
   -1.5443    1.3652   13.2487 H   0  0  0  0  0  0  0  0  0  0  0  0
   -1.2146    0.2087   11.9144 H   0  0  0  0  0  0  0  0  0  0  0  0
  1  2  1  0  0  0  0
  2  3  1  0  0  0  0
  3  4  2  0  0  0  0
  3 36  1  0  0  0  0
  4  5  1  0  0  0  0
  5  6  2  0  0  0  0
  6  7  1  0  0  0  0
  6 35  1  0  0  0  0
  7  8  1  0  0  0  0
  8  9  2  0  0  0  0
  8 16  1  0  0  0  0
  9 10  1  0  0  0  0
 10 11  2  0  0  0  0
 10 17  1  0  0  0  0
 11 12  1  0  0  0  0
 12 13  1  0  0  0  0
 12 16  1  0  0  0  0
 13 14  2  0  0  0  0
 14 15  1  0  0  0  0
 15 16  2  0  0  0  0
 17 18  2  0  0  0  0
 17 22  1  0  0  0  0
 18 19  1  0  0  0  0
 19 20  2  0  0  0  0
 20 21  1  0  0  0  0
 21 22  2  0  0  0  0
 21 23  1  0  0  0  0
 23 24  1  0  0  0  0
 23 25  2  0  0  0  0
 25 26  1  0  0  0  0
 26 27  2  0  0  0  0
 26 31  1  0  0  0  0
 27 28  1  0  0  0  0
 28 29  2  0  0  0  0
 29 30  1  0  0  0  0
 30 31  2  0  0  0  0
 30 32  1  0  0  0  0
 32 33  2  0  0  0  0
 32 34  1  0  0  0  0
 35 36  2  0  0  0  0
 36 37  1  0  0  0  0
 37 38  1  0  0  0  0
  1 39  1  0  0  0  0
  1 40  1  0  0  0  0
  1 41  1  0  0  0  0
  4 42  1  0  0  0  0
  5 43  1  0  0  0  0
  7 44  1  0  0  0  0
 11 45  1  0  0  0  0
 13 46  1  0  0  0  0
 14 47  1  0  0  0  0
 18 48  1  0  0  0  0
 19 49  1  0  0  0  0
 20 50  1  0  0  0  0
 22 51  1  0  0  0  0
 24 52  1  0  0  0  0
 27 53  1  0  0  0  0
 28 54  1  0  0  0  0
 29 55  1  0  0  0  0
 31 56  1  0  0  0  0
 34 57  1  0  0  0  0
 35 58  1  0  0  0  0
 38 59  1  0  0  0  0
 38 60  1  0  0  0  0
 38 61  1  0  0  0  0
M  END
> <IC50[nM]>
8.9

$$$$
CHEMBL3264997
  -OEChem-05192314333D
 Structure written by MMmdl.
 61 65  0     0  0  0  0  0  0999 V2000
   -4.2555   -3.1029   13.5707 C   0  0  0  0  0  0  0  0  0  0  0  0
   -3.8740   -2.3535   14.7166 O   0  0  0  0  0  0  0  0  0  0  0  0
   -2.5261   -2.1057   14.8053 C   0  0  0  0  0  0  0  0  0  0  0  0
   -1.7497   -2.8673   15.6804 C   0  0  0  0  0  0  0  0  0  0  0  0
   -0.3863   -2.6106   15.8150 C   0  0  0  0  0  0  0  0  0  0  0  0
    0.2220   -1.5829   15.0890 C   0  0  0  0  0  0  0  0  0  0  0  0
    1.5930   -1.3491   15.3060 N   0  0  0  0  0  0  0  0  0  0  0  0
    2.5452   -0.4689   14.7536 C   0  0  0  0  0  0  0  0  0  0  0  0
    2.2178    0.3551   13.7190 N   0  0  0  0  0  0  0  0  0  0  0  0
    3.1227    1.2406   13.2181 C   0  0  0  0  0  0  0  0  0  0  0  0
    4.4207    1.3039   13.7175 C   0  0  0  0  0  0  0  0  0  0  0  0
    4.7482    0.4921   14.7654 N   0  0  0  0  0  0  0  0  0  0  0  0
    5.8898    0.3836   15.5035 C   0  0  0  0  0  0  0  0  0  0  0  0
    5.5715   -0.5089   16.5177 C   0  0  0  0  0  0  0  0  0  0  0  0
    4.3818   -1.0543   16.3920 N   0  0  0  0  0  0  0  0  0  0  0  0
    3.8330   -0.4170   15.3252 C   0  0  0  0  0  0  0  0  0  0  0  0
    2.6564    2.1560   12.1340 C   0  0  0  0  0  0  0  0  0  0  0  0
    3.5566    2.6280   11.1666 C   0  0  0  0  0  0  0  0  0  0  0  0
    3.1294    3.4499   10.1277 C   0  0  0  0  0  0  0  0  0  0  0  0
    1.7879    3.8078   10.0318 C   0  0  0  0  0  0  0  0  0  0  0  0
    0.8660    3.3707   10.9895 C   0  0  0  0  0  0  0  0  0  0  0  0
    1.3140    2.5576   12.0419 C   0  0  0  0  0  0  0  0  0  0  0  0
   -0.5783    3.7648   10.8956 C   0  0  0  0  0  0  0  0  0  0  0  0
   -1.2610    3.7179    9.8765 O   0  0  0  0  0  0  0  0  0  0  0  0
   -1.0553    4.1831   12.0683 N   0  0  0  0  0  0  0  0  0  0  0  0
   -2.4212    4.6362   12.3150 C   0  0  0  0  0  0  0  0  0  0  0  0
   -2.7024    5.4228   13.4257 C   0  0  0  0  0  0  0  0  0  0  0  0
   -4.0026    5.8541   13.6606 C   0  0  0  0  0  0  0  0  0  0  0  0
   -5.0215    5.4987   12.7847 C   0  0  0  0  0  0  0  0  0  0  0  0
   -4.7403    4.7121   11.6740 C   0  0  0  0  0  0  0  0  0  0  0  0
   -3.4401    4.2808   11.4391 C   0  0  0  0  0  0  0  0  0  0  0  0
   -5.8399    4.3286   10.7287 C   0  0  0  0  0  0  0  0  0  0  0  0
   -5.6116    3.6277    9.7316 O   0  0  0  0  0  0  0  0  0  0  0  0
   -6.9848    4.7354   10.9767 O   0  0  0  0  0  0  0  0  0  0  0  0
   -0.5664   -0.8256   14.2115 C   0  0  0  0  0  0  0  0  0  0  0  0
   -1.9389   -1.0760   14.0580 C   0  0  0  0  0  0  0  0  0  0  0  0
   -2.6991   -0.3052   13.2021 O   0  0  0  0  0  0  0  0  0  0  0  0
   -2.0020    0.6746   12.5251 C   0  0  0  0  0  0  0  0  0  0  0  0
   -5.3448   -3.2555   13.5777 H   0  0  0  0  0  0  0  0  0  0  0  0
   -3.9681   -2.5543   12.6616 H   0  0  0  0  0  0  0  0  0  0  0  0
   -3.7486   -4.0790   13.5856 H   0  0  0  0  0  0  0  0  0  0  0  0
   -2.2073   -3.6587   16.2555 H   0  0  0  0  0  0  0  0  0  0  0  0
    0.2066   -3.2125   16.4877 H   0  0  0  0  0  0  0  0  0  0  0  0
    1.3010    0.3089   13.3224 H   0  0  0  0  0  0  0  0  0  0  0  0
    5.1484    1.9765   13.2880 H   0  0  0  0  0  0  0  0  0  0  0  0
    6.8331    0.8820   15.3359 H   0  0  0  0  0  0  0  0  0  0  0  0
    6.2400   -0.7347   17.3354 H   0  0  0  0  0  0  0  0  0  0  0  0
    4.5981    2.3490   11.2292 H   0  0  0  0  0  0  0  0  0  0  0  0
    3.8383    3.8096    9.3966 H   0  0  0  0  0  0  0  0  0  0  0  0
    1.4559    4.4276    9.2120 H   0  0  0  0  0  0  0  0  0  0  0  0
    0.6121    2.2342   12.7963 H   0  0  0  0  0  0  0  0  0  0  0  0
   -0.4244    4.1868   12.8442 H   0  0  0  0  0  0  0  0  0  0  0  0
   -1.9106    5.6989   14.1063 H   0  0  0  0  0  0  0  0  0  0  0  0
   -4.2212    6.4654   14.5237 H   0  0  0  0  0  0  0  0  0  0  0  0
   -6.0318    5.8338   12.9672 H   0  0  0  0  0  0  0  0  0  0  0  0
   -3.2215    3.6695   10.5760 H   0  0  0  0  0  0  0  0  0  0  0  0
   -7.5834    4.4255   10.3073 H   0  0  0  0  0  0  0  0  0  0  0  0
   -0.1075   -0.0318   13.6408 H   0  0  0  0  0  0  0  0  0  0  0  0
   -2.6909    1.2310   11.8726 H   0  0  0  0  0  0  0  0  0  0  0  0
   -1.5443    1.3652   13.2487 H   0  0  0  0  0  0  0  0  0  0  0  0
   -1.2146    0.2087   11.9144 H   0  0  0  0  0  0  0  0  0  0  0  0
  1  2  1  0  0  0  0
  2  3  1  0  0  0  0
  3  4  2  0  0  0  0
  3 36  1  0  0  0  0
  4  5  1  0  0  0  0
  5  6  2  0  0  0  0
  6  7  1  0  0  0  0
  6 35  1  0  0  0  0
  7  8  2  0  0  0  0
  8  9  1  0  0  0  0
  8 16  1  0  0  0  0
  9 10  1  0  0  0  0
 10 11  2  0  0  0  0
 10 17  1  0  0  0  0
 11 12  1  0  0  0  0
 12 13  1  0  0  0  0
 12 16  1  0  0  0  0
 13 14  2  0  0  0  0
 14 15  1  0  0  0  0
 15 16  2  0  0  0  0
 17 18  2  0  0  0  0
 17 22  1  0  0  0  0
 18 19  1  0  0  0  0
 19 20  2  0  0  0  0
 20 21  1  0  0  0  0
 21 22  2  0  0  0  0
 21 23  1  0  0  0  0
 23 24  2  0  0  0  0
 23 25  1  0  0  0  0
 25 26  1  0  0  0  0
 26 27  2  0  0  0  0
 26 31  1  0  0  0  0
 27 28  1  0  0  0  0
 28 29  2  0  0  0  0
 29 30  1  0  0  0  0
 30 31  2  0  0  0  0
 30 32  1  0  0  0  0
 32 33  2  0  0  0  0
 32 34  1  0  0  0  0
 35 36  2  0  0  0  0
 36 37  1  0  0  0  0
 37 38  1  0  0  0  0
  1 39  1  0  0  0  0
  1 40  1  0  0  0  0
  1 41  1  0  0  0  0
  4 42  1  0  0  0  0
  5 43  1  0  0  0  0
  9 44  1  0  0  0  0
 11 45  1  0  0  0  0
 13 46  1  0  0  0  0
 14 47  1  0  0  0  0
 18 48  1  0  0  0  0
 19 49  1  0  0  0  0
 20 50  1  0  0  0  0
 22 51  1  0  0  0  0
 25 52  1  0  0  0  0
 27 53  1  0  0  0  0
 28 54  1  0  0  0  0
 29 55  1  0  0  0  0
 31 56  1  0  0  0  0
 34 57  1  0  0  0  0
 35 58  1  0  0  0  0
 38 59  1  0  0  0  0
 38 60  1  0  0  0  0
 38 61  1  0  0  0  0
M  END
> <IC50[nM]>
8.9

$$$$
CHEMBL3264997
  -OEChem-05192314333D
 Structure written by MMmdl.
 61 65  0     0  0  0  0  0  0999 V2000
   -4.2555   -3.1029   13.5707 C   0  0  0  0  0  0  0  0  0  0  0  0
   -3.8740   -2.3535   14.7166 O   0  0  0  0  0  0  0  0  0  0  0  0
   -2.5261   -2.1057   14.8053 C   0  0  0  0  0  0  0  0  0  0  0  0
   -1.7497   -2.8673   15.6804 C   0  0  0  0  0  0  0  0  0  0  0  0
   -0.3863   -2.6106   15.8150 C   0  0  0  0  0  0  0  0  0  0  0  0
    0.2220   -1.5829   15.0890 C   0  0  0  0  0  0  0  0  0  0  0  0
    1.5930   -1.3491   15.3060 N   0  0  0  0  0  0  0  0  0  0  0  0
    2.5452   -0.4689   14.7536 C   0  0  0  0  0  0  0  0  0  0  0  0
    2.2178    0.3551   13.7190 N   0  0  0  0  0  0  0  0  0  0  0  0
    3.1227    1.2406   13.2181 C   0  0  0  0  0  0  0  0  0  0  0  0
    4.4207    1.3039   13.7175 C   0  0  0  0  0  0  0  0  0  0  0  0
    4.7482    0.4921   14.7654 N   0  0  0  0  0  0  0  0  0  0  0  0
    5.8898    0.3836   15.5035 C   0  0  0  0  0  0  0  0  0  0  0  0
    5.5715   -0.5089   16.5177 C   0  0  0  0  0  0  0  0  0  0  0  0
    4.3818   -1.0543   16.3920 N   0  0  0  0  0  0  0  0  0  0  0  0
    3.8330   -0.4170   15.3252 C   0  0  0  0  0  0  0  0  0  0  0  0
    2.6564    2.1560   12.1340 C   0  0  0  0  0  0  0  0  0  0  0  0
    3.5566    2.6280   11.1666 C   0  0  0  0  0  0  0  0  0  0  0  0
    3.1294    3.4499   10.1277 C   0  0  0  0  0  0  0  0  0  0  0  0
    1.7879    3.8078   10.0318 C   0  0  0  0  0  0  0  0  0  0  0  0
    0.8660    3.3707   10.9895 C   0  0  0  0  0  0  0  0  0  0  0  0
    1.3140    2.5576   12.0419 C   0  0  0  0  0  0  0  0  0  0  0  0
   -0.5783    3.7648   10.8956 C   0  0  0  0  0  0  0  0  0  0  0  0
   -1.2610    3.7179    9.8765 O   0  0  0  0  0  0  0  0  0  0  0  0
   -1.0553    4.1831   12.0683 N   0  0  0  0  0  0  0  0  0  0  0  0
   -2.4212    4.6362   12.3150 C   0  0  0  0  0  0  0  0  0  0  0  0
   -2.7024    5.4228   13.4257 C   0  0  0  0  0  0  0  0  0  0  0  0
   -4.0026    5.8541   13.6606 C   0  0  0  0  0  0  0  0  0  0  0  0
   -5.0215    5.4987   12.7847 C   0  0  0  0  0  0  0  0  0  0  0  0
   -4.7403    4.7121   11.6740 C   0  0  0  0  0  0  0  0  0  0  0  0
   -3.4401    4.2808   11.4391 C   0  0  0  0  0  0  0  0  0  0  0  0
   -5.8399    4.3286   10.7287 C   0  0  0  0  0  0  0  0  0  0  0  0
   -5.6116    3.6277    9.7316 O   0  0  0  0  0  0  0  0  0  0  0  0
   -6.9848    4.7354   10.9767 O   0  0  0  0  0  0  0  0  0  0  0  0
   -0.5664   -0.8256   14.2115 C   0  0  0  0  0  0  0  0  0  0  0  0
   -1.9389   -1.0760   14.0580 C   0  0  0  0  0  0  0  0  0  0  0  0
   -2.6991   -0.3052   13.2021 O   0  0  0  0  0  0  0  0  0  0  0  0
   -2.0020    0.6746   12.5251 C   0  0  0  0  0  0  0  0  0  0  0  0
   -5.3448   -3.2555   13.5777 H   0  0  0  0  0  0  0  0  0  0  0  0
   -3.9681   -2.5543   12.6616 H   0  0  0  0  0  0  0  0  0  0  0  0
   -3.7486   -4.0790   13.5856 H   0  0  0  0  0  0  0  0  0  0  0  0
   -2.2073   -3.6587   16.2555 H   0  0  0  0  0  0  0  0  0  0  0  0
    0.2066   -3.2125   16.4877 H   0  0  0  0  0  0  0  0  0  0  0  0
    1.3010    0.3089   13.3224 H   0  0  0  0  0  0  0  0  0  0  0  0
    5.1484    1.9765   13.2880 H   0  0  0  0  0  0  0  0  0  0  0  0
    6.8331    0.8820   15.3359 H   0  0  0  0  0  0  0  0  0  0  0  0
    6.2400   -0.7347   17.3354 H   0  0  0  0  0  0  0  0  0  0  0  0
    4.5981    2.3490   11.2292 H   0  0  0  0  0  0  0  0  0  0  0  0
    3.8383    3.8096    9.3966 H   0  0  0  0  0  0  0  0  0  0  0  0
    1.4559    4.4276    9.2120 H   0  0  0  0  0  0  0  0  0  0  0  0
    0.6121    2.2342   12.7963 H   0  0  0  0  0  0  0  0  0  0  0  0
   -2.1412    4.0181   10.0704 H   0  0  0  0  0  0  0  0  0  0  0  0
   -1.9106    5.6989   14.1063 H   0  0  0  0  0  0  0  0  0  0  0  0
   -4.2212    6.4654   14.5237 H   0  0  0  0  0  0  0  0  0  0  0  0
   -6.0318    5.8338   12.9672 H   0  0  0  0  0  0  0  0  0  0  0  0
   -3.2215    3.6695   10.5760 H   0  0  0  0  0  0  0  0  0  0  0  0
   -7.5834    4.4255   10.3073 H   0  0  0  0  0  0  0  0  0  0  0  0
   -0.1075   -0.0318   13.6408 H   0  0  0  0  0  0  0  0  0  0  0  0
   -2.6909    1.2310   11.8726 H   0  0  0  0  0  0  0  0  0  0  0  0
   -1.5443    1.3652   13.2487 H   0  0  0  0  0  0  0  0  0  0  0  0
   -1.2146    0.2087   11.9144 H   0  0  0  0  0  0  0  0  0  0  0  0
  1  2  1  0  0  0  0
  2  3  1  0  0  0  0
  3  4  2  0  0  0  0
  3 36  1  0  0  0  0
  4  5  1  0  0  0  0
  5  6  2  0  0  0  0
  6  7  1  0  0  0  0
  6 35  1  0  0  0  0
  7  8  2  0  0  0  0
  8  9  1  0  0  0  0
  8 16  1  0  0  0  0
  9 10  1  0  0  0  0
 10 11  2  0  0  0  0
 10 17  1  0  0  0  0
 11 12  1  0  0  0  0
 12 13  1  0  0  0  0
 12 16  1  0  0  0  0
 13 14  2  0  0  0  0
 14 15  1  0  0  0  0
 15 16  2  0  0  0  0
 17 18  2  0  0  0  0
 17 22  1  0  0  0  0
 18 19  1  0  0  0  0
 19 20  2  0  0  0  0
 20 21  1  0  0  0  0
 21 22  2  0  0  0  0
 21 23  1  0  0  0  0
 23 24  1  0  0  0  0
 23 25  2  0  0  0  0
 25 26  1  0  0  0  0
 26 27  2  0  0  0  0
 26 31  1  0  0  0  0
 27 28  1  0  0  0  0
 28 29  2  0  0  0  0
 29 30  1  0  0  0  0
 30 31  2  0  0  0  0
 30 32  1  0  0  0  0
 32 33  2  0  0  0  0
 32 34  1  0  0  0  0
 35 36  2  0  0  0  0
 36 37  1  0  0  0  0
 37 38  1  0  0  0  0
  1 39  1  0  0  0  0
  1 40  1  0  0  0  0
  1 41  1  0  0  0  0
  4 42  1  0  0  0  0
  5 43  1  0  0  0  0
  9 44  1  0  0  0  0
 11 45  1  0  0  0  0
 13 46  1  0  0  0  0
 14 47  1  0  0  0  0
 18 48  1  0  0  0  0
 19 49  1  0  0  0  0
 20 50  1  0  0  0  0
 22 51  1  0  0  0  0
 24 52  1  0  0  0  0
 27 53  1  0  0  0  0
 28 54  1  0  0  0  0
 29 55  1  0  0  0  0
 31 56  1  0  0  0  0
 34 57  1  0  0  0  0
 35 58  1  0  0  0  0
 38 59  1  0  0  0  0
 38 60  1  0  0  0  0
 38 61  1  0  0  0  0
M  END
> <IC50[nM]>
8.9

$$$$
CHEMBL3264997
  -OEChem-05192314333D
 Structure written by MMmdl.
 61 65  0     0  0  0  0  0  0999 V2000
   -4.2555   -3.1029   13.5707 C   0  0  0  0  0  0  0  0  0  0  0  0
   -3.8740   -2.3535   14.7166 O   0  0  0  0  0  0  0  0  0  0  0  0
   -2.5261   -2.1057   14.8053 C   0  0  0  0  0  0  0  0  0  0  0  0
   -1.7497   -2.8673   15.6804 C   0  0  0  0  0  0  0  0  0  0  0  0
   -0.3863   -2.6106   15.8150 C   0  0  0  0  0  0  0  0  0  0  0  0
    0.2220   -1.5829   15.0890 C   0  0  0  0  0  0  0  0  0  0  0  0
    1.5930   -1.3491   15.3060 N   0  0  0  0  0  0  0  0  0  0  0  0
    2.5452   -0.4689   14.7536 C   0  0  0  0  0  0  0  0  0  0  0  0
    2.2178    0.3551   13.7190 N   0  0  0  0  0  0  0  0  0  0  0  0
    3.1227    1.2406   13.2181 C   0  0  0  0  0  0  0  0  0  0  0  0
    4.4207    1.3039   13.7175 C   0  0  0  0  0  0  0  0  0  0  0  0
    4.7482    0.4921   14.7654 N   0  0  0  0  0  0  0  0  0  0  0  0
    5.8898    0.3836   15.5035 C   0  0  0  0  0  0  0  0  0  0  0  0
    5.5715   -0.5089   16.5177 C   0  0  0  0  0  0  0  0  0  0  0  0
    4.3818   -1.0543   16.3920 N   0  0  0  0  0  0  0  0  0  0  0  0
    3.8330   -0.4170   15.3252 C   0  0  0  0  0  0  0  0  0  0  0  0
    2.6564    2.1560   12.1340 C   0  0  0  0  0  0  0  0  0  0  0  0
    3.5566    2.6280   11.1666 C   0  0  0  0  0  0  0  0  0  0  0  0
    3.1294    3.4499   10.1277 C   0  0  0  0  0  0  0  0  0  0  0  0
    1.7879    3.8078   10.0318 C   0  0  0  0  0  0  0  0  0  0  0  0
    0.8660    3.3707   10.9895 C   0  0  0  0  0  0  0  0  0  0  0  0
    1.3140    2.5576   12.0419 C   0  0  0  0  0  0  0  0  0  0  0  0
   -0.5783    3.7648   10.8956 C   0  0  0  0  0  0  0  0  0  0  0  0
   -1.2610    3.7179    9.8765 O   0  0  0  0  0  0  0  0  0  0  0  0
   -1.0553    4.1831   12.0683 N   0  0  0  0  0  0  0  0  0  0  0  0
   -2.4212    4.6362   12.3150 C   0  0  0  0  0  0  0  0  0  0  0  0
   -2.7024    5.4228   13.4257 C   0  0  0  0  0  0  0  0  0  0  0  0
   -4.0026    5.8541   13.6606 C   0  0  0  0  0  0  0  0  0  0  0  0
   -5.0215    5.4987   12.7847 C   0  0  0  0  0  0  0  0  0  0  0  0
   -4.7403    4.7121   11.6740 C   0  0  0  0  0  0  0  0  0  0  0  0
   -3.4401    4.2808   11.4391 C   0  0  0  0  0  0  0  0  0  0  0  0
   -5.8399    4.3286   10.7287 C   0  0  0  0  0  0  0  0  0  0  0  0
   -5.6116    3.6277    9.7316 O   0  0  0  0  0  0  0  0  0  0  0  0
   -6.9848    4.7354   10.9767 O   0  0  0  0  0  0  0  0  0  0  0  0
   -0.5664   -0.8256   14.2115 C   0  0  0  0  0  0  0  0  0  0  0  0
   -1.9389   -1.0760   14.0580 C   0  0  0  0  0  0  0  0  0  0  0  0
   -2.6991   -0.3052   13.2021 O   0  0  0  0  0  0  0  0  0  0  0  0
   -2.0020    0.6746   12.5251 C   0  0  0  0  0  0  0  0  0  0  0  0
   -5.3448   -3.2555   13.5777 H   0  0  0  0  0  0  0  0  0  0  0  0
   -3.9681   -2.5543   12.6616 H   0  0  0  0  0  0  0  0  0  0  0  0
   -3.7486   -4.0790   13.5856 H   0  0  0  0  0  0  0  0  0  0  0  0
   -2.2073   -3.6587   16.2555 H   0  0  0  0  0  0  0  0  0  0  0  0
    0.2066   -3.2125   16.4877 H   0  0  0  0  0  0  0  0  0  0  0  0
    5.1014    1.0581   12.8891 H   0  0  0  0  0  0  0  0  0  0  0  0
    4.5958    2.3407   14.0407 H   0  0  0  0  0  0  0  0  0  0  0  0
    6.8331    0.8820   15.3359 H   0  0  0  0  0  0  0  0  0  0  0  0
    6.2400   -0.7347   17.3354 H   0  0  0  0  0  0  0  0  0  0  0  0
    4.5981    2.3490   11.2292 H   0  0  0  0  0  0  0  0  0  0  0  0
    3.8383    3.8096    9.3966 H   0  0  0  0  0  0  0  0  0  0  0  0
    1.4559    4.4276    9.2120 H   0  0  0  0  0  0  0  0  0  0  0  0
    0.6121    2.2342   12.7963 H   0  0  0  0  0  0  0  0  0  0  0  0
   -0.4244    4.1868   12.8442 H   0  0  0  0  0  0  0  0  0  0  0  0
   -1.9106    5.6989   14.1063 H   0  0  0  0  0  0  0  0  0  0  0  0
   -4.2212    6.4654   14.5237 H   0  0  0  0  0  0  0  0  0  0  0  0
   -6.0318    5.8338   12.9672 H   0  0  0  0  0  0  0  0  0  0  0  0
   -3.2215    3.6695   10.5760 H   0  0  0  0  0  0  0  0  0  0  0  0
   -7.5834    4.4255   10.3073 H   0  0  0  0  0  0  0  0  0  0  0  0
   -0.1075   -0.0318   13.6408 H   0  0  0  0  0  0  0  0  0  0  0  0
   -2.6909    1.2310   11.8726 H   0  0  0  0  0  0  0  0  0  0  0  0
   -1.5443    1.3652   13.2487 H   0  0  0  0  0  0  0  0  0  0  0  0
   -1.2146    0.2087   11.9144 H   0  0  0  0  0  0  0  0  0  0  0  0
  1  2  1  0  0  0  0
  2  3  1  0  0  0  0
  3  4  2  0  0  0  0
  3 36  1  0  0  0  0
  4  5  1  0  0  0  0
  5  6  2  0  0  0  0
  6  7  1  0  0  0  0
  6 35  1  0  0  0  0
  7  8  2  0  0  0  0
  8  9  1  0  0  0  0
  8 16  1  0  0  0  0
  9 10  2  0  0  0  0
 10 11  1  0  0  0  0
 10 17  1  0  0  0  0
 11 12  1  0  0  0  0
 12 13  1  0  0  0  0
 12 16  1  0  0  0  0
 13 14  2  0  0  0  0
 14 15  1  0  0  0  0
 15 16  2  0  0  0  0
 17 18  2  0  0  0  0
 17 22  1  0  0  0  0
 18 19  1  0  0  0  0
 19 20  2  0  0  0  0
 20 21  1  0  0  0  0
 21 22  2  0  0  0  0
 21 23  1  0  0  0  0
 23 24  2  0  0  0  0
 23 25  1  0  0  0  0
 25 26  1  0  0  0  0
 26 27  2  0  0  0  0
 26 31  1  0  0  0  0
 27 28  1  0  0  0  0
 28 29  2  0  0  0  0
 29 30  1  0  0  0  0
 30 31  2  0  0  0  0
 30 32  1  0  0  0  0
 32 33  2  0  0  0  0
 32 34  1  0  0  0  0
 35 36  2  0  0  0  0
 36 37  1  0  0  0  0
 37 38  1  0  0  0  0
  1 39  1  0  0  0  0
  1 40  1  0  0  0  0
  1 41  1  0  0  0  0
  4 42  1  0  0  0  0
  5 43  1  0  0  0  0
 11 44  1  0  0  0  0
 11 45  1  0  0  0  0
 13 46  1  0  0  0  0
 14 47  1  0  0  0  0
 18 48  1  0  0  0  0
 19 49  1  0  0  0  0
 20 50  1  0  0  0  0
 22 51  1  0  0  0  0
 25 52  1  0  0  0  0
 27 53  1  0  0  0  0
 28 54  1  0  0  0  0
 29 55  1  0  0  0  0
 31 56  1  0  0  0  0
 34 57  1  0  0  0  0
 35 58  1  0  0  0  0
 38 59  1  0  0  0  0
 38 60  1  0  0  0  0
 38 61  1  0  0  0  0
M  END
> <IC50[nM]>
8.9

$$$$
CHEMBL3264997
  -OEChem-05192314333D
 Structure written by MMmdl.
 61 65  0     0  0  0  0  0  0999 V2000
   -4.2555   -3.1029   13.5707 C   0  0  0  0  0  0  0  0  0  0  0  0
   -3.8740   -2.3535   14.7166 O   0  0  0  0  0  0  0  0  0  0  0  0
   -2.5261   -2.1057   14.8053 C   0  0  0  0  0  0  0  0  0  0  0  0
   -1.7497   -2.8673   15.6804 C   0  0  0  0  0  0  0  0  0  0  0  0
   -0.3863   -2.6106   15.8150 C   0  0  0  0  0  0  0  0  0  0  0  0
    0.2220   -1.5829   15.0890 C   0  0  0  0  0  0  0  0  0  0  0  0
    1.5930   -1.3491   15.3060 N   0  0  0  0  0  0  0  0  0  0  0  0
    2.5452   -0.4689   14.7536 C   0  0  0  0  0  0  0  0  0  0  0  0
    2.2178    0.3551   13.7190 N   0  0  0  0  0  0  0  0  0  0  0  0
    3.1227    1.2406   13.2181 C   0  0  0  0  0  0  0  0  0  0  0  0
    4.4207    1.3039   13.7175 C   0  0  0  0  0  0  0  0  0  0  0  0
    4.7482    0.4921   14.7654 N   0  0  0  0  0  0  0  0  0  0  0  0
    5.8898    0.3836   15.5035 C   0  0  0  0  0  0  0  0  0  0  0  0
    5.5715   -0.5089   16.5177 C   0  0  0  0  0  0  0  0  0  0  0  0
    4.3818   -1.0543   16.3920 N   0  0  0  0  0  0  0  0  0  0  0  0
    3.8330   -0.4170   15.3252 C   0  0  0  0  0  0  0  0  0  0  0  0
    2.6564    2.1560   12.1340 C   0  0  0  0  0  0  0  0  0  0  0  0
    3.5566    2.6280   11.1666 C   0  0  0  0  0  0  0  0  0  0  0  0
    3.1294    3.4499   10.1277 C   0  0  0  0  0  0  0  0  0  0  0  0
    1.7879    3.8078   10.0318 C   0  0  0  0  0  0  0  0  0  0  0  0
    0.8660    3.3707   10.9895 C   0  0  0  0  0  0  0  0  0  0  0  0
    1.3140    2.5576   12.0419 C   0  0  0  0  0  0  0  0  0  0  0  0
   -0.5783    3.7648   10.8956 C   0  0  0  0  0  0  0  0  0  0  0  0
   -1.2610    3.7179    9.8765 O   0  0  0  0  0  0  0  0  0  0  0  0
   -1.0553    4.1831   12.0683 N   0  0  0  0  0  0  0  0  0  0  0  0
   -2.4212    4.6362   12.3150 C   0  0  0  0  0  0  0  0  0  0  0  0
   -2.7024    5.4228   13.4257 C   0  0  0  0  0  0  0  0  0  0  0  0
   -4.0026    5.8541   13.6606 C   0  0  0  0  0  0  0  0  0  0  0  0
   -5.0215    5.4987   12.7847 C   0  0  0  0  0  0  0  0  0  0  0  0
   -4.7403    4.7121   11.6740 C   0  0  0  0  0  0  0  0  0  0  0  0
   -3.4401    4.2808   11.4391 C   0  0  0  0  0  0  0  0  0  0  0  0
   -5.8399    4.3286   10.7287 C   0  0  0  0  0  0  0  0  0  0  0  0
   -5.6116    3.6277    9.7316 O   0  0  0  0  0  0  0  0  0  0  0  0
   -6.9848    4.7354   10.9767 O   0  0  0  0  0  0  0  0  0  0  0  0
   -0.5664   -0.8256   14.2115 C   0  0  0  0  0  0  0  0  0  0  0  0
   -1.9389   -1.0760   14.0580 C   0  0  0  0  0  0  0  0  0  0  0  0
   -2.6991   -0.3052   13.2021 O   0  0  0  0  0  0  0  0  0  0  0  0
   -2.0020    0.6746   12.5251 C   0  0  0  0  0  0  0  0  0  0  0  0
   -5.3448   -3.2555   13.5777 H   0  0  0  0  0  0  0  0  0  0  0  0
   -3.9681   -2.5543   12.6616 H   0  0  0  0  0  0  0  0  0  0  0  0
   -3.7486   -4.0790   13.5856 H   0  0  0  0  0  0  0  0  0  0  0  0
   -2.2073   -3.6587   16.2555 H   0  0  0  0  0  0  0  0  0  0  0  0
    0.2066   -3.2125   16.4877 H   0  0  0  0  0  0  0  0  0  0  0  0
    5.1014    1.0581   12.8891 H   0  0  0  0  0  0  0  0  0  0  0  0
    4.5958    2.3407   14.0407 H   0  0  0  0  0  0  0  0  0  0  0  0
    6.8331    0.8820   15.3359 H   0  0  0  0  0  0  0  0  0  0  0  0
    6.2400   -0.7347   17.3354 H   0  0  0  0  0  0  0  0  0  0  0  0
    4.5981    2.3490   11.2292 H   0  0  0  0  0  0  0  0  0  0  0  0
    3.8383    3.8096    9.3966 H   0  0  0  0  0  0  0  0  0  0  0  0
    1.4559    4.4276    9.2120 H   0  0  0  0  0  0  0  0  0  0  0  0
    0.6121    2.2342   12.7963 H   0  0  0  0  0  0  0  0  0  0  0  0
   -2.1412    4.0181   10.0704 H   0  0  0  0  0  0  0  0  0  0  0  0
   -1.9106    5.6989   14.1063 H   0  0  0  0  0  0  0  0  0  0  0  0
   -4.2212    6.4654   14.5237 H   0  0  0  0  0  0  0  0  0  0  0  0
   -6.0318    5.8338   12.9672 H   0  0  0  0  0  0  0  0  0  0  0  0
   -3.2215    3.6695   10.5760 H   0  0  0  0  0  0  0  0  0  0  0  0
   -7.5834    4.4255   10.3073 H   0  0  0  0  0  0  0  0  0  0  0  0
   -0.1075   -0.0318   13.6408 H   0  0  0  0  0  0  0  0  0  0  0  0
   -2.6909    1.2310   11.8726 H   0  0  0  0  0  0  0  0  0  0  0  0
   -1.5443    1.3652   13.2487 H   0  0  0  0  0  0  0  0  0  0  0  0
   -1.2146    0.2087   11.9144 H   0  0  0  0  0  0  0  0  0  0  0  0
  1  2  1  0  0  0  0
  2  3  1  0  0  0  0
  3  4  2  0  0  0  0
  3 36  1  0  0  0  0
  4  5  1  0  0  0  0
  5  6  2  0  0  0  0
  6  7  1  0  0  0  0
  6 35  1  0  0  0  0
  7  8  2  0  0  0  0
  8  9  1  0  0  0  0
  8 16  1  0  0  0  0
  9 10  2  0  0  0  0
 10 11  1  0  0  0  0
 10 17  1  0  0  0  0
 11 12  1  0  0  0  0
 12 13  1  0  0  0  0
 12 16  1  0  0  0  0
 13 14  2  0  0  0  0
 14 15  1  0  0  0  0
 15 16  2  0  0  0  0
 17 18  2  0  0  0  0
 17 22  1  0  0  0  0
 18 19  1  0  0  0  0
 19 20  2  0  0  0  0
 20 21  1  0  0  0  0
 21 22  2  0  0  0  0
 21 23  1  0  0  0  0
 23 24  1  0  0  0  0
 23 25  2  0  0  0  0
 25 26  1  0  0  0  0
 26 27  2  0  0  0  0
 26 31  1  0  0  0  0
 27 28  1  0  0  0  0
 28 29  2  0  0  0  0
 29 30  1  0  0  0  0
 30 31  2  0  0  0  0
 30 32  1  0  0  0  0
 32 33  2  0  0  0  0
 32 34  1  0  0  0  0
 35 36  2  0  0  0  0
 36 37  1  0  0  0  0
 37 38  1  0  0  0  0
  1 39  1  0  0  0  0
  1 40  1  0  0  0  0
  1 41  1  0  0  0  0
  4 42  1  0  0  0  0
  5 43  1  0  0  0  0
 11 44  1  0  0  0  0
 11 45  1  0  0  0  0
 13 46  1  0  0  0  0
 14 47  1  0  0  0  0
 18 48  1  0  0  0  0
 19 49  1  0  0  0  0
 20 50  1  0  0  0  0
 22 51  1  0  0  0  0
 24 52  1  0  0  0  0
 27 53  1  0  0  0  0
 28 54  1  0  0  0  0
 29 55  1  0  0  0  0
 31 56  1  0  0  0  0
 34 57  1  0  0  0  0
 35 58  1  0  0  0  0
 38 59  1  0  0  0  0
 38 60  1  0  0  0  0
 38 61  1  0  0  0  0
M  END
> <IC50[nM]>
8.9

$$$$
CHEMBL3264997
  -OEChem-05192314333D
 Structure written by MMmdl.
 61 65  0     1  0  0  0  0  0999 V2000
   -4.2555   -3.1029   13.5707 C   0  0  0  0  0  0  0  0  0  0  0  0
   -3.8740   -2.3535   14.7166 O   0  0  0  0  0  0  0  0  0  0  0  0
   -2.5261   -2.1057   14.8053 C   0  0  3  0  0  0  0  0  0  0  0  0
   -1.7497   -2.8673   15.6804 C   0  0  0  0  0  0  0  0  0  0  0  0
   -0.3863   -2.6106   15.8150 C   0  0  0  0  0  0  0  0  0  0  0  0
    0.2220   -1.5829   15.0890 C   0  0  0  0  0  0  0  0  0  0  0  0
    1.5930   -1.3491   15.3060 N   0  0  0  0  0  0  0  0  0  0  0  0
    2.5452   -0.4689   14.7536 C   0  0  0  0  0  0  0  0  0  0  0  0
    2.2178    0.3551   13.7190 N   0  0  0  0  0  0  0  0  0  0  0  0
    3.1227    1.2406   13.2181 C   0  0  0  0  0  0  0  0  0  0  0  0
    4.4207    1.3039   13.7175 C   0  0  0  0  0  0  0  0  0  0  0  0
    4.7482    0.4921   14.7654 N   0  0  0  0  0  0  0  0  0  0  0  0
    5.8898    0.3836   15.5035 C   0  0  0  0  0  0  0  0  0  0  0  0
    5.5715   -0.5089   16.5177 C   0  0  0  0  0  0  0  0  0  0  0  0
    4.3818   -1.0543   16.3920 N   0  0  0  0  0  0  0  0  0  0  0  0
    3.8330   -0.4170   15.3252 C   0  0  0  0  0  0  0  0  0  0  0  0
    2.6564    2.1560   12.1340 C   0  0  0  0  0  0  0  0  0  0  0  0
    3.5566    2.6280   11.1666 C   0  0  0  0  0  0  0  0  0  0  0  0
    3.1294    3.4499   10.1277 C   0  0  0  0  0  0  0  0  0  0  0  0
    1.7879    3.8078   10.0318 C   0  0  0  0  0  0  0  0  0  0  0  0
    0.8660    3.3707   10.9895 C   0  0  0  0  0  0  0  0  0  0  0  0
    1.3140    2.5576   12.0419 C   0  0  0  0  0  0  0  0  0  0  0  0
   -0.5783    3.7648   10.8956 C   0  0  0  0  0  0  0  0  0  0  0  0
   -1.2610    3.7179    9.8765 O   0  0  0  0  0  0  0  0  0  0  0  0
   -1.0553    4.1831   12.0683 N   0  0  0  0  0  0  0  0  0  0  0  0
   -2.4212    4.6362   12.3150 C   0  0  0  0  0  0  0  0  0  0  0  0
   -2.7024    5.4228   13.4257 C   0  0  0  0  0  0  0  0  0  0  0  0
   -4.0026    5.8541   13.6606 C   0  0  0  0  0  0  0  0  0  0  0  0
   -5.0215    5.4987   12.7847 C   0  0  0  0  0  0  0  0  0  0  0  0
   -4.7403    4.7121   11.6740 C   0  0  0  0  0  0  0  0  0  0  0  0
   -3.4401    4.2808   11.4391 C   0  0  0  0  0  0  0  0  0  0  0  0
   -5.8399    4.3286   10.7287 C   0  0  0  0  0  0  0  0  0  0  0  0
   -5.6116    3.6277    9.7316 O   0  0  0  0  0  0  0  0  0  0  0  0
   -6.9848    4.7354   10.9767 O   0  0  0  0  0  0  0  0  0  0  0  0
   -0.5664   -0.8256   14.2115 C   0  0  0  0  0  0  0  0  0  0  0  0
   -1.9389   -1.0760   14.0580 C   0  0  0  0  0  0  0  0  0  0  0  0
   -2.6991   -0.3052   13.2021 O   0  0  0  0  0  0  0  0  0  0  0  0
   -2.0020    0.6746   12.5251 C   0  0  0  0  0  0  0  0  0  0  0  0
   -5.3448   -3.2555   13.5777 H   0  0  0  0  0  0  0  0  0  0  0  0
   -3.9681   -2.5543   12.6616 H   0  0  0  0  0  0  0  0  0  0  0  0
   -3.7486   -4.0790   13.5856 H   0  0  0  0  0  0  0  0  0  0  0  0
   -2.3305   -2.8209   13.9928 H   0  0  0  0  0  0  0  0  0  0  0  0
   -2.2073   -3.6587   16.2555 H   0  0  0  0  0  0  0  0  0  0  0  0
    0.2066   -3.2125   16.4877 H   0  0  0  0  0  0  0  0  0  0  0  0
    5.1484    1.9765   13.2880 H   0  0  0  0  0  0  0  0  0  0  0  0
    6.8331    0.8820   15.3359 H   0  0  0  0  0  0  0  0  0  0  0  0
    6.2400   -0.7347   17.3354 H   0  0  0  0  0  0  0  0  0  0  0  0
    4.5981    2.3490   11.2292 H   0  0  0  0  0  0  0  0  0  0  0  0
    3.8383    3.8096    9.3966 H   0  0  0  0  0  0  0  0  0  0  0  0
    1.4559    4.4276    9.2120 H   0  0  0  0  0  0  0  0  0  0  0  0
    0.6121    2.2342   12.7963 H   0  0  0  0  0  0  0  0  0  0  0  0
   -0.4244    4.1868   12.8442 H   0  0  0  0  0  0  0  0  0  0  0  0
   -1.9106    5.6989   14.1063 H   0  0  0  0  0  0  0  0  0  0  0  0
   -4.2212    6.4654   14.5237 H   0  0  0  0  0  0  0  0  0  0  0  0
   -6.0318    5.8338   12.9672 H   0  0  0  0  0  0  0  0  0  0  0  0
   -3.2215    3.6695   10.5760 H   0  0  0  0  0  0  0  0  0  0  0  0
   -7.5834    4.4255   10.3073 H   0  0  0  0  0  0  0  0  0  0  0  0
   -0.1075   -0.0318   13.6408 H   0  0  0  0  0  0  0  0  0  0  0  0
   -2.6909    1.2310   11.8726 H   0  0  0  0  0  0  0  0  0  0  0  0
   -1.5443    1.3652   13.2487 H   0  0  0  0  0  0  0  0  0  0  0  0
   -1.2146    0.2087   11.9144 H   0  0  0  0  0  0  0  0  0  0  0  0
  1  2  1  0  0  0  0
  2  3  1  0  0  0  0
  3  4  1  0  0  0  0
  3 36  1  0  0  0  0
  4  5  2  0  0  0  0
  5  6  1  0  0  0  0
  6  7  2  0  0  0  0
  6 35  1  0  0  0  0
  7  8  1  0  0  0  0
  8  9  2  0  0  0  0
  8 16  1  0  0  0  0
  9 10  1  0  0  0  0
 10 11  2  0  0  0  0
 10 17  1  0  0  0  0
 11 12  1  0  0  0  0
 12 13  1  0  0  0  0
 12 16  1  0  0  0  0
 13 14  2  0  0  0  0
 14 15  1  0  0  0  0
 15 16  2  0  0  0  0
 17 18  2  0  0  0  0
 17 22  1  0  0  0  0
 18 19  1  0  0  0  0
 19 20  2  0  0  0  0
 20 21  1  0  0  0  0
 21 22  2  0  0  0  0
 21 23  1  0  0  0  0
 23 24  2  0  0  0  0
 23 25  1  0  0  0  0
 25 26  1  0  0  0  0
 26 27  2  0  0  0  0
 26 31  1  0  0  0  0
 27 28  1  0  0  0  0
 28 29  2  0  0  0  0
 29 30  1  0  0  0  0
 30 31  2  0  0  0  0
 30 32  1  0  0  0  0
 32 33  2  0  0  0  0
 32 34  1  0  0  0  0
 35 36  2  0  0  0  0
 36 37  1  0  0  0  0
 37 38  1  0  0  0  0
  1 39  1  0  0  0  0
  1 40  1  0  0  0  0
  1 41  1  0  0  0  0
  3 42  1  0  0  0  0
  4 43  1  0  0  0  0
  5 44  1  0  0  0  0
 11 45  1  0  0  0  0
 13 46  1  0  0  0  0
 14 47  1  0  0  0  0
 18 48  1  0  0  0  0
 19 49  1  0  0  0  0
 20 50  1  0  0  0  0
 22 51  1  0  0  0  0
 25 52  1  0  0  0  0
 27 53  1  0  0  0  0
 28 54  1  0  0  0  0
 29 55  1  0  0  0  0
 31 56  1  0  0  0  0
 34 57  1  0  0  0  0
 35 58  1  0  0  0  0
 38 59  1  0  0  0  0
 38 60  1  0  0  0  0
 38 61  1  0  0  0  0
M  END
> <IC50[nM]>
8.9

$$$$
CHEMBL3264997
  -OEChem-05192314333D
 Structure written by MMmdl.
 61 65  0     0  0  0  0  0  0999 V2000
   -4.2555   -3.1029   13.5707 C   0  0  0  0  0  0  0  0  0  0  0  0
   -3.8740   -2.3535   14.7166 O   0  0  0  0  0  0  0  0  0  0  0  0
   -2.5261   -2.1057   14.8053 C   0  0  0  0  0  0  0  0  0  0  0  0
   -1.7497   -2.8673   15.6804 C   0  0  0  0  0  0  0  0  0  0  0  0
   -0.3863   -2.6106   15.8150 C   0  0  0  0  0  0  0  0  0  0  0  0
    0.2220   -1.5829   15.0890 C   0  0  0  0  0  0  0  0  0  0  0  0
    1.5930   -1.3491   15.3060 N   0  0  0  0  0  0  0  0  0  0  0  0
    2.5452   -0.4689   14.7536 C   0  0  0  0  0  0  0  0  0  0  0  0
    2.2178    0.3551   13.7190 N   0  0  0  0  0  0  0  0  0  0  0  0
    3.1227    1.2406   13.2181 C   0  0  0  0  0  0  0  0  0  0  0  0
    4.4207    1.3039   13.7175 C   0  0  0  0  0  0  0  0  0  0  0  0
    4.7482    0.4921   14.7654 N   0  0  0  0  0  0  0  0  0  0  0  0
    5.8898    0.3836   15.5035 C   0  0  0  0  0  0  0  0  0  0  0  0
    5.5715   -0.5089   16.5177 C   0  0  0  0  0  0  0  0  0  0  0  0
    4.3818   -1.0543   16.3920 N   0  0  0  0  0  0  0  0  0  0  0  0
    3.8330   -0.4170   15.3252 C   0  0  0  0  0  0  0  0  0  0  0  0
    2.6564    2.1560   12.1340 C   0  0  0  0  0  0  0  0  0  0  0  0
    3.5566    2.6280   11.1666 C   0  0  0  0  0  0  0  0  0  0  0  0
    3.1294    3.4499   10.1277 C   0  0  0  0  0  0  0  0  0  0  0  0
    1.7879    3.8078   10.0318 C   0  0  0  0  0  0  0  0  0  0  0  0
    0.8660    3.3707   10.9895 C   0  0  0  0  0  0  0  0  0  0  0  0
    1.3140    2.5576   12.0419 C   0  0  0  0  0  0  0  0  0  0  0  0
   -0.5783    3.7648   10.8956 C   0  0  0  0  0  0  0  0  0  0  0  0
   -1.2610    3.7179    9.8765 O   0  0  0  0  0  0  0  0  0  0  0  0
   -1.0553    4.1831   12.0683 N   0  0  0  0  0  0  0  0  0  0  0  0
   -2.4212    4.6362   12.3150 C   0  0  0  0  0  0  0  0  0  0  0  0
   -2.7024    5.4228   13.4257 C   0  0  0  0  0  0  0  0  0  0  0  0
   -4.0026    5.8541   13.6606 C   0  0  0  0  0  0  0  0  0  0  0  0
   -5.0215    5.4987   12.7847 C   0  0  0  0  0  0  0  0  0  0  0  0
   -4.7403    4.7121   11.6740 C   0  0  0  0  0  0  0  0  0  0  0  0
   -3.4401    4.2808   11.4391 C   0  0  0  0  0  0  0  0  0  0  0  0
   -5.8399    4.3286   10.7287 C   0  0  0  0  0  0  0  0  0  0  0  0
   -5.6116    3.6277    9.7316 O   0  0  0  0  0  0  0  0  0  0  0  0
   -6.9848    4.7354   10.9767 O   0  0  0  0  0  0  0  0  0  0  0  0
   -0.5664   -0.8256   14.2115 C   0  0  0  0  0  0  0  0  0  0  0  0
   -1.9389   -1.0760   14.0580 C   0  0  0  0  0  0  0  0  0  0  0  0
   -2.6991   -0.3052   13.2021 O   0  0  0  0  0  0  0  0  0  0  0  0
   -2.0020    0.6746   12.5251 C   0  0  0  0  0  0  0  0  0  0  0  0
   -5.3448   -3.2555   13.5777 H   0  0  0  0  0  0  0  0  0  0  0  0
   -3.9681   -2.5543   12.6616 H   0  0  0  0  0  0  0  0  0  0  0  0
   -3.7486   -4.0790   13.5856 H   0  0  0  0  0  0  0  0  0  0  0  0
   -2.2073   -3.6587   16.2555 H   0  0  0  0  0  0  0  0  0  0  0  0
   -0.2118   -2.3897   16.8784 H   0  0  0  0  0  0  0  0  0  0  0  0
    0.1365   -3.5394   15.5428 H   0  0  0  0  0  0  0  0  0  0  0  0
    5.1484    1.9765   13.2880 H   0  0  0  0  0  0  0  0  0  0  0  0
    6.8331    0.8820   15.3359 H   0  0  0  0  0  0  0  0  0  0  0  0
    6.2400   -0.7347   17.3354 H   0  0  0  0  0  0  0  0  0  0  0  0
    4.5981    2.3490   11.2292 H   0  0  0  0  0  0  0  0  0  0  0  0
    3.8383    3.8096    9.3966 H   0  0  0  0  0  0  0  0  0  0  0  0
    1.4559    4.4276    9.2120 H   0  0  0  0  0  0  0  0  0  0  0  0
    0.6121    2.2342   12.7963 H   0  0  0  0  0  0  0  0  0  0  0  0
   -0.4244    4.1868   12.8442 H   0  0  0  0  0  0  0  0  0  0  0  0
   -1.9106    5.6989   14.1063 H   0  0  0  0  0  0  0  0  0  0  0  0
   -4.2212    6.4654   14.5237 H   0  0  0  0  0  0  0  0  0  0  0  0
   -6.0318    5.8338   12.9672 H   0  0  0  0  0  0  0  0  0  0  0  0
   -3.2215    3.6695   10.5760 H   0  0  0  0  0  0  0  0  0  0  0  0
   -7.5834    4.4255   10.3073 H   0  0  0  0  0  0  0  0  0  0  0  0
   -0.1075   -0.0318   13.6408 H   0  0  0  0  0  0  0  0  0  0  0  0
   -2.6909    1.2310   11.8726 H   0  0  0  0  0  0  0  0  0  0  0  0
   -1.5443    1.3652   13.2487 H   0  0  0  0  0  0  0  0  0  0  0  0
   -1.2146    0.2087   11.9144 H   0  0  0  0  0  0  0  0  0  0  0  0
  1  2  1  0  0  0  0
  2  3  1  0  0  0  0
  3  4  2  0  0  0  0
  3 36  1  0  0  0  0
  4  5  1  0  0  0  0
  5  6  1  0  0  0  0
  6  7  2  0  0  0  0
  6 35  1  0  0  0  0
  7  8  1  0  0  0  0
  8  9  2  0  0  0  0
  8 16  1  0  0  0  0
  9 10  1  0  0  0  0
 10 11  2  0  0  0  0
 10 17  1  0  0  0  0
 11 12  1  0  0  0  0
 12 13  1  0  0  0  0
 12 16  1  0  0  0  0
 13 14  2  0  0  0  0
 14 15  1  0  0  0  0
 15 16  2  0  0  0  0
 17 18  2  0  0  0  0
 17 22  1  0  0  0  0
 18 19  1  0  0  0  0
 19 20  2  0  0  0  0
 20 21  1  0  0  0  0
 21 22  2  0  0  0  0
 21 23  1  0  0  0  0
 23 24  2  0  0  0  0
 23 25  1  0  0  0  0
 25 26  1  0  0  0  0
 26 27  2  0  0  0  0
 26 31  1  0  0  0  0
 27 28  1  0  0  0  0
 28 29  2  0  0  0  0
 29 30  1  0  0  0  0
 30 31  2  0  0  0  0
 30 32  1  0  0  0  0
 32 33  2  0  0  0  0
 32 34  1  0  0  0  0
 35 36  2  0  0  0  0
 36 37  1  0  0  0  0
 37 38  1  0  0  0  0
  1 39  1  0  0  0  0
  1 40  1  0  0  0  0
  1 41  1  0  0  0  0
  4 42  1  0  0  0  0
  5 43  1  0  0  0  0
  5 44  1  0  0  0  0
 11 45  1  0  0  0  0
 13 46  1  0  0  0  0
 14 47  1  0  0  0  0
 18 48  1  0  0  0  0
 19 49  1  0  0  0  0
 20 50  1  0  0  0  0
 22 51  1  0  0  0  0
 25 52  1  0  0  0  0
 27 53  1  0  0  0  0
 28 54  1  0  0  0  0
 29 55  1  0  0  0  0
 31 56  1  0  0  0  0
 34 57  1  0  0  0  0
 35 58  1  0  0  0  0
 38 59  1  0  0  0  0
 38 60  1  0  0  0  0
 38 61  1  0  0  0  0
M  END
> <IC50[nM]>
8.9

$$$$
CHEMBL3264997
  -OEChem-05192314333D
 Structure written by MMmdl.
 61 65  0     0  0  0  0  0  0999 V2000
   -4.2555   -3.1029   13.5707 C   0  0  0  0  0  0  0  0  0  0  0  0
   -3.8740   -2.3535   14.7166 O   0  0  0  0  0  0  0  0  0  0  0  0
   -2.5261   -2.1057   14.8053 C   0  0  0  0  0  0  0  0  0  0  0  0
   -1.7497   -2.8673   15.6804 C   0  0  0  0  0  0  0  0  0  0  0  0
   -0.3863   -2.6106   15.8150 C   0  0  0  0  0  0  0  0  0  0  0  0
    0.2220   -1.5829   15.0890 C   0  0  0  0  0  0  0  0  0  0  0  0
    1.5930   -1.3491   15.3060 N   0  0  0  0  0  0  0  0  0  0  0  0
    2.5452   -0.4689   14.7536 C   0  0  0  0  0  0  0  0  0  0  0  0
    2.2178    0.3551   13.7190 N   0  0  0  0  0  0  0  0  0  0  0  0
    3.1227    1.2406   13.2181 C   0  0  0  0  0  0  0  0  0  0  0  0
    4.4207    1.3039   13.7175 C   0  0  0  0  0  0  0  0  0  0  0  0
    4.7482    0.4921   14.7654 N   0  0  0  0  0  0  0  0  0  0  0  0
    5.8898    0.3836   15.5035 C   0  0  0  0  0  0  0  0  0  0  0  0
    5.5715   -0.5089   16.5177 C   0  0  0  0  0  0  0  0  0  0  0  0
    4.3818   -1.0543   16.3920 N   0  0  0  0  0  0  0  0  0  0  0  0
    3.8330   -0.4170   15.3252 C   0  0  0  0  0  0  0  0  0  0  0  0
    2.6564    2.1560   12.1340 C   0  0  0  0  0  0  0  0  0  0  0  0
    3.5566    2.6280   11.1666 C   0  0  0  0  0  0  0  0  0  0  0  0
    3.1294    3.4499   10.1277 C   0  0  0  0  0  0  0  0  0  0  0  0
    1.7879    3.8078   10.0318 C   0  0  0  0  0  0  0  0  0  0  0  0
    0.8660    3.3707   10.9895 C   0  0  0  0  0  0  0  0  0  0  0  0
    1.3140    2.5576   12.0419 C   0  0  0  0  0  0  0  0  0  0  0  0
   -0.5783    3.7648   10.8956 C   0  0  0  0  0  0  0  0  0  0  0  0
   -1.2610    3.7179    9.8765 O   0  0  0  0  0  0  0  0  0  0  0  0
   -1.0553    4.1831   12.0683 N   0  0  0  0  0  0  0  0  0  0  0  0
   -2.4212    4.6362   12.3150 C   0  0  0  0  0  0  0  0  0  0  0  0
   -2.7024    5.4228   13.4257 C   0  0  0  0  0  0  0  0  0  0  0  0
   -4.0026    5.8541   13.6606 C   0  0  0  0  0  0  0  0  0  0  0  0
   -5.0215    5.4987   12.7847 C   0  0  0  0  0  0  0  0  0  0  0  0
   -4.7403    4.7121   11.6740 C   0  0  0  0  0  0  0  0  0  0  0  0
   -3.4401    4.2808   11.4391 C   0  0  0  0  0  0  0  0  0  0  0  0
   -5.8399    4.3286   10.7287 C   0  0  0  0  0  0  0  0  0  0  0  0
   -5.6116    3.6277    9.7316 O   0  0  0  0  0  0  0  0  0  0  0  0
   -6.9848    4.7354   10.9767 O   0  0  0  0  0  0  0  0  0  0  0  0
   -0.5664   -0.8256   14.2115 C   0  0  0  0  0  0  0  0  0  0  0  0
   -1.9389   -1.0760   14.0580 C   0  0  0  0  0  0  0  0  0  0  0  0
   -2.6991   -0.3052   13.2021 O   0  0  0  0  0  0  0  0  0  0  0  0
   -2.0020    0.6746   12.5251 C   0  0  0  0  0  0  0  0  0  0  0  0
   -5.3448   -3.2555   13.5777 H   0  0  0  0  0  0  0  0  0  0  0  0
   -3.9681   -2.5543   12.6616 H   0  0  0  0  0  0  0  0  0  0  0  0
   -3.7486   -4.0790   13.5856 H   0  0  0  0  0  0  0  0  0  0  0  0
   -2.2073   -3.6587   16.2555 H   0  0  0  0  0  0  0  0  0  0  0  0
    0.2066   -3.2125   16.4877 H   0  0  0  0  0  0  0  0  0  0  0  0
    5.1484    1.9765   13.2880 H   0  0  0  0  0  0  0  0  0  0  0  0
    6.8331    0.8820   15.3359 H   0  0  0  0  0  0  0  0  0  0  0  0
    6.2400   -0.7347   17.3354 H   0  0  0  0  0  0  0  0  0  0  0  0
    4.5981    2.3490   11.2292 H   0  0  0  0  0  0  0  0  0  0  0  0
    3.8383    3.8096    9.3966 H   0  0  0  0  0  0  0  0  0  0  0  0
    1.4559    4.4276    9.2120 H   0  0  0  0  0  0  0  0  0  0  0  0
    0.6121    2.2342   12.7963 H   0  0  0  0  0  0  0  0  0  0  0  0
   -0.4244    4.1868   12.8442 H   0  0  0  0  0  0  0  0  0  0  0  0
   -1.9106    5.6989   14.1063 H   0  0  0  0  0  0  0  0  0  0  0  0
   -4.2212    6.4654   14.5237 H   0  0  0  0  0  0  0  0  0  0  0  0
   -6.0318    5.8338   12.9672 H   0  0  0  0  0  0  0  0  0  0  0  0
   -3.2215    3.6695   10.5760 H   0  0  0  0  0  0  0  0  0  0  0  0
   -7.5834    4.4255   10.3073 H   0  0  0  0  0  0  0  0  0  0  0  0
   -0.4764    0.2210   14.5379 H   0  0  0  0  0  0  0  0  0  0  0  0
   -0.1167   -0.9386   13.2140 H   0  0  0  0  0  0  0  0  0  0  0  0
   -2.6909    1.2310   11.8726 H   0  0  0  0  0  0  0  0  0  0  0  0
   -1.5443    1.3652   13.2487 H   0  0  0  0  0  0  0  0  0  0  0  0
   -1.2146    0.2087   11.9144 H   0  0  0  0  0  0  0  0  0  0  0  0
  1  2  1  0  0  0  0
  2  3  1  0  0  0  0
  3  4  1  0  0  0  0
  3 36  2  0  0  0  0
  4  5  2  0  0  0  0
  5  6  1  0  0  0  0
  6  7  2  0  0  0  0
  6 35  1  0  0  0  0
  7  8  1  0  0  0  0
  8  9  2  0  0  0  0
  8 16  1  0  0  0  0
  9 10  1  0  0  0  0
 10 11  2  0  0  0  0
 10 17  1  0  0  0  0
 11 12  1  0  0  0  0
 12 13  1  0  0  0  0
 12 16  1  0  0  0  0
 13 14  2  0  0  0  0
 14 15  1  0  0  0  0
 15 16  2  0  0  0  0
 17 18  2  0  0  0  0
 17 22  1  0  0  0  0
 18 19  1  0  0  0  0
 19 20  2  0  0  0  0
 20 21  1  0  0  0  0
 21 22  2  0  0  0  0
 21 23  1  0  0  0  0
 23 24  2  0  0  0  0
 23 25  1  0  0  0  0
 25 26  1  0  0  0  0
 26 27  2  0  0  0  0
 26 31  1  0  0  0  0
 27 28  1  0  0  0  0
 28 29  2  0  0  0  0
 29 30  1  0  0  0  0
 30 31  2  0  0  0  0
 30 32  1  0  0  0  0
 32 33  2  0  0  0  0
 32 34  1  0  0  0  0
 35 36  1  0  0  0  0
 36 37  1  0  0  0  0
 37 38  1  0  0  0  0
  1 39  1  0  0  0  0
  1 40  1  0  0  0  0
  1 41  1  0  0  0  0
  4 42  1  0  0  0  0
  5 43  1  0  0  0  0
 11 44  1  0  0  0  0
 13 45  1  0  0  0  0
 14 46  1  0  0  0  0
 18 47  1  0  0  0  0
 19 48  1  0  0  0  0
 20 49  1  0  0  0  0
 22 50  1  0  0  0  0
 25 51  1  0  0  0  0
 27 52  1  0  0  0  0
 28 53  1  0  0  0  0
 29 54  1  0  0  0  0
 31 55  1  0  0  0  0
 34 56  1  0  0  0  0
 35 57  1  0  0  0  0
 35 58  1  0  0  0  0
 38 59  1  0  0  0  0
 38 60  1  0  0  0  0
 38 61  1  0  0  0  0
M  END
> <IC50[nM]>
8.9

$$$$
CHEMBL3264997
  -OEChem-05192314333D
 Structure written by MMmdl.
 61 65  0     0  0  0  0  0  0999 V2000
   -4.2555   -3.1029   13.5707 C   0  0  0  0  0  0  0  0  0  0  0  0
   -3.8740   -2.3535   14.7166 O   0  0  0  0  0  0  0  0  0  0  0  0
   -2.5261   -2.1057   14.8053 C   0  0  0  0  0  0  0  0  0  0  0  0
   -1.7497   -2.8673   15.6804 C   0  0  0  0  0  0  0  0  0  0  0  0
   -0.3863   -2.6106   15.8150 C   0  0  0  0  0  0  0  0  0  0  0  0
    0.2220   -1.5829   15.0890 C   0  0  0  0  0  0  0  0  0  0  0  0
    1.5930   -1.3491   15.3060 N   0  0  0  0  0  0  0  0  0  0  0  0
    2.5452   -0.4689   14.7536 C   0  0  0  0  0  0  0  0  0  0  0  0
    2.2178    0.3551   13.7190 N   0  0  0  0  0  0  0  0  0  0  0  0
    3.1227    1.2406   13.2181 C   0  0  0  0  0  0  0  0  0  0  0  0
    4.4207    1.3039   13.7175 C   0  0  0  0  0  0  0  0  0  0  0  0
    4.7482    0.4921   14.7654 N   0  0  0  0  0  0  0  0  0  0  0  0
    5.8898    0.3836   15.5035 C   0  0  0  0  0  0  0  0  0  0  0  0
    5.5715   -0.5089   16.5177 C   0  0  0  0  0  0  0  0  0  0  0  0
    4.3818   -1.0543   16.3920 N   0  0  0  0  0  0  0  0  0  0  0  0
    3.8330   -0.4170   15.3252 C   0  0  0  0  0  0  0  0  0  0  0  0
    2.6564    2.1560   12.1340 C   0  0  0  0  0  0  0  0  0  0  0  0
    3.5566    2.6280   11.1666 C   0  0  0  0  0  0  0  0  0  0  0  0
    3.1294    3.4499   10.1277 C   0  0  0  0  0  0  0  0  0  0  0  0
    1.7879    3.8078   10.0318 C   0  0  0  0  0  0  0  0  0  0  0  0
    0.8660    3.3707   10.9895 C   0  0  0  0  0  0  0  0  0  0  0  0
    1.3140    2.5576   12.0419 C   0  0  0  0  0  0  0  0  0  0  0  0
   -0.5783    3.7648   10.8956 C   0  0  0  0  0  0  0  0  0  0  0  0
   -1.2610    3.7179    9.8765 O   0  0  0  0  0  0  0  0  0  0  0  0
   -1.0553    4.1831   12.0683 N   0  0  0  0  0  0  0  0  0  0  0  0
   -2.4212    4.6362   12.3150 C   0  0  0  0  0  0  0  0  0  0  0  0
   -2.7024    5.4228   13.4257 C   0  0  0  0  0  0  0  0  0  0  0  0
   -4.0026    5.8541   13.6606 C   0  0  0  0  0  0  0  0  0  0  0  0
   -5.0215    5.4987   12.7847 C   0  0  0  0  0  0  0  0  0  0  0  0
   -4.7403    4.7121   11.6740 C   0  0  0  0  0  0  0  0  0  0  0  0
   -3.4401    4.2808   11.4391 C   0  0  0  0  0  0  0  0  0  0  0  0
   -5.8399    4.3286   10.7287 C   0  0  0  0  0  0  0  0  0  0  0  0
   -5.6116    3.6277    9.7316 O   0  0  0  0  0  0  0  0  0  0  0  0
   -6.9848    4.7354   10.9767 O   0  0  0  0  0  0  0  0  0  0  0  0
   -0.5664   -0.8256   14.2115 C   0  0  0  0  0  0  0  0  0  0  0  0
   -1.9389   -1.0760   14.0580 C   0  0  0  0  0  0  0  0  0  0  0  0
   -2.6991   -0.3052   13.2021 O   0  0  0  0  0  0  0  0  0  0  0  0
   -2.0020    0.6746   12.5251 C   0  0  0  0  0  0  0  0  0  0  0  0
   -5.3448   -3.2555   13.5777 H   0  0  0  0  0  0  0  0  0  0  0  0
   -3.9681   -2.5543   12.6616 H   0  0  0  0  0  0  0  0  0  0  0  0
   -3.7486   -4.0790   13.5856 H   0  0  0  0  0  0  0  0  0  0  0  0
   -2.2073   -3.6587   16.2555 H   0  0  0  0  0  0  0  0  0  0  0  0
    0.2066   -3.2125   16.4877 H   0  0  0  0  0  0  0  0  0  0  0  0
    1.9791   -1.9422   16.0125 H   0  0  0  0  0  0  0  0  0  0  0  0
    5.1484    1.9765   13.2880 H   0  0  0  0  0  0  0  0  0  0  0  0
    6.8331    0.8820   15.3359 H   0  0  0  0  0  0  0  0  0  0  0  0
    6.2400   -0.7347   17.3354 H   0  0  0  0  0  0  0  0  0  0  0  0
    4.5981    2.3490   11.2292 H   0  0  0  0  0  0  0  0  0  0  0  0
    3.8383    3.8096    9.3966 H   0  0  0  0  0  0  0  0  0  0  0  0
    1.4559    4.4276    9.2120 H   0  0  0  0  0  0  0  0  0  0  0  0
    0.6121    2.2342   12.7963 H   0  0  0  0  0  0  0  0  0  0  0  0
   -2.3948    4.8453   14.3099 H   0  0  0  0  0  0  0  0  0  0  0  0
   -2.0788    6.3251   13.3419 H   0  0  0  0  0  0  0  0  0  0  0  0
   -4.2212    6.4654   14.5237 H   0  0  0  0  0  0  0  0  0  0  0  0
   -6.0318    5.8338   12.9672 H   0  0  0  0  0  0  0  0  0  0  0  0
   -3.2215    3.6695   10.5760 H   0  0  0  0  0  0  0  0  0  0  0  0
   -7.5834    4.4255   10.3073 H   0  0  0  0  0  0  0  0  0  0  0  0
   -0.1075   -0.0318   13.6408 H   0  0  0  0  0  0  0  0  0  0  0  0
   -2.6909    1.2310   11.8726 H   0  0  0  0  0  0  0  0  0  0  0  0
   -1.5443    1.3652   13.2487 H   0  0  0  0  0  0  0  0  0  0  0  0
   -1.2146    0.2087   11.9144 H   0  0  0  0  0  0  0  0  0  0  0  0
  1  2  1  0  0  0  0
  2  3  1  0  0  0  0
  3  4  2  0  0  0  0
  3 36  1  0  0  0  0
  4  5  1  0  0  0  0
  5  6  2  0  0  0  0
  6  7  1  0  0  0  0
  6 35  1  0  0  0  0
  7  8  1  0  0  0  0
  8  9  2  0  0  0  0
  8 16  1  0  0  0  0
  9 10  1  0  0  0  0
 10 11  2  0  0  0  0
 10 17  1  0  0  0  0
 11 12  1  0  0  0  0
 12 13  1  0  0  0  0
 12 16  1  0  0  0  0
 13 14  2  0  0  0  0
 14 15  1  0  0  0  0
 15 16  2  0  0  0  0
 17 18  2  0  0  0  0
 17 22  1  0  0  0  0
 18 19  1  0  0  0  0
 19 20  2  0  0  0  0
 20 21  1  0  0  0  0
 21 22  2  0  0  0  0
 21 23  1  0  0  0  0
 23 24  2  0  0  0  0
 23 25  1  0  0  0  0
 25 26  2  0  0  0  0
 26 27  1  0  0  0  0
 26 31  1  0  0  0  0
 27 28  1  0  0  0  0
 28 29  2  0  0  0  0
 29 30  1  0  0  0  0
 30 31  2  0  0  0  0
 30 32  1  0  0  0  0
 32 33  2  0  0  0  0
 32 34  1  0  0  0  0
 35 36  2  0  0  0  0
 36 37  1  0  0  0  0
 37 38  1  0  0  0  0
  1 39  1  0  0  0  0
  1 40  1  0  0  0  0
  1 41  1  0  0  0  0
  4 42  1  0  0  0  0
  5 43  1  0  0  0  0
  7 44  1  0  0  0  0
 11 45  1  0  0  0  0
 13 46  1  0  0  0  0
 14 47  1  0  0  0  0
 18 48  1  0  0  0  0
 19 49  1  0  0  0  0
 20 50  1  0  0  0  0
 22 51  1  0  0  0  0
 27 52  1  0  0  0  0
 27 53  1  0  0  0  0
 28 54  1  0  0  0  0
 29 55  1  0  0  0  0
 31 56  1  0  0  0  0
 34 57  1  0  0  0  0
 35 58  1  0  0  0  0
 38 59  1  0  0  0  0
 38 60  1  0  0  0  0
 38 61  1  0  0  0  0
M  END
> <IC50[nM]>
8.9

$$$$
CHEMBL3264997
  -OEChem-05192314333D
 Structure written by MMmdl.
 61 65  0     0  0  0  0  0  0999 V2000
   -4.2555   -3.1029   13.5707 C   0  0  0  0  0  0  0  0  0  0  0  0
   -3.8740   -2.3535   14.7166 O   0  0  0  0  0  0  0  0  0  0  0  0
   -2.5261   -2.1057   14.8053 C   0  0  0  0  0  0  0  0  0  0  0  0
   -1.7497   -2.8673   15.6804 C   0  0  0  0  0  0  0  0  0  0  0  0
   -0.3863   -2.6106   15.8150 C   0  0  0  0  0  0  0  0  0  0  0  0
    0.2220   -1.5829   15.0890 C   0  0  0  0  0  0  0  0  0  0  0  0
    1.5930   -1.3491   15.3060 N   0  0  0  0  0  0  0  0  0  0  0  0
    2.5452   -0.4689   14.7536 C   0  0  0  0  0  0  0  0  0  0  0  0
    2.2178    0.3551   13.7190 N   0  0  0  0  0  0  0  0  0  0  0  0
    3.1227    1.2406   13.2181 C   0  0  0  0  0  0  0  0  0  0  0  0
    4.4207    1.3039   13.7175 C   0  0  0  0  0  0  0  0  0  0  0  0
    4.7482    0.4921   14.7654 N   0  0  0  0  0  0  0  0  0  0  0  0
    5.8898    0.3836   15.5035 C   0  0  0  0  0  0  0  0  0  0  0  0
    5.5715   -0.5089   16.5177 C   0  0  0  0  0  0  0  0  0  0  0  0
    4.3818   -1.0543   16.3920 N   0  0  0  0  0  0  0  0  0  0  0  0
    3.8330   -0.4170   15.3252 C   0  0  0  0  0  0  0  0  0  0  0  0
    2.6564    2.1560   12.1340 C   0  0  0  0  0  0  0  0  0  0  0  0
    3.5566    2.6280   11.1666 C   0  0  0  0  0  0  0  0  0  0  0  0
    3.1294    3.4499   10.1277 C   0  0  0  0  0  0  0  0  0  0  0  0
    1.7879    3.8078   10.0318 C   0  0  0  0  0  0  0  0  0  0  0  0
    0.8660    3.3707   10.9895 C   0  0  0  0  0  0  0  0  0  0  0  0
    1.3140    2.5576   12.0419 C   0  0  0  0  0  0  0  0  0  0  0  0
   -0.5783    3.7648   10.8956 C   0  0  0  0  0  0  0  0  0  0  0  0
   -1.2610    3.7179    9.8765 O   0  0  0  0  0  0  0  0  0  0  0  0
   -1.0553    4.1831   12.0683 N   0  0  0  0  0  0  0  0  0  0  0  0
   -2.4212    4.6362   12.3150 C   0  0  0  0  0  0  0  0  0  0  0  0
   -2.7024    5.4228   13.4257 C   0  0  0  0  0  0  0  0  0  0  0  0
   -4.0026    5.8541   13.6606 C   0  0  0  0  0  0  0  0  0  0  0  0
   -5.0215    5.4987   12.7847 C   0  0  0  0  0  0  0  0  0  0  0  0
   -4.7403    4.7121   11.6740 C   0  0  0  0  0  0  0  0  0  0  0  0
   -3.4401    4.2808   11.4391 C   0  0  0  0  0  0  0  0  0  0  0  0
   -5.8399    4.3286   10.7287 C   0  0  0  0  0  0  0  0  0  0  0  0
   -5.6116    3.6277    9.7316 O   0  0  0  0  0  0  0  0  0  0  0  0
   -6.9848    4.7354   10.9767 O   0  0  0  0  0  0  0  0  0  0  0  0
   -0.5664   -0.8256   14.2115 C   0  0  0  0  0  0  0  0  0  0  0  0
   -1.9389   -1.0760   14.0580 C   0  0  0  0  0  0  0  0  0  0  0  0
   -2.6991   -0.3052   13.2021 O   0  0  0  0  0  0  0  0  0  0  0  0
   -2.0020    0.6746   12.5251 C   0  0  0  0  0  0  0  0  0  0  0  0
   -5.3448   -3.2555   13.5777 H   0  0  0  0  0  0  0  0  0  0  0  0
   -3.9681   -2.5543   12.6616 H   0  0  0  0  0  0  0  0  0  0  0  0
   -3.7486   -4.0790   13.5856 H   0  0  0  0  0  0  0  0  0  0  0  0
   -2.2073   -3.6587   16.2555 H   0  0  0  0  0  0  0  0  0  0  0  0
    0.2066   -3.2125   16.4877 H   0  0  0  0  0  0  0  0  0  0  0  0
    1.9791   -1.9422   16.0125 H   0  0  0  0  0  0  0  0  0  0  0  0
    5.1484    1.9765   13.2880 H   0  0  0  0  0  0  0  0  0  0  0  0
    6.8331    0.8820   15.3359 H   0  0  0  0  0  0  0  0  0  0  0  0
    6.2400   -0.7347   17.3354 H   0  0  0  0  0  0  0  0  0  0  0  0
    4.5981    2.3490   11.2292 H   0  0  0  0  0  0  0  0  0  0  0  0
    3.8383    3.8096    9.3966 H   0  0  0  0  0  0  0  0  0  0  0  0
    1.4559    4.4276    9.2120 H   0  0  0  0  0  0  0  0  0  0  0  0
    0.6121    2.2342   12.7963 H   0  0  0  0  0  0  0  0  0  0  0  0
   -1.9106    5.6989   14.1063 H   0  0  0  0  0  0  0  0  0  0  0  0
   -4.2212    6.4654   14.5237 H   0  0  0  0  0  0  0  0  0  0  0  0
   -5.7736    4.9559   13.3760 H   0  0  0  0  0  0  0  0  0  0  0  0
   -5.4576    6.4357   12.4080 H   0  0  0  0  0  0  0  0  0  0  0  0
   -3.2215    3.6695   10.5760 H   0  0  0  0  0  0  0  0  0  0  0  0
   -7.5834    4.4255   10.3073 H   0  0  0  0  0  0  0  0  0  0  0  0
   -0.1075   -0.0318   13.6408 H   0  0  0  0  0  0  0  0  0  0  0  0
   -2.6909    1.2310   11.8726 H   0  0  0  0  0  0  0  0  0  0  0  0
   -1.5443    1.3652   13.2487 H   0  0  0  0  0  0  0  0  0  0  0  0
   -1.2146    0.2087   11.9144 H   0  0  0  0  0  0  0  0  0  0  0  0
  1  2  1  0  0  0  0
  2  3  1  0  0  0  0
  3  4  2  0  0  0  0
  3 36  1  0  0  0  0
  4  5  1  0  0  0  0
  5  6  2  0  0  0  0
  6  7  1  0  0  0  0
  6 35  1  0  0  0  0
  7  8  1  0  0  0  0
  8  9  2  0  0  0  0
  8 16  1  0  0  0  0
  9 10  1  0  0  0  0
 10 11  2  0  0  0  0
 10 17  1  0  0  0  0
 11 12  1  0  0  0  0
 12 13  1  0  0  0  0
 12 16  1  0  0  0  0
 13 14  2  0  0  0  0
 14 15  1  0  0  0  0
 15 16  2  0  0  0  0
 17 18  2  0  0  0  0
 17 22  1  0  0  0  0
 18 19  1  0  0  0  0
 19 20  2  0  0  0  0
 20 21  1  0  0  0  0
 21 22  2  0  0  0  0
 21 23  1  0  0  0  0
 23 24  2  0  0  0  0
 23 25  1  0  0  0  0
 25 26  2  0  0  0  0
 26 27  1  0  0  0  0
 26 31  1  0  0  0  0
 27 28  2  0  0  0  0
 28 29  1  0  0  0  0
 29 30  1  0  0  0  0
 30 31  2  0  0  0  0
 30 32  1  0  0  0  0
 32 33  2  0  0  0  0
 32 34  1  0  0  0  0
 35 36  2  0  0  0  0
 36 37  1  0  0  0  0
 37 38  1  0  0  0  0
  1 39  1  0  0  0  0
  1 40  1  0  0  0  0
  1 41  1  0  0  0  0
  4 42  1  0  0  0  0
  5 43  1  0  0  0  0
  7 44  1  0  0  0  0
 11 45  1  0  0  0  0
 13 46  1  0  0  0  0
 14 47  1  0  0  0  0
 18 48  1  0  0  0  0
 19 49  1  0  0  0  0
 20 50  1  0  0  0  0
 22 51  1  0  0  0  0
 27 52  1  0  0  0  0
 28 53  1  0  0  0  0
 29 54  1  0  0  0  0
 29 55  1  0  0  0  0
 31 56  1  0  0  0  0
 34 57  1  0  0  0  0
 35 58  1  0  0  0  0
 38 59  1  0  0  0  0
 38 60  1  0  0  0  0
 38 61  1  0  0  0  0
M  END
> <IC50[nM]>
8.9

$$$$
CHEMBL3264997
  -OEChem-05192314333D
 Structure written by MMmdl.
 61 65  0     0  0  0  0  0  0999 V2000
   -4.2555   -3.1029   13.5707 C   0  0  0  0  0  0  0  0  0  0  0  0
   -3.8740   -2.3535   14.7166 O   0  0  0  0  0  0  0  0  0  0  0  0
   -2.5261   -2.1057   14.8053 C   0  0  0  0  0  0  0  0  0  0  0  0
   -1.7497   -2.8673   15.6804 C   0  0  0  0  0  0  0  0  0  0  0  0
   -0.3863   -2.6106   15.8150 C   0  0  0  0  0  0  0  0  0  0  0  0
    0.2220   -1.5829   15.0890 C   0  0  0  0  0  0  0  0  0  0  0  0
    1.5930   -1.3491   15.3060 N   0  0  0  0  0  0  0  0  0  0  0  0
    2.5452   -0.4689   14.7536 C   0  0  0  0  0  0  0  0  0  0  0  0
    2.2178    0.3551   13.7190 N   0  0  0  0  0  0  0  0  0  0  0  0
    3.1227    1.2406   13.2181 C   0  0  0  0  0  0  0  0  0  0  0  0
    4.4207    1.3039   13.7175 C   0  0  0  0  0  0  0  0  0  0  0  0
    4.7482    0.4921   14.7654 N   0  0  0  0  0  0  0  0  0  0  0  0
    5.8898    0.3836   15.5035 C   0  0  0  0  0  0  0  0  0  0  0  0
    5.5715   -0.5089   16.5177 C   0  0  0  0  0  0  0  0  0  0  0  0
    4.3818   -1.0543   16.3920 N   0  0  0  0  0  0  0  0  0  0  0  0
    3.8330   -0.4170   15.3252 C   0  0  0  0  0  0  0  0  0  0  0  0
    2.6564    2.1560   12.1340 C   0  0  0  0  0  0  0  0  0  0  0  0
    3.5566    2.6280   11.1666 C   0  0  0  0  0  0  0  0  0  0  0  0
    3.1294    3.4499   10.1277 C   0  0  0  0  0  0  0  0  0  0  0  0
    1.7879    3.8078   10.0318 C   0  0  0  0  0  0  0  0  0  0  0  0
    0.8660    3.3707   10.9895 C   0  0  0  0  0  0  0  0  0  0  0  0
    1.3140    2.5576   12.0419 C   0  0  0  0  0  0  0  0  0  0  0  0
   -0.5783    3.7648   10.8956 C   0  0  0  0  0  0  0  0  0  0  0  0
   -1.2610    3.7179    9.8765 O   0  0  0  0  0  0  0  0  0  0  0  0
   -1.0553    4.1831   12.0683 N   0  0  0  0  0  0  0  0  0  0  0  0
   -2.4212    4.6362   12.3150 C   0  0  0  0  0  0  0  0  0  0  0  0
   -2.7024    5.4228   13.4257 C   0  0  0  0  0  0  0  0  0  0  0  0
   -4.0026    5.8541   13.6606 C   0  0  0  0  0  0  0  0  0  0  0  0
   -5.0215    5.4987   12.7847 C   0  0  0  0  0  0  0  0  0  0  0  0
   -4.7403    4.7121   11.6740 C   0  0  0  0  0  0  0  0  0  0  0  0
   -3.4401    4.2808   11.4391 C   0  0  0  0  0  0  0  0  0  0  0  0
   -5.8399    4.3286   10.7287 C   0  0  0  0  0  0  0  0  0  0  0  0
   -5.6116    3.6277    9.7316 O   0  0  0  0  0  0  0  0  0  0  0  0
   -6.9848    4.7354   10.9767 O   0  0  0  0  0  0  0  0  0  0  0  0
   -0.5664   -0.8256   14.2115 C   0  0  0  0  0  0  0  0  0  0  0  0
   -1.9389   -1.0760   14.0580 C   0  0  0  0  0  0  0  0  0  0  0  0
   -2.6991   -0.3052   13.2021 O   0  0  0  0  0  0  0  0  0  0  0  0
   -2.0020    0.6746   12.5251 C   0  0  0  0  0  0  0  0  0  0  0  0
   -5.3448   -3.2555   13.5777 H   0  0  0  0  0  0  0  0  0  0  0  0
   -3.9681   -2.5543   12.6616 H   0  0  0  0  0  0  0  0  0  0  0  0
   -3.7486   -4.0790   13.5856 H   0  0  0  0  0  0  0  0  0  0  0  0
   -2.2073   -3.6587   16.2555 H   0  0  0  0  0  0  0  0  0  0  0  0
    0.2066   -3.2125   16.4877 H   0  0  0  0  0  0  0  0  0  0  0  0
    1.9791   -1.9422   16.0125 H   0  0  0  0  0  0  0  0  0  0  0  0
    5.1484    1.9765   13.2880 H   0  0  0  0  0  0  0  0  0  0  0  0
    6.8331    0.8820   15.3359 H   0  0  0  0  0  0  0  0  0  0  0  0
    6.2400   -0.7347   17.3354 H   0  0  0  0  0  0  0  0  0  0  0  0
    4.5981    2.3490   11.2292 H   0  0  0  0  0  0  0  0  0  0  0  0
    3.8383    3.8096    9.3966 H   0  0  0  0  0  0  0  0  0  0  0  0
    1.4559    4.4276    9.2120 H   0  0  0  0  0  0  0  0  0  0  0  0
    0.6121    2.2342   12.7963 H   0  0  0  0  0  0  0  0  0  0  0  0
   -1.9106    5.6989   14.1063 H   0  0  0  0  0  0  0  0  0  0  0  0
   -4.2212    6.4654   14.5237 H   0  0  0  0  0  0  0  0  0  0  0  0
   -6.0318    5.8338   12.9672 H   0  0  0  0  0  0  0  0  0  0  0  0
   -3.1536    4.6612   10.4475 H   0  0  0  0  0  0  0  0  0  0  0  0
   -3.4696    3.1814   11.4156 H   0  0  0  0  0  0  0  0  0  0  0  0
   -7.5834    4.4255   10.3073 H   0  0  0  0  0  0  0  0  0  0  0  0
   -0.1075   -0.0318   13.6408 H   0  0  0  0  0  0  0  0  0  0  0  0
   -2.6909    1.2310   11.8726 H   0  0  0  0  0  0  0  0  0  0  0  0
   -1.5443    1.3652   13.2487 H   0  0  0  0  0  0  0  0  0  0  0  0
   -1.2146    0.2087   11.9144 H   0  0  0  0  0  0  0  0  0  0  0  0
  1  2  1  0  0  0  0
  2  3  1  0  0  0  0
  3  4  2  0  0  0  0
  3 36  1  0  0  0  0
  4  5  1  0  0  0  0
  5  6  2  0  0  0  0
  6  7  1  0  0  0  0
  6 35  1  0  0  0  0
  7  8  1  0  0  0  0
  8  9  2  0  0  0  0
  8 16  1  0  0  0  0
  9 10  1  0  0  0  0
 10 11  2  0  0  0  0
 10 17  1  0  0  0  0
 11 12  1  0  0  0  0
 12 13  1  0  0  0  0
 12 16  1  0  0  0  0
 13 14  2  0  0  0  0
 14 15  1  0  0  0  0
 15 16  2  0  0  0  0
 17 18  2  0  0  0  0
 17 22  1  0  0  0  0
 18 19  1  0  0  0  0
 19 20  2  0  0  0  0
 20 21  1  0  0  0  0
 21 22  2  0  0  0  0
 21 23  1  0  0  0  0
 23 24  2  0  0  0  0
 23 25  1  0  0  0  0
 25 26  2  0  0  0  0
 26 27  1  0  0  0  0
 26 31  1  0  0  0  0
 27 28  2  0  0  0  0
 28 29  1  0  0  0  0
 29 30  2  0  0  0  0
 30 31  1  0  0  0  0
 30 32  1  0  0  0  0
 32 33  2  0  0  0  0
 32 34  1  0  0  0  0
 35 36  2  0  0  0  0
 36 37  1  0  0  0  0
 37 38  1  0  0  0  0
  1 39  1  0  0  0  0
  1 40  1  0  0  0  0
  1 41  1  0  0  0  0
  4 42  1  0  0  0  0
  5 43  1  0  0  0  0
  7 44  1  0  0  0  0
 11 45  1  0  0  0  0
 13 46  1  0  0  0  0
 14 47  1  0  0  0  0
 18 48  1  0  0  0  0
 19 49  1  0  0  0  0
 20 50  1  0  0  0  0
 22 51  1  0  0  0  0
 27 52  1  0  0  0  0
 28 53  1  0  0  0  0
 29 54  1  0  0  0  0
 31 55  1  0  0  0  0
 31 56  1  0  0  0  0
 34 57  1  0  0  0  0
 35 58  1  0  0  0  0
 38 59  1  0  0  0  0
 38 60  1  0  0  0  0
 38 61  1  0  0  0  0
M  END
> <IC50[nM]>
8.9

$$$$
CHEMBL3264997
  -OEChem-05192314333D
 Structure written by MMmdl.
 61 65  0     1  0  0  0  0  0999 V2000
   -4.2555   -3.1029   13.5707 C   0  0  0  0  0  0  0  0  0  0  0  0
   -3.8740   -2.3535   14.7166 O   0  0  0  0  0  0  0  0  0  0  0  0
   -2.5261   -2.1057   14.8053 C   0  0  3  0  0  0  0  0  0  0  0  0
   -1.7497   -2.8673   15.6804 C   0  0  0  0  0  0  0  0  0  0  0  0
   -0.3863   -2.6106   15.8150 C   0  0  0  0  0  0  0  0  0  0  0  0
    0.2220   -1.5829   15.0890 C   0  0  0  0  0  0  0  0  0  0  0  0
    1.5930   -1.3491   15.3060 N   0  0  0  0  0  0  0  0  0  0  0  0
    2.5452   -0.4689   14.7536 C   0  0  0  0  0  0  0  0  0  0  0  0
    2.2178    0.3551   13.7190 N   0  0  0  0  0  0  0  0  0  0  0  0
    3.1227    1.2406   13.2181 C   0  0  0  0  0  0  0  0  0  0  0  0
    4.4207    1.3039   13.7175 C   0  0  0  0  0  0  0  0  0  0  0  0
    4.7482    0.4921   14.7654 N   0  0  0  0  0  0  0  0  0  0  0  0
    5.8898    0.3836   15.5035 C   0  0  0  0  0  0  0  0  0  0  0  0
    5.5715   -0.5089   16.5177 C   0  0  0  0  0  0  0  0  0  0  0  0
    4.3818   -1.0543   16.3920 N   0  0  0  0  0  0  0  0  0  0  0  0
    3.8330   -0.4170   15.3252 C   0  0  0  0  0  0  0  0  0  0  0  0
    2.6564    2.1560   12.1340 C   0  0  0  0  0  0  0  0  0  0  0  0
    3.5566    2.6280   11.1666 C   0  0  0  0  0  0  0  0  0  0  0  0
    3.1294    3.4499   10.1277 C   0  0  0  0  0  0  0  0  0  0  0  0
    1.7879    3.8078   10.0318 C   0  0  0  0  0  0  0  0  0  0  0  0
    0.8660    3.3707   10.9895 C   0  0  0  0  0  0  0  0  0  0  0  0
    1.3140    2.5576   12.0419 C   0  0  0  0  0  0  0  0  0  0  0  0
   -0.5783    3.7648   10.8956 C   0  0  0  0  0  0  0  0  0  0  0  0
   -1.2610    3.7179    9.8765 O   0  0  0  0  0  0  0  0  0  0  0  0
   -1.0553    4.1831   12.0683 N   0  0  0  0  0  0  0  0  0  0  0  0
   -2.4212    4.6362   12.3150 C   0  0  0  0  0  0  0  0  0  0  0  0
   -2.7024    5.4228   13.4257 C   0  0  0  0  0  0  0  0  0  0  0  0
   -4.0026    5.8541   13.6606 C   0  0  0  0  0  0  0  0  0  0  0  0
   -5.0215    5.4987   12.7847 C   0  0  0  0  0  0  0  0  0  0  0  0
   -4.7403    4.7121   11.6740 C   0  0  0  0  0  0  0  0  0  0  0  0
   -3.4401    4.2808   11.4391 C   0  0  0  0  0  0  0  0  0  0  0  0
   -5.8399    4.3286   10.7287 C   0  0  0  0  0  0  0  0  0  0  0  0
   -5.6116    3.6277    9.7316 O   0  0  0  0  0  0  0  0  0  0  0  0
   -6.9848    4.7354   10.9767 O   0  0  0  0  0  0  0  0  0  0  0  0
   -0.5664   -0.8256   14.2115 C   0  0  0  0  0  0  0  0  0  0  0  0
   -1.9389   -1.0760   14.0580 C   0  0  0  0  0  0  0  0  0  0  0  0
   -2.6991   -0.3052   13.2021 O   0  0  0  0  0  0  0  0  0  0  0  0
   -2.0020    0.6746   12.5251 C   0  0  0  0  0  0  0  0  0  0  0  0
   -5.3448   -3.2555   13.5777 H   0  0  0  0  0  0  0  0  0  0  0  0
   -3.9681   -2.5543   12.6616 H   0  0  0  0  0  0  0  0  0  0  0  0
   -3.7486   -4.0790   13.5856 H   0  0  0  0  0  0  0  0  0  0  0  0
   -2.3305   -2.8209   13.9928 H   0  0  0  0  0  0  0  0  0  0  0  0
   -2.2073   -3.6587   16.2555 H   0  0  0  0  0  0  0  0  0  0  0  0
    0.2066   -3.2125   16.4877 H   0  0  0  0  0  0  0  0  0  0  0  0
    5.1484    1.9765   13.2880 H   0  0  0  0  0  0  0  0  0  0  0  0
    6.8331    0.8820   15.3359 H   0  0  0  0  0  0  0  0  0  0  0  0
    6.2400   -0.7347   17.3354 H   0  0  0  0  0  0  0  0  0  0  0  0
    4.5981    2.3490   11.2292 H   0  0  0  0  0  0  0  0  0  0  0  0
    3.8383    3.8096    9.3966 H   0  0  0  0  0  0  0  0  0  0  0  0
    1.4559    4.4276    9.2120 H   0  0  0  0  0  0  0  0  0  0  0  0
    0.6121    2.2342   12.7963 H   0  0  0  0  0  0  0  0  0  0  0  0
   -2.1412    4.0181   10.0704 H   0  0  0  0  0  0  0  0  0  0  0  0
   -1.9106    5.6989   14.1063 H   0  0  0  0  0  0  0  0  0  0  0  0
   -4.2212    6.4654   14.5237 H   0  0  0  0  0  0  0  0  0  0  0  0
   -6.0318    5.8338   12.9672 H   0  0  0  0  0  0  0  0  0  0  0  0
   -3.2215    3.6695   10.5760 H   0  0  0  0  0  0  0  0  0  0  0  0
   -7.5834    4.4255   10.3073 H   0  0  0  0  0  0  0  0  0  0  0  0
   -0.1075   -0.0318   13.6408 H   0  0  0  0  0  0  0  0  0  0  0  0
   -2.6909    1.2310   11.8726 H   0  0  0  0  0  0  0  0  0  0  0  0
   -1.5443    1.3652   13.2487 H   0  0  0  0  0  0  0  0  0  0  0  0
   -1.2146    0.2087   11.9144 H   0  0  0  0  0  0  0  0  0  0  0  0
  1  2  1  0  0  0  0
  2  3  1  0  0  0  0
  3  4  1  0  0  0  0
  3 36  1  0  0  0  0
  4  5  2  0  0  0  0
  5  6  1  0  0  0  0
  6  7  2  0  0  0  0
  6 35  1  0  0  0  0
  7  8  1  0  0  0  0
  8  9  2  0  0  0  0
  8 16  1  0  0  0  0
  9 10  1  0  0  0  0
 10 11  2  0  0  0  0
 10 17  1  0  0  0  0
 11 12  1  0  0  0  0
 12 13  1  0  0  0  0
 12 16  1  0  0  0  0
 13 14  2  0  0  0  0
 14 15  1  0  0  0  0
 15 16  2  0  0  0  0
 17 18  2  0  0  0  0
 17 22  1  0  0  0  0
 18 19  1  0  0  0  0
 19 20  2  0  0  0  0
 20 21  1  0  0  0  0
 21 22  2  0  0  0  0
 21 23  1  0  0  0  0
 23 24  1  0  0  0  0
 23 25  2  0  0  0  0
 25 26  1  0  0  0  0
 26 27  2  0  0  0  0
 26 31  1  0  0  0  0
 27 28  1  0  0  0  0
 28 29  2  0  0  0  0
 29 30  1  0  0  0  0
 30 31  2  0  0  0  0
 30 32  1  0  0  0  0
 32 33  2  0  0  0  0
 32 34  1  0  0  0  0
 35 36  2  0  0  0  0
 36 37  1  0  0  0  0
 37 38  1  0  0  0  0
  1 39  1  0  0  0  0
  1 40  1  0  0  0  0
  1 41  1  0  0  0  0
  3 42  1  0  0  0  0
  4 43  1  0  0  0  0
  5 44  1  0  0  0  0
 11 45  1  0  0  0  0
 13 46  1  0  0  0  0
 14 47  1  0  0  0  0
 18 48  1  0  0  0  0
 19 49  1  0  0  0  0
 20 50  1  0  0  0  0
 22 51  1  0  0  0  0
 24 52  1  0  0  0  0
 27 53  1  0  0  0  0
 28 54  1  0  0  0  0
 29 55  1  0  0  0  0
 31 56  1  0  0  0  0
 34 57  1  0  0  0  0
 35 58  1  0  0  0  0
 38 59  1  0  0  0  0
 38 60  1  0  0  0  0
 38 61  1  0  0  0  0
M  END
> <IC50[nM]>
8.9

$$$$
CHEMBL3264997
  -OEChem-05192314333D
 Structure written by MMmdl.
 61 65  0     0  0  0  0  0  0999 V2000
   -4.2555   -3.1029   13.5707 C   0  0  0  0  0  0  0  0  0  0  0  0
   -3.8740   -2.3535   14.7166 O   0  0  0  0  0  0  0  0  0  0  0  0
   -2.5261   -2.1057   14.8053 C   0  0  0  0  0  0  0  0  0  0  0  0
   -1.7497   -2.8673   15.6804 C   0  0  0  0  0  0  0  0  0  0  0  0
   -0.3863   -2.6106   15.8150 C   0  0  0  0  0  0  0  0  0  0  0  0
    0.2220   -1.5829   15.0890 C   0  0  0  0  0  0  0  0  0  0  0  0
    1.5930   -1.3491   15.3060 N   0  0  0  0  0  0  0  0  0  0  0  0
    2.5452   -0.4689   14.7536 C   0  0  0  0  0  0  0  0  0  0  0  0
    2.2178    0.3551   13.7190 N   0  0  0  0  0  0  0  0  0  0  0  0
    3.1227    1.2406   13.2181 C   0  0  0  0  0  0  0  0  0  0  0  0
    4.4207    1.3039   13.7175 C   0  0  0  0  0  0  0  0  0  0  0  0
    4.7482    0.4921   14.7654 N   0  0  0  0  0  0  0  0  0  0  0  0
    5.8898    0.3836   15.5035 C   0  0  0  0  0  0  0  0  0  0  0  0
    5.5715   -0.5089   16.5177 C   0  0  0  0  0  0  0  0  0  0  0  0
    4.3818   -1.0543   16.3920 N   0  0  0  0  0  0  0  0  0  0  0  0
    3.8330   -0.4170   15.3252 C   0  0  0  0  0  0  0  0  0  0  0  0
    2.6564    2.1560   12.1340 C   0  0  0  0  0  0  0  0  0  0  0  0
    3.5566    2.6280   11.1666 C   0  0  0  0  0  0  0  0  0  0  0  0
    3.1294    3.4499   10.1277 C   0  0  0  0  0  0  0  0  0  0  0  0
    1.7879    3.8078   10.0318 C   0  0  0  0  0  0  0  0  0  0  0  0
    0.8660    3.3707   10.9895 C   0  0  0  0  0  0  0  0  0  0  0  0
    1.3140    2.5576   12.0419 C   0  0  0  0  0  0  0  0  0  0  0  0
   -0.5783    3.7648   10.8956 C   0  0  0  0  0  0  0  0  0  0  0  0
   -1.2610    3.7179    9.8765 O   0  0  0  0  0  0  0  0  0  0  0  0
   -1.0553    4.1831   12.0683 N   0  0  0  0  0  0  0  0  0  0  0  0
   -2.4212    4.6362   12.3150 C   0  0  0  0  0  0  0  0  0  0  0  0
   -2.7024    5.4228   13.4257 C   0  0  0  0  0  0  0  0  0  0  0  0
   -4.0026    5.8541   13.6606 C   0  0  0  0  0  0  0  0  0  0  0  0
   -5.0215    5.4987   12.7847 C   0  0  0  0  0  0  0  0  0  0  0  0
   -4.7403    4.7121   11.6740 C   0  0  0  0  0  0  0  0  0  0  0  0
   -3.4401    4.2808   11.4391 C   0  0  0  0  0  0  0  0  0  0  0  0
   -5.8399    4.3286   10.7287 C   0  0  0  0  0  0  0  0  0  0  0  0
   -5.6116    3.6277    9.7316 O   0  0  0  0  0  0  0  0  0  0  0  0
   -6.9848    4.7354   10.9767 O   0  0  0  0  0  0  0  0  0  0  0  0
   -0.5664   -0.8256   14.2115 C   0  0  0  0  0  0  0  0  0  0  0  0
   -1.9389   -1.0760   14.0580 C   0  0  0  0  0  0  0  0  0  0  0  0
   -2.6991   -0.3052   13.2021 O   0  0  0  0  0  0  0  0  0  0  0  0
   -2.0020    0.6746   12.5251 C   0  0  0  0  0  0  0  0  0  0  0  0
   -5.3448   -3.2555   13.5777 H   0  0  0  0  0  0  0  0  0  0  0  0
   -3.9681   -2.5543   12.6616 H   0  0  0  0  0  0  0  0  0  0  0  0
   -3.7486   -4.0790   13.5856 H   0  0  0  0  0  0  0  0  0  0  0  0
   -2.2073   -3.6587   16.2555 H   0  0  0  0  0  0  0  0  0  0  0  0
   -0.2118   -2.3897   16.8784 H   0  0  0  0  0  0  0  0  0  0  0  0
    0.1365   -3.5394   15.5428 H   0  0  0  0  0  0  0  0  0  0  0  0
    5.1484    1.9765   13.2880 H   0  0  0  0  0  0  0  0  0  0  0  0
    6.8331    0.8820   15.3359 H   0  0  0  0  0  0  0  0  0  0  0  0
    6.2400   -0.7347   17.3354 H   0  0  0  0  0  0  0  0  0  0  0  0
    4.5981    2.3490   11.2292 H   0  0  0  0  0  0  0  0  0  0  0  0
    3.8383    3.8096    9.3966 H   0  0  0  0  0  0  0  0  0  0  0  0
    1.4559    4.4276    9.2120 H   0  0  0  0  0  0  0  0  0  0  0  0
    0.6121    2.2342   12.7963 H   0  0  0  0  0  0  0  0  0  0  0  0
   -2.1412    4.0181   10.0704 H   0  0  0  0  0  0  0  0  0  0  0  0
   -1.9106    5.6989   14.1063 H   0  0  0  0  0  0  0  0  0  0  0  0
   -4.2212    6.4654   14.5237 H   0  0  0  0  0  0  0  0  0  0  0  0
   -6.0318    5.8338   12.9672 H   0  0  0  0  0  0  0  0  0  0  0  0
   -3.2215    3.6695   10.5760 H   0  0  0  0  0  0  0  0  0  0  0  0
   -7.5834    4.4255   10.3073 H   0  0  0  0  0  0  0  0  0  0  0  0
   -0.1075   -0.0318   13.6408 H   0  0  0  0  0  0  0  0  0  0  0  0
   -2.6909    1.2310   11.8726 H   0  0  0  0  0  0  0  0  0  0  0  0
   -1.5443    1.3652   13.2487 H   0  0  0  0  0  0  0  0  0  0  0  0
   -1.2146    0.2087   11.9144 H   0  0  0  0  0  0  0  0  0  0  0  0
  1  2  1  0  0  0  0
  2  3  1  0  0  0  0
  3  4  2  0  0  0  0
  3 36  1  0  0  0  0
  4  5  1  0  0  0  0
  5  6  1  0  0  0  0
  6  7  2  0  0  0  0
  6 35  1  0  0  0  0
  7  8  1  0  0  0  0
  8  9  2  0  0  0  0
  8 16  1  0  0  0  0
  9 10  1  0  0  0  0
 10 11  2  0  0  0  0
 10 17  1  0  0  0  0
 11 12  1  0  0  0  0
 12 13  1  0  0  0  0
 12 16  1  0  0  0  0
 13 14  2  0  0  0  0
 14 15  1  0  0  0  0
 15 16  2  0  0  0  0
 17 18  2  0  0  0  0
 17 22  1  0  0  0  0
 18 19  1  0  0  0  0
 19 20  2  0  0  0  0
 20 21  1  0  0  0  0
 21 22  2  0  0  0  0
 21 23  1  0  0  0  0
 23 24  1  0  0  0  0
 23 25  2  0  0  0  0
 25 26  1  0  0  0  0
 26 27  2  0  0  0  0
 26 31  1  0  0  0  0
 27 28  1  0  0  0  0
 28 29  2  0  0  0  0
 29 30  1  0  0  0  0
 30 31  2  0  0  0  0
 30 32  1  0  0  0  0
 32 33  2  0  0  0  0
 32 34  1  0  0  0  0
 35 36  2  0  0  0  0
 36 37  1  0  0  0  0
 37 38  1  0  0  0  0
  1 39  1  0  0  0  0
  1 40  1  0  0  0  0
  1 41  1  0  0  0  0
  4 42  1  0  0  0  0
  5 43  1  0  0  0  0
  5 44  1  0  0  0  0
 11 45  1  0  0  0  0
 13 46  1  0  0  0  0
 14 47  1  0  0  0  0
 18 48  1  0  0  0  0
 19 49  1  0  0  0  0
 20 50  1  0  0  0  0
 22 51  1  0  0  0  0
 24 52  1  0  0  0  0
 27 53  1  0  0  0  0
 28 54  1  0  0  0  0
 29 55  1  0  0  0  0
 31 56  1  0  0  0  0
 34 57  1  0  0  0  0
 35 58  1  0  0  0  0
 38 59  1  0  0  0  0
 38 60  1  0  0  0  0
 38 61  1  0  0  0  0
M  END
> <IC50[nM]>
8.9

$$$$
CHEMBL3264997
  -OEChem-05192314333D
 Structure written by MMmdl.
 61 65  0     0  0  0  0  0  0999 V2000
   -4.2555   -3.1029   13.5707 C   0  0  0  0  0  0  0  0  0  0  0  0
   -3.8740   -2.3535   14.7166 O   0  0  0  0  0  0  0  0  0  0  0  0
   -2.5261   -2.1057   14.8053 C   0  0  0  0  0  0  0  0  0  0  0  0
   -1.7497   -2.8673   15.6804 C   0  0  0  0  0  0  0  0  0  0  0  0
   -0.3863   -2.6106   15.8150 C   0  0  0  0  0  0  0  0  0  0  0  0
    0.2220   -1.5829   15.0890 C   0  0  0  0  0  0  0  0  0  0  0  0
    1.5930   -1.3491   15.3060 N   0  0  0  0  0  0  0  0  0  0  0  0
    2.5452   -0.4689   14.7536 C   0  0  0  0  0  0  0  0  0  0  0  0
    2.2178    0.3551   13.7190 N   0  0  0  0  0  0  0  0  0  0  0  0
    3.1227    1.2406   13.2181 C   0  0  0  0  0  0  0  0  0  0  0  0
    4.4207    1.3039   13.7175 C   0  0  0  0  0  0  0  0  0  0  0  0
    4.7482    0.4921   14.7654 N   0  0  0  0  0  0  0  0  0  0  0  0
    5.8898    0.3836   15.5035 C   0  0  0  0  0  0  0  0  0  0  0  0
    5.5715   -0.5089   16.5177 C   0  0  0  0  0  0  0  0  0  0  0  0
    4.3818   -1.0543   16.3920 N   0  0  0  0  0  0  0  0  0  0  0  0
    3.8330   -0.4170   15.3252 C   0  0  0  0  0  0  0  0  0  0  0  0
    2.6564    2.1560   12.1340 C   0  0  0  0  0  0  0  0  0  0  0  0
    3.5566    2.6280   11.1666 C   0  0  0  0  0  0  0  0  0  0  0  0
    3.1294    3.4499   10.1277 C   0  0  0  0  0  0  0  0  0  0  0  0
    1.7879    3.8078   10.0318 C   0  0  0  0  0  0  0  0  0  0  0  0
    0.8660    3.3707   10.9895 C   0  0  0  0  0  0  0  0  0  0  0  0
    1.3140    2.5576   12.0419 C   0  0  0  0  0  0  0  0  0  0  0  0
   -0.5783    3.7648   10.8956 C   0  0  0  0  0  0  0  0  0  0  0  0
   -1.2610    3.7179    9.8765 O   0  0  0  0  0  0  0  0  0  0  0  0
   -1.0553    4.1831   12.0683 N   0  0  0  0  0  0  0  0  0  0  0  0
   -2.4212    4.6362   12.3150 C   0  0  0  0  0  0  0  0  0  0  0  0
   -2.7024    5.4228   13.4257 C   0  0  0  0  0  0  0  0  0  0  0  0
   -4.0026    5.8541   13.6606 C   0  0  0  0  0  0  0  0  0  0  0  0
   -5.0215    5.4987   12.7847 C   0  0  0  0  0  0  0  0  0  0  0  0
   -4.7403    4.7121   11.6740 C   0  0  0  0  0  0  0  0  0  0  0  0
   -3.4401    4.2808   11.4391 C   0  0  0  0  0  0  0  0  0  0  0  0
   -5.8399    4.3286   10.7287 C   0  0  0  0  0  0  0  0  0  0  0  0
   -5.6116    3.6277    9.7316 O   0  0  0  0  0  0  0  0  0  0  0  0
   -6.9848    4.7354   10.9767 O   0  0  0  0  0  0  0  0  0  0  0  0
   -0.5664   -0.8256   14.2115 C   0  0  0  0  0  0  0  0  0  0  0  0
   -1.9389   -1.0760   14.0580 C   0  0  0  0  0  0  0  0  0  0  0  0
   -2.6991   -0.3052   13.2021 O   0  0  0  0  0  0  0  0  0  0  0  0
   -2.0020    0.6746   12.5251 C   0  0  0  0  0  0  0  0  0  0  0  0
   -5.3448   -3.2555   13.5777 H   0  0  0  0  0  0  0  0  0  0  0  0
   -3.9681   -2.5543   12.6616 H   0  0  0  0  0  0  0  0  0  0  0  0
   -3.7486   -4.0790   13.5856 H   0  0  0  0  0  0  0  0  0  0  0  0
   -2.2073   -3.6587   16.2555 H   0  0  0  0  0  0  0  0  0  0  0  0
    0.2066   -3.2125   16.4877 H   0  0  0  0  0  0  0  0  0  0  0  0
    5.1484    1.9765   13.2880 H   0  0  0  0  0  0  0  0  0  0  0  0
    6.8331    0.8820   15.3359 H   0  0  0  0  0  0  0  0  0  0  0  0
    6.2400   -0.7347   17.3354 H   0  0  0  0  0  0  0  0  0  0  0  0
    4.5981    2.3490   11.2292 H   0  0  0  0  0  0  0  0  0  0  0  0
    3.8383    3.8096    9.3966 H   0  0  0  0  0  0  0  0  0  0  0  0
    1.4559    4.4276    9.2120 H   0  0  0  0  0  0  0  0  0  0  0  0
    0.6121    2.2342   12.7963 H   0  0  0  0  0  0  0  0  0  0  0  0
   -2.1412    4.0181   10.0704 H   0  0  0  0  0  0  0  0  0  0  0  0
   -1.9106    5.6989   14.1063 H   0  0  0  0  0  0  0  0  0  0  0  0
   -4.2212    6.4654   14.5237 H   0  0  0  0  0  0  0  0  0  0  0  0
   -6.0318    5.8338   12.9672 H   0  0  0  0  0  0  0  0  0  0  0  0
   -3.2215    3.6695   10.5760 H   0  0  0  0  0  0  0  0  0  0  0  0
   -7.5834    4.4255   10.3073 H   0  0  0  0  0  0  0  0  0  0  0  0
   -0.4764    0.2210   14.5379 H   0  0  0  0  0  0  0  0  0  0  0  0
   -0.1167   -0.9386   13.2140 H   0  0  0  0  0  0  0  0  0  0  0  0
   -2.6909    1.2310   11.8726 H   0  0  0  0  0  0  0  0  0  0  0  0
   -1.5443    1.3652   13.2487 H   0  0  0  0  0  0  0  0  0  0  0  0
   -1.2146    0.2087   11.9144 H   0  0  0  0  0  0  0  0  0  0  0  0
  1  2  1  0  0  0  0
  2  3  1  0  0  0  0
  3  4  1  0  0  0  0
  3 36  2  0  0  0  0
  4  5  2  0  0  0  0
  5  6  1  0  0  0  0
  6  7  2  0  0  0  0
  6 35  1  0  0  0  0
  7  8  1  0  0  0  0
  8  9  2  0  0  0  0
  8 16  1  0  0  0  0
  9 10  1  0  0  0  0
 10 11  2  0  0  0  0
 10 17  1  0  0  0  0
 11 12  1  0  0  0  0
 12 13  1  0  0  0  0
 12 16  1  0  0  0  0
 13 14  2  0  0  0  0
 14 15  1  0  0  0  0
 15 16  2  0  0  0  0
 17 18  2  0  0  0  0
 17 22  1  0  0  0  0
 18 19  1  0  0  0  0
 19 20  2  0  0  0  0
 20 21  1  0  0  0  0
 21 22  2  0  0  0  0
 21 23  1  0  0  0  0
 23 24  1  0  0  0  0
 23 25  2  0  0  0  0
 25 26  1  0  0  0  0
 26 27  2  0  0  0  0
 26 31  1  0  0  0  0
 27 28  1  0  0  0  0
 28 29  2  0  0  0  0
 29 30  1  0  0  0  0
 30 31  2  0  0  0  0
 30 32  1  0  0  0  0
 32 33  2  0  0  0  0
 32 34  1  0  0  0  0
 35 36  1  0  0  0  0
 36 37  1  0  0  0  0
 37 38  1  0  0  0  0
  1 39  1  0  0  0  0
  1 40  1  0  0  0  0
  1 41  1  0  0  0  0
  4 42  1  0  0  0  0
  5 43  1  0  0  0  0
 11 44  1  0  0  0  0
 13 45  1  0  0  0  0
 14 46  1  0  0  0  0
 18 47  1  0  0  0  0
 19 48  1  0  0  0  0
 20 49  1  0  0  0  0
 22 50  1  0  0  0  0
 24 51  1  0  0  0  0
 27 52  1  0  0  0  0
 28 53  1  0  0  0  0
 29 54  1  0  0  0  0
 31 55  1  0  0  0  0
 34 56  1  0  0  0  0
 35 57  1  0  0  0  0
 35 58  1  0  0  0  0
 38 59  1  0  0  0  0
 38 60  1  0  0  0  0
 38 61  1  0  0  0  0
M  END
> <IC50[nM]>
8.9

$$$$
CHEMBL3264997
  -OEChem-05192314333D
 Structure written by MMmdl.
 61 65  0     0  0  0  0  0  0999 V2000
   -4.2555   -3.1029   13.5707 C   0  0  0  0  0  0  0  0  0  0  0  0
   -3.8740   -2.3535   14.7166 O   0  0  0  0  0  0  0  0  0  0  0  0
   -2.5261   -2.1057   14.8053 C   0  0  0  0  0  0  0  0  0  0  0  0
   -1.7497   -2.8673   15.6804 C   0  0  0  0  0  0  0  0  0  0  0  0
   -0.3863   -2.6106   15.8150 C   0  0  0  0  0  0  0  0  0  0  0  0
    0.2220   -1.5829   15.0890 C   0  0  0  0  0  0  0  0  0  0  0  0
    1.5930   -1.3491   15.3060 N   0  0  0  0  0  0  0  0  0  0  0  0
    2.5452   -0.4689   14.7536 C   0  0  0  0  0  0  0  0  0  0  0  0
    2.2178    0.3551   13.7190 N   0  0  0  0  0  0  0  0  0  0  0  0
    3.1227    1.2406   13.2181 C   0  0  0  0  0  0  0  0  0  0  0  0
    4.4207    1.3039   13.7175 C   0  0  0  0  0  0  0  0  0  0  0  0
    4.7482    0.4921   14.7654 N   0  0  0  0  0  0  0  0  0  0  0  0
    5.8898    0.3836   15.5035 C   0  0  0  0  0  0  0  0  0  0  0  0
    5.5715   -0.5089   16.5177 C   0  0  0  0  0  0  0  0  0  0  0  0
    4.3818   -1.0543   16.3920 N   0  0  0  0  0  0  0  0  0  0  0  0
    3.8330   -0.4170   15.3252 C   0  0  0  0  0  0  0  0  0  0  0  0
    2.6564    2.1560   12.1340 C   0  0  0  0  0  0  0  0  0  0  0  0
    3.5566    2.6280   11.1666 C   0  0  0  0  0  0  0  0  0  0  0  0
    3.1294    3.4499   10.1277 C   0  0  0  0  0  0  0  0  0  0  0  0
    1.7879    3.8078   10.0318 C   0  0  0  0  0  0  0  0  0  0  0  0
    0.8660    3.3707   10.9895 C   0  0  0  0  0  0  0  0  0  0  0  0
    1.3140    2.5576   12.0419 C   0  0  0  0  0  0  0  0  0  0  0  0
   -0.5783    3.7648   10.8956 C   0  0  0  0  0  0  0  0  0  0  0  0
   -1.2610    3.7179    9.8765 O   0  0  0  0  0  0  0  0  0  0  0  0
   -1.0553    4.1831   12.0683 N   0  0  0  0  0  0  0  0  0  0  0  0
   -2.4212    4.6362   12.3150 C   0  0  0  0  0  0  0  0  0  0  0  0
   -2.7024    5.4228   13.4257 C   0  0  0  0  0  0  0  0  0  0  0  0
   -4.0026    5.8541   13.6606 C   0  0  0  0  0  0  0  0  0  0  0  0
   -5.0215    5.4987   12.7847 C   0  0  0  0  0  0  0  0  0  0  0  0
   -4.7403    4.7121   11.6740 C   0  0  0  0  0  0  0  0  0  0  0  0
   -3.4401    4.2808   11.4391 C   0  0  0  0  0  0  0  0  0  0  0  0
   -5.8399    4.3286   10.7287 C   0  0  0  0  0  0  0  0  0  0  0  0
   -5.6116    3.6277    9.7316 O   0  0  0  0  0  0  0  0  0  0  0  0
   -6.9848    4.7354   10.9767 O   0  0  0  0  0  0  0  0  0  0  0  0
   -0.5664   -0.8256   14.2115 C   0  0  0  0  0  0  0  0  0  0  0  0
   -1.9389   -1.0760   14.0580 C   0  0  0  0  0  0  0  0  0  0  0  0
   -2.6991   -0.3052   13.2021 O   0  0  0  0  0  0  0  0  0  0  0  0
   -2.0020    0.6746   12.5251 C   0  0  0  0  0  0  0  0  0  0  0  0
   -5.3448   -3.2555   13.5777 H   0  0  0  0  0  0  0  0  0  0  0  0
   -3.9681   -2.5543   12.6616 H   0  0  0  0  0  0  0  0  0  0  0  0
   -3.7486   -4.0790   13.5856 H   0  0  0  0  0  0  0  0  0  0  0  0
   -2.2073   -3.6587   16.2555 H   0  0  0  0  0  0  0  0  0  0  0  0
    0.2066   -3.2125   16.4877 H   0  0  0  0  0  0  0  0  0  0  0  0
    1.3010    0.3089   13.3224 H   0  0  0  0  0  0  0  0  0  0  0  0
    5.1484    1.9765   13.2880 H   0  0  0  0  0  0  0  0  0  0  0  0
    6.8331    0.8820   15.3359 H   0  0  0  0  0  0  0  0  0  0  0  0
    6.2400   -0.7347   17.3354 H   0  0  0  0  0  0  0  0  0  0  0  0
    4.5981    2.3490   11.2292 H   0  0  0  0  0  0  0  0  0  0  0  0
    3.8383    3.8096    9.3966 H   0  0  0  0  0  0  0  0  0  0  0  0
    1.4559    4.4276    9.2120 H   0  0  0  0  0  0  0  0  0  0  0  0
    0.6121    2.2342   12.7963 H   0  0  0  0  0  0  0  0  0  0  0  0
   -2.3948    4.8453   14.3099 H   0  0  0  0  0  0  0  0  0  0  0  0
   -2.0788    6.3251   13.3419 H   0  0  0  0  0  0  0  0  0  0  0  0
   -4.2212    6.4654   14.5237 H   0  0  0  0  0  0  0  0  0  0  0  0
   -6.0318    5.8338   12.9672 H   0  0  0  0  0  0  0  0  0  0  0  0
   -3.2215    3.6695   10.5760 H   0  0  0  0  0  0  0  0  0  0  0  0
   -7.5834    4.4255   10.3073 H   0  0  0  0  0  0  0  0  0  0  0  0
   -0.1075   -0.0318   13.6408 H   0  0  0  0  0  0  0  0  0  0  0  0
   -2.6909    1.2310   11.8726 H   0  0  0  0  0  0  0  0  0  0  0  0
   -1.5443    1.3652   13.2487 H   0  0  0  0  0  0  0  0  0  0  0  0
   -1.2146    0.2087   11.9144 H   0  0  0  0  0  0  0  0  0  0  0  0
  1  2  1  0  0  0  0
  2  3  1  0  0  0  0
  3  4  2  0  0  0  0
  3 36  1  0  0  0  0
  4  5  1  0  0  0  0
  5  6  2  0  0  0  0
  6  7  1  0  0  0  0
  6 35  1  0  0  0  0
  7  8  2  0  0  0  0
  8  9  1  0  0  0  0
  8 16  1  0  0  0  0
  9 10  1  0  0  0  0
 10 11  2  0  0  0  0
 10 17  1  0  0  0  0
 11 12  1  0  0  0  0
 12 13  1  0  0  0  0
 12 16  1  0  0  0  0
 13 14  2  0  0  0  0
 14 15  1  0  0  0  0
 15 16  2  0  0  0  0
 17 18  2  0  0  0  0
 17 22  1  0  0  0  0
 18 19  1  0  0  0  0
 19 20  2  0  0  0  0
 20 21  1  0  0  0  0
 21 22  2  0  0  0  0
 21 23  1  0  0  0  0
 23 24  2  0  0  0  0
 23 25  1  0  0  0  0
 25 26  2  0  0  0  0
 26 27  1  0  0  0  0
 26 31  1  0  0  0  0
 27 28  1  0  0  0  0
 28 29  2  0  0  0  0
 29 30  1  0  0  0  0
 30 31  2  0  0  0  0
 30 32  1  0  0  0  0
 32 33  2  0  0  0  0
 32 34  1  0  0  0  0
 35 36  2  0  0  0  0
 36 37  1  0  0  0  0
 37 38  1  0  0  0  0
  1 39  1  0  0  0  0
  1 40  1  0  0  0  0
  1 41  1  0  0  0  0
  4 42  1  0  0  0  0
  5 43  1  0  0  0  0
  9 44  1  0  0  0  0
 11 45  1  0  0  0  0
 13 46  1  0  0  0  0
 14 47  1  0  0  0  0
 18 48  1  0  0  0  0
 19 49  1  0  0  0  0
 20 50  1  0  0  0  0
 22 51  1  0  0  0  0
 27 52  1  0  0  0  0
 27 53  1  0  0  0  0
 28 54  1  0  0  0  0
 29 55  1  0  0  0  0
 31 56  1  0  0  0  0
 34 57  1  0  0  0  0
 35 58  1  0  0  0  0
 38 59  1  0  0  0  0
 38 60  1  0  0  0  0
 38 61  1  0  0  0  0
M  END
> <IC50[nM]>
8.9

$$$$
CHEMBL3264997
  -OEChem-05192314333D
 Structure written by MMmdl.
 61 65  0     0  0  0  0  0  0999 V2000
   -4.2555   -3.1029   13.5707 C   0  0  0  0  0  0  0  0  0  0  0  0
   -3.8740   -2.3535   14.7166 O   0  0  0  0  0  0  0  0  0  0  0  0
   -2.5261   -2.1057   14.8053 C   0  0  0  0  0  0  0  0  0  0  0  0
   -1.7497   -2.8673   15.6804 C   0  0  0  0  0  0  0  0  0  0  0  0
   -0.3863   -2.6106   15.8150 C   0  0  0  0  0  0  0  0  0  0  0  0
    0.2220   -1.5829   15.0890 C   0  0  0  0  0  0  0  0  0  0  0  0
    1.5930   -1.3491   15.3060 N   0  0  0  0  0  0  0  0  0  0  0  0
    2.5452   -0.4689   14.7536 C   0  0  0  0  0  0  0  0  0  0  0  0
    2.2178    0.3551   13.7190 N   0  0  0  0  0  0  0  0  0  0  0  0
    3.1227    1.2406   13.2181 C   0  0  0  0  0  0  0  0  0  0  0  0
    4.4207    1.3039   13.7175 C   0  0  0  0  0  0  0  0  0  0  0  0
    4.7482    0.4921   14.7654 N   0  0  0  0  0  0  0  0  0  0  0  0
    5.8898    0.3836   15.5035 C   0  0  0  0  0  0  0  0  0  0  0  0
    5.5715   -0.5089   16.5177 C   0  0  0  0  0  0  0  0  0  0  0  0
    4.3818   -1.0543   16.3920 N   0  0  0  0  0  0  0  0  0  0  0  0
    3.8330   -0.4170   15.3252 C   0  0  0  0  0  0  0  0  0  0  0  0
    2.6564    2.1560   12.1340 C   0  0  0  0  0  0  0  0  0  0  0  0
    3.5566    2.6280   11.1666 C   0  0  0  0  0  0  0  0  0  0  0  0
    3.1294    3.4499   10.1277 C   0  0  0  0  0  0  0  0  0  0  0  0
    1.7879    3.8078   10.0318 C   0  0  0  0  0  0  0  0  0  0  0  0
    0.8660    3.3707   10.9895 C   0  0  0  0  0  0  0  0  0  0  0  0
    1.3140    2.5576   12.0419 C   0  0  0  0  0  0  0  0  0  0  0  0
   -0.5783    3.7648   10.8956 C   0  0  0  0  0  0  0  0  0  0  0  0
   -1.2610    3.7179    9.8765 O   0  0  0  0  0  0  0  0  0  0  0  0
   -1.0553    4.1831   12.0683 N   0  0  0  0  0  0  0  0  0  0  0  0
   -2.4212    4.6362   12.3150 C   0  0  0  0  0  0  0  0  0  0  0  0
   -2.7024    5.4228   13.4257 C   0  0  0  0  0  0  0  0  0  0  0  0
   -4.0026    5.8541   13.6606 C   0  0  0  0  0  0  0  0  0  0  0  0
   -5.0215    5.4987   12.7847 C   0  0  0  0  0  0  0  0  0  0  0  0
   -4.7403    4.7121   11.6740 C   0  0  0  0  0  0  0  0  0  0  0  0
   -3.4401    4.2808   11.4391 C   0  0  0  0  0  0  0  0  0  0  0  0
   -5.8399    4.3286   10.7287 C   0  0  0  0  0  0  0  0  0  0  0  0
   -5.6116    3.6277    9.7316 O   0  0  0  0  0  0  0  0  0  0  0  0
   -6.9848    4.7354   10.9767 O   0  0  0  0  0  0  0  0  0  0  0  0
   -0.5664   -0.8256   14.2115 C   0  0  0  0  0  0  0  0  0  0  0  0
   -1.9389   -1.0760   14.0580 C   0  0  0  0  0  0  0  0  0  0  0  0
   -2.6991   -0.3052   13.2021 O   0  0  0  0  0  0  0  0  0  0  0  0
   -2.0020    0.6746   12.5251 C   0  0  0  0  0  0  0  0  0  0  0  0
   -5.3448   -3.2555   13.5777 H   0  0  0  0  0  0  0  0  0  0  0  0
   -3.9681   -2.5543   12.6616 H   0  0  0  0  0  0  0  0  0  0  0  0
   -3.7486   -4.0790   13.5856 H   0  0  0  0  0  0  0  0  0  0  0  0
   -2.2073   -3.6587   16.2555 H   0  0  0  0  0  0  0  0  0  0  0  0
    0.2066   -3.2125   16.4877 H   0  0  0  0  0  0  0  0  0  0  0  0
    1.3010    0.3089   13.3224 H   0  0  0  0  0  0  0  0  0  0  0  0
    5.1484    1.9765   13.2880 H   0  0  0  0  0  0  0  0  0  0  0  0
    6.8331    0.8820   15.3359 H   0  0  0  0  0  0  0  0  0  0  0  0
    6.2400   -0.7347   17.3354 H   0  0  0  0  0  0  0  0  0  0  0  0
    4.5981    2.3490   11.2292 H   0  0  0  0  0  0  0  0  0  0  0  0
    3.8383    3.8096    9.3966 H   0  0  0  0  0  0  0  0  0  0  0  0
    1.4559    4.4276    9.2120 H   0  0  0  0  0  0  0  0  0  0  0  0
    0.6121    2.2342   12.7963 H   0  0  0  0  0  0  0  0  0  0  0  0
   -1.9106    5.6989   14.1063 H   0  0  0  0  0  0  0  0  0  0  0  0
   -4.2212    6.4654   14.5237 H   0  0  0  0  0  0  0  0  0  0  0  0
   -5.7736    4.9559   13.3760 H   0  0  0  0  0  0  0  0  0  0  0  0
   -5.4576    6.4357   12.4080 H   0  0  0  0  0  0  0  0  0  0  0  0
   -3.2215    3.6695   10.5760 H   0  0  0  0  0  0  0  0  0  0  0  0
   -7.5834    4.4255   10.3073 H   0  0  0  0  0  0  0  0  0  0  0  0
   -0.1075   -0.0318   13.6408 H   0  0  0  0  0  0  0  0  0  0  0  0
   -2.6909    1.2310   11.8726 H   0  0  0  0  0  0  0  0  0  0  0  0
   -1.5443    1.3652   13.2487 H   0  0  0  0  0  0  0  0  0  0  0  0
   -1.2146    0.2087   11.9144 H   0  0  0  0  0  0  0  0  0  0  0  0
  1  2  1  0  0  0  0
  2  3  1  0  0  0  0
  3  4  2  0  0  0  0
  3 36  1  0  0  0  0
  4  5  1  0  0  0  0
  5  6  2  0  0  0  0
  6  7  1  0  0  0  0
  6 35  1  0  0  0  0
  7  8  2  0  0  0  0
  8  9  1  0  0  0  0
  8 16  1  0  0  0  0
  9 10  1  0  0  0  0
 10 11  2  0  0  0  0
 10 17  1  0  0  0  0
 11 12  1  0  0  0  0
 12 13  1  0  0  0  0
 12 16  1  0  0  0  0
 13 14  2  0  0  0  0
 14 15  1  0  0  0  0
 15 16  2  0  0  0  0
 17 18  2  0  0  0  0
 17 22  1  0  0  0  0
 18 19  1  0  0  0  0
 19 20  2  0  0  0  0
 20 21  1  0  0  0  0
 21 22  2  0  0  0  0
 21 23  1  0  0  0  0
 23 24  2  0  0  0  0
 23 25  1  0  0  0  0
 25 26  2  0  0  0  0
 26 27  1  0  0  0  0
 26 31  1  0  0  0  0
 27 28  2  0  0  0  0
 28 29  1  0  0  0  0
 29 30  1  0  0  0  0
 30 31  2  0  0  0  0
 30 32  1  0  0  0  0
 32 33  2  0  0  0  0
 32 34  1  0  0  0  0
 35 36  2  0  0  0  0
 36 37  1  0  0  0  0
 37 38  1  0  0  0  0
  1 39  1  0  0  0  0
  1 40  1  0  0  0  0
  1 41  1  0  0  0  0
  4 42  1  0  0  0  0
  5 43  1  0  0  0  0
  9 44  1  0  0  0  0
 11 45  1  0  0  0  0
 13 46  1  0  0  0  0
 14 47  1  0  0  0  0
 18 48  1  0  0  0  0
 19 49  1  0  0  0  0
 20 50  1  0  0  0  0
 22 51  1  0  0  0  0
 27 52  1  0  0  0  0
 28 53  1  0  0  0  0
 29 54  1  0  0  0  0
 29 55  1  0  0  0  0
 31 56  1  0  0  0  0
 34 57  1  0  0  0  0
 35 58  1  0  0  0  0
 38 59  1  0  0  0  0
 38 60  1  0  0  0  0
 38 61  1  0  0  0  0
M  END
> <IC50[nM]>
8.9

$$$$
CHEMBL3264997
  -OEChem-05192314333D
 Structure written by MMmdl.
 61 65  0     0  0  0  0  0  0999 V2000
   -4.2555   -3.1029   13.5707 C   0  0  0  0  0  0  0  0  0  0  0  0
   -3.8740   -2.3535   14.7166 O   0  0  0  0  0  0  0  0  0  0  0  0
   -2.5261   -2.1057   14.8053 C   0  0  0  0  0  0  0  0  0  0  0  0
   -1.7497   -2.8673   15.6804 C   0  0  0  0  0  0  0  0  0  0  0  0
   -0.3863   -2.6106   15.8150 C   0  0  0  0  0  0  0  0  0  0  0  0
    0.2220   -1.5829   15.0890 C   0  0  0  0  0  0  0  0  0  0  0  0
    1.5930   -1.3491   15.3060 N   0  0  0  0  0  0  0  0  0  0  0  0
    2.5452   -0.4689   14.7536 C   0  0  0  0  0  0  0  0  0  0  0  0
    2.2178    0.3551   13.7190 N   0  0  0  0  0  0  0  0  0  0  0  0
    3.1227    1.2406   13.2181 C   0  0  0  0  0  0  0  0  0  0  0  0
    4.4207    1.3039   13.7175 C   0  0  0  0  0  0  0  0  0  0  0  0
    4.7482    0.4921   14.7654 N   0  0  0  0  0  0  0  0  0  0  0  0
    5.8898    0.3836   15.5035 C   0  0  0  0  0  0  0  0  0  0  0  0
    5.5715   -0.5089   16.5177 C   0  0  0  0  0  0  0  0  0  0  0  0
    4.3818   -1.0543   16.3920 N   0  0  0  0  0  0  0  0  0  0  0  0
    3.8330   -0.4170   15.3252 C   0  0  0  0  0  0  0  0  0  0  0  0
    2.6564    2.1560   12.1340 C   0  0  0  0  0  0  0  0  0  0  0  0
    3.5566    2.6280   11.1666 C   0  0  0  0  0  0  0  0  0  0  0  0
    3.1294    3.4499   10.1277 C   0  0  0  0  0  0  0  0  0  0  0  0
    1.7879    3.8078   10.0318 C   0  0  0  0  0  0  0  0  0  0  0  0
    0.8660    3.3707   10.9895 C   0  0  0  0  0  0  0  0  0  0  0  0
    1.3140    2.5576   12.0419 C   0  0  0  0  0  0  0  0  0  0  0  0
   -0.5783    3.7648   10.8956 C   0  0  0  0  0  0  0  0  0  0  0  0
   -1.2610    3.7179    9.8765 O   0  0  0  0  0  0  0  0  0  0  0  0
   -1.0553    4.1831   12.0683 N   0  0  0  0  0  0  0  0  0  0  0  0
   -2.4212    4.6362   12.3150 C   0  0  0  0  0  0  0  0  0  0  0  0
   -2.7024    5.4228   13.4257 C   0  0  0  0  0  0  0  0  0  0  0  0
   -4.0026    5.8541   13.6606 C   0  0  0  0  0  0  0  0  0  0  0  0
   -5.0215    5.4987   12.7847 C   0  0  0  0  0  0  0  0  0  0  0  0
   -4.7403    4.7121   11.6740 C   0  0  0  0  0  0  0  0  0  0  0  0
   -3.4401    4.2808   11.4391 C   0  0  0  0  0  0  0  0  0  0  0  0
   -5.8399    4.3286   10.7287 C   0  0  0  0  0  0  0  0  0  0  0  0
   -5.6116    3.6277    9.7316 O   0  0  0  0  0  0  0  0  0  0  0  0
   -6.9848    4.7354   10.9767 O   0  0  0  0  0  0  0  0  0  0  0  0
   -0.5664   -0.8256   14.2115 C   0  0  0  0  0  0  0  0  0  0  0  0
   -1.9389   -1.0760   14.0580 C   0  0  0  0  0  0  0  0  0  0  0  0
   -2.6991   -0.3052   13.2021 O   0  0  0  0  0  0  0  0  0  0  0  0
   -2.0020    0.6746   12.5251 C   0  0  0  0  0  0  0  0  0  0  0  0
   -5.3448   -3.2555   13.5777 H   0  0  0  0  0  0  0  0  0  0  0  0
   -3.9681   -2.5543   12.6616 H   0  0  0  0  0  0  0  0  0  0  0  0
   -3.7486   -4.0790   13.5856 H   0  0  0  0  0  0  0  0  0  0  0  0
   -2.2073   -3.6587   16.2555 H   0  0  0  0  0  0  0  0  0  0  0  0
    0.2066   -3.2125   16.4877 H   0  0  0  0  0  0  0  0  0  0  0  0
    1.3010    0.3089   13.3224 H   0  0  0  0  0  0  0  0  0  0  0  0
    5.1484    1.9765   13.2880 H   0  0  0  0  0  0  0  0  0  0  0  0
    6.8331    0.8820   15.3359 H   0  0  0  0  0  0  0  0  0  0  0  0
    6.2400   -0.7347   17.3354 H   0  0  0  0  0  0  0  0  0  0  0  0
    4.5981    2.3490   11.2292 H   0  0  0  0  0  0  0  0  0  0  0  0
    3.8383    3.8096    9.3966 H   0  0  0  0  0  0  0  0  0  0  0  0
    1.4559    4.4276    9.2120 H   0  0  0  0  0  0  0  0  0  0  0  0
    0.6121    2.2342   12.7963 H   0  0  0  0  0  0  0  0  0  0  0  0
   -1.9106    5.6989   14.1063 H   0  0  0  0  0  0  0  0  0  0  0  0
   -4.2212    6.4654   14.5237 H   0  0  0  0  0  0  0  0  0  0  0  0
   -6.0318    5.8338   12.9672 H   0  0  0  0  0  0  0  0  0  0  0  0
   -3.1536    4.6612   10.4475 H   0  0  0  0  0  0  0  0  0  0  0  0
   -3.4696    3.1814   11.4156 H   0  0  0  0  0  0  0  0  0  0  0  0
   -7.5834    4.4255   10.3073 H   0  0  0  0  0  0  0  0  0  0  0  0
   -0.1075   -0.0318   13.6408 H   0  0  0  0  0  0  0  0  0  0  0  0
   -2.6909    1.2310   11.8726 H   0  0  0  0  0  0  0  0  0  0  0  0
   -1.5443    1.3652   13.2487 H   0  0  0  0  0  0  0  0  0  0  0  0
   -1.2146    0.2087   11.9144 H   0  0  0  0  0  0  0  0  0  0  0  0
  1  2  1  0  0  0  0
  2  3  1  0  0  0  0
  3  4  2  0  0  0  0
  3 36  1  0  0  0  0
  4  5  1  0  0  0  0
  5  6  2  0  0  0  0
  6  7  1  0  0  0  0
  6 35  1  0  0  0  0
  7  8  2  0  0  0  0
  8  9  1  0  0  0  0
  8 16  1  0  0  0  0
  9 10  1  0  0  0  0
 10 11  2  0  0  0  0
 10 17  1  0  0  0  0
 11 12  1  0  0  0  0
 12 13  1  0  0  0  0
 12 16  1  0  0  0  0
 13 14  2  0  0  0  0
 14 15  1  0  0  0  0
 15 16  2  0  0  0  0
 17 18  2  0  0  0  0
 17 22  1  0  0  0  0
 18 19  1  0  0  0  0
 19 20  2  0  0  0  0
 20 21  1  0  0  0  0
 21 22  2  0  0  0  0
 21 23  1  0  0  0  0
 23 24  2  0  0  0  0
 23 25  1  0  0  0  0
 25 26  2  0  0  0  0
 26 27  1  0  0  0  0
 26 31  1  0  0  0  0
 27 28  2  0  0  0  0
 28 29  1  0  0  0  0
 29 30  2  0  0  0  0
 30 31  1  0  0  0  0
 30 32  1  0  0  0  0
 32 33  2  0  0  0  0
 32 34  1  0  0  0  0
 35 36  2  0  0  0  0
 36 37  1  0  0  0  0
 37 38  1  0  0  0  0
  1 39  1  0  0  0  0
  1 40  1  0  0  0  0
  1 41  1  0  0  0  0
  4 42  1  0  0  0  0
  5 43  1  0  0  0  0
  9 44  1  0  0  0  0
 11 45  1  0  0  0  0
 13 46  1  0  0  0  0
 14 47  1  0  0  0  0
 18 48  1  0  0  0  0
 19 49  1  0  0  0  0
 20 50  1  0  0  0  0
 22 51  1  0  0  0  0
 27 52  1  0  0  0  0
 28 53  1  0  0  0  0
 29 54  1  0  0  0  0
 31 55  1  0  0  0  0
 31 56  1  0  0  0  0
 34 57  1  0  0  0  0
 35 58  1  0  0  0  0
 38 59  1  0  0  0  0
 38 60  1  0  0  0  0
 38 61  1  0  0  0  0
M  END
> <IC50[nM]>
8.9

$$$$
CHEMBL3264997
  -OEChem-05192314333D
 Structure written by MMmdl.
 61 65  0     0  0  0  0  0  0999 V2000
   -4.2555   -3.1029   13.5707 C   0  0  0  0  0  0  0  0  0  0  0  0
   -3.8740   -2.3535   14.7166 O   0  0  0  0  0  0  0  0  0  0  0  0
   -2.5261   -2.1057   14.8053 C   0  0  0  0  0  0  0  0  0  0  0  0
   -1.7497   -2.8673   15.6804 C   0  0  0  0  0  0  0  0  0  0  0  0
   -0.3863   -2.6106   15.8150 C   0  0  0  0  0  0  0  0  0  0  0  0
    0.2220   -1.5829   15.0890 C   0  0  0  0  0  0  0  0  0  0  0  0
    1.5930   -1.3491   15.3060 N   0  0  0  0  0  0  0  0  0  0  0  0
    2.5452   -0.4689   14.7536 C   0  0  0  0  0  0  0  0  0  0  0  0
    2.2178    0.3551   13.7190 N   0  0  0  0  0  0  0  0  0  0  0  0
    3.1227    1.2406   13.2181 C   0  0  0  0  0  0  0  0  0  0  0  0
    4.4207    1.3039   13.7175 C   0  0  0  0  0  0  0  0  0  0  0  0
    4.7482    0.4921   14.7654 N   0  0  0  0  0  0  0  0  0  0  0  0
    5.8898    0.3836   15.5035 C   0  0  0  0  0  0  0  0  0  0  0  0
    5.5715   -0.5089   16.5177 C   0  0  0  0  0  0  0  0  0  0  0  0
    4.3818   -1.0543   16.3920 N   0  0  0  0  0  0  0  0  0  0  0  0
    3.8330   -0.4170   15.3252 C   0  0  0  0  0  0  0  0  0  0  0  0
    2.6564    2.1560   12.1340 C   0  0  0  0  0  0  0  0  0  0  0  0
    3.5566    2.6280   11.1666 C   0  0  0  0  0  0  0  0  0  0  0  0
    3.1294    3.4499   10.1277 C   0  0  0  0  0  0  0  0  0  0  0  0
    1.7879    3.8078   10.0318 C   0  0  0  0  0  0  0  0  0  0  0  0
    0.8660    3.3707   10.9895 C   0  0  0  0  0  0  0  0  0  0  0  0
    1.3140    2.5576   12.0419 C   0  0  0  0  0  0  0  0  0  0  0  0
   -0.5783    3.7648   10.8956 C   0  0  0  0  0  0  0  0  0  0  0  0
   -1.2610    3.7179    9.8765 O   0  0  0  0  0  0  0  0  0  0  0  0
   -1.0553    4.1831   12.0683 N   0  0  0  0  0  0  0  0  0  0  0  0
   -2.4212    4.6362   12.3150 C   0  0  0  0  0  0  0  0  0  0  0  0
   -2.7024    5.4228   13.4257 C   0  0  0  0  0  0  0  0  0  0  0  0
   -4.0026    5.8541   13.6606 C   0  0  0  0  0  0  0  0  0  0  0  0
   -5.0215    5.4987   12.7847 C   0  0  0  0  0  0  0  0  0  0  0  0
   -4.7403    4.7121   11.6740 C   0  0  0  0  0  0  0  0  0  0  0  0
   -3.4401    4.2808   11.4391 C   0  0  0  0  0  0  0  0  0  0  0  0
   -5.8399    4.3286   10.7287 C   0  0  0  0  0  0  0  0  0  0  0  0
   -5.6116    3.6277    9.7316 O   0  0  0  0  0  0  0  0  0  0  0  0
   -6.9848    4.7354   10.9767 O   0  0  0  0  0  0  0  0  0  0  0  0
   -0.5664   -0.8256   14.2115 C   0  0  0  0  0  0  0  0  0  0  0  0
   -1.9389   -1.0760   14.0580 C   0  0  0  0  0  0  0  0  0  0  0  0
   -2.6991   -0.3052   13.2021 O   0  0  0  0  0  0  0  0  0  0  0  0
   -2.0020    0.6746   12.5251 C   0  0  0  0  0  0  0  0  0  0  0  0
   -5.3448   -3.2555   13.5777 H   0  0  0  0  0  0  0  0  0  0  0  0
   -3.9681   -2.5543   12.6616 H   0  0  0  0  0  0  0  0  0  0  0  0
   -3.7486   -4.0790   13.5856 H   0  0  0  0  0  0  0  0  0  0  0  0
   -2.2073   -3.6587   16.2555 H   0  0  0  0  0  0  0  0  0  0  0  0
    0.2066   -3.2125   16.4877 H   0  0  0  0  0  0  0  0  0  0  0  0
    5.1014    1.0581   12.8891 H   0  0  0  0  0  0  0  0  0  0  0  0
    4.5958    2.3407   14.0407 H   0  0  0  0  0  0  0  0  0  0  0  0
    6.8331    0.8820   15.3359 H   0  0  0  0  0  0  0  0  0  0  0  0
    6.2400   -0.7347   17.3354 H   0  0  0  0  0  0  0  0  0  0  0  0
    4.5981    2.3490   11.2292 H   0  0  0  0  0  0  0  0  0  0  0  0
    3.8383    3.8096    9.3966 H   0  0  0  0  0  0  0  0  0  0  0  0
    1.4559    4.4276    9.2120 H   0  0  0  0  0  0  0  0  0  0  0  0
    0.6121    2.2342   12.7963 H   0  0  0  0  0  0  0  0  0  0  0  0
   -2.3948    4.8453   14.3099 H   0  0  0  0  0  0  0  0  0  0  0  0
   -2.0788    6.3251   13.3419 H   0  0  0  0  0  0  0  0  0  0  0  0
   -4.2212    6.4654   14.5237 H   0  0  0  0  0  0  0  0  0  0  0  0
   -6.0318    5.8338   12.9672 H   0  0  0  0  0  0  0  0  0  0  0  0
   -3.2215    3.6695   10.5760 H   0  0  0  0  0  0  0  0  0  0  0  0
   -7.5834    4.4255   10.3073 H   0  0  0  0  0  0  0  0  0  0  0  0
   -0.1075   -0.0318   13.6408 H   0  0  0  0  0  0  0  0  0  0  0  0
   -2.6909    1.2310   11.8726 H   0  0  0  0  0  0  0  0  0  0  0  0
   -1.5443    1.3652   13.2487 H   0  0  0  0  0  0  0  0  0  0  0  0
   -1.2146    0.2087   11.9144 H   0  0  0  0  0  0  0  0  0  0  0  0
  1  2  1  0  0  0  0
  2  3  1  0  0  0  0
  3  4  2  0  0  0  0
  3 36  1  0  0  0  0
  4  5  1  0  0  0  0
  5  6  2  0  0  0  0
  6  7  1  0  0  0  0
  6 35  1  0  0  0  0
  7  8  2  0  0  0  0
  8  9  1  0  0  0  0
  8 16  1  0  0  0  0
  9 10  2  0  0  0  0
 10 11  1  0  0  0  0
 10 17  1  0  0  0  0
 11 12  1  0  0  0  0
 12 13  1  0  0  0  0
 12 16  1  0  0  0  0
 13 14  2  0  0  0  0
 14 15  1  0  0  0  0
 15 16  2  0  0  0  0
 17 18  2  0  0  0  0
 17 22  1  0  0  0  0
 18 19  1  0  0  0  0
 19 20  2  0  0  0  0
 20 21  1  0  0  0  0
 21 22  2  0  0  0  0
 21 23  1  0  0  0  0
 23 24  2  0  0  0  0
 23 25  1  0  0  0  0
 25 26  2  0  0  0  0
 26 27  1  0  0  0  0
 26 31  1  0  0  0  0
 27 28  1  0  0  0  0
 28 29  2  0  0  0  0
 29 30  1  0  0  0  0
 30 31  2  0  0  0  0
 30 32  1  0  0  0  0
 32 33  2  0  0  0  0
 32 34  1  0  0  0  0
 35 36  2  0  0  0  0
 36 37  1  0  0  0  0
 37 38  1  0  0  0  0
  1 39  1  0  0  0  0
  1 40  1  0  0  0  0
  1 41  1  0  0  0  0
  4 42  1  0  0  0  0
  5 43  1  0  0  0  0
 11 44  1  0  0  0  0
 11 45  1  0  0  0  0
 13 46  1  0  0  0  0
 14 47  1  0  0  0  0
 18 48  1  0  0  0  0
 19 49  1  0  0  0  0
 20 50  1  0  0  0  0
 22 51  1  0  0  0  0
 27 52  1  0  0  0  0
 27 53  1  0  0  0  0
 28 54  1  0  0  0  0
 29 55  1  0  0  0  0
 31 56  1  0  0  0  0
 34 57  1  0  0  0  0
 35 58  1  0  0  0  0
 38 59  1  0  0  0  0
 38 60  1  0  0  0  0
 38 61  1  0  0  0  0
M  END
> <IC50[nM]>
8.9

$$$$
CHEMBL3264997
  -OEChem-05192314333D
 Structure written by MMmdl.
 61 65  0     0  0  0  0  0  0999 V2000
   -4.2555   -3.1029   13.5707 C   0  0  0  0  0  0  0  0  0  0  0  0
   -3.8740   -2.3535   14.7166 O   0  0  0  0  0  0  0  0  0  0  0  0
   -2.5261   -2.1057   14.8053 C   0  0  0  0  0  0  0  0  0  0  0  0
   -1.7497   -2.8673   15.6804 C   0  0  0  0  0  0  0  0  0  0  0  0
   -0.3863   -2.6106   15.8150 C   0  0  0  0  0  0  0  0  0  0  0  0
    0.2220   -1.5829   15.0890 C   0  0  0  0  0  0  0  0  0  0  0  0
    1.5930   -1.3491   15.3060 N   0  0  0  0  0  0  0  0  0  0  0  0
    2.5452   -0.4689   14.7536 C   0  0  0  0  0  0  0  0  0  0  0  0
    2.2178    0.3551   13.7190 N   0  0  0  0  0  0  0  0  0  0  0  0
    3.1227    1.2406   13.2181 C   0  0  0  0  0  0  0  0  0  0  0  0
    4.4207    1.3039   13.7175 C   0  0  0  0  0  0  0  0  0  0  0  0
    4.7482    0.4921   14.7654 N   0  0  0  0  0  0  0  0  0  0  0  0
    5.8898    0.3836   15.5035 C   0  0  0  0  0  0  0  0  0  0  0  0
    5.5715   -0.5089   16.5177 C   0  0  0  0  0  0  0  0  0  0  0  0
    4.3818   -1.0543   16.3920 N   0  0  0  0  0  0  0  0  0  0  0  0
    3.8330   -0.4170   15.3252 C   0  0  0  0  0  0  0  0  0  0  0  0
    2.6564    2.1560   12.1340 C   0  0  0  0  0  0  0  0  0  0  0  0
    3.5566    2.6280   11.1666 C   0  0  0  0  0  0  0  0  0  0  0  0
    3.1294    3.4499   10.1277 C   0  0  0  0  0  0  0  0  0  0  0  0
    1.7879    3.8078   10.0318 C   0  0  0  0  0  0  0  0  0  0  0  0
    0.8660    3.3707   10.9895 C   0  0  0  0  0  0  0  0  0  0  0  0
    1.3140    2.5576   12.0419 C   0  0  0  0  0  0  0  0  0  0  0  0
   -0.5783    3.7648   10.8956 C   0  0  0  0  0  0  0  0  0  0  0  0
   -1.2610    3.7179    9.8765 O   0  0  0  0  0  0  0  0  0  0  0  0
   -1.0553    4.1831   12.0683 N   0  0  0  0  0  0  0  0  0  0  0  0
   -2.4212    4.6362   12.3150 C   0  0  0  0  0  0  0  0  0  0  0  0
   -2.7024    5.4228   13.4257 C   0  0  0  0  0  0  0  0  0  0  0  0
   -4.0026    5.8541   13.6606 C   0  0  0  0  0  0  0  0  0  0  0  0
   -5.0215    5.4987   12.7847 C   0  0  0  0  0  0  0  0  0  0  0  0
   -4.7403    4.7121   11.6740 C   0  0  0  0  0  0  0  0  0  0  0  0
   -3.4401    4.2808   11.4391 C   0  0  0  0  0  0  0  0  0  0  0  0
   -5.8399    4.3286   10.7287 C   0  0  0  0  0  0  0  0  0  0  0  0
   -5.6116    3.6277    9.7316 O   0  0  0  0  0  0  0  0  0  0  0  0
   -6.9848    4.7354   10.9767 O   0  0  0  0  0  0  0  0  0  0  0  0
   -0.5664   -0.8256   14.2115 C   0  0  0  0  0  0  0  0  0  0  0  0
   -1.9389   -1.0760   14.0580 C   0  0  0  0  0  0  0  0  0  0  0  0
   -2.6991   -0.3052   13.2021 O   0  0  0  0  0  0  0  0  0  0  0  0
   -2.0020    0.6746   12.5251 C   0  0  0  0  0  0  0  0  0  0  0  0
   -5.3448   -3.2555   13.5777 H   0  0  0  0  0  0  0  0  0  0  0  0
   -3.9681   -2.5543   12.6616 H   0  0  0  0  0  0  0  0  0  0  0  0
   -3.7486   -4.0790   13.5856 H   0  0  0  0  0  0  0  0  0  0  0  0
   -2.2073   -3.6587   16.2555 H   0  0  0  0  0  0  0  0  0  0  0  0
    0.2066   -3.2125   16.4877 H   0  0  0  0  0  0  0  0  0  0  0  0
    5.1014    1.0581   12.8891 H   0  0  0  0  0  0  0  0  0  0  0  0
    4.5958    2.3407   14.0407 H   0  0  0  0  0  0  0  0  0  0  0  0
    6.8331    0.8820   15.3359 H   0  0  0  0  0  0  0  0  0  0  0  0
    6.2400   -0.7347   17.3354 H   0  0  0  0  0  0  0  0  0  0  0  0
    4.5981    2.3490   11.2292 H   0  0  0  0  0  0  0  0  0  0  0  0
    3.8383    3.8096    9.3966 H   0  0  0  0  0  0  0  0  0  0  0  0
    1.4559    4.4276    9.2120 H   0  0  0  0  0  0  0  0  0  0  0  0
    0.6121    2.2342   12.7963 H   0  0  0  0  0  0  0  0  0  0  0  0
   -1.9106    5.6989   14.1063 H   0  0  0  0  0  0  0  0  0  0  0  0
   -4.2212    6.4654   14.5237 H   0  0  0  0  0  0  0  0  0  0  0  0
   -5.7736    4.9559   13.3760 H   0  0  0  0  0  0  0  0  0  0  0  0
   -5.4576    6.4357   12.4080 H   0  0  0  0  0  0  0  0  0  0  0  0
   -3.2215    3.6695   10.5760 H   0  0  0  0  0  0  0  0  0  0  0  0
   -7.5834    4.4255   10.3073 H   0  0  0  0  0  0  0  0  0  0  0  0
   -0.1075   -0.0318   13.6408 H   0  0  0  0  0  0  0  0  0  0  0  0
   -2.6909    1.2310   11.8726 H   0  0  0  0  0  0  0  0  0  0  0  0
   -1.5443    1.3652   13.2487 H   0  0  0  0  0  0  0  0  0  0  0  0
   -1.2146    0.2087   11.9144 H   0  0  0  0  0  0  0  0  0  0  0  0
  1  2  1  0  0  0  0
  2  3  1  0  0  0  0
  3  4  2  0  0  0  0
  3 36  1  0  0  0  0
  4  5  1  0  0  0  0
  5  6  2  0  0  0  0
  6  7  1  0  0  0  0
  6 35  1  0  0  0  0
  7  8  2  0  0  0  0
  8  9  1  0  0  0  0
  8 16  1  0  0  0  0
  9 10  2  0  0  0  0
 10 11  1  0  0  0  0
 10 17  1  0  0  0  0
 11 12  1  0  0  0  0
 12 13  1  0  0  0  0
 12 16  1  0  0  0  0
 13 14  2  0  0  0  0
 14 15  1  0  0  0  0
 15 16  2  0  0  0  0
 17 18  2  0  0  0  0
 17 22  1  0  0  0  0
 18 19  1  0  0  0  0
 19 20  2  0  0  0  0
 20 21  1  0  0  0  0
 21 22  2  0  0  0  0
 21 23  1  0  0  0  0
 23 24  2  0  0  0  0
 23 25  1  0  0  0  0
 25 26  2  0  0  0  0
 26 27  1  0  0  0  0
 26 31  1  0  0  0  0
 27 28  2  0  0  0  0
 28 29  1  0  0  0  0
 29 30  1  0  0  0  0
 30 31  2  0  0  0  0
 30 32  1  0  0  0  0
 32 33  2  0  0  0  0
 32 34  1  0  0  0  0
 35 36  2  0  0  0  0
 36 37  1  0  0  0  0
 37 38  1  0  0  0  0
  1 39  1  0  0  0  0
  1 40  1  0  0  0  0
  1 41  1  0  0  0  0
  4 42  1  0  0  0  0
  5 43  1  0  0  0  0
 11 44  1  0  0  0  0
 11 45  1  0  0  0  0
 13 46  1  0  0  0  0
 14 47  1  0  0  0  0
 18 48  1  0  0  0  0
 19 49  1  0  0  0  0
 20 50  1  0  0  0  0
 22 51  1  0  0  0  0
 27 52  1  0  0  0  0
 28 53  1  0  0  0  0
 29 54  1  0  0  0  0
 29 55  1  0  0  0  0
 31 56  1  0  0  0  0
 34 57  1  0  0  0  0
 35 58  1  0  0  0  0
 38 59  1  0  0  0  0
 38 60  1  0  0  0  0
 38 61  1  0  0  0  0
M  END
> <IC50[nM]>
8.9

$$$$
CHEMBL3264997
  -OEChem-05192314333D
 Structure written by MMmdl.
 61 65  0     0  0  0  0  0  0999 V2000
   -4.2555   -3.1029   13.5707 C   0  0  0  0  0  0  0  0  0  0  0  0
   -3.8740   -2.3535   14.7166 O   0  0  0  0  0  0  0  0  0  0  0  0
   -2.5261   -2.1057   14.8053 C   0  0  0  0  0  0  0  0  0  0  0  0
   -1.7497   -2.8673   15.6804 C   0  0  0  0  0  0  0  0  0  0  0  0
   -0.3863   -2.6106   15.8150 C   0  0  0  0  0  0  0  0  0  0  0  0
    0.2220   -1.5829   15.0890 C   0  0  0  0  0  0  0  0  0  0  0  0
    1.5930   -1.3491   15.3060 N   0  0  0  0  0  0  0  0  0  0  0  0
    2.5452   -0.4689   14.7536 C   0  0  0  0  0  0  0  0  0  0  0  0
    2.2178    0.3551   13.7190 N   0  0  0  0  0  0  0  0  0  0  0  0
    3.1227    1.2406   13.2181 C   0  0  0  0  0  0  0  0  0  0  0  0
    4.4207    1.3039   13.7175 C   0  0  0  0  0  0  0  0  0  0  0  0
    4.7482    0.4921   14.7654 N   0  0  0  0  0  0  0  0  0  0  0  0
    5.8898    0.3836   15.5035 C   0  0  0  0  0  0  0  0  0  0  0  0
    5.5715   -0.5089   16.5177 C   0  0  0  0  0  0  0  0  0  0  0  0
    4.3818   -1.0543   16.3920 N   0  0  0  0  0  0  0  0  0  0  0  0
    3.8330   -0.4170   15.3252 C   0  0  0  0  0  0  0  0  0  0  0  0
    2.6564    2.1560   12.1340 C   0  0  0  0  0  0  0  0  0  0  0  0
    3.5566    2.6280   11.1666 C   0  0  0  0  0  0  0  0  0  0  0  0
    3.1294    3.4499   10.1277 C   0  0  0  0  0  0  0  0  0  0  0  0
    1.7879    3.8078   10.0318 C   0  0  0  0  0  0  0  0  0  0  0  0
    0.8660    3.3707   10.9895 C   0  0  0  0  0  0  0  0  0  0  0  0
    1.3140    2.5576   12.0419 C   0  0  0  0  0  0  0  0  0  0  0  0
   -0.5783    3.7648   10.8956 C   0  0  0  0  0  0  0  0  0  0  0  0
   -1.2610    3.7179    9.8765 O   0  0  0  0  0  0  0  0  0  0  0  0
   -1.0553    4.1831   12.0683 N   0  0  0  0  0  0  0  0  0  0  0  0
   -2.4212    4.6362   12.3150 C   0  0  0  0  0  0  0  0  0  0  0  0
   -2.7024    5.4228   13.4257 C   0  0  0  0  0  0  0  0  0  0  0  0
   -4.0026    5.8541   13.6606 C   0  0  0  0  0  0  0  0  0  0  0  0
   -5.0215    5.4987   12.7847 C   0  0  0  0  0  0  0  0  0  0  0  0
   -4.7403    4.7121   11.6740 C   0  0  0  0  0  0  0  0  0  0  0  0
   -3.4401    4.2808   11.4391 C   0  0  0  0  0  0  0  0  0  0  0  0
   -5.8399    4.3286   10.7287 C   0  0  0  0  0  0  0  0  0  0  0  0
   -5.6116    3.6277    9.7316 O   0  0  0  0  0  0  0  0  0  0  0  0
   -6.9848    4.7354   10.9767 O   0  0  0  0  0  0  0  0  0  0  0  0
   -0.5664   -0.8256   14.2115 C   0  0  0  0  0  0  0  0  0  0  0  0
   -1.9389   -1.0760   14.0580 C   0  0  0  0  0  0  0  0  0  0  0  0
   -2.6991   -0.3052   13.2021 O   0  0  0  0  0  0  0  0  0  0  0  0
   -2.0020    0.6746   12.5251 C   0  0  0  0  0  0  0  0  0  0  0  0
   -5.3448   -3.2555   13.5777 H   0  0  0  0  0  0  0  0  0  0  0  0
   -3.9681   -2.5543   12.6616 H   0  0  0  0  0  0  0  0  0  0  0  0
   -3.7486   -4.0790   13.5856 H   0  0  0  0  0  0  0  0  0  0  0  0
   -2.2073   -3.6587   16.2555 H   0  0  0  0  0  0  0  0  0  0  0  0
    0.2066   -3.2125   16.4877 H   0  0  0  0  0  0  0  0  0  0  0  0
    5.1014    1.0581   12.8891 H   0  0  0  0  0  0  0  0  0  0  0  0
    4.5958    2.3407   14.0407 H   0  0  0  0  0  0  0  0  0  0  0  0
    6.8331    0.8820   15.3359 H   0  0  0  0  0  0  0  0  0  0  0  0
    6.2400   -0.7347   17.3354 H   0  0  0  0  0  0  0  0  0  0  0  0
    4.5981    2.3490   11.2292 H   0  0  0  0  0  0  0  0  0  0  0  0
    3.8383    3.8096    9.3966 H   0  0  0  0  0  0  0  0  0  0  0  0
    1.4559    4.4276    9.2120 H   0  0  0  0  0  0  0  0  0  0  0  0
    0.6121    2.2342   12.7963 H   0  0  0  0  0  0  0  0  0  0  0  0
   -1.9106    5.6989   14.1063 H   0  0  0  0  0  0  0  0  0  0  0  0
   -4.2212    6.4654   14.5237 H   0  0  0  0  0  0  0  0  0  0  0  0
   -6.0318    5.8338   12.9672 H   0  0  0  0  0  0  0  0  0  0  0  0
   -3.1536    4.6612   10.4475 H   0  0  0  0  0  0  0  0  0  0  0  0
   -3.4696    3.1814   11.4156 H   0  0  0  0  0  0  0  0  0  0  0  0
   -7.5834    4.4255   10.3073 H   0  0  0  0  0  0  0  0  0  0  0  0
   -0.1075   -0.0318   13.6408 H   0  0  0  0  0  0  0  0  0  0  0  0
   -2.6909    1.2310   11.8726 H   0  0  0  0  0  0  0  0  0  0  0  0
   -1.5443    1.3652   13.2487 H   0  0  0  0  0  0  0  0  0  0  0  0
   -1.2146    0.2087   11.9144 H   0  0  0  0  0  0  0  0  0  0  0  0
  1  2  1  0  0  0  0
  2  3  1  0  0  0  0
  3  4  2  0  0  0  0
  3 36  1  0  0  0  0
  4  5  1  0  0  0  0
  5  6  2  0  0  0  0
  6  7  1  0  0  0  0
  6 35  1  0  0  0  0
  7  8  2  0  0  0  0
  8  9  1  0  0  0  0
  8 16  1  0  0  0  0
  9 10  2  0  0  0  0
 10 11  1  0  0  0  0
 10 17  1  0  0  0  0
 11 12  1  0  0  0  0
 12 13  1  0  0  0  0
 12 16  1  0  0  0  0
 13 14  2  0  0  0  0
 14 15  1  0  0  0  0
 15 16  2  0  0  0  0
 17 18  2  0  0  0  0
 17 22  1  0  0  0  0
 18 19  1  0  0  0  0
 19 20  2  0  0  0  0
 20 21  1  0  0  0  0
 21 22  2  0  0  0  0
 21 23  1  0  0  0  0
 23 24  2  0  0  0  0
 23 25  1  0  0  0  0
 25 26  2  0  0  0  0
 26 27  1  0  0  0  0
 26 31  1  0  0  0  0
 27 28  2  0  0  0  0
 28 29  1  0  0  0  0
 29 30  2  0  0  0  0
 30 31  1  0  0  0  0
 30 32  1  0  0  0  0
 32 33  2  0  0  0  0
 32 34  1  0  0  0  0
 35 36  2  0  0  0  0
 36 37  1  0  0  0  0
 37 38  1  0  0  0  0
  1 39  1  0  0  0  0
  1 40  1  0  0  0  0
  1 41  1  0  0  0  0
  4 42  1  0  0  0  0
  5 43  1  0  0  0  0
 11 44  1  0  0  0  0
 11 45  1  0  0  0  0
 13 46  1  0  0  0  0
 14 47  1  0  0  0  0
 18 48  1  0  0  0  0
 19 49  1  0  0  0  0
 20 50  1  0  0  0  0
 22 51  1  0  0  0  0
 27 52  1  0  0  0  0
 28 53  1  0  0  0  0
 29 54  1  0  0  0  0
 31 55  1  0  0  0  0
 31 56  1  0  0  0  0
 34 57  1  0  0  0  0
 35 58  1  0  0  0  0
 38 59  1  0  0  0  0
 38 60  1  0  0  0  0
 38 61  1  0  0  0  0
M  END
> <IC50[nM]>
8.9

$$$$
CHEMBL3264997
  -OEChem-05192314333D
 Structure written by MMmdl.
 61 65  0     1  0  0  0  0  0999 V2000
   -4.2555   -3.1029   13.5707 C   0  0  0  0  0  0  0  0  0  0  0  0
   -3.8740   -2.3535   14.7166 O   0  0  0  0  0  0  0  0  0  0  0  0
   -2.5261   -2.1057   14.8053 C   0  0  3  0  0  0  0  0  0  0  0  0
   -1.7497   -2.8673   15.6804 C   0  0  0  0  0  0  0  0  0  0  0  0
   -0.3863   -2.6106   15.8150 C   0  0  0  0  0  0  0  0  0  0  0  0
    0.2220   -1.5829   15.0890 C   0  0  0  0  0  0  0  0  0  0  0  0
    1.5930   -1.3491   15.3060 N   0  0  0  0  0  0  0  0  0  0  0  0
    2.5452   -0.4689   14.7536 C   0  0  0  0  0  0  0  0  0  0  0  0
    2.2178    0.3551   13.7190 N   0  0  0  0  0  0  0  0  0  0  0  0
    3.1227    1.2406   13.2181 C   0  0  0  0  0  0  0  0  0  0  0  0
    4.4207    1.3039   13.7175 C   0  0  0  0  0  0  0  0  0  0  0  0
    4.7482    0.4921   14.7654 N   0  0  0  0  0  0  0  0  0  0  0  0
    5.8898    0.3836   15.5035 C   0  0  0  0  0  0  0  0  0  0  0  0
    5.5715   -0.5089   16.5177 C   0  0  0  0  0  0  0  0  0  0  0  0
    4.3818   -1.0543   16.3920 N   0  0  0  0  0  0  0  0  0  0  0  0
    3.8330   -0.4170   15.3252 C   0  0  0  0  0  0  0  0  0  0  0  0
    2.6564    2.1560   12.1340 C   0  0  0  0  0  0  0  0  0  0  0  0
    3.5566    2.6280   11.1666 C   0  0  0  0  0  0  0  0  0  0  0  0
    3.1294    3.4499   10.1277 C   0  0  0  0  0  0  0  0  0  0  0  0
    1.7879    3.8078   10.0318 C   0  0  0  0  0  0  0  0  0  0  0  0
    0.8660    3.3707   10.9895 C   0  0  0  0  0  0  0  0  0  0  0  0
    1.3140    2.5576   12.0419 C   0  0  0  0  0  0  0  0  0  0  0  0
   -0.5783    3.7648   10.8956 C   0  0  0  0  0  0  0  0  0  0  0  0
   -1.2610    3.7179    9.8765 O   0  0  0  0  0  0  0  0  0  0  0  0
   -1.0553    4.1831   12.0683 N   0  0  0  0  0  0  0  0  0  0  0  0
   -2.4212    4.6362   12.3150 C   0  0  0  0  0  0  0  0  0  0  0  0
   -2.7024    5.4228   13.4257 C   0  0  0  0  0  0  0  0  0  0  0  0
   -4.0026    5.8541   13.6606 C   0  0  0  0  0  0  0  0  0  0  0  0
   -5.0215    5.4987   12.7847 C   0  0  0  0  0  0  0  0  0  0  0  0
   -4.7403    4.7121   11.6740 C   0  0  0  0  0  0  0  0  0  0  0  0
   -3.4401    4.2808   11.4391 C   0  0  0  0  0  0  0  0  0  0  0  0
   -5.8399    4.3286   10.7287 C   0  0  0  0  0  0  0  0  0  0  0  0
   -5.6116    3.6277    9.7316 O   0  0  0  0  0  0  0  0  0  0  0  0
   -6.9848    4.7354   10.9767 O   0  0  0  0  0  0  0  0  0  0  0  0
   -0.5664   -0.8256   14.2115 C   0  0  0  0  0  0  0  0  0  0  0  0
   -1.9389   -1.0760   14.0580 C   0  0  0  0  0  0  0  0  0  0  0  0
   -2.6991   -0.3052   13.2021 O   0  0  0  0  0  0  0  0  0  0  0  0
   -2.0020    0.6746   12.5251 C   0  0  0  0  0  0  0  0  0  0  0  0
   -5.3448   -3.2555   13.5777 H   0  0  0  0  0  0  0  0  0  0  0  0
   -3.9681   -2.5543   12.6616 H   0  0  0  0  0  0  0  0  0  0  0  0
   -3.7486   -4.0790   13.5856 H   0  0  0  0  0  0  0  0  0  0  0  0
   -2.3305   -2.8209   13.9928 H   0  0  0  0  0  0  0  0  0  0  0  0
   -2.2073   -3.6587   16.2555 H   0  0  0  0  0  0  0  0  0  0  0  0
    0.2066   -3.2125   16.4877 H   0  0  0  0  0  0  0  0  0  0  0  0
    5.1484    1.9765   13.2880 H   0  0  0  0  0  0  0  0  0  0  0  0
    6.8331    0.8820   15.3359 H   0  0  0  0  0  0  0  0  0  0  0  0
    6.2400   -0.7347   17.3354 H   0  0  0  0  0  0  0  0  0  0  0  0
    4.5981    2.3490   11.2292 H   0  0  0  0  0  0  0  0  0  0  0  0
    3.8383    3.8096    9.3966 H   0  0  0  0  0  0  0  0  0  0  0  0
    1.4559    4.4276    9.2120 H   0  0  0  0  0  0  0  0  0  0  0  0
    0.6121    2.2342   12.7963 H   0  0  0  0  0  0  0  0  0  0  0  0
   -2.3948    4.8453   14.3099 H   0  0  0  0  0  0  0  0  0  0  0  0
   -2.0788    6.3251   13.3419 H   0  0  0  0  0  0  0  0  0  0  0  0
   -4.2212    6.4654   14.5237 H   0  0  0  0  0  0  0  0  0  0  0  0
   -6.0318    5.8338   12.9672 H   0  0  0  0  0  0  0  0  0  0  0  0
   -3.2215    3.6695   10.5760 H   0  0  0  0  0  0  0  0  0  0  0  0
   -7.5834    4.4255   10.3073 H   0  0  0  0  0  0  0  0  0  0  0  0
   -0.1075   -0.0318   13.6408 H   0  0  0  0  0  0  0  0  0  0  0  0
   -2.6909    1.2310   11.8726 H   0  0  0  0  0  0  0  0  0  0  0  0
   -1.5443    1.3652   13.2487 H   0  0  0  0  0  0  0  0  0  0  0  0
   -1.2146    0.2087   11.9144 H   0  0  0  0  0  0  0  0  0  0  0  0
  1  2  1  0  0  0  0
  2  3  1  0  0  0  0
  3  4  1  0  0  0  0
  3 36  1  0  0  0  0
  4  5  2  0  0  0  0
  5  6  1  0  0  0  0
  6  7  2  0  0  0  0
  6 35  1  0  0  0  0
  7  8  1  0  0  0  0
  8  9  2  0  0  0  0
  8 16  1  0  0  0  0
  9 10  1  0  0  0  0
 10 11  2  0  0  0  0
 10 17  1  0  0  0  0
 11 12  1  0  0  0  0
 12 13  1  0  0  0  0
 12 16  1  0  0  0  0
 13 14  2  0  0  0  0
 14 15  1  0  0  0  0
 15 16  2  0  0  0  0
 17 18  2  0  0  0  0
 17 22  1  0  0  0  0
 18 19  1  0  0  0  0
 19 20  2  0  0  0  0
 20 21  1  0  0  0  0
 21 22  2  0  0  0  0
 21 23  1  0  0  0  0
 23 24  2  0  0  0  0
 23 25  1  0  0  0  0
 25 26  2  0  0  0  0
 26 27  1  0  0  0  0
 26 31  1  0  0  0  0
 27 28  1  0  0  0  0
 28 29  2  0  0  0  0
 29 30  1  0  0  0  0
 30 31  2  0  0  0  0
 30 32  1  0  0  0  0
 32 33  2  0  0  0  0
 32 34  1  0  0  0  0
 35 36  2  0  0  0  0
 36 37  1  0  0  0  0
 37 38  1  0  0  0  0
  1 39  1  0  0  0  0
  1 40  1  0  0  0  0
  1 41  1  0  0  0  0
  3 42  1  0  0  0  0
  4 43  1  0  0  0  0
  5 44  1  0  0  0  0
 11 45  1  0  0  0  0
 13 46  1  0  0  0  0
 14 47  1  0  0  0  0
 18 48  1  0  0  0  0
 19 49  1  0  0  0  0
 20 50  1  0  0  0  0
 22 51  1  0  0  0  0
 27 52  1  0  0  0  0
 27 53  1  0  0  0  0
 28 54  1  0  0  0  0
 29 55  1  0  0  0  0
 31 56  1  0  0  0  0
 34 57  1  0  0  0  0
 35 58  1  0  0  0  0
 38 59  1  0  0  0  0
 38 60  1  0  0  0  0
 38 61  1  0  0  0  0
M  END
> <IC50[nM]>
8.9

$$$$
CHEMBL3264997
  -OEChem-05192314333D
 Structure written by MMmdl.
 61 65  0     0  0  0  0  0  0999 V2000
   -4.2555   -3.1029   13.5707 C   0  0  0  0  0  0  0  0  0  0  0  0
   -3.8740   -2.3535   14.7166 O   0  0  0  0  0  0  0  0  0  0  0  0
   -2.5261   -2.1057   14.8053 C   0  0  0  0  0  0  0  0  0  0  0  0
   -1.7497   -2.8673   15.6804 C   0  0  0  0  0  0  0  0  0  0  0  0
   -0.3863   -2.6106   15.8150 C   0  0  0  0  0  0  0  0  0  0  0  0
    0.2220   -1.5829   15.0890 C   0  0  0  0  0  0  0  0  0  0  0  0
    1.5930   -1.3491   15.3060 N   0  0  0  0  0  0  0  0  0  0  0  0
    2.5452   -0.4689   14.7536 C   0  0  0  0  0  0  0  0  0  0  0  0
    2.2178    0.3551   13.7190 N   0  0  0  0  0  0  0  0  0  0  0  0
    3.1227    1.2406   13.2181 C   0  0  0  0  0  0  0  0  0  0  0  0
    4.4207    1.3039   13.7175 C   0  0  0  0  0  0  0  0  0  0  0  0
    4.7482    0.4921   14.7654 N   0  0  0  0  0  0  0  0  0  0  0  0
    5.8898    0.3836   15.5035 C   0  0  0  0  0  0  0  0  0  0  0  0
    5.5715   -0.5089   16.5177 C   0  0  0  0  0  0  0  0  0  0  0  0
    4.3818   -1.0543   16.3920 N   0  0  0  0  0  0  0  0  0  0  0  0
    3.8330   -0.4170   15.3252 C   0  0  0  0  0  0  0  0  0  0  0  0
    2.6564    2.1560   12.1340 C   0  0  0  0  0  0  0  0  0  0  0  0
    3.5566    2.6280   11.1666 C   0  0  0  0  0  0  0  0  0  0  0  0
    3.1294    3.4499   10.1277 C   0  0  0  0  0  0  0  0  0  0  0  0
    1.7879    3.8078   10.0318 C   0  0  0  0  0  0  0  0  0  0  0  0
    0.8660    3.3707   10.9895 C   0  0  0  0  0  0  0  0  0  0  0  0
    1.3140    2.5576   12.0419 C   0  0  0  0  0  0  0  0  0  0  0  0
   -0.5783    3.7648   10.8956 C   0  0  0  0  0  0  0  0  0  0  0  0
   -1.2610    3.7179    9.8765 O   0  0  0  0  0  0  0  0  0  0  0  0
   -1.0553    4.1831   12.0683 N   0  0  0  0  0  0  0  0  0  0  0  0
   -2.4212    4.6362   12.3150 C   0  0  0  0  0  0  0  0  0  0  0  0
   -2.7024    5.4228   13.4257 C   0  0  0  0  0  0  0  0  0  0  0  0
   -4.0026    5.8541   13.6606 C   0  0  0  0  0  0  0  0  0  0  0  0
   -5.0215    5.4987   12.7847 C   0  0  0  0  0  0  0  0  0  0  0  0
   -4.7403    4.7121   11.6740 C   0  0  0  0  0  0  0  0  0  0  0  0
   -3.4401    4.2808   11.4391 C   0  0  0  0  0  0  0  0  0  0  0  0
   -5.8399    4.3286   10.7287 C   0  0  0  0  0  0  0  0  0  0  0  0
   -5.6116    3.6277    9.7316 O   0  0  0  0  0  0  0  0  0  0  0  0
   -6.9848    4.7354   10.9767 O   0  0  0  0  0  0  0  0  0  0  0  0
   -0.5664   -0.8256   14.2115 C   0  0  0  0  0  0  0  0  0  0  0  0
   -1.9389   -1.0760   14.0580 C   0  0  0  0  0  0  0  0  0  0  0  0
   -2.6991   -0.3052   13.2021 O   0  0  0  0  0  0  0  0  0  0  0  0
   -2.0020    0.6746   12.5251 C   0  0  0  0  0  0  0  0  0  0  0  0
   -5.3448   -3.2555   13.5777 H   0  0  0  0  0  0  0  0  0  0  0  0
   -3.9681   -2.5543   12.6616 H   0  0  0  0  0  0  0  0  0  0  0  0
   -3.7486   -4.0790   13.5856 H   0  0  0  0  0  0  0  0  0  0  0  0
   -2.2073   -3.6587   16.2555 H   0  0  0  0  0  0  0  0  0  0  0  0
   -0.2118   -2.3897   16.8784 H   0  0  0  0  0  0  0  0  0  0  0  0
    0.1365   -3.5394   15.5428 H   0  0  0  0  0  0  0  0  0  0  0  0
    5.1484    1.9765   13.2880 H   0  0  0  0  0  0  0  0  0  0  0  0
    6.8331    0.8820   15.3359 H   0  0  0  0  0  0  0  0  0  0  0  0
    6.2400   -0.7347   17.3354 H   0  0  0  0  0  0  0  0  0  0  0  0
    4.5981    2.3490   11.2292 H   0  0  0  0  0  0  0  0  0  0  0  0
    3.8383    3.8096    9.3966 H   0  0  0  0  0  0  0  0  0  0  0  0
    1.4559    4.4276    9.2120 H   0  0  0  0  0  0  0  0  0  0  0  0
    0.6121    2.2342   12.7963 H   0  0  0  0  0  0  0  0  0  0  0  0
   -2.3948    4.8453   14.3099 H   0  0  0  0  0  0  0  0  0  0  0  0
   -2.0788    6.3251   13.3419 H   0  0  0  0  0  0  0  0  0  0  0  0
   -4.2212    6.4654   14.5237 H   0  0  0  0  0  0  0  0  0  0  0  0
   -6.0318    5.8338   12.9672 H   0  0  0  0  0  0  0  0  0  0  0  0
   -3.2215    3.6695   10.5760 H   0  0  0  0  0  0  0  0  0  0  0  0
   -7.5834    4.4255   10.3073 H   0  0  0  0  0  0  0  0  0  0  0  0
   -0.1075   -0.0318   13.6408 H   0  0  0  0  0  0  0  0  0  0  0  0
   -2.6909    1.2310   11.8726 H   0  0  0  0  0  0  0  0  0  0  0  0
   -1.5443    1.3652   13.2487 H   0  0  0  0  0  0  0  0  0  0  0  0
   -1.2146    0.2087   11.9144 H   0  0  0  0  0  0  0  0  0  0  0  0
  1  2  1  0  0  0  0
  2  3  1  0  0  0  0
  3  4  2  0  0  0  0
  3 36  1  0  0  0  0
  4  5  1  0  0  0  0
  5  6  1  0  0  0  0
  6  7  2  0  0  0  0
  6 35  1  0  0  0  0
  7  8  1  0  0  0  0
  8  9  2  0  0  0  0
  8 16  1  0  0  0  0
  9 10  1  0  0  0  0
 10 11  2  0  0  0  0
 10 17  1  0  0  0  0
 11 12  1  0  0  0  0
 12 13  1  0  0  0  0
 12 16  1  0  0  0  0
 13 14  2  0  0  0  0
 14 15  1  0  0  0  0
 15 16  2  0  0  0  0
 17 18  2  0  0  0  0
 17 22  1  0  0  0  0
 18 19  1  0  0  0  0
 19 20  2  0  0  0  0
 20 21  1  0  0  0  0
 21 22  2  0  0  0  0
 21 23  1  0  0  0  0
 23 24  2  0  0  0  0
 23 25  1  0  0  0  0
 25 26  2  0  0  0  0
 26 27  1  0  0  0  0
 26 31  1  0  0  0  0
 27 28  1  0  0  0  0
 28 29  2  0  0  0  0
 29 30  1  0  0  0  0
 30 31  2  0  0  0  0
 30 32  1  0  0  0  0
 32 33  2  0  0  0  0
 32 34  1  0  0  0  0
 35 36  2  0  0  0  0
 36 37  1  0  0  0  0
 37 38  1  0  0  0  0
  1 39  1  0  0  0  0
  1 40  1  0  0  0  0
  1 41  1  0  0  0  0
  4 42  1  0  0  0  0
  5 43  1  0  0  0  0
  5 44  1  0  0  0  0
 11 45  1  0  0  0  0
 13 46  1  0  0  0  0
 14 47  1  0  0  0  0
 18 48  1  0  0  0  0
 19 49  1  0  0  0  0
 20 50  1  0  0  0  0
 22 51  1  0  0  0  0
 27 52  1  0  0  0  0
 27 53  1  0  0  0  0
 28 54  1  0  0  0  0
 29 55  1  0  0  0  0
 31 56  1  0  0  0  0
 34 57  1  0  0  0  0
 35 58  1  0  0  0  0
 38 59  1  0  0  0  0
 38 60  1  0  0  0  0
 38 61  1  0  0  0  0
M  END
> <IC50[nM]>
8.9

$$$$
CHEMBL3264997
  -OEChem-05192314333D
 Structure written by MMmdl.
 61 65  0     1  0  0  0  0  0999 V2000
   -4.2555   -3.1029   13.5707 C   0  0  0  0  0  0  0  0  0  0  0  0
   -3.8740   -2.3535   14.7166 O   0  0  0  0  0  0  0  0  0  0  0  0
   -2.5261   -2.1057   14.8053 C   0  0  3  0  0  0  0  0  0  0  0  0
   -1.7497   -2.8673   15.6804 C   0  0  0  0  0  0  0  0  0  0  0  0
   -0.3863   -2.6106   15.8150 C   0  0  0  0  0  0  0  0  0  0  0  0
    0.2220   -1.5829   15.0890 C   0  0  0  0  0  0  0  0  0  0  0  0
    1.5930   -1.3491   15.3060 N   0  0  0  0  0  0  0  0  0  0  0  0
    2.5452   -0.4689   14.7536 C   0  0  0  0  0  0  0  0  0  0  0  0
    2.2178    0.3551   13.7190 N   0  0  0  0  0  0  0  0  0  0  0  0
    3.1227    1.2406   13.2181 C   0  0  0  0  0  0  0  0  0  0  0  0
    4.4207    1.3039   13.7175 C   0  0  0  0  0  0  0  0  0  0  0  0
    4.7482    0.4921   14.7654 N   0  0  0  0  0  0  0  0  0  0  0  0
    5.8898    0.3836   15.5035 C   0  0  0  0  0  0  0  0  0  0  0  0
    5.5715   -0.5089   16.5177 C   0  0  0  0  0  0  0  0  0  0  0  0
    4.3818   -1.0543   16.3920 N   0  0  0  0  0  0  0  0  0  0  0  0
    3.8330   -0.4170   15.3252 C   0  0  0  0  0  0  0  0  0  0  0  0
    2.6564    2.1560   12.1340 C   0  0  0  0  0  0  0  0  0  0  0  0
    3.5566    2.6280   11.1666 C   0  0  0  0  0  0  0  0  0  0  0  0
    3.1294    3.4499   10.1277 C   0  0  0  0  0  0  0  0  0  0  0  0
    1.7879    3.8078   10.0318 C   0  0  0  0  0  0  0  0  0  0  0  0
    0.8660    3.3707   10.9895 C   0  0  0  0  0  0  0  0  0  0  0  0
    1.3140    2.5576   12.0419 C   0  0  0  0  0  0  0  0  0  0  0  0
   -0.5783    3.7648   10.8956 C   0  0  0  0  0  0  0  0  0  0  0  0
   -1.2610    3.7179    9.8765 O   0  0  0  0  0  0  0  0  0  0  0  0
   -1.0553    4.1831   12.0683 N   0  0  0  0  0  0  0  0  0  0  0  0
   -2.4212    4.6362   12.3150 C   0  0  0  0  0  0  0  0  0  0  0  0
   -2.7024    5.4228   13.4257 C   0  0  0  0  0  0  0  0  0  0  0  0
   -4.0026    5.8541   13.6606 C   0  0  0  0  0  0  0  0  0  0  0  0
   -5.0215    5.4987   12.7847 C   0  0  0  0  0  0  0  0  0  0  0  0
   -4.7403    4.7121   11.6740 C   0  0  0  0  0  0  0  0  0  0  0  0
   -3.4401    4.2808   11.4391 C   0  0  0  0  0  0  0  0  0  0  0  0
   -5.8399    4.3286   10.7287 C   0  0  0  0  0  0  0  0  0  0  0  0
   -5.6116    3.6277    9.7316 O   0  0  0  0  0  0  0  0  0  0  0  0
   -6.9848    4.7354   10.9767 O   0  0  0  0  0  0  0  0  0  0  0  0
   -0.5664   -0.8256   14.2115 C   0  0  0  0  0  0  0  0  0  0  0  0
   -1.9389   -1.0760   14.0580 C   0  0  0  0  0  0  0  0  0  0  0  0
   -2.6991   -0.3052   13.2021 O   0  0  0  0  0  0  0  0  0  0  0  0
   -2.0020    0.6746   12.5251 C   0  0  0  0  0  0  0  0  0  0  0  0
   -5.3448   -3.2555   13.5777 H   0  0  0  0  0  0  0  0  0  0  0  0
   -3.9681   -2.5543   12.6616 H   0  0  0  0  0  0  0  0  0  0  0  0
   -3.7486   -4.0790   13.5856 H   0  0  0  0  0  0  0  0  0  0  0  0
   -2.3305   -2.8209   13.9928 H   0  0  0  0  0  0  0  0  0  0  0  0
   -2.2073   -3.6587   16.2555 H   0  0  0  0  0  0  0  0  0  0  0  0
    0.2066   -3.2125   16.4877 H   0  0  0  0  0  0  0  0  0  0  0  0
    5.1484    1.9765   13.2880 H   0  0  0  0  0  0  0  0  0  0  0  0
    6.8331    0.8820   15.3359 H   0  0  0  0  0  0  0  0  0  0  0  0
    6.2400   -0.7347   17.3354 H   0  0  0  0  0  0  0  0  0  0  0  0
    4.5981    2.3490   11.2292 H   0  0  0  0  0  0  0  0  0  0  0  0
    3.8383    3.8096    9.3966 H   0  0  0  0  0  0  0  0  0  0  0  0
    1.4559    4.4276    9.2120 H   0  0  0  0  0  0  0  0  0  0  0  0
    0.6121    2.2342   12.7963 H   0  0  0  0  0  0  0  0  0  0  0  0
   -1.9106    5.6989   14.1063 H   0  0  0  0  0  0  0  0  0  0  0  0
   -4.2212    6.4654   14.5237 H   0  0  0  0  0  0  0  0  0  0  0  0
   -5.7736    4.9559   13.3760 H   0  0  0  0  0  0  0  0  0  0  0  0
   -5.4576    6.4357   12.4080 H   0  0  0  0  0  0  0  0  0  0  0  0
   -3.2215    3.6695   10.5760 H   0  0  0  0  0  0  0  0  0  0  0  0
   -7.5834    4.4255   10.3073 H   0  0  0  0  0  0  0  0  0  0  0  0
   -0.1075   -0.0318   13.6408 H   0  0  0  0  0  0  0  0  0  0  0  0
   -2.6909    1.2310   11.8726 H   0  0  0  0  0  0  0  0  0  0  0  0
   -1.5443    1.3652   13.2487 H   0  0  0  0  0  0  0  0  0  0  0  0
   -1.2146    0.2087   11.9144 H   0  0  0  0  0  0  0  0  0  0  0  0
  1  2  1  0  0  0  0
  2  3  1  0  0  0  0
  3  4  1  0  0  0  0
  3 36  1  0  0  0  0
  4  5  2  0  0  0  0
  5  6  1  0  0  0  0
  6  7  2  0  0  0  0
  6 35  1  0  0  0  0
  7  8  1  0  0  0  0
  8  9  2  0  0  0  0
  8 16  1  0  0  0  0
  9 10  1  0  0  0  0
 10 11  2  0  0  0  0
 10 17  1  0  0  0  0
 11 12  1  0  0  0  0
 12 13  1  0  0  0  0
 12 16  1  0  0  0  0
 13 14  2  0  0  0  0
 14 15  1  0  0  0  0
 15 16  2  0  0  0  0
 17 18  2  0  0  0  0
 17 22  1  0  0  0  0
 18 19  1  0  0  0  0
 19 20  2  0  0  0  0
 20 21  1  0  0  0  0
 21 22  2  0  0  0  0
 21 23  1  0  0  0  0
 23 24  2  0  0  0  0
 23 25  1  0  0  0  0
 25 26  2  0  0  0  0
 26 27  1  0  0  0  0
 26 31  1  0  0  0  0
 27 28  2  0  0  0  0
 28 29  1  0  0  0  0
 29 30  1  0  0  0  0
 30 31  2  0  0  0  0
 30 32  1  0  0  0  0
 32 33  2  0  0  0  0
 32 34  1  0  0  0  0
 35 36  2  0  0  0  0
 36 37  1  0  0  0  0
 37 38  1  0  0  0  0
  1 39  1  0  0  0  0
  1 40  1  0  0  0  0
  1 41  1  0  0  0  0
  3 42  1  0  0  0  0
  4 43  1  0  0  0  0
  5 44  1  0  0  0  0
 11 45  1  0  0  0  0
 13 46  1  0  0  0  0
 14 47  1  0  0  0  0
 18 48  1  0  0  0  0
 19 49  1  0  0  0  0
 20 50  1  0  0  0  0
 22 51  1  0  0  0  0
 27 52  1  0  0  0  0
 28 53  1  0  0  0  0
 29 54  1  0  0  0  0
 29 55  1  0  0  0  0
 31 56  1  0  0  0  0
 34 57  1  0  0  0  0
 35 58  1  0  0  0  0
 38 59  1  0  0  0  0
 38 60  1  0  0  0  0
 38 61  1  0  0  0  0
M  END
> <IC50[nM]>
8.9

$$$$
CHEMBL3264997
  -OEChem-05192314333D
 Structure written by MMmdl.
 61 65  0     0  0  0  0  0  0999 V2000
   -4.2555   -3.1029   13.5707 C   0  0  0  0  0  0  0  0  0  0  0  0
   -3.8740   -2.3535   14.7166 O   0  0  0  0  0  0  0  0  0  0  0  0
   -2.5261   -2.1057   14.8053 C   0  0  0  0  0  0  0  0  0  0  0  0
   -1.7497   -2.8673   15.6804 C   0  0  0  0  0  0  0  0  0  0  0  0
   -0.3863   -2.6106   15.8150 C   0  0  0  0  0  0  0  0  0  0  0  0
    0.2220   -1.5829   15.0890 C   0  0  0  0  0  0  0  0  0  0  0  0
    1.5930   -1.3491   15.3060 N   0  0  0  0  0  0  0  0  0  0  0  0
    2.5452   -0.4689   14.7536 C   0  0  0  0  0  0  0  0  0  0  0  0
    2.2178    0.3551   13.7190 N   0  0  0  0  0  0  0  0  0  0  0  0
    3.1227    1.2406   13.2181 C   0  0  0  0  0  0  0  0  0  0  0  0
    4.4207    1.3039   13.7175 C   0  0  0  0  0  0  0  0  0  0  0  0
    4.7482    0.4921   14.7654 N   0  0  0  0  0  0  0  0  0  0  0  0
    5.8898    0.3836   15.5035 C   0  0  0  0  0  0  0  0  0  0  0  0
    5.5715   -0.5089   16.5177 C   0  0  0  0  0  0  0  0  0  0  0  0
    4.3818   -1.0543   16.3920 N   0  0  0  0  0  0  0  0  0  0  0  0
    3.8330   -0.4170   15.3252 C   0  0  0  0  0  0  0  0  0  0  0  0
    2.6564    2.1560   12.1340 C   0  0  0  0  0  0  0  0  0  0  0  0
    3.5566    2.6280   11.1666 C   0  0  0  0  0  0  0  0  0  0  0  0
    3.1294    3.4499   10.1277 C   0  0  0  0  0  0  0  0  0  0  0  0
    1.7879    3.8078   10.0318 C   0  0  0  0  0  0  0  0  0  0  0  0
    0.8660    3.3707   10.9895 C   0  0  0  0  0  0  0  0  0  0  0  0
    1.3140    2.5576   12.0419 C   0  0  0  0  0  0  0  0  0  0  0  0
   -0.5783    3.7648   10.8956 C   0  0  0  0  0  0  0  0  0  0  0  0
   -1.2610    3.7179    9.8765 O   0  0  0  0  0  0  0  0  0  0  0  0
   -1.0553    4.1831   12.0683 N   0  0  0  0  0  0  0  0  0  0  0  0
   -2.4212    4.6362   12.3150 C   0  0  0  0  0  0  0  0  0  0  0  0
   -2.7024    5.4228   13.4257 C   0  0  0  0  0  0  0  0  0  0  0  0
   -4.0026    5.8541   13.6606 C   0  0  0  0  0  0  0  0  0  0  0  0
   -5.0215    5.4987   12.7847 C   0  0  0  0  0  0  0  0  0  0  0  0
   -4.7403    4.7121   11.6740 C   0  0  0  0  0  0  0  0  0  0  0  0
   -3.4401    4.2808   11.4391 C   0  0  0  0  0  0  0  0  0  0  0  0
   -5.8399    4.3286   10.7287 C   0  0  0  0  0  0  0  0  0  0  0  0
   -5.6116    3.6277    9.7316 O   0  0  0  0  0  0  0  0  0  0  0  0
   -6.9848    4.7354   10.9767 O   0  0  0  0  0  0  0  0  0  0  0  0
   -0.5664   -0.8256   14.2115 C   0  0  0  0  0  0  0  0  0  0  0  0
   -1.9389   -1.0760   14.0580 C   0  0  0  0  0  0  0  0  0  0  0  0
   -2.6991   -0.3052   13.2021 O   0  0  0  0  0  0  0  0  0  0  0  0
   -2.0020    0.6746   12.5251 C   0  0  0  0  0  0  0  0  0  0  0  0
   -5.3448   -3.2555   13.5777 H   0  0  0  0  0  0  0  0  0  0  0  0
   -3.9681   -2.5543   12.6616 H   0  0  0  0  0  0  0  0  0  0  0  0
   -3.7486   -4.0790   13.5856 H   0  0  0  0  0  0  0  0  0  0  0  0
   -2.2073   -3.6587   16.2555 H   0  0  0  0  0  0  0  0  0  0  0  0
   -0.2118   -2.3897   16.8784 H   0  0  0  0  0  0  0  0  0  0  0  0
    0.1365   -3.5394   15.5428 H   0  0  0  0  0  0  0  0  0  0  0  0
    5.1484    1.9765   13.2880 H   0  0  0  0  0  0  0  0  0  0  0  0
    6.8331    0.8820   15.3359 H   0  0  0  0  0  0  0  0  0  0  0  0
    6.2400   -0.7347   17.3354 H   0  0  0  0  0  0  0  0  0  0  0  0
    4.5981    2.3490   11.2292 H   0  0  0  0  0  0  0  0  0  0  0  0
    3.8383    3.8096    9.3966 H   0  0  0  0  0  0  0  0  0  0  0  0
    1.4559    4.4276    9.2120 H   0  0  0  0  0  0  0  0  0  0  0  0
    0.6121    2.2342   12.7963 H   0  0  0  0  0  0  0  0  0  0  0  0
   -1.9106    5.6989   14.1063 H   0  0  0  0  0  0  0  0  0  0  0  0
   -4.2212    6.4654   14.5237 H   0  0  0  0  0  0  0  0  0  0  0  0
   -5.7736    4.9559   13.3760 H   0  0  0  0  0  0  0  0  0  0  0  0
   -5.4576    6.4357   12.4080 H   0  0  0  0  0  0  0  0  0  0  0  0
   -3.2215    3.6695   10.5760 H   0  0  0  0  0  0  0  0  0  0  0  0
   -7.5834    4.4255   10.3073 H   0  0  0  0  0  0  0  0  0  0  0  0
   -0.1075   -0.0318   13.6408 H   0  0  0  0  0  0  0  0  0  0  0  0
   -2.6909    1.2310   11.8726 H   0  0  0  0  0  0  0  0  0  0  0  0
   -1.5443    1.3652   13.2487 H   0  0  0  0  0  0  0  0  0  0  0  0
   -1.2146    0.2087   11.9144 H   0  0  0  0  0  0  0  0  0  0  0  0
  1  2  1  0  0  0  0
  2  3  1  0  0  0  0
  3  4  2  0  0  0  0
  3 36  1  0  0  0  0
  4  5  1  0  0  0  0
  5  6  1  0  0  0  0
  6  7  2  0  0  0  0
  6 35  1  0  0  0  0
  7  8  1  0  0  0  0
  8  9  2  0  0  0  0
  8 16  1  0  0  0  0
  9 10  1  0  0  0  0
 10 11  2  0  0  0  0
 10 17  1  0  0  0  0
 11 12  1  0  0  0  0
 12 13  1  0  0  0  0
 12 16  1  0  0  0  0
 13 14  2  0  0  0  0
 14 15  1  0  0  0  0
 15 16  2  0  0  0  0
 17 18  2  0  0  0  0
 17 22  1  0  0  0  0
 18 19  1  0  0  0  0
 19 20  2  0  0  0  0
 20 21  1  0  0  0  0
 21 22  2  0  0  0  0
 21 23  1  0  0  0  0
 23 24  2  0  0  0  0
 23 25  1  0  0  0  0
 25 26  2  0  0  0  0
 26 27  1  0  0  0  0
 26 31  1  0  0  0  0
 27 28  2  0  0  0  0
 28 29  1  0  0  0  0
 29 30  1  0  0  0  0
 30 31  2  0  0  0  0
 30 32  1  0  0  0  0
 32 33  2  0  0  0  0
 32 34  1  0  0  0  0
 35 36  2  0  0  0  0
 36 37  1  0  0  0  0
 37 38  1  0  0  0  0
  1 39  1  0  0  0  0
  1 40  1  0  0  0  0
  1 41  1  0  0  0  0
  4 42  1  0  0  0  0
  5 43  1  0  0  0  0
  5 44  1  0  0  0  0
 11 45  1  0  0  0  0
 13 46  1  0  0  0  0
 14 47  1  0  0  0  0
 18 48  1  0  0  0  0
 19 49  1  0  0  0  0
 20 50  1  0  0  0  0
 22 51  1  0  0  0  0
 27 52  1  0  0  0  0
 28 53  1  0  0  0  0
 29 54  1  0  0  0  0
 29 55  1  0  0  0  0
 31 56  1  0  0  0  0
 34 57  1  0  0  0  0
 35 58  1  0  0  0  0
 38 59  1  0  0  0  0
 38 60  1  0  0  0  0
 38 61  1  0  0  0  0
M  END
> <IC50[nM]>
8.9

$$$$
CHEMBL3264997
  -OEChem-05192314333D
 Structure written by MMmdl.
 61 65  0     0  0  0  0  0  0999 V2000
   -4.2555   -3.1029   13.5707 C   0  0  0  0  0  0  0  0  0  0  0  0
   -3.8740   -2.3535   14.7166 O   0  0  0  0  0  0  0  0  0  0  0  0
   -2.5261   -2.1057   14.8053 C   0  0  0  0  0  0  0  0  0  0  0  0
   -1.7497   -2.8673   15.6804 C   0  0  0  0  0  0  0  0  0  0  0  0
   -0.3863   -2.6106   15.8150 C   0  0  0  0  0  0  0  0  0  0  0  0
    0.2220   -1.5829   15.0890 C   0  0  0  0  0  0  0  0  0  0  0  0
    1.5930   -1.3491   15.3060 N   0  0  0  0  0  0  0  0  0  0  0  0
    2.5452   -0.4689   14.7536 C   0  0  0  0  0  0  0  0  0  0  0  0
    2.2178    0.3551   13.7190 N   0  0  0  0  0  0  0  0  0  0  0  0
    3.1227    1.2406   13.2181 C   0  0  0  0  0  0  0  0  0  0  0  0
    4.4207    1.3039   13.7175 C   0  0  0  0  0  0  0  0  0  0  0  0
    4.7482    0.4921   14.7654 N   0  0  0  0  0  0  0  0  0  0  0  0
    5.8898    0.3836   15.5035 C   0  0  0  0  0  0  0  0  0  0  0  0
    5.5715   -0.5089   16.5177 C   0  0  0  0  0  0  0  0  0  0  0  0
    4.3818   -1.0543   16.3920 N   0  0  0  0  0  0  0  0  0  0  0  0
    3.8330   -0.4170   15.3252 C   0  0  0  0  0  0  0  0  0  0  0  0
    2.6564    2.1560   12.1340 C   0  0  0  0  0  0  0  0  0  0  0  0
    3.5566    2.6280   11.1666 C   0  0  0  0  0  0  0  0  0  0  0  0
    3.1294    3.4499   10.1277 C   0  0  0  0  0  0  0  0  0  0  0  0
    1.7879    3.8078   10.0318 C   0  0  0  0  0  0  0  0  0  0  0  0
    0.8660    3.3707   10.9895 C   0  0  0  0  0  0  0  0  0  0  0  0
    1.3140    2.5576   12.0419 C   0  0  0  0  0  0  0  0  0  0  0  0
   -0.5783    3.7648   10.8956 C   0  0  0  0  0  0  0  0  0  0  0  0
   -1.2610    3.7179    9.8765 O   0  0  0  0  0  0  0  0  0  0  0  0
   -1.0553    4.1831   12.0683 N   0  0  0  0  0  0  0  0  0  0  0  0
   -2.4212    4.6362   12.3150 C   0  0  0  0  0  0  0  0  0  0  0  0
   -2.7024    5.4228   13.4257 C   0  0  0  0  0  0  0  0  0  0  0  0
   -4.0026    5.8541   13.6606 C   0  0  0  0  0  0  0  0  0  0  0  0
   -5.0215    5.4987   12.7847 C   0  0  0  0  0  0  0  0  0  0  0  0
   -4.7403    4.7121   11.6740 C   0  0  0  0  0  0  0  0  0  0  0  0
   -3.4401    4.2808   11.4391 C   0  0  0  0  0  0  0  0  0  0  0  0
   -5.8399    4.3286   10.7287 C   0  0  0  0  0  0  0  0  0  0  0  0
   -5.6116    3.6277    9.7316 O   0  0  0  0  0  0  0  0  0  0  0  0
   -6.9848    4.7354   10.9767 O   0  0  0  0  0  0  0  0  0  0  0  0
   -0.5664   -0.8256   14.2115 C   0  0  0  0  0  0  0  0  0  0  0  0
   -1.9389   -1.0760   14.0580 C   0  0  0  0  0  0  0  0  0  0  0  0
   -2.6991   -0.3052   13.2021 O   0  0  0  0  0  0  0  0  0  0  0  0
   -2.0020    0.6746   12.5251 C   0  0  0  0  0  0  0  0  0  0  0  0
   -5.3448   -3.2555   13.5777 H   0  0  0  0  0  0  0  0  0  0  0  0
   -3.9681   -2.5543   12.6616 H   0  0  0  0  0  0  0  0  0  0  0  0
   -3.7486   -4.0790   13.5856 H   0  0  0  0  0  0  0  0  0  0  0  0
   -2.2073   -3.6587   16.2555 H   0  0  0  0  0  0  0  0  0  0  0  0
    0.2066   -3.2125   16.4877 H   0  0  0  0  0  0  0  0  0  0  0  0
    5.1484    1.9765   13.2880 H   0  0  0  0  0  0  0  0  0  0  0  0
    6.8331    0.8820   15.3359 H   0  0  0  0  0  0  0  0  0  0  0  0
    6.2400   -0.7347   17.3354 H   0  0  0  0  0  0  0  0  0  0  0  0
    4.5981    2.3490   11.2292 H   0  0  0  0  0  0  0  0  0  0  0  0
    3.8383    3.8096    9.3966 H   0  0  0  0  0  0  0  0  0  0  0  0
    1.4559    4.4276    9.2120 H   0  0  0  0  0  0  0  0  0  0  0  0
    0.6121    2.2342   12.7963 H   0  0  0  0  0  0  0  0  0  0  0  0
   -2.3948    4.8453   14.3099 H   0  0  0  0  0  0  0  0  0  0  0  0
   -2.0788    6.3251   13.3419 H   0  0  0  0  0  0  0  0  0  0  0  0
   -4.2212    6.4654   14.5237 H   0  0  0  0  0  0  0  0  0  0  0  0
   -6.0318    5.8338   12.9672 H   0  0  0  0  0  0  0  0  0  0  0  0
   -3.2215    3.6695   10.5760 H   0  0  0  0  0  0  0  0  0  0  0  0
   -7.5834    4.4255   10.3073 H   0  0  0  0  0  0  0  0  0  0  0  0
   -0.4764    0.2210   14.5379 H   0  0  0  0  0  0  0  0  0  0  0  0
   -0.1167   -0.9386   13.2140 H   0  0  0  0  0  0  0  0  0  0  0  0
   -2.6909    1.2310   11.8726 H   0  0  0  0  0  0  0  0  0  0  0  0
   -1.5443    1.3652   13.2487 H   0  0  0  0  0  0  0  0  0  0  0  0
   -1.2146    0.2087   11.9144 H   0  0  0  0  0  0  0  0  0  0  0  0
  1  2  1  0  0  0  0
  2  3  1  0  0  0  0
  3  4  1  0  0  0  0
  3 36  2  0  0  0  0
  4  5  2  0  0  0  0
  5  6  1  0  0  0  0
  6  7  2  0  0  0  0
  6 35  1  0  0  0  0
  7  8  1  0  0  0  0
  8  9  2  0  0  0  0
  8 16  1  0  0  0  0
  9 10  1  0  0  0  0
 10 11  2  0  0  0  0
 10 17  1  0  0  0  0
 11 12  1  0  0  0  0
 12 13  1  0  0  0  0
 12 16  1  0  0  0  0
 13 14  2  0  0  0  0
 14 15  1  0  0  0  0
 15 16  2  0  0  0  0
 17 18  2  0  0  0  0
 17 22  1  0  0  0  0
 18 19  1  0  0  0  0
 19 20  2  0  0  0  0
 20 21  1  0  0  0  0
 21 22  2  0  0  0  0
 21 23  1  0  0  0  0
 23 24  2  0  0  0  0
 23 25  1  0  0  0  0
 25 26  2  0  0  0  0
 26 27  1  0  0  0  0
 26 31  1  0  0  0  0
 27 28  1  0  0  0  0
 28 29  2  0  0  0  0
 29 30  1  0  0  0  0
 30 31  2  0  0  0  0
 30 32  1  0  0  0  0
 32 33  2  0  0  0  0
 32 34  1  0  0  0  0
 35 36  1  0  0  0  0
 36 37  1  0  0  0  0
 37 38  1  0  0  0  0
  1 39  1  0  0  0  0
  1 40  1  0  0  0  0
  1 41  1  0  0  0  0
  4 42  1  0  0  0  0
  5 43  1  0  0  0  0
 11 44  1  0  0  0  0
 13 45  1  0  0  0  0
 14 46  1  0  0  0  0
 18 47  1  0  0  0  0
 19 48  1  0  0  0  0
 20 49  1  0  0  0  0
 22 50  1  0  0  0  0
 27 51  1  0  0  0  0
 27 52  1  0  0  0  0
 28 53  1  0  0  0  0
 29 54  1  0  0  0  0
 31 55  1  0  0  0  0
 34 56  1  0  0  0  0
 35 57  1  0  0  0  0
 35 58  1  0  0  0  0
 38 59  1  0  0  0  0
 38 60  1  0  0  0  0
 38 61  1  0  0  0  0
M  END
> <IC50[nM]>
8.9

$$$$
CHEMBL3264997
  -OEChem-05192314333D
 Structure written by MMmdl.
 61 65  0     0  0  0  0  0  0999 V2000
   -4.2555   -3.1029   13.5707 C   0  0  0  0  0  0  0  0  0  0  0  0
   -3.8740   -2.3535   14.7166 O   0  0  0  0  0  0  0  0  0  0  0  0
   -2.5261   -2.1057   14.8053 C   0  0  0  0  0  0  0  0  0  0  0  0
   -1.7497   -2.8673   15.6804 C   0  0  0  0  0  0  0  0  0  0  0  0
   -0.3863   -2.6106   15.8150 C   0  0  0  0  0  0  0  0  0  0  0  0
    0.2220   -1.5829   15.0890 C   0  0  0  0  0  0  0  0  0  0  0  0
    1.5930   -1.3491   15.3060 N   0  0  0  0  0  0  0  0  0  0  0  0
    2.5452   -0.4689   14.7536 C   0  0  0  0  0  0  0  0  0  0  0  0
    2.2178    0.3551   13.7190 N   0  0  0  0  0  0  0  0  0  0  0  0
    3.1227    1.2406   13.2181 C   0  0  0  0  0  0  0  0  0  0  0  0
    4.4207    1.3039   13.7175 C   0  0  0  0  0  0  0  0  0  0  0  0
    4.7482    0.4921   14.7654 N   0  0  0  0  0  0  0  0  0  0  0  0
    5.8898    0.3836   15.5035 C   0  0  0  0  0  0  0  0  0  0  0  0
    5.5715   -0.5089   16.5177 C   0  0  0  0  0  0  0  0  0  0  0  0
    4.3818   -1.0543   16.3920 N   0  0  0  0  0  0  0  0  0  0  0  0
    3.8330   -0.4170   15.3252 C   0  0  0  0  0  0  0  0  0  0  0  0
    2.6564    2.1560   12.1340 C   0  0  0  0  0  0  0  0  0  0  0  0
    3.5566    2.6280   11.1666 C   0  0  0  0  0  0  0  0  0  0  0  0
    3.1294    3.4499   10.1277 C   0  0  0  0  0  0  0  0  0  0  0  0
    1.7879    3.8078   10.0318 C   0  0  0  0  0  0  0  0  0  0  0  0
    0.8660    3.3707   10.9895 C   0  0  0  0  0  0  0  0  0  0  0  0
    1.3140    2.5576   12.0419 C   0  0  0  0  0  0  0  0  0  0  0  0
   -0.5783    3.7648   10.8956 C   0  0  0  0  0  0  0  0  0  0  0  0
   -1.2610    3.7179    9.8765 O   0  0  0  0  0  0  0  0  0  0  0  0
   -1.0553    4.1831   12.0683 N   0  0  0  0  0  0  0  0  0  0  0  0
   -2.4212    4.6362   12.3150 C   0  0  0  0  0  0  0  0  0  0  0  0
   -2.7024    5.4228   13.4257 C   0  0  0  0  0  0  0  0  0  0  0  0
   -4.0026    5.8541   13.6606 C   0  0  0  0  0  0  0  0  0  0  0  0
   -5.0215    5.4987   12.7847 C   0  0  0  0  0  0  0  0  0  0  0  0
   -4.7403    4.7121   11.6740 C   0  0  0  0  0  0  0  0  0  0  0  0
   -3.4401    4.2808   11.4391 C   0  0  0  0  0  0  0  0  0  0  0  0
   -5.8399    4.3286   10.7287 C   0  0  0  0  0  0  0  0  0  0  0  0
   -5.6116    3.6277    9.7316 O   0  0  0  0  0  0  0  0  0  0  0  0
   -6.9848    4.7354   10.9767 O   0  0  0  0  0  0  0  0  0  0  0  0
   -0.5664   -0.8256   14.2115 C   0  0  0  0  0  0  0  0  0  0  0  0
   -1.9389   -1.0760   14.0580 C   0  0  0  0  0  0  0  0  0  0  0  0
   -2.6991   -0.3052   13.2021 O   0  0  0  0  0  0  0  0  0  0  0  0
   -2.0020    0.6746   12.5251 C   0  0  0  0  0  0  0  0  0  0  0  0
   -5.3448   -3.2555   13.5777 H   0  0  0  0  0  0  0  0  0  0  0  0
   -3.9681   -2.5543   12.6616 H   0  0  0  0  0  0  0  0  0  0  0  0
   -3.7486   -4.0790   13.5856 H   0  0  0  0  0  0  0  0  0  0  0  0
   -2.2073   -3.6587   16.2555 H   0  0  0  0  0  0  0  0  0  0  0  0
    0.2066   -3.2125   16.4877 H   0  0  0  0  0  0  0  0  0  0  0  0
    5.1484    1.9765   13.2880 H   0  0  0  0  0  0  0  0  0  0  0  0
    6.8331    0.8820   15.3359 H   0  0  0  0  0  0  0  0  0  0  0  0
    6.2400   -0.7347   17.3354 H   0  0  0  0  0  0  0  0  0  0  0  0
    4.5981    2.3490   11.2292 H   0  0  0  0  0  0  0  0  0  0  0  0
    3.8383    3.8096    9.3966 H   0  0  0  0  0  0  0  0  0  0  0  0
    1.4559    4.4276    9.2120 H   0  0  0  0  0  0  0  0  0  0  0  0
    0.6121    2.2342   12.7963 H   0  0  0  0  0  0  0  0  0  0  0  0
   -1.9106    5.6989   14.1063 H   0  0  0  0  0  0  0  0  0  0  0  0
   -4.2212    6.4654   14.5237 H   0  0  0  0  0  0  0  0  0  0  0  0
   -5.7736    4.9559   13.3760 H   0  0  0  0  0  0  0  0  0  0  0  0
   -5.4576    6.4357   12.4080 H   0  0  0  0  0  0  0  0  0  0  0  0
   -3.2215    3.6695   10.5760 H   0  0  0  0  0  0  0  0  0  0  0  0
   -7.5834    4.4255   10.3073 H   0  0  0  0  0  0  0  0  0  0  0  0
   -0.4764    0.2210   14.5379 H   0  0  0  0  0  0  0  0  0  0  0  0
   -0.1167   -0.9386   13.2140 H   0  0  0  0  0  0  0  0  0  0  0  0
   -2.6909    1.2310   11.8726 H   0  0  0  0  0  0  0  0  0  0  0  0
   -1.5443    1.3652   13.2487 H   0  0  0  0  0  0  0  0  0  0  0  0
   -1.2146    0.2087   11.9144 H   0  0  0  0  0  0  0  0  0  0  0  0
  1  2  1  0  0  0  0
  2  3  1  0  0  0  0
  3  4  1  0  0  0  0
  3 36  2  0  0  0  0
  4  5  2  0  0  0  0
  5  6  1  0  0  0  0
  6  7  2  0  0  0  0
  6 35  1  0  0  0  0
  7  8  1  0  0  0  0
  8  9  2  0  0  0  0
  8 16  1  0  0  0  0
  9 10  1  0  0  0  0
 10 11  2  0  0  0  0
 10 17  1  0  0  0  0
 11 12  1  0  0  0  0
 12 13  1  0  0  0  0
 12 16  1  0  0  0  0
 13 14  2  0  0  0  0
 14 15  1  0  0  0  0
 15 16  2  0  0  0  0
 17 18  2  0  0  0  0
 17 22  1  0  0  0  0
 18 19  1  0  0  0  0
 19 20  2  0  0  0  0
 20 21  1  0  0  0  0
 21 22  2  0  0  0  0
 21 23  1  0  0  0  0
 23 24  2  0  0  0  0
 23 25  1  0  0  0  0
 25 26  2  0  0  0  0
 26 27  1  0  0  0  0
 26 31  1  0  0  0  0
 27 28  2  0  0  0  0
 28 29  1  0  0  0  0
 29 30  1  0  0  0  0
 30 31  2  0  0  0  0
 30 32  1  0  0  0  0
 32 33  2  0  0  0  0
 32 34  1  0  0  0  0
 35 36  1  0  0  0  0
 36 37  1  0  0  0  0
 37 38  1  0  0  0  0
  1 39  1  0  0  0  0
  1 40  1  0  0  0  0
  1 41  1  0  0  0  0
  4 42  1  0  0  0  0
  5 43  1  0  0  0  0
 11 44  1  0  0  0  0
 13 45  1  0  0  0  0
 14 46  1  0  0  0  0
 18 47  1  0  0  0  0
 19 48  1  0  0  0  0
 20 49  1  0  0  0  0
 22 50  1  0  0  0  0
 27 51  1  0  0  0  0
 28 52  1  0  0  0  0
 29 53  1  0  0  0  0
 29 54  1  0  0  0  0
 31 55  1  0  0  0  0
 34 56  1  0  0  0  0
 35 57  1  0  0  0  0
 35 58  1  0  0  0  0
 38 59  1  0  0  0  0
 38 60  1  0  0  0  0
 38 61  1  0  0  0  0
M  END
> <IC50[nM]>
8.9

$$$$
CHEMBL3264997
  -OEChem-05192314333D
 Structure written by MMmdl.
 61 65  0     1  0  0  0  0  0999 V2000
   -4.2555   -3.1029   13.5707 C   0  0  0  0  0  0  0  0  0  0  0  0
   -3.8740   -2.3535   14.7166 O   0  0  0  0  0  0  0  0  0  0  0  0
   -2.5261   -2.1057   14.8053 C   0  0  3  0  0  0  0  0  0  0  0  0
   -1.7497   -2.8673   15.6804 C   0  0  0  0  0  0  0  0  0  0  0  0
   -0.3863   -2.6106   15.8150 C   0  0  0  0  0  0  0  0  0  0  0  0
    0.2220   -1.5829   15.0890 C   0  0  0  0  0  0  0  0  0  0  0  0
    1.5930   -1.3491   15.3060 N   0  0  0  0  0  0  0  0  0  0  0  0
    2.5452   -0.4689   14.7536 C   0  0  0  0  0  0  0  0  0  0  0  0
    2.2178    0.3551   13.7190 N   0  0  0  0  0  0  0  0  0  0  0  0
    3.1227    1.2406   13.2181 C   0  0  0  0  0  0  0  0  0  0  0  0
    4.4207    1.3039   13.7175 C   0  0  0  0  0  0  0  0  0  0  0  0
    4.7482    0.4921   14.7654 N   0  0  0  0  0  0  0  0  0  0  0  0
    5.8898    0.3836   15.5035 C   0  0  0  0  0  0  0  0  0  0  0  0
    5.5715   -0.5089   16.5177 C   0  0  0  0  0  0  0  0  0  0  0  0
    4.3818   -1.0543   16.3920 N   0  0  0  0  0  0  0  0  0  0  0  0
    3.8330   -0.4170   15.3252 C   0  0  0  0  0  0  0  0  0  0  0  0
    2.6564    2.1560   12.1340 C   0  0  0  0  0  0  0  0  0  0  0  0
    3.5566    2.6280   11.1666 C   0  0  0  0  0  0  0  0  0  0  0  0
    3.1294    3.4499   10.1277 C   0  0  0  0  0  0  0  0  0  0  0  0
    1.7879    3.8078   10.0318 C   0  0  0  0  0  0  0  0  0  0  0  0
    0.8660    3.3707   10.9895 C   0  0  0  0  0  0  0  0  0  0  0  0
    1.3140    2.5576   12.0419 C   0  0  0  0  0  0  0  0  0  0  0  0
   -0.5783    3.7648   10.8956 C   0  0  0  0  0  0  0  0  0  0  0  0
   -1.2610    3.7179    9.8765 O   0  0  0  0  0  0  0  0  0  0  0  0
   -1.0553    4.1831   12.0683 N   0  0  0  0  0  0  0  0  0  0  0  0
   -2.4212    4.6362   12.3150 C   0  0  0  0  0  0  0  0  0  0  0  0
   -2.7024    5.4228   13.4257 C   0  0  0  0  0  0  0  0  0  0  0  0
   -4.0026    5.8541   13.6606 C   0  0  0  0  0  0  0  0  0  0  0  0
   -5.0215    5.4987   12.7847 C   0  0  0  0  0  0  0  0  0  0  0  0
   -4.7403    4.7121   11.6740 C   0  0  0  0  0  0  0  0  0  0  0  0
   -3.4401    4.2808   11.4391 C   0  0  0  0  0  0  0  0  0  0  0  0
   -5.8399    4.3286   10.7287 C   0  0  0  0  0  0  0  0  0  0  0  0
   -5.6116    3.6277    9.7316 O   0  0  0  0  0  0  0  0  0  0  0  0
   -6.9848    4.7354   10.9767 O   0  0  0  0  0  0  0  0  0  0  0  0
   -0.5664   -0.8256   14.2115 C   0  0  0  0  0  0  0  0  0  0  0  0
   -1.9389   -1.0760   14.0580 C   0  0  0  0  0  0  0  0  0  0  0  0
   -2.6991   -0.3052   13.2021 O   0  0  0  0  0  0  0  0  0  0  0  0
   -2.0020    0.6746   12.5251 C   0  0  0  0  0  0  0  0  0  0  0  0
   -5.3448   -3.2555   13.5777 H   0  0  0  0  0  0  0  0  0  0  0  0
   -3.9681   -2.5543   12.6616 H   0  0  0  0  0  0  0  0  0  0  0  0
   -3.7486   -4.0790   13.5856 H   0  0  0  0  0  0  0  0  0  0  0  0
   -2.3305   -2.8209   13.9928 H   0  0  0  0  0  0  0  0  0  0  0  0
   -2.2073   -3.6587   16.2555 H   0  0  0  0  0  0  0  0  0  0  0  0
    0.2066   -3.2125   16.4877 H   0  0  0  0  0  0  0  0  0  0  0  0
    5.1484    1.9765   13.2880 H   0  0  0  0  0  0  0  0  0  0  0  0
    6.8331    0.8820   15.3359 H   0  0  0  0  0  0  0  0  0  0  0  0
    6.2400   -0.7347   17.3354 H   0  0  0  0  0  0  0  0  0  0  0  0
    4.5981    2.3490   11.2292 H   0  0  0  0  0  0  0  0  0  0  0  0
    3.8383    3.8096    9.3966 H   0  0  0  0  0  0  0  0  0  0  0  0
    1.4559    4.4276    9.2120 H   0  0  0  0  0  0  0  0  0  0  0  0
    0.6121    2.2342   12.7963 H   0  0  0  0  0  0  0  0  0  0  0  0
   -1.9106    5.6989   14.1063 H   0  0  0  0  0  0  0  0  0  0  0  0
   -4.2212    6.4654   14.5237 H   0  0  0  0  0  0  0  0  0  0  0  0
   -6.0318    5.8338   12.9672 H   0  0  0  0  0  0  0  0  0  0  0  0
   -3.1536    4.6612   10.4475 H   0  0  0  0  0  0  0  0  0  0  0  0
   -3.4696    3.1814   11.4156 H   0  0  0  0  0  0  0  0  0  0  0  0
   -7.5834    4.4255   10.3073 H   0  0  0  0  0  0  0  0  0  0  0  0
   -0.1075   -0.0318   13.6408 H   0  0  0  0  0  0  0  0  0  0  0  0
   -2.6909    1.2310   11.8726 H   0  0  0  0  0  0  0  0  0  0  0  0
   -1.5443    1.3652   13.2487 H   0  0  0  0  0  0  0  0  0  0  0  0
   -1.2146    0.2087   11.9144 H   0  0  0  0  0  0  0  0  0  0  0  0
  1  2  1  0  0  0  0
  2  3  1  0  0  0  0
  3  4  1  0  0  0  0
  3 36  1  0  0  0  0
  4  5  2  0  0  0  0
  5  6  1  0  0  0  0
  6  7  2  0  0  0  0
  6 35  1  0  0  0  0
  7  8  1  0  0  0  0
  8  9  2  0  0  0  0
  8 16  1  0  0  0  0
  9 10  1  0  0  0  0
 10 11  2  0  0  0  0
 10 17  1  0  0  0  0
 11 12  1  0  0  0  0
 12 13  1  0  0  0  0
 12 16  1  0  0  0  0
 13 14  2  0  0  0  0
 14 15  1  0  0  0  0
 15 16  2  0  0  0  0
 17 18  2  0  0  0  0
 17 22  1  0  0  0  0
 18 19  1  0  0  0  0
 19 20  2  0  0  0  0
 20 21  1  0  0  0  0
 21 22  2  0  0  0  0
 21 23  1  0  0  0  0
 23 24  2  0  0  0  0
 23 25  1  0  0  0  0
 25 26  2  0  0  0  0
 26 27  1  0  0  0  0
 26 31  1  0  0  0  0
 27 28  2  0  0  0  0
 28 29  1  0  0  0  0
 29 30  2  0  0  0  0
 30 31  1  0  0  0  0
 30 32  1  0  0  0  0
 32 33  2  0  0  0  0
 32 34  1  0  0  0  0
 35 36  2  0  0  0  0
 36 37  1  0  0  0  0
 37 38  1  0  0  0  0
  1 39  1  0  0  0  0
  1 40  1  0  0  0  0
  1 41  1  0  0  0  0
  3 42  1  0  0  0  0
  4 43  1  0  0  0  0
  5 44  1  0  0  0  0
 11 45  1  0  0  0  0
 13 46  1  0  0  0  0
 14 47  1  0  0  0  0
 18 48  1  0  0  0  0
 19 49  1  0  0  0  0
 20 50  1  0  0  0  0
 22 51  1  0  0  0  0
 27 52  1  0  0  0  0
 28 53  1  0  0  0  0
 29 54  1  0  0  0  0
 31 55  1  0  0  0  0
 31 56  1  0  0  0  0
 34 57  1  0  0  0  0
 35 58  1  0  0  0  0
 38 59  1  0  0  0  0
 38 60  1  0  0  0  0
 38 61  1  0  0  0  0
M  END
> <IC50[nM]>
8.9

$$$$
CHEMBL3264997
  -OEChem-05192314333D
 Structure written by MMmdl.
 61 65  0     0  0  0  0  0  0999 V2000
   -4.2555   -3.1029   13.5707 C   0  0  0  0  0  0  0  0  0  0  0  0
   -3.8740   -2.3535   14.7166 O   0  0  0  0  0  0  0  0  0  0  0  0
   -2.5261   -2.1057   14.8053 C   0  0  0  0  0  0  0  0  0  0  0  0
   -1.7497   -2.8673   15.6804 C   0  0  0  0  0  0  0  0  0  0  0  0
   -0.3863   -2.6106   15.8150 C   0  0  0  0  0  0  0  0  0  0  0  0
    0.2220   -1.5829   15.0890 C   0  0  0  0  0  0  0  0  0  0  0  0
    1.5930   -1.3491   15.3060 N   0  0  0  0  0  0  0  0  0  0  0  0
    2.5452   -0.4689   14.7536 C   0  0  0  0  0  0  0  0  0  0  0  0
    2.2178    0.3551   13.7190 N   0  0  0  0  0  0  0  0  0  0  0  0
    3.1227    1.2406   13.2181 C   0  0  0  0  0  0  0  0  0  0  0  0
    4.4207    1.3039   13.7175 C   0  0  0  0  0  0  0  0  0  0  0  0
    4.7482    0.4921   14.7654 N   0  0  0  0  0  0  0  0  0  0  0  0
    5.8898    0.3836   15.5035 C   0  0  0  0  0  0  0  0  0  0  0  0
    5.5715   -0.5089   16.5177 C   0  0  0  0  0  0  0  0  0  0  0  0
    4.3818   -1.0543   16.3920 N   0  0  0  0  0  0  0  0  0  0  0  0
    3.8330   -0.4170   15.3252 C   0  0  0  0  0  0  0  0  0  0  0  0
    2.6564    2.1560   12.1340 C   0  0  0  0  0  0  0  0  0  0  0  0
    3.5566    2.6280   11.1666 C   0  0  0  0  0  0  0  0  0  0  0  0
    3.1294    3.4499   10.1277 C   0  0  0  0  0  0  0  0  0  0  0  0
    1.7879    3.8078   10.0318 C   0  0  0  0  0  0  0  0  0  0  0  0
    0.8660    3.3707   10.9895 C   0  0  0  0  0  0  0  0  0  0  0  0
    1.3140    2.5576   12.0419 C   0  0  0  0  0  0  0  0  0  0  0  0
   -0.5783    3.7648   10.8956 C   0  0  0  0  0  0  0  0  0  0  0  0
   -1.2610    3.7179    9.8765 O   0  0  0  0  0  0  0  0  0  0  0  0
   -1.0553    4.1831   12.0683 N   0  0  0  0  0  0  0  0  0  0  0  0
   -2.4212    4.6362   12.3150 C   0  0  0  0  0  0  0  0  0  0  0  0
   -2.7024    5.4228   13.4257 C   0  0  0  0  0  0  0  0  0  0  0  0
   -4.0026    5.8541   13.6606 C   0  0  0  0  0  0  0  0  0  0  0  0
   -5.0215    5.4987   12.7847 C   0  0  0  0  0  0  0  0  0  0  0  0
   -4.7403    4.7121   11.6740 C   0  0  0  0  0  0  0  0  0  0  0  0
   -3.4401    4.2808   11.4391 C   0  0  0  0  0  0  0  0  0  0  0  0
   -5.8399    4.3286   10.7287 C   0  0  0  0  0  0  0  0  0  0  0  0
   -5.6116    3.6277    9.7316 O   0  0  0  0  0  0  0  0  0  0  0  0
   -6.9848    4.7354   10.9767 O   0  0  0  0  0  0  0  0  0  0  0  0
   -0.5664   -0.8256   14.2115 C   0  0  0  0  0  0  0  0  0  0  0  0
   -1.9389   -1.0760   14.0580 C   0  0  0  0  0  0  0  0  0  0  0  0
   -2.6991   -0.3052   13.2021 O   0  0  0  0  0  0  0  0  0  0  0  0
   -2.0020    0.6746   12.5251 C   0  0  0  0  0  0  0  0  0  0  0  0
   -5.3448   -3.2555   13.5777 H   0  0  0  0  0  0  0  0  0  0  0  0
   -3.9681   -2.5543   12.6616 H   0  0  0  0  0  0  0  0  0  0  0  0
   -3.7486   -4.0790   13.5856 H   0  0  0  0  0  0  0  0  0  0  0  0
   -2.2073   -3.6587   16.2555 H   0  0  0  0  0  0  0  0  0  0  0  0
   -0.2118   -2.3897   16.8784 H   0  0  0  0  0  0  0  0  0  0  0  0
    0.1365   -3.5394   15.5428 H   0  0  0  0  0  0  0  0  0  0  0  0
    5.1484    1.9765   13.2880 H   0  0  0  0  0  0  0  0  0  0  0  0
    6.8331    0.8820   15.3359 H   0  0  0  0  0  0  0  0  0  0  0  0
    6.2400   -0.7347   17.3354 H   0  0  0  0  0  0  0  0  0  0  0  0
    4.5981    2.3490   11.2292 H   0  0  0  0  0  0  0  0  0  0  0  0
    3.8383    3.8096    9.3966 H   0  0  0  0  0  0  0  0  0  0  0  0
    1.4559    4.4276    9.2120 H   0  0  0  0  0  0  0  0  0  0  0  0
    0.6121    2.2342   12.7963 H   0  0  0  0  0  0  0  0  0  0  0  0
   -1.9106    5.6989   14.1063 H   0  0  0  0  0  0  0  0  0  0  0  0
   -4.2212    6.4654   14.5237 H   0  0  0  0  0  0  0  0  0  0  0  0
   -6.0318    5.8338   12.9672 H   0  0  0  0  0  0  0  0  0  0  0  0
   -3.1536    4.6612   10.4475 H   0  0  0  0  0  0  0  0  0  0  0  0
   -3.4696    3.1814   11.4156 H   0  0  0  0  0  0  0  0  0  0  0  0
   -7.5834    4.4255   10.3073 H   0  0  0  0  0  0  0  0  0  0  0  0
   -0.1075   -0.0318   13.6408 H   0  0  0  0  0  0  0  0  0  0  0  0
   -2.6909    1.2310   11.8726 H   0  0  0  0  0  0  0  0  0  0  0  0
   -1.5443    1.3652   13.2487 H   0  0  0  0  0  0  0  0  0  0  0  0
   -1.2146    0.2087   11.9144 H   0  0  0  0  0  0  0  0  0  0  0  0
  1  2  1  0  0  0  0
  2  3  1  0  0  0  0
  3  4  2  0  0  0  0
  3 36  1  0  0  0  0
  4  5  1  0  0  0  0
  5  6  1  0  0  0  0
  6  7  2  0  0  0  0
  6 35  1  0  0  0  0
  7  8  1  0  0  0  0
  8  9  2  0  0  0  0
  8 16  1  0  0  0  0
  9 10  1  0  0  0  0
 10 11  2  0  0  0  0
 10 17  1  0  0  0  0
 11 12  1  0  0  0  0
 12 13  1  0  0  0  0
 12 16  1  0  0  0  0
 13 14  2  0  0  0  0
 14 15  1  0  0  0  0
 15 16  2  0  0  0  0
 17 18  2  0  0  0  0
 17 22  1  0  0  0  0
 18 19  1  0  0  0  0
 19 20  2  0  0  0  0
 20 21  1  0  0  0  0
 21 22  2  0  0  0  0
 21 23  1  0  0  0  0
 23 24  2  0  0  0  0
 23 25  1  0  0  0  0
 25 26  2  0  0  0  0
 26 27  1  0  0  0  0
 26 31  1  0  0  0  0
 27 28  2  0  0  0  0
 28 29  1  0  0  0  0
 29 30  2  0  0  0  0
 30 31  1  0  0  0  0
 30 32  1  0  0  0  0
 32 33  2  0  0  0  0
 32 34  1  0  0  0  0
 35 36  2  0  0  0  0
 36 37  1  0  0  0  0
 37 38  1  0  0  0  0
  1 39  1  0  0  0  0
  1 40  1  0  0  0  0
  1 41  1  0  0  0  0
  4 42  1  0  0  0  0
  5 43  1  0  0  0  0
  5 44  1  0  0  0  0
 11 45  1  0  0  0  0
 13 46  1  0  0  0  0
 14 47  1  0  0  0  0
 18 48  1  0  0  0  0
 19 49  1  0  0  0  0
 20 50  1  0  0  0  0
 22 51  1  0  0  0  0
 27 52  1  0  0  0  0
 28 53  1  0  0  0  0
 29 54  1  0  0  0  0
 31 55  1  0  0  0  0
 31 56  1  0  0  0  0
 34 57  1  0  0  0  0
 35 58  1  0  0  0  0
 38 59  1  0  0  0  0
 38 60  1  0  0  0  0
 38 61  1  0  0  0  0
M  END
> <IC50[nM]>
8.9

$$$$
CHEMBL3264997
  -OEChem-05192314333D
 Structure written by MMmdl.
 61 65  0     0  0  0  0  0  0999 V2000
   -4.2555   -3.1029   13.5707 C   0  0  0  0  0  0  0  0  0  0  0  0
   -3.8740   -2.3535   14.7166 O   0  0  0  0  0  0  0  0  0  0  0  0
   -2.5261   -2.1057   14.8053 C   0  0  0  0  0  0  0  0  0  0  0  0
   -1.7497   -2.8673   15.6804 C   0  0  0  0  0  0  0  0  0  0  0  0
   -0.3863   -2.6106   15.8150 C   0  0  0  0  0  0  0  0  0  0  0  0
    0.2220   -1.5829   15.0890 C   0  0  0  0  0  0  0  0  0  0  0  0
    1.5930   -1.3491   15.3060 N   0  0  0  0  0  0  0  0  0  0  0  0
    2.5452   -0.4689   14.7536 C   0  0  0  0  0  0  0  0  0  0  0  0
    2.2178    0.3551   13.7190 N   0  0  0  0  0  0  0  0  0  0  0  0
    3.1227    1.2406   13.2181 C   0  0  0  0  0  0  0  0  0  0  0  0
    4.4207    1.3039   13.7175 C   0  0  0  0  0  0  0  0  0  0  0  0
    4.7482    0.4921   14.7654 N   0  0  0  0  0  0  0  0  0  0  0  0
    5.8898    0.3836   15.5035 C   0  0  0  0  0  0  0  0  0  0  0  0
    5.5715   -0.5089   16.5177 C   0  0  0  0  0  0  0  0  0  0  0  0
    4.3818   -1.0543   16.3920 N   0  0  0  0  0  0  0  0  0  0  0  0
    3.8330   -0.4170   15.3252 C   0  0  0  0  0  0  0  0  0  0  0  0
    2.6564    2.1560   12.1340 C   0  0  0  0  0  0  0  0  0  0  0  0
    3.5566    2.6280   11.1666 C   0  0  0  0  0  0  0  0  0  0  0  0
    3.1294    3.4499   10.1277 C   0  0  0  0  0  0  0  0  0  0  0  0
    1.7879    3.8078   10.0318 C   0  0  0  0  0  0  0  0  0  0  0  0
    0.8660    3.3707   10.9895 C   0  0  0  0  0  0  0  0  0  0  0  0
    1.3140    2.5576   12.0419 C   0  0  0  0  0  0  0  0  0  0  0  0
   -0.5783    3.7648   10.8956 C   0  0  0  0  0  0  0  0  0  0  0  0
   -1.2610    3.7179    9.8765 O   0  0  0  0  0  0  0  0  0  0  0  0
   -1.0553    4.1831   12.0683 N   0  0  0  0  0  0  0  0  0  0  0  0
   -2.4212    4.6362   12.3150 C   0  0  0  0  0  0  0  0  0  0  0  0
   -2.7024    5.4228   13.4257 C   0  0  0  0  0  0  0  0  0  0  0  0
   -4.0026    5.8541   13.6606 C   0  0  0  0  0  0  0  0  0  0  0  0
   -5.0215    5.4987   12.7847 C   0  0  0  0  0  0  0  0  0  0  0  0
   -4.7403    4.7121   11.6740 C   0  0  0  0  0  0  0  0  0  0  0  0
   -3.4401    4.2808   11.4391 C   0  0  0  0  0  0  0  0  0  0  0  0
   -5.8399    4.3286   10.7287 C   0  0  0  0  0  0  0  0  0  0  0  0
   -5.6116    3.6277    9.7316 O   0  0  0  0  0  0  0  0  0  0  0  0
   -6.9848    4.7354   10.9767 O   0  0  0  0  0  0  0  0  0  0  0  0
   -0.5664   -0.8256   14.2115 C   0  0  0  0  0  0  0  0  0  0  0  0
   -1.9389   -1.0760   14.0580 C   0  0  0  0  0  0  0  0  0  0  0  0
   -2.6991   -0.3052   13.2021 O   0  0  0  0  0  0  0  0  0  0  0  0
   -2.0020    0.6746   12.5251 C   0  0  0  0  0  0  0  0  0  0  0  0
   -5.3448   -3.2555   13.5777 H   0  0  0  0  0  0  0  0  0  0  0  0
   -3.9681   -2.5543   12.6616 H   0  0  0  0  0  0  0  0  0  0  0  0
   -3.7486   -4.0790   13.5856 H   0  0  0  0  0  0  0  0  0  0  0  0
   -2.2073   -3.6587   16.2555 H   0  0  0  0  0  0  0  0  0  0  0  0
    0.2066   -3.2125   16.4877 H   0  0  0  0  0  0  0  0  0  0  0  0
    5.1484    1.9765   13.2880 H   0  0  0  0  0  0  0  0  0  0  0  0
    6.8331    0.8820   15.3359 H   0  0  0  0  0  0  0  0  0  0  0  0
    6.2400   -0.7347   17.3354 H   0  0  0  0  0  0  0  0  0  0  0  0
    4.5981    2.3490   11.2292 H   0  0  0  0  0  0  0  0  0  0  0  0
    3.8383    3.8096    9.3966 H   0  0  0  0  0  0  0  0  0  0  0  0
    1.4559    4.4276    9.2120 H   0  0  0  0  0  0  0  0  0  0  0  0
    0.6121    2.2342   12.7963 H   0  0  0  0  0  0  0  0  0  0  0  0
   -1.9106    5.6989   14.1063 H   0  0  0  0  0  0  0  0  0  0  0  0
   -4.2212    6.4654   14.5237 H   0  0  0  0  0  0  0  0  0  0  0  0
   -6.0318    5.8338   12.9672 H   0  0  0  0  0  0  0  0  0  0  0  0
   -3.1536    4.6612   10.4475 H   0  0  0  0  0  0  0  0  0  0  0  0
   -3.4696    3.1814   11.4156 H   0  0  0  0  0  0  0  0  0  0  0  0
   -7.5834    4.4255   10.3073 H   0  0  0  0  0  0  0  0  0  0  0  0
   -0.4764    0.2210   14.5379 H   0  0  0  0  0  0  0  0  0  0  0  0
   -0.1167   -0.9386   13.2140 H   0  0  0  0  0  0  0  0  0  0  0  0
   -2.6909    1.2310   11.8726 H   0  0  0  0  0  0  0  0  0  0  0  0
   -1.5443    1.3652   13.2487 H   0  0  0  0  0  0  0  0  0  0  0  0
   -1.2146    0.2087   11.9144 H   0  0  0  0  0  0  0  0  0  0  0  0
  1  2  1  0  0  0  0
  2  3  1  0  0  0  0
  3  4  1  0  0  0  0
  3 36  2  0  0  0  0
  4  5  2  0  0  0  0
  5  6  1  0  0  0  0
  6  7  2  0  0  0  0
  6 35  1  0  0  0  0
  7  8  1  0  0  0  0
  8  9  2  0  0  0  0
  8 16  1  0  0  0  0
  9 10  1  0  0  0  0
 10 11  2  0  0  0  0
 10 17  1  0  0  0  0
 11 12  1  0  0  0  0
 12 13  1  0  0  0  0
 12 16  1  0  0  0  0
 13 14  2  0  0  0  0
 14 15  1  0  0  0  0
 15 16  2  0  0  0  0
 17 18  2  0  0  0  0
 17 22  1  0  0  0  0
 18 19  1  0  0  0  0
 19 20  2  0  0  0  0
 20 21  1  0  0  0  0
 21 22  2  0  0  0  0
 21 23  1  0  0  0  0
 23 24  2  0  0  0  0
 23 25  1  0  0  0  0
 25 26  2  0  0  0  0
 26 27  1  0  0  0  0
 26 31  1  0  0  0  0
 27 28  2  0  0  0  0
 28 29  1  0  0  0  0
 29 30  2  0  0  0  0
 30 31  1  0  0  0  0
 30 32  1  0  0  0  0
 32 33  2  0  0  0  0
 32 34  1  0  0  0  0
 35 36  1  0  0  0  0
 36 37  1  0  0  0  0
 37 38  1  0  0  0  0
  1 39  1  0  0  0  0
  1 40  1  0  0  0  0
  1 41  1  0  0  0  0
  4 42  1  0  0  0  0
  5 43  1  0  0  0  0
 11 44  1  0  0  0  0
 13 45  1  0  0  0  0
 14 46  1  0  0  0  0
 18 47  1  0  0  0  0
 19 48  1  0  0  0  0
 20 49  1  0  0  0  0
 22 50  1  0  0  0  0
 27 51  1  0  0  0  0
 28 52  1  0  0  0  0
 29 53  1  0  0  0  0
 31 54  1  0  0  0  0
 31 55  1  0  0  0  0
 34 56  1  0  0  0  0
 35 57  1  0  0  0  0
 35 58  1  0  0  0  0
 38 59  1  0  0  0  0
 38 60  1  0  0  0  0
 38 61  1  0  0  0  0
M  END
> <IC50[nM]>
8.9

$$$$
