CHEMBL3265024
  -OEChem-05192314333D
 Structure written by MMmdl.
 50 54  0     0  0  0  0  0  0999 V2000
   -4.2568   -3.1054   13.5684 C   0  0  0  0  0  0  0  0  0  0  0  0
   -3.8727   -2.3625   14.7149 O   0  0  0  0  0  0  0  0  0  0  0  0
   -2.5248   -2.1122   14.8155 C   0  0  0  0  0  0  0  0  0  0  0  0
   -1.7475   -2.8704   15.6805 C   0  0  0  0  0  0  0  0  0  0  0  0
   -0.3908   -2.6105   15.8142 C   0  0  0  0  0  0  0  0  0  0  0  0
    0.2212   -1.5850   15.0876 C   0  0  0  0  0  0  0  0  0  0  0  0
    1.6034   -1.3608   15.3283 N   0  0  0  0  0  0  0  0  0  0  0  0
    2.5312   -0.4403   14.7667 C   0  0  0  0  0  0  0  0  0  0  0  0
    2.1675    0.3842   13.7368 N   0  0  0  0  0  0  0  0  0  0  0  0
    3.1076    1.2383   13.2220 C   0  0  0  0  0  0  0  0  0  0  0  0
    4.4125    1.2788   13.7032 C   0  0  0  0  0  0  0  0  0  0  0  0
    4.7426    0.4894   14.7579 N   0  0  0  0  0  0  0  0  0  0  0  0
    5.8974    0.3808   15.4860 C   0  0  0  0  0  0  0  0  0  0  0  0
    5.5940   -0.5330   16.5234 C   0  0  0  0  0  0  0  0  0  0  0  0
    4.3802   -1.0455   16.3684 N   0  0  0  0  0  0  0  0  0  0  0  0
    3.8358   -0.3914   15.3289 C   0  0  0  0  0  0  0  0  0  0  0  0
    2.6478    2.1536   12.1231 C   0  0  0  0  0  0  0  0  0  0  0  0
    3.5652    2.6370   11.1626 C   0  0  0  0  0  0  0  0  0  0  0  0
    3.1327    3.4633   10.1244 C   0  0  0  0  0  0  0  0  0  0  0  0
    1.7965    3.8161   10.0403 C   0  0  0  0  0  0  0  0  0  0  0  0
    1.4003    4.6403    9.0163 O   0  0  0  0  0  0  0  0  0  0  0  0
    0.0245    4.4666    8.5995 C   0  0  0  0  0  0  0  0  0  0  0  0
   -1.0306    4.3224    9.7544 C   0  0  0  0  0  0  0  0  0  0  0  0
   -2.2095    4.6594    9.6693 O   0  0  0  0  0  0  0  0  0  0  0  0
   -0.4630    3.7540   10.8496 N   0  0  0  0  0  0  0  0  0  0  0  0
    0.8760    3.3777   10.9729 C   0  0  0  0  0  0  0  0  0  0  0  0
    1.2936    2.5512   12.0256 C   0  0  0  0  0  0  0  0  0  0  0  0
   -0.5545   -0.8186   14.1904 C   0  0  0  0  0  0  0  0  0  0  0  0
   -1.9414   -1.0869   14.0597 C   0  0  0  0  0  0  0  0  0  0  0  0
   -2.7479   -0.3495   13.2074 O   0  0  0  0  0  0  0  0  0  0  0  0
   -2.2257    0.6484   12.3503 C   0  0  0  0  0  0  0  0  0  0  0  0
   -5.3466   -3.2545   13.5757 H   0  0  0  0  0  0  0  0  0  0  0  0
   -3.9683   -2.5545   12.6611 H   0  0  0  0  0  0  0  0  0  0  0  0
   -3.7530   -4.0832   13.5795 H   0  0  0  0  0  0  0  0  0  0  0  0
   -2.2009   -3.6666   16.2523 H   0  0  0  0  0  0  0  0  0  0  0  0
    0.2013   -3.2098   16.4900 H   0  0  0  0  0  0  0  0  0  0  0  0
    1.9979   -1.9628   16.0225 H   0  0  0  0  0  0  0  0  0  0  0  0
    5.1480    1.9249   13.2472 H   0  0  0  0  0  0  0  0  0  0  0  0
    6.8364    0.8836   15.3073 H   0  0  0  0  0  0  0  0  0  0  0  0
    6.2627   -0.7805   17.3345 H   0  0  0  0  0  0  0  0  0  0  0  0
    4.6081    2.3650   11.2326 H   0  0  0  0  0  0  0  0  0  0  0  0
    3.8369    3.8258    9.3901 H   0  0  0  0  0  0  0  0  0  0  0  0
   -0.2567    5.3405    7.9936 H   0  0  0  0  0  0  0  0  0  0  0  0
   -0.0278    3.5589    7.9803 H   0  0  0  0  0  0  0  0  0  0  0  0
   -1.0567    3.5905   11.6375 H   0  0  0  0  0  0  0  0  0  0  0  0
    0.5797    2.2172   12.7640 H   0  0  0  0  0  0  0  0  0  0  0  0
   -0.0952   -0.0337   13.6078 H   0  0  0  0  0  0  0  0  0  0  0  0
   -3.0443    1.0989   11.7698 H   0  0  0  0  0  0  0  0  0  0  0  0
   -1.7315    1.4259   12.9514 H   0  0  0  0  0  0  0  0  0  0  0  0
   -1.4950    0.1961   11.6636 H   0  0  0  0  0  0  0  0  0  0  0  0
  1  2  1  0  0  0  0
  2  3  1  0  0  0  0
  3  4  2  0  0  0  0
  3 29  1  0  0  0  0
  4  5  1  0  0  0  0
  5  6  2  0  0  0  0
  6  7  1  0  0  0  0
  6 28  1  0  0  0  0
  7  8  1  0  0  0  0
  8  9  2  0  0  0  0
  8 16  1  0  0  0  0
  9 10  1  0  0  0  0
 10 11  2  0  0  0  0
 10 17  1  0  0  0  0
 11 12  1  0  0  0  0
 12 13  1  0  0  0  0
 12 16  1  0  0  0  0
 13 14  2  0  0  0  0
 14 15  1  0  0  0  0
 15 16  2  0  0  0  0
 17 18  2  0  0  0  0
 17 27  1  0  0  0  0
 18 19  1  0  0  0  0
 19 20  2  0  0  0  0
 20 21  1  0  0  0  0
 20 26  1  0  0  0  0
 21 22  1  0  0  0  0
 22 23  1  0  0  0  0
 23 24  2  0  0  0  0
 23 25  1  0  0  0  0
 25 26  1  0  0  0  0
 26 27  2  0  0  0  0
 28 29  2  0  0  0  0
 29 30  1  0  0  0  0
 30 31  1  0  0  0  0
  1 32  1  0  0  0  0
  1 33  1  0  0  0  0
  1 34  1  0  0  0  0
  4 35  1  0  0  0  0
  5 36  1  0  0  0  0
  7 37  1  0  0  0  0
 11 38  1  0  0  0  0
 13 39  1  0  0  0  0
 14 40  1  0  0  0  0
 18 41  1  0  0  0  0
 19 42  1  0  0  0  0
 22 43  1  0  0  0  0
 22 44  1  0  0  0  0
 25 45  1  0  0  0  0
 27 46  1  0  0  0  0
 28 47  1  0  0  0  0
 31 48  1  0  0  0  0
 31 49  1  0  0  0  0
 31 50  1  0  0  0  0
M  END
> <IC50[nM]>
2.3

$$$$
CHEMBL3265024
  -OEChem-05192314333D
 Structure written by MMmdl.
 50 54  0     0  0  0  0  0  0999 V2000
   -4.2568   -3.1054   13.5684 C   0  0  0  0  0  0  0  0  0  0  0  0
   -3.8727   -2.3625   14.7149 O   0  0  0  0  0  0  0  0  0  0  0  0
   -2.5248   -2.1122   14.8155 C   0  0  0  0  0  0  0  0  0  0  0  0
   -1.7475   -2.8704   15.6805 C   0  0  0  0  0  0  0  0  0  0  0  0
   -0.3908   -2.6105   15.8142 C   0  0  0  0  0  0  0  0  0  0  0  0
    0.2212   -1.5850   15.0876 C   0  0  0  0  0  0  0  0  0  0  0  0
    1.6034   -1.3608   15.3283 N   0  0  0  0  0  0  0  0  0  0  0  0
    2.5312   -0.4403   14.7667 C   0  0  0  0  0  0  0  0  0  0  0  0
    2.1675    0.3842   13.7368 N   0  0  0  0  0  0  0  0  0  0  0  0
    3.1076    1.2383   13.2220 C   0  0  0  0  0  0  0  0  0  0  0  0
    4.4125    1.2788   13.7032 C   0  0  0  0  0  0  0  0  0  0  0  0
    4.7426    0.4894   14.7579 N   0  0  0  0  0  0  0  0  0  0  0  0
    5.8974    0.3808   15.4860 C   0  0  0  0  0  0  0  0  0  0  0  0
    5.5940   -0.5330   16.5234 C   0  0  0  0  0  0  0  0  0  0  0  0
    4.3802   -1.0455   16.3684 N   0  0  0  0  0  0  0  0  0  0  0  0
    3.8358   -0.3914   15.3289 C   0  0  0  0  0  0  0  0  0  0  0  0
    2.6478    2.1536   12.1231 C   0  0  0  0  0  0  0  0  0  0  0  0
    3.5652    2.6370   11.1626 C   0  0  0  0  0  0  0  0  0  0  0  0
    3.1327    3.4633   10.1244 C   0  0  0  0  0  0  0  0  0  0  0  0
    1.7965    3.8161   10.0403 C   0  0  0  0  0  0  0  0  0  0  0  0
    1.4003    4.6403    9.0163 O   0  0  0  0  0  0  0  0  0  0  0  0
    0.0245    4.4666    8.5995 C   0  0  0  0  0  0  0  0  0  0  0  0
   -1.0306    4.3224    9.7544 C   0  0  0  0  0  0  0  0  0  0  0  0
   -2.2095    4.6594    9.6693 O   0  0  0  0  0  0  0  0  0  0  0  0
   -0.4630    3.7540   10.8496 N   0  0  0  0  0  0  0  0  0  0  0  0
    0.8760    3.3777   10.9729 C   0  0  0  0  0  0  0  0  0  0  0  0
    1.2936    2.5512   12.0256 C   0  0  0  0  0  0  0  0  0  0  0  0
   -0.5545   -0.8186   14.1904 C   0  0  0  0  0  0  0  0  0  0  0  0
   -1.9414   -1.0869   14.0597 C   0  0  0  0  0  0  0  0  0  0  0  0
   -2.7479   -0.3495   13.2074 O   0  0  0  0  0  0  0  0  0  0  0  0
   -2.2257    0.6484   12.3503 C   0  0  0  0  0  0  0  0  0  0  0  0
   -5.3466   -3.2545   13.5757 H   0  0  0  0  0  0  0  0  0  0  0  0
   -3.9683   -2.5545   12.6611 H   0  0  0  0  0  0  0  0  0  0  0  0
   -3.7530   -4.0832   13.5795 H   0  0  0  0  0  0  0  0  0  0  0  0
   -2.2009   -3.6666   16.2523 H   0  0  0  0  0  0  0  0  0  0  0  0
    0.2013   -3.2098   16.4900 H   0  0  0  0  0  0  0  0  0  0  0  0
    1.9979   -1.9628   16.0225 H   0  0  0  0  0  0  0  0  0  0  0  0
    5.1480    1.9249   13.2472 H   0  0  0  0  0  0  0  0  0  0  0  0
    6.8364    0.8836   15.3073 H   0  0  0  0  0  0  0  0  0  0  0  0
    6.2627   -0.7805   17.3345 H   0  0  0  0  0  0  0  0  0  0  0  0
    4.6081    2.3650   11.2326 H   0  0  0  0  0  0  0  0  0  0  0  0
    3.8369    3.8258    9.3901 H   0  0  0  0  0  0  0  0  0  0  0  0
   -0.2567    5.3405    7.9936 H   0  0  0  0  0  0  0  0  0  0  0  0
   -0.0278    3.5589    7.9803 H   0  0  0  0  0  0  0  0  0  0  0  0
   -2.6557    4.4607   10.4841 H   0  0  0  0  0  0  0  0  0  0  0  0
    0.5797    2.2172   12.7640 H   0  0  0  0  0  0  0  0  0  0  0  0
   -0.0952   -0.0337   13.6078 H   0  0  0  0  0  0  0  0  0  0  0  0
   -3.0443    1.0989   11.7698 H   0  0  0  0  0  0  0  0  0  0  0  0
   -1.7315    1.4259   12.9514 H   0  0  0  0  0  0  0  0  0  0  0  0
   -1.4950    0.1961   11.6636 H   0  0  0  0  0  0  0  0  0  0  0  0
  1  2  1  0  0  0  0
  2  3  1  0  0  0  0
  3  4  2  0  0  0  0
  3 29  1  0  0  0  0
  4  5  1  0  0  0  0
  5  6  2  0  0  0  0
  6  7  1  0  0  0  0
  6 28  1  0  0  0  0
  7  8  1  0  0  0  0
  8  9  2  0  0  0  0
  8 16  1  0  0  0  0
  9 10  1  0  0  0  0
 10 11  2  0  0  0  0
 10 17  1  0  0  0  0
 11 12  1  0  0  0  0
 12 13  1  0  0  0  0
 12 16  1  0  0  0  0
 13 14  2  0  0  0  0
 14 15  1  0  0  0  0
 15 16  2  0  0  0  0
 17 18  2  0  0  0  0
 17 27  1  0  0  0  0
 18 19  1  0  0  0  0
 19 20  2  0  0  0  0
 20 21  1  0  0  0  0
 20 26  1  0  0  0  0
 21 22  1  0  0  0  0
 22 23  1  0  0  0  0
 23 24  1  0  0  0  0
 23 25  2  0  0  0  0
 25 26  1  0  0  0  0
 26 27  2  0  0  0  0
 28 29  2  0  0  0  0
 29 30  1  0  0  0  0
 30 31  1  0  0  0  0
  1 32  1  0  0  0  0
  1 33  1  0  0  0  0
  1 34  1  0  0  0  0
  4 35  1  0  0  0  0
  5 36  1  0  0  0  0
  7 37  1  0  0  0  0
 11 38  1  0  0  0  0
 13 39  1  0  0  0  0
 14 40  1  0  0  0  0
 18 41  1  0  0  0  0
 19 42  1  0  0  0  0
 22 43  1  0  0  0  0
 22 44  1  0  0  0  0
 24 45  1  0  0  0  0
 27 46  1  0  0  0  0
 28 47  1  0  0  0  0
 31 48  1  0  0  0  0
 31 49  1  0  0  0  0
 31 50  1  0  0  0  0
M  END
> <IC50[nM]>
2.3

$$$$
CHEMBL3265024
  -OEChem-05192314333D
 Structure written by MMmdl.
 50 54  0     0  0  0  0  0  0999 V2000
   -4.2568   -3.1054   13.5684 C   0  0  0  0  0  0  0  0  0  0  0  0
   -3.8727   -2.3625   14.7149 O   0  0  0  0  0  0  0  0  0  0  0  0
   -2.5248   -2.1122   14.8155 C   0  0  0  0  0  0  0  0  0  0  0  0
   -1.7475   -2.8704   15.6805 C   0  0  0  0  0  0  0  0  0  0  0  0
   -0.3908   -2.6105   15.8142 C   0  0  0  0  0  0  0  0  0  0  0  0
    0.2212   -1.5850   15.0876 C   0  0  0  0  0  0  0  0  0  0  0  0
    1.6034   -1.3608   15.3283 N   0  0  0  0  0  0  0  0  0  0  0  0
    2.5312   -0.4403   14.7667 C   0  0  0  0  0  0  0  0  0  0  0  0
    2.1675    0.3842   13.7368 N   0  0  0  0  0  0  0  0  0  0  0  0
    3.1076    1.2383   13.2220 C   0  0  0  0  0  0  0  0  0  0  0  0
    4.4125    1.2788   13.7032 C   0  0  0  0  0  0  0  0  0  0  0  0
    4.7426    0.4894   14.7579 N   0  0  0  0  0  0  0  0  0  0  0  0
    5.8974    0.3808   15.4860 C   0  0  0  0  0  0  0  0  0  0  0  0
    5.5940   -0.5330   16.5234 C   0  0  0  0  0  0  0  0  0  0  0  0
    4.3802   -1.0455   16.3684 N   0  0  0  0  0  0  0  0  0  0  0  0
    3.8358   -0.3914   15.3289 C   0  0  0  0  0  0  0  0  0  0  0  0
    2.6478    2.1536   12.1231 C   0  0  0  0  0  0  0  0  0  0  0  0
    3.5652    2.6370   11.1626 C   0  0  0  0  0  0  0  0  0  0  0  0
    3.1327    3.4633   10.1244 C   0  0  0  0  0  0  0  0  0  0  0  0
    1.7965    3.8161   10.0403 C   0  0  0  0  0  0  0  0  0  0  0  0
    1.4003    4.6403    9.0163 O   0  0  0  0  0  0  0  0  0  0  0  0
    0.0245    4.4666    8.5995 C   0  0  0  0  0  0  0  0  0  0  0  0
   -1.0306    4.3224    9.7544 C   0  0  0  0  0  0  0  0  0  0  0  0
   -2.2095    4.6594    9.6693 O   0  0  0  0  0  0  0  0  0  0  0  0
   -0.4630    3.7540   10.8496 N   0  0  0  0  0  0  0  0  0  0  0  0
    0.8760    3.3777   10.9729 C   0  0  0  0  0  0  0  0  0  0  0  0
    1.2936    2.5512   12.0256 C   0  0  0  0  0  0  0  0  0  0  0  0
   -0.5545   -0.8186   14.1904 C   0  0  0  0  0  0  0  0  0  0  0  0
   -1.9414   -1.0869   14.0597 C   0  0  0  0  0  0  0  0  0  0  0  0
   -2.7479   -0.3495   13.2074 O   0  0  0  0  0  0  0  0  0  0  0  0
   -2.2257    0.6484   12.3503 C   0  0  0  0  0  0  0  0  0  0  0  0
   -5.3466   -3.2545   13.5757 H   0  0  0  0  0  0  0  0  0  0  0  0
   -3.9683   -2.5545   12.6611 H   0  0  0  0  0  0  0  0  0  0  0  0
   -3.7530   -4.0832   13.5795 H   0  0  0  0  0  0  0  0  0  0  0  0
   -2.2009   -3.6666   16.2523 H   0  0  0  0  0  0  0  0  0  0  0  0
    0.2013   -3.2098   16.4900 H   0  0  0  0  0  0  0  0  0  0  0  0
    1.2380    0.3640   13.3686 H   0  0  0  0  0  0  0  0  0  0  0  0
    5.1480    1.9249   13.2472 H   0  0  0  0  0  0  0  0  0  0  0  0
    6.8364    0.8836   15.3073 H   0  0  0  0  0  0  0  0  0  0  0  0
    6.2627   -0.7805   17.3345 H   0  0  0  0  0  0  0  0  0  0  0  0
    4.6081    2.3650   11.2326 H   0  0  0  0  0  0  0  0  0  0  0  0
    3.8369    3.8258    9.3901 H   0  0  0  0  0  0  0  0  0  0  0  0
   -0.2567    5.3405    7.9936 H   0  0  0  0  0  0  0  0  0  0  0  0
   -0.0278    3.5589    7.9803 H   0  0  0  0  0  0  0  0  0  0  0  0
   -1.0567    3.5905   11.6375 H   0  0  0  0  0  0  0  0  0  0  0  0
    0.5797    2.2172   12.7640 H   0  0  0  0  0  0  0  0  0  0  0  0
   -0.0952   -0.0337   13.6078 H   0  0  0  0  0  0  0  0  0  0  0  0
   -3.0443    1.0989   11.7698 H   0  0  0  0  0  0  0  0  0  0  0  0
   -1.7315    1.4259   12.9514 H   0  0  0  0  0  0  0  0  0  0  0  0
   -1.4950    0.1961   11.6636 H   0  0  0  0  0  0  0  0  0  0  0  0
  1  2  1  0  0  0  0
  2  3  1  0  0  0  0
  3  4  2  0  0  0  0
  3 29  1  0  0  0  0
  4  5  1  0  0  0  0
  5  6  2  0  0  0  0
  6  7  1  0  0  0  0
  6 28  1  0  0  0  0
  7  8  2  0  0  0  0
  8  9  1  0  0  0  0
  8 16  1  0  0  0  0
  9 10  1  0  0  0  0
 10 11  2  0  0  0  0
 10 17  1  0  0  0  0
 11 12  1  0  0  0  0
 12 13  1  0  0  0  0
 12 16  1  0  0  0  0
 13 14  2  0  0  0  0
 14 15  1  0  0  0  0
 15 16  2  0  0  0  0
 17 18  2  0  0  0  0
 17 27  1  0  0  0  0
 18 19  1  0  0  0  0
 19 20  2  0  0  0  0
 20 21  1  0  0  0  0
 20 26  1  0  0  0  0
 21 22  1  0  0  0  0
 22 23  1  0  0  0  0
 23 24  2  0  0  0  0
 23 25  1  0  0  0  0
 25 26  1  0  0  0  0
 26 27  2  0  0  0  0
 28 29  2  0  0  0  0
 29 30  1  0  0  0  0
 30 31  1  0  0  0  0
  1 32  1  0  0  0  0
  1 33  1  0  0  0  0
  1 34  1  0  0  0  0
  4 35  1  0  0  0  0
  5 36  1  0  0  0  0
  9 37  1  0  0  0  0
 11 38  1  0  0  0  0
 13 39  1  0  0  0  0
 14 40  1  0  0  0  0
 18 41  1  0  0  0  0
 19 42  1  0  0  0  0
 22 43  1  0  0  0  0
 22 44  1  0  0  0  0
 25 45  1  0  0  0  0
 27 46  1  0  0  0  0
 28 47  1  0  0  0  0
 31 48  1  0  0  0  0
 31 49  1  0  0  0  0
 31 50  1  0  0  0  0
M  END
> <IC50[nM]>
2.3

$$$$
CHEMBL3265024
  -OEChem-05192314333D
 Structure written by MMmdl.
 50 54  0     0  0  0  0  0  0999 V2000
   -4.2568   -3.1054   13.5684 C   0  0  0  0  0  0  0  0  0  0  0  0
   -3.8727   -2.3625   14.7149 O   0  0  0  0  0  0  0  0  0  0  0  0
   -2.5248   -2.1122   14.8155 C   0  0  0  0  0  0  0  0  0  0  0  0
   -1.7475   -2.8704   15.6805 C   0  0  0  0  0  0  0  0  0  0  0  0
   -0.3908   -2.6105   15.8142 C   0  0  0  0  0  0  0  0  0  0  0  0
    0.2212   -1.5850   15.0876 C   0  0  0  0  0  0  0  0  0  0  0  0
    1.6034   -1.3608   15.3283 N   0  0  0  0  0  0  0  0  0  0  0  0
    2.5312   -0.4403   14.7667 C   0  0  0  0  0  0  0  0  0  0  0  0
    2.1675    0.3842   13.7368 N   0  0  0  0  0  0  0  0  0  0  0  0
    3.1076    1.2383   13.2220 C   0  0  0  0  0  0  0  0  0  0  0  0
    4.4125    1.2788   13.7032 C   0  0  0  0  0  0  0  0  0  0  0  0
    4.7426    0.4894   14.7579 N   0  0  0  0  0  0  0  0  0  0  0  0
    5.8974    0.3808   15.4860 C   0  0  0  0  0  0  0  0  0  0  0  0
    5.5940   -0.5330   16.5234 C   0  0  0  0  0  0  0  0  0  0  0  0
    4.3802   -1.0455   16.3684 N   0  0  0  0  0  0  0  0  0  0  0  0
    3.8358   -0.3914   15.3289 C   0  0  0  0  0  0  0  0  0  0  0  0
    2.6478    2.1536   12.1231 C   0  0  0  0  0  0  0  0  0  0  0  0
    3.5652    2.6370   11.1626 C   0  0  0  0  0  0  0  0  0  0  0  0
    3.1327    3.4633   10.1244 C   0  0  0  0  0  0  0  0  0  0  0  0
    1.7965    3.8161   10.0403 C   0  0  0  0  0  0  0  0  0  0  0  0
    1.4003    4.6403    9.0163 O   0  0  0  0  0  0  0  0  0  0  0  0
    0.0245    4.4666    8.5995 C   0  0  0  0  0  0  0  0  0  0  0  0
   -1.0306    4.3224    9.7544 C   0  0  0  0  0  0  0  0  0  0  0  0
   -2.2095    4.6594    9.6693 O   0  0  0  0  0  0  0  0  0  0  0  0
   -0.4630    3.7540   10.8496 N   0  0  0  0  0  0  0  0  0  0  0  0
    0.8760    3.3777   10.9729 C   0  0  0  0  0  0  0  0  0  0  0  0
    1.2936    2.5512   12.0256 C   0  0  0  0  0  0  0  0  0  0  0  0
   -0.5545   -0.8186   14.1904 C   0  0  0  0  0  0  0  0  0  0  0  0
   -1.9414   -1.0869   14.0597 C   0  0  0  0  0  0  0  0  0  0  0  0
   -2.7479   -0.3495   13.2074 O   0  0  0  0  0  0  0  0  0  0  0  0
   -2.2257    0.6484   12.3503 C   0  0  0  0  0  0  0  0  0  0  0  0
   -5.3466   -3.2545   13.5757 H   0  0  0  0  0  0  0  0  0  0  0  0
   -3.9683   -2.5545   12.6611 H   0  0  0  0  0  0  0  0  0  0  0  0
   -3.7530   -4.0832   13.5795 H   0  0  0  0  0  0  0  0  0  0  0  0
   -2.2009   -3.6666   16.2523 H   0  0  0  0  0  0  0  0  0  0  0  0
    0.2013   -3.2098   16.4900 H   0  0  0  0  0  0  0  0  0  0  0  0
    1.2380    0.3640   13.3686 H   0  0  0  0  0  0  0  0  0  0  0  0
    5.1480    1.9249   13.2472 H   0  0  0  0  0  0  0  0  0  0  0  0
    6.8364    0.8836   15.3073 H   0  0  0  0  0  0  0  0  0  0  0  0
    6.2627   -0.7805   17.3345 H   0  0  0  0  0  0  0  0  0  0  0  0
    4.6081    2.3650   11.2326 H   0  0  0  0  0  0  0  0  0  0  0  0
    3.8369    3.8258    9.3901 H   0  0  0  0  0  0  0  0  0  0  0  0
   -0.2567    5.3405    7.9936 H   0  0  0  0  0  0  0  0  0  0  0  0
   -0.0278    3.5589    7.9803 H   0  0  0  0  0  0  0  0  0  0  0  0
   -2.6557    4.4607   10.4841 H   0  0  0  0  0  0  0  0  0  0  0  0
    0.5797    2.2172   12.7640 H   0  0  0  0  0  0  0  0  0  0  0  0
   -0.0952   -0.0337   13.6078 H   0  0  0  0  0  0  0  0  0  0  0  0
   -3.0443    1.0989   11.7698 H   0  0  0  0  0  0  0  0  0  0  0  0
   -1.7315    1.4259   12.9514 H   0  0  0  0  0  0  0  0  0  0  0  0
   -1.4950    0.1961   11.6636 H   0  0  0  0  0  0  0  0  0  0  0  0
  1  2  1  0  0  0  0
  2  3  1  0  0  0  0
  3  4  2  0  0  0  0
  3 29  1  0  0  0  0
  4  5  1  0  0  0  0
  5  6  2  0  0  0  0
  6  7  1  0  0  0  0
  6 28  1  0  0  0  0
  7  8  2  0  0  0  0
  8  9  1  0  0  0  0
  8 16  1  0  0  0  0
  9 10  1  0  0  0  0
 10 11  2  0  0  0  0
 10 17  1  0  0  0  0
 11 12  1  0  0  0  0
 12 13  1  0  0  0  0
 12 16  1  0  0  0  0
 13 14  2  0  0  0  0
 14 15  1  0  0  0  0
 15 16  2  0  0  0  0
 17 18  2  0  0  0  0
 17 27  1  0  0  0  0
 18 19  1  0  0  0  0
 19 20  2  0  0  0  0
 20 21  1  0  0  0  0
 20 26  1  0  0  0  0
 21 22  1  0  0  0  0
 22 23  1  0  0  0  0
 23 24  1  0  0  0  0
 23 25  2  0  0  0  0
 25 26  1  0  0  0  0
 26 27  2  0  0  0  0
 28 29  2  0  0  0  0
 29 30  1  0  0  0  0
 30 31  1  0  0  0  0
  1 32  1  0  0  0  0
  1 33  1  0  0  0  0
  1 34  1  0  0  0  0
  4 35  1  0  0  0  0
  5 36  1  0  0  0  0
  9 37  1  0  0  0  0
 11 38  1  0  0  0  0
 13 39  1  0  0  0  0
 14 40  1  0  0  0  0
 18 41  1  0  0  0  0
 19 42  1  0  0  0  0
 22 43  1  0  0  0  0
 22 44  1  0  0  0  0
 24 45  1  0  0  0  0
 27 46  1  0  0  0  0
 28 47  1  0  0  0  0
 31 48  1  0  0  0  0
 31 49  1  0  0  0  0
 31 50  1  0  0  0  0
M  END
> <IC50[nM]>
2.3

$$$$
CHEMBL3265024
  -OEChem-05192314333D
 Structure written by MMmdl.
 50 54  0     0  0  0  0  0  0999 V2000
   -4.2568   -3.1054   13.5684 C   0  0  0  0  0  0  0  0  0  0  0  0
   -3.8727   -2.3625   14.7149 O   0  0  0  0  0  0  0  0  0  0  0  0
   -2.5248   -2.1122   14.8155 C   0  0  0  0  0  0  0  0  0  0  0  0
   -1.7475   -2.8704   15.6805 C   0  0  0  0  0  0  0  0  0  0  0  0
   -0.3908   -2.6105   15.8142 C   0  0  0  0  0  0  0  0  0  0  0  0
    0.2212   -1.5850   15.0876 C   0  0  0  0  0  0  0  0  0  0  0  0
    1.6034   -1.3608   15.3283 N   0  0  0  0  0  0  0  0  0  0  0  0
    2.5312   -0.4403   14.7667 C   0  0  0  0  0  0  0  0  0  0  0  0
    2.1675    0.3842   13.7368 N   0  0  0  0  0  0  0  0  0  0  0  0
    3.1076    1.2383   13.2220 C   0  0  0  0  0  0  0  0  0  0  0  0
    4.4125    1.2788   13.7032 C   0  0  0  0  0  0  0  0  0  0  0  0
    4.7426    0.4894   14.7579 N   0  0  0  0  0  0  0  0  0  0  0  0
    5.8974    0.3808   15.4860 C   0  0  0  0  0  0  0  0  0  0  0  0
    5.5940   -0.5330   16.5234 C   0  0  0  0  0  0  0  0  0  0  0  0
    4.3802   -1.0455   16.3684 N   0  0  0  0  0  0  0  0  0  0  0  0
    3.8358   -0.3914   15.3289 C   0  0  0  0  0  0  0  0  0  0  0  0
    2.6478    2.1536   12.1231 C   0  0  0  0  0  0  0  0  0  0  0  0
    3.5652    2.6370   11.1626 C   0  0  0  0  0  0  0  0  0  0  0  0
    3.1327    3.4633   10.1244 C   0  0  0  0  0  0  0  0  0  0  0  0
    1.7965    3.8161   10.0403 C   0  0  0  0  0  0  0  0  0  0  0  0
    1.4003    4.6403    9.0163 O   0  0  0  0  0  0  0  0  0  0  0  0
    0.0245    4.4666    8.5995 C   0  0  0  0  0  0  0  0  0  0  0  0
   -1.0306    4.3224    9.7544 C   0  0  0  0  0  0  0  0  0  0  0  0
   -2.2095    4.6594    9.6693 O   0  0  0  0  0  0  0  0  0  0  0  0
   -0.4630    3.7540   10.8496 N   0  0  0  0  0  0  0  0  0  0  0  0
    0.8760    3.3777   10.9729 C   0  0  0  0  0  0  0  0  0  0  0  0
    1.2936    2.5512   12.0256 C   0  0  0  0  0  0  0  0  0  0  0  0
   -0.5545   -0.8186   14.1904 C   0  0  0  0  0  0  0  0  0  0  0  0
   -1.9414   -1.0869   14.0597 C   0  0  0  0  0  0  0  0  0  0  0  0
   -2.7479   -0.3495   13.2074 O   0  0  0  0  0  0  0  0  0  0  0  0
   -2.2257    0.6484   12.3503 C   0  0  0  0  0  0  0  0  0  0  0  0
   -5.3466   -3.2545   13.5757 H   0  0  0  0  0  0  0  0  0  0  0  0
   -3.9683   -2.5545   12.6611 H   0  0  0  0  0  0  0  0  0  0  0  0
   -3.7530   -4.0832   13.5795 H   0  0  0  0  0  0  0  0  0  0  0  0
   -2.2009   -3.6666   16.2523 H   0  0  0  0  0  0  0  0  0  0  0  0
    0.2013   -3.2098   16.4900 H   0  0  0  0  0  0  0  0  0  0  0  0
    5.0739    0.9993   12.8699 H   0  0  0  0  0  0  0  0  0  0  0  0
    4.6161    2.3182   14.0002 H   0  0  0  0  0  0  0  0  0  0  0  0
    6.8364    0.8836   15.3073 H   0  0  0  0  0  0  0  0  0  0  0  0
    6.2627   -0.7805   17.3345 H   0  0  0  0  0  0  0  0  0  0  0  0
    4.6081    2.3650   11.2326 H   0  0  0  0  0  0  0  0  0  0  0  0
    3.8369    3.8258    9.3901 H   0  0  0  0  0  0  0  0  0  0  0  0
   -0.2567    5.3405    7.9936 H   0  0  0  0  0  0  0  0  0  0  0  0
   -0.0278    3.5589    7.9803 H   0  0  0  0  0  0  0  0  0  0  0  0
   -1.0567    3.5905   11.6375 H   0  0  0  0  0  0  0  0  0  0  0  0
    0.5797    2.2172   12.7640 H   0  0  0  0  0  0  0  0  0  0  0  0
   -0.0952   -0.0337   13.6078 H   0  0  0  0  0  0  0  0  0  0  0  0
   -3.0443    1.0989   11.7698 H   0  0  0  0  0  0  0  0  0  0  0  0
   -1.7315    1.4259   12.9514 H   0  0  0  0  0  0  0  0  0  0  0  0
   -1.4950    0.1961   11.6636 H   0  0  0  0  0  0  0  0  0  0  0  0
  1  2  1  0  0  0  0
  2  3  1  0  0  0  0
  3  4  2  0  0  0  0
  3 29  1  0  0  0  0
  4  5  1  0  0  0  0
  5  6  2  0  0  0  0
  6  7  1  0  0  0  0
  6 28  1  0  0  0  0
  7  8  2  0  0  0  0
  8  9  1  0  0  0  0
  8 16  1  0  0  0  0
  9 10  2  0  0  0  0
 10 11  1  0  0  0  0
 10 17  1  0  0  0  0
 11 12  1  0  0  0  0
 12 13  1  0  0  0  0
 12 16  1  0  0  0  0
 13 14  2  0  0  0  0
 14 15  1  0  0  0  0
 15 16  2  0  0  0  0
 17 18  2  0  0  0  0
 17 27  1  0  0  0  0
 18 19  1  0  0  0  0
 19 20  2  0  0  0  0
 20 21  1  0  0  0  0
 20 26  1  0  0  0  0
 21 22  1  0  0  0  0
 22 23  1  0  0  0  0
 23 24  2  0  0  0  0
 23 25  1  0  0  0  0
 25 26  1  0  0  0  0
 26 27  2  0  0  0  0
 28 29  2  0  0  0  0
 29 30  1  0  0  0  0
 30 31  1  0  0  0  0
  1 32  1  0  0  0  0
  1 33  1  0  0  0  0
  1 34  1  0  0  0  0
  4 35  1  0  0  0  0
  5 36  1  0  0  0  0
 11 37  1  0  0  0  0
 11 38  1  0  0  0  0
 13 39  1  0  0  0  0
 14 40  1  0  0  0  0
 18 41  1  0  0  0  0
 19 42  1  0  0  0  0
 22 43  1  0  0  0  0
 22 44  1  0  0  0  0
 25 45  1  0  0  0  0
 27 46  1  0  0  0  0
 28 47  1  0  0  0  0
 31 48  1  0  0  0  0
 31 49  1  0  0  0  0
 31 50  1  0  0  0  0
M  END
> <IC50[nM]>
2.3

$$$$
CHEMBL3265024
  -OEChem-05192314333D
 Structure written by MMmdl.
 50 54  0     0  0  0  0  0  0999 V2000
   -4.2568   -3.1054   13.5684 C   0  0  0  0  0  0  0  0  0  0  0  0
   -3.8727   -2.3625   14.7149 O   0  0  0  0  0  0  0  0  0  0  0  0
   -2.5248   -2.1122   14.8155 C   0  0  0  0  0  0  0  0  0  0  0  0
   -1.7475   -2.8704   15.6805 C   0  0  0  0  0  0  0  0  0  0  0  0
   -0.3908   -2.6105   15.8142 C   0  0  0  0  0  0  0  0  0  0  0  0
    0.2212   -1.5850   15.0876 C   0  0  0  0  0  0  0  0  0  0  0  0
    1.6034   -1.3608   15.3283 N   0  0  0  0  0  0  0  0  0  0  0  0
    2.5312   -0.4403   14.7667 C   0  0  0  0  0  0  0  0  0  0  0  0
    2.1675    0.3842   13.7368 N   0  0  0  0  0  0  0  0  0  0  0  0
    3.1076    1.2383   13.2220 C   0  0  0  0  0  0  0  0  0  0  0  0
    4.4125    1.2788   13.7032 C   0  0  0  0  0  0  0  0  0  0  0  0
    4.7426    0.4894   14.7579 N   0  0  0  0  0  0  0  0  0  0  0  0
    5.8974    0.3808   15.4860 C   0  0  0  0  0  0  0  0  0  0  0  0
    5.5940   -0.5330   16.5234 C   0  0  0  0  0  0  0  0  0  0  0  0
    4.3802   -1.0455   16.3684 N   0  0  0  0  0  0  0  0  0  0  0  0
    3.8358   -0.3914   15.3289 C   0  0  0  0  0  0  0  0  0  0  0  0
    2.6478    2.1536   12.1231 C   0  0  0  0  0  0  0  0  0  0  0  0
    3.5652    2.6370   11.1626 C   0  0  0  0  0  0  0  0  0  0  0  0
    3.1327    3.4633   10.1244 C   0  0  0  0  0  0  0  0  0  0  0  0
    1.7965    3.8161   10.0403 C   0  0  0  0  0  0  0  0  0  0  0  0
    1.4003    4.6403    9.0163 O   0  0  0  0  0  0  0  0  0  0  0  0
    0.0245    4.4666    8.5995 C   0  0  0  0  0  0  0  0  0  0  0  0
   -1.0306    4.3224    9.7544 C   0  0  0  0  0  0  0  0  0  0  0  0
   -2.2095    4.6594    9.6693 O   0  0  0  0  0  0  0  0  0  0  0  0
   -0.4630    3.7540   10.8496 N   0  0  0  0  0  0  0  0  0  0  0  0
    0.8760    3.3777   10.9729 C   0  0  0  0  0  0  0  0  0  0  0  0
    1.2936    2.5512   12.0256 C   0  0  0  0  0  0  0  0  0  0  0  0
   -0.5545   -0.8186   14.1904 C   0  0  0  0  0  0  0  0  0  0  0  0
   -1.9414   -1.0869   14.0597 C   0  0  0  0  0  0  0  0  0  0  0  0
   -2.7479   -0.3495   13.2074 O   0  0  0  0  0  0  0  0  0  0  0  0
   -2.2257    0.6484   12.3503 C   0  0  0  0  0  0  0  0  0  0  0  0
   -5.3466   -3.2545   13.5757 H   0  0  0  0  0  0  0  0  0  0  0  0
   -3.9683   -2.5545   12.6611 H   0  0  0  0  0  0  0  0  0  0  0  0
   -3.7530   -4.0832   13.5795 H   0  0  0  0  0  0  0  0  0  0  0  0
   -2.2009   -3.6666   16.2523 H   0  0  0  0  0  0  0  0  0  0  0  0
    0.2013   -3.2098   16.4900 H   0  0  0  0  0  0  0  0  0  0  0  0
    5.0739    0.9993   12.8699 H   0  0  0  0  0  0  0  0  0  0  0  0
    4.6161    2.3182   14.0002 H   0  0  0  0  0  0  0  0  0  0  0  0
    6.8364    0.8836   15.3073 H   0  0  0  0  0  0  0  0  0  0  0  0
    6.2627   -0.7805   17.3345 H   0  0  0  0  0  0  0  0  0  0  0  0
    4.6081    2.3650   11.2326 H   0  0  0  0  0  0  0  0  0  0  0  0
    3.8369    3.8258    9.3901 H   0  0  0  0  0  0  0  0  0  0  0  0
   -0.2567    5.3405    7.9936 H   0  0  0  0  0  0  0  0  0  0  0  0
   -0.0278    3.5589    7.9803 H   0  0  0  0  0  0  0  0  0  0  0  0
   -2.6557    4.4607   10.4841 H   0  0  0  0  0  0  0  0  0  0  0  0
    0.5797    2.2172   12.7640 H   0  0  0  0  0  0  0  0  0  0  0  0
   -0.0952   -0.0337   13.6078 H   0  0  0  0  0  0  0  0  0  0  0  0
   -3.0443    1.0989   11.7698 H   0  0  0  0  0  0  0  0  0  0  0  0
   -1.7315    1.4259   12.9514 H   0  0  0  0  0  0  0  0  0  0  0  0
   -1.4950    0.1961   11.6636 H   0  0  0  0  0  0  0  0  0  0  0  0
  1  2  1  0  0  0  0
  2  3  1  0  0  0  0
  3  4  2  0  0  0  0
  3 29  1  0  0  0  0
  4  5  1  0  0  0  0
  5  6  2  0  0  0  0
  6  7  1  0  0  0  0
  6 28  1  0  0  0  0
  7  8  2  0  0  0  0
  8  9  1  0  0  0  0
  8 16  1  0  0  0  0
  9 10  2  0  0  0  0
 10 11  1  0  0  0  0
 10 17  1  0  0  0  0
 11 12  1  0  0  0  0
 12 13  1  0  0  0  0
 12 16  1  0  0  0  0
 13 14  2  0  0  0  0
 14 15  1  0  0  0  0
 15 16  2  0  0  0  0
 17 18  2  0  0  0  0
 17 27  1  0  0  0  0
 18 19  1  0  0  0  0
 19 20  2  0  0  0  0
 20 21  1  0  0  0  0
 20 26  1  0  0  0  0
 21 22  1  0  0  0  0
 22 23  1  0  0  0  0
 23 24  1  0  0  0  0
 23 25  2  0  0  0  0
 25 26  1  0  0  0  0
 26 27  2  0  0  0  0
 28 29  2  0  0  0  0
 29 30  1  0  0  0  0
 30 31  1  0  0  0  0
  1 32  1  0  0  0  0
  1 33  1  0  0  0  0
  1 34  1  0  0  0  0
  4 35  1  0  0  0  0
  5 36  1  0  0  0  0
 11 37  1  0  0  0  0
 11 38  1  0  0  0  0
 13 39  1  0  0  0  0
 14 40  1  0  0  0  0
 18 41  1  0  0  0  0
 19 42  1  0  0  0  0
 22 43  1  0  0  0  0
 22 44  1  0  0  0  0
 24 45  1  0  0  0  0
 27 46  1  0  0  0  0
 28 47  1  0  0  0  0
 31 48  1  0  0  0  0
 31 49  1  0  0  0  0
 31 50  1  0  0  0  0
M  END
> <IC50[nM]>
2.3

$$$$
CHEMBL3265024
  -OEChem-05192314333D
 Structure written by MMmdl.
 50 54  0     1  0  0  0  0  0999 V2000
   -4.2568   -3.1054   13.5684 C   0  0  0  0  0  0  0  0  0  0  0  0
   -3.8727   -2.3625   14.7149 O   0  0  0  0  0  0  0  0  0  0  0  0
   -2.5248   -2.1122   14.8155 C   0  0  3  0  0  0  0  0  0  0  0  0
   -1.7475   -2.8704   15.6805 C   0  0  0  0  0  0  0  0  0  0  0  0
   -0.3908   -2.6105   15.8142 C   0  0  0  0  0  0  0  0  0  0  0  0
    0.2212   -1.5850   15.0876 C   0  0  0  0  0  0  0  0  0  0  0  0
    1.6034   -1.3608   15.3283 N   0  0  0  0  0  0  0  0  0  0  0  0
    2.5312   -0.4403   14.7667 C   0  0  0  0  0  0  0  0  0  0  0  0
    2.1675    0.3842   13.7368 N   0  0  0  0  0  0  0  0  0  0  0  0
    3.1076    1.2383   13.2220 C   0  0  0  0  0  0  0  0  0  0  0  0
    4.4125    1.2788   13.7032 C   0  0  0  0  0  0  0  0  0  0  0  0
    4.7426    0.4894   14.7579 N   0  0  0  0  0  0  0  0  0  0  0  0
    5.8974    0.3808   15.4860 C   0  0  0  0  0  0  0  0  0  0  0  0
    5.5940   -0.5330   16.5234 C   0  0  0  0  0  0  0  0  0  0  0  0
    4.3802   -1.0455   16.3684 N   0  0  0  0  0  0  0  0  0  0  0  0
    3.8358   -0.3914   15.3289 C   0  0  0  0  0  0  0  0  0  0  0  0
    2.6478    2.1536   12.1231 C   0  0  0  0  0  0  0  0  0  0  0  0
    3.5652    2.6370   11.1626 C   0  0  0  0  0  0  0  0  0  0  0  0
    3.1327    3.4633   10.1244 C   0  0  0  0  0  0  0  0  0  0  0  0
    1.7965    3.8161   10.0403 C   0  0  0  0  0  0  0  0  0  0  0  0
    1.4003    4.6403    9.0163 O   0  0  0  0  0  0  0  0  0  0  0  0
    0.0245    4.4666    8.5995 C   0  0  0  0  0  0  0  0  0  0  0  0
   -1.0306    4.3224    9.7544 C   0  0  0  0  0  0  0  0  0  0  0  0
   -2.2095    4.6594    9.6693 O   0  0  0  0  0  0  0  0  0  0  0  0
   -0.4630    3.7540   10.8496 N   0  0  0  0  0  0  0  0  0  0  0  0
    0.8760    3.3777   10.9729 C   0  0  0  0  0  0  0  0  0  0  0  0
    1.2936    2.5512   12.0256 C   0  0  0  0  0  0  0  0  0  0  0  0
   -0.5545   -0.8186   14.1904 C   0  0  0  0  0  0  0  0  0  0  0  0
   -1.9414   -1.0869   14.0597 C   0  0  0  0  0  0  0  0  0  0  0  0
   -2.7479   -0.3495   13.2074 O   0  0  0  0  0  0  0  0  0  0  0  0
   -2.2257    0.6484   12.3503 C   0  0  0  0  0  0  0  0  0  0  0  0
   -5.3466   -3.2545   13.5757 H   0  0  0  0  0  0  0  0  0  0  0  0
   -3.9683   -2.5545   12.6611 H   0  0  0  0  0  0  0  0  0  0  0  0
   -3.7530   -4.0832   13.5795 H   0  0  0  0  0  0  0  0  0  0  0  0
   -2.3272   -2.8281   14.0041 H   0  0  0  0  0  0  0  0  0  0  0  0
   -2.2009   -3.6666   16.2523 H   0  0  0  0  0  0  0  0  0  0  0  0
    0.2013   -3.2098   16.4900 H   0  0  0  0  0  0  0  0  0  0  0  0
    5.1480    1.9249   13.2472 H   0  0  0  0  0  0  0  0  0  0  0  0
    6.8364    0.8836   15.3073 H   0  0  0  0  0  0  0  0  0  0  0  0
    6.2627   -0.7805   17.3345 H   0  0  0  0  0  0  0  0  0  0  0  0
    4.6081    2.3650   11.2326 H   0  0  0  0  0  0  0  0  0  0  0  0
    3.8369    3.8258    9.3901 H   0  0  0  0  0  0  0  0  0  0  0  0
   -0.2567    5.3405    7.9936 H   0  0  0  0  0  0  0  0  0  0  0  0
   -0.0278    3.5589    7.9803 H   0  0  0  0  0  0  0  0  0  0  0  0
   -1.0567    3.5905   11.6375 H   0  0  0  0  0  0  0  0  0  0  0  0
    0.5797    2.2172   12.7640 H   0  0  0  0  0  0  0  0  0  0  0  0
   -0.0952   -0.0337   13.6078 H   0  0  0  0  0  0  0  0  0  0  0  0
   -3.0443    1.0989   11.7698 H   0  0  0  0  0  0  0  0  0  0  0  0
   -1.7315    1.4259   12.9514 H   0  0  0  0  0  0  0  0  0  0  0  0
   -1.4950    0.1961   11.6636 H   0  0  0  0  0  0  0  0  0  0  0  0
  1  2  1  0  0  0  0
  2  3  1  0  0  0  0
  3  4  1  0  0  0  0
  3 29  1  0  0  0  0
  4  5  2  0  0  0  0
  5  6  1  0  0  0  0
  6  7  2  0  0  0  0
  6 28  1  0  0  0  0
  7  8  1  0  0  0  0
  8  9  2  0  0  0  0
  8 16  1  0  0  0  0
  9 10  1  0  0  0  0
 10 11  2  0  0  0  0
 10 17  1  0  0  0  0
 11 12  1  0  0  0  0
 12 13  1  0  0  0  0
 12 16  1  0  0  0  0
 13 14  2  0  0  0  0
 14 15  1  0  0  0  0
 15 16  2  0  0  0  0
 17 18  2  0  0  0  0
 17 27  1  0  0  0  0
 18 19  1  0  0  0  0
 19 20  2  0  0  0  0
 20 21  1  0  0  0  0
 20 26  1  0  0  0  0
 21 22  1  0  0  0  0
 22 23  1  0  0  0  0
 23 24  2  0  0  0  0
 23 25  1  0  0  0  0
 25 26  1  0  0  0  0
 26 27  2  0  0  0  0
 28 29  2  0  0  0  0
 29 30  1  0  0  0  0
 30 31  1  0  0  0  0
  1 32  1  0  0  0  0
  1 33  1  0  0  0  0
  1 34  1  0  0  0  0
  3 35  1  0  0  0  0
  4 36  1  0  0  0  0
  5 37  1  0  0  0  0
 11 38  1  0  0  0  0
 13 39  1  0  0  0  0
 14 40  1  0  0  0  0
 18 41  1  0  0  0  0
 19 42  1  0  0  0  0
 22 43  1  0  0  0  0
 22 44  1  0  0  0  0
 25 45  1  0  0  0  0
 27 46  1  0  0  0  0
 28 47  1  0  0  0  0
 31 48  1  0  0  0  0
 31 49  1  0  0  0  0
 31 50  1  0  0  0  0
M  END
> <IC50[nM]>
2.3

$$$$
CHEMBL3265024
  -OEChem-05192314333D
 Structure written by MMmdl.
 50 54  0     0  0  0  0  0  0999 V2000
   -4.2568   -3.1054   13.5684 C   0  0  0  0  0  0  0  0  0  0  0  0
   -3.8727   -2.3625   14.7149 O   0  0  0  0  0  0  0  0  0  0  0  0
   -2.5248   -2.1122   14.8155 C   0  0  0  0  0  0  0  0  0  0  0  0
   -1.7475   -2.8704   15.6805 C   0  0  0  0  0  0  0  0  0  0  0  0
   -0.3908   -2.6105   15.8142 C   0  0  0  0  0  0  0  0  0  0  0  0
    0.2212   -1.5850   15.0876 C   0  0  0  0  0  0  0  0  0  0  0  0
    1.6034   -1.3608   15.3283 N   0  0  0  0  0  0  0  0  0  0  0  0
    2.5312   -0.4403   14.7667 C   0  0  0  0  0  0  0  0  0  0  0  0
    2.1675    0.3842   13.7368 N   0  0  0  0  0  0  0  0  0  0  0  0
    3.1076    1.2383   13.2220 C   0  0  0  0  0  0  0  0  0  0  0  0
    4.4125    1.2788   13.7032 C   0  0  0  0  0  0  0  0  0  0  0  0
    4.7426    0.4894   14.7579 N   0  0  0  0  0  0  0  0  0  0  0  0
    5.8974    0.3808   15.4860 C   0  0  0  0  0  0  0  0  0  0  0  0
    5.5940   -0.5330   16.5234 C   0  0  0  0  0  0  0  0  0  0  0  0
    4.3802   -1.0455   16.3684 N   0  0  0  0  0  0  0  0  0  0  0  0
    3.8358   -0.3914   15.3289 C   0  0  0  0  0  0  0  0  0  0  0  0
    2.6478    2.1536   12.1231 C   0  0  0  0  0  0  0  0  0  0  0  0
    3.5652    2.6370   11.1626 C   0  0  0  0  0  0  0  0  0  0  0  0
    3.1327    3.4633   10.1244 C   0  0  0  0  0  0  0  0  0  0  0  0
    1.7965    3.8161   10.0403 C   0  0  0  0  0  0  0  0  0  0  0  0
    1.4003    4.6403    9.0163 O   0  0  0  0  0  0  0  0  0  0  0  0
    0.0245    4.4666    8.5995 C   0  0  0  0  0  0  0  0  0  0  0  0
   -1.0306    4.3224    9.7544 C   0  0  0  0  0  0  0  0  0  0  0  0
   -2.2095    4.6594    9.6693 O   0  0  0  0  0  0  0  0  0  0  0  0
   -0.4630    3.7540   10.8496 N   0  0  0  0  0  0  0  0  0  0  0  0
    0.8760    3.3777   10.9729 C   0  0  0  0  0  0  0  0  0  0  0  0
    1.2936    2.5512   12.0256 C   0  0  0  0  0  0  0  0  0  0  0  0
   -0.5545   -0.8186   14.1904 C   0  0  0  0  0  0  0  0  0  0  0  0
   -1.9414   -1.0869   14.0597 C   0  0  0  0  0  0  0  0  0  0  0  0
   -2.7479   -0.3495   13.2074 O   0  0  0  0  0  0  0  0  0  0  0  0
   -2.2257    0.6484   12.3503 C   0  0  0  0  0  0  0  0  0  0  0  0
   -5.3466   -3.2545   13.5757 H   0  0  0  0  0  0  0  0  0  0  0  0
   -3.9683   -2.5545   12.6611 H   0  0  0  0  0  0  0  0  0  0  0  0
   -3.7530   -4.0832   13.5795 H   0  0  0  0  0  0  0  0  0  0  0  0
   -2.2009   -3.6666   16.2523 H   0  0  0  0  0  0  0  0  0  0  0  0
   -0.2187   -2.3862   16.8772 H   0  0  0  0  0  0  0  0  0  0  0  0
    0.1334   -3.5396   15.5460 H   0  0  0  0  0  0  0  0  0  0  0  0
    5.1480    1.9249   13.2472 H   0  0  0  0  0  0  0  0  0  0  0  0
    6.8364    0.8836   15.3073 H   0  0  0  0  0  0  0  0  0  0  0  0
    6.2627   -0.7805   17.3345 H   0  0  0  0  0  0  0  0  0  0  0  0
    4.6081    2.3650   11.2326 H   0  0  0  0  0  0  0  0  0  0  0  0
    3.8369    3.8258    9.3901 H   0  0  0  0  0  0  0  0  0  0  0  0
   -0.2567    5.3405    7.9936 H   0  0  0  0  0  0  0  0  0  0  0  0
   -0.0278    3.5589    7.9803 H   0  0  0  0  0  0  0  0  0  0  0  0
   -1.0567    3.5905   11.6375 H   0  0  0  0  0  0  0  0  0  0  0  0
    0.5797    2.2172   12.7640 H   0  0  0  0  0  0  0  0  0  0  0  0
   -0.0952   -0.0337   13.6078 H   0  0  0  0  0  0  0  0  0  0  0  0
   -3.0443    1.0989   11.7698 H   0  0  0  0  0  0  0  0  0  0  0  0
   -1.7315    1.4259   12.9514 H   0  0  0  0  0  0  0  0  0  0  0  0
   -1.4950    0.1961   11.6636 H   0  0  0  0  0  0  0  0  0  0  0  0
  1  2  1  0  0  0  0
  2  3  1  0  0  0  0
  3  4  2  0  0  0  0
  3 29  1  0  0  0  0
  4  5  1  0  0  0  0
  5  6  1  0  0  0  0
  6  7  2  0  0  0  0
  6 28  1  0  0  0  0
  7  8  1  0  0  0  0
  8  9  2  0  0  0  0
  8 16  1  0  0  0  0
  9 10  1  0  0  0  0
 10 11  2  0  0  0  0
 10 17  1  0  0  0  0
 11 12  1  0  0  0  0
 12 13  1  0  0  0  0
 12 16  1  0  0  0  0
 13 14  2  0  0  0  0
 14 15  1  0  0  0  0
 15 16  2  0  0  0  0
 17 18  2  0  0  0  0
 17 27  1  0  0  0  0
 18 19  1  0  0  0  0
 19 20  2  0  0  0  0
 20 21  1  0  0  0  0
 20 26  1  0  0  0  0
 21 22  1  0  0  0  0
 22 23  1  0  0  0  0
 23 24  2  0  0  0  0
 23 25  1  0  0  0  0
 25 26  1  0  0  0  0
 26 27  2  0  0  0  0
 28 29  2  0  0  0  0
 29 30  1  0  0  0  0
 30 31  1  0  0  0  0
  1 32  1  0  0  0  0
  1 33  1  0  0  0  0
  1 34  1  0  0  0  0
  4 35  1  0  0  0  0
  5 36  1  0  0  0  0
  5 37  1  0  0  0  0
 11 38  1  0  0  0  0
 13 39  1  0  0  0  0
 14 40  1  0  0  0  0
 18 41  1  0  0  0  0
 19 42  1  0  0  0  0
 22 43  1  0  0  0  0
 22 44  1  0  0  0  0
 25 45  1  0  0  0  0
 27 46  1  0  0  0  0
 28 47  1  0  0  0  0
 31 48  1  0  0  0  0
 31 49  1  0  0  0  0
 31 50  1  0  0  0  0
M  END
> <IC50[nM]>
2.3

$$$$
CHEMBL3265024
  -OEChem-05192314333D
 Structure written by MMmdl.
 50 54  0     0  0  0  0  0  0999 V2000
   -4.2568   -3.1054   13.5684 C   0  0  0  0  0  0  0  0  0  0  0  0
   -3.8727   -2.3625   14.7149 O   0  0  0  0  0  0  0  0  0  0  0  0
   -2.5248   -2.1122   14.8155 C   0  0  0  0  0  0  0  0  0  0  0  0
   -1.7475   -2.8704   15.6805 C   0  0  0  0  0  0  0  0  0  0  0  0
   -0.3908   -2.6105   15.8142 C   0  0  0  0  0  0  0  0  0  0  0  0
    0.2212   -1.5850   15.0876 C   0  0  0  0  0  0  0  0  0  0  0  0
    1.6034   -1.3608   15.3283 N   0  0  0  0  0  0  0  0  0  0  0  0
    2.5312   -0.4403   14.7667 C   0  0  0  0  0  0  0  0  0  0  0  0
    2.1675    0.3842   13.7368 N   0  0  0  0  0  0  0  0  0  0  0  0
    3.1076    1.2383   13.2220 C   0  0  0  0  0  0  0  0  0  0  0  0
    4.4125    1.2788   13.7032 C   0  0  0  0  0  0  0  0  0  0  0  0
    4.7426    0.4894   14.7579 N   0  0  0  0  0  0  0  0  0  0  0  0
    5.8974    0.3808   15.4860 C   0  0  0  0  0  0  0  0  0  0  0  0
    5.5940   -0.5330   16.5234 C   0  0  0  0  0  0  0  0  0  0  0  0
    4.3802   -1.0455   16.3684 N   0  0  0  0  0  0  0  0  0  0  0  0
    3.8358   -0.3914   15.3289 C   0  0  0  0  0  0  0  0  0  0  0  0
    2.6478    2.1536   12.1231 C   0  0  0  0  0  0  0  0  0  0  0  0
    3.5652    2.6370   11.1626 C   0  0  0  0  0  0  0  0  0  0  0  0
    3.1327    3.4633   10.1244 C   0  0  0  0  0  0  0  0  0  0  0  0
    1.7965    3.8161   10.0403 C   0  0  0  0  0  0  0  0  0  0  0  0
    1.4003    4.6403    9.0163 O   0  0  0  0  0  0  0  0  0  0  0  0
    0.0245    4.4666    8.5995 C   0  0  0  0  0  0  0  0  0  0  0  0
   -1.0306    4.3224    9.7544 C   0  0  0  0  0  0  0  0  0  0  0  0
   -2.2095    4.6594    9.6693 O   0  0  0  0  0  0  0  0  0  0  0  0
   -0.4630    3.7540   10.8496 N   0  0  0  0  0  0  0  0  0  0  0  0
    0.8760    3.3777   10.9729 C   0  0  0  0  0  0  0  0  0  0  0  0
    1.2936    2.5512   12.0256 C   0  0  0  0  0  0  0  0  0  0  0  0
   -0.5545   -0.8186   14.1904 C   0  0  0  0  0  0  0  0  0  0  0  0
   -1.9414   -1.0869   14.0597 C   0  0  0  0  0  0  0  0  0  0  0  0
   -2.7479   -0.3495   13.2074 O   0  0  0  0  0  0  0  0  0  0  0  0
   -2.2257    0.6484   12.3503 C   0  0  0  0  0  0  0  0  0  0  0  0
   -5.3466   -3.2545   13.5757 H   0  0  0  0  0  0  0  0  0  0  0  0
   -3.9683   -2.5545   12.6611 H   0  0  0  0  0  0  0  0  0  0  0  0
   -3.7530   -4.0832   13.5795 H   0  0  0  0  0  0  0  0  0  0  0  0
   -2.2009   -3.6666   16.2523 H   0  0  0  0  0  0  0  0  0  0  0  0
    0.2013   -3.2098   16.4900 H   0  0  0  0  0  0  0  0  0  0  0  0
    5.1480    1.9249   13.2472 H   0  0  0  0  0  0  0  0  0  0  0  0
    6.8364    0.8836   15.3073 H   0  0  0  0  0  0  0  0  0  0  0  0
    6.2627   -0.7805   17.3345 H   0  0  0  0  0  0  0  0  0  0  0  0
    4.6081    2.3650   11.2326 H   0  0  0  0  0  0  0  0  0  0  0  0
    3.8369    3.8258    9.3901 H   0  0  0  0  0  0  0  0  0  0  0  0
   -0.2567    5.3405    7.9936 H   0  0  0  0  0  0  0  0  0  0  0  0
   -0.0278    3.5589    7.9803 H   0  0  0  0  0  0  0  0  0  0  0  0
   -1.0567    3.5905   11.6375 H   0  0  0  0  0  0  0  0  0  0  0  0
    0.5797    2.2172   12.7640 H   0  0  0  0  0  0  0  0  0  0  0  0
   -0.4601    0.2319   14.5028 H   0  0  0  0  0  0  0  0  0  0  0  0
   -0.1087   -0.9460   13.1929 H   0  0  0  0  0  0  0  0  0  0  0  0
   -3.0443    1.0989   11.7698 H   0  0  0  0  0  0  0  0  0  0  0  0
   -1.7315    1.4259   12.9514 H   0  0  0  0  0  0  0  0  0  0  0  0
   -1.4950    0.1961   11.6636 H   0  0  0  0  0  0  0  0  0  0  0  0
  1  2  1  0  0  0  0
  2  3  1  0  0  0  0
  3  4  1  0  0  0  0
  3 29  2  0  0  0  0
  4  5  2  0  0  0  0
  5  6  1  0  0  0  0
  6  7  2  0  0  0  0
  6 28  1  0  0  0  0
  7  8  1  0  0  0  0
  8  9  2  0  0  0  0
  8 16  1  0  0  0  0
  9 10  1  0  0  0  0
 10 11  2  0  0  0  0
 10 17  1  0  0  0  0
 11 12  1  0  0  0  0
 12 13  1  0  0  0  0
 12 16  1  0  0  0  0
 13 14  2  0  0  0  0
 14 15  1  0  0  0  0
 15 16  2  0  0  0  0
 17 18  2  0  0  0  0
 17 27  1  0  0  0  0
 18 19  1  0  0  0  0
 19 20  2  0  0  0  0
 20 21  1  0  0  0  0
 20 26  1  0  0  0  0
 21 22  1  0  0  0  0
 22 23  1  0  0  0  0
 23 24  2  0  0  0  0
 23 25  1  0  0  0  0
 25 26  1  0  0  0  0
 26 27  2  0  0  0  0
 28 29  1  0  0  0  0
 29 30  1  0  0  0  0
 30 31  1  0  0  0  0
  1 32  1  0  0  0  0
  1 33  1  0  0  0  0
  1 34  1  0  0  0  0
  4 35  1  0  0  0  0
  5 36  1  0  0  0  0
 11 37  1  0  0  0  0
 13 38  1  0  0  0  0
 14 39  1  0  0  0  0
 18 40  1  0  0  0  0
 19 41  1  0  0  0  0
 22 42  1  0  0  0  0
 22 43  1  0  0  0  0
 25 44  1  0  0  0  0
 27 45  1  0  0  0  0
 28 46  1  0  0  0  0
 28 47  1  0  0  0  0
 31 48  1  0  0  0  0
 31 49  1  0  0  0  0
 31 50  1  0  0  0  0
M  END
> <IC50[nM]>
2.3

$$$$
CHEMBL3265024
  -OEChem-05192314333D
 Structure written by MMmdl.
 50 54  0     1  0  0  0  0  0999 V2000
   -4.2568   -3.1054   13.5684 C   0  0  0  0  0  0  0  0  0  0  0  0
   -3.8727   -2.3625   14.7149 O   0  0  0  0  0  0  0  0  0  0  0  0
   -2.5248   -2.1122   14.8155 C   0  0  0  0  0  0  0  0  0  0  0  0
   -1.7475   -2.8704   15.6805 C   0  0  0  0  0  0  0  0  0  0  0  0
   -0.3908   -2.6105   15.8142 C   0  0  0  0  0  0  0  0  0  0  0  0
    0.2212   -1.5850   15.0876 C   0  0  0  0  0  0  0  0  0  0  0  0
    1.6034   -1.3608   15.3283 N   0  0  0  0  0  0  0  0  0  0  0  0
    2.5312   -0.4403   14.7667 C   0  0  0  0  0  0  0  0  0  0  0  0
    2.1675    0.3842   13.7368 N   0  0  0  0  0  0  0  0  0  0  0  0
    3.1076    1.2383   13.2220 C   0  0  0  0  0  0  0  0  0  0  0  0
    4.4125    1.2788   13.7032 C   0  0  0  0  0  0  0  0  0  0  0  0
    4.7426    0.4894   14.7579 N   0  0  0  0  0  0  0  0  0  0  0  0
    5.8974    0.3808   15.4860 C   0  0  0  0  0  0  0  0  0  0  0  0
    5.5940   -0.5330   16.5234 C   0  0  0  0  0  0  0  0  0  0  0  0
    4.3802   -1.0455   16.3684 N   0  0  0  0  0  0  0  0  0  0  0  0
    3.8358   -0.3914   15.3289 C   0  0  0  0  0  0  0  0  0  0  0  0
    2.6478    2.1536   12.1231 C   0  0  0  0  0  0  0  0  0  0  0  0
    3.5652    2.6370   11.1626 C   0  0  0  0  0  0  0  0  0  0  0  0
    3.1327    3.4633   10.1244 C   0  0  0  0  0  0  0  0  0  0  0  0
    1.7965    3.8161   10.0403 C   0  0  3  0  0  0  0  0  0  0  0  0
    1.4003    4.6403    9.0163 O   0  0  0  0  0  0  0  0  0  0  0  0
    0.0245    4.4666    8.5995 C   0  0  0  0  0  0  0  0  0  0  0  0
   -1.0306    4.3224    9.7544 C   0  0  0  0  0  0  0  0  0  0  0  0
   -2.2095    4.6594    9.6693 O   0  0  0  0  0  0  0  0  0  0  0  0
   -0.4630    3.7540   10.8496 N   0  0  0  0  0  0  0  0  0  0  0  0
    0.8760    3.3777   10.9729 C   0  0  0  0  0  0  0  0  0  0  0  0
    1.2936    2.5512   12.0256 C   0  0  0  0  0  0  0  0  0  0  0  0
   -0.5545   -0.8186   14.1904 C   0  0  0  0  0  0  0  0  0  0  0  0
   -1.9414   -1.0869   14.0597 C   0  0  0  0  0  0  0  0  0  0  0  0
   -2.7479   -0.3495   13.2074 O   0  0  0  0  0  0  0  0  0  0  0  0
   -2.2257    0.6484   12.3503 C   0  0  0  0  0  0  0  0  0  0  0  0
   -5.3466   -3.2545   13.5757 H   0  0  0  0  0  0  0  0  0  0  0  0
   -3.9683   -2.5545   12.6611 H   0  0  0  0  0  0  0  0  0  0  0  0
   -3.7530   -4.0832   13.5795 H   0  0  0  0  0  0  0  0  0  0  0  0
   -2.2009   -3.6666   16.2523 H   0  0  0  0  0  0  0  0  0  0  0  0
    0.2013   -3.2098   16.4900 H   0  0  0  0  0  0  0  0  0  0  0  0
    1.9979   -1.9628   16.0225 H   0  0  0  0  0  0  0  0  0  0  0  0
    5.1480    1.9249   13.2472 H   0  0  0  0  0  0  0  0  0  0  0  0
    6.8364    0.8836   15.3073 H   0  0  0  0  0  0  0  0  0  0  0  0
    6.2627   -0.7805   17.3345 H   0  0  0  0  0  0  0  0  0  0  0  0
    4.6081    2.3650   11.2326 H   0  0  0  0  0  0  0  0  0  0  0  0
    3.8369    3.8258    9.3901 H   0  0  0  0  0  0  0  0  0  0  0  0
    1.5954    2.9328    9.4164 H   0  0  0  0  0  0  0  0  0  0  0  0
   -0.2567    5.3405    7.9936 H   0  0  0  0  0  0  0  0  0  0  0  0
   -0.0278    3.5589    7.9803 H   0  0  0  0  0  0  0  0  0  0  0  0
    0.5797    2.2172   12.7640 H   0  0  0  0  0  0  0  0  0  0  0  0
   -0.0952   -0.0337   13.6078 H   0  0  0  0  0  0  0  0  0  0  0  0
   -3.0443    1.0989   11.7698 H   0  0  0  0  0  0  0  0  0  0  0  0
   -1.7315    1.4259   12.9514 H   0  0  0  0  0  0  0  0  0  0  0  0
   -1.4950    0.1961   11.6636 H   0  0  0  0  0  0  0  0  0  0  0  0
  1  2  1  0  0  0  0
  2  3  1  0  0  0  0
  3  4  2  0  0  0  0
  3 29  1  0  0  0  0
  4  5  1  0  0  0  0
  5  6  2  0  0  0  0
  6  7  1  0  0  0  0
  6 28  1  0  0  0  0
  7  8  1  0  0  0  0
  8  9  2  0  0  0  0
  8 16  1  0  0  0  0
  9 10  1  0  0  0  0
 10 11  2  0  0  0  0
 10 17  1  0  0  0  0
 11 12  1  0  0  0  0
 12 13  1  0  0  0  0
 12 16  1  0  0  0  0
 13 14  2  0  0  0  0
 14 15  1  0  0  0  0
 15 16  2  0  0  0  0
 17 18  1  0  0  0  0
 17 27  2  0  0  0  0
 18 19  2  0  0  0  0
 19 20  1  0  0  0  0
 20 21  1  0  0  0  0
 20 26  1  0  0  0  0
 21 22  1  0  0  0  0
 22 23  1  0  0  0  0
 23 24  2  0  0  0  0
 23 25  1  0  0  0  0
 25 26  2  0  0  0  0
 26 27  1  0  0  0  0
 28 29  2  0  0  0  0
 29 30  1  0  0  0  0
 30 31  1  0  0  0  0
  1 32  1  0  0  0  0
  1 33  1  0  0  0  0
  1 34  1  0  0  0  0
  4 35  1  0  0  0  0
  5 36  1  0  0  0  0
  7 37  1  0  0  0  0
 11 38  1  0  0  0  0
 13 39  1  0  0  0  0
 14 40  1  0  0  0  0
 18 41  1  0  0  0  0
 19 42  1  0  0  0  0
 20 43  1  0  0  0  0
 22 44  1  0  0  0  0
 22 45  1  0  0  0  0
 27 46  1  0  0  0  0
 28 47  1  0  0  0  0
 31 48  1  0  0  0  0
 31 49  1  0  0  0  0
 31 50  1  0  0  0  0
M  END
> <IC50[nM]>
2.3

$$$$
CHEMBL3265024
  -OEChem-05192314333D
 Structure written by MMmdl.
 50 54  0     0  0  0  0  0  0999 V2000
   -4.2568   -3.1054   13.5684 C   0  0  0  0  0  0  0  0  0  0  0  0
   -3.8727   -2.3625   14.7149 O   0  0  0  0  0  0  0  0  0  0  0  0
   -2.5248   -2.1122   14.8155 C   0  0  0  0  0  0  0  0  0  0  0  0
   -1.7475   -2.8704   15.6805 C   0  0  0  0  0  0  0  0  0  0  0  0
   -0.3908   -2.6105   15.8142 C   0  0  0  0  0  0  0  0  0  0  0  0
    0.2212   -1.5850   15.0876 C   0  0  0  0  0  0  0  0  0  0  0  0
    1.6034   -1.3608   15.3283 N   0  0  0  0  0  0  0  0  0  0  0  0
    2.5312   -0.4403   14.7667 C   0  0  0  0  0  0  0  0  0  0  0  0
    2.1675    0.3842   13.7368 N   0  0  0  0  0  0  0  0  0  0  0  0
    3.1076    1.2383   13.2220 C   0  0  0  0  0  0  0  0  0  0  0  0
    4.4125    1.2788   13.7032 C   0  0  0  0  0  0  0  0  0  0  0  0
    4.7426    0.4894   14.7579 N   0  0  0  0  0  0  0  0  0  0  0  0
    5.8974    0.3808   15.4860 C   0  0  0  0  0  0  0  0  0  0  0  0
    5.5940   -0.5330   16.5234 C   0  0  0  0  0  0  0  0  0  0  0  0
    4.3802   -1.0455   16.3684 N   0  0  0  0  0  0  0  0  0  0  0  0
    3.8358   -0.3914   15.3289 C   0  0  0  0  0  0  0  0  0  0  0  0
    2.6478    2.1536   12.1231 C   0  0  0  0  0  0  0  0  0  0  0  0
    3.5652    2.6370   11.1626 C   0  0  0  0  0  0  0  0  0  0  0  0
    3.1327    3.4633   10.1244 C   0  0  0  0  0  0  0  0  0  0  0  0
    1.7965    3.8161   10.0403 C   0  0  0  0  0  0  0  0  0  0  0  0
    1.4003    4.6403    9.0163 O   0  0  0  0  0  0  0  0  0  0  0  0
    0.0245    4.4666    8.5995 C   0  0  0  0  0  0  0  0  0  0  0  0
   -1.0306    4.3224    9.7544 C   0  0  0  0  0  0  0  0  0  0  0  0
   -2.2095    4.6594    9.6693 O   0  0  0  0  0  0  0  0  0  0  0  0
   -0.4630    3.7540   10.8496 N   0  0  0  0  0  0  0  0  0  0  0  0
    0.8760    3.3777   10.9729 C   0  0  0  0  0  0  0  0  0  0  0  0
    1.2936    2.5512   12.0256 C   0  0  0  0  0  0  0  0  0  0  0  0
   -0.5545   -0.8186   14.1904 C   0  0  0  0  0  0  0  0  0  0  0  0
   -1.9414   -1.0869   14.0597 C   0  0  0  0  0  0  0  0  0  0  0  0
   -2.7479   -0.3495   13.2074 O   0  0  0  0  0  0  0  0  0  0  0  0
   -2.2257    0.6484   12.3503 C   0  0  0  0  0  0  0  0  0  0  0  0
   -5.3466   -3.2545   13.5757 H   0  0  0  0  0  0  0  0  0  0  0  0
   -3.9683   -2.5545   12.6611 H   0  0  0  0  0  0  0  0  0  0  0  0
   -3.7530   -4.0832   13.5795 H   0  0  0  0  0  0  0  0  0  0  0  0
   -2.2009   -3.6666   16.2523 H   0  0  0  0  0  0  0  0  0  0  0  0
    0.2013   -3.2098   16.4900 H   0  0  0  0  0  0  0  0  0  0  0  0
    1.9979   -1.9628   16.0225 H   0  0  0  0  0  0  0  0  0  0  0  0
    5.1480    1.9249   13.2472 H   0  0  0  0  0  0  0  0  0  0  0  0
    6.8364    0.8836   15.3073 H   0  0  0  0  0  0  0  0  0  0  0  0
    6.2627   -0.7805   17.3345 H   0  0  0  0  0  0  0  0  0  0  0  0
    4.3326    3.1996   11.7146 H   0  0  0  0  0  0  0  0  0  0  0  0
    4.0243    1.7546   10.6929 H   0  0  0  0  0  0  0  0  0  0  0  0
    3.8369    3.8258    9.3901 H   0  0  0  0  0  0  0  0  0  0  0  0
   -0.2567    5.3405    7.9936 H   0  0  0  0  0  0  0  0  0  0  0  0
   -0.0278    3.5589    7.9803 H   0  0  0  0  0  0  0  0  0  0  0  0
    0.5797    2.2172   12.7640 H   0  0  0  0  0  0  0  0  0  0  0  0
   -0.0952   -0.0337   13.6078 H   0  0  0  0  0  0  0  0  0  0  0  0
   -3.0443    1.0989   11.7698 H   0  0  0  0  0  0  0  0  0  0  0  0
   -1.7315    1.4259   12.9514 H   0  0  0  0  0  0  0  0  0  0  0  0
   -1.4950    0.1961   11.6636 H   0  0  0  0  0  0  0  0  0  0  0  0
  1  2  1  0  0  0  0
  2  3  1  0  0  0  0
  3  4  2  0  0  0  0
  3 29  1  0  0  0  0
  4  5  1  0  0  0  0
  5  6  2  0  0  0  0
  6  7  1  0  0  0  0
  6 28  1  0  0  0  0
  7  8  1  0  0  0  0
  8  9  2  0  0  0  0
  8 16  1  0  0  0  0
  9 10  1  0  0  0  0
 10 11  2  0  0  0  0
 10 17  1  0  0  0  0
 11 12  1  0  0  0  0
 12 13  1  0  0  0  0
 12 16  1  0  0  0  0
 13 14  2  0  0  0  0
 14 15  1  0  0  0  0
 15 16  2  0  0  0  0
 17 18  1  0  0  0  0
 17 27  2  0  0  0  0
 18 19  1  0  0  0  0
 19 20  2  0  0  0  0
 20 21  1  0  0  0  0
 20 26  1  0  0  0  0
 21 22  1  0  0  0  0
 22 23  1  0  0  0  0
 23 24  2  0  0  0  0
 23 25  1  0  0  0  0
 25 26  2  0  0  0  0
 26 27  1  0  0  0  0
 28 29  2  0  0  0  0
 29 30  1  0  0  0  0
 30 31  1  0  0  0  0
  1 32  1  0  0  0  0
  1 33  1  0  0  0  0
  1 34  1  0  0  0  0
  4 35  1  0  0  0  0
  5 36  1  0  0  0  0
  7 37  1  0  0  0  0
 11 38  1  0  0  0  0
 13 39  1  0  0  0  0
 14 40  1  0  0  0  0
 18 41  1  0  0  0  0
 18 42  1  0  0  0  0
 19 43  1  0  0  0  0
 22 44  1  0  0  0  0
 22 45  1  0  0  0  0
 27 46  1  0  0  0  0
 28 47  1  0  0  0  0
 31 48  1  0  0  0  0
 31 49  1  0  0  0  0
 31 50  1  0  0  0  0
M  END
> <IC50[nM]>
2.3

$$$$
CHEMBL3265024
  -OEChem-05192314333D
 Structure written by MMmdl.
 50 54  0     0  0  0  0  0  0999 V2000
   -4.2568   -3.1054   13.5684 C   0  0  0  0  0  0  0  0  0  0  0  0
   -3.8727   -2.3625   14.7149 O   0  0  0  0  0  0  0  0  0  0  0  0
   -2.5248   -2.1122   14.8155 C   0  0  0  0  0  0  0  0  0  0  0  0
   -1.7475   -2.8704   15.6805 C   0  0  0  0  0  0  0  0  0  0  0  0
   -0.3908   -2.6105   15.8142 C   0  0  0  0  0  0  0  0  0  0  0  0
    0.2212   -1.5850   15.0876 C   0  0  0  0  0  0  0  0  0  0  0  0
    1.6034   -1.3608   15.3283 N   0  0  0  0  0  0  0  0  0  0  0  0
    2.5312   -0.4403   14.7667 C   0  0  0  0  0  0  0  0  0  0  0  0
    2.1675    0.3842   13.7368 N   0  0  0  0  0  0  0  0  0  0  0  0
    3.1076    1.2383   13.2220 C   0  0  0  0  0  0  0  0  0  0  0  0
    4.4125    1.2788   13.7032 C   0  0  0  0  0  0  0  0  0  0  0  0
    4.7426    0.4894   14.7579 N   0  0  0  0  0  0  0  0  0  0  0  0
    5.8974    0.3808   15.4860 C   0  0  0  0  0  0  0  0  0  0  0  0
    5.5940   -0.5330   16.5234 C   0  0  0  0  0  0  0  0  0  0  0  0
    4.3802   -1.0455   16.3684 N   0  0  0  0  0  0  0  0  0  0  0  0
    3.8358   -0.3914   15.3289 C   0  0  0  0  0  0  0  0  0  0  0  0
    2.6478    2.1536   12.1231 C   0  0  0  0  0  0  0  0  0  0  0  0
    3.5652    2.6370   11.1626 C   0  0  0  0  0  0  0  0  0  0  0  0
    3.1327    3.4633   10.1244 C   0  0  0  0  0  0  0  0  0  0  0  0
    1.7965    3.8161   10.0403 C   0  0  0  0  0  0  0  0  0  0  0  0
    1.4003    4.6403    9.0163 O   0  0  0  0  0  0  0  0  0  0  0  0
    0.0245    4.4666    8.5995 C   0  0  0  0  0  0  0  0  0  0  0  0
   -1.0306    4.3224    9.7544 C   0  0  0  0  0  0  0  0  0  0  0  0
   -2.2095    4.6594    9.6693 O   0  0  0  0  0  0  0  0  0  0  0  0
   -0.4630    3.7540   10.8496 N   0  0  0  0  0  0  0  0  0  0  0  0
    0.8760    3.3777   10.9729 C   0  0  0  0  0  0  0  0  0  0  0  0
    1.2936    2.5512   12.0256 C   0  0  0  0  0  0  0  0  0  0  0  0
   -0.5545   -0.8186   14.1904 C   0  0  0  0  0  0  0  0  0  0  0  0
   -1.9414   -1.0869   14.0597 C   0  0  0  0  0  0  0  0  0  0  0  0
   -2.7479   -0.3495   13.2074 O   0  0  0  0  0  0  0  0  0  0  0  0
   -2.2257    0.6484   12.3503 C   0  0  0  0  0  0  0  0  0  0  0  0
   -5.3466   -3.2545   13.5757 H   0  0  0  0  0  0  0  0  0  0  0  0
   -3.9683   -2.5545   12.6611 H   0  0  0  0  0  0  0  0  0  0  0  0
   -3.7530   -4.0832   13.5795 H   0  0  0  0  0  0  0  0  0  0  0  0
   -2.2009   -3.6666   16.2523 H   0  0  0  0  0  0  0  0  0  0  0  0
    0.2013   -3.2098   16.4900 H   0  0  0  0  0  0  0  0  0  0  0  0
    1.9979   -1.9628   16.0225 H   0  0  0  0  0  0  0  0  0  0  0  0
    5.1480    1.9249   13.2472 H   0  0  0  0  0  0  0  0  0  0  0  0
    6.8364    0.8836   15.3073 H   0  0  0  0  0  0  0  0  0  0  0  0
    6.2627   -0.7805   17.3345 H   0  0  0  0  0  0  0  0  0  0  0  0
    4.6081    2.3650   11.2326 H   0  0  0  0  0  0  0  0  0  0  0  0
    3.8369    3.8258    9.3901 H   0  0  0  0  0  0  0  0  0  0  0  0
   -0.2567    5.3405    7.9936 H   0  0  0  0  0  0  0  0  0  0  0  0
   -0.0278    3.5589    7.9803 H   0  0  0  0  0  0  0  0  0  0  0  0
    0.6968    1.6295   11.9605 H   0  0  0  0  0  0  0  0  0  0  0  0
    1.0508    3.0801   12.9590 H   0  0  0  0  0  0  0  0  0  0  0  0
   -0.0952   -0.0337   13.6078 H   0  0  0  0  0  0  0  0  0  0  0  0
   -3.0443    1.0989   11.7698 H   0  0  0  0  0  0  0  0  0  0  0  0
   -1.7315    1.4259   12.9514 H   0  0  0  0  0  0  0  0  0  0  0  0
   -1.4950    0.1961   11.6636 H   0  0  0  0  0  0  0  0  0  0  0  0
  1  2  1  0  0  0  0
  2  3  1  0  0  0  0
  3  4  2  0  0  0  0
  3 29  1  0  0  0  0
  4  5  1  0  0  0  0
  5  6  2  0  0  0  0
  6  7  1  0  0  0  0
  6 28  1  0  0  0  0
  7  8  1  0  0  0  0
  8  9  2  0  0  0  0
  8 16  1  0  0  0  0
  9 10  1  0  0  0  0
 10 11  2  0  0  0  0
 10 17  1  0  0  0  0
 11 12  1  0  0  0  0
 12 13  1  0  0  0  0
 12 16  1  0  0  0  0
 13 14  2  0  0  0  0
 14 15  1  0  0  0  0
 15 16  2  0  0  0  0
 17 18  2  0  0  0  0
 17 27  1  0  0  0  0
 18 19  1  0  0  0  0
 19 20  2  0  0  0  0
 20 21  1  0  0  0  0
 20 26  1  0  0  0  0
 21 22  1  0  0  0  0
 22 23  1  0  0  0  0
 23 24  2  0  0  0  0
 23 25  1  0  0  0  0
 25 26  2  0  0  0  0
 26 27  1  0  0  0  0
 28 29  2  0  0  0  0
 29 30  1  0  0  0  0
 30 31  1  0  0  0  0
  1 32  1  0  0  0  0
  1 33  1  0  0  0  0
  1 34  1  0  0  0  0
  4 35  1  0  0  0  0
  5 36  1  0  0  0  0
  7 37  1  0  0  0  0
 11 38  1  0  0  0  0
 13 39  1  0  0  0  0
 14 40  1  0  0  0  0
 18 41  1  0  0  0  0
 19 42  1  0  0  0  0
 22 43  1  0  0  0  0
 22 44  1  0  0  0  0
 27 45  1  0  0  0  0
 27 46  1  0  0  0  0
 28 47  1  0  0  0  0
 31 48  1  0  0  0  0
 31 49  1  0  0  0  0
 31 50  1  0  0  0  0
M  END
> <IC50[nM]>
2.3

$$$$
CHEMBL3265024
  -OEChem-05192314333D
 Structure written by MMmdl.
 50 54  0     1  0  0  0  0  0999 V2000
   -4.2568   -3.1054   13.5684 C   0  0  0  0  0  0  0  0  0  0  0  0
   -3.8727   -2.3625   14.7149 O   0  0  0  0  0  0  0  0  0  0  0  0
   -2.5248   -2.1122   14.8155 C   0  0  3  0  0  0  0  0  0  0  0  0
   -1.7475   -2.8704   15.6805 C   0  0  0  0  0  0  0  0  0  0  0  0
   -0.3908   -2.6105   15.8142 C   0  0  0  0  0  0  0  0  0  0  0  0
    0.2212   -1.5850   15.0876 C   0  0  0  0  0  0  0  0  0  0  0  0
    1.6034   -1.3608   15.3283 N   0  0  0  0  0  0  0  0  0  0  0  0
    2.5312   -0.4403   14.7667 C   0  0  0  0  0  0  0  0  0  0  0  0
    2.1675    0.3842   13.7368 N   0  0  0  0  0  0  0  0  0  0  0  0
    3.1076    1.2383   13.2220 C   0  0  0  0  0  0  0  0  0  0  0  0
    4.4125    1.2788   13.7032 C   0  0  0  0  0  0  0  0  0  0  0  0
    4.7426    0.4894   14.7579 N   0  0  0  0  0  0  0  0  0  0  0  0
    5.8974    0.3808   15.4860 C   0  0  0  0  0  0  0  0  0  0  0  0
    5.5940   -0.5330   16.5234 C   0  0  0  0  0  0  0  0  0  0  0  0
    4.3802   -1.0455   16.3684 N   0  0  0  0  0  0  0  0  0  0  0  0
    3.8358   -0.3914   15.3289 C   0  0  0  0  0  0  0  0  0  0  0  0
    2.6478    2.1536   12.1231 C   0  0  0  0  0  0  0  0  0  0  0  0
    3.5652    2.6370   11.1626 C   0  0  0  0  0  0  0  0  0  0  0  0
    3.1327    3.4633   10.1244 C   0  0  0  0  0  0  0  0  0  0  0  0
    1.7965    3.8161   10.0403 C   0  0  0  0  0  0  0  0  0  0  0  0
    1.4003    4.6403    9.0163 O   0  0  0  0  0  0  0  0  0  0  0  0
    0.0245    4.4666    8.5995 C   0  0  0  0  0  0  0  0  0  0  0  0
   -1.0306    4.3224    9.7544 C   0  0  0  0  0  0  0  0  0  0  0  0
   -2.2095    4.6594    9.6693 O   0  0  0  0  0  0  0  0  0  0  0  0
   -0.4630    3.7540   10.8496 N   0  0  0  0  0  0  0  0  0  0  0  0
    0.8760    3.3777   10.9729 C   0  0  0  0  0  0  0  0  0  0  0  0
    1.2936    2.5512   12.0256 C   0  0  0  0  0  0  0  0  0  0  0  0
   -0.5545   -0.8186   14.1904 C   0  0  0  0  0  0  0  0  0  0  0  0
   -1.9414   -1.0869   14.0597 C   0  0  0  0  0  0  0  0  0  0  0  0
   -2.7479   -0.3495   13.2074 O   0  0  0  0  0  0  0  0  0  0  0  0
   -2.2257    0.6484   12.3503 C   0  0  0  0  0  0  0  0  0  0  0  0
   -5.3466   -3.2545   13.5757 H   0  0  0  0  0  0  0  0  0  0  0  0
   -3.9683   -2.5545   12.6611 H   0  0  0  0  0  0  0  0  0  0  0  0
   -3.7530   -4.0832   13.5795 H   0  0  0  0  0  0  0  0  0  0  0  0
   -2.3272   -2.8281   14.0041 H   0  0  0  0  0  0  0  0  0  0  0  0
   -2.2009   -3.6666   16.2523 H   0  0  0  0  0  0  0  0  0  0  0  0
    0.2013   -3.2098   16.4900 H   0  0  0  0  0  0  0  0  0  0  0  0
    5.1480    1.9249   13.2472 H   0  0  0  0  0  0  0  0  0  0  0  0
    6.8364    0.8836   15.3073 H   0  0  0  0  0  0  0  0  0  0  0  0
    6.2627   -0.7805   17.3345 H   0  0  0  0  0  0  0  0  0  0  0  0
    4.6081    2.3650   11.2326 H   0  0  0  0  0  0  0  0  0  0  0  0
    3.8369    3.8258    9.3901 H   0  0  0  0  0  0  0  0  0  0  0  0
   -0.2567    5.3405    7.9936 H   0  0  0  0  0  0  0  0  0  0  0  0
   -0.0278    3.5589    7.9803 H   0  0  0  0  0  0  0  0  0  0  0  0
   -2.6557    4.4607   10.4841 H   0  0  0  0  0  0  0  0  0  0  0  0
    0.5797    2.2172   12.7640 H   0  0  0  0  0  0  0  0  0  0  0  0
   -0.0952   -0.0337   13.6078 H   0  0  0  0  0  0  0  0  0  0  0  0
   -3.0443    1.0989   11.7698 H   0  0  0  0  0  0  0  0  0  0  0  0
   -1.7315    1.4259   12.9514 H   0  0  0  0  0  0  0  0  0  0  0  0
   -1.4950    0.1961   11.6636 H   0  0  0  0  0  0  0  0  0  0  0  0
  1  2  1  0  0  0  0
  2  3  1  0  0  0  0
  3  4  1  0  0  0  0
  3 29  1  0  0  0  0
  4  5  2  0  0  0  0
  5  6  1  0  0  0  0
  6  7  2  0  0  0  0
  6 28  1  0  0  0  0
  7  8  1  0  0  0  0
  8  9  2  0  0  0  0
  8 16  1  0  0  0  0
  9 10  1  0  0  0  0
 10 11  2  0  0  0  0
 10 17  1  0  0  0  0
 11 12  1  0  0  0  0
 12 13  1  0  0  0  0
 12 16  1  0  0  0  0
 13 14  2  0  0  0  0
 14 15  1  0  0  0  0
 15 16  2  0  0  0  0
 17 18  2  0  0  0  0
 17 27  1  0  0  0  0
 18 19  1  0  0  0  0
 19 20  2  0  0  0  0
 20 21  1  0  0  0  0
 20 26  1  0  0  0  0
 21 22  1  0  0  0  0
 22 23  1  0  0  0  0
 23 24  1  0  0  0  0
 23 25  2  0  0  0  0
 25 26  1  0  0  0  0
 26 27  2  0  0  0  0
 28 29  2  0  0  0  0
 29 30  1  0  0  0  0
 30 31  1  0  0  0  0
  1 32  1  0  0  0  0
  1 33  1  0  0  0  0
  1 34  1  0  0  0  0
  3 35  1  0  0  0  0
  4 36  1  0  0  0  0
  5 37  1  0  0  0  0
 11 38  1  0  0  0  0
 13 39  1  0  0  0  0
 14 40  1  0  0  0  0
 18 41  1  0  0  0  0
 19 42  1  0  0  0  0
 22 43  1  0  0  0  0
 22 44  1  0  0  0  0
 24 45  1  0  0  0  0
 27 46  1  0  0  0  0
 28 47  1  0  0  0  0
 31 48  1  0  0  0  0
 31 49  1  0  0  0  0
 31 50  1  0  0  0  0
M  END
> <IC50[nM]>
2.3

$$$$
CHEMBL3265024
  -OEChem-05192314333D
 Structure written by MMmdl.
 50 54  0     0  0  0  0  0  0999 V2000
   -4.2568   -3.1054   13.5684 C   0  0  0  0  0  0  0  0  0  0  0  0
   -3.8727   -2.3625   14.7149 O   0  0  0  0  0  0  0  0  0  0  0  0
   -2.5248   -2.1122   14.8155 C   0  0  0  0  0  0  0  0  0  0  0  0
   -1.7475   -2.8704   15.6805 C   0  0  0  0  0  0  0  0  0  0  0  0
   -0.3908   -2.6105   15.8142 C   0  0  0  0  0  0  0  0  0  0  0  0
    0.2212   -1.5850   15.0876 C   0  0  0  0  0  0  0  0  0  0  0  0
    1.6034   -1.3608   15.3283 N   0  0  0  0  0  0  0  0  0  0  0  0
    2.5312   -0.4403   14.7667 C   0  0  0  0  0  0  0  0  0  0  0  0
    2.1675    0.3842   13.7368 N   0  0  0  0  0  0  0  0  0  0  0  0
    3.1076    1.2383   13.2220 C   0  0  0  0  0  0  0  0  0  0  0  0
    4.4125    1.2788   13.7032 C   0  0  0  0  0  0  0  0  0  0  0  0
    4.7426    0.4894   14.7579 N   0  0  0  0  0  0  0  0  0  0  0  0
    5.8974    0.3808   15.4860 C   0  0  0  0  0  0  0  0  0  0  0  0
    5.5940   -0.5330   16.5234 C   0  0  0  0  0  0  0  0  0  0  0  0
    4.3802   -1.0455   16.3684 N   0  0  0  0  0  0  0  0  0  0  0  0
    3.8358   -0.3914   15.3289 C   0  0  0  0  0  0  0  0  0  0  0  0
    2.6478    2.1536   12.1231 C   0  0  0  0  0  0  0  0  0  0  0  0
    3.5652    2.6370   11.1626 C   0  0  0  0  0  0  0  0  0  0  0  0
    3.1327    3.4633   10.1244 C   0  0  0  0  0  0  0  0  0  0  0  0
    1.7965    3.8161   10.0403 C   0  0  0  0  0  0  0  0  0  0  0  0
    1.4003    4.6403    9.0163 O   0  0  0  0  0  0  0  0  0  0  0  0
    0.0245    4.4666    8.5995 C   0  0  0  0  0  0  0  0  0  0  0  0
   -1.0306    4.3224    9.7544 C   0  0  0  0  0  0  0  0  0  0  0  0
   -2.2095    4.6594    9.6693 O   0  0  0  0  0  0  0  0  0  0  0  0
   -0.4630    3.7540   10.8496 N   0  0  0  0  0  0  0  0  0  0  0  0
    0.8760    3.3777   10.9729 C   0  0  0  0  0  0  0  0  0  0  0  0
    1.2936    2.5512   12.0256 C   0  0  0  0  0  0  0  0  0  0  0  0
   -0.5545   -0.8186   14.1904 C   0  0  0  0  0  0  0  0  0  0  0  0
   -1.9414   -1.0869   14.0597 C   0  0  0  0  0  0  0  0  0  0  0  0
   -2.7479   -0.3495   13.2074 O   0  0  0  0  0  0  0  0  0  0  0  0
   -2.2257    0.6484   12.3503 C   0  0  0  0  0  0  0  0  0  0  0  0
   -5.3466   -3.2545   13.5757 H   0  0  0  0  0  0  0  0  0  0  0  0
   -3.9683   -2.5545   12.6611 H   0  0  0  0  0  0  0  0  0  0  0  0
   -3.7530   -4.0832   13.5795 H   0  0  0  0  0  0  0  0  0  0  0  0
   -2.2009   -3.6666   16.2523 H   0  0  0  0  0  0  0  0  0  0  0  0
   -0.2187   -2.3862   16.8772 H   0  0  0  0  0  0  0  0  0  0  0  0
    0.1334   -3.5396   15.5460 H   0  0  0  0  0  0  0  0  0  0  0  0
    5.1480    1.9249   13.2472 H   0  0  0  0  0  0  0  0  0  0  0  0
    6.8364    0.8836   15.3073 H   0  0  0  0  0  0  0  0  0  0  0  0
    6.2627   -0.7805   17.3345 H   0  0  0  0  0  0  0  0  0  0  0  0
    4.6081    2.3650   11.2326 H   0  0  0  0  0  0  0  0  0  0  0  0
    3.8369    3.8258    9.3901 H   0  0  0  0  0  0  0  0  0  0  0  0
   -0.2567    5.3405    7.9936 H   0  0  0  0  0  0  0  0  0  0  0  0
   -0.0278    3.5589    7.9803 H   0  0  0  0  0  0  0  0  0  0  0  0
   -2.6557    4.4607   10.4841 H   0  0  0  0  0  0  0  0  0  0  0  0
    0.5797    2.2172   12.7640 H   0  0  0  0  0  0  0  0  0  0  0  0
   -0.0952   -0.0337   13.6078 H   0  0  0  0  0  0  0  0  0  0  0  0
   -3.0443    1.0989   11.7698 H   0  0  0  0  0  0  0  0  0  0  0  0
   -1.7315    1.4259   12.9514 H   0  0  0  0  0  0  0  0  0  0  0  0
   -1.4950    0.1961   11.6636 H   0  0  0  0  0  0  0  0  0  0  0  0
  1  2  1  0  0  0  0
  2  3  1  0  0  0  0
  3  4  2  0  0  0  0
  3 29  1  0  0  0  0
  4  5  1  0  0  0  0
  5  6  1  0  0  0  0
  6  7  2  0  0  0  0
  6 28  1  0  0  0  0
  7  8  1  0  0  0  0
  8  9  2  0  0  0  0
  8 16  1  0  0  0  0
  9 10  1  0  0  0  0
 10 11  2  0  0  0  0
 10 17  1  0  0  0  0
 11 12  1  0  0  0  0
 12 13  1  0  0  0  0
 12 16  1  0  0  0  0
 13 14  2  0  0  0  0
 14 15  1  0  0  0  0
 15 16  2  0  0  0  0
 17 18  2  0  0  0  0
 17 27  1  0  0  0  0
 18 19  1  0  0  0  0
 19 20  2  0  0  0  0
 20 21  1  0  0  0  0
 20 26  1  0  0  0  0
 21 22  1  0  0  0  0
 22 23  1  0  0  0  0
 23 24  1  0  0  0  0
 23 25  2  0  0  0  0
 25 26  1  0  0  0  0
 26 27  2  0  0  0  0
 28 29  2  0  0  0  0
 29 30  1  0  0  0  0
 30 31  1  0  0  0  0
  1 32  1  0  0  0  0
  1 33  1  0  0  0  0
  1 34  1  0  0  0  0
  4 35  1  0  0  0  0
  5 36  1  0  0  0  0
  5 37  1  0  0  0  0
 11 38  1  0  0  0  0
 13 39  1  0  0  0  0
 14 40  1  0  0  0  0
 18 41  1  0  0  0  0
 19 42  1  0  0  0  0
 22 43  1  0  0  0  0
 22 44  1  0  0  0  0
 24 45  1  0  0  0  0
 27 46  1  0  0  0  0
 28 47  1  0  0  0  0
 31 48  1  0  0  0  0
 31 49  1  0  0  0  0
 31 50  1  0  0  0  0
M  END
> <IC50[nM]>
2.3

$$$$
CHEMBL3265024
  -OEChem-05192314333D
 Structure written by MMmdl.
 50 54  0     0  0  0  0  0  0999 V2000
   -4.2568   -3.1054   13.5684 C   0  0  0  0  0  0  0  0  0  0  0  0
   -3.8727   -2.3625   14.7149 O   0  0  0  0  0  0  0  0  0  0  0  0
   -2.5248   -2.1122   14.8155 C   0  0  0  0  0  0  0  0  0  0  0  0
   -1.7475   -2.8704   15.6805 C   0  0  0  0  0  0  0  0  0  0  0  0
   -0.3908   -2.6105   15.8142 C   0  0  0  0  0  0  0  0  0  0  0  0
    0.2212   -1.5850   15.0876 C   0  0  0  0  0  0  0  0  0  0  0  0
    1.6034   -1.3608   15.3283 N   0  0  0  0  0  0  0  0  0  0  0  0
    2.5312   -0.4403   14.7667 C   0  0  0  0  0  0  0  0  0  0  0  0
    2.1675    0.3842   13.7368 N   0  0  0  0  0  0  0  0  0  0  0  0
    3.1076    1.2383   13.2220 C   0  0  0  0  0  0  0  0  0  0  0  0
    4.4125    1.2788   13.7032 C   0  0  0  0  0  0  0  0  0  0  0  0
    4.7426    0.4894   14.7579 N   0  0  0  0  0  0  0  0  0  0  0  0
    5.8974    0.3808   15.4860 C   0  0  0  0  0  0  0  0  0  0  0  0
    5.5940   -0.5330   16.5234 C   0  0  0  0  0  0  0  0  0  0  0  0
    4.3802   -1.0455   16.3684 N   0  0  0  0  0  0  0  0  0  0  0  0
    3.8358   -0.3914   15.3289 C   0  0  0  0  0  0  0  0  0  0  0  0
    2.6478    2.1536   12.1231 C   0  0  0  0  0  0  0  0  0  0  0  0
    3.5652    2.6370   11.1626 C   0  0  0  0  0  0  0  0  0  0  0  0
    3.1327    3.4633   10.1244 C   0  0  0  0  0  0  0  0  0  0  0  0
    1.7965    3.8161   10.0403 C   0  0  0  0  0  0  0  0  0  0  0  0
    1.4003    4.6403    9.0163 O   0  0  0  0  0  0  0  0  0  0  0  0
    0.0245    4.4666    8.5995 C   0  0  0  0  0  0  0  0  0  0  0  0
   -1.0306    4.3224    9.7544 C   0  0  0  0  0  0  0  0  0  0  0  0
   -2.2095    4.6594    9.6693 O   0  0  0  0  0  0  0  0  0  0  0  0
   -0.4630    3.7540   10.8496 N   0  0  0  0  0  0  0  0  0  0  0  0
    0.8760    3.3777   10.9729 C   0  0  0  0  0  0  0  0  0  0  0  0
    1.2936    2.5512   12.0256 C   0  0  0  0  0  0  0  0  0  0  0  0
   -0.5545   -0.8186   14.1904 C   0  0  0  0  0  0  0  0  0  0  0  0
   -1.9414   -1.0869   14.0597 C   0  0  0  0  0  0  0  0  0  0  0  0
   -2.7479   -0.3495   13.2074 O   0  0  0  0  0  0  0  0  0  0  0  0
   -2.2257    0.6484   12.3503 C   0  0  0  0  0  0  0  0  0  0  0  0
   -5.3466   -3.2545   13.5757 H   0  0  0  0  0  0  0  0  0  0  0  0
   -3.9683   -2.5545   12.6611 H   0  0  0  0  0  0  0  0  0  0  0  0
   -3.7530   -4.0832   13.5795 H   0  0  0  0  0  0  0  0  0  0  0  0
   -2.2009   -3.6666   16.2523 H   0  0  0  0  0  0  0  0  0  0  0  0
    0.2013   -3.2098   16.4900 H   0  0  0  0  0  0  0  0  0  0  0  0
    5.1480    1.9249   13.2472 H   0  0  0  0  0  0  0  0  0  0  0  0
    6.8364    0.8836   15.3073 H   0  0  0  0  0  0  0  0  0  0  0  0
    6.2627   -0.7805   17.3345 H   0  0  0  0  0  0  0  0  0  0  0  0
    4.6081    2.3650   11.2326 H   0  0  0  0  0  0  0  0  0  0  0  0
    3.8369    3.8258    9.3901 H   0  0  0  0  0  0  0  0  0  0  0  0
   -0.2567    5.3405    7.9936 H   0  0  0  0  0  0  0  0  0  0  0  0
   -0.0278    3.5589    7.9803 H   0  0  0  0  0  0  0  0  0  0  0  0
   -2.6557    4.4607   10.4841 H   0  0  0  0  0  0  0  0  0  0  0  0
    0.5797    2.2172   12.7640 H   0  0  0  0  0  0  0  0  0  0  0  0
   -0.4601    0.2319   14.5028 H   0  0  0  0  0  0  0  0  0  0  0  0
   -0.1087   -0.9460   13.1929 H   0  0  0  0  0  0  0  0  0  0  0  0
   -3.0443    1.0989   11.7698 H   0  0  0  0  0  0  0  0  0  0  0  0
   -1.7315    1.4259   12.9514 H   0  0  0  0  0  0  0  0  0  0  0  0
   -1.4950    0.1961   11.6636 H   0  0  0  0  0  0  0  0  0  0  0  0
  1  2  1  0  0  0  0
  2  3  1  0  0  0  0
  3  4  1  0  0  0  0
  3 29  2  0  0  0  0
  4  5  2  0  0  0  0
  5  6  1  0  0  0  0
  6  7  2  0  0  0  0
  6 28  1  0  0  0  0
  7  8  1  0  0  0  0
  8  9  2  0  0  0  0
  8 16  1  0  0  0  0
  9 10  1  0  0  0  0
 10 11  2  0  0  0  0
 10 17  1  0  0  0  0
 11 12  1  0  0  0  0
 12 13  1  0  0  0  0
 12 16  1  0  0  0  0
 13 14  2  0  0  0  0
 14 15  1  0  0  0  0
 15 16  2  0  0  0  0
 17 18  2  0  0  0  0
 17 27  1  0  0  0  0
 18 19  1  0  0  0  0
 19 20  2  0  0  0  0
 20 21  1  0  0  0  0
 20 26  1  0  0  0  0
 21 22  1  0  0  0  0
 22 23  1  0  0  0  0
 23 24  1  0  0  0  0
 23 25  2  0  0  0  0
 25 26  1  0  0  0  0
 26 27  2  0  0  0  0
 28 29  1  0  0  0  0
 29 30  1  0  0  0  0
 30 31  1  0  0  0  0
  1 32  1  0  0  0  0
  1 33  1  0  0  0  0
  1 34  1  0  0  0  0
  4 35  1  0  0  0  0
  5 36  1  0  0  0  0
 11 37  1  0  0  0  0
 13 38  1  0  0  0  0
 14 39  1  0  0  0  0
 18 40  1  0  0  0  0
 19 41  1  0  0  0  0
 22 42  1  0  0  0  0
 22 43  1  0  0  0  0
 24 44  1  0  0  0  0
 27 45  1  0  0  0  0
 28 46  1  0  0  0  0
 28 47  1  0  0  0  0
 31 48  1  0  0  0  0
 31 49  1  0  0  0  0
 31 50  1  0  0  0  0
M  END
> <IC50[nM]>
2.3

$$$$
CHEMBL3265024
  -OEChem-05192314333D
 Structure written by MMmdl.
 50 54  0     1  0  0  0  0  0999 V2000
   -4.2568   -3.1054   13.5684 C   0  0  0  0  0  0  0  0  0  0  0  0
   -3.8727   -2.3625   14.7149 O   0  0  0  0  0  0  0  0  0  0  0  0
   -2.5248   -2.1122   14.8155 C   0  0  0  0  0  0  0  0  0  0  0  0
   -1.7475   -2.8704   15.6805 C   0  0  0  0  0  0  0  0  0  0  0  0
   -0.3908   -2.6105   15.8142 C   0  0  0  0  0  0  0  0  0  0  0  0
    0.2212   -1.5850   15.0876 C   0  0  0  0  0  0  0  0  0  0  0  0
    1.6034   -1.3608   15.3283 N   0  0  0  0  0  0  0  0  0  0  0  0
    2.5312   -0.4403   14.7667 C   0  0  0  0  0  0  0  0  0  0  0  0
    2.1675    0.3842   13.7368 N   0  0  0  0  0  0  0  0  0  0  0  0
    3.1076    1.2383   13.2220 C   0  0  0  0  0  0  0  0  0  0  0  0
    4.4125    1.2788   13.7032 C   0  0  0  0  0  0  0  0  0  0  0  0
    4.7426    0.4894   14.7579 N   0  0  0  0  0  0  0  0  0  0  0  0
    5.8974    0.3808   15.4860 C   0  0  0  0  0  0  0  0  0  0  0  0
    5.5940   -0.5330   16.5234 C   0  0  0  0  0  0  0  0  0  0  0  0
    4.3802   -1.0455   16.3684 N   0  0  0  0  0  0  0  0  0  0  0  0
    3.8358   -0.3914   15.3289 C   0  0  0  0  0  0  0  0  0  0  0  0
    2.6478    2.1536   12.1231 C   0  0  0  0  0  0  0  0  0  0  0  0
    3.5652    2.6370   11.1626 C   0  0  0  0  0  0  0  0  0  0  0  0
    3.1327    3.4633   10.1244 C   0  0  0  0  0  0  0  0  0  0  0  0
    1.7965    3.8161   10.0403 C   0  0  3  0  0  0  0  0  0  0  0  0
    1.4003    4.6403    9.0163 O   0  0  0  0  0  0  0  0  0  0  0  0
    0.0245    4.4666    8.5995 C   0  0  0  0  0  0  0  0  0  0  0  0
   -1.0306    4.3224    9.7544 C   0  0  0  0  0  0  0  0  0  0  0  0
   -2.2095    4.6594    9.6693 O   0  0  0  0  0  0  0  0  0  0  0  0
   -0.4630    3.7540   10.8496 N   0  0  0  0  0  0  0  0  0  0  0  0
    0.8760    3.3777   10.9729 C   0  0  0  0  0  0  0  0  0  0  0  0
    1.2936    2.5512   12.0256 C   0  0  0  0  0  0  0  0  0  0  0  0
   -0.5545   -0.8186   14.1904 C   0  0  0  0  0  0  0  0  0  0  0  0
   -1.9414   -1.0869   14.0597 C   0  0  0  0  0  0  0  0  0  0  0  0
   -2.7479   -0.3495   13.2074 O   0  0  0  0  0  0  0  0  0  0  0  0
   -2.2257    0.6484   12.3503 C   0  0  0  0  0  0  0  0  0  0  0  0
   -5.3466   -3.2545   13.5757 H   0  0  0  0  0  0  0  0  0  0  0  0
   -3.9683   -2.5545   12.6611 H   0  0  0  0  0  0  0  0  0  0  0  0
   -3.7530   -4.0832   13.5795 H   0  0  0  0  0  0  0  0  0  0  0  0
   -2.2009   -3.6666   16.2523 H   0  0  0  0  0  0  0  0  0  0  0  0
    0.2013   -3.2098   16.4900 H   0  0  0  0  0  0  0  0  0  0  0  0
    1.2380    0.3640   13.3686 H   0  0  0  0  0  0  0  0  0  0  0  0
    5.1480    1.9249   13.2472 H   0  0  0  0  0  0  0  0  0  0  0  0
    6.8364    0.8836   15.3073 H   0  0  0  0  0  0  0  0  0  0  0  0
    6.2627   -0.7805   17.3345 H   0  0  0  0  0  0  0  0  0  0  0  0
    4.6081    2.3650   11.2326 H   0  0  0  0  0  0  0  0  0  0  0  0
    3.8369    3.8258    9.3901 H   0  0  0  0  0  0  0  0  0  0  0  0
    1.5954    2.9328    9.4164 H   0  0  0  0  0  0  0  0  0  0  0  0
   -0.2567    5.3405    7.9936 H   0  0  0  0  0  0  0  0  0  0  0  0
   -0.0278    3.5589    7.9803 H   0  0  0  0  0  0  0  0  0  0  0  0
    0.5797    2.2172   12.7640 H   0  0  0  0  0  0  0  0  0  0  0  0
   -0.0952   -0.0337   13.6078 H   0  0  0  0  0  0  0  0  0  0  0  0
   -3.0443    1.0989   11.7698 H   0  0  0  0  0  0  0  0  0  0  0  0
   -1.7315    1.4259   12.9514 H   0  0  0  0  0  0  0  0  0  0  0  0
   -1.4950    0.1961   11.6636 H   0  0  0  0  0  0  0  0  0  0  0  0
  1  2  1  0  0  0  0
  2  3  1  0  0  0  0
  3  4  2  0  0  0  0
  3 29  1  0  0  0  0
  4  5  1  0  0  0  0
  5  6  2  0  0  0  0
  6  7  1  0  0  0  0
  6 28  1  0  0  0  0
  7  8  2  0  0  0  0
  8  9  1  0  0  0  0
  8 16  1  0  0  0  0
  9 10  1  0  0  0  0
 10 11  2  0  0  0  0
 10 17  1  0  0  0  0
 11 12  1  0  0  0  0
 12 13  1  0  0  0  0
 12 16  1  0  0  0  0
 13 14  2  0  0  0  0
 14 15  1  0  0  0  0
 15 16  2  0  0  0  0
 17 18  1  0  0  0  0
 17 27  2  0  0  0  0
 18 19  2  0  0  0  0
 19 20  1  0  0  0  0
 20 21  1  0  0  0  0
 20 26  1  0  0  0  0
 21 22  1  0  0  0  0
 22 23  1  0  0  0  0
 23 24  2  0  0  0  0
 23 25  1  0  0  0  0
 25 26  2  0  0  0  0
 26 27  1  0  0  0  0
 28 29  2  0  0  0  0
 29 30  1  0  0  0  0
 30 31  1  0  0  0  0
  1 32  1  0  0  0  0
  1 33  1  0  0  0  0
  1 34  1  0  0  0  0
  4 35  1  0  0  0  0
  5 36  1  0  0  0  0
  9 37  1  0  0  0  0
 11 38  1  0  0  0  0
 13 39  1  0  0  0  0
 14 40  1  0  0  0  0
 18 41  1  0  0  0  0
 19 42  1  0  0  0  0
 20 43  1  0  0  0  0
 22 44  1  0  0  0  0
 22 45  1  0  0  0  0
 27 46  1  0  0  0  0
 28 47  1  0  0  0  0
 31 48  1  0  0  0  0
 31 49  1  0  0  0  0
 31 50  1  0  0  0  0
M  END
> <IC50[nM]>
2.3

$$$$
CHEMBL3265024
  -OEChem-05192314333D
 Structure written by MMmdl.
 50 54  0     0  0  0  0  0  0999 V2000
   -4.2568   -3.1054   13.5684 C   0  0  0  0  0  0  0  0  0  0  0  0
   -3.8727   -2.3625   14.7149 O   0  0  0  0  0  0  0  0  0  0  0  0
   -2.5248   -2.1122   14.8155 C   0  0  0  0  0  0  0  0  0  0  0  0
   -1.7475   -2.8704   15.6805 C   0  0  0  0  0  0  0  0  0  0  0  0
   -0.3908   -2.6105   15.8142 C   0  0  0  0  0  0  0  0  0  0  0  0
    0.2212   -1.5850   15.0876 C   0  0  0  0  0  0  0  0  0  0  0  0
    1.6034   -1.3608   15.3283 N   0  0  0  0  0  0  0  0  0  0  0  0
    2.5312   -0.4403   14.7667 C   0  0  0  0  0  0  0  0  0  0  0  0
    2.1675    0.3842   13.7368 N   0  0  0  0  0  0  0  0  0  0  0  0
    3.1076    1.2383   13.2220 C   0  0  0  0  0  0  0  0  0  0  0  0
    4.4125    1.2788   13.7032 C   0  0  0  0  0  0  0  0  0  0  0  0
    4.7426    0.4894   14.7579 N   0  0  0  0  0  0  0  0  0  0  0  0
    5.8974    0.3808   15.4860 C   0  0  0  0  0  0  0  0  0  0  0  0
    5.5940   -0.5330   16.5234 C   0  0  0  0  0  0  0  0  0  0  0  0
    4.3802   -1.0455   16.3684 N   0  0  0  0  0  0  0  0  0  0  0  0
    3.8358   -0.3914   15.3289 C   0  0  0  0  0  0  0  0  0  0  0  0
    2.6478    2.1536   12.1231 C   0  0  0  0  0  0  0  0  0  0  0  0
    3.5652    2.6370   11.1626 C   0  0  0  0  0  0  0  0  0  0  0  0
    3.1327    3.4633   10.1244 C   0  0  0  0  0  0  0  0  0  0  0  0
    1.7965    3.8161   10.0403 C   0  0  0  0  0  0  0  0  0  0  0  0
    1.4003    4.6403    9.0163 O   0  0  0  0  0  0  0  0  0  0  0  0
    0.0245    4.4666    8.5995 C   0  0  0  0  0  0  0  0  0  0  0  0
   -1.0306    4.3224    9.7544 C   0  0  0  0  0  0  0  0  0  0  0  0
   -2.2095    4.6594    9.6693 O   0  0  0  0  0  0  0  0  0  0  0  0
   -0.4630    3.7540   10.8496 N   0  0  0  0  0  0  0  0  0  0  0  0
    0.8760    3.3777   10.9729 C   0  0  0  0  0  0  0  0  0  0  0  0
    1.2936    2.5512   12.0256 C   0  0  0  0  0  0  0  0  0  0  0  0
   -0.5545   -0.8186   14.1904 C   0  0  0  0  0  0  0  0  0  0  0  0
   -1.9414   -1.0869   14.0597 C   0  0  0  0  0  0  0  0  0  0  0  0
   -2.7479   -0.3495   13.2074 O   0  0  0  0  0  0  0  0  0  0  0  0
   -2.2257    0.6484   12.3503 C   0  0  0  0  0  0  0  0  0  0  0  0
   -5.3466   -3.2545   13.5757 H   0  0  0  0  0  0  0  0  0  0  0  0
   -3.9683   -2.5545   12.6611 H   0  0  0  0  0  0  0  0  0  0  0  0
   -3.7530   -4.0832   13.5795 H   0  0  0  0  0  0  0  0  0  0  0  0
   -2.2009   -3.6666   16.2523 H   0  0  0  0  0  0  0  0  0  0  0  0
    0.2013   -3.2098   16.4900 H   0  0  0  0  0  0  0  0  0  0  0  0
    1.2380    0.3640   13.3686 H   0  0  0  0  0  0  0  0  0  0  0  0
    5.1480    1.9249   13.2472 H   0  0  0  0  0  0  0  0  0  0  0  0
    6.8364    0.8836   15.3073 H   0  0  0  0  0  0  0  0  0  0  0  0
    6.2627   -0.7805   17.3345 H   0  0  0  0  0  0  0  0  0  0  0  0
    4.3326    3.1996   11.7146 H   0  0  0  0  0  0  0  0  0  0  0  0
    4.0243    1.7546   10.6929 H   0  0  0  0  0  0  0  0  0  0  0  0
    3.8369    3.8258    9.3901 H   0  0  0  0  0  0  0  0  0  0  0  0
   -0.2567    5.3405    7.9936 H   0  0  0  0  0  0  0  0  0  0  0  0
   -0.0278    3.5589    7.9803 H   0  0  0  0  0  0  0  0  0  0  0  0
    0.5797    2.2172   12.7640 H   0  0  0  0  0  0  0  0  0  0  0  0
   -0.0952   -0.0337   13.6078 H   0  0  0  0  0  0  0  0  0  0  0  0
   -3.0443    1.0989   11.7698 H   0  0  0  0  0  0  0  0  0  0  0  0
   -1.7315    1.4259   12.9514 H   0  0  0  0  0  0  0  0  0  0  0  0
   -1.4950    0.1961   11.6636 H   0  0  0  0  0  0  0  0  0  0  0  0
  1  2  1  0  0  0  0
  2  3  1  0  0  0  0
  3  4  2  0  0  0  0
  3 29  1  0  0  0  0
  4  5  1  0  0  0  0
  5  6  2  0  0  0  0
  6  7  1  0  0  0  0
  6 28  1  0  0  0  0
  7  8  2  0  0  0  0
  8  9  1  0  0  0  0
  8 16  1  0  0  0  0
  9 10  1  0  0  0  0
 10 11  2  0  0  0  0
 10 17  1  0  0  0  0
 11 12  1  0  0  0  0
 12 13  1  0  0  0  0
 12 16  1  0  0  0  0
 13 14  2  0  0  0  0
 14 15  1  0  0  0  0
 15 16  2  0  0  0  0
 17 18  1  0  0  0  0
 17 27  2  0  0  0  0
 18 19  1  0  0  0  0
 19 20  2  0  0  0  0
 20 21  1  0  0  0  0
 20 26  1  0  0  0  0
 21 22  1  0  0  0  0
 22 23  1  0  0  0  0
 23 24  2  0  0  0  0
 23 25  1  0  0  0  0
 25 26  2  0  0  0  0
 26 27  1  0  0  0  0
 28 29  2  0  0  0  0
 29 30  1  0  0  0  0
 30 31  1  0  0  0  0
  1 32  1  0  0  0  0
  1 33  1  0  0  0  0
  1 34  1  0  0  0  0
  4 35  1  0  0  0  0
  5 36  1  0  0  0  0
  9 37  1  0  0  0  0
 11 38  1  0  0  0  0
 13 39  1  0  0  0  0
 14 40  1  0  0  0  0
 18 41  1  0  0  0  0
 18 42  1  0  0  0  0
 19 43  1  0  0  0  0
 22 44  1  0  0  0  0
 22 45  1  0  0  0  0
 27 46  1  0  0  0  0
 28 47  1  0  0  0  0
 31 48  1  0  0  0  0
 31 49  1  0  0  0  0
 31 50  1  0  0  0  0
M  END
> <IC50[nM]>
2.3

$$$$
CHEMBL3265024
  -OEChem-05192314333D
 Structure written by MMmdl.
 50 54  0     0  0  0  0  0  0999 V2000
   -4.2568   -3.1054   13.5684 C   0  0  0  0  0  0  0  0  0  0  0  0
   -3.8727   -2.3625   14.7149 O   0  0  0  0  0  0  0  0  0  0  0  0
   -2.5248   -2.1122   14.8155 C   0  0  0  0  0  0  0  0  0  0  0  0
   -1.7475   -2.8704   15.6805 C   0  0  0  0  0  0  0  0  0  0  0  0
   -0.3908   -2.6105   15.8142 C   0  0  0  0  0  0  0  0  0  0  0  0
    0.2212   -1.5850   15.0876 C   0  0  0  0  0  0  0  0  0  0  0  0
    1.6034   -1.3608   15.3283 N   0  0  0  0  0  0  0  0  0  0  0  0
    2.5312   -0.4403   14.7667 C   0  0  0  0  0  0  0  0  0  0  0  0
    2.1675    0.3842   13.7368 N   0  0  0  0  0  0  0  0  0  0  0  0
    3.1076    1.2383   13.2220 C   0  0  0  0  0  0  0  0  0  0  0  0
    4.4125    1.2788   13.7032 C   0  0  0  0  0  0  0  0  0  0  0  0
    4.7426    0.4894   14.7579 N   0  0  0  0  0  0  0  0  0  0  0  0
    5.8974    0.3808   15.4860 C   0  0  0  0  0  0  0  0  0  0  0  0
    5.5940   -0.5330   16.5234 C   0  0  0  0  0  0  0  0  0  0  0  0
    4.3802   -1.0455   16.3684 N   0  0  0  0  0  0  0  0  0  0  0  0
    3.8358   -0.3914   15.3289 C   0  0  0  0  0  0  0  0  0  0  0  0
    2.6478    2.1536   12.1231 C   0  0  0  0  0  0  0  0  0  0  0  0
    3.5652    2.6370   11.1626 C   0  0  0  0  0  0  0  0  0  0  0  0
    3.1327    3.4633   10.1244 C   0  0  0  0  0  0  0  0  0  0  0  0
    1.7965    3.8161   10.0403 C   0  0  0  0  0  0  0  0  0  0  0  0
    1.4003    4.6403    9.0163 O   0  0  0  0  0  0  0  0  0  0  0  0
    0.0245    4.4666    8.5995 C   0  0  0  0  0  0  0  0  0  0  0  0
   -1.0306    4.3224    9.7544 C   0  0  0  0  0  0  0  0  0  0  0  0
   -2.2095    4.6594    9.6693 O   0  0  0  0  0  0  0  0  0  0  0  0
   -0.4630    3.7540   10.8496 N   0  0  0  0  0  0  0  0  0  0  0  0
    0.8760    3.3777   10.9729 C   0  0  0  0  0  0  0  0  0  0  0  0
    1.2936    2.5512   12.0256 C   0  0  0  0  0  0  0  0  0  0  0  0
   -0.5545   -0.8186   14.1904 C   0  0  0  0  0  0  0  0  0  0  0  0
   -1.9414   -1.0869   14.0597 C   0  0  0  0  0  0  0  0  0  0  0  0
   -2.7479   -0.3495   13.2074 O   0  0  0  0  0  0  0  0  0  0  0  0
   -2.2257    0.6484   12.3503 C   0  0  0  0  0  0  0  0  0  0  0  0
   -5.3466   -3.2545   13.5757 H   0  0  0  0  0  0  0  0  0  0  0  0
   -3.9683   -2.5545   12.6611 H   0  0  0  0  0  0  0  0  0  0  0  0
   -3.7530   -4.0832   13.5795 H   0  0  0  0  0  0  0  0  0  0  0  0
   -2.2009   -3.6666   16.2523 H   0  0  0  0  0  0  0  0  0  0  0  0
    0.2013   -3.2098   16.4900 H   0  0  0  0  0  0  0  0  0  0  0  0
    1.2380    0.3640   13.3686 H   0  0  0  0  0  0  0  0  0  0  0  0
    5.1480    1.9249   13.2472 H   0  0  0  0  0  0  0  0  0  0  0  0
    6.8364    0.8836   15.3073 H   0  0  0  0  0  0  0  0  0  0  0  0
    6.2627   -0.7805   17.3345 H   0  0  0  0  0  0  0  0  0  0  0  0
    4.6081    2.3650   11.2326 H   0  0  0  0  0  0  0  0  0  0  0  0
    3.8369    3.8258    9.3901 H   0  0  0  0  0  0  0  0  0  0  0  0
   -0.2567    5.3405    7.9936 H   0  0  0  0  0  0  0  0  0  0  0  0
   -0.0278    3.5589    7.9803 H   0  0  0  0  0  0  0  0  0  0  0  0
    0.6968    1.6295   11.9605 H   0  0  0  0  0  0  0  0  0  0  0  0
    1.0508    3.0801   12.9590 H   0  0  0  0  0  0  0  0  0  0  0  0
   -0.0952   -0.0337   13.6078 H   0  0  0  0  0  0  0  0  0  0  0  0
   -3.0443    1.0989   11.7698 H   0  0  0  0  0  0  0  0  0  0  0  0
   -1.7315    1.4259   12.9514 H   0  0  0  0  0  0  0  0  0  0  0  0
   -1.4950    0.1961   11.6636 H   0  0  0  0  0  0  0  0  0  0  0  0
  1  2  1  0  0  0  0
  2  3  1  0  0  0  0
  3  4  2  0  0  0  0
  3 29  1  0  0  0  0
  4  5  1  0  0  0  0
  5  6  2  0  0  0  0
  6  7  1  0  0  0  0
  6 28  1  0  0  0  0
  7  8  2  0  0  0  0
  8  9  1  0  0  0  0
  8 16  1  0  0  0  0
  9 10  1  0  0  0  0
 10 11  2  0  0  0  0
 10 17  1  0  0  0  0
 11 12  1  0  0  0  0
 12 13  1  0  0  0  0
 12 16  1  0  0  0  0
 13 14  2  0  0  0  0
 14 15  1  0  0  0  0
 15 16  2  0  0  0  0
 17 18  2  0  0  0  0
 17 27  1  0  0  0  0
 18 19  1  0  0  0  0
 19 20  2  0  0  0  0
 20 21  1  0  0  0  0
 20 26  1  0  0  0  0
 21 22  1  0  0  0  0
 22 23  1  0  0  0  0
 23 24  2  0  0  0  0
 23 25  1  0  0  0  0
 25 26  2  0  0  0  0
 26 27  1  0  0  0  0
 28 29  2  0  0  0  0
 29 30  1  0  0  0  0
 30 31  1  0  0  0  0
  1 32  1  0  0  0  0
  1 33  1  0  0  0  0
  1 34  1  0  0  0  0
  4 35  1  0  0  0  0
  5 36  1  0  0  0  0
  9 37  1  0  0  0  0
 11 38  1  0  0  0  0
 13 39  1  0  0  0  0
 14 40  1  0  0  0  0
 18 41  1  0  0  0  0
 19 42  1  0  0  0  0
 22 43  1  0  0  0  0
 22 44  1  0  0  0  0
 27 45  1  0  0  0  0
 27 46  1  0  0  0  0
 28 47  1  0  0  0  0
 31 48  1  0  0  0  0
 31 49  1  0  0  0  0
 31 50  1  0  0  0  0
M  END
> <IC50[nM]>
2.3

$$$$
CHEMBL3265024
  -OEChem-05192314333D
 Structure written by MMmdl.
 50 54  0     1  0  0  0  0  0999 V2000
   -4.2568   -3.1054   13.5684 C   0  0  0  0  0  0  0  0  0  0  0  0
   -3.8727   -2.3625   14.7149 O   0  0  0  0  0  0  0  0  0  0  0  0
   -2.5248   -2.1122   14.8155 C   0  0  0  0  0  0  0  0  0  0  0  0
   -1.7475   -2.8704   15.6805 C   0  0  0  0  0  0  0  0  0  0  0  0
   -0.3908   -2.6105   15.8142 C   0  0  0  0  0  0  0  0  0  0  0  0
    0.2212   -1.5850   15.0876 C   0  0  0  0  0  0  0  0  0  0  0  0
    1.6034   -1.3608   15.3283 N   0  0  0  0  0  0  0  0  0  0  0  0
    2.5312   -0.4403   14.7667 C   0  0  0  0  0  0  0  0  0  0  0  0
    2.1675    0.3842   13.7368 N   0  0  0  0  0  0  0  0  0  0  0  0
    3.1076    1.2383   13.2220 C   0  0  0  0  0  0  0  0  0  0  0  0
    4.4125    1.2788   13.7032 C   0  0  0  0  0  0  0  0  0  0  0  0
    4.7426    0.4894   14.7579 N   0  0  0  0  0  0  0  0  0  0  0  0
    5.8974    0.3808   15.4860 C   0  0  0  0  0  0  0  0  0  0  0  0
    5.5940   -0.5330   16.5234 C   0  0  0  0  0  0  0  0  0  0  0  0
    4.3802   -1.0455   16.3684 N   0  0  0  0  0  0  0  0  0  0  0  0
    3.8358   -0.3914   15.3289 C   0  0  0  0  0  0  0  0  0  0  0  0
    2.6478    2.1536   12.1231 C   0  0  0  0  0  0  0  0  0  0  0  0
    3.5652    2.6370   11.1626 C   0  0  0  0  0  0  0  0  0  0  0  0
    3.1327    3.4633   10.1244 C   0  0  0  0  0  0  0  0  0  0  0  0
    1.7965    3.8161   10.0403 C   0  0  3  0  0  0  0  0  0  0  0  0
    1.4003    4.6403    9.0163 O   0  0  0  0  0  0  0  0  0  0  0  0
    0.0245    4.4666    8.5995 C   0  0  0  0  0  0  0  0  0  0  0  0
   -1.0306    4.3224    9.7544 C   0  0  0  0  0  0  0  0  0  0  0  0
   -2.2095    4.6594    9.6693 O   0  0  0  0  0  0  0  0  0  0  0  0
   -0.4630    3.7540   10.8496 N   0  0  0  0  0  0  0  0  0  0  0  0
    0.8760    3.3777   10.9729 C   0  0  0  0  0  0  0  0  0  0  0  0
    1.2936    2.5512   12.0256 C   0  0  0  0  0  0  0  0  0  0  0  0
   -0.5545   -0.8186   14.1904 C   0  0  0  0  0  0  0  0  0  0  0  0
   -1.9414   -1.0869   14.0597 C   0  0  0  0  0  0  0  0  0  0  0  0
   -2.7479   -0.3495   13.2074 O   0  0  0  0  0  0  0  0  0  0  0  0
   -2.2257    0.6484   12.3503 C   0  0  0  0  0  0  0  0  0  0  0  0
   -5.3466   -3.2545   13.5757 H   0  0  0  0  0  0  0  0  0  0  0  0
   -3.9683   -2.5545   12.6611 H   0  0  0  0  0  0  0  0  0  0  0  0
   -3.7530   -4.0832   13.5795 H   0  0  0  0  0  0  0  0  0  0  0  0
   -2.2009   -3.6666   16.2523 H   0  0  0  0  0  0  0  0  0  0  0  0
    0.2013   -3.2098   16.4900 H   0  0  0  0  0  0  0  0  0  0  0  0
    5.0739    0.9993   12.8699 H   0  0  0  0  0  0  0  0  0  0  0  0
    4.6161    2.3182   14.0002 H   0  0  0  0  0  0  0  0  0  0  0  0
    6.8364    0.8836   15.3073 H   0  0  0  0  0  0  0  0  0  0  0  0
    6.2627   -0.7805   17.3345 H   0  0  0  0  0  0  0  0  0  0  0  0
    4.6081    2.3650   11.2326 H   0  0  0  0  0  0  0  0  0  0  0  0
    3.8369    3.8258    9.3901 H   0  0  0  0  0  0  0  0  0  0  0  0
    1.5954    2.9328    9.4164 H   0  0  0  0  0  0  0  0  0  0  0  0
   -0.2567    5.3405    7.9936 H   0  0  0  0  0  0  0  0  0  0  0  0
   -0.0278    3.5589    7.9803 H   0  0  0  0  0  0  0  0  0  0  0  0
    0.5797    2.2172   12.7640 H   0  0  0  0  0  0  0  0  0  0  0  0
   -0.0952   -0.0337   13.6078 H   0  0  0  0  0  0  0  0  0  0  0  0
   -3.0443    1.0989   11.7698 H   0  0  0  0  0  0  0  0  0  0  0  0
   -1.7315    1.4259   12.9514 H   0  0  0  0  0  0  0  0  0  0  0  0
   -1.4950    0.1961   11.6636 H   0  0  0  0  0  0  0  0  0  0  0  0
  1  2  1  0  0  0  0
  2  3  1  0  0  0  0
  3  4  2  0  0  0  0
  3 29  1  0  0  0  0
  4  5  1  0  0  0  0
  5  6  2  0  0  0  0
  6  7  1  0  0  0  0
  6 28  1  0  0  0  0
  7  8  2  0  0  0  0
  8  9  1  0  0  0  0
  8 16  1  0  0  0  0
  9 10  2  0  0  0  0
 10 11  1  0  0  0  0
 10 17  1  0  0  0  0
 11 12  1  0  0  0  0
 12 13  1  0  0  0  0
 12 16  1  0  0  0  0
 13 14  2  0  0  0  0
 14 15  1  0  0  0  0
 15 16  2  0  0  0  0
 17 18  1  0  0  0  0
 17 27  2  0  0  0  0
 18 19  2  0  0  0  0
 19 20  1  0  0  0  0
 20 21  1  0  0  0  0
 20 26  1  0  0  0  0
 21 22  1  0  0  0  0
 22 23  1  0  0  0  0
 23 24  2  0  0  0  0
 23 25  1  0  0  0  0
 25 26  2  0  0  0  0
 26 27  1  0  0  0  0
 28 29  2  0  0  0  0
 29 30  1  0  0  0  0
 30 31  1  0  0  0  0
  1 32  1  0  0  0  0
  1 33  1  0  0  0  0
  1 34  1  0  0  0  0
  4 35  1  0  0  0  0
  5 36  1  0  0  0  0
 11 37  1  0  0  0  0
 11 38  1  0  0  0  0
 13 39  1  0  0  0  0
 14 40  1  0  0  0  0
 18 41  1  0  0  0  0
 19 42  1  0  0  0  0
 20 43  1  0  0  0  0
 22 44  1  0  0  0  0
 22 45  1  0  0  0  0
 27 46  1  0  0  0  0
 28 47  1  0  0  0  0
 31 48  1  0  0  0  0
 31 49  1  0  0  0  0
 31 50  1  0  0  0  0
M  END
> <IC50[nM]>
2.3

$$$$
CHEMBL3265024
  -OEChem-05192314333D
 Structure written by MMmdl.
 50 54  0     0  0  0  0  0  0999 V2000
   -4.2568   -3.1054   13.5684 C   0  0  0  0  0  0  0  0  0  0  0  0
   -3.8727   -2.3625   14.7149 O   0  0  0  0  0  0  0  0  0  0  0  0
   -2.5248   -2.1122   14.8155 C   0  0  0  0  0  0  0  0  0  0  0  0
   -1.7475   -2.8704   15.6805 C   0  0  0  0  0  0  0  0  0  0  0  0
   -0.3908   -2.6105   15.8142 C   0  0  0  0  0  0  0  0  0  0  0  0
    0.2212   -1.5850   15.0876 C   0  0  0  0  0  0  0  0  0  0  0  0
    1.6034   -1.3608   15.3283 N   0  0  0  0  0  0  0  0  0  0  0  0
    2.5312   -0.4403   14.7667 C   0  0  0  0  0  0  0  0  0  0  0  0
    2.1675    0.3842   13.7368 N   0  0  0  0  0  0  0  0  0  0  0  0
    3.1076    1.2383   13.2220 C   0  0  0  0  0  0  0  0  0  0  0  0
    4.4125    1.2788   13.7032 C   0  0  0  0  0  0  0  0  0  0  0  0
    4.7426    0.4894   14.7579 N   0  0  0  0  0  0  0  0  0  0  0  0
    5.8974    0.3808   15.4860 C   0  0  0  0  0  0  0  0  0  0  0  0
    5.5940   -0.5330   16.5234 C   0  0  0  0  0  0  0  0  0  0  0  0
    4.3802   -1.0455   16.3684 N   0  0  0  0  0  0  0  0  0  0  0  0
    3.8358   -0.3914   15.3289 C   0  0  0  0  0  0  0  0  0  0  0  0
    2.6478    2.1536   12.1231 C   0  0  0  0  0  0  0  0  0  0  0  0
    3.5652    2.6370   11.1626 C   0  0  0  0  0  0  0  0  0  0  0  0
    3.1327    3.4633   10.1244 C   0  0  0  0  0  0  0  0  0  0  0  0
    1.7965    3.8161   10.0403 C   0  0  0  0  0  0  0  0  0  0  0  0
    1.4003    4.6403    9.0163 O   0  0  0  0  0  0  0  0  0  0  0  0
    0.0245    4.4666    8.5995 C   0  0  0  0  0  0  0  0  0  0  0  0
   -1.0306    4.3224    9.7544 C   0  0  0  0  0  0  0  0  0  0  0  0
   -2.2095    4.6594    9.6693 O   0  0  0  0  0  0  0  0  0  0  0  0
   -0.4630    3.7540   10.8496 N   0  0  0  0  0  0  0  0  0  0  0  0
    0.8760    3.3777   10.9729 C   0  0  0  0  0  0  0  0  0  0  0  0
    1.2936    2.5512   12.0256 C   0  0  0  0  0  0  0  0  0  0  0  0
   -0.5545   -0.8186   14.1904 C   0  0  0  0  0  0  0  0  0  0  0  0
   -1.9414   -1.0869   14.0597 C   0  0  0  0  0  0  0  0  0  0  0  0
   -2.7479   -0.3495   13.2074 O   0  0  0  0  0  0  0  0  0  0  0  0
   -2.2257    0.6484   12.3503 C   0  0  0  0  0  0  0  0  0  0  0  0
   -5.3466   -3.2545   13.5757 H   0  0  0  0  0  0  0  0  0  0  0  0
   -3.9683   -2.5545   12.6611 H   0  0  0  0  0  0  0  0  0  0  0  0
   -3.7530   -4.0832   13.5795 H   0  0  0  0  0  0  0  0  0  0  0  0
   -2.2009   -3.6666   16.2523 H   0  0  0  0  0  0  0  0  0  0  0  0
    0.2013   -3.2098   16.4900 H   0  0  0  0  0  0  0  0  0  0  0  0
    5.0739    0.9993   12.8699 H   0  0  0  0  0  0  0  0  0  0  0  0
    4.6161    2.3182   14.0002 H   0  0  0  0  0  0  0  0  0  0  0  0
    6.8364    0.8836   15.3073 H   0  0  0  0  0  0  0  0  0  0  0  0
    6.2627   -0.7805   17.3345 H   0  0  0  0  0  0  0  0  0  0  0  0
    4.3326    3.1996   11.7146 H   0  0  0  0  0  0  0  0  0  0  0  0
    4.0243    1.7546   10.6929 H   0  0  0  0  0  0  0  0  0  0  0  0
    3.8369    3.8258    9.3901 H   0  0  0  0  0  0  0  0  0  0  0  0
   -0.2567    5.3405    7.9936 H   0  0  0  0  0  0  0  0  0  0  0  0
   -0.0278    3.5589    7.9803 H   0  0  0  0  0  0  0  0  0  0  0  0
    0.5797    2.2172   12.7640 H   0  0  0  0  0  0  0  0  0  0  0  0
   -0.0952   -0.0337   13.6078 H   0  0  0  0  0  0  0  0  0  0  0  0
   -3.0443    1.0989   11.7698 H   0  0  0  0  0  0  0  0  0  0  0  0
   -1.7315    1.4259   12.9514 H   0  0  0  0  0  0  0  0  0  0  0  0
   -1.4950    0.1961   11.6636 H   0  0  0  0  0  0  0  0  0  0  0  0
  1  2  1  0  0  0  0
  2  3  1  0  0  0  0
  3  4  2  0  0  0  0
  3 29  1  0  0  0  0
  4  5  1  0  0  0  0
  5  6  2  0  0  0  0
  6  7  1  0  0  0  0
  6 28  1  0  0  0  0
  7  8  2  0  0  0  0
  8  9  1  0  0  0  0
  8 16  1  0  0  0  0
  9 10  2  0  0  0  0
 10 11  1  0  0  0  0
 10 17  1  0  0  0  0
 11 12  1  0  0  0  0
 12 13  1  0  0  0  0
 12 16  1  0  0  0  0
 13 14  2  0  0  0  0
 14 15  1  0  0  0  0
 15 16  2  0  0  0  0
 17 18  1  0  0  0  0
 17 27  2  0  0  0  0
 18 19  1  0  0  0  0
 19 20  2  0  0  0  0
 20 21  1  0  0  0  0
 20 26  1  0  0  0  0
 21 22  1  0  0  0  0
 22 23  1  0  0  0  0
 23 24  2  0  0  0  0
 23 25  1  0  0  0  0
 25 26  2  0  0  0  0
 26 27  1  0  0  0  0
 28 29  2  0  0  0  0
 29 30  1  0  0  0  0
 30 31  1  0  0  0  0
  1 32  1  0  0  0  0
  1 33  1  0  0  0  0
  1 34  1  0  0  0  0
  4 35  1  0  0  0  0
  5 36  1  0  0  0  0
 11 37  1  0  0  0  0
 11 38  1  0  0  0  0
 13 39  1  0  0  0  0
 14 40  1  0  0  0  0
 18 41  1  0  0  0  0
 18 42  1  0  0  0  0
 19 43  1  0  0  0  0
 22 44  1  0  0  0  0
 22 45  1  0  0  0  0
 27 46  1  0  0  0  0
 28 47  1  0  0  0  0
 31 48  1  0  0  0  0
 31 49  1  0  0  0  0
 31 50  1  0  0  0  0
M  END
> <IC50[nM]>
2.3

$$$$
CHEMBL3265024
  -OEChem-05192314333D
 Structure written by MMmdl.
 50 54  0     0  0  0  0  0  0999 V2000
   -4.2568   -3.1054   13.5684 C   0  0  0  0  0  0  0  0  0  0  0  0
   -3.8727   -2.3625   14.7149 O   0  0  0  0  0  0  0  0  0  0  0  0
   -2.5248   -2.1122   14.8155 C   0  0  0  0  0  0  0  0  0  0  0  0
   -1.7475   -2.8704   15.6805 C   0  0  0  0  0  0  0  0  0  0  0  0
   -0.3908   -2.6105   15.8142 C   0  0  0  0  0  0  0  0  0  0  0  0
    0.2212   -1.5850   15.0876 C   0  0  0  0  0  0  0  0  0  0  0  0
    1.6034   -1.3608   15.3283 N   0  0  0  0  0  0  0  0  0  0  0  0
    2.5312   -0.4403   14.7667 C   0  0  0  0  0  0  0  0  0  0  0  0
    2.1675    0.3842   13.7368 N   0  0  0  0  0  0  0  0  0  0  0  0
    3.1076    1.2383   13.2220 C   0  0  0  0  0  0  0  0  0  0  0  0
    4.4125    1.2788   13.7032 C   0  0  0  0  0  0  0  0  0  0  0  0
    4.7426    0.4894   14.7579 N   0  0  0  0  0  0  0  0  0  0  0  0
    5.8974    0.3808   15.4860 C   0  0  0  0  0  0  0  0  0  0  0  0
    5.5940   -0.5330   16.5234 C   0  0  0  0  0  0  0  0  0  0  0  0
    4.3802   -1.0455   16.3684 N   0  0  0  0  0  0  0  0  0  0  0  0
    3.8358   -0.3914   15.3289 C   0  0  0  0  0  0  0  0  0  0  0  0
    2.6478    2.1536   12.1231 C   0  0  0  0  0  0  0  0  0  0  0  0
    3.5652    2.6370   11.1626 C   0  0  0  0  0  0  0  0  0  0  0  0
    3.1327    3.4633   10.1244 C   0  0  0  0  0  0  0  0  0  0  0  0
    1.7965    3.8161   10.0403 C   0  0  0  0  0  0  0  0  0  0  0  0
    1.4003    4.6403    9.0163 O   0  0  0  0  0  0  0  0  0  0  0  0
    0.0245    4.4666    8.5995 C   0  0  0  0  0  0  0  0  0  0  0  0
   -1.0306    4.3224    9.7544 C   0  0  0  0  0  0  0  0  0  0  0  0
   -2.2095    4.6594    9.6693 O   0  0  0  0  0  0  0  0  0  0  0  0
   -0.4630    3.7540   10.8496 N   0  0  0  0  0  0  0  0  0  0  0  0
    0.8760    3.3777   10.9729 C   0  0  0  0  0  0  0  0  0  0  0  0
    1.2936    2.5512   12.0256 C   0  0  0  0  0  0  0  0  0  0  0  0
   -0.5545   -0.8186   14.1904 C   0  0  0  0  0  0  0  0  0  0  0  0
   -1.9414   -1.0869   14.0597 C   0  0  0  0  0  0  0  0  0  0  0  0
   -2.7479   -0.3495   13.2074 O   0  0  0  0  0  0  0  0  0  0  0  0
   -2.2257    0.6484   12.3503 C   0  0  0  0  0  0  0  0  0  0  0  0
   -5.3466   -3.2545   13.5757 H   0  0  0  0  0  0  0  0  0  0  0  0
   -3.9683   -2.5545   12.6611 H   0  0  0  0  0  0  0  0  0  0  0  0
   -3.7530   -4.0832   13.5795 H   0  0  0  0  0  0  0  0  0  0  0  0
   -2.2009   -3.6666   16.2523 H   0  0  0  0  0  0  0  0  0  0  0  0
    0.2013   -3.2098   16.4900 H   0  0  0  0  0  0  0  0  0  0  0  0
    5.0739    0.9993   12.8699 H   0  0  0  0  0  0  0  0  0  0  0  0
    4.6161    2.3182   14.0002 H   0  0  0  0  0  0  0  0  0  0  0  0
    6.8364    0.8836   15.3073 H   0  0  0  0  0  0  0  0  0  0  0  0
    6.2627   -0.7805   17.3345 H   0  0  0  0  0  0  0  0  0  0  0  0
    4.6081    2.3650   11.2326 H   0  0  0  0  0  0  0  0  0  0  0  0
    3.8369    3.8258    9.3901 H   0  0  0  0  0  0  0  0  0  0  0  0
   -0.2567    5.3405    7.9936 H   0  0  0  0  0  0  0  0  0  0  0  0
   -0.0278    3.5589    7.9803 H   0  0  0  0  0  0  0  0  0  0  0  0
    0.6968    1.6295   11.9605 H   0  0  0  0  0  0  0  0  0  0  0  0
    1.0508    3.0801   12.9590 H   0  0  0  0  0  0  0  0  0  0  0  0
   -0.0952   -0.0337   13.6078 H   0  0  0  0  0  0  0  0  0  0  0  0
   -3.0443    1.0989   11.7698 H   0  0  0  0  0  0  0  0  0  0  0  0
   -1.7315    1.4259   12.9514 H   0  0  0  0  0  0  0  0  0  0  0  0
   -1.4950    0.1961   11.6636 H   0  0  0  0  0  0  0  0  0  0  0  0
  1  2  1  0  0  0  0
  2  3  1  0  0  0  0
  3  4  2  0  0  0  0
  3 29  1  0  0  0  0
  4  5  1  0  0  0  0
  5  6  2  0  0  0  0
  6  7  1  0  0  0  0
  6 28  1  0  0  0  0
  7  8  2  0  0  0  0
  8  9  1  0  0  0  0
  8 16  1  0  0  0  0
  9 10  2  0  0  0  0
 10 11  1  0  0  0  0
 10 17  1  0  0  0  0
 11 12  1  0  0  0  0
 12 13  1  0  0  0  0
 12 16  1  0  0  0  0
 13 14  2  0  0  0  0
 14 15  1  0  0  0  0
 15 16  2  0  0  0  0
 17 18  2  0  0  0  0
 17 27  1  0  0  0  0
 18 19  1  0  0  0  0
 19 20  2  0  0  0  0
 20 21  1  0  0  0  0
 20 26  1  0  0  0  0
 21 22  1  0  0  0  0
 22 23  1  0  0  0  0
 23 24  2  0  0  0  0
 23 25  1  0  0  0  0
 25 26  2  0  0  0  0
 26 27  1  0  0  0  0
 28 29  2  0  0  0  0
 29 30  1  0  0  0  0
 30 31  1  0  0  0  0
  1 32  1  0  0  0  0
  1 33  1  0  0  0  0
  1 34  1  0  0  0  0
  4 35  1  0  0  0  0
  5 36  1  0  0  0  0
 11 37  1  0  0  0  0
 11 38  1  0  0  0  0
 13 39  1  0  0  0  0
 14 40  1  0  0  0  0
 18 41  1  0  0  0  0
 19 42  1  0  0  0  0
 22 43  1  0  0  0  0
 22 44  1  0  0  0  0
 27 45  1  0  0  0  0
 27 46  1  0  0  0  0
 28 47  1  0  0  0  0
 31 48  1  0  0  0  0
 31 49  1  0  0  0  0
 31 50  1  0  0  0  0
M  END
> <IC50[nM]>
2.3

$$$$
CHEMBL3265024
  -OEChem-05192314333D
 Structure written by MMmdl.
 50 54  0     1  0  0  0  0  0999 V2000
   -4.2568   -3.1054   13.5684 C   0  0  0  0  0  0  0  0  0  0  0  0
   -3.8727   -2.3625   14.7149 O   0  0  0  0  0  0  0  0  0  0  0  0
   -2.5248   -2.1122   14.8155 C   0  0  3  0  0  0  0  0  0  0  0  0
   -1.7475   -2.8704   15.6805 C   0  0  0  0  0  0  0  0  0  0  0  0
   -0.3908   -2.6105   15.8142 C   0  0  0  0  0  0  0  0  0  0  0  0
    0.2212   -1.5850   15.0876 C   0  0  0  0  0  0  0  0  0  0  0  0
    1.6034   -1.3608   15.3283 N   0  0  0  0  0  0  0  0  0  0  0  0
    2.5312   -0.4403   14.7667 C   0  0  0  0  0  0  0  0  0  0  0  0
    2.1675    0.3842   13.7368 N   0  0  0  0  0  0  0  0  0  0  0  0
    3.1076    1.2383   13.2220 C   0  0  0  0  0  0  0  0  0  0  0  0
    4.4125    1.2788   13.7032 C   0  0  0  0  0  0  0  0  0  0  0  0
    4.7426    0.4894   14.7579 N   0  0  0  0  0  0  0  0  0  0  0  0
    5.8974    0.3808   15.4860 C   0  0  0  0  0  0  0  0  0  0  0  0
    5.5940   -0.5330   16.5234 C   0  0  0  0  0  0  0  0  0  0  0  0
    4.3802   -1.0455   16.3684 N   0  0  0  0  0  0  0  0  0  0  0  0
    3.8358   -0.3914   15.3289 C   0  0  0  0  0  0  0  0  0  0  0  0
    2.6478    2.1536   12.1231 C   0  0  0  0  0  0  0  0  0  0  0  0
    3.5652    2.6370   11.1626 C   0  0  0  0  0  0  0  0  0  0  0  0
    3.1327    3.4633   10.1244 C   0  0  0  0  0  0  0  0  0  0  0  0
    1.7965    3.8161   10.0403 C   0  0  3  0  0  0  0  0  0  0  0  0
    1.4003    4.6403    9.0163 O   0  0  0  0  0  0  0  0  0  0  0  0
    0.0245    4.4666    8.5995 C   0  0  0  0  0  0  0  0  0  0  0  0
   -1.0306    4.3224    9.7544 C   0  0  0  0  0  0  0  0  0  0  0  0
   -2.2095    4.6594    9.6693 O   0  0  0  0  0  0  0  0  0  0  0  0
   -0.4630    3.7540   10.8496 N   0  0  0  0  0  0  0  0  0  0  0  0
    0.8760    3.3777   10.9729 C   0  0  0  0  0  0  0  0  0  0  0  0
    1.2936    2.5512   12.0256 C   0  0  0  0  0  0  0  0  0  0  0  0
   -0.5545   -0.8186   14.1904 C   0  0  0  0  0  0  0  0  0  0  0  0
   -1.9414   -1.0869   14.0597 C   0  0  0  0  0  0  0  0  0  0  0  0
   -2.7479   -0.3495   13.2074 O   0  0  0  0  0  0  0  0  0  0  0  0
   -2.2257    0.6484   12.3503 C   0  0  0  0  0  0  0  0  0  0  0  0
   -5.3466   -3.2545   13.5757 H   0  0  0  0  0  0  0  0  0  0  0  0
   -3.9683   -2.5545   12.6611 H   0  0  0  0  0  0  0  0  0  0  0  0
   -3.7530   -4.0832   13.5795 H   0  0  0  0  0  0  0  0  0  0  0  0
   -2.3272   -2.8281   14.0041 H   0  0  0  0  0  0  0  0  0  0  0  0
   -2.2009   -3.6666   16.2523 H   0  0  0  0  0  0  0  0  0  0  0  0
    0.2013   -3.2098   16.4900 H   0  0  0  0  0  0  0  0  0  0  0  0
    5.1480    1.9249   13.2472 H   0  0  0  0  0  0  0  0  0  0  0  0
    6.8364    0.8836   15.3073 H   0  0  0  0  0  0  0  0  0  0  0  0
    6.2627   -0.7805   17.3345 H   0  0  0  0  0  0  0  0  0  0  0  0
    4.6081    2.3650   11.2326 H   0  0  0  0  0  0  0  0  0  0  0  0
    3.8369    3.8258    9.3901 H   0  0  0  0  0  0  0  0  0  0  0  0
    1.5954    2.9328    9.4164 H   0  0  0  0  0  0  0  0  0  0  0  0
   -0.2567    5.3405    7.9936 H   0  0  0  0  0  0  0  0  0  0  0  0
   -0.0278    3.5589    7.9803 H   0  0  0  0  0  0  0  0  0  0  0  0
    0.5797    2.2172   12.7640 H   0  0  0  0  0  0  0  0  0  0  0  0
   -0.0952   -0.0337   13.6078 H   0  0  0  0  0  0  0  0  0  0  0  0
   -3.0443    1.0989   11.7698 H   0  0  0  0  0  0  0  0  0  0  0  0
   -1.7315    1.4259   12.9514 H   0  0  0  0  0  0  0  0  0  0  0  0
   -1.4950    0.1961   11.6636 H   0  0  0  0  0  0  0  0  0  0  0  0
  1  2  1  0  0  0  0
  2  3  1  0  0  0  0
  3  4  1  0  0  0  0
  3 29  1  0  0  0  0
  4  5  2  0  0  0  0
  5  6  1  0  0  0  0
  6  7  2  0  0  0  0
  6 28  1  0  0  0  0
  7  8  1  0  0  0  0
  8  9  2  0  0  0  0
  8 16  1  0  0  0  0
  9 10  1  0  0  0  0
 10 11  2  0  0  0  0
 10 17  1  0  0  0  0
 11 12  1  0  0  0  0
 12 13  1  0  0  0  0
 12 16  1  0  0  0  0
 13 14  2  0  0  0  0
 14 15  1  0  0  0  0
 15 16  2  0  0  0  0
 17 18  1  0  0  0  0
 17 27  2  0  0  0  0
 18 19  2  0  0  0  0
 19 20  1  0  0  0  0
 20 21  1  0  0  0  0
 20 26  1  0  0  0  0
 21 22  1  0  0  0  0
 22 23  1  0  0  0  0
 23 24  2  0  0  0  0
 23 25  1  0  0  0  0
 25 26  2  0  0  0  0
 26 27  1  0  0  0  0
 28 29  2  0  0  0  0
 29 30  1  0  0  0  0
 30 31  1  0  0  0  0
  1 32  1  0  0  0  0
  1 33  1  0  0  0  0
  1 34  1  0  0  0  0
  3 35  1  0  0  0  0
  4 36  1  0  0  0  0
  5 37  1  0  0  0  0
 11 38  1  0  0  0  0
 13 39  1  0  0  0  0
 14 40  1  0  0  0  0
 18 41  1  0  0  0  0
 19 42  1  0  0  0  0
 20 43  1  0  0  0  0
 22 44  1  0  0  0  0
 22 45  1  0  0  0  0
 27 46  1  0  0  0  0
 28 47  1  0  0  0  0
 31 48  1  0  0  0  0
 31 49  1  0  0  0  0
 31 50  1  0  0  0  0
M  END
> <IC50[nM]>
2.3

$$$$
CHEMBL3265024
  -OEChem-05192314333D
 Structure written by MMmdl.
 50 54  0     1  0  0  0  0  0999 V2000
   -4.2568   -3.1054   13.5684 C   0  0  0  0  0  0  0  0  0  0  0  0
   -3.8727   -2.3625   14.7149 O   0  0  0  0  0  0  0  0  0  0  0  0
   -2.5248   -2.1122   14.8155 C   0  0  0  0  0  0  0  0  0  0  0  0
   -1.7475   -2.8704   15.6805 C   0  0  0  0  0  0  0  0  0  0  0  0
   -0.3908   -2.6105   15.8142 C   0  0  0  0  0  0  0  0  0  0  0  0
    0.2212   -1.5850   15.0876 C   0  0  0  0  0  0  0  0  0  0  0  0
    1.6034   -1.3608   15.3283 N   0  0  0  0  0  0  0  0  0  0  0  0
    2.5312   -0.4403   14.7667 C   0  0  0  0  0  0  0  0  0  0  0  0
    2.1675    0.3842   13.7368 N   0  0  0  0  0  0  0  0  0  0  0  0
    3.1076    1.2383   13.2220 C   0  0  0  0  0  0  0  0  0  0  0  0
    4.4125    1.2788   13.7032 C   0  0  0  0  0  0  0  0  0  0  0  0
    4.7426    0.4894   14.7579 N   0  0  0  0  0  0  0  0  0  0  0  0
    5.8974    0.3808   15.4860 C   0  0  0  0  0  0  0  0  0  0  0  0
    5.5940   -0.5330   16.5234 C   0  0  0  0  0  0  0  0  0  0  0  0
    4.3802   -1.0455   16.3684 N   0  0  0  0  0  0  0  0  0  0  0  0
    3.8358   -0.3914   15.3289 C   0  0  0  0  0  0  0  0  0  0  0  0
    2.6478    2.1536   12.1231 C   0  0  0  0  0  0  0  0  0  0  0  0
    3.5652    2.6370   11.1626 C   0  0  0  0  0  0  0  0  0  0  0  0
    3.1327    3.4633   10.1244 C   0  0  0  0  0  0  0  0  0  0  0  0
    1.7965    3.8161   10.0403 C   0  0  3  0  0  0  0  0  0  0  0  0
    1.4003    4.6403    9.0163 O   0  0  0  0  0  0  0  0  0  0  0  0
    0.0245    4.4666    8.5995 C   0  0  0  0  0  0  0  0  0  0  0  0
   -1.0306    4.3224    9.7544 C   0  0  0  0  0  0  0  0  0  0  0  0
   -2.2095    4.6594    9.6693 O   0  0  0  0  0  0  0  0  0  0  0  0
   -0.4630    3.7540   10.8496 N   0  0  0  0  0  0  0  0  0  0  0  0
    0.8760    3.3777   10.9729 C   0  0  0  0  0  0  0  0  0  0  0  0
    1.2936    2.5512   12.0256 C   0  0  0  0  0  0  0  0  0  0  0  0
   -0.5545   -0.8186   14.1904 C   0  0  0  0  0  0  0  0  0  0  0  0
   -1.9414   -1.0869   14.0597 C   0  0  0  0  0  0  0  0  0  0  0  0
   -2.7479   -0.3495   13.2074 O   0  0  0  0  0  0  0  0  0  0  0  0
   -2.2257    0.6484   12.3503 C   0  0  0  0  0  0  0  0  0  0  0  0
   -5.3466   -3.2545   13.5757 H   0  0  0  0  0  0  0  0  0  0  0  0
   -3.9683   -2.5545   12.6611 H   0  0  0  0  0  0  0  0  0  0  0  0
   -3.7530   -4.0832   13.5795 H   0  0  0  0  0  0  0  0  0  0  0  0
   -2.2009   -3.6666   16.2523 H   0  0  0  0  0  0  0  0  0  0  0  0
   -0.2187   -2.3862   16.8772 H   0  0  0  0  0  0  0  0  0  0  0  0
    0.1334   -3.5396   15.5460 H   0  0  0  0  0  0  0  0  0  0  0  0
    5.1480    1.9249   13.2472 H   0  0  0  0  0  0  0  0  0  0  0  0
    6.8364    0.8836   15.3073 H   0  0  0  0  0  0  0  0  0  0  0  0
    6.2627   -0.7805   17.3345 H   0  0  0  0  0  0  0  0  0  0  0  0
    4.6081    2.3650   11.2326 H   0  0  0  0  0  0  0  0  0  0  0  0
    3.8369    3.8258    9.3901 H   0  0  0  0  0  0  0  0  0  0  0  0
    1.5954    2.9328    9.4164 H   0  0  0  0  0  0  0  0  0  0  0  0
   -0.2567    5.3405    7.9936 H   0  0  0  0  0  0  0  0  0  0  0  0
   -0.0278    3.5589    7.9803 H   0  0  0  0  0  0  0  0  0  0  0  0
    0.5797    2.2172   12.7640 H   0  0  0  0  0  0  0  0  0  0  0  0
   -0.0952   -0.0337   13.6078 H   0  0  0  0  0  0  0  0  0  0  0  0
   -3.0443    1.0989   11.7698 H   0  0  0  0  0  0  0  0  0  0  0  0
   -1.7315    1.4259   12.9514 H   0  0  0  0  0  0  0  0  0  0  0  0
   -1.4950    0.1961   11.6636 H   0  0  0  0  0  0  0  0  0  0  0  0
  1  2  1  0  0  0  0
  2  3  1  0  0  0  0
  3  4  2  0  0  0  0
  3 29  1  0  0  0  0
  4  5  1  0  0  0  0
  5  6  1  0  0  0  0
  6  7  2  0  0  0  0
  6 28  1  0  0  0  0
  7  8  1  0  0  0  0
  8  9  2  0  0  0  0
  8 16  1  0  0  0  0
  9 10  1  0  0  0  0
 10 11  2  0  0  0  0
 10 17  1  0  0  0  0
 11 12  1  0  0  0  0
 12 13  1  0  0  0  0
 12 16  1  0  0  0  0
 13 14  2  0  0  0  0
 14 15  1  0  0  0  0
 15 16  2  0  0  0  0
 17 18  1  0  0  0  0
 17 27  2  0  0  0  0
 18 19  2  0  0  0  0
 19 20  1  0  0  0  0
 20 21  1  0  0  0  0
 20 26  1  0  0  0  0
 21 22  1  0  0  0  0
 22 23  1  0  0  0  0
 23 24  2  0  0  0  0
 23 25  1  0  0  0  0
 25 26  2  0  0  0  0
 26 27  1  0  0  0  0
 28 29  2  0  0  0  0
 29 30  1  0  0  0  0
 30 31  1  0  0  0  0
  1 32  1  0  0  0  0
  1 33  1  0  0  0  0
  1 34  1  0  0  0  0
  4 35  1  0  0  0  0
  5 36  1  0  0  0  0
  5 37  1  0  0  0  0
 11 38  1  0  0  0  0
 13 39  1  0  0  0  0
 14 40  1  0  0  0  0
 18 41  1  0  0  0  0
 19 42  1  0  0  0  0
 20 43  1  0  0  0  0
 22 44  1  0  0  0  0
 22 45  1  0  0  0  0
 27 46  1  0  0  0  0
 28 47  1  0  0  0  0
 31 48  1  0  0  0  0
 31 49  1  0  0  0  0
 31 50  1  0  0  0  0
M  END
> <IC50[nM]>
2.3

$$$$
CHEMBL3265024
  -OEChem-05192314333D
 Structure written by MMmdl.
 50 54  0     1  0  0  0  0  0999 V2000
   -4.2568   -3.1054   13.5684 C   0  0  0  0  0  0  0  0  0  0  0  0
   -3.8727   -2.3625   14.7149 O   0  0  0  0  0  0  0  0  0  0  0  0
   -2.5248   -2.1122   14.8155 C   0  0  3  0  0  0  0  0  0  0  0  0
   -1.7475   -2.8704   15.6805 C   0  0  0  0  0  0  0  0  0  0  0  0
   -0.3908   -2.6105   15.8142 C   0  0  0  0  0  0  0  0  0  0  0  0
    0.2212   -1.5850   15.0876 C   0  0  0  0  0  0  0  0  0  0  0  0
    1.6034   -1.3608   15.3283 N   0  0  0  0  0  0  0  0  0  0  0  0
    2.5312   -0.4403   14.7667 C   0  0  0  0  0  0  0  0  0  0  0  0
    2.1675    0.3842   13.7368 N   0  0  0  0  0  0  0  0  0  0  0  0
    3.1076    1.2383   13.2220 C   0  0  0  0  0  0  0  0  0  0  0  0
    4.4125    1.2788   13.7032 C   0  0  0  0  0  0  0  0  0  0  0  0
    4.7426    0.4894   14.7579 N   0  0  0  0  0  0  0  0  0  0  0  0
    5.8974    0.3808   15.4860 C   0  0  0  0  0  0  0  0  0  0  0  0
    5.5940   -0.5330   16.5234 C   0  0  0  0  0  0  0  0  0  0  0  0
    4.3802   -1.0455   16.3684 N   0  0  0  0  0  0  0  0  0  0  0  0
    3.8358   -0.3914   15.3289 C   0  0  0  0  0  0  0  0  0  0  0  0
    2.6478    2.1536   12.1231 C   0  0  0  0  0  0  0  0  0  0  0  0
    3.5652    2.6370   11.1626 C   0  0  0  0  0  0  0  0  0  0  0  0
    3.1327    3.4633   10.1244 C   0  0  0  0  0  0  0  0  0  0  0  0
    1.7965    3.8161   10.0403 C   0  0  0  0  0  0  0  0  0  0  0  0
    1.4003    4.6403    9.0163 O   0  0  0  0  0  0  0  0  0  0  0  0
    0.0245    4.4666    8.5995 C   0  0  0  0  0  0  0  0  0  0  0  0
   -1.0306    4.3224    9.7544 C   0  0  0  0  0  0  0  0  0  0  0  0
   -2.2095    4.6594    9.6693 O   0  0  0  0  0  0  0  0  0  0  0  0
   -0.4630    3.7540   10.8496 N   0  0  0  0  0  0  0  0  0  0  0  0
    0.8760    3.3777   10.9729 C   0  0  0  0  0  0  0  0  0  0  0  0
    1.2936    2.5512   12.0256 C   0  0  0  0  0  0  0  0  0  0  0  0
   -0.5545   -0.8186   14.1904 C   0  0  0  0  0  0  0  0  0  0  0  0
   -1.9414   -1.0869   14.0597 C   0  0  0  0  0  0  0  0  0  0  0  0
   -2.7479   -0.3495   13.2074 O   0  0  0  0  0  0  0  0  0  0  0  0
   -2.2257    0.6484   12.3503 C   0  0  0  0  0  0  0  0  0  0  0  0
   -5.3466   -3.2545   13.5757 H   0  0  0  0  0  0  0  0  0  0  0  0
   -3.9683   -2.5545   12.6611 H   0  0  0  0  0  0  0  0  0  0  0  0
   -3.7530   -4.0832   13.5795 H   0  0  0  0  0  0  0  0  0  0  0  0
   -2.3272   -2.8281   14.0041 H   0  0  0  0  0  0  0  0  0  0  0  0
   -2.2009   -3.6666   16.2523 H   0  0  0  0  0  0  0  0  0  0  0  0
    0.2013   -3.2098   16.4900 H   0  0  0  0  0  0  0  0  0  0  0  0
    5.1480    1.9249   13.2472 H   0  0  0  0  0  0  0  0  0  0  0  0
    6.8364    0.8836   15.3073 H   0  0  0  0  0  0  0  0  0  0  0  0
    6.2627   -0.7805   17.3345 H   0  0  0  0  0  0  0  0  0  0  0  0
    4.3326    3.1996   11.7146 H   0  0  0  0  0  0  0  0  0  0  0  0
    4.0243    1.7546   10.6929 H   0  0  0  0  0  0  0  0  0  0  0  0
    3.8369    3.8258    9.3901 H   0  0  0  0  0  0  0  0  0  0  0  0
   -0.2567    5.3405    7.9936 H   0  0  0  0  0  0  0  0  0  0  0  0
   -0.0278    3.5589    7.9803 H   0  0  0  0  0  0  0  0  0  0  0  0
    0.5797    2.2172   12.7640 H   0  0  0  0  0  0  0  0  0  0  0  0
   -0.0952   -0.0337   13.6078 H   0  0  0  0  0  0  0  0  0  0  0  0
   -3.0443    1.0989   11.7698 H   0  0  0  0  0  0  0  0  0  0  0  0
   -1.7315    1.4259   12.9514 H   0  0  0  0  0  0  0  0  0  0  0  0
   -1.4950    0.1961   11.6636 H   0  0  0  0  0  0  0  0  0  0  0  0
  1  2  1  0  0  0  0
  2  3  1  0  0  0  0
  3  4  1  0  0  0  0
  3 29  1  0  0  0  0
  4  5  2  0  0  0  0
  5  6  1  0  0  0  0
  6  7  2  0  0  0  0
  6 28  1  0  0  0  0
  7  8  1  0  0  0  0
  8  9  2  0  0  0  0
  8 16  1  0  0  0  0
  9 10  1  0  0  0  0
 10 11  2  0  0  0  0
 10 17  1  0  0  0  0
 11 12  1  0  0  0  0
 12 13  1  0  0  0  0
 12 16  1  0  0  0  0
 13 14  2  0  0  0  0
 14 15  1  0  0  0  0
 15 16  2  0  0  0  0
 17 18  1  0  0  0  0
 17 27  2  0  0  0  0
 18 19  1  0  0  0  0
 19 20  2  0  0  0  0
 20 21  1  0  0  0  0
 20 26  1  0  0  0  0
 21 22  1  0  0  0  0
 22 23  1  0  0  0  0
 23 24  2  0  0  0  0
 23 25  1  0  0  0  0
 25 26  2  0  0  0  0
 26 27  1  0  0  0  0
 28 29  2  0  0  0  0
 29 30  1  0  0  0  0
 30 31  1  0  0  0  0
  1 32  1  0  0  0  0
  1 33  1  0  0  0  0
  1 34  1  0  0  0  0
  3 35  1  0  0  0  0
  4 36  1  0  0  0  0
  5 37  1  0  0  0  0
 11 38  1  0  0  0  0
 13 39  1  0  0  0  0
 14 40  1  0  0  0  0
 18 41  1  0  0  0  0
 18 42  1  0  0  0  0
 19 43  1  0  0  0  0
 22 44  1  0  0  0  0
 22 45  1  0  0  0  0
 27 46  1  0  0  0  0
 28 47  1  0  0  0  0
 31 48  1  0  0  0  0
 31 49  1  0  0  0  0
 31 50  1  0  0  0  0
M  END
> <IC50[nM]>
2.3

$$$$
CHEMBL3265024
  -OEChem-05192314333D
 Structure written by MMmdl.
 50 54  0     0  0  0  0  0  0999 V2000
   -4.2568   -3.1054   13.5684 C   0  0  0  0  0  0  0  0  0  0  0  0
   -3.8727   -2.3625   14.7149 O   0  0  0  0  0  0  0  0  0  0  0  0
   -2.5248   -2.1122   14.8155 C   0  0  0  0  0  0  0  0  0  0  0  0
   -1.7475   -2.8704   15.6805 C   0  0  0  0  0  0  0  0  0  0  0  0
   -0.3908   -2.6105   15.8142 C   0  0  0  0  0  0  0  0  0  0  0  0
    0.2212   -1.5850   15.0876 C   0  0  0  0  0  0  0  0  0  0  0  0
    1.6034   -1.3608   15.3283 N   0  0  0  0  0  0  0  0  0  0  0  0
    2.5312   -0.4403   14.7667 C   0  0  0  0  0  0  0  0  0  0  0  0
    2.1675    0.3842   13.7368 N   0  0  0  0  0  0  0  0  0  0  0  0
    3.1076    1.2383   13.2220 C   0  0  0  0  0  0  0  0  0  0  0  0
    4.4125    1.2788   13.7032 C   0  0  0  0  0  0  0  0  0  0  0  0
    4.7426    0.4894   14.7579 N   0  0  0  0  0  0  0  0  0  0  0  0
    5.8974    0.3808   15.4860 C   0  0  0  0  0  0  0  0  0  0  0  0
    5.5940   -0.5330   16.5234 C   0  0  0  0  0  0  0  0  0  0  0  0
    4.3802   -1.0455   16.3684 N   0  0  0  0  0  0  0  0  0  0  0  0
    3.8358   -0.3914   15.3289 C   0  0  0  0  0  0  0  0  0  0  0  0
    2.6478    2.1536   12.1231 C   0  0  0  0  0  0  0  0  0  0  0  0
    3.5652    2.6370   11.1626 C   0  0  0  0  0  0  0  0  0  0  0  0
    3.1327    3.4633   10.1244 C   0  0  0  0  0  0  0  0  0  0  0  0
    1.7965    3.8161   10.0403 C   0  0  0  0  0  0  0  0  0  0  0  0
    1.4003    4.6403    9.0163 O   0  0  0  0  0  0  0  0  0  0  0  0
    0.0245    4.4666    8.5995 C   0  0  0  0  0  0  0  0  0  0  0  0
   -1.0306    4.3224    9.7544 C   0  0  0  0  0  0  0  0  0  0  0  0
   -2.2095    4.6594    9.6693 O   0  0  0  0  0  0  0  0  0  0  0  0
   -0.4630    3.7540   10.8496 N   0  0  0  0  0  0  0  0  0  0  0  0
    0.8760    3.3777   10.9729 C   0  0  0  0  0  0  0  0  0  0  0  0
    1.2936    2.5512   12.0256 C   0  0  0  0  0  0  0  0  0  0  0  0
   -0.5545   -0.8186   14.1904 C   0  0  0  0  0  0  0  0  0  0  0  0
   -1.9414   -1.0869   14.0597 C   0  0  0  0  0  0  0  0  0  0  0  0
   -2.7479   -0.3495   13.2074 O   0  0  0  0  0  0  0  0  0  0  0  0
   -2.2257    0.6484   12.3503 C   0  0  0  0  0  0  0  0  0  0  0  0
   -5.3466   -3.2545   13.5757 H   0  0  0  0  0  0  0  0  0  0  0  0
   -3.9683   -2.5545   12.6611 H   0  0  0  0  0  0  0  0  0  0  0  0
   -3.7530   -4.0832   13.5795 H   0  0  0  0  0  0  0  0  0  0  0  0
   -2.2009   -3.6666   16.2523 H   0  0  0  0  0  0  0  0  0  0  0  0
   -0.2187   -2.3862   16.8772 H   0  0  0  0  0  0  0  0  0  0  0  0
    0.1334   -3.5396   15.5460 H   0  0  0  0  0  0  0  0  0  0  0  0
    5.1480    1.9249   13.2472 H   0  0  0  0  0  0  0  0  0  0  0  0
    6.8364    0.8836   15.3073 H   0  0  0  0  0  0  0  0  0  0  0  0
    6.2627   -0.7805   17.3345 H   0  0  0  0  0  0  0  0  0  0  0  0
    4.3326    3.1996   11.7146 H   0  0  0  0  0  0  0  0  0  0  0  0
    4.0243    1.7546   10.6929 H   0  0  0  0  0  0  0  0  0  0  0  0
    3.8369    3.8258    9.3901 H   0  0  0  0  0  0  0  0  0  0  0  0
   -0.2567    5.3405    7.9936 H   0  0  0  0  0  0  0  0  0  0  0  0
   -0.0278    3.5589    7.9803 H   0  0  0  0  0  0  0  0  0  0  0  0
    0.5797    2.2172   12.7640 H   0  0  0  0  0  0  0  0  0  0  0  0
   -0.0952   -0.0337   13.6078 H   0  0  0  0  0  0  0  0  0  0  0  0
   -3.0443    1.0989   11.7698 H   0  0  0  0  0  0  0  0  0  0  0  0
   -1.7315    1.4259   12.9514 H   0  0  0  0  0  0  0  0  0  0  0  0
   -1.4950    0.1961   11.6636 H   0  0  0  0  0  0  0  0  0  0  0  0
  1  2  1  0  0  0  0
  2  3  1  0  0  0  0
  3  4  2  0  0  0  0
  3 29  1  0  0  0  0
  4  5  1  0  0  0  0
  5  6  1  0  0  0  0
  6  7  2  0  0  0  0
  6 28  1  0  0  0  0
  7  8  1  0  0  0  0
  8  9  2  0  0  0  0
  8 16  1  0  0  0  0
  9 10  1  0  0  0  0
 10 11  2  0  0  0  0
 10 17  1  0  0  0  0
 11 12  1  0  0  0  0
 12 13  1  0  0  0  0
 12 16  1  0  0  0  0
 13 14  2  0  0  0  0
 14 15  1  0  0  0  0
 15 16  2  0  0  0  0
 17 18  1  0  0  0  0
 17 27  2  0  0  0  0
 18 19  1  0  0  0  0
 19 20  2  0  0  0  0
 20 21  1  0  0  0  0
 20 26  1  0  0  0  0
 21 22  1  0  0  0  0
 22 23  1  0  0  0  0
 23 24  2  0  0  0  0
 23 25  1  0  0  0  0
 25 26  2  0  0  0  0
 26 27  1  0  0  0  0
 28 29  2  0  0  0  0
 29 30  1  0  0  0  0
 30 31  1  0  0  0  0
  1 32  1  0  0  0  0
  1 33  1  0  0  0  0
  1 34  1  0  0  0  0
  4 35  1  0  0  0  0
  5 36  1  0  0  0  0
  5 37  1  0  0  0  0
 11 38  1  0  0  0  0
 13 39  1  0  0  0  0
 14 40  1  0  0  0  0
 18 41  1  0  0  0  0
 18 42  1  0  0  0  0
 19 43  1  0  0  0  0
 22 44  1  0  0  0  0
 22 45  1  0  0  0  0
 27 46  1  0  0  0  0
 28 47  1  0  0  0  0
 31 48  1  0  0  0  0
 31 49  1  0  0  0  0
 31 50  1  0  0  0  0
M  END
> <IC50[nM]>
2.3

$$$$
CHEMBL3265024
  -OEChem-05192314333D
 Structure written by MMmdl.
 50 54  0     1  0  0  0  0  0999 V2000
   -4.2568   -3.1054   13.5684 C   0  0  0  0  0  0  0  0  0  0  0  0
   -3.8727   -2.3625   14.7149 O   0  0  0  0  0  0  0  0  0  0  0  0
   -2.5248   -2.1122   14.8155 C   0  0  0  0  0  0  0  0  0  0  0  0
   -1.7475   -2.8704   15.6805 C   0  0  0  0  0  0  0  0  0  0  0  0
   -0.3908   -2.6105   15.8142 C   0  0  0  0  0  0  0  0  0  0  0  0
    0.2212   -1.5850   15.0876 C   0  0  0  0  0  0  0  0  0  0  0  0
    1.6034   -1.3608   15.3283 N   0  0  0  0  0  0  0  0  0  0  0  0
    2.5312   -0.4403   14.7667 C   0  0  0  0  0  0  0  0  0  0  0  0
    2.1675    0.3842   13.7368 N   0  0  0  0  0  0  0  0  0  0  0  0
    3.1076    1.2383   13.2220 C   0  0  0  0  0  0  0  0  0  0  0  0
    4.4125    1.2788   13.7032 C   0  0  0  0  0  0  0  0  0  0  0  0
    4.7426    0.4894   14.7579 N   0  0  0  0  0  0  0  0  0  0  0  0
    5.8974    0.3808   15.4860 C   0  0  0  0  0  0  0  0  0  0  0  0
    5.5940   -0.5330   16.5234 C   0  0  0  0  0  0  0  0  0  0  0  0
    4.3802   -1.0455   16.3684 N   0  0  0  0  0  0  0  0  0  0  0  0
    3.8358   -0.3914   15.3289 C   0  0  0  0  0  0  0  0  0  0  0  0
    2.6478    2.1536   12.1231 C   0  0  0  0  0  0  0  0  0  0  0  0
    3.5652    2.6370   11.1626 C   0  0  0  0  0  0  0  0  0  0  0  0
    3.1327    3.4633   10.1244 C   0  0  0  0  0  0  0  0  0  0  0  0
    1.7965    3.8161   10.0403 C   0  0  3  0  0  0  0  0  0  0  0  0
    1.4003    4.6403    9.0163 O   0  0  0  0  0  0  0  0  0  0  0  0
    0.0245    4.4666    8.5995 C   0  0  0  0  0  0  0  0  0  0  0  0
   -1.0306    4.3224    9.7544 C   0  0  0  0  0  0  0  0  0  0  0  0
   -2.2095    4.6594    9.6693 O   0  0  0  0  0  0  0  0  0  0  0  0
   -0.4630    3.7540   10.8496 N   0  0  0  0  0  0  0  0  0  0  0  0
    0.8760    3.3777   10.9729 C   0  0  0  0  0  0  0  0  0  0  0  0
    1.2936    2.5512   12.0256 C   0  0  0  0  0  0  0  0  0  0  0  0
   -0.5545   -0.8186   14.1904 C   0  0  0  0  0  0  0  0  0  0  0  0
   -1.9414   -1.0869   14.0597 C   0  0  0  0  0  0  0  0  0  0  0  0
   -2.7479   -0.3495   13.2074 O   0  0  0  0  0  0  0  0  0  0  0  0
   -2.2257    0.6484   12.3503 C   0  0  0  0  0  0  0  0  0  0  0  0
   -5.3466   -3.2545   13.5757 H   0  0  0  0  0  0  0  0  0  0  0  0
   -3.9683   -2.5545   12.6611 H   0  0  0  0  0  0  0  0  0  0  0  0
   -3.7530   -4.0832   13.5795 H   0  0  0  0  0  0  0  0  0  0  0  0
   -2.2009   -3.6666   16.2523 H   0  0  0  0  0  0  0  0  0  0  0  0
    0.2013   -3.2098   16.4900 H   0  0  0  0  0  0  0  0  0  0  0  0
    5.1480    1.9249   13.2472 H   0  0  0  0  0  0  0  0  0  0  0  0
    6.8364    0.8836   15.3073 H   0  0  0  0  0  0  0  0  0  0  0  0
    6.2627   -0.7805   17.3345 H   0  0  0  0  0  0  0  0  0  0  0  0
    4.6081    2.3650   11.2326 H   0  0  0  0  0  0  0  0  0  0  0  0
    3.8369    3.8258    9.3901 H   0  0  0  0  0  0  0  0  0  0  0  0
    1.5954    2.9328    9.4164 H   0  0  0  0  0  0  0  0  0  0  0  0
   -0.2567    5.3405    7.9936 H   0  0  0  0  0  0  0  0  0  0  0  0
   -0.0278    3.5589    7.9803 H   0  0  0  0  0  0  0  0  0  0  0  0
    0.5797    2.2172   12.7640 H   0  0  0  0  0  0  0  0  0  0  0  0
   -0.4601    0.2319   14.5028 H   0  0  0  0  0  0  0  0  0  0  0  0
   -0.1087   -0.9460   13.1929 H   0  0  0  0  0  0  0  0  0  0  0  0
   -3.0443    1.0989   11.7698 H   0  0  0  0  0  0  0  0  0  0  0  0
   -1.7315    1.4259   12.9514 H   0  0  0  0  0  0  0  0  0  0  0  0
   -1.4950    0.1961   11.6636 H   0  0  0  0  0  0  0  0  0  0  0  0
  1  2  1  0  0  0  0
  2  3  1  0  0  0  0
  3  4  1  0  0  0  0
  3 29  2  0  0  0  0
  4  5  2  0  0  0  0
  5  6  1  0  0  0  0
  6  7  2  0  0  0  0
  6 28  1  0  0  0  0
  7  8  1  0  0  0  0
  8  9  2  0  0  0  0
  8 16  1  0  0  0  0
  9 10  1  0  0  0  0
 10 11  2  0  0  0  0
 10 17  1  0  0  0  0
 11 12  1  0  0  0  0
 12 13  1  0  0  0  0
 12 16  1  0  0  0  0
 13 14  2  0  0  0  0
 14 15  1  0  0  0  0
 15 16  2  0  0  0  0
 17 18  1  0  0  0  0
 17 27  2  0  0  0  0
 18 19  2  0  0  0  0
 19 20  1  0  0  0  0
 20 21  1  0  0  0  0
 20 26  1  0  0  0  0
 21 22  1  0  0  0  0
 22 23  1  0  0  0  0
 23 24  2  0  0  0  0
 23 25  1  0  0  0  0
 25 26  2  0  0  0  0
 26 27  1  0  0  0  0
 28 29  1  0  0  0  0
 29 30  1  0  0  0  0
 30 31  1  0  0  0  0
  1 32  1  0  0  0  0
  1 33  1  0  0  0  0
  1 34  1  0  0  0  0
  4 35  1  0  0  0  0
  5 36  1  0  0  0  0
 11 37  1  0  0  0  0
 13 38  1  0  0  0  0
 14 39  1  0  0  0  0
 18 40  1  0  0  0  0
 19 41  1  0  0  0  0
 20 42  1  0  0  0  0
 22 43  1  0  0  0  0
 22 44  1  0  0  0  0
 27 45  1  0  0  0  0
 28 46  1  0  0  0  0
 28 47  1  0  0  0  0
 31 48  1  0  0  0  0
 31 49  1  0  0  0  0
 31 50  1  0  0  0  0
M  END
> <IC50[nM]>
2.3

$$$$
CHEMBL3265024
  -OEChem-05192314333D
 Structure written by MMmdl.
 50 54  0     0  0  0  0  0  0999 V2000
   -4.2568   -3.1054   13.5684 C   0  0  0  0  0  0  0  0  0  0  0  0
   -3.8727   -2.3625   14.7149 O   0  0  0  0  0  0  0  0  0  0  0  0
   -2.5248   -2.1122   14.8155 C   0  0  0  0  0  0  0  0  0  0  0  0
   -1.7475   -2.8704   15.6805 C   0  0  0  0  0  0  0  0  0  0  0  0
   -0.3908   -2.6105   15.8142 C   0  0  0  0  0  0  0  0  0  0  0  0
    0.2212   -1.5850   15.0876 C   0  0  0  0  0  0  0  0  0  0  0  0
    1.6034   -1.3608   15.3283 N   0  0  0  0  0  0  0  0  0  0  0  0
    2.5312   -0.4403   14.7667 C   0  0  0  0  0  0  0  0  0  0  0  0
    2.1675    0.3842   13.7368 N   0  0  0  0  0  0  0  0  0  0  0  0
    3.1076    1.2383   13.2220 C   0  0  0  0  0  0  0  0  0  0  0  0
    4.4125    1.2788   13.7032 C   0  0  0  0  0  0  0  0  0  0  0  0
    4.7426    0.4894   14.7579 N   0  0  0  0  0  0  0  0  0  0  0  0
    5.8974    0.3808   15.4860 C   0  0  0  0  0  0  0  0  0  0  0  0
    5.5940   -0.5330   16.5234 C   0  0  0  0  0  0  0  0  0  0  0  0
    4.3802   -1.0455   16.3684 N   0  0  0  0  0  0  0  0  0  0  0  0
    3.8358   -0.3914   15.3289 C   0  0  0  0  0  0  0  0  0  0  0  0
    2.6478    2.1536   12.1231 C   0  0  0  0  0  0  0  0  0  0  0  0
    3.5652    2.6370   11.1626 C   0  0  0  0  0  0  0  0  0  0  0  0
    3.1327    3.4633   10.1244 C   0  0  0  0  0  0  0  0  0  0  0  0
    1.7965    3.8161   10.0403 C   0  0  0  0  0  0  0  0  0  0  0  0
    1.4003    4.6403    9.0163 O   0  0  0  0  0  0  0  0  0  0  0  0
    0.0245    4.4666    8.5995 C   0  0  0  0  0  0  0  0  0  0  0  0
   -1.0306    4.3224    9.7544 C   0  0  0  0  0  0  0  0  0  0  0  0
   -2.2095    4.6594    9.6693 O   0  0  0  0  0  0  0  0  0  0  0  0
   -0.4630    3.7540   10.8496 N   0  0  0  0  0  0  0  0  0  0  0  0
    0.8760    3.3777   10.9729 C   0  0  0  0  0  0  0  0  0  0  0  0
    1.2936    2.5512   12.0256 C   0  0  0  0  0  0  0  0  0  0  0  0
   -0.5545   -0.8186   14.1904 C   0  0  0  0  0  0  0  0  0  0  0  0
   -1.9414   -1.0869   14.0597 C   0  0  0  0  0  0  0  0  0  0  0  0
   -2.7479   -0.3495   13.2074 O   0  0  0  0  0  0  0  0  0  0  0  0
   -2.2257    0.6484   12.3503 C   0  0  0  0  0  0  0  0  0  0  0  0
   -5.3466   -3.2545   13.5757 H   0  0  0  0  0  0  0  0  0  0  0  0
   -3.9683   -2.5545   12.6611 H   0  0  0  0  0  0  0  0  0  0  0  0
   -3.7530   -4.0832   13.5795 H   0  0  0  0  0  0  0  0  0  0  0  0
   -2.2009   -3.6666   16.2523 H   0  0  0  0  0  0  0  0  0  0  0  0
    0.2013   -3.2098   16.4900 H   0  0  0  0  0  0  0  0  0  0  0  0
    5.1480    1.9249   13.2472 H   0  0  0  0  0  0  0  0  0  0  0  0
    6.8364    0.8836   15.3073 H   0  0  0  0  0  0  0  0  0  0  0  0
    6.2627   -0.7805   17.3345 H   0  0  0  0  0  0  0  0  0  0  0  0
    4.3326    3.1996   11.7146 H   0  0  0  0  0  0  0  0  0  0  0  0
    4.0243    1.7546   10.6929 H   0  0  0  0  0  0  0  0  0  0  0  0
    3.8369    3.8258    9.3901 H   0  0  0  0  0  0  0  0  0  0  0  0
   -0.2567    5.3405    7.9936 H   0  0  0  0  0  0  0  0  0  0  0  0
   -0.0278    3.5589    7.9803 H   0  0  0  0  0  0  0  0  0  0  0  0
    0.5797    2.2172   12.7640 H   0  0  0  0  0  0  0  0  0  0  0  0
   -0.4601    0.2319   14.5028 H   0  0  0  0  0  0  0  0  0  0  0  0
   -0.1087   -0.9460   13.1929 H   0  0  0  0  0  0  0  0  0  0  0  0
   -3.0443    1.0989   11.7698 H   0  0  0  0  0  0  0  0  0  0  0  0
   -1.7315    1.4259   12.9514 H   0  0  0  0  0  0  0  0  0  0  0  0
   -1.4950    0.1961   11.6636 H   0  0  0  0  0  0  0  0  0  0  0  0
  1  2  1  0  0  0  0
  2  3  1  0  0  0  0
  3  4  1  0  0  0  0
  3 29  2  0  0  0  0
  4  5  2  0  0  0  0
  5  6  1  0  0  0  0
  6  7  2  0  0  0  0
  6 28  1  0  0  0  0
  7  8  1  0  0  0  0
  8  9  2  0  0  0  0
  8 16  1  0  0  0  0
  9 10  1  0  0  0  0
 10 11  2  0  0  0  0
 10 17  1  0  0  0  0
 11 12  1  0  0  0  0
 12 13  1  0  0  0  0
 12 16  1  0  0  0  0
 13 14  2  0  0  0  0
 14 15  1  0  0  0  0
 15 16  2  0  0  0  0
 17 18  1  0  0  0  0
 17 27  2  0  0  0  0
 18 19  1  0  0  0  0
 19 20  2  0  0  0  0
 20 21  1  0  0  0  0
 20 26  1  0  0  0  0
 21 22  1  0  0  0  0
 22 23  1  0  0  0  0
 23 24  2  0  0  0  0
 23 25  1  0  0  0  0
 25 26  2  0  0  0  0
 26 27  1  0  0  0  0
 28 29  1  0  0  0  0
 29 30  1  0  0  0  0
 30 31  1  0  0  0  0
  1 32  1  0  0  0  0
  1 33  1  0  0  0  0
  1 34  1  0  0  0  0
  4 35  1  0  0  0  0
  5 36  1  0  0  0  0
 11 37  1  0  0  0  0
 13 38  1  0  0  0  0
 14 39  1  0  0  0  0
 18 40  1  0  0  0  0
 18 41  1  0  0  0  0
 19 42  1  0  0  0  0
 22 43  1  0  0  0  0
 22 44  1  0  0  0  0
 27 45  1  0  0  0  0
 28 46  1  0  0  0  0
 28 47  1  0  0  0  0
 31 48  1  0  0  0  0
 31 49  1  0  0  0  0
 31 50  1  0  0  0  0
M  END
> <IC50[nM]>
2.3

$$$$
CHEMBL3265024
  -OEChem-05192314333D
 Structure written by MMmdl.
 50 54  0     1  0  0  0  0  0999 V2000
   -4.2568   -3.1054   13.5684 C   0  0  0  0  0  0  0  0  0  0  0  0
   -3.8727   -2.3625   14.7149 O   0  0  0  0  0  0  0  0  0  0  0  0
   -2.5248   -2.1122   14.8155 C   0  0  3  0  0  0  0  0  0  0  0  0
   -1.7475   -2.8704   15.6805 C   0  0  0  0  0  0  0  0  0  0  0  0
   -0.3908   -2.6105   15.8142 C   0  0  0  0  0  0  0  0  0  0  0  0
    0.2212   -1.5850   15.0876 C   0  0  0  0  0  0  0  0  0  0  0  0
    1.6034   -1.3608   15.3283 N   0  0  0  0  0  0  0  0  0  0  0  0
    2.5312   -0.4403   14.7667 C   0  0  0  0  0  0  0  0  0  0  0  0
    2.1675    0.3842   13.7368 N   0  0  0  0  0  0  0  0  0  0  0  0
    3.1076    1.2383   13.2220 C   0  0  0  0  0  0  0  0  0  0  0  0
    4.4125    1.2788   13.7032 C   0  0  0  0  0  0  0  0  0  0  0  0
    4.7426    0.4894   14.7579 N   0  0  0  0  0  0  0  0  0  0  0  0
    5.8974    0.3808   15.4860 C   0  0  0  0  0  0  0  0  0  0  0  0
    5.5940   -0.5330   16.5234 C   0  0  0  0  0  0  0  0  0  0  0  0
    4.3802   -1.0455   16.3684 N   0  0  0  0  0  0  0  0  0  0  0  0
    3.8358   -0.3914   15.3289 C   0  0  0  0  0  0  0  0  0  0  0  0
    2.6478    2.1536   12.1231 C   0  0  0  0  0  0  0  0  0  0  0  0
    3.5652    2.6370   11.1626 C   0  0  0  0  0  0  0  0  0  0  0  0
    3.1327    3.4633   10.1244 C   0  0  0  0  0  0  0  0  0  0  0  0
    1.7965    3.8161   10.0403 C   0  0  0  0  0  0  0  0  0  0  0  0
    1.4003    4.6403    9.0163 O   0  0  0  0  0  0  0  0  0  0  0  0
    0.0245    4.4666    8.5995 C   0  0  0  0  0  0  0  0  0  0  0  0
   -1.0306    4.3224    9.7544 C   0  0  0  0  0  0  0  0  0  0  0  0
   -2.2095    4.6594    9.6693 O   0  0  0  0  0  0  0  0  0  0  0  0
   -0.4630    3.7540   10.8496 N   0  0  0  0  0  0  0  0  0  0  0  0
    0.8760    3.3777   10.9729 C   0  0  0  0  0  0  0  0  0  0  0  0
    1.2936    2.5512   12.0256 C   0  0  0  0  0  0  0  0  0  0  0  0
   -0.5545   -0.8186   14.1904 C   0  0  0  0  0  0  0  0  0  0  0  0
   -1.9414   -1.0869   14.0597 C   0  0  0  0  0  0  0  0  0  0  0  0
   -2.7479   -0.3495   13.2074 O   0  0  0  0  0  0  0  0  0  0  0  0
   -2.2257    0.6484   12.3503 C   0  0  0  0  0  0  0  0  0  0  0  0
   -5.3466   -3.2545   13.5757 H   0  0  0  0  0  0  0  0  0  0  0  0
   -3.9683   -2.5545   12.6611 H   0  0  0  0  0  0  0  0  0  0  0  0
   -3.7530   -4.0832   13.5795 H   0  0  0  0  0  0  0  0  0  0  0  0
   -2.3272   -2.8281   14.0041 H   0  0  0  0  0  0  0  0  0  0  0  0
   -2.2009   -3.6666   16.2523 H   0  0  0  0  0  0  0  0  0  0  0  0
    0.2013   -3.2098   16.4900 H   0  0  0  0  0  0  0  0  0  0  0  0
    5.1480    1.9249   13.2472 H   0  0  0  0  0  0  0  0  0  0  0  0
    6.8364    0.8836   15.3073 H   0  0  0  0  0  0  0  0  0  0  0  0
    6.2627   -0.7805   17.3345 H   0  0  0  0  0  0  0  0  0  0  0  0
    4.6081    2.3650   11.2326 H   0  0  0  0  0  0  0  0  0  0  0  0
    3.8369    3.8258    9.3901 H   0  0  0  0  0  0  0  0  0  0  0  0
   -0.2567    5.3405    7.9936 H   0  0  0  0  0  0  0  0  0  0  0  0
   -0.0278    3.5589    7.9803 H   0  0  0  0  0  0  0  0  0  0  0  0
    0.6968    1.6295   11.9605 H   0  0  0  0  0  0  0  0  0  0  0  0
    1.0508    3.0801   12.9590 H   0  0  0  0  0  0  0  0  0  0  0  0
   -0.0952   -0.0337   13.6078 H   0  0  0  0  0  0  0  0  0  0  0  0
   -3.0443    1.0989   11.7698 H   0  0  0  0  0  0  0  0  0  0  0  0
   -1.7315    1.4259   12.9514 H   0  0  0  0  0  0  0  0  0  0  0  0
   -1.4950    0.1961   11.6636 H   0  0  0  0  0  0  0  0  0  0  0  0
  1  2  1  0  0  0  0
  2  3  1  0  0  0  0
  3  4  1  0  0  0  0
  3 29  1  0  0  0  0
  4  5  2  0  0  0  0
  5  6  1  0  0  0  0
  6  7  2  0  0  0  0
  6 28  1  0  0  0  0
  7  8  1  0  0  0  0
  8  9  2  0  0  0  0
  8 16  1  0  0  0  0
  9 10  1  0  0  0  0
 10 11  2  0  0  0  0
 10 17  1  0  0  0  0
 11 12  1  0  0  0  0
 12 13  1  0  0  0  0
 12 16  1  0  0  0  0
 13 14  2  0  0  0  0
 14 15  1  0  0  0  0
 15 16  2  0  0  0  0
 17 18  2  0  0  0  0
 17 27  1  0  0  0  0
 18 19  1  0  0  0  0
 19 20  2  0  0  0  0
 20 21  1  0  0  0  0
 20 26  1  0  0  0  0
 21 22  1  0  0  0  0
 22 23  1  0  0  0  0
 23 24  2  0  0  0  0
 23 25  1  0  0  0  0
 25 26  2  0  0  0  0
 26 27  1  0  0  0  0
 28 29  2  0  0  0  0
 29 30  1  0  0  0  0
 30 31  1  0  0  0  0
  1 32  1  0  0  0  0
  1 33  1  0  0  0  0
  1 34  1  0  0  0  0
  3 35  1  0  0  0  0
  4 36  1  0  0  0  0
  5 37  1  0  0  0  0
 11 38  1  0  0  0  0
 13 39  1  0  0  0  0
 14 40  1  0  0  0  0
 18 41  1  0  0  0  0
 19 42  1  0  0  0  0
 22 43  1  0  0  0  0
 22 44  1  0  0  0  0
 27 45  1  0  0  0  0
 27 46  1  0  0  0  0
 28 47  1  0  0  0  0
 31 48  1  0  0  0  0
 31 49  1  0  0  0  0
 31 50  1  0  0  0  0
M  END
> <IC50[nM]>
2.3

$$$$
CHEMBL3265024
  -OEChem-05192314333D
 Structure written by MMmdl.
 50 54  0     0  0  0  0  0  0999 V2000
   -4.2568   -3.1054   13.5684 C   0  0  0  0  0  0  0  0  0  0  0  0
   -3.8727   -2.3625   14.7149 O   0  0  0  0  0  0  0  0  0  0  0  0
   -2.5248   -2.1122   14.8155 C   0  0  0  0  0  0  0  0  0  0  0  0
   -1.7475   -2.8704   15.6805 C   0  0  0  0  0  0  0  0  0  0  0  0
   -0.3908   -2.6105   15.8142 C   0  0  0  0  0  0  0  0  0  0  0  0
    0.2212   -1.5850   15.0876 C   0  0  0  0  0  0  0  0  0  0  0  0
    1.6034   -1.3608   15.3283 N   0  0  0  0  0  0  0  0  0  0  0  0
    2.5312   -0.4403   14.7667 C   0  0  0  0  0  0  0  0  0  0  0  0
    2.1675    0.3842   13.7368 N   0  0  0  0  0  0  0  0  0  0  0  0
    3.1076    1.2383   13.2220 C   0  0  0  0  0  0  0  0  0  0  0  0
    4.4125    1.2788   13.7032 C   0  0  0  0  0  0  0  0  0  0  0  0
    4.7426    0.4894   14.7579 N   0  0  0  0  0  0  0  0  0  0  0  0
    5.8974    0.3808   15.4860 C   0  0  0  0  0  0  0  0  0  0  0  0
    5.5940   -0.5330   16.5234 C   0  0  0  0  0  0  0  0  0  0  0  0
    4.3802   -1.0455   16.3684 N   0  0  0  0  0  0  0  0  0  0  0  0
    3.8358   -0.3914   15.3289 C   0  0  0  0  0  0  0  0  0  0  0  0
    2.6478    2.1536   12.1231 C   0  0  0  0  0  0  0  0  0  0  0  0
    3.5652    2.6370   11.1626 C   0  0  0  0  0  0  0  0  0  0  0  0
    3.1327    3.4633   10.1244 C   0  0  0  0  0  0  0  0  0  0  0  0
    1.7965    3.8161   10.0403 C   0  0  0  0  0  0  0  0  0  0  0  0
    1.4003    4.6403    9.0163 O   0  0  0  0  0  0  0  0  0  0  0  0
    0.0245    4.4666    8.5995 C   0  0  0  0  0  0  0  0  0  0  0  0
   -1.0306    4.3224    9.7544 C   0  0  0  0  0  0  0  0  0  0  0  0
   -2.2095    4.6594    9.6693 O   0  0  0  0  0  0  0  0  0  0  0  0
   -0.4630    3.7540   10.8496 N   0  0  0  0  0  0  0  0  0  0  0  0
    0.8760    3.3777   10.9729 C   0  0  0  0  0  0  0  0  0  0  0  0
    1.2936    2.5512   12.0256 C   0  0  0  0  0  0  0  0  0  0  0  0
   -0.5545   -0.8186   14.1904 C   0  0  0  0  0  0  0  0  0  0  0  0
   -1.9414   -1.0869   14.0597 C   0  0  0  0  0  0  0  0  0  0  0  0
   -2.7479   -0.3495   13.2074 O   0  0  0  0  0  0  0  0  0  0  0  0
   -2.2257    0.6484   12.3503 C   0  0  0  0  0  0  0  0  0  0  0  0
   -5.3466   -3.2545   13.5757 H   0  0  0  0  0  0  0  0  0  0  0  0
   -3.9683   -2.5545   12.6611 H   0  0  0  0  0  0  0  0  0  0  0  0
   -3.7530   -4.0832   13.5795 H   0  0  0  0  0  0  0  0  0  0  0  0
   -2.2009   -3.6666   16.2523 H   0  0  0  0  0  0  0  0  0  0  0  0
   -0.2187   -2.3862   16.8772 H   0  0  0  0  0  0  0  0  0  0  0  0
    0.1334   -3.5396   15.5460 H   0  0  0  0  0  0  0  0  0  0  0  0
    5.1480    1.9249   13.2472 H   0  0  0  0  0  0  0  0  0  0  0  0
    6.8364    0.8836   15.3073 H   0  0  0  0  0  0  0  0  0  0  0  0
    6.2627   -0.7805   17.3345 H   0  0  0  0  0  0  0  0  0  0  0  0
    4.6081    2.3650   11.2326 H   0  0  0  0  0  0  0  0  0  0  0  0
    3.8369    3.8258    9.3901 H   0  0  0  0  0  0  0  0  0  0  0  0
   -0.2567    5.3405    7.9936 H   0  0  0  0  0  0  0  0  0  0  0  0
   -0.0278    3.5589    7.9803 H   0  0  0  0  0  0  0  0  0  0  0  0
    0.6968    1.6295   11.9605 H   0  0  0  0  0  0  0  0  0  0  0  0
    1.0508    3.0801   12.9590 H   0  0  0  0  0  0  0  0  0  0  0  0
   -0.0952   -0.0337   13.6078 H   0  0  0  0  0  0  0  0  0  0  0  0
   -3.0443    1.0989   11.7698 H   0  0  0  0  0  0  0  0  0  0  0  0
   -1.7315    1.4259   12.9514 H   0  0  0  0  0  0  0  0  0  0  0  0
   -1.4950    0.1961   11.6636 H   0  0  0  0  0  0  0  0  0  0  0  0
  1  2  1  0  0  0  0
  2  3  1  0  0  0  0
  3  4  2  0  0  0  0
  3 29  1  0  0  0  0
  4  5  1  0  0  0  0
  5  6  1  0  0  0  0
  6  7  2  0  0  0  0
  6 28  1  0  0  0  0
  7  8  1  0  0  0  0
  8  9  2  0  0  0  0
  8 16  1  0  0  0  0
  9 10  1  0  0  0  0
 10 11  2  0  0  0  0
 10 17  1  0  0  0  0
 11 12  1  0  0  0  0
 12 13  1  0  0  0  0
 12 16  1  0  0  0  0
 13 14  2  0  0  0  0
 14 15  1  0  0  0  0
 15 16  2  0  0  0  0
 17 18  2  0  0  0  0
 17 27  1  0  0  0  0
 18 19  1  0  0  0  0
 19 20  2  0  0  0  0
 20 21  1  0  0  0  0
 20 26  1  0  0  0  0
 21 22  1  0  0  0  0
 22 23  1  0  0  0  0
 23 24  2  0  0  0  0
 23 25  1  0  0  0  0
 25 26  2  0  0  0  0
 26 27  1  0  0  0  0
 28 29  2  0  0  0  0
 29 30  1  0  0  0  0
 30 31  1  0  0  0  0
  1 32  1  0  0  0  0
  1 33  1  0  0  0  0
  1 34  1  0  0  0  0
  4 35  1  0  0  0  0
  5 36  1  0  0  0  0
  5 37  1  0  0  0  0
 11 38  1  0  0  0  0
 13 39  1  0  0  0  0
 14 40  1  0  0  0  0
 18 41  1  0  0  0  0
 19 42  1  0  0  0  0
 22 43  1  0  0  0  0
 22 44  1  0  0  0  0
 27 45  1  0  0  0  0
 27 46  1  0  0  0  0
 28 47  1  0  0  0  0
 31 48  1  0  0  0  0
 31 49  1  0  0  0  0
 31 50  1  0  0  0  0
M  END
> <IC50[nM]>
2.3

$$$$
CHEMBL3265024
  -OEChem-05192314333D
 Structure written by MMmdl.
 50 54  0     0  0  0  0  0  0999 V2000
   -4.2568   -3.1054   13.5684 C   0  0  0  0  0  0  0  0  0  0  0  0
   -3.8727   -2.3625   14.7149 O   0  0  0  0  0  0  0  0  0  0  0  0
   -2.5248   -2.1122   14.8155 C   0  0  0  0  0  0  0  0  0  0  0  0
   -1.7475   -2.8704   15.6805 C   0  0  0  0  0  0  0  0  0  0  0  0
   -0.3908   -2.6105   15.8142 C   0  0  0  0  0  0  0  0  0  0  0  0
    0.2212   -1.5850   15.0876 C   0  0  0  0  0  0  0  0  0  0  0  0
    1.6034   -1.3608   15.3283 N   0  0  0  0  0  0  0  0  0  0  0  0
    2.5312   -0.4403   14.7667 C   0  0  0  0  0  0  0  0  0  0  0  0
    2.1675    0.3842   13.7368 N   0  0  0  0  0  0  0  0  0  0  0  0
    3.1076    1.2383   13.2220 C   0  0  0  0  0  0  0  0  0  0  0  0
    4.4125    1.2788   13.7032 C   0  0  0  0  0  0  0  0  0  0  0  0
    4.7426    0.4894   14.7579 N   0  0  0  0  0  0  0  0  0  0  0  0
    5.8974    0.3808   15.4860 C   0  0  0  0  0  0  0  0  0  0  0  0
    5.5940   -0.5330   16.5234 C   0  0  0  0  0  0  0  0  0  0  0  0
    4.3802   -1.0455   16.3684 N   0  0  0  0  0  0  0  0  0  0  0  0
    3.8358   -0.3914   15.3289 C   0  0  0  0  0  0  0  0  0  0  0  0
    2.6478    2.1536   12.1231 C   0  0  0  0  0  0  0  0  0  0  0  0
    3.5652    2.6370   11.1626 C   0  0  0  0  0  0  0  0  0  0  0  0
    3.1327    3.4633   10.1244 C   0  0  0  0  0  0  0  0  0  0  0  0
    1.7965    3.8161   10.0403 C   0  0  0  0  0  0  0  0  0  0  0  0
    1.4003    4.6403    9.0163 O   0  0  0  0  0  0  0  0  0  0  0  0
    0.0245    4.4666    8.5995 C   0  0  0  0  0  0  0  0  0  0  0  0
   -1.0306    4.3224    9.7544 C   0  0  0  0  0  0  0  0  0  0  0  0
   -2.2095    4.6594    9.6693 O   0  0  0  0  0  0  0  0  0  0  0  0
   -0.4630    3.7540   10.8496 N   0  0  0  0  0  0  0  0  0  0  0  0
    0.8760    3.3777   10.9729 C   0  0  0  0  0  0  0  0  0  0  0  0
    1.2936    2.5512   12.0256 C   0  0  0  0  0  0  0  0  0  0  0  0
   -0.5545   -0.8186   14.1904 C   0  0  0  0  0  0  0  0  0  0  0  0
   -1.9414   -1.0869   14.0597 C   0  0  0  0  0  0  0  0  0  0  0  0
   -2.7479   -0.3495   13.2074 O   0  0  0  0  0  0  0  0  0  0  0  0
   -2.2257    0.6484   12.3503 C   0  0  0  0  0  0  0  0  0  0  0  0
   -5.3466   -3.2545   13.5757 H   0  0  0  0  0  0  0  0  0  0  0  0
   -3.9683   -2.5545   12.6611 H   0  0  0  0  0  0  0  0  0  0  0  0
   -3.7530   -4.0832   13.5795 H   0  0  0  0  0  0  0  0  0  0  0  0
   -2.2009   -3.6666   16.2523 H   0  0  0  0  0  0  0  0  0  0  0  0
    0.2013   -3.2098   16.4900 H   0  0  0  0  0  0  0  0  0  0  0  0
    5.1480    1.9249   13.2472 H   0  0  0  0  0  0  0  0  0  0  0  0
    6.8364    0.8836   15.3073 H   0  0  0  0  0  0  0  0  0  0  0  0
    6.2627   -0.7805   17.3345 H   0  0  0  0  0  0  0  0  0  0  0  0
    4.6081    2.3650   11.2326 H   0  0  0  0  0  0  0  0  0  0  0  0
    3.8369    3.8258    9.3901 H   0  0  0  0  0  0  0  0  0  0  0  0
   -0.2567    5.3405    7.9936 H   0  0  0  0  0  0  0  0  0  0  0  0
   -0.0278    3.5589    7.9803 H   0  0  0  0  0  0  0  0  0  0  0  0
    0.6968    1.6295   11.9605 H   0  0  0  0  0  0  0  0  0  0  0  0
    1.0508    3.0801   12.9590 H   0  0  0  0  0  0  0  0  0  0  0  0
   -0.4601    0.2319   14.5028 H   0  0  0  0  0  0  0  0  0  0  0  0
   -0.1087   -0.9460   13.1929 H   0  0  0  0  0  0  0  0  0  0  0  0
   -3.0443    1.0989   11.7698 H   0  0  0  0  0  0  0  0  0  0  0  0
   -1.7315    1.4259   12.9514 H   0  0  0  0  0  0  0  0  0  0  0  0
   -1.4950    0.1961   11.6636 H   0  0  0  0  0  0  0  0  0  0  0  0
  1  2  1  0  0  0  0
  2  3  1  0  0  0  0
  3  4  1  0  0  0  0
  3 29  2  0  0  0  0
  4  5  2  0  0  0  0
  5  6  1  0  0  0  0
  6  7  2  0  0  0  0
  6 28  1  0  0  0  0
  7  8  1  0  0  0  0
  8  9  2  0  0  0  0
  8 16  1  0  0  0  0
  9 10  1  0  0  0  0
 10 11  2  0  0  0  0
 10 17  1  0  0  0  0
 11 12  1  0  0  0  0
 12 13  1  0  0  0  0
 12 16  1  0  0  0  0
 13 14  2  0  0  0  0
 14 15  1  0  0  0  0
 15 16  2  0  0  0  0
 17 18  2  0  0  0  0
 17 27  1  0  0  0  0
 18 19  1  0  0  0  0
 19 20  2  0  0  0  0
 20 21  1  0  0  0  0
 20 26  1  0  0  0  0
 21 22  1  0  0  0  0
 22 23  1  0  0  0  0
 23 24  2  0  0  0  0
 23 25  1  0  0  0  0
 25 26  2  0  0  0  0
 26 27  1  0  0  0  0
 28 29  1  0  0  0  0
 29 30  1  0  0  0  0
 30 31  1  0  0  0  0
  1 32  1  0  0  0  0
  1 33  1  0  0  0  0
  1 34  1  0  0  0  0
  4 35  1  0  0  0  0
  5 36  1  0  0  0  0
 11 37  1  0  0  0  0
 13 38  1  0  0  0  0
 14 39  1  0  0  0  0
 18 40  1  0  0  0  0
 19 41  1  0  0  0  0
 22 42  1  0  0  0  0
 22 43  1  0  0  0  0
 27 44  1  0  0  0  0
 27 45  1  0  0  0  0
 28 46  1  0  0  0  0
 28 47  1  0  0  0  0
 31 48  1  0  0  0  0
 31 49  1  0  0  0  0
 31 50  1  0  0  0  0
M  END
> <IC50[nM]>
2.3

$$$$
