CHEMBL3265033
  -OEChem-05192314333D
 Structure written by MMmdl.
 54 59  0     0  0  0  0  0  0999 V2000
   -6.7377   -5.5954   13.7078 O   0  0  0  0  0  0  0  0  0  0  0  0
   -6.4109   -4.1827   13.9768 S   0  0  0  0  0  0  0  0  0  0  0  0
   -7.4853   -3.1691   13.9645 O   0  0  0  0  0  0  0  0  0  0  0  0
   -5.0718   -3.6553   12.8024 C   0  0  0  0  0  0  0  0  0  0  0  0
   -4.5093   -2.3051   13.2740 C   0  0  0  0  0  0  0  0  0  0  0  0
   -3.8452   -2.4085   14.5766 N   0  0  0  0  0  0  0  0  0  0  0  0
   -4.8019   -2.6733   15.6705 C   0  0  0  0  0  0  0  0  0  0  0  0
   -5.4613   -4.0603   15.5733 C   0  0  0  0  0  0  0  0  0  0  0  0
   -2.5026   -2.1121   14.7721 C   0  0  0  0  0  0  0  0  0  0  0  0
   -1.7498   -2.8472   15.6821 C   0  0  0  0  0  0  0  0  0  0  0  0
   -0.3947   -2.5947   15.8318 C   0  0  0  0  0  0  0  0  0  0  0  0
    0.2287   -1.5788   15.1039 C   0  0  0  0  0  0  0  0  0  0  0  0
    1.6093   -1.3648   15.3339 N   0  0  0  0  0  0  0  0  0  0  0  0
    2.5318   -0.4383   14.7801 C   0  0  0  0  0  0  0  0  0  0  0  0
    2.1634    0.3921   13.7540 N   0  0  0  0  0  0  0  0  0  0  0  0
    3.0974    1.2392   13.2246 C   0  0  0  0  0  0  0  0  0  0  0  0
    4.4044    1.2817   13.6944 C   0  0  0  0  0  0  0  0  0  0  0  0
    4.7423    0.4925   14.7592 N   0  0  0  0  0  0  0  0  0  0  0  0
    5.8954    0.3870   15.4778 C   0  0  0  0  0  0  0  0  0  0  0  0
    5.5990   -0.5412   16.5094 C   0  0  0  0  0  0  0  0  0  0  0  0
    4.3871   -1.0534   16.3565 N   0  0  0  0  0  0  0  0  0  0  0  0
    3.8359   -0.3945   15.3234 C   0  0  0  0  0  0  0  0  0  0  0  0
    2.6253    2.1534   12.1201 C   0  0  0  0  0  0  0  0  0  0  0  0
    3.5412    2.6427   11.1681 C   0  0  0  0  0  0  0  0  0  0  0  0
    3.1527    3.4644   10.1100 C   0  0  0  0  0  0  0  0  0  0  0  0
    1.8061    3.8184   10.0146 C   0  0  0  0  0  0  0  0  0  0  0  0
    0.9967    4.6031    9.1196 C   0  0  0  0  0  0  0  0  0  0  0  0
   -0.2439    4.6096    9.5190 N   0  0  0  0  0  0  0  0  0  0  0  0
   -0.3333    3.8812   10.6311 N   0  0  0  0  0  0  0  0  0  0  0  0
    0.8847    3.3487   10.9898 C   0  0  0  0  0  0  0  0  0  0  0  0
    1.2610    2.5149   12.0531 C   0  0  0  0  0  0  0  0  0  0  0  0
   -0.5302   -0.8124   14.2060 C   0  0  0  0  0  0  0  0  0  0  0  0
   -1.8875   -1.0872   14.0350 C   0  0  0  0  0  0  0  0  0  0  0  0
   -4.2696   -4.4079   12.7930 H   0  0  0  0  0  0  0  0  0  0  0  0
   -5.4876   -3.5500   11.7895 H   0  0  0  0  0  0  0  0  0  0  0  0
   -3.7809   -1.9459   12.5321 H   0  0  0  0  0  0  0  0  0  0  0  0
   -5.3368   -1.5847   13.3540 H   0  0  0  0  0  0  0  0  0  0  0  0
   -4.2654   -2.6071   16.6285 H   0  0  0  0  0  0  0  0  0  0  0  0
   -5.5909   -1.9075   15.6385 H   0  0  0  0  0  0  0  0  0  0  0  0
   -6.1485   -4.2002   16.4208 H   0  0  0  0  0  0  0  0  0  0  0  0
   -4.6844   -4.8386   15.5989 H   0  0  0  0  0  0  0  0  0  0  0  0
   -2.2224   -3.6171   16.2739 H   0  0  0  0  0  0  0  0  0  0  0  0
    0.1860   -3.1911   16.5199 H   0  0  0  0  0  0  0  0  0  0  0  0
    2.0091   -1.9808   16.0127 H   0  0  0  0  0  0  0  0  0  0  0  0
    5.1375    1.9239   13.2289 H   0  0  0  0  0  0  0  0  0  0  0  0
    6.8303    0.8980   15.3009 H   0  0  0  0  0  0  0  0  0  0  0  0
    6.2731   -0.7965   17.3137 H   0  0  0  0  0  0  0  0  0  0  0  0
    4.5825    2.3716   11.2609 H   0  0  0  0  0  0  0  0  0  0  0  0
    3.8727    3.8163    9.3860 H   0  0  0  0  0  0  0  0  0  0  0  0
    1.3650    5.1137    8.2421 H   0  0  0  0  0  0  0  0  0  0  0  0
   -1.1808    3.7388   11.1424 H   0  0  0  0  0  0  0  0  0  0  0  0
    0.5449    2.1672   12.7829 H   0  0  0  0  0  0  0  0  0  0  0  0
   -0.0651   -0.0124   13.6491 H   0  0  0  0  0  0  0  0  0  0  0  0
   -2.4682   -0.5085   13.3319 H   0  0  0  0  0  0  0  0  0  0  0  0
  1  2  2  0  0  0  0
  2  3  2  0  0  0  0
  2  4  1  0  0  0  0
  2  8  1  0  0  0  0
  4  5  1  0  0  0  0
  5  6  1  0  0  0  0
  6  7  1  0  0  0  0
  6  9  1  0  0  0  0
  7  8  1  0  0  0  0
  9 10  2  0  0  0  0
  9 33  1  0  0  0  0
 10 11  1  0  0  0  0
 11 12  2  0  0  0  0
 12 13  1  0  0  0  0
 12 32  1  0  0  0  0
 13 14  1  0  0  0  0
 14 15  2  0  0  0  0
 14 22  1  0  0  0  0
 15 16  1  0  0  0  0
 16 17  2  0  0  0  0
 16 23  1  0  0  0  0
 17 18  1  0  0  0  0
 18 19  1  0  0  0  0
 18 22  1  0  0  0  0
 19 20  2  0  0  0  0
 20 21  1  0  0  0  0
 21 22  2  0  0  0  0
 23 24  2  0  0  0  0
 23 31  1  0  0  0  0
 24 25  1  0  0  0  0
 25 26  2  0  0  0  0
 26 27  1  0  0  0  0
 26 30  1  0  0  0  0
 27 28  2  0  0  0  0
 28 29  1  0  0  0  0
 29 30  1  0  0  0  0
 30 31  2  0  0  0  0
 32 33  2  0  0  0  0
  4 34  1  0  0  0  0
  4 35  1  0  0  0  0
  5 36  1  0  0  0  0
  5 37  1  0  0  0  0
  7 38  1  0  0  0  0
  7 39  1  0  0  0  0
  8 40  1  0  0  0  0
  8 41  1  0  0  0  0
 10 42  1  0  0  0  0
 11 43  1  0  0  0  0
 13 44  1  0  0  0  0
 17 45  1  0  0  0  0
 19 46  1  0  0  0  0
 20 47  1  0  0  0  0
 24 48  1  0  0  0  0
 25 49  1  0  0  0  0
 27 50  1  0  0  0  0
 29 51  1  0  0  0  0
 31 52  1  0  0  0  0
 32 53  1  0  0  0  0
 33 54  1  0  0  0  0
M  END
> <IC50[nM]>
2.1

$$$$
CHEMBL3265033
  -OEChem-05192314333D
 Structure written by MMmdl.
 54 59  0     0  0  0  0  0  0999 V2000
   -6.7377   -5.5954   13.7078 O   0  0  0  0  0  0  0  0  0  0  0  0
   -6.4109   -4.1827   13.9768 S   0  0  0  0  0  0  0  0  0  0  0  0
   -7.4853   -3.1691   13.9645 O   0  0  0  0  0  0  0  0  0  0  0  0
   -5.0718   -3.6553   12.8024 C   0  0  0  0  0  0  0  0  0  0  0  0
   -4.5093   -2.3051   13.2740 C   0  0  0  0  0  0  0  0  0  0  0  0
   -3.8452   -2.4085   14.5766 N   0  0  0  0  0  0  0  0  0  0  0  0
   -4.8019   -2.6733   15.6705 C   0  0  0  0  0  0  0  0  0  0  0  0
   -5.4613   -4.0603   15.5733 C   0  0  0  0  0  0  0  0  0  0  0  0
   -2.5026   -2.1121   14.7721 C   0  0  0  0  0  0  0  0  0  0  0  0
   -1.7498   -2.8472   15.6821 C   0  0  0  0  0  0  0  0  0  0  0  0
   -0.3947   -2.5947   15.8318 C   0  0  0  0  0  0  0  0  0  0  0  0
    0.2287   -1.5788   15.1039 C   0  0  0  0  0  0  0  0  0  0  0  0
    1.6093   -1.3648   15.3339 N   0  0  0  0  0  0  0  0  0  0  0  0
    2.5318   -0.4383   14.7801 C   0  0  0  0  0  0  0  0  0  0  0  0
    2.1634    0.3921   13.7540 N   0  0  0  0  0  0  0  0  0  0  0  0
    3.0974    1.2392   13.2246 C   0  0  0  0  0  0  0  0  0  0  0  0
    4.4044    1.2817   13.6944 C   0  0  0  0  0  0  0  0  0  0  0  0
    4.7423    0.4925   14.7592 N   0  0  0  0  0  0  0  0  0  0  0  0
    5.8954    0.3870   15.4778 C   0  0  0  0  0  0  0  0  0  0  0  0
    5.5990   -0.5412   16.5094 C   0  0  0  0  0  0  0  0  0  0  0  0
    4.3871   -1.0534   16.3565 N   0  0  0  0  0  0  0  0  0  0  0  0
    3.8359   -0.3945   15.3234 C   0  0  0  0  0  0  0  0  0  0  0  0
    2.6253    2.1534   12.1201 C   0  0  0  0  0  0  0  0  0  0  0  0
    3.5412    2.6427   11.1681 C   0  0  0  0  0  0  0  0  0  0  0  0
    3.1527    3.4644   10.1100 C   0  0  0  0  0  0  0  0  0  0  0  0
    1.8061    3.8184   10.0146 C   0  0  0  0  0  0  0  0  0  0  0  0
    0.9967    4.6031    9.1196 C   0  0  0  0  0  0  0  0  0  0  0  0
   -0.2439    4.6096    9.5190 N   0  0  0  0  0  0  0  0  0  0  0  0
   -0.3333    3.8812   10.6311 N   0  0  0  0  0  0  0  0  0  0  0  0
    0.8847    3.3487   10.9898 C   0  0  0  0  0  0  0  0  0  0  0  0
    1.2610    2.5149   12.0531 C   0  0  0  0  0  0  0  0  0  0  0  0
   -0.5302   -0.8124   14.2060 C   0  0  0  0  0  0  0  0  0  0  0  0
   -1.8875   -1.0872   14.0350 C   0  0  0  0  0  0  0  0  0  0  0  0
   -4.2696   -4.4079   12.7930 H   0  0  0  0  0  0  0  0  0  0  0  0
   -5.4876   -3.5500   11.7895 H   0  0  0  0  0  0  0  0  0  0  0  0
   -3.7809   -1.9459   12.5321 H   0  0  0  0  0  0  0  0  0  0  0  0
   -5.3368   -1.5847   13.3540 H   0  0  0  0  0  0  0  0  0  0  0  0
   -4.2654   -2.6071   16.6285 H   0  0  0  0  0  0  0  0  0  0  0  0
   -5.5909   -1.9075   15.6385 H   0  0  0  0  0  0  0  0  0  0  0  0
   -6.1485   -4.2002   16.4208 H   0  0  0  0  0  0  0  0  0  0  0  0
   -4.6844   -4.8386   15.5989 H   0  0  0  0  0  0  0  0  0  0  0  0
   -2.2224   -3.6171   16.2739 H   0  0  0  0  0  0  0  0  0  0  0  0
    0.1860   -3.1911   16.5199 H   0  0  0  0  0  0  0  0  0  0  0  0
    2.0091   -1.9808   16.0127 H   0  0  0  0  0  0  0  0  0  0  0  0
    5.1375    1.9239   13.2289 H   0  0  0  0  0  0  0  0  0  0  0  0
    6.8303    0.8980   15.3009 H   0  0  0  0  0  0  0  0  0  0  0  0
    6.2731   -0.7965   17.3137 H   0  0  0  0  0  0  0  0  0  0  0  0
    4.5825    2.3716   11.2609 H   0  0  0  0  0  0  0  0  0  0  0  0
    3.8727    3.8163    9.3860 H   0  0  0  0  0  0  0  0  0  0  0  0
    1.3650    5.1137    8.2421 H   0  0  0  0  0  0  0  0  0  0  0  0
   -1.0009    5.0816    9.0671 H   0  0  0  0  0  0  0  0  0  0  0  0
    0.5449    2.1672   12.7829 H   0  0  0  0  0  0  0  0  0  0  0  0
   -0.0651   -0.0124   13.6491 H   0  0  0  0  0  0  0  0  0  0  0  0
   -2.4682   -0.5085   13.3319 H   0  0  0  0  0  0  0  0  0  0  0  0
  1  2  2  0  0  0  0
  2  3  2  0  0  0  0
  2  4  1  0  0  0  0
  2  8  1  0  0  0  0
  4  5  1  0  0  0  0
  5  6  1  0  0  0  0
  6  7  1  0  0  0  0
  6  9  1  0  0  0  0
  7  8  1  0  0  0  0
  9 10  2  0  0  0  0
  9 33  1  0  0  0  0
 10 11  1  0  0  0  0
 11 12  2  0  0  0  0
 12 13  1  0  0  0  0
 12 32  1  0  0  0  0
 13 14  1  0  0  0  0
 14 15  2  0  0  0  0
 14 22  1  0  0  0  0
 15 16  1  0  0  0  0
 16 17  2  0  0  0  0
 16 23  1  0  0  0  0
 17 18  1  0  0  0  0
 18 19  1  0  0  0  0
 18 22  1  0  0  0  0
 19 20  2  0  0  0  0
 20 21  1  0  0  0  0
 21 22  2  0  0  0  0
 23 24  1  0  0  0  0
 23 31  2  0  0  0  0
 24 25  2  0  0  0  0
 25 26  1  0  0  0  0
 26 27  2  0  0  0  0
 26 30  1  0  0  0  0
 27 28  1  0  0  0  0
 28 29  1  0  0  0  0
 29 30  2  0  0  0  0
 30 31  1  0  0  0  0
 32 33  2  0  0  0  0
  4 34  1  0  0  0  0
  4 35  1  0  0  0  0
  5 36  1  0  0  0  0
  5 37  1  0  0  0  0
  7 38  1  0  0  0  0
  7 39  1  0  0  0  0
  8 40  1  0  0  0  0
  8 41  1  0  0  0  0
 10 42  1  0  0  0  0
 11 43  1  0  0  0  0
 13 44  1  0  0  0  0
 17 45  1  0  0  0  0
 19 46  1  0  0  0  0
 20 47  1  0  0  0  0
 24 48  1  0  0  0  0
 25 49  1  0  0  0  0
 27 50  1  0  0  0  0
 28 51  1  0  0  0  0
 31 52  1  0  0  0  0
 32 53  1  0  0  0  0
 33 54  1  0  0  0  0
M  END
> <IC50[nM]>
2.1

$$$$
CHEMBL3265033
  -OEChem-05192314333D
 Structure written by MMmdl.
 54 59  0     0  0  0  0  0  0999 V2000
   -6.7377   -5.5954   13.7078 O   0  0  0  0  0  0  0  0  0  0  0  0
   -6.4109   -4.1827   13.9768 S   0  0  0  0  0  0  0  0  0  0  0  0
   -7.4853   -3.1691   13.9645 O   0  0  0  0  0  0  0  0  0  0  0  0
   -5.0718   -3.6553   12.8024 C   0  0  0  0  0  0  0  0  0  0  0  0
   -4.5093   -2.3051   13.2740 C   0  0  0  0  0  0  0  0  0  0  0  0
   -3.8452   -2.4085   14.5766 N   0  0  0  0  0  0  0  0  0  0  0  0
   -4.8019   -2.6733   15.6705 C   0  0  0  0  0  0  0  0  0  0  0  0
   -5.4613   -4.0603   15.5733 C   0  0  0  0  0  0  0  0  0  0  0  0
   -2.5026   -2.1121   14.7721 C   0  0  0  0  0  0  0  0  0  0  0  0
   -1.7498   -2.8472   15.6821 C   0  0  0  0  0  0  0  0  0  0  0  0
   -0.3947   -2.5947   15.8318 C   0  0  0  0  0  0  0  0  0  0  0  0
    0.2287   -1.5788   15.1039 C   0  0  0  0  0  0  0  0  0  0  0  0
    1.6093   -1.3648   15.3339 N   0  0  0  0  0  0  0  0  0  0  0  0
    2.5318   -0.4383   14.7801 C   0  0  0  0  0  0  0  0  0  0  0  0
    2.1634    0.3921   13.7540 N   0  0  0  0  0  0  0  0  0  0  0  0
    3.0974    1.2392   13.2246 C   0  0  0  0  0  0  0  0  0  0  0  0
    4.4044    1.2817   13.6944 C   0  0  0  0  0  0  0  0  0  0  0  0
    4.7423    0.4925   14.7592 N   0  0  0  0  0  0  0  0  0  0  0  0
    5.8954    0.3870   15.4778 C   0  0  0  0  0  0  0  0  0  0  0  0
    5.5990   -0.5412   16.5094 C   0  0  0  0  0  0  0  0  0  0  0  0
    4.3871   -1.0534   16.3565 N   0  0  0  0  0  0  0  0  0  0  0  0
    3.8359   -0.3945   15.3234 C   0  0  0  0  0  0  0  0  0  0  0  0
    2.6253    2.1534   12.1201 C   0  0  0  0  0  0  0  0  0  0  0  0
    3.5412    2.6427   11.1681 C   0  0  0  0  0  0  0  0  0  0  0  0
    3.1527    3.4644   10.1100 C   0  0  0  0  0  0  0  0  0  0  0  0
    1.8061    3.8184   10.0146 C   0  0  0  0  0  0  0  0  0  0  0  0
    0.9967    4.6031    9.1196 C   0  0  0  0  0  0  0  0  0  0  0  0
   -0.2439    4.6096    9.5190 N   0  0  0  0  0  0  0  0  0  0  0  0
   -0.3333    3.8812   10.6311 N   0  0  0  0  0  0  0  0  0  0  0  0
    0.8847    3.3487   10.9898 C   0  0  0  0  0  0  0  0  0  0  0  0
    1.2610    2.5149   12.0531 C   0  0  0  0  0  0  0  0  0  0  0  0
   -0.5302   -0.8124   14.2060 C   0  0  0  0  0  0  0  0  0  0  0  0
   -1.8875   -1.0872   14.0350 C   0  0  0  0  0  0  0  0  0  0  0  0
   -4.2696   -4.4079   12.7930 H   0  0  0  0  0  0  0  0  0  0  0  0
   -5.4876   -3.5500   11.7895 H   0  0  0  0  0  0  0  0  0  0  0  0
   -3.7809   -1.9459   12.5321 H   0  0  0  0  0  0  0  0  0  0  0  0
   -5.3368   -1.5847   13.3540 H   0  0  0  0  0  0  0  0  0  0  0  0
   -4.2654   -2.6071   16.6285 H   0  0  0  0  0  0  0  0  0  0  0  0
   -5.5909   -1.9075   15.6385 H   0  0  0  0  0  0  0  0  0  0  0  0
   -6.1485   -4.2002   16.4208 H   0  0  0  0  0  0  0  0  0  0  0  0
   -4.6844   -4.8386   15.5989 H   0  0  0  0  0  0  0  0  0  0  0  0
   -2.2224   -3.6171   16.2739 H   0  0  0  0  0  0  0  0  0  0  0  0
    0.1860   -3.1911   16.5199 H   0  0  0  0  0  0  0  0  0  0  0  0
    1.2287    0.3788   13.3989 H   0  0  0  0  0  0  0  0  0  0  0  0
    5.1375    1.9239   13.2289 H   0  0  0  0  0  0  0  0  0  0  0  0
    6.8303    0.8980   15.3009 H   0  0  0  0  0  0  0  0  0  0  0  0
    6.2731   -0.7965   17.3137 H   0  0  0  0  0  0  0  0  0  0  0  0
    4.5825    2.3716   11.2609 H   0  0  0  0  0  0  0  0  0  0  0  0
    3.8727    3.8163    9.3860 H   0  0  0  0  0  0  0  0  0  0  0  0
    1.3650    5.1137    8.2421 H   0  0  0  0  0  0  0  0  0  0  0  0
   -1.1808    3.7388   11.1424 H   0  0  0  0  0  0  0  0  0  0  0  0
    0.5449    2.1672   12.7829 H   0  0  0  0  0  0  0  0  0  0  0  0
   -0.0651   -0.0124   13.6491 H   0  0  0  0  0  0  0  0  0  0  0  0
   -2.4682   -0.5085   13.3319 H   0  0  0  0  0  0  0  0  0  0  0  0
  1  2  2  0  0  0  0
  2  3  2  0  0  0  0
  2  4  1  0  0  0  0
  2  8  1  0  0  0  0
  4  5  1  0  0  0  0
  5  6  1  0  0  0  0
  6  7  1  0  0  0  0
  6  9  1  0  0  0  0
  7  8  1  0  0  0  0
  9 10  2  0  0  0  0
  9 33  1  0  0  0  0
 10 11  1  0  0  0  0
 11 12  2  0  0  0  0
 12 13  1  0  0  0  0
 12 32  1  0  0  0  0
 13 14  2  0  0  0  0
 14 15  1  0  0  0  0
 14 22  1  0  0  0  0
 15 16  1  0  0  0  0
 16 17  2  0  0  0  0
 16 23  1  0  0  0  0
 17 18  1  0  0  0  0
 18 19  1  0  0  0  0
 18 22  1  0  0  0  0
 19 20  2  0  0  0  0
 20 21  1  0  0  0  0
 21 22  2  0  0  0  0
 23 24  2  0  0  0  0
 23 31  1  0  0  0  0
 24 25  1  0  0  0  0
 25 26  2  0  0  0  0
 26 27  1  0  0  0  0
 26 30  1  0  0  0  0
 27 28  2  0  0  0  0
 28 29  1  0  0  0  0
 29 30  1  0  0  0  0
 30 31  2  0  0  0  0
 32 33  2  0  0  0  0
  4 34  1  0  0  0  0
  4 35  1  0  0  0  0
  5 36  1  0  0  0  0
  5 37  1  0  0  0  0
  7 38  1  0  0  0  0
  7 39  1  0  0  0  0
  8 40  1  0  0  0  0
  8 41  1  0  0  0  0
 10 42  1  0  0  0  0
 11 43  1  0  0  0  0
 15 44  1  0  0  0  0
 17 45  1  0  0  0  0
 19 46  1  0  0  0  0
 20 47  1  0  0  0  0
 24 48  1  0  0  0  0
 25 49  1  0  0  0  0
 27 50  1  0  0  0  0
 29 51  1  0  0  0  0
 31 52  1  0  0  0  0
 32 53  1  0  0  0  0
 33 54  1  0  0  0  0
M  END
> <IC50[nM]>
2.1

$$$$
CHEMBL3265033
  -OEChem-05192314333D
 Structure written by MMmdl.
 54 59  0     0  0  0  0  0  0999 V2000
   -6.7377   -5.5954   13.7078 O   0  0  0  0  0  0  0  0  0  0  0  0
   -6.4109   -4.1827   13.9768 S   0  0  0  0  0  0  0  0  0  0  0  0
   -7.4853   -3.1691   13.9645 O   0  0  0  0  0  0  0  0  0  0  0  0
   -5.0718   -3.6553   12.8024 C   0  0  0  0  0  0  0  0  0  0  0  0
   -4.5093   -2.3051   13.2740 C   0  0  0  0  0  0  0  0  0  0  0  0
   -3.8452   -2.4085   14.5766 N   0  0  0  0  0  0  0  0  0  0  0  0
   -4.8019   -2.6733   15.6705 C   0  0  0  0  0  0  0  0  0  0  0  0
   -5.4613   -4.0603   15.5733 C   0  0  0  0  0  0  0  0  0  0  0  0
   -2.5026   -2.1121   14.7721 C   0  0  0  0  0  0  0  0  0  0  0  0
   -1.7498   -2.8472   15.6821 C   0  0  0  0  0  0  0  0  0  0  0  0
   -0.3947   -2.5947   15.8318 C   0  0  0  0  0  0  0  0  0  0  0  0
    0.2287   -1.5788   15.1039 C   0  0  0  0  0  0  0  0  0  0  0  0
    1.6093   -1.3648   15.3339 N   0  0  0  0  0  0  0  0  0  0  0  0
    2.5318   -0.4383   14.7801 C   0  0  0  0  0  0  0  0  0  0  0  0
    2.1634    0.3921   13.7540 N   0  0  0  0  0  0  0  0  0  0  0  0
    3.0974    1.2392   13.2246 C   0  0  0  0  0  0  0  0  0  0  0  0
    4.4044    1.2817   13.6944 C   0  0  0  0  0  0  0  0  0  0  0  0
    4.7423    0.4925   14.7592 N   0  0  0  0  0  0  0  0  0  0  0  0
    5.8954    0.3870   15.4778 C   0  0  0  0  0  0  0  0  0  0  0  0
    5.5990   -0.5412   16.5094 C   0  0  0  0  0  0  0  0  0  0  0  0
    4.3871   -1.0534   16.3565 N   0  0  0  0  0  0  0  0  0  0  0  0
    3.8359   -0.3945   15.3234 C   0  0  0  0  0  0  0  0  0  0  0  0
    2.6253    2.1534   12.1201 C   0  0  0  0  0  0  0  0  0  0  0  0
    3.5412    2.6427   11.1681 C   0  0  0  0  0  0  0  0  0  0  0  0
    3.1527    3.4644   10.1100 C   0  0  0  0  0  0  0  0  0  0  0  0
    1.8061    3.8184   10.0146 C   0  0  0  0  0  0  0  0  0  0  0  0
    0.9967    4.6031    9.1196 C   0  0  0  0  0  0  0  0  0  0  0  0
   -0.2439    4.6096    9.5190 N   0  0  0  0  0  0  0  0  0  0  0  0
   -0.3333    3.8812   10.6311 N   0  0  0  0  0  0  0  0  0  0  0  0
    0.8847    3.3487   10.9898 C   0  0  0  0  0  0  0  0  0  0  0  0
    1.2610    2.5149   12.0531 C   0  0  0  0  0  0  0  0  0  0  0  0
   -0.5302   -0.8124   14.2060 C   0  0  0  0  0  0  0  0  0  0  0  0
   -1.8875   -1.0872   14.0350 C   0  0  0  0  0  0  0  0  0  0  0  0
   -4.2696   -4.4079   12.7930 H   0  0  0  0  0  0  0  0  0  0  0  0
   -5.4876   -3.5500   11.7895 H   0  0  0  0  0  0  0  0  0  0  0  0
   -3.7809   -1.9459   12.5321 H   0  0  0  0  0  0  0  0  0  0  0  0
   -5.3368   -1.5847   13.3540 H   0  0  0  0  0  0  0  0  0  0  0  0
   -4.2654   -2.6071   16.6285 H   0  0  0  0  0  0  0  0  0  0  0  0
   -5.5909   -1.9075   15.6385 H   0  0  0  0  0  0  0  0  0  0  0  0
   -6.1485   -4.2002   16.4208 H   0  0  0  0  0  0  0  0  0  0  0  0
   -4.6844   -4.8386   15.5989 H   0  0  0  0  0  0  0  0  0  0  0  0
   -2.2224   -3.6171   16.2739 H   0  0  0  0  0  0  0  0  0  0  0  0
    0.1860   -3.1911   16.5199 H   0  0  0  0  0  0  0  0  0  0  0  0
    1.2287    0.3788   13.3989 H   0  0  0  0  0  0  0  0  0  0  0  0
    5.1375    1.9239   13.2289 H   0  0  0  0  0  0  0  0  0  0  0  0
    6.8303    0.8980   15.3009 H   0  0  0  0  0  0  0  0  0  0  0  0
    6.2731   -0.7965   17.3137 H   0  0  0  0  0  0  0  0  0  0  0  0
    4.5825    2.3716   11.2609 H   0  0  0  0  0  0  0  0  0  0  0  0
    3.8727    3.8163    9.3860 H   0  0  0  0  0  0  0  0  0  0  0  0
    1.3650    5.1137    8.2421 H   0  0  0  0  0  0  0  0  0  0  0  0
   -1.0009    5.0816    9.0671 H   0  0  0  0  0  0  0  0  0  0  0  0
    0.5449    2.1672   12.7829 H   0  0  0  0  0  0  0  0  0  0  0  0
   -0.0651   -0.0124   13.6491 H   0  0  0  0  0  0  0  0  0  0  0  0
   -2.4682   -0.5085   13.3319 H   0  0  0  0  0  0  0  0  0  0  0  0
  1  2  2  0  0  0  0
  2  3  2  0  0  0  0
  2  4  1  0  0  0  0
  2  8  1  0  0  0  0
  4  5  1  0  0  0  0
  5  6  1  0  0  0  0
  6  7  1  0  0  0  0
  6  9  1  0  0  0  0
  7  8  1  0  0  0  0
  9 10  2  0  0  0  0
  9 33  1  0  0  0  0
 10 11  1  0  0  0  0
 11 12  2  0  0  0  0
 12 13  1  0  0  0  0
 12 32  1  0  0  0  0
 13 14  2  0  0  0  0
 14 15  1  0  0  0  0
 14 22  1  0  0  0  0
 15 16  1  0  0  0  0
 16 17  2  0  0  0  0
 16 23  1  0  0  0  0
 17 18  1  0  0  0  0
 18 19  1  0  0  0  0
 18 22  1  0  0  0  0
 19 20  2  0  0  0  0
 20 21  1  0  0  0  0
 21 22  2  0  0  0  0
 23 24  1  0  0  0  0
 23 31  2  0  0  0  0
 24 25  2  0  0  0  0
 25 26  1  0  0  0  0
 26 27  2  0  0  0  0
 26 30  1  0  0  0  0
 27 28  1  0  0  0  0
 28 29  1  0  0  0  0
 29 30  2  0  0  0  0
 30 31  1  0  0  0  0
 32 33  2  0  0  0  0
  4 34  1  0  0  0  0
  4 35  1  0  0  0  0
  5 36  1  0  0  0  0
  5 37  1  0  0  0  0
  7 38  1  0  0  0  0
  7 39  1  0  0  0  0
  8 40  1  0  0  0  0
  8 41  1  0  0  0  0
 10 42  1  0  0  0  0
 11 43  1  0  0  0  0
 15 44  1  0  0  0  0
 17 45  1  0  0  0  0
 19 46  1  0  0  0  0
 20 47  1  0  0  0  0
 24 48  1  0  0  0  0
 25 49  1  0  0  0  0
 27 50  1  0  0  0  0
 28 51  1  0  0  0  0
 31 52  1  0  0  0  0
 32 53  1  0  0  0  0
 33 54  1  0  0  0  0
M  END
> <IC50[nM]>
2.1

$$$$
CHEMBL3265033
  -OEChem-05192314333D
 Structure written by MMmdl.
 54 59  0     0  0  0  0  0  0999 V2000
   -6.7377   -5.5954   13.7078 O   0  0  0  0  0  0  0  0  0  0  0  0
   -6.4109   -4.1827   13.9768 S   0  0  0  0  0  0  0  0  0  0  0  0
   -7.4853   -3.1691   13.9645 O   0  0  0  0  0  0  0  0  0  0  0  0
   -5.0718   -3.6553   12.8024 C   0  0  0  0  0  0  0  0  0  0  0  0
   -4.5093   -2.3051   13.2740 C   0  0  0  0  0  0  0  0  0  0  0  0
   -3.8452   -2.4085   14.5766 N   0  0  0  0  0  0  0  0  0  0  0  0
   -4.8019   -2.6733   15.6705 C   0  0  0  0  0  0  0  0  0  0  0  0
   -5.4613   -4.0603   15.5733 C   0  0  0  0  0  0  0  0  0  0  0  0
   -2.5026   -2.1121   14.7721 C   0  0  0  0  0  0  0  0  0  0  0  0
   -1.7498   -2.8472   15.6821 C   0  0  0  0  0  0  0  0  0  0  0  0
   -0.3947   -2.5947   15.8318 C   0  0  0  0  0  0  0  0  0  0  0  0
    0.2287   -1.5788   15.1039 C   0  0  0  0  0  0  0  0  0  0  0  0
    1.6093   -1.3648   15.3339 N   0  0  0  0  0  0  0  0  0  0  0  0
    2.5318   -0.4383   14.7801 C   0  0  0  0  0  0  0  0  0  0  0  0
    2.1634    0.3921   13.7540 N   0  0  0  0  0  0  0  0  0  0  0  0
    3.0974    1.2392   13.2246 C   0  0  0  0  0  0  0  0  0  0  0  0
    4.4044    1.2817   13.6944 C   0  0  0  0  0  0  0  0  0  0  0  0
    4.7423    0.4925   14.7592 N   0  0  0  0  0  0  0  0  0  0  0  0
    5.8954    0.3870   15.4778 C   0  0  0  0  0  0  0  0  0  0  0  0
    5.5990   -0.5412   16.5094 C   0  0  0  0  0  0  0  0  0  0  0  0
    4.3871   -1.0534   16.3565 N   0  0  0  0  0  0  0  0  0  0  0  0
    3.8359   -0.3945   15.3234 C   0  0  0  0  0  0  0  0  0  0  0  0
    2.6253    2.1534   12.1201 C   0  0  0  0  0  0  0  0  0  0  0  0
    3.5412    2.6427   11.1681 C   0  0  0  0  0  0  0  0  0  0  0  0
    3.1527    3.4644   10.1100 C   0  0  0  0  0  0  0  0  0  0  0  0
    1.8061    3.8184   10.0146 C   0  0  0  0  0  0  0  0  0  0  0  0
    0.9967    4.6031    9.1196 C   0  0  0  0  0  0  0  0  0  0  0  0
   -0.2439    4.6096    9.5190 N   0  0  0  0  0  0  0  0  0  0  0  0
   -0.3333    3.8812   10.6311 N   0  0  0  0  0  0  0  0  0  0  0  0
    0.8847    3.3487   10.9898 C   0  0  0  0  0  0  0  0  0  0  0  0
    1.2610    2.5149   12.0531 C   0  0  0  0  0  0  0  0  0  0  0  0
   -0.5302   -0.8124   14.2060 C   0  0  0  0  0  0  0  0  0  0  0  0
   -1.8875   -1.0872   14.0350 C   0  0  0  0  0  0  0  0  0  0  0  0
   -4.2696   -4.4079   12.7930 H   0  0  0  0  0  0  0  0  0  0  0  0
   -5.4876   -3.5500   11.7895 H   0  0  0  0  0  0  0  0  0  0  0  0
   -3.7809   -1.9459   12.5321 H   0  0  0  0  0  0  0  0  0  0  0  0
   -5.3368   -1.5847   13.3540 H   0  0  0  0  0  0  0  0  0  0  0  0
   -4.2654   -2.6071   16.6285 H   0  0  0  0  0  0  0  0  0  0  0  0
   -5.5909   -1.9075   15.6385 H   0  0  0  0  0  0  0  0  0  0  0  0
   -6.1485   -4.2002   16.4208 H   0  0  0  0  0  0  0  0  0  0  0  0
   -4.6844   -4.8386   15.5989 H   0  0  0  0  0  0  0  0  0  0  0  0
   -2.2224   -3.6171   16.2739 H   0  0  0  0  0  0  0  0  0  0  0  0
    0.1860   -3.1911   16.5199 H   0  0  0  0  0  0  0  0  0  0  0  0
    2.0091   -1.9808   16.0127 H   0  0  0  0  0  0  0  0  0  0  0  0
    5.1375    1.9239   13.2289 H   0  0  0  0  0  0  0  0  0  0  0  0
    6.8303    0.8980   15.3009 H   0  0  0  0  0  0  0  0  0  0  0  0
    6.2731   -0.7965   17.3137 H   0  0  0  0  0  0  0  0  0  0  0  0
    4.5825    2.3716   11.2609 H   0  0  0  0  0  0  0  0  0  0  0  0
    3.8727    3.8163    9.3860 H   0  0  0  0  0  0  0  0  0  0  0  0
    1.3762    5.6353    9.0979 H   0  0  0  0  0  0  0  0  0  0  0  0
    1.0503    4.1714    8.1093 H   0  0  0  0  0  0  0  0  0  0  0  0
    0.5449    2.1672   12.7829 H   0  0  0  0  0  0  0  0  0  0  0  0
   -0.0651   -0.0124   13.6491 H   0  0  0  0  0  0  0  0  0  0  0  0
   -2.4682   -0.5085   13.3319 H   0  0  0  0  0  0  0  0  0  0  0  0
  1  2  2  0  0  0  0
  2  3  2  0  0  0  0
  2  4  1  0  0  0  0
  2  8  1  0  0  0  0
  4  5  1  0  0  0  0
  5  6  1  0  0  0  0
  6  7  1  0  0  0  0
  6  9  1  0  0  0  0
  7  8  1  0  0  0  0
  9 10  2  0  0  0  0
  9 33  1  0  0  0  0
 10 11  1  0  0  0  0
 11 12  2  0  0  0  0
 12 13  1  0  0  0  0
 12 32  1  0  0  0  0
 13 14  1  0  0  0  0
 14 15  2  0  0  0  0
 14 22  1  0  0  0  0
 15 16  1  0  0  0  0
 16 17  2  0  0  0  0
 16 23  1  0  0  0  0
 17 18  1  0  0  0  0
 18 19  1  0  0  0  0
 18 22  1  0  0  0  0
 19 20  2  0  0  0  0
 20 21  1  0  0  0  0
 21 22  2  0  0  0  0
 23 24  2  0  0  0  0
 23 31  1  0  0  0  0
 24 25  1  0  0  0  0
 25 26  2  0  0  0  0
 26 27  1  0  0  0  0
 26 30  1  0  0  0  0
 27 28  1  0  0  0  0
 28 29  2  0  0  0  0
 29 30  1  0  0  0  0
 30 31  2  0  0  0  0
 32 33  2  0  0  0  0
  4 34  1  0  0  0  0
  4 35  1  0  0  0  0
  5 36  1  0  0  0  0
  5 37  1  0  0  0  0
  7 38  1  0  0  0  0
  7 39  1  0  0  0  0
  8 40  1  0  0  0  0
  8 41  1  0  0  0  0
 10 42  1  0  0  0  0
 11 43  1  0  0  0  0
 13 44  1  0  0  0  0
 17 45  1  0  0  0  0
 19 46  1  0  0  0  0
 20 47  1  0  0  0  0
 24 48  1  0  0  0  0
 25 49  1  0  0  0  0
 27 50  1  0  0  0  0
 27 51  1  0  0  0  0
 31 52  1  0  0  0  0
 32 53  1  0  0  0  0
 33 54  1  0  0  0  0
M  END
> <IC50[nM]>
2.1

$$$$
CHEMBL3265033
  -OEChem-05192314333D
 Structure written by MMmdl.
 54 59  0     0  0  0  0  0  0999 V2000
   -6.7377   -5.5954   13.7078 O   0  0  0  0  0  0  0  0  0  0  0  0
   -6.4109   -4.1827   13.9768 S   0  0  0  0  0  0  0  0  0  0  0  0
   -7.4853   -3.1691   13.9645 O   0  0  0  0  0  0  0  0  0  0  0  0
   -5.0718   -3.6553   12.8024 C   0  0  0  0  0  0  0  0  0  0  0  0
   -4.5093   -2.3051   13.2740 C   0  0  0  0  0  0  0  0  0  0  0  0
   -3.8452   -2.4085   14.5766 N   0  0  0  0  0  0  0  0  0  0  0  0
   -4.8019   -2.6733   15.6705 C   0  0  0  0  0  0  0  0  0  0  0  0
   -5.4613   -4.0603   15.5733 C   0  0  0  0  0  0  0  0  0  0  0  0
   -2.5026   -2.1121   14.7721 C   0  0  0  0  0  0  0  0  0  0  0  0
   -1.7498   -2.8472   15.6821 C   0  0  0  0  0  0  0  0  0  0  0  0
   -0.3947   -2.5947   15.8318 C   0  0  0  0  0  0  0  0  0  0  0  0
    0.2287   -1.5788   15.1039 C   0  0  0  0  0  0  0  0  0  0  0  0
    1.6093   -1.3648   15.3339 N   0  0  0  0  0  0  0  0  0  0  0  0
    2.5318   -0.4383   14.7801 C   0  0  0  0  0  0  0  0  0  0  0  0
    2.1634    0.3921   13.7540 N   0  0  0  0  0  0  0  0  0  0  0  0
    3.0974    1.2392   13.2246 C   0  0  0  0  0  0  0  0  0  0  0  0
    4.4044    1.2817   13.6944 C   0  0  0  0  0  0  0  0  0  0  0  0
    4.7423    0.4925   14.7592 N   0  0  0  0  0  0  0  0  0  0  0  0
    5.8954    0.3870   15.4778 C   0  0  0  0  0  0  0  0  0  0  0  0
    5.5990   -0.5412   16.5094 C   0  0  0  0  0  0  0  0  0  0  0  0
    4.3871   -1.0534   16.3565 N   0  0  0  0  0  0  0  0  0  0  0  0
    3.8359   -0.3945   15.3234 C   0  0  0  0  0  0  0  0  0  0  0  0
    2.6253    2.1534   12.1201 C   0  0  0  0  0  0  0  0  0  0  0  0
    3.5412    2.6427   11.1681 C   0  0  0  0  0  0  0  0  0  0  0  0
    3.1527    3.4644   10.1100 C   0  0  0  0  0  0  0  0  0  0  0  0
    1.8061    3.8184   10.0146 C   0  0  0  0  0  0  0  0  0  0  0  0
    0.9967    4.6031    9.1196 C   0  0  0  0  0  0  0  0  0  0  0  0
   -0.2439    4.6096    9.5190 N   0  0  0  0  0  0  0  0  0  0  0  0
   -0.3333    3.8812   10.6311 N   0  0  0  0  0  0  0  0  0  0  0  0
    0.8847    3.3487   10.9898 C   0  0  0  0  0  0  0  0  0  0  0  0
    1.2610    2.5149   12.0531 C   0  0  0  0  0  0  0  0  0  0  0  0
   -0.5302   -0.8124   14.2060 C   0  0  0  0  0  0  0  0  0  0  0  0
   -1.8875   -1.0872   14.0350 C   0  0  0  0  0  0  0  0  0  0  0  0
   -4.2696   -4.4079   12.7930 H   0  0  0  0  0  0  0  0  0  0  0  0
   -5.4876   -3.5500   11.7895 H   0  0  0  0  0  0  0  0  0  0  0  0
   -3.7809   -1.9459   12.5321 H   0  0  0  0  0  0  0  0  0  0  0  0
   -5.3368   -1.5847   13.3540 H   0  0  0  0  0  0  0  0  0  0  0  0
   -4.2654   -2.6071   16.6285 H   0  0  0  0  0  0  0  0  0  0  0  0
   -5.5909   -1.9075   15.6385 H   0  0  0  0  0  0  0  0  0  0  0  0
   -6.1485   -4.2002   16.4208 H   0  0  0  0  0  0  0  0  0  0  0  0
   -4.6844   -4.8386   15.5989 H   0  0  0  0  0  0  0  0  0  0  0  0
   -2.2224   -3.6171   16.2739 H   0  0  0  0  0  0  0  0  0  0  0  0
    0.1860   -3.1911   16.5199 H   0  0  0  0  0  0  0  0  0  0  0  0
    1.2287    0.3788   13.3989 H   0  0  0  0  0  0  0  0  0  0  0  0
    5.1375    1.9239   13.2289 H   0  0  0  0  0  0  0  0  0  0  0  0
    6.8303    0.8980   15.3009 H   0  0  0  0  0  0  0  0  0  0  0  0
    6.2731   -0.7965   17.3137 H   0  0  0  0  0  0  0  0  0  0  0  0
    4.5825    2.3716   11.2609 H   0  0  0  0  0  0  0  0  0  0  0  0
    3.8727    3.8163    9.3860 H   0  0  0  0  0  0  0  0  0  0  0  0
    1.3762    5.6353    9.0979 H   0  0  0  0  0  0  0  0  0  0  0  0
    1.0503    4.1714    8.1093 H   0  0  0  0  0  0  0  0  0  0  0  0
    0.5449    2.1672   12.7829 H   0  0  0  0  0  0  0  0  0  0  0  0
   -0.0651   -0.0124   13.6491 H   0  0  0  0  0  0  0  0  0  0  0  0
   -2.4682   -0.5085   13.3319 H   0  0  0  0  0  0  0  0  0  0  0  0
  1  2  2  0  0  0  0
  2  3  2  0  0  0  0
  2  4  1  0  0  0  0
  2  8  1  0  0  0  0
  4  5  1  0  0  0  0
  5  6  1  0  0  0  0
  6  7  1  0  0  0  0
  6  9  1  0  0  0  0
  7  8  1  0  0  0  0
  9 10  2  0  0  0  0
  9 33  1  0  0  0  0
 10 11  1  0  0  0  0
 11 12  2  0  0  0  0
 12 13  1  0  0  0  0
 12 32  1  0  0  0  0
 13 14  2  0  0  0  0
 14 15  1  0  0  0  0
 14 22  1  0  0  0  0
 15 16  1  0  0  0  0
 16 17  2  0  0  0  0
 16 23  1  0  0  0  0
 17 18  1  0  0  0  0
 18 19  1  0  0  0  0
 18 22  1  0  0  0  0
 19 20  2  0  0  0  0
 20 21  1  0  0  0  0
 21 22  2  0  0  0  0
 23 24  2  0  0  0  0
 23 31  1  0  0  0  0
 24 25  1  0  0  0  0
 25 26  2  0  0  0  0
 26 27  1  0  0  0  0
 26 30  1  0  0  0  0
 27 28  1  0  0  0  0
 28 29  2  0  0  0  0
 29 30  1  0  0  0  0
 30 31  2  0  0  0  0
 32 33  2  0  0  0  0
  4 34  1  0  0  0  0
  4 35  1  0  0  0  0
  5 36  1  0  0  0  0
  5 37  1  0  0  0  0
  7 38  1  0  0  0  0
  7 39  1  0  0  0  0
  8 40  1  0  0  0  0
  8 41  1  0  0  0  0
 10 42  1  0  0  0  0
 11 43  1  0  0  0  0
 15 44  1  0  0  0  0
 17 45  1  0  0  0  0
 19 46  1  0  0  0  0
 20 47  1  0  0  0  0
 24 48  1  0  0  0  0
 25 49  1  0  0  0  0
 27 50  1  0  0  0  0
 27 51  1  0  0  0  0
 31 52  1  0  0  0  0
 32 53  1  0  0  0  0
 33 54  1  0  0  0  0
M  END
> <IC50[nM]>
2.1

$$$$
CHEMBL3265033
  -OEChem-05192314333D
 Structure written by MMmdl.
 54 59  0     0  0  0  0  0  0999 V2000
   -6.7377   -5.5954   13.7078 O   0  0  0  0  0  0  0  0  0  0  0  0
   -6.4109   -4.1827   13.9768 S   0  0  0  0  0  0  0  0  0  0  0  0
   -7.4853   -3.1691   13.9645 O   0  0  0  0  0  0  0  0  0  0  0  0
   -5.0718   -3.6553   12.8024 C   0  0  0  0  0  0  0  0  0  0  0  0
   -4.5093   -2.3051   13.2740 C   0  0  0  0  0  0  0  0  0  0  0  0
   -3.8452   -2.4085   14.5766 N   0  0  0  0  0  0  0  0  0  0  0  0
   -4.8019   -2.6733   15.6705 C   0  0  0  0  0  0  0  0  0  0  0  0
   -5.4613   -4.0603   15.5733 C   0  0  0  0  0  0  0  0  0  0  0  0
   -2.5026   -2.1121   14.7721 C   0  0  0  0  0  0  0  0  0  0  0  0
   -1.7498   -2.8472   15.6821 C   0  0  0  0  0  0  0  0  0  0  0  0
   -0.3947   -2.5947   15.8318 C   0  0  0  0  0  0  0  0  0  0  0  0
    0.2287   -1.5788   15.1039 C   0  0  0  0  0  0  0  0  0  0  0  0
    1.6093   -1.3648   15.3339 N   0  0  0  0  0  0  0  0  0  0  0  0
    2.5318   -0.4383   14.7801 C   0  0  0  0  0  0  0  0  0  0  0  0
    2.1634    0.3921   13.7540 N   0  0  0  0  0  0  0  0  0  0  0  0
    3.0974    1.2392   13.2246 C   0  0  0  0  0  0  0  0  0  0  0  0
    4.4044    1.2817   13.6944 C   0  0  0  0  0  0  0  0  0  0  0  0
    4.7423    0.4925   14.7592 N   0  0  0  0  0  0  0  0  0  0  0  0
    5.8954    0.3870   15.4778 C   0  0  0  0  0  0  0  0  0  0  0  0
    5.5990   -0.5412   16.5094 C   0  0  0  0  0  0  0  0  0  0  0  0
    4.3871   -1.0534   16.3565 N   0  0  0  0  0  0  0  0  0  0  0  0
    3.8359   -0.3945   15.3234 C   0  0  0  0  0  0  0  0  0  0  0  0
    2.6253    2.1534   12.1201 C   0  0  0  0  0  0  0  0  0  0  0  0
    3.5412    2.6427   11.1681 C   0  0  0  0  0  0  0  0  0  0  0  0
    3.1527    3.4644   10.1100 C   0  0  0  0  0  0  0  0  0  0  0  0
    1.8061    3.8184   10.0146 C   0  0  0  0  0  0  0  0  0  0  0  0
    0.9967    4.6031    9.1196 C   0  0  0  0  0  0  0  0  0  0  0  0
   -0.2439    4.6096    9.5190 N   0  0  0  0  0  0  0  0  0  0  0  0
   -0.3333    3.8812   10.6311 N   0  0  0  0  0  0  0  0  0  0  0  0
    0.8847    3.3487   10.9898 C   0  0  0  0  0  0  0  0  0  0  0  0
    1.2610    2.5149   12.0531 C   0  0  0  0  0  0  0  0  0  0  0  0
   -0.5302   -0.8124   14.2060 C   0  0  0  0  0  0  0  0  0  0  0  0
   -1.8875   -1.0872   14.0350 C   0  0  0  0  0  0  0  0  0  0  0  0
   -4.2696   -4.4079   12.7930 H   0  0  0  0  0  0  0  0  0  0  0  0
   -5.4876   -3.5500   11.7895 H   0  0  0  0  0  0  0  0  0  0  0  0
   -3.7809   -1.9459   12.5321 H   0  0  0  0  0  0  0  0  0  0  0  0
   -5.3368   -1.5847   13.3540 H   0  0  0  0  0  0  0  0  0  0  0  0
   -4.2654   -2.6071   16.6285 H   0  0  0  0  0  0  0  0  0  0  0  0
   -5.5909   -1.9075   15.6385 H   0  0  0  0  0  0  0  0  0  0  0  0
   -6.1485   -4.2002   16.4208 H   0  0  0  0  0  0  0  0  0  0  0  0
   -4.6844   -4.8386   15.5989 H   0  0  0  0  0  0  0  0  0  0  0  0
   -2.2224   -3.6171   16.2739 H   0  0  0  0  0  0  0  0  0  0  0  0
    0.1860   -3.1911   16.5199 H   0  0  0  0  0  0  0  0  0  0  0  0
    5.0593    0.9960   12.8580 H   0  0  0  0  0  0  0  0  0  0  0  0
    4.6116    2.3226   13.9833 H   0  0  0  0  0  0  0  0  0  0  0  0
    6.8303    0.8980   15.3009 H   0  0  0  0  0  0  0  0  0  0  0  0
    6.2731   -0.7965   17.3137 H   0  0  0  0  0  0  0  0  0  0  0  0
    4.5825    2.3716   11.2609 H   0  0  0  0  0  0  0  0  0  0  0  0
    3.8727    3.8163    9.3860 H   0  0  0  0  0  0  0  0  0  0  0  0
    1.3650    5.1137    8.2421 H   0  0  0  0  0  0  0  0  0  0  0  0
   -1.1808    3.7388   11.1424 H   0  0  0  0  0  0  0  0  0  0  0  0
    0.5449    2.1672   12.7829 H   0  0  0  0  0  0  0  0  0  0  0  0
   -0.0651   -0.0124   13.6491 H   0  0  0  0  0  0  0  0  0  0  0  0
   -2.4682   -0.5085   13.3319 H   0  0  0  0  0  0  0  0  0  0  0  0
  1  2  2  0  0  0  0
  2  3  2  0  0  0  0
  2  4  1  0  0  0  0
  2  8  1  0  0  0  0
  4  5  1  0  0  0  0
  5  6  1  0  0  0  0
  6  7  1  0  0  0  0
  6  9  1  0  0  0  0
  7  8  1  0  0  0  0
  9 10  2  0  0  0  0
  9 33  1  0  0  0  0
 10 11  1  0  0  0  0
 11 12  2  0  0  0  0
 12 13  1  0  0  0  0
 12 32  1  0  0  0  0
 13 14  2  0  0  0  0
 14 15  1  0  0  0  0
 14 22  1  0  0  0  0
 15 16  2  0  0  0  0
 16 17  1  0  0  0  0
 16 23  1  0  0  0  0
 17 18  1  0  0  0  0
 18 19  1  0  0  0  0
 18 22  1  0  0  0  0
 19 20  2  0  0  0  0
 20 21  1  0  0  0  0
 21 22  2  0  0  0  0
 23 24  2  0  0  0  0
 23 31  1  0  0  0  0
 24 25  1  0  0  0  0
 25 26  2  0  0  0  0
 26 27  1  0  0  0  0
 26 30  1  0  0  0  0
 27 28  2  0  0  0  0
 28 29  1  0  0  0  0
 29 30  1  0  0  0  0
 30 31  2  0  0  0  0
 32 33  2  0  0  0  0
  4 34  1  0  0  0  0
  4 35  1  0  0  0  0
  5 36  1  0  0  0  0
  5 37  1  0  0  0  0
  7 38  1  0  0  0  0
  7 39  1  0  0  0  0
  8 40  1  0  0  0  0
  8 41  1  0  0  0  0
 10 42  1  0  0  0  0
 11 43  1  0  0  0  0
 17 44  1  0  0  0  0
 17 45  1  0  0  0  0
 19 46  1  0  0  0  0
 20 47  1  0  0  0  0
 24 48  1  0  0  0  0
 25 49  1  0  0  0  0
 27 50  1  0  0  0  0
 29 51  1  0  0  0  0
 31 52  1  0  0  0  0
 32 53  1  0  0  0  0
 33 54  1  0  0  0  0
M  END
> <IC50[nM]>
2.1

$$$$
CHEMBL3265033
  -OEChem-05192314333D
 Structure written by MMmdl.
 54 59  0     0  0  0  0  0  0999 V2000
   -6.7377   -5.5954   13.7078 O   0  0  0  0  0  0  0  0  0  0  0  0
   -6.4109   -4.1827   13.9768 S   0  0  0  0  0  0  0  0  0  0  0  0
   -7.4853   -3.1691   13.9645 O   0  0  0  0  0  0  0  0  0  0  0  0
   -5.0718   -3.6553   12.8024 C   0  0  0  0  0  0  0  0  0  0  0  0
   -4.5093   -2.3051   13.2740 C   0  0  0  0  0  0  0  0  0  0  0  0
   -3.8452   -2.4085   14.5766 N   0  0  0  0  0  0  0  0  0  0  0  0
   -4.8019   -2.6733   15.6705 C   0  0  0  0  0  0  0  0  0  0  0  0
   -5.4613   -4.0603   15.5733 C   0  0  0  0  0  0  0  0  0  0  0  0
   -2.5026   -2.1121   14.7721 C   0  0  0  0  0  0  0  0  0  0  0  0
   -1.7498   -2.8472   15.6821 C   0  0  0  0  0  0  0  0  0  0  0  0
   -0.3947   -2.5947   15.8318 C   0  0  0  0  0  0  0  0  0  0  0  0
    0.2287   -1.5788   15.1039 C   0  0  0  0  0  0  0  0  0  0  0  0
    1.6093   -1.3648   15.3339 N   0  0  0  0  0  0  0  0  0  0  0  0
    2.5318   -0.4383   14.7801 C   0  0  0  0  0  0  0  0  0  0  0  0
    2.1634    0.3921   13.7540 N   0  0  0  0  0  0  0  0  0  0  0  0
    3.0974    1.2392   13.2246 C   0  0  0  0  0  0  0  0  0  0  0  0
    4.4044    1.2817   13.6944 C   0  0  0  0  0  0  0  0  0  0  0  0
    4.7423    0.4925   14.7592 N   0  0  0  0  0  0  0  0  0  0  0  0
    5.8954    0.3870   15.4778 C   0  0  0  0  0  0  0  0  0  0  0  0
    5.5990   -0.5412   16.5094 C   0  0  0  0  0  0  0  0  0  0  0  0
    4.3871   -1.0534   16.3565 N   0  0  0  0  0  0  0  0  0  0  0  0
    3.8359   -0.3945   15.3234 C   0  0  0  0  0  0  0  0  0  0  0  0
    2.6253    2.1534   12.1201 C   0  0  0  0  0  0  0  0  0  0  0  0
    3.5412    2.6427   11.1681 C   0  0  0  0  0  0  0  0  0  0  0  0
    3.1527    3.4644   10.1100 C   0  0  0  0  0  0  0  0  0  0  0  0
    1.8061    3.8184   10.0146 C   0  0  0  0  0  0  0  0  0  0  0  0
    0.9967    4.6031    9.1196 C   0  0  0  0  0  0  0  0  0  0  0  0
   -0.2439    4.6096    9.5190 N   0  0  0  0  0  0  0  0  0  0  0  0
   -0.3333    3.8812   10.6311 N   0  0  0  0  0  0  0  0  0  0  0  0
    0.8847    3.3487   10.9898 C   0  0  0  0  0  0  0  0  0  0  0  0
    1.2610    2.5149   12.0531 C   0  0  0  0  0  0  0  0  0  0  0  0
   -0.5302   -0.8124   14.2060 C   0  0  0  0  0  0  0  0  0  0  0  0
   -1.8875   -1.0872   14.0350 C   0  0  0  0  0  0  0  0  0  0  0  0
   -4.2696   -4.4079   12.7930 H   0  0  0  0  0  0  0  0  0  0  0  0
   -5.4876   -3.5500   11.7895 H   0  0  0  0  0  0  0  0  0  0  0  0
   -3.7809   -1.9459   12.5321 H   0  0  0  0  0  0  0  0  0  0  0  0
   -5.3368   -1.5847   13.3540 H   0  0  0  0  0  0  0  0  0  0  0  0
   -4.2654   -2.6071   16.6285 H   0  0  0  0  0  0  0  0  0  0  0  0
   -5.5909   -1.9075   15.6385 H   0  0  0  0  0  0  0  0  0  0  0  0
   -6.1485   -4.2002   16.4208 H   0  0  0  0  0  0  0  0  0  0  0  0
   -4.6844   -4.8386   15.5989 H   0  0  0  0  0  0  0  0  0  0  0  0
   -2.2224   -3.6171   16.2739 H   0  0  0  0  0  0  0  0  0  0  0  0
    0.1860   -3.1911   16.5199 H   0  0  0  0  0  0  0  0  0  0  0  0
    5.0593    0.9960   12.8580 H   0  0  0  0  0  0  0  0  0  0  0  0
    4.6116    2.3226   13.9833 H   0  0  0  0  0  0  0  0  0  0  0  0
    6.8303    0.8980   15.3009 H   0  0  0  0  0  0  0  0  0  0  0  0
    6.2731   -0.7965   17.3137 H   0  0  0  0  0  0  0  0  0  0  0  0
    4.5825    2.3716   11.2609 H   0  0  0  0  0  0  0  0  0  0  0  0
    3.8727    3.8163    9.3860 H   0  0  0  0  0  0  0  0  0  0  0  0
    1.3650    5.1137    8.2421 H   0  0  0  0  0  0  0  0  0  0  0  0
   -1.0009    5.0816    9.0671 H   0  0  0  0  0  0  0  0  0  0  0  0
    0.5449    2.1672   12.7829 H   0  0  0  0  0  0  0  0  0  0  0  0
   -0.0651   -0.0124   13.6491 H   0  0  0  0  0  0  0  0  0  0  0  0
   -2.4682   -0.5085   13.3319 H   0  0  0  0  0  0  0  0  0  0  0  0
  1  2  2  0  0  0  0
  2  3  2  0  0  0  0
  2  4  1  0  0  0  0
  2  8  1  0  0  0  0
  4  5  1  0  0  0  0
  5  6  1  0  0  0  0
  6  7  1  0  0  0  0
  6  9  1  0  0  0  0
  7  8  1  0  0  0  0
  9 10  2  0  0  0  0
  9 33  1  0  0  0  0
 10 11  1  0  0  0  0
 11 12  2  0  0  0  0
 12 13  1  0  0  0  0
 12 32  1  0  0  0  0
 13 14  2  0  0  0  0
 14 15  1  0  0  0  0
 14 22  1  0  0  0  0
 15 16  2  0  0  0  0
 16 17  1  0  0  0  0
 16 23  1  0  0  0  0
 17 18  1  0  0  0  0
 18 19  1  0  0  0  0
 18 22  1  0  0  0  0
 19 20  2  0  0  0  0
 20 21  1  0  0  0  0
 21 22  2  0  0  0  0
 23 24  1  0  0  0  0
 23 31  2  0  0  0  0
 24 25  2  0  0  0  0
 25 26  1  0  0  0  0
 26 27  2  0  0  0  0
 26 30  1  0  0  0  0
 27 28  1  0  0  0  0
 28 29  1  0  0  0  0
 29 30  2  0  0  0  0
 30 31  1  0  0  0  0
 32 33  2  0  0  0  0
  4 34  1  0  0  0  0
  4 35  1  0  0  0  0
  5 36  1  0  0  0  0
  5 37  1  0  0  0  0
  7 38  1  0  0  0  0
  7 39  1  0  0  0  0
  8 40  1  0  0  0  0
  8 41  1  0  0  0  0
 10 42  1  0  0  0  0
 11 43  1  0  0  0  0
 17 44  1  0  0  0  0
 17 45  1  0  0  0  0
 19 46  1  0  0  0  0
 20 47  1  0  0  0  0
 24 48  1  0  0  0  0
 25 49  1  0  0  0  0
 27 50  1  0  0  0  0
 28 51  1  0  0  0  0
 31 52  1  0  0  0  0
 32 53  1  0  0  0  0
 33 54  1  0  0  0  0
M  END
> <IC50[nM]>
2.1

$$$$
CHEMBL3265033
  -OEChem-05192314333D
 Structure written by MMmdl.
 54 59  0     0  0  0  0  0  0999 V2000
   -6.7377   -5.5954   13.7078 O   0  0  0  0  0  0  0  0  0  0  0  0
   -6.4109   -4.1827   13.9768 S   0  0  0  0  0  0  0  0  0  0  0  0
   -7.4853   -3.1691   13.9645 O   0  0  0  0  0  0  0  0  0  0  0  0
   -5.0718   -3.6553   12.8024 C   0  0  0  0  0  0  0  0  0  0  0  0
   -4.5093   -2.3051   13.2740 C   0  0  0  0  0  0  0  0  0  0  0  0
   -3.8452   -2.4085   14.5766 N   0  0  0  0  0  0  0  0  0  0  0  0
   -4.8019   -2.6733   15.6705 C   0  0  0  0  0  0  0  0  0  0  0  0
   -5.4613   -4.0603   15.5733 C   0  0  0  0  0  0  0  0  0  0  0  0
   -2.5026   -2.1121   14.7721 C   0  0  0  0  0  0  0  0  0  0  0  0
   -1.7498   -2.8472   15.6821 C   0  0  0  0  0  0  0  0  0  0  0  0
   -0.3947   -2.5947   15.8318 C   0  0  0  0  0  0  0  0  0  0  0  0
    0.2287   -1.5788   15.1039 C   0  0  0  0  0  0  0  0  0  0  0  0
    1.6093   -1.3648   15.3339 N   0  0  0  0  0  0  0  0  0  0  0  0
    2.5318   -0.4383   14.7801 C   0  0  0  0  0  0  0  0  0  0  0  0
    2.1634    0.3921   13.7540 N   0  0  0  0  0  0  0  0  0  0  0  0
    3.0974    1.2392   13.2246 C   0  0  0  0  0  0  0  0  0  0  0  0
    4.4044    1.2817   13.6944 C   0  0  0  0  0  0  0  0  0  0  0  0
    4.7423    0.4925   14.7592 N   0  0  0  0  0  0  0  0  0  0  0  0
    5.8954    0.3870   15.4778 C   0  0  0  0  0  0  0  0  0  0  0  0
    5.5990   -0.5412   16.5094 C   0  0  0  0  0  0  0  0  0  0  0  0
    4.3871   -1.0534   16.3565 N   0  0  0  0  0  0  0  0  0  0  0  0
    3.8359   -0.3945   15.3234 C   0  0  0  0  0  0  0  0  0  0  0  0
    2.6253    2.1534   12.1201 C   0  0  0  0  0  0  0  0  0  0  0  0
    3.5412    2.6427   11.1681 C   0  0  0  0  0  0  0  0  0  0  0  0
    3.1527    3.4644   10.1100 C   0  0  0  0  0  0  0  0  0  0  0  0
    1.8061    3.8184   10.0146 C   0  0  0  0  0  0  0  0  0  0  0  0
    0.9967    4.6031    9.1196 C   0  0  0  0  0  0  0  0  0  0  0  0
   -0.2439    4.6096    9.5190 N   0  0  0  0  0  0  0  0  0  0  0  0
   -0.3333    3.8812   10.6311 N   0  0  0  0  0  0  0  0  0  0  0  0
    0.8847    3.3487   10.9898 C   0  0  0  0  0  0  0  0  0  0  0  0
    1.2610    2.5149   12.0531 C   0  0  0  0  0  0  0  0  0  0  0  0
   -0.5302   -0.8124   14.2060 C   0  0  0  0  0  0  0  0  0  0  0  0
   -1.8875   -1.0872   14.0350 C   0  0  0  0  0  0  0  0  0  0  0  0
   -4.2696   -4.4079   12.7930 H   0  0  0  0  0  0  0  0  0  0  0  0
   -5.4876   -3.5500   11.7895 H   0  0  0  0  0  0  0  0  0  0  0  0
   -3.7809   -1.9459   12.5321 H   0  0  0  0  0  0  0  0  0  0  0  0
   -5.3368   -1.5847   13.3540 H   0  0  0  0  0  0  0  0  0  0  0  0
   -4.2654   -2.6071   16.6285 H   0  0  0  0  0  0  0  0  0  0  0  0
   -5.5909   -1.9075   15.6385 H   0  0  0  0  0  0  0  0  0  0  0  0
   -6.1485   -4.2002   16.4208 H   0  0  0  0  0  0  0  0  0  0  0  0
   -4.6844   -4.8386   15.5989 H   0  0  0  0  0  0  0  0  0  0  0  0
   -2.7688   -1.3940   15.5617 H   0  0  0  0  0  0  0  0  0  0  0  0
   -2.2224   -3.6171   16.2739 H   0  0  0  0  0  0  0  0  0  0  0  0
    0.1860   -3.1911   16.5199 H   0  0  0  0  0  0  0  0  0  0  0  0
    5.1375    1.9239   13.2289 H   0  0  0  0  0  0  0  0  0  0  0  0
    6.8303    0.8980   15.3009 H   0  0  0  0  0  0  0  0  0  0  0  0
    6.2731   -0.7965   17.3137 H   0  0  0  0  0  0  0  0  0  0  0  0
    4.5825    2.3716   11.2609 H   0  0  0  0  0  0  0  0  0  0  0  0
    3.8727    3.8163    9.3860 H   0  0  0  0  0  0  0  0  0  0  0  0
    1.3650    5.1137    8.2421 H   0  0  0  0  0  0  0  0  0  0  0  0
   -1.1808    3.7388   11.1424 H   0  0  0  0  0  0  0  0  0  0  0  0
    0.5449    2.1672   12.7829 H   0  0  0  0  0  0  0  0  0  0  0  0
   -0.0651   -0.0124   13.6491 H   0  0  0  0  0  0  0  0  0  0  0  0
   -2.4682   -0.5085   13.3319 H   0  0  0  0  0  0  0  0  0  0  0  0
  1  2  2  0  0  0  0
  2  3  2  0  0  0  0
  2  4  1  0  0  0  0
  2  8  1  0  0  0  0
  4  5  1  0  0  0  0
  5  6  1  0  0  0  0
  6  7  1  0  0  0  0
  6  9  1  0  0  0  0
  7  8  1  0  0  0  0
  9 10  1  0  0  0  0
  9 33  1  0  0  0  0
 10 11  2  0  0  0  0
 11 12  1  0  0  0  0
 12 13  2  0  0  0  0
 12 32  1  0  0  0  0
 13 14  1  0  0  0  0
 14 15  2  0  0  0  0
 14 22  1  0  0  0  0
 15 16  1  0  0  0  0
 16 17  2  0  0  0  0
 16 23  1  0  0  0  0
 17 18  1  0  0  0  0
 18 19  1  0  0  0  0
 18 22  1  0  0  0  0
 19 20  2  0  0  0  0
 20 21  1  0  0  0  0
 21 22  2  0  0  0  0
 23 24  2  0  0  0  0
 23 31  1  0  0  0  0
 24 25  1  0  0  0  0
 25 26  2  0  0  0  0
 26 27  1  0  0  0  0
 26 30  1  0  0  0  0
 27 28  2  0  0  0  0
 28 29  1  0  0  0  0
 29 30  1  0  0  0  0
 30 31  2  0  0  0  0
 32 33  2  0  0  0  0
  4 34  1  0  0  0  0
  4 35  1  0  0  0  0
  5 36  1  0  0  0  0
  5 37  1  0  0  0  0
  7 38  1  0  0  0  0
  7 39  1  0  0  0  0
  8 40  1  0  0  0  0
  8 41  1  0  0  0  0
  9 42  1  0  0  0  0
 10 43  1  0  0  0  0
 11 44  1  0  0  0  0
 17 45  1  0  0  0  0
 19 46  1  0  0  0  0
 20 47  1  0  0  0  0
 24 48  1  0  0  0  0
 25 49  1  0  0  0  0
 27 50  1  0  0  0  0
 29 51  1  0  0  0  0
 31 52  1  0  0  0  0
 32 53  1  0  0  0  0
 33 54  1  0  0  0  0
M  END
> <IC50[nM]>
2.1

$$$$
CHEMBL3265033
  -OEChem-05192314333D
 Structure written by MMmdl.
 54 59  0     0  0  0  0  0  0999 V2000
   -6.7377   -5.5954   13.7078 O   0  0  0  0  0  0  0  0  0  0  0  0
   -6.4109   -4.1827   13.9768 S   0  0  0  0  0  0  0  0  0  0  0  0
   -7.4853   -3.1691   13.9645 O   0  0  0  0  0  0  0  0  0  0  0  0
   -5.0718   -3.6553   12.8024 C   0  0  0  0  0  0  0  0  0  0  0  0
   -4.5093   -2.3051   13.2740 C   0  0  0  0  0  0  0  0  0  0  0  0
   -3.8452   -2.4085   14.5766 N   0  0  0  0  0  0  0  0  0  0  0  0
   -4.8019   -2.6733   15.6705 C   0  0  0  0  0  0  0  0  0  0  0  0
   -5.4613   -4.0603   15.5733 C   0  0  0  0  0  0  0  0  0  0  0  0
   -2.5026   -2.1121   14.7721 C   0  0  0  0  0  0  0  0  0  0  0  0
   -1.7498   -2.8472   15.6821 C   0  0  0  0  0  0  0  0  0  0  0  0
   -0.3947   -2.5947   15.8318 C   0  0  0  0  0  0  0  0  0  0  0  0
    0.2287   -1.5788   15.1039 C   0  0  0  0  0  0  0  0  0  0  0  0
    1.6093   -1.3648   15.3339 N   0  0  0  0  0  0  0  0  0  0  0  0
    2.5318   -0.4383   14.7801 C   0  0  0  0  0  0  0  0  0  0  0  0
    2.1634    0.3921   13.7540 N   0  0  0  0  0  0  0  0  0  0  0  0
    3.0974    1.2392   13.2246 C   0  0  0  0  0  0  0  0  0  0  0  0
    4.4044    1.2817   13.6944 C   0  0  0  0  0  0  0  0  0  0  0  0
    4.7423    0.4925   14.7592 N   0  0  0  0  0  0  0  0  0  0  0  0
    5.8954    0.3870   15.4778 C   0  0  0  0  0  0  0  0  0  0  0  0
    5.5990   -0.5412   16.5094 C   0  0  0  0  0  0  0  0  0  0  0  0
    4.3871   -1.0534   16.3565 N   0  0  0  0  0  0  0  0  0  0  0  0
    3.8359   -0.3945   15.3234 C   0  0  0  0  0  0  0  0  0  0  0  0
    2.6253    2.1534   12.1201 C   0  0  0  0  0  0  0  0  0  0  0  0
    3.5412    2.6427   11.1681 C   0  0  0  0  0  0  0  0  0  0  0  0
    3.1527    3.4644   10.1100 C   0  0  0  0  0  0  0  0  0  0  0  0
    1.8061    3.8184   10.0146 C   0  0  0  0  0  0  0  0  0  0  0  0
    0.9967    4.6031    9.1196 C   0  0  0  0  0  0  0  0  0  0  0  0
   -0.2439    4.6096    9.5190 N   0  0  0  0  0  0  0  0  0  0  0  0
   -0.3333    3.8812   10.6311 N   0  0  0  0  0  0  0  0  0  0  0  0
    0.8847    3.3487   10.9898 C   0  0  0  0  0  0  0  0  0  0  0  0
    1.2610    2.5149   12.0531 C   0  0  0  0  0  0  0  0  0  0  0  0
   -0.5302   -0.8124   14.2060 C   0  0  0  0  0  0  0  0  0  0  0  0
   -1.8875   -1.0872   14.0350 C   0  0  0  0  0  0  0  0  0  0  0  0
   -4.2696   -4.4079   12.7930 H   0  0  0  0  0  0  0  0  0  0  0  0
   -5.4876   -3.5500   11.7895 H   0  0  0  0  0  0  0  0  0  0  0  0
   -3.7809   -1.9459   12.5321 H   0  0  0  0  0  0  0  0  0  0  0  0
   -5.3368   -1.5847   13.3540 H   0  0  0  0  0  0  0  0  0  0  0  0
   -4.2654   -2.6071   16.6285 H   0  0  0  0  0  0  0  0  0  0  0  0
   -5.5909   -1.9075   15.6385 H   0  0  0  0  0  0  0  0  0  0  0  0
   -6.1485   -4.2002   16.4208 H   0  0  0  0  0  0  0  0  0  0  0  0
   -4.6844   -4.8386   15.5989 H   0  0  0  0  0  0  0  0  0  0  0  0
   -2.7688   -1.3940   15.5617 H   0  0  0  0  0  0  0  0  0  0  0  0
   -2.2224   -3.6171   16.2739 H   0  0  0  0  0  0  0  0  0  0  0  0
    0.1860   -3.1911   16.5199 H   0  0  0  0  0  0  0  0  0  0  0  0
    5.1375    1.9239   13.2289 H   0  0  0  0  0  0  0  0  0  0  0  0
    6.8303    0.8980   15.3009 H   0  0  0  0  0  0  0  0  0  0  0  0
    6.2731   -0.7965   17.3137 H   0  0  0  0  0  0  0  0  0  0  0  0
    4.5825    2.3716   11.2609 H   0  0  0  0  0  0  0  0  0  0  0  0
    3.8727    3.8163    9.3860 H   0  0  0  0  0  0  0  0  0  0  0  0
    1.3650    5.1137    8.2421 H   0  0  0  0  0  0  0  0  0  0  0  0
   -1.0009    5.0816    9.0671 H   0  0  0  0  0  0  0  0  0  0  0  0
    0.5449    2.1672   12.7829 H   0  0  0  0  0  0  0  0  0  0  0  0
   -0.0651   -0.0124   13.6491 H   0  0  0  0  0  0  0  0  0  0  0  0
   -2.4682   -0.5085   13.3319 H   0  0  0  0  0  0  0  0  0  0  0  0
  1  2  2  0  0  0  0
  2  3  2  0  0  0  0
  2  4  1  0  0  0  0
  2  8  1  0  0  0  0
  4  5  1  0  0  0  0
  5  6  1  0  0  0  0
  6  7  1  0  0  0  0
  6  9  1  0  0  0  0
  7  8  1  0  0  0  0
  9 10  1  0  0  0  0
  9 33  1  0  0  0  0
 10 11  2  0  0  0  0
 11 12  1  0  0  0  0
 12 13  2  0  0  0  0
 12 32  1  0  0  0  0
 13 14  1  0  0  0  0
 14 15  2  0  0  0  0
 14 22  1  0  0  0  0
 15 16  1  0  0  0  0
 16 17  2  0  0  0  0
 16 23  1  0  0  0  0
 17 18  1  0  0  0  0
 18 19  1  0  0  0  0
 18 22  1  0  0  0  0
 19 20  2  0  0  0  0
 20 21  1  0  0  0  0
 21 22  2  0  0  0  0
 23 24  1  0  0  0  0
 23 31  2  0  0  0  0
 24 25  2  0  0  0  0
 25 26  1  0  0  0  0
 26 27  2  0  0  0  0
 26 30  1  0  0  0  0
 27 28  1  0  0  0  0
 28 29  1  0  0  0  0
 29 30  2  0  0  0  0
 30 31  1  0  0  0  0
 32 33  2  0  0  0  0
  4 34  1  0  0  0  0
  4 35  1  0  0  0  0
  5 36  1  0  0  0  0
  5 37  1  0  0  0  0
  7 38  1  0  0  0  0
  7 39  1  0  0  0  0
  8 40  1  0  0  0  0
  8 41  1  0  0  0  0
  9 42  1  0  0  0  0
 10 43  1  0  0  0  0
 11 44  1  0  0  0  0
 17 45  1  0  0  0  0
 19 46  1  0  0  0  0
 20 47  1  0  0  0  0
 24 48  1  0  0  0  0
 25 49  1  0  0  0  0
 27 50  1  0  0  0  0
 28 51  1  0  0  0  0
 31 52  1  0  0  0  0
 32 53  1  0  0  0  0
 33 54  1  0  0  0  0
M  END
> <IC50[nM]>
2.1

$$$$
CHEMBL3265033
  -OEChem-05192314333D
 Structure written by MMmdl.
 54 59  0     0  0  0  0  0  0999 V2000
   -6.7377   -5.5954   13.7078 O   0  0  0  0  0  0  0  0  0  0  0  0
   -6.4109   -4.1827   13.9768 S   0  0  0  0  0  0  0  0  0  0  0  0
   -7.4853   -3.1691   13.9645 O   0  0  0  0  0  0  0  0  0  0  0  0
   -5.0718   -3.6553   12.8024 C   0  0  0  0  0  0  0  0  0  0  0  0
   -4.5093   -2.3051   13.2740 C   0  0  0  0  0  0  0  0  0  0  0  0
   -3.8452   -2.4085   14.5766 N   0  0  0  0  0  0  0  0  0  0  0  0
   -4.8019   -2.6733   15.6705 C   0  0  0  0  0  0  0  0  0  0  0  0
   -5.4613   -4.0603   15.5733 C   0  0  0  0  0  0  0  0  0  0  0  0
   -2.5026   -2.1121   14.7721 C   0  0  0  0  0  0  0  0  0  0  0  0
   -1.7498   -2.8472   15.6821 C   0  0  0  0  0  0  0  0  0  0  0  0
   -0.3947   -2.5947   15.8318 C   0  0  0  0  0  0  0  0  0  0  0  0
    0.2287   -1.5788   15.1039 C   0  0  0  0  0  0  0  0  0  0  0  0
    1.6093   -1.3648   15.3339 N   0  0  0  0  0  0  0  0  0  0  0  0
    2.5318   -0.4383   14.7801 C   0  0  0  0  0  0  0  0  0  0  0  0
    2.1634    0.3921   13.7540 N   0  0  0  0  0  0  0  0  0  0  0  0
    3.0974    1.2392   13.2246 C   0  0  0  0  0  0  0  0  0  0  0  0
    4.4044    1.2817   13.6944 C   0  0  0  0  0  0  0  0  0  0  0  0
    4.7423    0.4925   14.7592 N   0  0  0  0  0  0  0  0  0  0  0  0
    5.8954    0.3870   15.4778 C   0  0  0  0  0  0  0  0  0  0  0  0
    5.5990   -0.5412   16.5094 C   0  0  0  0  0  0  0  0  0  0  0  0
    4.3871   -1.0534   16.3565 N   0  0  0  0  0  0  0  0  0  0  0  0
    3.8359   -0.3945   15.3234 C   0  0  0  0  0  0  0  0  0  0  0  0
    2.6253    2.1534   12.1201 C   0  0  0  0  0  0  0  0  0  0  0  0
    3.5412    2.6427   11.1681 C   0  0  0  0  0  0  0  0  0  0  0  0
    3.1527    3.4644   10.1100 C   0  0  0  0  0  0  0  0  0  0  0  0
    1.8061    3.8184   10.0146 C   0  0  0  0  0  0  0  0  0  0  0  0
    0.9967    4.6031    9.1196 C   0  0  0  0  0  0  0  0  0  0  0  0
   -0.2439    4.6096    9.5190 N   0  0  0  0  0  0  0  0  0  0  0  0
   -0.3333    3.8812   10.6311 N   0  0  0  0  0  0  0  0  0  0  0  0
    0.8847    3.3487   10.9898 C   0  0  0  0  0  0  0  0  0  0  0  0
    1.2610    2.5149   12.0531 C   0  0  0  0  0  0  0  0  0  0  0  0
   -0.5302   -0.8124   14.2060 C   0  0  0  0  0  0  0  0  0  0  0  0
   -1.8875   -1.0872   14.0350 C   0  0  0  0  0  0  0  0  0  0  0  0
   -4.2696   -4.4079   12.7930 H   0  0  0  0  0  0  0  0  0  0  0  0
   -5.4876   -3.5500   11.7895 H   0  0  0  0  0  0  0  0  0  0  0  0
   -3.7809   -1.9459   12.5321 H   0  0  0  0  0  0  0  0  0  0  0  0
   -5.3368   -1.5847   13.3540 H   0  0  0  0  0  0  0  0  0  0  0  0
   -4.2654   -2.6071   16.6285 H   0  0  0  0  0  0  0  0  0  0  0  0
   -5.5909   -1.9075   15.6385 H   0  0  0  0  0  0  0  0  0  0  0  0
   -6.1485   -4.2002   16.4208 H   0  0  0  0  0  0  0  0  0  0  0  0
   -4.6844   -4.8386   15.5989 H   0  0  0  0  0  0  0  0  0  0  0  0
   -2.2224   -3.6171   16.2739 H   0  0  0  0  0  0  0  0  0  0  0  0
    0.1860   -3.1911   16.5199 H   0  0  0  0  0  0  0  0  0  0  0  0
    5.1375    1.9239   13.2289 H   0  0  0  0  0  0  0  0  0  0  0  0
    6.8303    0.8980   15.3009 H   0  0  0  0  0  0  0  0  0  0  0  0
    6.2731   -0.7965   17.3137 H   0  0  0  0  0  0  0  0  0  0  0  0
    4.5825    2.3716   11.2609 H   0  0  0  0  0  0  0  0  0  0  0  0
    3.8727    3.8163    9.3860 H   0  0  0  0  0  0  0  0  0  0  0  0
    1.3650    5.1137    8.2421 H   0  0  0  0  0  0  0  0  0  0  0  0
   -1.1808    3.7388   11.1424 H   0  0  0  0  0  0  0  0  0  0  0  0
    0.5449    2.1672   12.7829 H   0  0  0  0  0  0  0  0  0  0  0  0
   -0.4564    0.2335   14.5385 H   0  0  0  0  0  0  0  0  0  0  0  0
   -0.0571   -0.9175   13.2185 H   0  0  0  0  0  0  0  0  0  0  0  0
   -2.4682   -0.5085   13.3319 H   0  0  0  0  0  0  0  0  0  0  0  0
  1  2  2  0  0  0  0
  2  3  2  0  0  0  0
  2  4  1  0  0  0  0
  2  8  1  0  0  0  0
  4  5  1  0  0  0  0
  5  6  1  0  0  0  0
  6  7  1  0  0  0  0
  6  9  1  0  0  0  0
  7  8  1  0  0  0  0
  9 10  1  0  0  0  0
  9 33  2  0  0  0  0
 10 11  2  0  0  0  0
 11 12  1  0  0  0  0
 12 13  2  0  0  0  0
 12 32  1  0  0  0  0
 13 14  1  0  0  0  0
 14 15  2  0  0  0  0
 14 22  1  0  0  0  0
 15 16  1  0  0  0  0
 16 17  2  0  0  0  0
 16 23  1  0  0  0  0
 17 18  1  0  0  0  0
 18 19  1  0  0  0  0
 18 22  1  0  0  0  0
 19 20  2  0  0  0  0
 20 21  1  0  0  0  0
 21 22  2  0  0  0  0
 23 24  2  0  0  0  0
 23 31  1  0  0  0  0
 24 25  1  0  0  0  0
 25 26  2  0  0  0  0
 26 27  1  0  0  0  0
 26 30  1  0  0  0  0
 27 28  2  0  0  0  0
 28 29  1  0  0  0  0
 29 30  1  0  0  0  0
 30 31  2  0  0  0  0
 32 33  1  0  0  0  0
  4 34  1  0  0  0  0
  4 35  1  0  0  0  0
  5 36  1  0  0  0  0
  5 37  1  0  0  0  0
  7 38  1  0  0  0  0
  7 39  1  0  0  0  0
  8 40  1  0  0  0  0
  8 41  1  0  0  0  0
 10 42  1  0  0  0  0
 11 43  1  0  0  0  0
 17 44  1  0  0  0  0
 19 45  1  0  0  0  0
 20 46  1  0  0  0  0
 24 47  1  0  0  0  0
 25 48  1  0  0  0  0
 27 49  1  0  0  0  0
 29 50  1  0  0  0  0
 31 51  1  0  0  0  0
 32 52  1  0  0  0  0
 32 53  1  0  0  0  0
 33 54  1  0  0  0  0
M  END
> <IC50[nM]>
2.1

$$$$
CHEMBL3265033
  -OEChem-05192314333D
 Structure written by MMmdl.
 54 59  0     0  0  0  0  0  0999 V2000
   -6.7377   -5.5954   13.7078 O   0  0  0  0  0  0  0  0  0  0  0  0
   -6.4109   -4.1827   13.9768 S   0  0  0  0  0  0  0  0  0  0  0  0
   -7.4853   -3.1691   13.9645 O   0  0  0  0  0  0  0  0  0  0  0  0
   -5.0718   -3.6553   12.8024 C   0  0  0  0  0  0  0  0  0  0  0  0
   -4.5093   -2.3051   13.2740 C   0  0  0  0  0  0  0  0  0  0  0  0
   -3.8452   -2.4085   14.5766 N   0  0  0  0  0  0  0  0  0  0  0  0
   -4.8019   -2.6733   15.6705 C   0  0  0  0  0  0  0  0  0  0  0  0
   -5.4613   -4.0603   15.5733 C   0  0  0  0  0  0  0  0  0  0  0  0
   -2.5026   -2.1121   14.7721 C   0  0  0  0  0  0  0  0  0  0  0  0
   -1.7498   -2.8472   15.6821 C   0  0  0  0  0  0  0  0  0  0  0  0
   -0.3947   -2.5947   15.8318 C   0  0  0  0  0  0  0  0  0  0  0  0
    0.2287   -1.5788   15.1039 C   0  0  0  0  0  0  0  0  0  0  0  0
    1.6093   -1.3648   15.3339 N   0  0  0  0  0  0  0  0  0  0  0  0
    2.5318   -0.4383   14.7801 C   0  0  0  0  0  0  0  0  0  0  0  0
    2.1634    0.3921   13.7540 N   0  0  0  0  0  0  0  0  0  0  0  0
    3.0974    1.2392   13.2246 C   0  0  0  0  0  0  0  0  0  0  0  0
    4.4044    1.2817   13.6944 C   0  0  0  0  0  0  0  0  0  0  0  0
    4.7423    0.4925   14.7592 N   0  0  0  0  0  0  0  0  0  0  0  0
    5.8954    0.3870   15.4778 C   0  0  0  0  0  0  0  0  0  0  0  0
    5.5990   -0.5412   16.5094 C   0  0  0  0  0  0  0  0  0  0  0  0
    4.3871   -1.0534   16.3565 N   0  0  0  0  0  0  0  0  0  0  0  0
    3.8359   -0.3945   15.3234 C   0  0  0  0  0  0  0  0  0  0  0  0
    2.6253    2.1534   12.1201 C   0  0  0  0  0  0  0  0  0  0  0  0
    3.5412    2.6427   11.1681 C   0  0  0  0  0  0  0  0  0  0  0  0
    3.1527    3.4644   10.1100 C   0  0  0  0  0  0  0  0  0  0  0  0
    1.8061    3.8184   10.0146 C   0  0  0  0  0  0  0  0  0  0  0  0
    0.9967    4.6031    9.1196 C   0  0  0  0  0  0  0  0  0  0  0  0
   -0.2439    4.6096    9.5190 N   0  0  0  0  0  0  0  0  0  0  0  0
   -0.3333    3.8812   10.6311 N   0  0  0  0  0  0  0  0  0  0  0  0
    0.8847    3.3487   10.9898 C   0  0  0  0  0  0  0  0  0  0  0  0
    1.2610    2.5149   12.0531 C   0  0  0  0  0  0  0  0  0  0  0  0
   -0.5302   -0.8124   14.2060 C   0  0  0  0  0  0  0  0  0  0  0  0
   -1.8875   -1.0872   14.0350 C   0  0  0  0  0  0  0  0  0  0  0  0
   -4.2696   -4.4079   12.7930 H   0  0  0  0  0  0  0  0  0  0  0  0
   -5.4876   -3.5500   11.7895 H   0  0  0  0  0  0  0  0  0  0  0  0
   -3.7809   -1.9459   12.5321 H   0  0  0  0  0  0  0  0  0  0  0  0
   -5.3368   -1.5847   13.3540 H   0  0  0  0  0  0  0  0  0  0  0  0
   -4.2654   -2.6071   16.6285 H   0  0  0  0  0  0  0  0  0  0  0  0
   -5.5909   -1.9075   15.6385 H   0  0  0  0  0  0  0  0  0  0  0  0
   -6.1485   -4.2002   16.4208 H   0  0  0  0  0  0  0  0  0  0  0  0
   -4.6844   -4.8386   15.5989 H   0  0  0  0  0  0  0  0  0  0  0  0
   -2.2224   -3.6171   16.2739 H   0  0  0  0  0  0  0  0  0  0  0  0
    0.1860   -3.1911   16.5199 H   0  0  0  0  0  0  0  0  0  0  0  0
    5.1375    1.9239   13.2289 H   0  0  0  0  0  0  0  0  0  0  0  0
    6.8303    0.8980   15.3009 H   0  0  0  0  0  0  0  0  0  0  0  0
    6.2731   -0.7965   17.3137 H   0  0  0  0  0  0  0  0  0  0  0  0
    4.5825    2.3716   11.2609 H   0  0  0  0  0  0  0  0  0  0  0  0
    3.8727    3.8163    9.3860 H   0  0  0  0  0  0  0  0  0  0  0  0
    1.3650    5.1137    8.2421 H   0  0  0  0  0  0  0  0  0  0  0  0
   -1.0009    5.0816    9.0671 H   0  0  0  0  0  0  0  0  0  0  0  0
    0.5449    2.1672   12.7829 H   0  0  0  0  0  0  0  0  0  0  0  0
   -0.4564    0.2335   14.5385 H   0  0  0  0  0  0  0  0  0  0  0  0
   -0.0571   -0.9175   13.2185 H   0  0  0  0  0  0  0  0  0  0  0  0
   -2.4682   -0.5085   13.3319 H   0  0  0  0  0  0  0  0  0  0  0  0
  1  2  2  0  0  0  0
  2  3  2  0  0  0  0
  2  4  1  0  0  0  0
  2  8  1  0  0  0  0
  4  5  1  0  0  0  0
  5  6  1  0  0  0  0
  6  7  1  0  0  0  0
  6  9  1  0  0  0  0
  7  8  1  0  0  0  0
  9 10  1  0  0  0  0
  9 33  2  0  0  0  0
 10 11  2  0  0  0  0
 11 12  1  0  0  0  0
 12 13  2  0  0  0  0
 12 32  1  0  0  0  0
 13 14  1  0  0  0  0
 14 15  2  0  0  0  0
 14 22  1  0  0  0  0
 15 16  1  0  0  0  0
 16 17  2  0  0  0  0
 16 23  1  0  0  0  0
 17 18  1  0  0  0  0
 18 19  1  0  0  0  0
 18 22  1  0  0  0  0
 19 20  2  0  0  0  0
 20 21  1  0  0  0  0
 21 22  2  0  0  0  0
 23 24  1  0  0  0  0
 23 31  2  0  0  0  0
 24 25  2  0  0  0  0
 25 26  1  0  0  0  0
 26 27  2  0  0  0  0
 26 30  1  0  0  0  0
 27 28  1  0  0  0  0
 28 29  1  0  0  0  0
 29 30  2  0  0  0  0
 30 31  1  0  0  0  0
 32 33  1  0  0  0  0
  4 34  1  0  0  0  0
  4 35  1  0  0  0  0
  5 36  1  0  0  0  0
  5 37  1  0  0  0  0
  7 38  1  0  0  0  0
  7 39  1  0  0  0  0
  8 40  1  0  0  0  0
  8 41  1  0  0  0  0
 10 42  1  0  0  0  0
 11 43  1  0  0  0  0
 17 44  1  0  0  0  0
 19 45  1  0  0  0  0
 20 46  1  0  0  0  0
 24 47  1  0  0  0  0
 25 48  1  0  0  0  0
 27 49  1  0  0  0  0
 28 50  1  0  0  0  0
 31 51  1  0  0  0  0
 32 52  1  0  0  0  0
 32 53  1  0  0  0  0
 33 54  1  0  0  0  0
M  END
> <IC50[nM]>
2.1

$$$$
CHEMBL3265033
  -OEChem-05192314333D
 Structure written by MMmdl.
 54 59  0     0  0  0  0  0  0999 V2000
   -6.7377   -5.5954   13.7078 O   0  0  0  0  0  0  0  0  0  0  0  0
   -6.4109   -4.1827   13.9768 S   0  0  0  0  0  0  0  0  0  0  0  0
   -7.4853   -3.1691   13.9645 O   0  0  0  0  0  0  0  0  0  0  0  0
   -5.0718   -3.6553   12.8024 C   0  0  0  0  0  0  0  0  0  0  0  0
   -4.5093   -2.3051   13.2740 C   0  0  0  0  0  0  0  0  0  0  0  0
   -3.8452   -2.4085   14.5766 N   0  0  0  0  0  0  0  0  0  0  0  0
   -4.8019   -2.6733   15.6705 C   0  0  0  0  0  0  0  0  0  0  0  0
   -5.4613   -4.0603   15.5733 C   0  0  0  0  0  0  0  0  0  0  0  0
   -2.5026   -2.1121   14.7721 C   0  0  0  0  0  0  0  0  0  0  0  0
   -1.7498   -2.8472   15.6821 C   0  0  0  0  0  0  0  0  0  0  0  0
   -0.3947   -2.5947   15.8318 C   0  0  0  0  0  0  0  0  0  0  0  0
    0.2287   -1.5788   15.1039 C   0  0  0  0  0  0  0  0  0  0  0  0
    1.6093   -1.3648   15.3339 N   0  0  0  0  0  0  0  0  0  0  0  0
    2.5318   -0.4383   14.7801 C   0  0  0  0  0  0  0  0  0  0  0  0
    2.1634    0.3921   13.7540 N   0  0  0  0  0  0  0  0  0  0  0  0
    3.0974    1.2392   13.2246 C   0  0  0  0  0  0  0  0  0  0  0  0
    4.4044    1.2817   13.6944 C   0  0  0  0  0  0  0  0  0  0  0  0
    4.7423    0.4925   14.7592 N   0  0  0  0  0  0  0  0  0  0  0  0
    5.8954    0.3870   15.4778 C   0  0  0  0  0  0  0  0  0  0  0  0
    5.5990   -0.5412   16.5094 C   0  0  0  0  0  0  0  0  0  0  0  0
    4.3871   -1.0534   16.3565 N   0  0  0  0  0  0  0  0  0  0  0  0
    3.8359   -0.3945   15.3234 C   0  0  0  0  0  0  0  0  0  0  0  0
    2.6253    2.1534   12.1201 C   0  0  0  0  0  0  0  0  0  0  0  0
    3.5412    2.6427   11.1681 C   0  0  0  0  0  0  0  0  0  0  0  0
    3.1527    3.4644   10.1100 C   0  0  0  0  0  0  0  0  0  0  0  0
    1.8061    3.8184   10.0146 C   0  0  0  0  0  0  0  0  0  0  0  0
    0.9967    4.6031    9.1196 C   0  0  0  0  0  0  0  0  0  0  0  0
   -0.2439    4.6096    9.5190 N   0  0  0  0  0  0  0  0  0  0  0  0
   -0.3333    3.8812   10.6311 N   0  0  0  0  0  0  0  0  0  0  0  0
    0.8847    3.3487   10.9898 C   0  0  0  0  0  0  0  0  0  0  0  0
    1.2610    2.5149   12.0531 C   0  0  0  0  0  0  0  0  0  0  0  0
   -0.5302   -0.8124   14.2060 C   0  0  0  0  0  0  0  0  0  0  0  0
   -1.8875   -1.0872   14.0350 C   0  0  0  0  0  0  0  0  0  0  0  0
   -4.2696   -4.4079   12.7930 H   0  0  0  0  0  0  0  0  0  0  0  0
   -5.4876   -3.5500   11.7895 H   0  0  0  0  0  0  0  0  0  0  0  0
   -3.7809   -1.9459   12.5321 H   0  0  0  0  0  0  0  0  0  0  0  0
   -5.3368   -1.5847   13.3540 H   0  0  0  0  0  0  0  0  0  0  0  0
   -4.2654   -2.6071   16.6285 H   0  0  0  0  0  0  0  0  0  0  0  0
   -5.5909   -1.9075   15.6385 H   0  0  0  0  0  0  0  0  0  0  0  0
   -6.1485   -4.2002   16.4208 H   0  0  0  0  0  0  0  0  0  0  0  0
   -4.6844   -4.8386   15.5989 H   0  0  0  0  0  0  0  0  0  0  0  0
   -2.2224   -3.6171   16.2739 H   0  0  0  0  0  0  0  0  0  0  0  0
    0.1860   -3.1911   16.5199 H   0  0  0  0  0  0  0  0  0  0  0  0
    5.0593    0.9960   12.8580 H   0  0  0  0  0  0  0  0  0  0  0  0
    4.6116    2.3226   13.9833 H   0  0  0  0  0  0  0  0  0  0  0  0
    6.8303    0.8980   15.3009 H   0  0  0  0  0  0  0  0  0  0  0  0
    6.2731   -0.7965   17.3137 H   0  0  0  0  0  0  0  0  0  0  0  0
    4.5825    2.3716   11.2609 H   0  0  0  0  0  0  0  0  0  0  0  0
    3.8727    3.8163    9.3860 H   0  0  0  0  0  0  0  0  0  0  0  0
    1.3762    5.6353    9.0979 H   0  0  0  0  0  0  0  0  0  0  0  0
    1.0503    4.1714    8.1093 H   0  0  0  0  0  0  0  0  0  0  0  0
    0.5449    2.1672   12.7829 H   0  0  0  0  0  0  0  0  0  0  0  0
   -0.0651   -0.0124   13.6491 H   0  0  0  0  0  0  0  0  0  0  0  0
   -2.4682   -0.5085   13.3319 H   0  0  0  0  0  0  0  0  0  0  0  0
  1  2  2  0  0  0  0
  2  3  2  0  0  0  0
  2  4  1  0  0  0  0
  2  8  1  0  0  0  0
  4  5  1  0  0  0  0
  5  6  1  0  0  0  0
  6  7  1  0  0  0  0
  6  9  1  0  0  0  0
  7  8  1  0  0  0  0
  9 10  2  0  0  0  0
  9 33  1  0  0  0  0
 10 11  1  0  0  0  0
 11 12  2  0  0  0  0
 12 13  1  0  0  0  0
 12 32  1  0  0  0  0
 13 14  2  0  0  0  0
 14 15  1  0  0  0  0
 14 22  1  0  0  0  0
 15 16  2  0  0  0  0
 16 17  1  0  0  0  0
 16 23  1  0  0  0  0
 17 18  1  0  0  0  0
 18 19  1  0  0  0  0
 18 22  1  0  0  0  0
 19 20  2  0  0  0  0
 20 21  1  0  0  0  0
 21 22  2  0  0  0  0
 23 24  2  0  0  0  0
 23 31  1  0  0  0  0
 24 25  1  0  0  0  0
 25 26  2  0  0  0  0
 26 27  1  0  0  0  0
 26 30  1  0  0  0  0
 27 28  1  0  0  0  0
 28 29  2  0  0  0  0
 29 30  1  0  0  0  0
 30 31  2  0  0  0  0
 32 33  2  0  0  0  0
  4 34  1  0  0  0  0
  4 35  1  0  0  0  0
  5 36  1  0  0  0  0
  5 37  1  0  0  0  0
  7 38  1  0  0  0  0
  7 39  1  0  0  0  0
  8 40  1  0  0  0  0
  8 41  1  0  0  0  0
 10 42  1  0  0  0  0
 11 43  1  0  0  0  0
 17 44  1  0  0  0  0
 17 45  1  0  0  0  0
 19 46  1  0  0  0  0
 20 47  1  0  0  0  0
 24 48  1  0  0  0  0
 25 49  1  0  0  0  0
 27 50  1  0  0  0  0
 27 51  1  0  0  0  0
 31 52  1  0  0  0  0
 32 53  1  0  0  0  0
 33 54  1  0  0  0  0
M  END
> <IC50[nM]>
2.1

$$$$
CHEMBL3265033
  -OEChem-05192314333D
 Structure written by MMmdl.
 54 59  0     0  0  0  0  0  0999 V2000
   -6.7377   -5.5954   13.7078 O   0  0  0  0  0  0  0  0  0  0  0  0
   -6.4109   -4.1827   13.9768 S   0  0  0  0  0  0  0  0  0  0  0  0
   -7.4853   -3.1691   13.9645 O   0  0  0  0  0  0  0  0  0  0  0  0
   -5.0718   -3.6553   12.8024 C   0  0  0  0  0  0  0  0  0  0  0  0
   -4.5093   -2.3051   13.2740 C   0  0  0  0  0  0  0  0  0  0  0  0
   -3.8452   -2.4085   14.5766 N   0  0  0  0  0  0  0  0  0  0  0  0
   -4.8019   -2.6733   15.6705 C   0  0  0  0  0  0  0  0  0  0  0  0
   -5.4613   -4.0603   15.5733 C   0  0  0  0  0  0  0  0  0  0  0  0
   -2.5026   -2.1121   14.7721 C   0  0  0  0  0  0  0  0  0  0  0  0
   -1.7498   -2.8472   15.6821 C   0  0  0  0  0  0  0  0  0  0  0  0
   -0.3947   -2.5947   15.8318 C   0  0  0  0  0  0  0  0  0  0  0  0
    0.2287   -1.5788   15.1039 C   0  0  0  0  0  0  0  0  0  0  0  0
    1.6093   -1.3648   15.3339 N   0  0  0  0  0  0  0  0  0  0  0  0
    2.5318   -0.4383   14.7801 C   0  0  0  0  0  0  0  0  0  0  0  0
    2.1634    0.3921   13.7540 N   0  0  0  0  0  0  0  0  0  0  0  0
    3.0974    1.2392   13.2246 C   0  0  0  0  0  0  0  0  0  0  0  0
    4.4044    1.2817   13.6944 C   0  0  0  0  0  0  0  0  0  0  0  0
    4.7423    0.4925   14.7592 N   0  0  0  0  0  0  0  0  0  0  0  0
    5.8954    0.3870   15.4778 C   0  0  0  0  0  0  0  0  0  0  0  0
    5.5990   -0.5412   16.5094 C   0  0  0  0  0  0  0  0  0  0  0  0
    4.3871   -1.0534   16.3565 N   0  0  0  0  0  0  0  0  0  0  0  0
    3.8359   -0.3945   15.3234 C   0  0  0  0  0  0  0  0  0  0  0  0
    2.6253    2.1534   12.1201 C   0  0  0  0  0  0  0  0  0  0  0  0
    3.5412    2.6427   11.1681 C   0  0  0  0  0  0  0  0  0  0  0  0
    3.1527    3.4644   10.1100 C   0  0  0  0  0  0  0  0  0  0  0  0
    1.8061    3.8184   10.0146 C   0  0  0  0  0  0  0  0  0  0  0  0
    0.9967    4.6031    9.1196 C   0  0  0  0  0  0  0  0  0  0  0  0
   -0.2439    4.6096    9.5190 N   0  0  0  0  0  0  0  0  0  0  0  0
   -0.3333    3.8812   10.6311 N   0  0  0  0  0  0  0  0  0  0  0  0
    0.8847    3.3487   10.9898 C   0  0  0  0  0  0  0  0  0  0  0  0
    1.2610    2.5149   12.0531 C   0  0  0  0  0  0  0  0  0  0  0  0
   -0.5302   -0.8124   14.2060 C   0  0  0  0  0  0  0  0  0  0  0  0
   -1.8875   -1.0872   14.0350 C   0  0  0  0  0  0  0  0  0  0  0  0
   -4.2696   -4.4079   12.7930 H   0  0  0  0  0  0  0  0  0  0  0  0
   -5.4876   -3.5500   11.7895 H   0  0  0  0  0  0  0  0  0  0  0  0
   -3.7809   -1.9459   12.5321 H   0  0  0  0  0  0  0  0  0  0  0  0
   -5.3368   -1.5847   13.3540 H   0  0  0  0  0  0  0  0  0  0  0  0
   -4.2654   -2.6071   16.6285 H   0  0  0  0  0  0  0  0  0  0  0  0
   -5.5909   -1.9075   15.6385 H   0  0  0  0  0  0  0  0  0  0  0  0
   -6.1485   -4.2002   16.4208 H   0  0  0  0  0  0  0  0  0  0  0  0
   -4.6844   -4.8386   15.5989 H   0  0  0  0  0  0  0  0  0  0  0  0
   -2.2224   -3.6171   16.2739 H   0  0  0  0  0  0  0  0  0  0  0  0
    0.1860   -3.1911   16.5199 H   0  0  0  0  0  0  0  0  0  0  0  0
    2.0091   -1.9808   16.0127 H   0  0  0  0  0  0  0  0  0  0  0  0
    5.0593    0.9960   12.8580 H   0  0  0  0  0  0  0  0  0  0  0  0
    4.6116    2.3226   13.9833 H   0  0  0  0  0  0  0  0  0  0  0  0
    6.8303    0.8980   15.3009 H   0  0  0  0  0  0  0  0  0  0  0  0
    6.2731   -0.7965   17.3137 H   0  0  0  0  0  0  0  0  0  0  0  0
    4.5825    2.3716   11.2609 H   0  0  0  0  0  0  0  0  0  0  0  0
    3.8727    3.8163    9.3860 H   0  0  0  0  0  0  0  0  0  0  0  0
    1.3650    5.1137    8.2421 H   0  0  0  0  0  0  0  0  0  0  0  0
    0.5449    2.1672   12.7829 H   0  0  0  0  0  0  0  0  0  0  0  0
   -0.0651   -0.0124   13.6491 H   0  0  0  0  0  0  0  0  0  0  0  0
   -2.4682   -0.5085   13.3319 H   0  0  0  0  0  0  0  0  0  0  0  0
  1  2  2  0  0  0  0
  2  3  2  0  0  0  0
  2  4  1  0  0  0  0
  2  8  1  0  0  0  0
  4  5  1  0  0  0  0
  5  6  1  0  0  0  0
  6  7  1  0  0  0  0
  6  9  1  0  0  0  0
  7  8  1  0  0  0  0
  9 10  2  0  0  0  0
  9 33  1  0  0  0  0
 10 11  1  0  0  0  0
 11 12  2  0  0  0  0
 12 13  1  0  0  0  0
 12 32  1  0  0  0  0
 13 14  1  0  0  0  0
 14 15  2  0  0  0  0
 14 22  1  0  0  0  0
 15 16  1  0  0  0  0
 16 17  1  0  0  0  0
 16 23  2  0  0  0  0
 17 18  1  0  0  0  0
 18 19  1  0  0  0  0
 18 22  1  0  0  0  0
 19 20  2  0  0  0  0
 20 21  1  0  0  0  0
 21 22  2  0  0  0  0
 23 24  1  0  0  0  0
 23 31  1  0  0  0  0
 24 25  2  0  0  0  0
 25 26  1  0  0  0  0
 26 27  2  0  0  0  0
 26 30  1  0  0  0  0
 27 28  1  0  0  0  0
 28 29  2  0  0  0  0
 29 30  1  0  0  0  0
 30 31  2  0  0  0  0
 32 33  2  0  0  0  0
  4 34  1  0  0  0  0
  4 35  1  0  0  0  0
  5 36  1  0  0  0  0
  5 37  1  0  0  0  0
  7 38  1  0  0  0  0
  7 39  1  0  0  0  0
  8 40  1  0  0  0  0
  8 41  1  0  0  0  0
 10 42  1  0  0  0  0
 11 43  1  0  0  0  0
 13 44  1  0  0  0  0
 17 45  1  0  0  0  0
 17 46  1  0  0  0  0
 19 47  1  0  0  0  0
 20 48  1  0  0  0  0
 24 49  1  0  0  0  0
 25 50  1  0  0  0  0
 27 51  1  0  0  0  0
 31 52  1  0  0  0  0
 32 53  1  0  0  0  0
 33 54  1  0  0  0  0
M  END
> <IC50[nM]>
2.1

$$$$
CHEMBL3265033
  -OEChem-05192314333D
 Structure written by MMmdl.
 54 59  0     0  0  0  0  0  0999 V2000
   -6.7377   -5.5954   13.7078 O   0  0  0  0  0  0  0  0  0  0  0  0
   -6.4109   -4.1827   13.9768 S   0  0  0  0  0  0  0  0  0  0  0  0
   -7.4853   -3.1691   13.9645 O   0  0  0  0  0  0  0  0  0  0  0  0
   -5.0718   -3.6553   12.8024 C   0  0  0  0  0  0  0  0  0  0  0  0
   -4.5093   -2.3051   13.2740 C   0  0  0  0  0  0  0  0  0  0  0  0
   -3.8452   -2.4085   14.5766 N   0  0  0  0  0  0  0  0  0  0  0  0
   -4.8019   -2.6733   15.6705 C   0  0  0  0  0  0  0  0  0  0  0  0
   -5.4613   -4.0603   15.5733 C   0  0  0  0  0  0  0  0  0  0  0  0
   -2.5026   -2.1121   14.7721 C   0  0  0  0  0  0  0  0  0  0  0  0
   -1.7498   -2.8472   15.6821 C   0  0  0  0  0  0  0  0  0  0  0  0
   -0.3947   -2.5947   15.8318 C   0  0  0  0  0  0  0  0  0  0  0  0
    0.2287   -1.5788   15.1039 C   0  0  0  0  0  0  0  0  0  0  0  0
    1.6093   -1.3648   15.3339 N   0  0  0  0  0  0  0  0  0  0  0  0
    2.5318   -0.4383   14.7801 C   0  0  0  0  0  0  0  0  0  0  0  0
    2.1634    0.3921   13.7540 N   0  0  0  0  0  0  0  0  0  0  0  0
    3.0974    1.2392   13.2246 C   0  0  0  0  0  0  0  0  0  0  0  0
    4.4044    1.2817   13.6944 C   0  0  0  0  0  0  0  0  0  0  0  0
    4.7423    0.4925   14.7592 N   0  0  0  0  0  0  0  0  0  0  0  0
    5.8954    0.3870   15.4778 C   0  0  0  0  0  0  0  0  0  0  0  0
    5.5990   -0.5412   16.5094 C   0  0  0  0  0  0  0  0  0  0  0  0
    4.3871   -1.0534   16.3565 N   0  0  0  0  0  0  0  0  0  0  0  0
    3.8359   -0.3945   15.3234 C   0  0  0  0  0  0  0  0  0  0  0  0
    2.6253    2.1534   12.1201 C   0  0  0  0  0  0  0  0  0  0  0  0
    3.5412    2.6427   11.1681 C   0  0  0  0  0  0  0  0  0  0  0  0
    3.1527    3.4644   10.1100 C   0  0  0  0  0  0  0  0  0  0  0  0
    1.8061    3.8184   10.0146 C   0  0  0  0  0  0  0  0  0  0  0  0
    0.9967    4.6031    9.1196 C   0  0  0  0  0  0  0  0  0  0  0  0
   -0.2439    4.6096    9.5190 N   0  0  0  0  0  0  0  0  0  0  0  0
   -0.3333    3.8812   10.6311 N   0  0  0  0  0  0  0  0  0  0  0  0
    0.8847    3.3487   10.9898 C   0  0  0  0  0  0  0  0  0  0  0  0
    1.2610    2.5149   12.0531 C   0  0  0  0  0  0  0  0  0  0  0  0
   -0.5302   -0.8124   14.2060 C   0  0  0  0  0  0  0  0  0  0  0  0
   -1.8875   -1.0872   14.0350 C   0  0  0  0  0  0  0  0  0  0  0  0
   -4.2696   -4.4079   12.7930 H   0  0  0  0  0  0  0  0  0  0  0  0
   -5.4876   -3.5500   11.7895 H   0  0  0  0  0  0  0  0  0  0  0  0
   -3.7809   -1.9459   12.5321 H   0  0  0  0  0  0  0  0  0  0  0  0
   -5.3368   -1.5847   13.3540 H   0  0  0  0  0  0  0  0  0  0  0  0
   -4.2654   -2.6071   16.6285 H   0  0  0  0  0  0  0  0  0  0  0  0
   -5.5909   -1.9075   15.6385 H   0  0  0  0  0  0  0  0  0  0  0  0
   -6.1485   -4.2002   16.4208 H   0  0  0  0  0  0  0  0  0  0  0  0
   -4.6844   -4.8386   15.5989 H   0  0  0  0  0  0  0  0  0  0  0  0
   -2.2224   -3.6171   16.2739 H   0  0  0  0  0  0  0  0  0  0  0  0
    0.1860   -3.1911   16.5199 H   0  0  0  0  0  0  0  0  0  0  0  0
    1.2287    0.3788   13.3989 H   0  0  0  0  0  0  0  0  0  0  0  0
    5.0593    0.9960   12.8580 H   0  0  0  0  0  0  0  0  0  0  0  0
    4.6116    2.3226   13.9833 H   0  0  0  0  0  0  0  0  0  0  0  0
    6.8303    0.8980   15.3009 H   0  0  0  0  0  0  0  0  0  0  0  0
    6.2731   -0.7965   17.3137 H   0  0  0  0  0  0  0  0  0  0  0  0
    4.5825    2.3716   11.2609 H   0  0  0  0  0  0  0  0  0  0  0  0
    3.8727    3.8163    9.3860 H   0  0  0  0  0  0  0  0  0  0  0  0
    1.3650    5.1137    8.2421 H   0  0  0  0  0  0  0  0  0  0  0  0
    0.5449    2.1672   12.7829 H   0  0  0  0  0  0  0  0  0  0  0  0
   -0.0651   -0.0124   13.6491 H   0  0  0  0  0  0  0  0  0  0  0  0
   -2.4682   -0.5085   13.3319 H   0  0  0  0  0  0  0  0  0  0  0  0
  1  2  2  0  0  0  0
  2  3  2  0  0  0  0
  2  4  1  0  0  0  0
  2  8  1  0  0  0  0
  4  5  1  0  0  0  0
  5  6  1  0  0  0  0
  6  7  1  0  0  0  0
  6  9  1  0  0  0  0
  7  8  1  0  0  0  0
  9 10  2  0  0  0  0
  9 33  1  0  0  0  0
 10 11  1  0  0  0  0
 11 12  2  0  0  0  0
 12 13  1  0  0  0  0
 12 32  1  0  0  0  0
 13 14  2  0  0  0  0
 14 15  1  0  0  0  0
 14 22  1  0  0  0  0
 15 16  1  0  0  0  0
 16 17  1  0  0  0  0
 16 23  2  0  0  0  0
 17 18  1  0  0  0  0
 18 19  1  0  0  0  0
 18 22  1  0  0  0  0
 19 20  2  0  0  0  0
 20 21  1  0  0  0  0
 21 22  2  0  0  0  0
 23 24  1  0  0  0  0
 23 31  1  0  0  0  0
 24 25  2  0  0  0  0
 25 26  1  0  0  0  0
 26 27  2  0  0  0  0
 26 30  1  0  0  0  0
 27 28  1  0  0  0  0
 28 29  2  0  0  0  0
 29 30  1  0  0  0  0
 30 31  2  0  0  0  0
 32 33  2  0  0  0  0
  4 34  1  0  0  0  0
  4 35  1  0  0  0  0
  5 36  1  0  0  0  0
  5 37  1  0  0  0  0
  7 38  1  0  0  0  0
  7 39  1  0  0  0  0
  8 40  1  0  0  0  0
  8 41  1  0  0  0  0
 10 42  1  0  0  0  0
 11 43  1  0  0  0  0
 15 44  1  0  0  0  0
 17 45  1  0  0  0  0
 17 46  1  0  0  0  0
 19 47  1  0  0  0  0
 20 48  1  0  0  0  0
 24 49  1  0  0  0  0
 25 50  1  0  0  0  0
 27 51  1  0  0  0  0
 31 52  1  0  0  0  0
 32 53  1  0  0  0  0
 33 54  1  0  0  0  0
M  END
> <IC50[nM]>
2.1

$$$$
CHEMBL3265033
  -OEChem-05192314333D
 Structure written by MMmdl.
 54 59  0     0  0  0  0  0  0999 V2000
   -6.7377   -5.5954   13.7078 O   0  0  0  0  0  0  0  0  0  0  0  0
   -6.4109   -4.1827   13.9768 S   0  0  0  0  0  0  0  0  0  0  0  0
   -7.4853   -3.1691   13.9645 O   0  0  0  0  0  0  0  0  0  0  0  0
   -5.0718   -3.6553   12.8024 C   0  0  0  0  0  0  0  0  0  0  0  0
   -4.5093   -2.3051   13.2740 C   0  0  0  0  0  0  0  0  0  0  0  0
   -3.8452   -2.4085   14.5766 N   0  0  0  0  0  0  0  0  0  0  0  0
   -4.8019   -2.6733   15.6705 C   0  0  0  0  0  0  0  0  0  0  0  0
   -5.4613   -4.0603   15.5733 C   0  0  0  0  0  0  0  0  0  0  0  0
   -2.5026   -2.1121   14.7721 C   0  0  0  0  0  0  0  0  0  0  0  0
   -1.7498   -2.8472   15.6821 C   0  0  0  0  0  0  0  0  0  0  0  0
   -0.3947   -2.5947   15.8318 C   0  0  0  0  0  0  0  0  0  0  0  0
    0.2287   -1.5788   15.1039 C   0  0  0  0  0  0  0  0  0  0  0  0
    1.6093   -1.3648   15.3339 N   0  0  0  0  0  0  0  0  0  0  0  0
    2.5318   -0.4383   14.7801 C   0  0  0  0  0  0  0  0  0  0  0  0
    2.1634    0.3921   13.7540 N   0  0  0  0  0  0  0  0  0  0  0  0
    3.0974    1.2392   13.2246 C   0  0  0  0  0  0  0  0  0  0  0  0
    4.4044    1.2817   13.6944 C   0  0  0  0  0  0  0  0  0  0  0  0
    4.7423    0.4925   14.7592 N   0  0  0  0  0  0  0  0  0  0  0  0
    5.8954    0.3870   15.4778 C   0  0  0  0  0  0  0  0  0  0  0  0
    5.5990   -0.5412   16.5094 C   0  0  0  0  0  0  0  0  0  0  0  0
    4.3871   -1.0534   16.3565 N   0  0  0  0  0  0  0  0  0  0  0  0
    3.8359   -0.3945   15.3234 C   0  0  0  0  0  0  0  0  0  0  0  0
    2.6253    2.1534   12.1201 C   0  0  0  0  0  0  0  0  0  0  0  0
    3.5412    2.6427   11.1681 C   0  0  0  0  0  0  0  0  0  0  0  0
    3.1527    3.4644   10.1100 C   0  0  0  0  0  0  0  0  0  0  0  0
    1.8061    3.8184   10.0146 C   0  0  0  0  0  0  0  0  0  0  0  0
    0.9967    4.6031    9.1196 C   0  0  0  0  0  0  0  0  0  0  0  0
   -0.2439    4.6096    9.5190 N   0  0  0  0  0  0  0  0  0  0  0  0
   -0.3333    3.8812   10.6311 N   0  0  0  0  0  0  0  0  0  0  0  0
    0.8847    3.3487   10.9898 C   0  0  0  0  0  0  0  0  0  0  0  0
    1.2610    2.5149   12.0531 C   0  0  0  0  0  0  0  0  0  0  0  0
   -0.5302   -0.8124   14.2060 C   0  0  0  0  0  0  0  0  0  0  0  0
   -1.8875   -1.0872   14.0350 C   0  0  0  0  0  0  0  0  0  0  0  0
   -4.2696   -4.4079   12.7930 H   0  0  0  0  0  0  0  0  0  0  0  0
   -5.4876   -3.5500   11.7895 H   0  0  0  0  0  0  0  0  0  0  0  0
   -3.7809   -1.9459   12.5321 H   0  0  0  0  0  0  0  0  0  0  0  0
   -5.3368   -1.5847   13.3540 H   0  0  0  0  0  0  0  0  0  0  0  0
   -4.2654   -2.6071   16.6285 H   0  0  0  0  0  0  0  0  0  0  0  0
   -5.5909   -1.9075   15.6385 H   0  0  0  0  0  0  0  0  0  0  0  0
   -6.1485   -4.2002   16.4208 H   0  0  0  0  0  0  0  0  0  0  0  0
   -4.6844   -4.8386   15.5989 H   0  0  0  0  0  0  0  0  0  0  0  0
   -2.7688   -1.3940   15.5617 H   0  0  0  0  0  0  0  0  0  0  0  0
   -2.2224   -3.6171   16.2739 H   0  0  0  0  0  0  0  0  0  0  0  0
    0.1860   -3.1911   16.5199 H   0  0  0  0  0  0  0  0  0  0  0  0
    5.1375    1.9239   13.2289 H   0  0  0  0  0  0  0  0  0  0  0  0
    6.8303    0.8980   15.3009 H   0  0  0  0  0  0  0  0  0  0  0  0
    6.2731   -0.7965   17.3137 H   0  0  0  0  0  0  0  0  0  0  0  0
    4.5825    2.3716   11.2609 H   0  0  0  0  0  0  0  0  0  0  0  0
    3.8727    3.8163    9.3860 H   0  0  0  0  0  0  0  0  0  0  0  0
    1.3762    5.6353    9.0979 H   0  0  0  0  0  0  0  0  0  0  0  0
    1.0503    4.1714    8.1093 H   0  0  0  0  0  0  0  0  0  0  0  0
    0.5449    2.1672   12.7829 H   0  0  0  0  0  0  0  0  0  0  0  0
   -0.0651   -0.0124   13.6491 H   0  0  0  0  0  0  0  0  0  0  0  0
   -2.4682   -0.5085   13.3319 H   0  0  0  0  0  0  0  0  0  0  0  0
  1  2  2  0  0  0  0
  2  3  2  0  0  0  0
  2  4  1  0  0  0  0
  2  8  1  0  0  0  0
  4  5  1  0  0  0  0
  5  6  1  0  0  0  0
  6  7  1  0  0  0  0
  6  9  1  0  0  0  0
  7  8  1  0  0  0  0
  9 10  1  0  0  0  0
  9 33  1  0  0  0  0
 10 11  2  0  0  0  0
 11 12  1  0  0  0  0
 12 13  2  0  0  0  0
 12 32  1  0  0  0  0
 13 14  1  0  0  0  0
 14 15  2  0  0  0  0
 14 22  1  0  0  0  0
 15 16  1  0  0  0  0
 16 17  2  0  0  0  0
 16 23  1  0  0  0  0
 17 18  1  0  0  0  0
 18 19  1  0  0  0  0
 18 22  1  0  0  0  0
 19 20  2  0  0  0  0
 20 21  1  0  0  0  0
 21 22  2  0  0  0  0
 23 24  2  0  0  0  0
 23 31  1  0  0  0  0
 24 25  1  0  0  0  0
 25 26  2  0  0  0  0
 26 27  1  0  0  0  0
 26 30  1  0  0  0  0
 27 28  1  0  0  0  0
 28 29  2  0  0  0  0
 29 30  1  0  0  0  0
 30 31  2  0  0  0  0
 32 33  2  0  0  0  0
  4 34  1  0  0  0  0
  4 35  1  0  0  0  0
  5 36  1  0  0  0  0
  5 37  1  0  0  0  0
  7 38  1  0  0  0  0
  7 39  1  0  0  0  0
  8 40  1  0  0  0  0
  8 41  1  0  0  0  0
  9 42  1  0  0  0  0
 10 43  1  0  0  0  0
 11 44  1  0  0  0  0
 17 45  1  0  0  0  0
 19 46  1  0  0  0  0
 20 47  1  0  0  0  0
 24 48  1  0  0  0  0
 25 49  1  0  0  0  0
 27 50  1  0  0  0  0
 27 51  1  0  0  0  0
 31 52  1  0  0  0  0
 32 53  1  0  0  0  0
 33 54  1  0  0  0  0
M  END
> <IC50[nM]>
2.1

$$$$
CHEMBL3265033
  -OEChem-05192314333D
 Structure written by MMmdl.
 54 59  0     0  0  0  0  0  0999 V2000
   -6.7377   -5.5954   13.7078 O   0  0  0  0  0  0  0  0  0  0  0  0
   -6.4109   -4.1827   13.9768 S   0  0  0  0  0  0  0  0  0  0  0  0
   -7.4853   -3.1691   13.9645 O   0  0  0  0  0  0  0  0  0  0  0  0
   -5.0718   -3.6553   12.8024 C   0  0  0  0  0  0  0  0  0  0  0  0
   -4.5093   -2.3051   13.2740 C   0  0  0  0  0  0  0  0  0  0  0  0
   -3.8452   -2.4085   14.5766 N   0  0  0  0  0  0  0  0  0  0  0  0
   -4.8019   -2.6733   15.6705 C   0  0  0  0  0  0  0  0  0  0  0  0
   -5.4613   -4.0603   15.5733 C   0  0  0  0  0  0  0  0  0  0  0  0
   -2.5026   -2.1121   14.7721 C   0  0  0  0  0  0  0  0  0  0  0  0
   -1.7498   -2.8472   15.6821 C   0  0  0  0  0  0  0  0  0  0  0  0
   -0.3947   -2.5947   15.8318 C   0  0  0  0  0  0  0  0  0  0  0  0
    0.2287   -1.5788   15.1039 C   0  0  0  0  0  0  0  0  0  0  0  0
    1.6093   -1.3648   15.3339 N   0  0  0  0  0  0  0  0  0  0  0  0
    2.5318   -0.4383   14.7801 C   0  0  0  0  0  0  0  0  0  0  0  0
    2.1634    0.3921   13.7540 N   0  0  0  0  0  0  0  0  0  0  0  0
    3.0974    1.2392   13.2246 C   0  0  0  0  0  0  0  0  0  0  0  0
    4.4044    1.2817   13.6944 C   0  0  0  0  0  0  0  0  0  0  0  0
    4.7423    0.4925   14.7592 N   0  0  0  0  0  0  0  0  0  0  0  0
    5.8954    0.3870   15.4778 C   0  0  0  0  0  0  0  0  0  0  0  0
    5.5990   -0.5412   16.5094 C   0  0  0  0  0  0  0  0  0  0  0  0
    4.3871   -1.0534   16.3565 N   0  0  0  0  0  0  0  0  0  0  0  0
    3.8359   -0.3945   15.3234 C   0  0  0  0  0  0  0  0  0  0  0  0
    2.6253    2.1534   12.1201 C   0  0  0  0  0  0  0  0  0  0  0  0
    3.5412    2.6427   11.1681 C   0  0  0  0  0  0  0  0  0  0  0  0
    3.1527    3.4644   10.1100 C   0  0  0  0  0  0  0  0  0  0  0  0
    1.8061    3.8184   10.0146 C   0  0  0  0  0  0  0  0  0  0  0  0
    0.9967    4.6031    9.1196 C   0  0  0  0  0  0  0  0  0  0  0  0
   -0.2439    4.6096    9.5190 N   0  0  0  0  0  0  0  0  0  0  0  0
   -0.3333    3.8812   10.6311 N   0  0  0  0  0  0  0  0  0  0  0  0
    0.8847    3.3487   10.9898 C   0  0  0  0  0  0  0  0  0  0  0  0
    1.2610    2.5149   12.0531 C   0  0  0  0  0  0  0  0  0  0  0  0
   -0.5302   -0.8124   14.2060 C   0  0  0  0  0  0  0  0  0  0  0  0
   -1.8875   -1.0872   14.0350 C   0  0  0  0  0  0  0  0  0  0  0  0
   -4.2696   -4.4079   12.7930 H   0  0  0  0  0  0  0  0  0  0  0  0
   -5.4876   -3.5500   11.7895 H   0  0  0  0  0  0  0  0  0  0  0  0
   -3.7809   -1.9459   12.5321 H   0  0  0  0  0  0  0  0  0  0  0  0
   -5.3368   -1.5847   13.3540 H   0  0  0  0  0  0  0  0  0  0  0  0
   -4.2654   -2.6071   16.6285 H   0  0  0  0  0  0  0  0  0  0  0  0
   -5.5909   -1.9075   15.6385 H   0  0  0  0  0  0  0  0  0  0  0  0
   -6.1485   -4.2002   16.4208 H   0  0  0  0  0  0  0  0  0  0  0  0
   -4.6844   -4.8386   15.5989 H   0  0  0  0  0  0  0  0  0  0  0  0
   -2.2224   -3.6171   16.2739 H   0  0  0  0  0  0  0  0  0  0  0  0
    0.1860   -3.1911   16.5199 H   0  0  0  0  0  0  0  0  0  0  0  0
    5.1375    1.9239   13.2289 H   0  0  0  0  0  0  0  0  0  0  0  0
    6.8303    0.8980   15.3009 H   0  0  0  0  0  0  0  0  0  0  0  0
    6.2731   -0.7965   17.3137 H   0  0  0  0  0  0  0  0  0  0  0  0
    4.5825    2.3716   11.2609 H   0  0  0  0  0  0  0  0  0  0  0  0
    3.8727    3.8163    9.3860 H   0  0  0  0  0  0  0  0  0  0  0  0
    1.3762    5.6353    9.0979 H   0  0  0  0  0  0  0  0  0  0  0  0
    1.0503    4.1714    8.1093 H   0  0  0  0  0  0  0  0  0  0  0  0
    0.5449    2.1672   12.7829 H   0  0  0  0  0  0  0  0  0  0  0  0
   -0.4564    0.2335   14.5385 H   0  0  0  0  0  0  0  0  0  0  0  0
   -0.0571   -0.9175   13.2185 H   0  0  0  0  0  0  0  0  0  0  0  0
   -2.4682   -0.5085   13.3319 H   0  0  0  0  0  0  0  0  0  0  0  0
  1  2  2  0  0  0  0
  2  3  2  0  0  0  0
  2  4  1  0  0  0  0
  2  8  1  0  0  0  0
  4  5  1  0  0  0  0
  5  6  1  0  0  0  0
  6  7  1  0  0  0  0
  6  9  1  0  0  0  0
  7  8  1  0  0  0  0
  9 10  1  0  0  0  0
  9 33  2  0  0  0  0
 10 11  2  0  0  0  0
 11 12  1  0  0  0  0
 12 13  2  0  0  0  0
 12 32  1  0  0  0  0
 13 14  1  0  0  0  0
 14 15  2  0  0  0  0
 14 22  1  0  0  0  0
 15 16  1  0  0  0  0
 16 17  2  0  0  0  0
 16 23  1  0  0  0  0
 17 18  1  0  0  0  0
 18 19  1  0  0  0  0
 18 22  1  0  0  0  0
 19 20  2  0  0  0  0
 20 21  1  0  0  0  0
 21 22  2  0  0  0  0
 23 24  2  0  0  0  0
 23 31  1  0  0  0  0
 24 25  1  0  0  0  0
 25 26  2  0  0  0  0
 26 27  1  0  0  0  0
 26 30  1  0  0  0  0
 27 28  1  0  0  0  0
 28 29  2  0  0  0  0
 29 30  1  0  0  0  0
 30 31  2  0  0  0  0
 32 33  1  0  0  0  0
  4 34  1  0  0  0  0
  4 35  1  0  0  0  0
  5 36  1  0  0  0  0
  5 37  1  0  0  0  0
  7 38  1  0  0  0  0
  7 39  1  0  0  0  0
  8 40  1  0  0  0  0
  8 41  1  0  0  0  0
 10 42  1  0  0  0  0
 11 43  1  0  0  0  0
 17 44  1  0  0  0  0
 19 45  1  0  0  0  0
 20 46  1  0  0  0  0
 24 47  1  0  0  0  0
 25 48  1  0  0  0  0
 27 49  1  0  0  0  0
 27 50  1  0  0  0  0
 31 51  1  0  0  0  0
 32 52  1  0  0  0  0
 32 53  1  0  0  0  0
 33 54  1  0  0  0  0
M  END
> <IC50[nM]>
2.1

$$$$
CHEMBL3265033
  -OEChem-05192314333D
 Structure written by MMmdl.
 54 59  0     1  0  0  0  0  0999 V2000
   -6.7377   -5.5954   13.7078 O   0  0  0  0  0  0  0  0  0  0  0  0
   -6.4109   -4.1827   13.9768 S   0  0  0  0  0  0  0  0  0  0  0  0
   -7.4853   -3.1691   13.9645 O   0  0  0  0  0  0  0  0  0  0  0  0
   -5.0718   -3.6553   12.8024 C   0  0  0  0  0  0  0  0  0  0  0  0
   -4.5093   -2.3051   13.2740 C   0  0  0  0  0  0  0  0  0  0  0  0
   -3.8452   -2.4085   14.5766 N   0  0  0  0  0  0  0  0  0  0  0  0
   -4.8019   -2.6733   15.6705 C   0  0  0  0  0  0  0  0  0  0  0  0
   -5.4613   -4.0603   15.5733 C   0  0  0  0  0  0  0  0  0  0  0  0
   -2.5026   -2.1121   14.7721 C   0  0  0  0  0  0  0  0  0  0  0  0
   -1.7498   -2.8472   15.6821 C   0  0  0  0  0  0  0  0  0  0  0  0
   -0.3947   -2.5947   15.8318 C   0  0  0  0  0  0  0  0  0  0  0  0
    0.2287   -1.5788   15.1039 C   0  0  0  0  0  0  0  0  0  0  0  0
    1.6093   -1.3648   15.3339 N   0  0  0  0  0  0  0  0  0  0  0  0
    2.5318   -0.4383   14.7801 C   0  0  0  0  0  0  0  0  0  0  0  0
    2.1634    0.3921   13.7540 N   0  0  0  0  0  0  0  0  0  0  0  0
    3.0974    1.2392   13.2246 C   0  0  0  0  0  0  0  0  0  0  0  0
    4.4044    1.2817   13.6944 C   0  0  0  0  0  0  0  0  0  0  0  0
    4.7423    0.4925   14.7592 N   0  0  0  0  0  0  0  0  0  0  0  0
    5.8954    0.3870   15.4778 C   0  0  0  0  0  0  0  0  0  0  0  0
    5.5990   -0.5412   16.5094 C   0  0  0  0  0  0  0  0  0  0  0  0
    4.3871   -1.0534   16.3565 N   0  0  0  0  0  0  0  0  0  0  0  0
    3.8359   -0.3945   15.3234 C   0  0  0  0  0  0  0  0  0  0  0  0
    2.6253    2.1534   12.1201 C   0  0  0  0  0  0  0  0  0  0  0  0
    3.5412    2.6427   11.1681 C   0  0  0  0  0  0  0  0  0  0  0  0
    3.1527    3.4644   10.1100 C   0  0  0  0  0  0  0  0  0  0  0  0
    1.8061    3.8184   10.0146 C   0  0  3  0  0  0  0  0  0  0  0  0
    0.9967    4.6031    9.1196 C   0  0  0  0  0  0  0  0  0  0  0  0
   -0.2439    4.6096    9.5190 N   0  0  0  0  0  0  0  0  0  0  0  0
   -0.3333    3.8812   10.6311 N   0  0  0  0  0  0  0  0  0  0  0  0
    0.8847    3.3487   10.9898 C   0  0  0  0  0  0  0  0  0  0  0  0
    1.2610    2.5149   12.0531 C   0  0  0  0  0  0  0  0  0  0  0  0
   -0.5302   -0.8124   14.2060 C   0  0  0  0  0  0  0  0  0  0  0  0
   -1.8875   -1.0872   14.0350 C   0  0  0  0  0  0  0  0  0  0  0  0
   -4.2696   -4.4079   12.7930 H   0  0  0  0  0  0  0  0  0  0  0  0
   -5.4876   -3.5500   11.7895 H   0  0  0  0  0  0  0  0  0  0  0  0
   -3.7809   -1.9459   12.5321 H   0  0  0  0  0  0  0  0  0  0  0  0
   -5.3368   -1.5847   13.3540 H   0  0  0  0  0  0  0  0  0  0  0  0
   -4.2654   -2.6071   16.6285 H   0  0  0  0  0  0  0  0  0  0  0  0
   -5.5909   -1.9075   15.6385 H   0  0  0  0  0  0  0  0  0  0  0  0
   -6.1485   -4.2002   16.4208 H   0  0  0  0  0  0  0  0  0  0  0  0
   -4.6844   -4.8386   15.5989 H   0  0  0  0  0  0  0  0  0  0  0  0
   -2.2224   -3.6171   16.2739 H   0  0  0  0  0  0  0  0  0  0  0  0
    0.1860   -3.1911   16.5199 H   0  0  0  0  0  0  0  0  0  0  0  0
    2.0091   -1.9808   16.0127 H   0  0  0  0  0  0  0  0  0  0  0  0
    5.1375    1.9239   13.2289 H   0  0  0  0  0  0  0  0  0  0  0  0
    6.8303    0.8980   15.3009 H   0  0  0  0  0  0  0  0  0  0  0  0
    6.2731   -0.7965   17.3137 H   0  0  0  0  0  0  0  0  0  0  0  0
    4.5825    2.3716   11.2609 H   0  0  0  0  0  0  0  0  0  0  0  0
    3.8727    3.8163    9.3860 H   0  0  0  0  0  0  0  0  0  0  0  0
    1.9976    4.7126   10.6259 H   0  0  0  0  0  0  0  0  0  0  0  0
    1.3650    5.1137    8.2421 H   0  0  0  0  0  0  0  0  0  0  0  0
    0.5449    2.1672   12.7829 H   0  0  0  0  0  0  0  0  0  0  0  0
   -0.0651   -0.0124   13.6491 H   0  0  0  0  0  0  0  0  0  0  0  0
   -2.4682   -0.5085   13.3319 H   0  0  0  0  0  0  0  0  0  0  0  0
  1  2  2  0  0  0  0
  2  3  2  0  0  0  0
  2  4  1  0  0  0  0
  2  8  1  0  0  0  0
  4  5  1  0  0  0  0
  5  6  1  0  0  0  0
  6  7  1  0  0  0  0
  6  9  1  0  0  0  0
  7  8  1  0  0  0  0
  9 10  2  0  0  0  0
  9 33  1  0  0  0  0
 10 11  1  0  0  0  0
 11 12  2  0  0  0  0
 12 13  1  0  0  0  0
 12 32  1  0  0  0  0
 13 14  1  0  0  0  0
 14 15  2  0  0  0  0
 14 22  1  0  0  0  0
 15 16  1  0  0  0  0
 16 17  2  0  0  0  0
 16 23  1  0  0  0  0
 17 18  1  0  0  0  0
 18 19  1  0  0  0  0
 18 22  1  0  0  0  0
 19 20  2  0  0  0  0
 20 21  1  0  0  0  0
 21 22  2  0  0  0  0
 23 24  1  0  0  0  0
 23 31  2  0  0  0  0
 24 25  2  0  0  0  0
 25 26  1  0  0  0  0
 26 27  1  0  0  0  0
 26 30  1  0  0  0  0
 27 28  2  0  0  0  0
 28 29  1  0  0  0  0
 29 30  2  0  0  0  0
 30 31  1  0  0  0  0
 32 33  2  0  0  0  0
  4 34  1  0  0  0  0
  4 35  1  0  0  0  0
  5 36  1  0  0  0  0
  5 37  1  0  0  0  0
  7 38  1  0  0  0  0
  7 39  1  0  0  0  0
  8 40  1  0  0  0  0
  8 41  1  0  0  0  0
 10 42  1  0  0  0  0
 11 43  1  0  0  0  0
 13 44  1  0  0  0  0
 17 45  1  0  0  0  0
 19 46  1  0  0  0  0
 20 47  1  0  0  0  0
 24 48  1  0  0  0  0
 25 49  1  0  0  0  0
 26 50  1  0  0  0  0
 27 51  1  0  0  0  0
 31 52  1  0  0  0  0
 32 53  1  0  0  0  0
 33 54  1  0  0  0  0
M  END
> <IC50[nM]>
2.1

$$$$
CHEMBL3265033
  -OEChem-05192314333D
 Structure written by MMmdl.
 54 59  0     0  0  0  0  0  0999 V2000
   -6.7377   -5.5954   13.7078 O   0  0  0  0  0  0  0  0  0  0  0  0
   -6.4109   -4.1827   13.9768 S   0  0  0  0  0  0  0  0  0  0  0  0
   -7.4853   -3.1691   13.9645 O   0  0  0  0  0  0  0  0  0  0  0  0
   -5.0718   -3.6553   12.8024 C   0  0  0  0  0  0  0  0  0  0  0  0
   -4.5093   -2.3051   13.2740 C   0  0  0  0  0  0  0  0  0  0  0  0
   -3.8452   -2.4085   14.5766 N   0  0  0  0  0  0  0  0  0  0  0  0
   -4.8019   -2.6733   15.6705 C   0  0  0  0  0  0  0  0  0  0  0  0
   -5.4613   -4.0603   15.5733 C   0  0  0  0  0  0  0  0  0  0  0  0
   -2.5026   -2.1121   14.7721 C   0  0  0  0  0  0  0  0  0  0  0  0
   -1.7498   -2.8472   15.6821 C   0  0  0  0  0  0  0  0  0  0  0  0
   -0.3947   -2.5947   15.8318 C   0  0  0  0  0  0  0  0  0  0  0  0
    0.2287   -1.5788   15.1039 C   0  0  0  0  0  0  0  0  0  0  0  0
    1.6093   -1.3648   15.3339 N   0  0  0  0  0  0  0  0  0  0  0  0
    2.5318   -0.4383   14.7801 C   0  0  0  0  0  0  0  0  0  0  0  0
    2.1634    0.3921   13.7540 N   0  0  0  0  0  0  0  0  0  0  0  0
    3.0974    1.2392   13.2246 C   0  0  0  0  0  0  0  0  0  0  0  0
    4.4044    1.2817   13.6944 C   0  0  0  0  0  0  0  0  0  0  0  0
    4.7423    0.4925   14.7592 N   0  0  0  0  0  0  0  0  0  0  0  0
    5.8954    0.3870   15.4778 C   0  0  0  0  0  0  0  0  0  0  0  0
    5.5990   -0.5412   16.5094 C   0  0  0  0  0  0  0  0  0  0  0  0
    4.3871   -1.0534   16.3565 N   0  0  0  0  0  0  0  0  0  0  0  0
    3.8359   -0.3945   15.3234 C   0  0  0  0  0  0  0  0  0  0  0  0
    2.6253    2.1534   12.1201 C   0  0  0  0  0  0  0  0  0  0  0  0
    3.5412    2.6427   11.1681 C   0  0  0  0  0  0  0  0  0  0  0  0
    3.1527    3.4644   10.1100 C   0  0  0  0  0  0  0  0  0  0  0  0
    1.8061    3.8184   10.0146 C   0  0  0  0  0  0  0  0  0  0  0  0
    0.9967    4.6031    9.1196 C   0  0  0  0  0  0  0  0  0  0  0  0
   -0.2439    4.6096    9.5190 N   0  0  0  0  0  0  0  0  0  0  0  0
   -0.3333    3.8812   10.6311 N   0  0  0  0  0  0  0  0  0  0  0  0
    0.8847    3.3487   10.9898 C   0  0  0  0  0  0  0  0  0  0  0  0
    1.2610    2.5149   12.0531 C   0  0  0  0  0  0  0  0  0  0  0  0
   -0.5302   -0.8124   14.2060 C   0  0  0  0  0  0  0  0  0  0  0  0
   -1.8875   -1.0872   14.0350 C   0  0  0  0  0  0  0  0  0  0  0  0
   -4.2696   -4.4079   12.7930 H   0  0  0  0  0  0  0  0  0  0  0  0
   -5.4876   -3.5500   11.7895 H   0  0  0  0  0  0  0  0  0  0  0  0
   -3.7809   -1.9459   12.5321 H   0  0  0  0  0  0  0  0  0  0  0  0
   -5.3368   -1.5847   13.3540 H   0  0  0  0  0  0  0  0  0  0  0  0
   -4.2654   -2.6071   16.6285 H   0  0  0  0  0  0  0  0  0  0  0  0
   -5.5909   -1.9075   15.6385 H   0  0  0  0  0  0  0  0  0  0  0  0
   -6.1485   -4.2002   16.4208 H   0  0  0  0  0  0  0  0  0  0  0  0
   -4.6844   -4.8386   15.5989 H   0  0  0  0  0  0  0  0  0  0  0  0
   -2.2224   -3.6171   16.2739 H   0  0  0  0  0  0  0  0  0  0  0  0
    0.1860   -3.1911   16.5199 H   0  0  0  0  0  0  0  0  0  0  0  0
    2.0091   -1.9808   16.0127 H   0  0  0  0  0  0  0  0  0  0  0  0
    5.1375    1.9239   13.2289 H   0  0  0  0  0  0  0  0  0  0  0  0
    6.8303    0.8980   15.3009 H   0  0  0  0  0  0  0  0  0  0  0  0
    6.2731   -0.7965   17.3137 H   0  0  0  0  0  0  0  0  0  0  0  0
    4.2968    3.2083   11.7331 H   0  0  0  0  0  0  0  0  0  0  0  0
    4.0103    1.7583   10.7123 H   0  0  0  0  0  0  0  0  0  0  0  0
    3.8727    3.8163    9.3860 H   0  0  0  0  0  0  0  0  0  0  0  0
    1.3650    5.1137    8.2421 H   0  0  0  0  0  0  0  0  0  0  0  0
    0.5449    2.1672   12.7829 H   0  0  0  0  0  0  0  0  0  0  0  0
   -0.0651   -0.0124   13.6491 H   0  0  0  0  0  0  0  0  0  0  0  0
   -2.4682   -0.5085   13.3319 H   0  0  0  0  0  0  0  0  0  0  0  0
  1  2  2  0  0  0  0
  2  3  2  0  0  0  0
  2  4  1  0  0  0  0
  2  8  1  0  0  0  0
  4  5  1  0  0  0  0
  5  6  1  0  0  0  0
  6  7  1  0  0  0  0
  6  9  1  0  0  0  0
  7  8  1  0  0  0  0
  9 10  2  0  0  0  0
  9 33  1  0  0  0  0
 10 11  1  0  0  0  0
 11 12  2  0  0  0  0
 12 13  1  0  0  0  0
 12 32  1  0  0  0  0
 13 14  1  0  0  0  0
 14 15  2  0  0  0  0
 14 22  1  0  0  0  0
 15 16  1  0  0  0  0
 16 17  2  0  0  0  0
 16 23  1  0  0  0  0
 17 18  1  0  0  0  0
 18 19  1  0  0  0  0
 18 22  1  0  0  0  0
 19 20  2  0  0  0  0
 20 21  1  0  0  0  0
 21 22  2  0  0  0  0
 23 24  1  0  0  0  0
 23 31  2  0  0  0  0
 24 25  1  0  0  0  0
 25 26  2  0  0  0  0
 26 27  1  0  0  0  0
 26 30  1  0  0  0  0
 27 28  2  0  0  0  0
 28 29  1  0  0  0  0
 29 30  2  0  0  0  0
 30 31  1  0  0  0  0
 32 33  2  0  0  0  0
  4 34  1  0  0  0  0
  4 35  1  0  0  0  0
  5 36  1  0  0  0  0
  5 37  1  0  0  0  0
  7 38  1  0  0  0  0
  7 39  1  0  0  0  0
  8 40  1  0  0  0  0
  8 41  1  0  0  0  0
 10 42  1  0  0  0  0
 11 43  1  0  0  0  0
 13 44  1  0  0  0  0
 17 45  1  0  0  0  0
 19 46  1  0  0  0  0
 20 47  1  0  0  0  0
 24 48  1  0  0  0  0
 24 49  1  0  0  0  0
 25 50  1  0  0  0  0
 27 51  1  0  0  0  0
 31 52  1  0  0  0  0
 32 53  1  0  0  0  0
 33 54  1  0  0  0  0
M  END
> <IC50[nM]>
2.1

$$$$
CHEMBL3265033
  -OEChem-05192314333D
 Structure written by MMmdl.
 54 59  0     0  0  0  0  0  0999 V2000
   -6.7377   -5.5954   13.7078 O   0  0  0  0  0  0  0  0  0  0  0  0
   -6.4109   -4.1827   13.9768 S   0  0  0  0  0  0  0  0  0  0  0  0
   -7.4853   -3.1691   13.9645 O   0  0  0  0  0  0  0  0  0  0  0  0
   -5.0718   -3.6553   12.8024 C   0  0  0  0  0  0  0  0  0  0  0  0
   -4.5093   -2.3051   13.2740 C   0  0  0  0  0  0  0  0  0  0  0  0
   -3.8452   -2.4085   14.5766 N   0  0  0  0  0  0  0  0  0  0  0  0
   -4.8019   -2.6733   15.6705 C   0  0  0  0  0  0  0  0  0  0  0  0
   -5.4613   -4.0603   15.5733 C   0  0  0  0  0  0  0  0  0  0  0  0
   -2.5026   -2.1121   14.7721 C   0  0  0  0  0  0  0  0  0  0  0  0
   -1.7498   -2.8472   15.6821 C   0  0  0  0  0  0  0  0  0  0  0  0
   -0.3947   -2.5947   15.8318 C   0  0  0  0  0  0  0  0  0  0  0  0
    0.2287   -1.5788   15.1039 C   0  0  0  0  0  0  0  0  0  0  0  0
    1.6093   -1.3648   15.3339 N   0  0  0  0  0  0  0  0  0  0  0  0
    2.5318   -0.4383   14.7801 C   0  0  0  0  0  0  0  0  0  0  0  0
    2.1634    0.3921   13.7540 N   0  0  0  0  0  0  0  0  0  0  0  0
    3.0974    1.2392   13.2246 C   0  0  0  0  0  0  0  0  0  0  0  0
    4.4044    1.2817   13.6944 C   0  0  0  0  0  0  0  0  0  0  0  0
    4.7423    0.4925   14.7592 N   0  0  0  0  0  0  0  0  0  0  0  0
    5.8954    0.3870   15.4778 C   0  0  0  0  0  0  0  0  0  0  0  0
    5.5990   -0.5412   16.5094 C   0  0  0  0  0  0  0  0  0  0  0  0
    4.3871   -1.0534   16.3565 N   0  0  0  0  0  0  0  0  0  0  0  0
    3.8359   -0.3945   15.3234 C   0  0  0  0  0  0  0  0  0  0  0  0
    2.6253    2.1534   12.1201 C   0  0  0  0  0  0  0  0  0  0  0  0
    3.5412    2.6427   11.1681 C   0  0  0  0  0  0  0  0  0  0  0  0
    3.1527    3.4644   10.1100 C   0  0  0  0  0  0  0  0  0  0  0  0
    1.8061    3.8184   10.0146 C   0  0  0  0  0  0  0  0  0  0  0  0
    0.9967    4.6031    9.1196 C   0  0  0  0  0  0  0  0  0  0  0  0
   -0.2439    4.6096    9.5190 N   0  0  0  0  0  0  0  0  0  0  0  0
   -0.3333    3.8812   10.6311 N   0  0  0  0  0  0  0  0  0  0  0  0
    0.8847    3.3487   10.9898 C   0  0  0  0  0  0  0  0  0  0  0  0
    1.2610    2.5149   12.0531 C   0  0  0  0  0  0  0  0  0  0  0  0
   -0.5302   -0.8124   14.2060 C   0  0  0  0  0  0  0  0  0  0  0  0
   -1.8875   -1.0872   14.0350 C   0  0  0  0  0  0  0  0  0  0  0  0
   -4.2696   -4.4079   12.7930 H   0  0  0  0  0  0  0  0  0  0  0  0
   -5.4876   -3.5500   11.7895 H   0  0  0  0  0  0  0  0  0  0  0  0
   -3.7809   -1.9459   12.5321 H   0  0  0  0  0  0  0  0  0  0  0  0
   -5.3368   -1.5847   13.3540 H   0  0  0  0  0  0  0  0  0  0  0  0
   -4.2654   -2.6071   16.6285 H   0  0  0  0  0  0  0  0  0  0  0  0
   -5.5909   -1.9075   15.6385 H   0  0  0  0  0  0  0  0  0  0  0  0
   -6.1485   -4.2002   16.4208 H   0  0  0  0  0  0  0  0  0  0  0  0
   -4.6844   -4.8386   15.5989 H   0  0  0  0  0  0  0  0  0  0  0  0
   -2.2224   -3.6171   16.2739 H   0  0  0  0  0  0  0  0  0  0  0  0
    0.1860   -3.1911   16.5199 H   0  0  0  0  0  0  0  0  0  0  0  0
    2.0091   -1.9808   16.0127 H   0  0  0  0  0  0  0  0  0  0  0  0
    5.1375    1.9239   13.2289 H   0  0  0  0  0  0  0  0  0  0  0  0
    6.8303    0.8980   15.3009 H   0  0  0  0  0  0  0  0  0  0  0  0
    6.2731   -0.7965   17.3137 H   0  0  0  0  0  0  0  0  0  0  0  0
    4.5825    2.3716   11.2609 H   0  0  0  0  0  0  0  0  0  0  0  0
    3.8727    3.8163    9.3860 H   0  0  0  0  0  0  0  0  0  0  0  0
    1.3650    5.1137    8.2421 H   0  0  0  0  0  0  0  0  0  0  0  0
    0.6735    1.5882   11.9749 H   0  0  0  0  0  0  0  0  0  0  0  0
    1.0063    3.0326   12.9897 H   0  0  0  0  0  0  0  0  0  0  0  0
   -0.0651   -0.0124   13.6491 H   0  0  0  0  0  0  0  0  0  0  0  0
   -2.4682   -0.5085   13.3319 H   0  0  0  0  0  0  0  0  0  0  0  0
  1  2  2  0  0  0  0
  2  3  2  0  0  0  0
  2  4  1  0  0  0  0
  2  8  1  0  0  0  0
  4  5  1  0  0  0  0
  5  6  1  0  0  0  0
  6  7  1  0  0  0  0
  6  9  1  0  0  0  0
  7  8  1  0  0  0  0
  9 10  2  0  0  0  0
  9 33  1  0  0  0  0
 10 11  1  0  0  0  0
 11 12  2  0  0  0  0
 12 13  1  0  0  0  0
 12 32  1  0  0  0  0
 13 14  1  0  0  0  0
 14 15  2  0  0  0  0
 14 22  1  0  0  0  0
 15 16  1  0  0  0  0
 16 17  2  0  0  0  0
 16 23  1  0  0  0  0
 17 18  1  0  0  0  0
 18 19  1  0  0  0  0
 18 22  1  0  0  0  0
 19 20  2  0  0  0  0
 20 21  1  0  0  0  0
 21 22  2  0  0  0  0
 23 24  2  0  0  0  0
 23 31  1  0  0  0  0
 24 25  1  0  0  0  0
 25 26  2  0  0  0  0
 26 27  1  0  0  0  0
 26 30  1  0  0  0  0
 27 28  2  0  0  0  0
 28 29  1  0  0  0  0
 29 30  2  0  0  0  0
 30 31  1  0  0  0  0
 32 33  2  0  0  0  0
  4 34  1  0  0  0  0
  4 35  1  0  0  0  0
  5 36  1  0  0  0  0
  5 37  1  0  0  0  0
  7 38  1  0  0  0  0
  7 39  1  0  0  0  0
  8 40  1  0  0  0  0
  8 41  1  0  0  0  0
 10 42  1  0  0  0  0
 11 43  1  0  0  0  0
 13 44  1  0  0  0  0
 17 45  1  0  0  0  0
 19 46  1  0  0  0  0
 20 47  1  0  0  0  0
 24 48  1  0  0  0  0
 25 49  1  0  0  0  0
 27 50  1  0  0  0  0
 31 51  1  0  0  0  0
 31 52  1  0  0  0  0
 32 53  1  0  0  0  0
 33 54  1  0  0  0  0
M  END
> <IC50[nM]>
2.1

$$$$
CHEMBL3265033
  -OEChem-05192314333D
 Structure written by MMmdl.
 54 59  0     1  0  0  0  0  0999 V2000
   -6.7377   -5.5954   13.7078 O   0  0  0  0  0  0  0  0  0  0  0  0
   -6.4109   -4.1827   13.9768 S   0  0  0  0  0  0  0  0  0  0  0  0
   -7.4853   -3.1691   13.9645 O   0  0  0  0  0  0  0  0  0  0  0  0
   -5.0718   -3.6553   12.8024 C   0  0  0  0  0  0  0  0  0  0  0  0
   -4.5093   -2.3051   13.2740 C   0  0  0  0  0  0  0  0  0  0  0  0
   -3.8452   -2.4085   14.5766 N   0  0  0  0  0  0  0  0  0  0  0  0
   -4.8019   -2.6733   15.6705 C   0  0  0  0  0  0  0  0  0  0  0  0
   -5.4613   -4.0603   15.5733 C   0  0  0  0  0  0  0  0  0  0  0  0
   -2.5026   -2.1121   14.7721 C   0  0  0  0  0  0  0  0  0  0  0  0
   -1.7498   -2.8472   15.6821 C   0  0  0  0  0  0  0  0  0  0  0  0
   -0.3947   -2.5947   15.8318 C   0  0  0  0  0  0  0  0  0  0  0  0
    0.2287   -1.5788   15.1039 C   0  0  0  0  0  0  0  0  0  0  0  0
    1.6093   -1.3648   15.3339 N   0  0  0  0  0  0  0  0  0  0  0  0
    2.5318   -0.4383   14.7801 C   0  0  0  0  0  0  0  0  0  0  0  0
    2.1634    0.3921   13.7540 N   0  0  0  0  0  0  0  0  0  0  0  0
    3.0974    1.2392   13.2246 C   0  0  0  0  0  0  0  0  0  0  0  0
    4.4044    1.2817   13.6944 C   0  0  0  0  0  0  0  0  0  0  0  0
    4.7423    0.4925   14.7592 N   0  0  0  0  0  0  0  0  0  0  0  0
    5.8954    0.3870   15.4778 C   0  0  0  0  0  0  0  0  0  0  0  0
    5.5990   -0.5412   16.5094 C   0  0  0  0  0  0  0  0  0  0  0  0
    4.3871   -1.0534   16.3565 N   0  0  0  0  0  0  0  0  0  0  0  0
    3.8359   -0.3945   15.3234 C   0  0  0  0  0  0  0  0  0  0  0  0
    2.6253    2.1534   12.1201 C   0  0  3  0  0  0  0  0  0  0  0  0
    3.5412    2.6427   11.1681 C   0  0  0  0  0  0  0  0  0  0  0  0
    3.1527    3.4644   10.1100 C   0  0  0  0  0  0  0  0  0  0  0  0
    1.8061    3.8184   10.0146 C   0  0  0  0  0  0  0  0  0  0  0  0
    0.9967    4.6031    9.1196 C   0  0  0  0  0  0  0  0  0  0  0  0
   -0.2439    4.6096    9.5190 N   0  0  0  0  0  0  0  0  0  0  0  0
   -0.3333    3.8812   10.6311 N   0  0  0  0  0  0  0  0  0  0  0  0
    0.8847    3.3487   10.9898 C   0  0  0  0  0  0  0  0  0  0  0  0
    1.2610    2.5149   12.0531 C   0  0  0  0  0  0  0  0  0  0  0  0
   -0.5302   -0.8124   14.2060 C   0  0  0  0  0  0  0  0  0  0  0  0
   -1.8875   -1.0872   14.0350 C   0  0  0  0  0  0  0  0  0  0  0  0
   -4.2696   -4.4079   12.7930 H   0  0  0  0  0  0  0  0  0  0  0  0
   -5.4876   -3.5500   11.7895 H   0  0  0  0  0  0  0  0  0  0  0  0
   -3.7809   -1.9459   12.5321 H   0  0  0  0  0  0  0  0  0  0  0  0
   -5.3368   -1.5847   13.3540 H   0  0  0  0  0  0  0  0  0  0  0  0
   -4.2654   -2.6071   16.6285 H   0  0  0  0  0  0  0  0  0  0  0  0
   -5.5909   -1.9075   15.6385 H   0  0  0  0  0  0  0  0  0  0  0  0
   -6.1485   -4.2002   16.4208 H   0  0  0  0  0  0  0  0  0  0  0  0
   -4.6844   -4.8386   15.5989 H   0  0  0  0  0  0  0  0  0  0  0  0
   -2.2224   -3.6171   16.2739 H   0  0  0  0  0  0  0  0  0  0  0  0
    0.1860   -3.1911   16.5199 H   0  0  0  0  0  0  0  0  0  0  0  0
    2.0091   -1.9808   16.0127 H   0  0  0  0  0  0  0  0  0  0  0  0
    5.1375    1.9239   13.2289 H   0  0  0  0  0  0  0  0  0  0  0  0
    6.8303    0.8980   15.3009 H   0  0  0  0  0  0  0  0  0  0  0  0
    6.2731   -0.7965   17.3137 H   0  0  0  0  0  0  0  0  0  0  0  0
    2.4263    1.2803   11.4813 H   0  0  0  0  0  0  0  0  0  0  0  0
    4.5825    2.3716   11.2609 H   0  0  0  0  0  0  0  0  0  0  0  0
    3.8727    3.8163    9.3860 H   0  0  0  0  0  0  0  0  0  0  0  0
    1.3650    5.1137    8.2421 H   0  0  0  0  0  0  0  0  0  0  0  0
    0.5449    2.1672   12.7829 H   0  0  0  0  0  0  0  0  0  0  0  0
   -0.0651   -0.0124   13.6491 H   0  0  0  0  0  0  0  0  0  0  0  0
   -2.4682   -0.5085   13.3319 H   0  0  0  0  0  0  0  0  0  0  0  0
  1  2  2  0  0  0  0
  2  3  2  0  0  0  0
  2  4  1  0  0  0  0
  2  8  1  0  0  0  0
  4  5  1  0  0  0  0
  5  6  1  0  0  0  0
  6  7  1  0  0  0  0
  6  9  1  0  0  0  0
  7  8  1  0  0  0  0
  9 10  2  0  0  0  0
  9 33  1  0  0  0  0
 10 11  1  0  0  0  0
 11 12  2  0  0  0  0
 12 13  1  0  0  0  0
 12 32  1  0  0  0  0
 13 14  1  0  0  0  0
 14 15  2  0  0  0  0
 14 22  1  0  0  0  0
 15 16  1  0  0  0  0
 16 17  2  0  0  0  0
 16 23  1  0  0  0  0
 17 18  1  0  0  0  0
 18 19  1  0  0  0  0
 18 22  1  0  0  0  0
 19 20  2  0  0  0  0
 20 21  1  0  0  0  0
 21 22  2  0  0  0  0
 23 24  1  0  0  0  0
 23 31  1  0  0  0  0
 24 25  2  0  0  0  0
 25 26  1  0  0  0  0
 26 27  2  0  0  0  0
 26 30  1  0  0  0  0
 27 28  1  0  0  0  0
 28 29  2  0  0  0  0
 29 30  1  0  0  0  0
 30 31  2  0  0  0  0
 32 33  2  0  0  0  0
  4 34  1  0  0  0  0
  4 35  1  0  0  0  0
  5 36  1  0  0  0  0
  5 37  1  0  0  0  0
  7 38  1  0  0  0  0
  7 39  1  0  0  0  0
  8 40  1  0  0  0  0
  8 41  1  0  0  0  0
 10 42  1  0  0  0  0
 11 43  1  0  0  0  0
 13 44  1  0  0  0  0
 17 45  1  0  0  0  0
 19 46  1  0  0  0  0
 20 47  1  0  0  0  0
 23 48  1  0  0  0  0
 24 49  1  0  0  0  0
 25 50  1  0  0  0  0
 27 51  1  0  0  0  0
 31 52  1  0  0  0  0
 32 53  1  0  0  0  0
 33 54  1  0  0  0  0
M  END
> <IC50[nM]>
2.1

$$$$
CHEMBL3265033
  -OEChem-05192314333D
 Structure written by MMmdl.
 54 59  0     1  0  0  0  0  0999 V2000
   -6.7377   -5.5954   13.7078 O   0  0  0  0  0  0  0  0  0  0  0  0
   -6.4109   -4.1827   13.9768 S   0  0  0  0  0  0  0  0  0  0  0  0
   -7.4853   -3.1691   13.9645 O   0  0  0  0  0  0  0  0  0  0  0  0
   -5.0718   -3.6553   12.8024 C   0  0  0  0  0  0  0  0  0  0  0  0
   -4.5093   -2.3051   13.2740 C   0  0  0  0  0  0  0  0  0  0  0  0
   -3.8452   -2.4085   14.5766 N   0  0  0  0  0  0  0  0  0  0  0  0
   -4.8019   -2.6733   15.6705 C   0  0  0  0  0  0  0  0  0  0  0  0
   -5.4613   -4.0603   15.5733 C   0  0  0  0  0  0  0  0  0  0  0  0
   -2.5026   -2.1121   14.7721 C   0  0  0  0  0  0  0  0  0  0  0  0
   -1.7498   -2.8472   15.6821 C   0  0  0  0  0  0  0  0  0  0  0  0
   -0.3947   -2.5947   15.8318 C   0  0  0  0  0  0  0  0  0  0  0  0
    0.2287   -1.5788   15.1039 C   0  0  0  0  0  0  0  0  0  0  0  0
    1.6093   -1.3648   15.3339 N   0  0  0  0  0  0  0  0  0  0  0  0
    2.5318   -0.4383   14.7801 C   0  0  0  0  0  0  0  0  0  0  0  0
    2.1634    0.3921   13.7540 N   0  0  0  0  0  0  0  0  0  0  0  0
    3.0974    1.2392   13.2246 C   0  0  0  0  0  0  0  0  0  0  0  0
    4.4044    1.2817   13.6944 C   0  0  0  0  0  0  0  0  0  0  0  0
    4.7423    0.4925   14.7592 N   0  0  0  0  0  0  0  0  0  0  0  0
    5.8954    0.3870   15.4778 C   0  0  0  0  0  0  0  0  0  0  0  0
    5.5990   -0.5412   16.5094 C   0  0  0  0  0  0  0  0  0  0  0  0
    4.3871   -1.0534   16.3565 N   0  0  0  0  0  0  0  0  0  0  0  0
    3.8359   -0.3945   15.3234 C   0  0  0  0  0  0  0  0  0  0  0  0
    2.6253    2.1534   12.1201 C   0  0  0  0  0  0  0  0  0  0  0  0
    3.5412    2.6427   11.1681 C   0  0  0  0  0  0  0  0  0  0  0  0
    3.1527    3.4644   10.1100 C   0  0  0  0  0  0  0  0  0  0  0  0
    1.8061    3.8184   10.0146 C   0  0  0  0  0  0  0  0  0  0  0  0
    0.9967    4.6031    9.1196 C   0  0  0  0  0  0  0  0  0  0  0  0
   -0.2439    4.6096    9.5190 N   0  0  0  0  0  0  0  0  0  0  0  0
   -0.3333    3.8812   10.6311 N   0  0  0  0  0  0  0  0  0  0  0  0
    0.8847    3.3487   10.9898 C   0  0  3  0  0  0  0  0  0  0  0  0
    1.2610    2.5149   12.0531 C   0  0  0  0  0  0  0  0  0  0  0  0
   -0.5302   -0.8124   14.2060 C   0  0  0  0  0  0  0  0  0  0  0  0
   -1.8875   -1.0872   14.0350 C   0  0  0  0  0  0  0  0  0  0  0  0
   -4.2696   -4.4079   12.7930 H   0  0  0  0  0  0  0  0  0  0  0  0
   -5.4876   -3.5500   11.7895 H   0  0  0  0  0  0  0  0  0  0  0  0
   -3.7809   -1.9459   12.5321 H   0  0  0  0  0  0  0  0  0  0  0  0
   -5.3368   -1.5847   13.3540 H   0  0  0  0  0  0  0  0  0  0  0  0
   -4.2654   -2.6071   16.6285 H   0  0  0  0  0  0  0  0  0  0  0  0
   -5.5909   -1.9075   15.6385 H   0  0  0  0  0  0  0  0  0  0  0  0
   -6.1485   -4.2002   16.4208 H   0  0  0  0  0  0  0  0  0  0  0  0
   -4.6844   -4.8386   15.5989 H   0  0  0  0  0  0  0  0  0  0  0  0
   -2.2224   -3.6171   16.2739 H   0  0  0  0  0  0  0  0  0  0  0  0
    0.1860   -3.1911   16.5199 H   0  0  0  0  0  0  0  0  0  0  0  0
    2.0091   -1.9808   16.0127 H   0  0  0  0  0  0  0  0  0  0  0  0
    5.1375    1.9239   13.2289 H   0  0  0  0  0  0  0  0  0  0  0  0
    6.8303    0.8980   15.3009 H   0  0  0  0  0  0  0  0  0  0  0  0
    6.2731   -0.7965   17.3137 H   0  0  0  0  0  0  0  0  0  0  0  0
    4.5825    2.3716   11.2609 H   0  0  0  0  0  0  0  0  0  0  0  0
    3.8727    3.8163    9.3860 H   0  0  0  0  0  0  0  0  0  0  0  0
    1.3650    5.1137    8.2421 H   0  0  0  0  0  0  0  0  0  0  0  0
    1.0895    4.2335   11.6104 H   0  0  0  0  0  0  0  0  0  0  0  0
    0.5449    2.1672   12.7829 H   0  0  0  0  0  0  0  0  0  0  0  0
   -0.0651   -0.0124   13.6491 H   0  0  0  0  0  0  0  0  0  0  0  0
   -2.4682   -0.5085   13.3319 H   0  0  0  0  0  0  0  0  0  0  0  0
  1  2  2  0  0  0  0
  2  3  2  0  0  0  0
  2  4  1  0  0  0  0
  2  8  1  0  0  0  0
  4  5  1  0  0  0  0
  5  6  1  0  0  0  0
  6  7  1  0  0  0  0
  6  9  1  0  0  0  0
  7  8  1  0  0  0  0
  9 10  2  0  0  0  0
  9 33  1  0  0  0  0
 10 11  1  0  0  0  0
 11 12  2  0  0  0  0
 12 13  1  0  0  0  0
 12 32  1  0  0  0  0
 13 14  1  0  0  0  0
 14 15  2  0  0  0  0
 14 22  1  0  0  0  0
 15 16  1  0  0  0  0
 16 17  2  0  0  0  0
 16 23  1  0  0  0  0
 17 18  1  0  0  0  0
 18 19  1  0  0  0  0
 18 22  1  0  0  0  0
 19 20  2  0  0  0  0
 20 21  1  0  0  0  0
 21 22  2  0  0  0  0
 23 24  1  0  0  0  0
 23 31  2  0  0  0  0
 24 25  2  0  0  0  0
 25 26  1  0  0  0  0
 26 27  2  0  0  0  0
 26 30  1  0  0  0  0
 27 28  1  0  0  0  0
 28 29  2  0  0  0  0
 29 30  1  0  0  0  0
 30 31  1  0  0  0  0
 32 33  2  0  0  0  0
  4 34  1  0  0  0  0
  4 35  1  0  0  0  0
  5 36  1  0  0  0  0
  5 37  1  0  0  0  0
  7 38  1  0  0  0  0
  7 39  1  0  0  0  0
  8 40  1  0  0  0  0
  8 41  1  0  0  0  0
 10 42  1  0  0  0  0
 11 43  1  0  0  0  0
 13 44  1  0  0  0  0
 17 45  1  0  0  0  0
 19 46  1  0  0  0  0
 20 47  1  0  0  0  0
 24 48  1  0  0  0  0
 25 49  1  0  0  0  0
 27 50  1  0  0  0  0
 30 51  1  0  0  0  0
 31 52  1  0  0  0  0
 32 53  1  0  0  0  0
 33 54  1  0  0  0  0
M  END
> <IC50[nM]>
2.1

$$$$
CHEMBL3265033
  -OEChem-05192314333D
 Structure written by MMmdl.
 54 59  0     0  0  0  0  0  0999 V2000
   -6.7377   -5.5954   13.7078 O   0  0  0  0  0  0  0  0  0  0  0  0
   -6.4109   -4.1827   13.9768 S   0  0  0  0  0  0  0  0  0  0  0  0
   -7.4853   -3.1691   13.9645 O   0  0  0  0  0  0  0  0  0  0  0  0
   -5.0718   -3.6553   12.8024 C   0  0  0  0  0  0  0  0  0  0  0  0
   -4.5093   -2.3051   13.2740 C   0  0  0  0  0  0  0  0  0  0  0  0
   -3.8452   -2.4085   14.5766 N   0  0  0  0  0  0  0  0  0  0  0  0
   -4.8019   -2.6733   15.6705 C   0  0  0  0  0  0  0  0  0  0  0  0
   -5.4613   -4.0603   15.5733 C   0  0  0  0  0  0  0  0  0  0  0  0
   -2.5026   -2.1121   14.7721 C   0  0  0  0  0  0  0  0  0  0  0  0
   -1.7498   -2.8472   15.6821 C   0  0  0  0  0  0  0  0  0  0  0  0
   -0.3947   -2.5947   15.8318 C   0  0  0  0  0  0  0  0  0  0  0  0
    0.2287   -1.5788   15.1039 C   0  0  0  0  0  0  0  0  0  0  0  0
    1.6093   -1.3648   15.3339 N   0  0  0  0  0  0  0  0  0  0  0  0
    2.5318   -0.4383   14.7801 C   0  0  0  0  0  0  0  0  0  0  0  0
    2.1634    0.3921   13.7540 N   0  0  0  0  0  0  0  0  0  0  0  0
    3.0974    1.2392   13.2246 C   0  0  0  0  0  0  0  0  0  0  0  0
    4.4044    1.2817   13.6944 C   0  0  0  0  0  0  0  0  0  0  0  0
    4.7423    0.4925   14.7592 N   0  0  0  0  0  0  0  0  0  0  0  0
    5.8954    0.3870   15.4778 C   0  0  0  0  0  0  0  0  0  0  0  0
    5.5990   -0.5412   16.5094 C   0  0  0  0  0  0  0  0  0  0  0  0
    4.3871   -1.0534   16.3565 N   0  0  0  0  0  0  0  0  0  0  0  0
    3.8359   -0.3945   15.3234 C   0  0  0  0  0  0  0  0  0  0  0  0
    2.6253    2.1534   12.1201 C   0  0  0  0  0  0  0  0  0  0  0  0
    3.5412    2.6427   11.1681 C   0  0  0  0  0  0  0  0  0  0  0  0
    3.1527    3.4644   10.1100 C   0  0  0  0  0  0  0  0  0  0  0  0
    1.8061    3.8184   10.0146 C   0  0  0  0  0  0  0  0  0  0  0  0
    0.9967    4.6031    9.1196 C   0  0  0  0  0  0  0  0  0  0  0  0
   -0.2439    4.6096    9.5190 N   0  0  0  0  0  0  0  0  0  0  0  0
   -0.3333    3.8812   10.6311 N   0  0  0  0  0  0  0  0  0  0  0  0
    0.8847    3.3487   10.9898 C   0  0  0  0  0  0  0  0  0  0  0  0
    1.2610    2.5149   12.0531 C   0  0  0  0  0  0  0  0  0  0  0  0
   -0.5302   -0.8124   14.2060 C   0  0  0  0  0  0  0  0  0  0  0  0
   -1.8875   -1.0872   14.0350 C   0  0  0  0  0  0  0  0  0  0  0  0
   -4.2696   -4.4079   12.7930 H   0  0  0  0  0  0  0  0  0  0  0  0
   -5.4876   -3.5500   11.7895 H   0  0  0  0  0  0  0  0  0  0  0  0
   -3.7809   -1.9459   12.5321 H   0  0  0  0  0  0  0  0  0  0  0  0
   -5.3368   -1.5847   13.3540 H   0  0  0  0  0  0  0  0  0  0  0  0
   -4.2654   -2.6071   16.6285 H   0  0  0  0  0  0  0  0  0  0  0  0
   -5.5909   -1.9075   15.6385 H   0  0  0  0  0  0  0  0  0  0  0  0
   -6.1485   -4.2002   16.4208 H   0  0  0  0  0  0  0  0  0  0  0  0
   -4.6844   -4.8386   15.5989 H   0  0  0  0  0  0  0  0  0  0  0  0
   -2.2224   -3.6171   16.2739 H   0  0  0  0  0  0  0  0  0  0  0  0
    0.1860   -3.1911   16.5199 H   0  0  0  0  0  0  0  0  0  0  0  0
    2.0091   -1.9808   16.0127 H   0  0  0  0  0  0  0  0  0  0  0  0
    5.1375    1.9239   13.2289 H   0  0  0  0  0  0  0  0  0  0  0  0
    6.8303    0.8980   15.3009 H   0  0  0  0  0  0  0  0  0  0  0  0
    6.2731   -0.7965   17.3137 H   0  0  0  0  0  0  0  0  0  0  0  0
    4.5825    2.3716   11.2609 H   0  0  0  0  0  0  0  0  0  0  0  0
    3.7309    4.3967   10.1907 H   0  0  0  0  0  0  0  0  0  0  0  0
    3.4213    2.9459    9.1778 H   0  0  0  0  0  0  0  0  0  0  0  0
    1.3650    5.1137    8.2421 H   0  0  0  0  0  0  0  0  0  0  0  0
    0.5449    2.1672   12.7829 H   0  0  0  0  0  0  0  0  0  0  0  0
   -0.0651   -0.0124   13.6491 H   0  0  0  0  0  0  0  0  0  0  0  0
   -2.4682   -0.5085   13.3319 H   0  0  0  0  0  0  0  0  0  0  0  0
  1  2  2  0  0  0  0
  2  3  2  0  0  0  0
  2  4  1  0  0  0  0
  2  8  1  0  0  0  0
  4  5  1  0  0  0  0
  5  6  1  0  0  0  0
  6  7  1  0  0  0  0
  6  9  1  0  0  0  0
  7  8  1  0  0  0  0
  9 10  2  0  0  0  0
  9 33  1  0  0  0  0
 10 11  1  0  0  0  0
 11 12  2  0  0  0  0
 12 13  1  0  0  0  0
 12 32  1  0  0  0  0
 13 14  1  0  0  0  0
 14 15  2  0  0  0  0
 14 22  1  0  0  0  0
 15 16  1  0  0  0  0
 16 17  2  0  0  0  0
 16 23  1  0  0  0  0
 17 18  1  0  0  0  0
 18 19  1  0  0  0  0
 18 22  1  0  0  0  0
 19 20  2  0  0  0  0
 20 21  1  0  0  0  0
 21 22  2  0  0  0  0
 23 24  2  0  0  0  0
 23 31  1  0  0  0  0
 24 25  1  0  0  0  0
 25 26  1  0  0  0  0
 26 27  2  0  0  0  0
 26 30  1  0  0  0  0
 27 28  1  0  0  0  0
 28 29  2  0  0  0  0
 29 30  1  0  0  0  0
 30 31  2  0  0  0  0
 32 33  2  0  0  0  0
  4 34  1  0  0  0  0
  4 35  1  0  0  0  0
  5 36  1  0  0  0  0
  5 37  1  0  0  0  0
  7 38  1  0  0  0  0
  7 39  1  0  0  0  0
  8 40  1  0  0  0  0
  8 41  1  0  0  0  0
 10 42  1  0  0  0  0
 11 43  1  0  0  0  0
 13 44  1  0  0  0  0
 17 45  1  0  0  0  0
 19 46  1  0  0  0  0
 20 47  1  0  0  0  0
 24 48  1  0  0  0  0
 25 49  1  0  0  0  0
 25 50  1  0  0  0  0
 27 51  1  0  0  0  0
 31 52  1  0  0  0  0
 32 53  1  0  0  0  0
 33 54  1  0  0  0  0
M  END
> <IC50[nM]>
2.1

$$$$
CHEMBL3265033
  -OEChem-05192314333D
 Structure written by MMmdl.
 54 59  0     1  0  0  0  0  0999 V2000
   -6.7377   -5.5954   13.7078 O   0  0  0  0  0  0  0  0  0  0  0  0
   -6.4109   -4.1827   13.9768 S   0  0  0  0  0  0  0  0  0  0  0  0
   -7.4853   -3.1691   13.9645 O   0  0  0  0  0  0  0  0  0  0  0  0
   -5.0718   -3.6553   12.8024 C   0  0  0  0  0  0  0  0  0  0  0  0
   -4.5093   -2.3051   13.2740 C   0  0  0  0  0  0  0  0  0  0  0  0
   -3.8452   -2.4085   14.5766 N   0  0  0  0  0  0  0  0  0  0  0  0
   -4.8019   -2.6733   15.6705 C   0  0  0  0  0  0  0  0  0  0  0  0
   -5.4613   -4.0603   15.5733 C   0  0  0  0  0  0  0  0  0  0  0  0
   -2.5026   -2.1121   14.7721 C   0  0  0  0  0  0  0  0  0  0  0  0
   -1.7498   -2.8472   15.6821 C   0  0  0  0  0  0  0  0  0  0  0  0
   -0.3947   -2.5947   15.8318 C   0  0  0  0  0  0  0  0  0  0  0  0
    0.2287   -1.5788   15.1039 C   0  0  0  0  0  0  0  0  0  0  0  0
    1.6093   -1.3648   15.3339 N   0  0  0  0  0  0  0  0  0  0  0  0
    2.5318   -0.4383   14.7801 C   0  0  0  0  0  0  0  0  0  0  0  0
    2.1634    0.3921   13.7540 N   0  0  0  0  0  0  0  0  0  0  0  0
    3.0974    1.2392   13.2246 C   0  0  0  0  0  0  0  0  0  0  0  0
    4.4044    1.2817   13.6944 C   0  0  0  0  0  0  0  0  0  0  0  0
    4.7423    0.4925   14.7592 N   0  0  0  0  0  0  0  0  0  0  0  0
    5.8954    0.3870   15.4778 C   0  0  0  0  0  0  0  0  0  0  0  0
    5.5990   -0.5412   16.5094 C   0  0  0  0  0  0  0  0  0  0  0  0
    4.3871   -1.0534   16.3565 N   0  0  0  0  0  0  0  0  0  0  0  0
    3.8359   -0.3945   15.3234 C   0  0  0  0  0  0  0  0  0  0  0  0
    2.6253    2.1534   12.1201 C   0  0  0  0  0  0  0  0  0  0  0  0
    3.5412    2.6427   11.1681 C   0  0  0  0  0  0  0  0  0  0  0  0
    3.1527    3.4644   10.1100 C   0  0  0  0  0  0  0  0  0  0  0  0
    1.8061    3.8184   10.0146 C   0  0  3  0  0  0  0  0  0  0  0  0
    0.9967    4.6031    9.1196 C   0  0  0  0  0  0  0  0  0  0  0  0
   -0.2439    4.6096    9.5190 N   0  0  0  0  0  0  0  0  0  0  0  0
   -0.3333    3.8812   10.6311 N   0  0  0  0  0  0  0  0  0  0  0  0
    0.8847    3.3487   10.9898 C   0  0  0  0  0  0  0  0  0  0  0  0
    1.2610    2.5149   12.0531 C   0  0  0  0  0  0  0  0  0  0  0  0
   -0.5302   -0.8124   14.2060 C   0  0  0  0  0  0  0  0  0  0  0  0
   -1.8875   -1.0872   14.0350 C   0  0  0  0  0  0  0  0  0  0  0  0
   -4.2696   -4.4079   12.7930 H   0  0  0  0  0  0  0  0  0  0  0  0
   -5.4876   -3.5500   11.7895 H   0  0  0  0  0  0  0  0  0  0  0  0
   -3.7809   -1.9459   12.5321 H   0  0  0  0  0  0  0  0  0  0  0  0
   -5.3368   -1.5847   13.3540 H   0  0  0  0  0  0  0  0  0  0  0  0
   -4.2654   -2.6071   16.6285 H   0  0  0  0  0  0  0  0  0  0  0  0
   -5.5909   -1.9075   15.6385 H   0  0  0  0  0  0  0  0  0  0  0  0
   -6.1485   -4.2002   16.4208 H   0  0  0  0  0  0  0  0  0  0  0  0
   -4.6844   -4.8386   15.5989 H   0  0  0  0  0  0  0  0  0  0  0  0
   -2.2224   -3.6171   16.2739 H   0  0  0  0  0  0  0  0  0  0  0  0
    0.1860   -3.1911   16.5199 H   0  0  0  0  0  0  0  0  0  0  0  0
    1.2287    0.3788   13.3989 H   0  0  0  0  0  0  0  0  0  0  0  0
    5.1375    1.9239   13.2289 H   0  0  0  0  0  0  0  0  0  0  0  0
    6.8303    0.8980   15.3009 H   0  0  0  0  0  0  0  0  0  0  0  0
    6.2731   -0.7965   17.3137 H   0  0  0  0  0  0  0  0  0  0  0  0
    4.5825    2.3716   11.2609 H   0  0  0  0  0  0  0  0  0  0  0  0
    3.8727    3.8163    9.3860 H   0  0  0  0  0  0  0  0  0  0  0  0
    1.9976    4.7126   10.6259 H   0  0  0  0  0  0  0  0  0  0  0  0
    1.3650    5.1137    8.2421 H   0  0  0  0  0  0  0  0  0  0  0  0
    0.5449    2.1672   12.7829 H   0  0  0  0  0  0  0  0  0  0  0  0
   -0.0651   -0.0124   13.6491 H   0  0  0  0  0  0  0  0  0  0  0  0
   -2.4682   -0.5085   13.3319 H   0  0  0  0  0  0  0  0  0  0  0  0
  1  2  2  0  0  0  0
  2  3  2  0  0  0  0
  2  4  1  0  0  0  0
  2  8  1  0  0  0  0
  4  5  1  0  0  0  0
  5  6  1  0  0  0  0
  6  7  1  0  0  0  0
  6  9  1  0  0  0  0
  7  8  1  0  0  0  0
  9 10  2  0  0  0  0
  9 33  1  0  0  0  0
 10 11  1  0  0  0  0
 11 12  2  0  0  0  0
 12 13  1  0  0  0  0
 12 32  1  0  0  0  0
 13 14  2  0  0  0  0
 14 15  1  0  0  0  0
 14 22  1  0  0  0  0
 15 16  1  0  0  0  0
 16 17  2  0  0  0  0
 16 23  1  0  0  0  0
 17 18  1  0  0  0  0
 18 19  1  0  0  0  0
 18 22  1  0  0  0  0
 19 20  2  0  0  0  0
 20 21  1  0  0  0  0
 21 22  2  0  0  0  0
 23 24  1  0  0  0  0
 23 31  2  0  0  0  0
 24 25  2  0  0  0  0
 25 26  1  0  0  0  0
 26 27  1  0  0  0  0
 26 30  1  0  0  0  0
 27 28  2  0  0  0  0
 28 29  1  0  0  0  0
 29 30  2  0  0  0  0
 30 31  1  0  0  0  0
 32 33  2  0  0  0  0
  4 34  1  0  0  0  0
  4 35  1  0  0  0  0
  5 36  1  0  0  0  0
  5 37  1  0  0  0  0
  7 38  1  0  0  0  0
  7 39  1  0  0  0  0
  8 40  1  0  0  0  0
  8 41  1  0  0  0  0
 10 42  1  0  0  0  0
 11 43  1  0  0  0  0
 15 44  1  0  0  0  0
 17 45  1  0  0  0  0
 19 46  1  0  0  0  0
 20 47  1  0  0  0  0
 24 48  1  0  0  0  0
 25 49  1  0  0  0  0
 26 50  1  0  0  0  0
 27 51  1  0  0  0  0
 31 52  1  0  0  0  0
 32 53  1  0  0  0  0
 33 54  1  0  0  0  0
M  END
> <IC50[nM]>
2.1

$$$$
CHEMBL3265033
  -OEChem-05192314333D
 Structure written by MMmdl.
 54 59  0     0  0  0  0  0  0999 V2000
   -6.7377   -5.5954   13.7078 O   0  0  0  0  0  0  0  0  0  0  0  0
   -6.4109   -4.1827   13.9768 S   0  0  0  0  0  0  0  0  0  0  0  0
   -7.4853   -3.1691   13.9645 O   0  0  0  0  0  0  0  0  0  0  0  0
   -5.0718   -3.6553   12.8024 C   0  0  0  0  0  0  0  0  0  0  0  0
   -4.5093   -2.3051   13.2740 C   0  0  0  0  0  0  0  0  0  0  0  0
   -3.8452   -2.4085   14.5766 N   0  0  0  0  0  0  0  0  0  0  0  0
   -4.8019   -2.6733   15.6705 C   0  0  0  0  0  0  0  0  0  0  0  0
   -5.4613   -4.0603   15.5733 C   0  0  0  0  0  0  0  0  0  0  0  0
   -2.5026   -2.1121   14.7721 C   0  0  0  0  0  0  0  0  0  0  0  0
   -1.7498   -2.8472   15.6821 C   0  0  0  0  0  0  0  0  0  0  0  0
   -0.3947   -2.5947   15.8318 C   0  0  0  0  0  0  0  0  0  0  0  0
    0.2287   -1.5788   15.1039 C   0  0  0  0  0  0  0  0  0  0  0  0
    1.6093   -1.3648   15.3339 N   0  0  0  0  0  0  0  0  0  0  0  0
    2.5318   -0.4383   14.7801 C   0  0  0  0  0  0  0  0  0  0  0  0
    2.1634    0.3921   13.7540 N   0  0  0  0  0  0  0  0  0  0  0  0
    3.0974    1.2392   13.2246 C   0  0  0  0  0  0  0  0  0  0  0  0
    4.4044    1.2817   13.6944 C   0  0  0  0  0  0  0  0  0  0  0  0
    4.7423    0.4925   14.7592 N   0  0  0  0  0  0  0  0  0  0  0  0
    5.8954    0.3870   15.4778 C   0  0  0  0  0  0  0  0  0  0  0  0
    5.5990   -0.5412   16.5094 C   0  0  0  0  0  0  0  0  0  0  0  0
    4.3871   -1.0534   16.3565 N   0  0  0  0  0  0  0  0  0  0  0  0
    3.8359   -0.3945   15.3234 C   0  0  0  0  0  0  0  0  0  0  0  0
    2.6253    2.1534   12.1201 C   0  0  0  0  0  0  0  0  0  0  0  0
    3.5412    2.6427   11.1681 C   0  0  0  0  0  0  0  0  0  0  0  0
    3.1527    3.4644   10.1100 C   0  0  0  0  0  0  0  0  0  0  0  0
    1.8061    3.8184   10.0146 C   0  0  0  0  0  0  0  0  0  0  0  0
    0.9967    4.6031    9.1196 C   0  0  0  0  0  0  0  0  0  0  0  0
   -0.2439    4.6096    9.5190 N   0  0  0  0  0  0  0  0  0  0  0  0
   -0.3333    3.8812   10.6311 N   0  0  0  0  0  0  0  0  0  0  0  0
    0.8847    3.3487   10.9898 C   0  0  0  0  0  0  0  0  0  0  0  0
    1.2610    2.5149   12.0531 C   0  0  0  0  0  0  0  0  0  0  0  0
   -0.5302   -0.8124   14.2060 C   0  0  0  0  0  0  0  0  0  0  0  0
   -1.8875   -1.0872   14.0350 C   0  0  0  0  0  0  0  0  0  0  0  0
   -4.2696   -4.4079   12.7930 H   0  0  0  0  0  0  0  0  0  0  0  0
   -5.4876   -3.5500   11.7895 H   0  0  0  0  0  0  0  0  0  0  0  0
   -3.7809   -1.9459   12.5321 H   0  0  0  0  0  0  0  0  0  0  0  0
   -5.3368   -1.5847   13.3540 H   0  0  0  0  0  0  0  0  0  0  0  0
   -4.2654   -2.6071   16.6285 H   0  0  0  0  0  0  0  0  0  0  0  0
   -5.5909   -1.9075   15.6385 H   0  0  0  0  0  0  0  0  0  0  0  0
   -6.1485   -4.2002   16.4208 H   0  0  0  0  0  0  0  0  0  0  0  0
   -4.6844   -4.8386   15.5989 H   0  0  0  0  0  0  0  0  0  0  0  0
   -2.2224   -3.6171   16.2739 H   0  0  0  0  0  0  0  0  0  0  0  0
    0.1860   -3.1911   16.5199 H   0  0  0  0  0  0  0  0  0  0  0  0
    1.2287    0.3788   13.3989 H   0  0  0  0  0  0  0  0  0  0  0  0
    5.1375    1.9239   13.2289 H   0  0  0  0  0  0  0  0  0  0  0  0
    6.8303    0.8980   15.3009 H   0  0  0  0  0  0  0  0  0  0  0  0
    6.2731   -0.7965   17.3137 H   0  0  0  0  0  0  0  0  0  0  0  0
    4.2968    3.2083   11.7331 H   0  0  0  0  0  0  0  0  0  0  0  0
    4.0103    1.7583   10.7123 H   0  0  0  0  0  0  0  0  0  0  0  0
    3.8727    3.8163    9.3860 H   0  0  0  0  0  0  0  0  0  0  0  0
    1.3650    5.1137    8.2421 H   0  0  0  0  0  0  0  0  0  0  0  0
    0.5449    2.1672   12.7829 H   0  0  0  0  0  0  0  0  0  0  0  0
   -0.0651   -0.0124   13.6491 H   0  0  0  0  0  0  0  0  0  0  0  0
   -2.4682   -0.5085   13.3319 H   0  0  0  0  0  0  0  0  0  0  0  0
  1  2  2  0  0  0  0
  2  3  2  0  0  0  0
  2  4  1  0  0  0  0
  2  8  1  0  0  0  0
  4  5  1  0  0  0  0
  5  6  1  0  0  0  0
  6  7  1  0  0  0  0
  6  9  1  0  0  0  0
  7  8  1  0  0  0  0
  9 10  2  0  0  0  0
  9 33  1  0  0  0  0
 10 11  1  0  0  0  0
 11 12  2  0  0  0  0
 12 13  1  0  0  0  0
 12 32  1  0  0  0  0
 13 14  2  0  0  0  0
 14 15  1  0  0  0  0
 14 22  1  0  0  0  0
 15 16  1  0  0  0  0
 16 17  2  0  0  0  0
 16 23  1  0  0  0  0
 17 18  1  0  0  0  0
 18 19  1  0  0  0  0
 18 22  1  0  0  0  0
 19 20  2  0  0  0  0
 20 21  1  0  0  0  0
 21 22  2  0  0  0  0
 23 24  1  0  0  0  0
 23 31  2  0  0  0  0
 24 25  1  0  0  0  0
 25 26  2  0  0  0  0
 26 27  1  0  0  0  0
 26 30  1  0  0  0  0
 27 28  2  0  0  0  0
 28 29  1  0  0  0  0
 29 30  2  0  0  0  0
 30 31  1  0  0  0  0
 32 33  2  0  0  0  0
  4 34  1  0  0  0  0
  4 35  1  0  0  0  0
  5 36  1  0  0  0  0
  5 37  1  0  0  0  0
  7 38  1  0  0  0  0
  7 39  1  0  0  0  0
  8 40  1  0  0  0  0
  8 41  1  0  0  0  0
 10 42  1  0  0  0  0
 11 43  1  0  0  0  0
 15 44  1  0  0  0  0
 17 45  1  0  0  0  0
 19 46  1  0  0  0  0
 20 47  1  0  0  0  0
 24 48  1  0  0  0  0
 24 49  1  0  0  0  0
 25 50  1  0  0  0  0
 27 51  1  0  0  0  0
 31 52  1  0  0  0  0
 32 53  1  0  0  0  0
 33 54  1  0  0  0  0
M  END
> <IC50[nM]>
2.1

$$$$
CHEMBL3265033
  -OEChem-05192314333D
 Structure written by MMmdl.
 54 59  0     0  0  0  0  0  0999 V2000
   -6.7377   -5.5954   13.7078 O   0  0  0  0  0  0  0  0  0  0  0  0
   -6.4109   -4.1827   13.9768 S   0  0  0  0  0  0  0  0  0  0  0  0
   -7.4853   -3.1691   13.9645 O   0  0  0  0  0  0  0  0  0  0  0  0
   -5.0718   -3.6553   12.8024 C   0  0  0  0  0  0  0  0  0  0  0  0
   -4.5093   -2.3051   13.2740 C   0  0  0  0  0  0  0  0  0  0  0  0
   -3.8452   -2.4085   14.5766 N   0  0  0  0  0  0  0  0  0  0  0  0
   -4.8019   -2.6733   15.6705 C   0  0  0  0  0  0  0  0  0  0  0  0
   -5.4613   -4.0603   15.5733 C   0  0  0  0  0  0  0  0  0  0  0  0
   -2.5026   -2.1121   14.7721 C   0  0  0  0  0  0  0  0  0  0  0  0
   -1.7498   -2.8472   15.6821 C   0  0  0  0  0  0  0  0  0  0  0  0
   -0.3947   -2.5947   15.8318 C   0  0  0  0  0  0  0  0  0  0  0  0
    0.2287   -1.5788   15.1039 C   0  0  0  0  0  0  0  0  0  0  0  0
    1.6093   -1.3648   15.3339 N   0  0  0  0  0  0  0  0  0  0  0  0
    2.5318   -0.4383   14.7801 C   0  0  0  0  0  0  0  0  0  0  0  0
    2.1634    0.3921   13.7540 N   0  0  0  0  0  0  0  0  0  0  0  0
    3.0974    1.2392   13.2246 C   0  0  0  0  0  0  0  0  0  0  0  0
    4.4044    1.2817   13.6944 C   0  0  0  0  0  0  0  0  0  0  0  0
    4.7423    0.4925   14.7592 N   0  0  0  0  0  0  0  0  0  0  0  0
    5.8954    0.3870   15.4778 C   0  0  0  0  0  0  0  0  0  0  0  0
    5.5990   -0.5412   16.5094 C   0  0  0  0  0  0  0  0  0  0  0  0
    4.3871   -1.0534   16.3565 N   0  0  0  0  0  0  0  0  0  0  0  0
    3.8359   -0.3945   15.3234 C   0  0  0  0  0  0  0  0  0  0  0  0
    2.6253    2.1534   12.1201 C   0  0  0  0  0  0  0  0  0  0  0  0
    3.5412    2.6427   11.1681 C   0  0  0  0  0  0  0  0  0  0  0  0
    3.1527    3.4644   10.1100 C   0  0  0  0  0  0  0  0  0  0  0  0
    1.8061    3.8184   10.0146 C   0  0  0  0  0  0  0  0  0  0  0  0
    0.9967    4.6031    9.1196 C   0  0  0  0  0  0  0  0  0  0  0  0
   -0.2439    4.6096    9.5190 N   0  0  0  0  0  0  0  0  0  0  0  0
   -0.3333    3.8812   10.6311 N   0  0  0  0  0  0  0  0  0  0  0  0
    0.8847    3.3487   10.9898 C   0  0  0  0  0  0  0  0  0  0  0  0
    1.2610    2.5149   12.0531 C   0  0  0  0  0  0  0  0  0  0  0  0
   -0.5302   -0.8124   14.2060 C   0  0  0  0  0  0  0  0  0  0  0  0
   -1.8875   -1.0872   14.0350 C   0  0  0  0  0  0  0  0  0  0  0  0
   -4.2696   -4.4079   12.7930 H   0  0  0  0  0  0  0  0  0  0  0  0
   -5.4876   -3.5500   11.7895 H   0  0  0  0  0  0  0  0  0  0  0  0
   -3.7809   -1.9459   12.5321 H   0  0  0  0  0  0  0  0  0  0  0  0
   -5.3368   -1.5847   13.3540 H   0  0  0  0  0  0  0  0  0  0  0  0
   -4.2654   -2.6071   16.6285 H   0  0  0  0  0  0  0  0  0  0  0  0
   -5.5909   -1.9075   15.6385 H   0  0  0  0  0  0  0  0  0  0  0  0
   -6.1485   -4.2002   16.4208 H   0  0  0  0  0  0  0  0  0  0  0  0
   -4.6844   -4.8386   15.5989 H   0  0  0  0  0  0  0  0  0  0  0  0
   -2.2224   -3.6171   16.2739 H   0  0  0  0  0  0  0  0  0  0  0  0
    0.1860   -3.1911   16.5199 H   0  0  0  0  0  0  0  0  0  0  0  0
    1.2287    0.3788   13.3989 H   0  0  0  0  0  0  0  0  0  0  0  0
    5.1375    1.9239   13.2289 H   0  0  0  0  0  0  0  0  0  0  0  0
    6.8303    0.8980   15.3009 H   0  0  0  0  0  0  0  0  0  0  0  0
    6.2731   -0.7965   17.3137 H   0  0  0  0  0  0  0  0  0  0  0  0
    4.5825    2.3716   11.2609 H   0  0  0  0  0  0  0  0  0  0  0  0
    3.8727    3.8163    9.3860 H   0  0  0  0  0  0  0  0  0  0  0  0
    1.3650    5.1137    8.2421 H   0  0  0  0  0  0  0  0  0  0  0  0
    0.6735    1.5882   11.9749 H   0  0  0  0  0  0  0  0  0  0  0  0
    1.0063    3.0326   12.9897 H   0  0  0  0  0  0  0  0  0  0  0  0
   -0.0651   -0.0124   13.6491 H   0  0  0  0  0  0  0  0  0  0  0  0
   -2.4682   -0.5085   13.3319 H   0  0  0  0  0  0  0  0  0  0  0  0
  1  2  2  0  0  0  0
  2  3  2  0  0  0  0
  2  4  1  0  0  0  0
  2  8  1  0  0  0  0
  4  5  1  0  0  0  0
  5  6  1  0  0  0  0
  6  7  1  0  0  0  0
  6  9  1  0  0  0  0
  7  8  1  0  0  0  0
  9 10  2  0  0  0  0
  9 33  1  0  0  0  0
 10 11  1  0  0  0  0
 11 12  2  0  0  0  0
 12 13  1  0  0  0  0
 12 32  1  0  0  0  0
 13 14  2  0  0  0  0
 14 15  1  0  0  0  0
 14 22  1  0  0  0  0
 15 16  1  0  0  0  0
 16 17  2  0  0  0  0
 16 23  1  0  0  0  0
 17 18  1  0  0  0  0
 18 19  1  0  0  0  0
 18 22  1  0  0  0  0
 19 20  2  0  0  0  0
 20 21  1  0  0  0  0
 21 22  2  0  0  0  0
 23 24  2  0  0  0  0
 23 31  1  0  0  0  0
 24 25  1  0  0  0  0
 25 26  2  0  0  0  0
 26 27  1  0  0  0  0
 26 30  1  0  0  0  0
 27 28  2  0  0  0  0
 28 29  1  0  0  0  0
 29 30  2  0  0  0  0
 30 31  1  0  0  0  0
 32 33  2  0  0  0  0
  4 34  1  0  0  0  0
  4 35  1  0  0  0  0
  5 36  1  0  0  0  0
  5 37  1  0  0  0  0
  7 38  1  0  0  0  0
  7 39  1  0  0  0  0
  8 40  1  0  0  0  0
  8 41  1  0  0  0  0
 10 42  1  0  0  0  0
 11 43  1  0  0  0  0
 15 44  1  0  0  0  0
 17 45  1  0  0  0  0
 19 46  1  0  0  0  0
 20 47  1  0  0  0  0
 24 48  1  0  0  0  0
 25 49  1  0  0  0  0
 27 50  1  0  0  0  0
 31 51  1  0  0  0  0
 31 52  1  0  0  0  0
 32 53  1  0  0  0  0
 33 54  1  0  0  0  0
M  END
> <IC50[nM]>
2.1

$$$$
CHEMBL3265033
  -OEChem-05192314333D
 Structure written by MMmdl.
 54 59  0     1  0  0  0  0  0999 V2000
   -6.7377   -5.5954   13.7078 O   0  0  0  0  0  0  0  0  0  0  0  0
   -6.4109   -4.1827   13.9768 S   0  0  0  0  0  0  0  0  0  0  0  0
   -7.4853   -3.1691   13.9645 O   0  0  0  0  0  0  0  0  0  0  0  0
   -5.0718   -3.6553   12.8024 C   0  0  0  0  0  0  0  0  0  0  0  0
   -4.5093   -2.3051   13.2740 C   0  0  0  0  0  0  0  0  0  0  0  0
   -3.8452   -2.4085   14.5766 N   0  0  0  0  0  0  0  0  0  0  0  0
   -4.8019   -2.6733   15.6705 C   0  0  0  0  0  0  0  0  0  0  0  0
   -5.4613   -4.0603   15.5733 C   0  0  0  0  0  0  0  0  0  0  0  0
   -2.5026   -2.1121   14.7721 C   0  0  0  0  0  0  0  0  0  0  0  0
   -1.7498   -2.8472   15.6821 C   0  0  0  0  0  0  0  0  0  0  0  0
   -0.3947   -2.5947   15.8318 C   0  0  0  0  0  0  0  0  0  0  0  0
    0.2287   -1.5788   15.1039 C   0  0  0  0  0  0  0  0  0  0  0  0
    1.6093   -1.3648   15.3339 N   0  0  0  0  0  0  0  0  0  0  0  0
    2.5318   -0.4383   14.7801 C   0  0  0  0  0  0  0  0  0  0  0  0
    2.1634    0.3921   13.7540 N   0  0  0  0  0  0  0  0  0  0  0  0
    3.0974    1.2392   13.2246 C   0  0  0  0  0  0  0  0  0  0  0  0
    4.4044    1.2817   13.6944 C   0  0  0  0  0  0  0  0  0  0  0  0
    4.7423    0.4925   14.7592 N   0  0  0  0  0  0  0  0  0  0  0  0
    5.8954    0.3870   15.4778 C   0  0  0  0  0  0  0  0  0  0  0  0
    5.5990   -0.5412   16.5094 C   0  0  0  0  0  0  0  0  0  0  0  0
    4.3871   -1.0534   16.3565 N   0  0  0  0  0  0  0  0  0  0  0  0
    3.8359   -0.3945   15.3234 C   0  0  0  0  0  0  0  0  0  0  0  0
    2.6253    2.1534   12.1201 C   0  0  3  0  0  0  0  0  0  0  0  0
    3.5412    2.6427   11.1681 C   0  0  0  0  0  0  0  0  0  0  0  0
    3.1527    3.4644   10.1100 C   0  0  0  0  0  0  0  0  0  0  0  0
    1.8061    3.8184   10.0146 C   0  0  0  0  0  0  0  0  0  0  0  0
    0.9967    4.6031    9.1196 C   0  0  0  0  0  0  0  0  0  0  0  0
   -0.2439    4.6096    9.5190 N   0  0  0  0  0  0  0  0  0  0  0  0
   -0.3333    3.8812   10.6311 N   0  0  0  0  0  0  0  0  0  0  0  0
    0.8847    3.3487   10.9898 C   0  0  0  0  0  0  0  0  0  0  0  0
    1.2610    2.5149   12.0531 C   0  0  0  0  0  0  0  0  0  0  0  0
   -0.5302   -0.8124   14.2060 C   0  0  0  0  0  0  0  0  0  0  0  0
   -1.8875   -1.0872   14.0350 C   0  0  0  0  0  0  0  0  0  0  0  0
   -4.2696   -4.4079   12.7930 H   0  0  0  0  0  0  0  0  0  0  0  0
   -5.4876   -3.5500   11.7895 H   0  0  0  0  0  0  0  0  0  0  0  0
   -3.7809   -1.9459   12.5321 H   0  0  0  0  0  0  0  0  0  0  0  0
   -5.3368   -1.5847   13.3540 H   0  0  0  0  0  0  0  0  0  0  0  0
   -4.2654   -2.6071   16.6285 H   0  0  0  0  0  0  0  0  0  0  0  0
   -5.5909   -1.9075   15.6385 H   0  0  0  0  0  0  0  0  0  0  0  0
   -6.1485   -4.2002   16.4208 H   0  0  0  0  0  0  0  0  0  0  0  0
   -4.6844   -4.8386   15.5989 H   0  0  0  0  0  0  0  0  0  0  0  0
   -2.2224   -3.6171   16.2739 H   0  0  0  0  0  0  0  0  0  0  0  0
    0.1860   -3.1911   16.5199 H   0  0  0  0  0  0  0  0  0  0  0  0
    1.2287    0.3788   13.3989 H   0  0  0  0  0  0  0  0  0  0  0  0
    5.1375    1.9239   13.2289 H   0  0  0  0  0  0  0  0  0  0  0  0
    6.8303    0.8980   15.3009 H   0  0  0  0  0  0  0  0  0  0  0  0
    6.2731   -0.7965   17.3137 H   0  0  0  0  0  0  0  0  0  0  0  0
    2.4263    1.2803   11.4813 H   0  0  0  0  0  0  0  0  0  0  0  0
    4.5825    2.3716   11.2609 H   0  0  0  0  0  0  0  0  0  0  0  0
    3.8727    3.8163    9.3860 H   0  0  0  0  0  0  0  0  0  0  0  0
    1.3650    5.1137    8.2421 H   0  0  0  0  0  0  0  0  0  0  0  0
    0.5449    2.1672   12.7829 H   0  0  0  0  0  0  0  0  0  0  0  0
   -0.0651   -0.0124   13.6491 H   0  0  0  0  0  0  0  0  0  0  0  0
   -2.4682   -0.5085   13.3319 H   0  0  0  0  0  0  0  0  0  0  0  0
  1  2  2  0  0  0  0
  2  3  2  0  0  0  0
  2  4  1  0  0  0  0
  2  8  1  0  0  0  0
  4  5  1  0  0  0  0
  5  6  1  0  0  0  0
  6  7  1  0  0  0  0
  6  9  1  0  0  0  0
  7  8  1  0  0  0  0
  9 10  2  0  0  0  0
  9 33  1  0  0  0  0
 10 11  1  0  0  0  0
 11 12  2  0  0  0  0
 12 13  1  0  0  0  0
 12 32  1  0  0  0  0
 13 14  2  0  0  0  0
 14 15  1  0  0  0  0
 14 22  1  0  0  0  0
 15 16  1  0  0  0  0
 16 17  2  0  0  0  0
 16 23  1  0  0  0  0
 17 18  1  0  0  0  0
 18 19  1  0  0  0  0
 18 22  1  0  0  0  0
 19 20  2  0  0  0  0
 20 21  1  0  0  0  0
 21 22  2  0  0  0  0
 23 24  1  0  0  0  0
 23 31  1  0  0  0  0
 24 25  2  0  0  0  0
 25 26  1  0  0  0  0
 26 27  2  0  0  0  0
 26 30  1  0  0  0  0
 27 28  1  0  0  0  0
 28 29  2  0  0  0  0
 29 30  1  0  0  0  0
 30 31  2  0  0  0  0
 32 33  2  0  0  0  0
  4 34  1  0  0  0  0
  4 35  1  0  0  0  0
  5 36  1  0  0  0  0
  5 37  1  0  0  0  0
  7 38  1  0  0  0  0
  7 39  1  0  0  0  0
  8 40  1  0  0  0  0
  8 41  1  0  0  0  0
 10 42  1  0  0  0  0
 11 43  1  0  0  0  0
 15 44  1  0  0  0  0
 17 45  1  0  0  0  0
 19 46  1  0  0  0  0
 20 47  1  0  0  0  0
 23 48  1  0  0  0  0
 24 49  1  0  0  0  0
 25 50  1  0  0  0  0
 27 51  1  0  0  0  0
 31 52  1  0  0  0  0
 32 53  1  0  0  0  0
 33 54  1  0  0  0  0
M  END
> <IC50[nM]>
2.1

$$$$
CHEMBL3265033
  -OEChem-05192314333D
 Structure written by MMmdl.
 54 59  0     1  0  0  0  0  0999 V2000
   -6.7377   -5.5954   13.7078 O   0  0  0  0  0  0  0  0  0  0  0  0
   -6.4109   -4.1827   13.9768 S   0  0  0  0  0  0  0  0  0  0  0  0
   -7.4853   -3.1691   13.9645 O   0  0  0  0  0  0  0  0  0  0  0  0
   -5.0718   -3.6553   12.8024 C   0  0  0  0  0  0  0  0  0  0  0  0
   -4.5093   -2.3051   13.2740 C   0  0  0  0  0  0  0  0  0  0  0  0
   -3.8452   -2.4085   14.5766 N   0  0  0  0  0  0  0  0  0  0  0  0
   -4.8019   -2.6733   15.6705 C   0  0  0  0  0  0  0  0  0  0  0  0
   -5.4613   -4.0603   15.5733 C   0  0  0  0  0  0  0  0  0  0  0  0
   -2.5026   -2.1121   14.7721 C   0  0  0  0  0  0  0  0  0  0  0  0
   -1.7498   -2.8472   15.6821 C   0  0  0  0  0  0  0  0  0  0  0  0
   -0.3947   -2.5947   15.8318 C   0  0  0  0  0  0  0  0  0  0  0  0
    0.2287   -1.5788   15.1039 C   0  0  0  0  0  0  0  0  0  0  0  0
    1.6093   -1.3648   15.3339 N   0  0  0  0  0  0  0  0  0  0  0  0
    2.5318   -0.4383   14.7801 C   0  0  0  0  0  0  0  0  0  0  0  0
    2.1634    0.3921   13.7540 N   0  0  0  0  0  0  0  0  0  0  0  0
    3.0974    1.2392   13.2246 C   0  0  0  0  0  0  0  0  0  0  0  0
    4.4044    1.2817   13.6944 C   0  0  0  0  0  0  0  0  0  0  0  0
    4.7423    0.4925   14.7592 N   0  0  0  0  0  0  0  0  0  0  0  0
    5.8954    0.3870   15.4778 C   0  0  0  0  0  0  0  0  0  0  0  0
    5.5990   -0.5412   16.5094 C   0  0  0  0  0  0  0  0  0  0  0  0
    4.3871   -1.0534   16.3565 N   0  0  0  0  0  0  0  0  0  0  0  0
    3.8359   -0.3945   15.3234 C   0  0  0  0  0  0  0  0  0  0  0  0
    2.6253    2.1534   12.1201 C   0  0  0  0  0  0  0  0  0  0  0  0
    3.5412    2.6427   11.1681 C   0  0  0  0  0  0  0  0  0  0  0  0
    3.1527    3.4644   10.1100 C   0  0  0  0  0  0  0  0  0  0  0  0
    1.8061    3.8184   10.0146 C   0  0  0  0  0  0  0  0  0  0  0  0
    0.9967    4.6031    9.1196 C   0  0  0  0  0  0  0  0  0  0  0  0
   -0.2439    4.6096    9.5190 N   0  0  0  0  0  0  0  0  0  0  0  0
   -0.3333    3.8812   10.6311 N   0  0  0  0  0  0  0  0  0  0  0  0
    0.8847    3.3487   10.9898 C   0  0  3  0  0  0  0  0  0  0  0  0
    1.2610    2.5149   12.0531 C   0  0  0  0  0  0  0  0  0  0  0  0
   -0.5302   -0.8124   14.2060 C   0  0  0  0  0  0  0  0  0  0  0  0
   -1.8875   -1.0872   14.0350 C   0  0  0  0  0  0  0  0  0  0  0  0
   -4.2696   -4.4079   12.7930 H   0  0  0  0  0  0  0  0  0  0  0  0
   -5.4876   -3.5500   11.7895 H   0  0  0  0  0  0  0  0  0  0  0  0
   -3.7809   -1.9459   12.5321 H   0  0  0  0  0  0  0  0  0  0  0  0
   -5.3368   -1.5847   13.3540 H   0  0  0  0  0  0  0  0  0  0  0  0
   -4.2654   -2.6071   16.6285 H   0  0  0  0  0  0  0  0  0  0  0  0
   -5.5909   -1.9075   15.6385 H   0  0  0  0  0  0  0  0  0  0  0  0
   -6.1485   -4.2002   16.4208 H   0  0  0  0  0  0  0  0  0  0  0  0
   -4.6844   -4.8386   15.5989 H   0  0  0  0  0  0  0  0  0  0  0  0
   -2.2224   -3.6171   16.2739 H   0  0  0  0  0  0  0  0  0  0  0  0
    0.1860   -3.1911   16.5199 H   0  0  0  0  0  0  0  0  0  0  0  0
    1.2287    0.3788   13.3989 H   0  0  0  0  0  0  0  0  0  0  0  0
    5.1375    1.9239   13.2289 H   0  0  0  0  0  0  0  0  0  0  0  0
    6.8303    0.8980   15.3009 H   0  0  0  0  0  0  0  0  0  0  0  0
    6.2731   -0.7965   17.3137 H   0  0  0  0  0  0  0  0  0  0  0  0
    4.5825    2.3716   11.2609 H   0  0  0  0  0  0  0  0  0  0  0  0
    3.8727    3.8163    9.3860 H   0  0  0  0  0  0  0  0  0  0  0  0
    1.3650    5.1137    8.2421 H   0  0  0  0  0  0  0  0  0  0  0  0
    1.0895    4.2335   11.6104 H   0  0  0  0  0  0  0  0  0  0  0  0
    0.5449    2.1672   12.7829 H   0  0  0  0  0  0  0  0  0  0  0  0
   -0.0651   -0.0124   13.6491 H   0  0  0  0  0  0  0  0  0  0  0  0
   -2.4682   -0.5085   13.3319 H   0  0  0  0  0  0  0  0  0  0  0  0
  1  2  2  0  0  0  0
  2  3  2  0  0  0  0
  2  4  1  0  0  0  0
  2  8  1  0  0  0  0
  4  5  1  0  0  0  0
  5  6  1  0  0  0  0
  6  7  1  0  0  0  0
  6  9  1  0  0  0  0
  7  8  1  0  0  0  0
  9 10  2  0  0  0  0
  9 33  1  0  0  0  0
 10 11  1  0  0  0  0
 11 12  2  0  0  0  0
 12 13  1  0  0  0  0
 12 32  1  0  0  0  0
 13 14  2  0  0  0  0
 14 15  1  0  0  0  0
 14 22  1  0  0  0  0
 15 16  1  0  0  0  0
 16 17  2  0  0  0  0
 16 23  1  0  0  0  0
 17 18  1  0  0  0  0
 18 19  1  0  0  0  0
 18 22  1  0  0  0  0
 19 20  2  0  0  0  0
 20 21  1  0  0  0  0
 21 22  2  0  0  0  0
 23 24  1  0  0  0  0
 23 31  2  0  0  0  0
 24 25  2  0  0  0  0
 25 26  1  0  0  0  0
 26 27  2  0  0  0  0
 26 30  1  0  0  0  0
 27 28  1  0  0  0  0
 28 29  2  0  0  0  0
 29 30  1  0  0  0  0
 30 31  1  0  0  0  0
 32 33  2  0  0  0  0
  4 34  1  0  0  0  0
  4 35  1  0  0  0  0
  5 36  1  0  0  0  0
  5 37  1  0  0  0  0
  7 38  1  0  0  0  0
  7 39  1  0  0  0  0
  8 40  1  0  0  0  0
  8 41  1  0  0  0  0
 10 42  1  0  0  0  0
 11 43  1  0  0  0  0
 15 44  1  0  0  0  0
 17 45  1  0  0  0  0
 19 46  1  0  0  0  0
 20 47  1  0  0  0  0
 24 48  1  0  0  0  0
 25 49  1  0  0  0  0
 27 50  1  0  0  0  0
 30 51  1  0  0  0  0
 31 52  1  0  0  0  0
 32 53  1  0  0  0  0
 33 54  1  0  0  0  0
M  END
> <IC50[nM]>
2.1

$$$$
CHEMBL3265033
  -OEChem-05192314333D
 Structure written by MMmdl.
 54 59  0     0  0  0  0  0  0999 V2000
   -6.7377   -5.5954   13.7078 O   0  0  0  0  0  0  0  0  0  0  0  0
   -6.4109   -4.1827   13.9768 S   0  0  0  0  0  0  0  0  0  0  0  0
   -7.4853   -3.1691   13.9645 O   0  0  0  0  0  0  0  0  0  0  0  0
   -5.0718   -3.6553   12.8024 C   0  0  0  0  0  0  0  0  0  0  0  0
   -4.5093   -2.3051   13.2740 C   0  0  0  0  0  0  0  0  0  0  0  0
   -3.8452   -2.4085   14.5766 N   0  0  0  0  0  0  0  0  0  0  0  0
   -4.8019   -2.6733   15.6705 C   0  0  0  0  0  0  0  0  0  0  0  0
   -5.4613   -4.0603   15.5733 C   0  0  0  0  0  0  0  0  0  0  0  0
   -2.5026   -2.1121   14.7721 C   0  0  0  0  0  0  0  0  0  0  0  0
   -1.7498   -2.8472   15.6821 C   0  0  0  0  0  0  0  0  0  0  0  0
   -0.3947   -2.5947   15.8318 C   0  0  0  0  0  0  0  0  0  0  0  0
    0.2287   -1.5788   15.1039 C   0  0  0  0  0  0  0  0  0  0  0  0
    1.6093   -1.3648   15.3339 N   0  0  0  0  0  0  0  0  0  0  0  0
    2.5318   -0.4383   14.7801 C   0  0  0  0  0  0  0  0  0  0  0  0
    2.1634    0.3921   13.7540 N   0  0  0  0  0  0  0  0  0  0  0  0
    3.0974    1.2392   13.2246 C   0  0  0  0  0  0  0  0  0  0  0  0
    4.4044    1.2817   13.6944 C   0  0  0  0  0  0  0  0  0  0  0  0
    4.7423    0.4925   14.7592 N   0  0  0  0  0  0  0  0  0  0  0  0
    5.8954    0.3870   15.4778 C   0  0  0  0  0  0  0  0  0  0  0  0
    5.5990   -0.5412   16.5094 C   0  0  0  0  0  0  0  0  0  0  0  0
    4.3871   -1.0534   16.3565 N   0  0  0  0  0  0  0  0  0  0  0  0
    3.8359   -0.3945   15.3234 C   0  0  0  0  0  0  0  0  0  0  0  0
    2.6253    2.1534   12.1201 C   0  0  0  0  0  0  0  0  0  0  0  0
    3.5412    2.6427   11.1681 C   0  0  0  0  0  0  0  0  0  0  0  0
    3.1527    3.4644   10.1100 C   0  0  0  0  0  0  0  0  0  0  0  0
    1.8061    3.8184   10.0146 C   0  0  0  0  0  0  0  0  0  0  0  0
    0.9967    4.6031    9.1196 C   0  0  0  0  0  0  0  0  0  0  0  0
   -0.2439    4.6096    9.5190 N   0  0  0  0  0  0  0  0  0  0  0  0
   -0.3333    3.8812   10.6311 N   0  0  0  0  0  0  0  0  0  0  0  0
    0.8847    3.3487   10.9898 C   0  0  0  0  0  0  0  0  0  0  0  0
    1.2610    2.5149   12.0531 C   0  0  0  0  0  0  0  0  0  0  0  0
   -0.5302   -0.8124   14.2060 C   0  0  0  0  0  0  0  0  0  0  0  0
   -1.8875   -1.0872   14.0350 C   0  0  0  0  0  0  0  0  0  0  0  0
   -4.2696   -4.4079   12.7930 H   0  0  0  0  0  0  0  0  0  0  0  0
   -5.4876   -3.5500   11.7895 H   0  0  0  0  0  0  0  0  0  0  0  0
   -3.7809   -1.9459   12.5321 H   0  0  0  0  0  0  0  0  0  0  0  0
   -5.3368   -1.5847   13.3540 H   0  0  0  0  0  0  0  0  0  0  0  0
   -4.2654   -2.6071   16.6285 H   0  0  0  0  0  0  0  0  0  0  0  0
   -5.5909   -1.9075   15.6385 H   0  0  0  0  0  0  0  0  0  0  0  0
   -6.1485   -4.2002   16.4208 H   0  0  0  0  0  0  0  0  0  0  0  0
   -4.6844   -4.8386   15.5989 H   0  0  0  0  0  0  0  0  0  0  0  0
   -2.2224   -3.6171   16.2739 H   0  0  0  0  0  0  0  0  0  0  0  0
    0.1860   -3.1911   16.5199 H   0  0  0  0  0  0  0  0  0  0  0  0
    1.2287    0.3788   13.3989 H   0  0  0  0  0  0  0  0  0  0  0  0
    5.1375    1.9239   13.2289 H   0  0  0  0  0  0  0  0  0  0  0  0
    6.8303    0.8980   15.3009 H   0  0  0  0  0  0  0  0  0  0  0  0
    6.2731   -0.7965   17.3137 H   0  0  0  0  0  0  0  0  0  0  0  0
    4.5825    2.3716   11.2609 H   0  0  0  0  0  0  0  0  0  0  0  0
    3.7309    4.3967   10.1907 H   0  0  0  0  0  0  0  0  0  0  0  0
    3.4213    2.9459    9.1778 H   0  0  0  0  0  0  0  0  0  0  0  0
    1.3650    5.1137    8.2421 H   0  0  0  0  0  0  0  0  0  0  0  0
    0.5449    2.1672   12.7829 H   0  0  0  0  0  0  0  0  0  0  0  0
   -0.0651   -0.0124   13.6491 H   0  0  0  0  0  0  0  0  0  0  0  0
   -2.4682   -0.5085   13.3319 H   0  0  0  0  0  0  0  0  0  0  0  0
  1  2  2  0  0  0  0
  2  3  2  0  0  0  0
  2  4  1  0  0  0  0
  2  8  1  0  0  0  0
  4  5  1  0  0  0  0
  5  6  1  0  0  0  0
  6  7  1  0  0  0  0
  6  9  1  0  0  0  0
  7  8  1  0  0  0  0
  9 10  2  0  0  0  0
  9 33  1  0  0  0  0
 10 11  1  0  0  0  0
 11 12  2  0  0  0  0
 12 13  1  0  0  0  0
 12 32  1  0  0  0  0
 13 14  2  0  0  0  0
 14 15  1  0  0  0  0
 14 22  1  0  0  0  0
 15 16  1  0  0  0  0
 16 17  2  0  0  0  0
 16 23  1  0  0  0  0
 17 18  1  0  0  0  0
 18 19  1  0  0  0  0
 18 22  1  0  0  0  0
 19 20  2  0  0  0  0
 20 21  1  0  0  0  0
 21 22  2  0  0  0  0
 23 24  2  0  0  0  0
 23 31  1  0  0  0  0
 24 25  1  0  0  0  0
 25 26  1  0  0  0  0
 26 27  2  0  0  0  0
 26 30  1  0  0  0  0
 27 28  1  0  0  0  0
 28 29  2  0  0  0  0
 29 30  1  0  0  0  0
 30 31  2  0  0  0  0
 32 33  2  0  0  0  0
  4 34  1  0  0  0  0
  4 35  1  0  0  0  0
  5 36  1  0  0  0  0
  5 37  1  0  0  0  0
  7 38  1  0  0  0  0
  7 39  1  0  0  0  0
  8 40  1  0  0  0  0
  8 41  1  0  0  0  0
 10 42  1  0  0  0  0
 11 43  1  0  0  0  0
 15 44  1  0  0  0  0
 17 45  1  0  0  0  0
 19 46  1  0  0  0  0
 20 47  1  0  0  0  0
 24 48  1  0  0  0  0
 25 49  1  0  0  0  0
 25 50  1  0  0  0  0
 27 51  1  0  0  0  0
 31 52  1  0  0  0  0
 32 53  1  0  0  0  0
 33 54  1  0  0  0  0
M  END
> <IC50[nM]>
2.1

$$$$
CHEMBL3265033
  -OEChem-05192314333D
 Structure written by MMmdl.
 54 59  0     1  0  0  0  0  0999 V2000
   -6.7377   -5.5954   13.7078 O   0  0  0  0  0  0  0  0  0  0  0  0
   -6.4109   -4.1827   13.9768 S   0  0  0  0  0  0  0  0  0  0  0  0
   -7.4853   -3.1691   13.9645 O   0  0  0  0  0  0  0  0  0  0  0  0
   -5.0718   -3.6553   12.8024 C   0  0  0  0  0  0  0  0  0  0  0  0
   -4.5093   -2.3051   13.2740 C   0  0  0  0  0  0  0  0  0  0  0  0
   -3.8452   -2.4085   14.5766 N   0  0  0  0  0  0  0  0  0  0  0  0
   -4.8019   -2.6733   15.6705 C   0  0  0  0  0  0  0  0  0  0  0  0
   -5.4613   -4.0603   15.5733 C   0  0  0  0  0  0  0  0  0  0  0  0
   -2.5026   -2.1121   14.7721 C   0  0  0  0  0  0  0  0  0  0  0  0
   -1.7498   -2.8472   15.6821 C   0  0  0  0  0  0  0  0  0  0  0  0
   -0.3947   -2.5947   15.8318 C   0  0  0  0  0  0  0  0  0  0  0  0
    0.2287   -1.5788   15.1039 C   0  0  0  0  0  0  0  0  0  0  0  0
    1.6093   -1.3648   15.3339 N   0  0  0  0  0  0  0  0  0  0  0  0
    2.5318   -0.4383   14.7801 C   0  0  0  0  0  0  0  0  0  0  0  0
    2.1634    0.3921   13.7540 N   0  0  0  0  0  0  0  0  0  0  0  0
    3.0974    1.2392   13.2246 C   0  0  0  0  0  0  0  0  0  0  0  0
    4.4044    1.2817   13.6944 C   0  0  0  0  0  0  0  0  0  0  0  0
    4.7423    0.4925   14.7592 N   0  0  0  0  0  0  0  0  0  0  0  0
    5.8954    0.3870   15.4778 C   0  0  0  0  0  0  0  0  0  0  0  0
    5.5990   -0.5412   16.5094 C   0  0  0  0  0  0  0  0  0  0  0  0
    4.3871   -1.0534   16.3565 N   0  0  0  0  0  0  0  0  0  0  0  0
    3.8359   -0.3945   15.3234 C   0  0  0  0  0  0  0  0  0  0  0  0
    2.6253    2.1534   12.1201 C   0  0  0  0  0  0  0  0  0  0  0  0
    3.5412    2.6427   11.1681 C   0  0  0  0  0  0  0  0  0  0  0  0
    3.1527    3.4644   10.1100 C   0  0  0  0  0  0  0  0  0  0  0  0
    1.8061    3.8184   10.0146 C   0  0  3  0  0  0  0  0  0  0  0  0
    0.9967    4.6031    9.1196 C   0  0  0  0  0  0  0  0  0  0  0  0
   -0.2439    4.6096    9.5190 N   0  0  0  0  0  0  0  0  0  0  0  0
   -0.3333    3.8812   10.6311 N   0  0  0  0  0  0  0  0  0  0  0  0
    0.8847    3.3487   10.9898 C   0  0  0  0  0  0  0  0  0  0  0  0
    1.2610    2.5149   12.0531 C   0  0  0  0  0  0  0  0  0  0  0  0
   -0.5302   -0.8124   14.2060 C   0  0  0  0  0  0  0  0  0  0  0  0
   -1.8875   -1.0872   14.0350 C   0  0  0  0  0  0  0  0  0  0  0  0
   -4.2696   -4.4079   12.7930 H   0  0  0  0  0  0  0  0  0  0  0  0
   -5.4876   -3.5500   11.7895 H   0  0  0  0  0  0  0  0  0  0  0  0
   -3.7809   -1.9459   12.5321 H   0  0  0  0  0  0  0  0  0  0  0  0
   -5.3368   -1.5847   13.3540 H   0  0  0  0  0  0  0  0  0  0  0  0
   -4.2654   -2.6071   16.6285 H   0  0  0  0  0  0  0  0  0  0  0  0
   -5.5909   -1.9075   15.6385 H   0  0  0  0  0  0  0  0  0  0  0  0
   -6.1485   -4.2002   16.4208 H   0  0  0  0  0  0  0  0  0  0  0  0
   -4.6844   -4.8386   15.5989 H   0  0  0  0  0  0  0  0  0  0  0  0
   -2.2224   -3.6171   16.2739 H   0  0  0  0  0  0  0  0  0  0  0  0
    0.1860   -3.1911   16.5199 H   0  0  0  0  0  0  0  0  0  0  0  0
    5.0593    0.9960   12.8580 H   0  0  0  0  0  0  0  0  0  0  0  0
    4.6116    2.3226   13.9833 H   0  0  0  0  0  0  0  0  0  0  0  0
    6.8303    0.8980   15.3009 H   0  0  0  0  0  0  0  0  0  0  0  0
    6.2731   -0.7965   17.3137 H   0  0  0  0  0  0  0  0  0  0  0  0
    4.5825    2.3716   11.2609 H   0  0  0  0  0  0  0  0  0  0  0  0
    3.8727    3.8163    9.3860 H   0  0  0  0  0  0  0  0  0  0  0  0
    1.9976    4.7126   10.6259 H   0  0  0  0  0  0  0  0  0  0  0  0
    1.3650    5.1137    8.2421 H   0  0  0  0  0  0  0  0  0  0  0  0
    0.5449    2.1672   12.7829 H   0  0  0  0  0  0  0  0  0  0  0  0
   -0.0651   -0.0124   13.6491 H   0  0  0  0  0  0  0  0  0  0  0  0
   -2.4682   -0.5085   13.3319 H   0  0  0  0  0  0  0  0  0  0  0  0
  1  2  2  0  0  0  0
  2  3  2  0  0  0  0
  2  4  1  0  0  0  0
  2  8  1  0  0  0  0
  4  5  1  0  0  0  0
  5  6  1  0  0  0  0
  6  7  1  0  0  0  0
  6  9  1  0  0  0  0
  7  8  1  0  0  0  0
  9 10  2  0  0  0  0
  9 33  1  0  0  0  0
 10 11  1  0  0  0  0
 11 12  2  0  0  0  0
 12 13  1  0  0  0  0
 12 32  1  0  0  0  0
 13 14  2  0  0  0  0
 14 15  1  0  0  0  0
 14 22  1  0  0  0  0
 15 16  2  0  0  0  0
 16 17  1  0  0  0  0
 16 23  1  0  0  0  0
 17 18  1  0  0  0  0
 18 19  1  0  0  0  0
 18 22  1  0  0  0  0
 19 20  2  0  0  0  0
 20 21  1  0  0  0  0
 21 22  2  0  0  0  0
 23 24  1  0  0  0  0
 23 31  2  0  0  0  0
 24 25  2  0  0  0  0
 25 26  1  0  0  0  0
 26 27  1  0  0  0  0
 26 30  1  0  0  0  0
 27 28  2  0  0  0  0
 28 29  1  0  0  0  0
 29 30  2  0  0  0  0
 30 31  1  0  0  0  0
 32 33  2  0  0  0  0
  4 34  1  0  0  0  0
  4 35  1  0  0  0  0
  5 36  1  0  0  0  0
  5 37  1  0  0  0  0
  7 38  1  0  0  0  0
  7 39  1  0  0  0  0
  8 40  1  0  0  0  0
  8 41  1  0  0  0  0
 10 42  1  0  0  0  0
 11 43  1  0  0  0  0
 17 44  1  0  0  0  0
 17 45  1  0  0  0  0
 19 46  1  0  0  0  0
 20 47  1  0  0  0  0
 24 48  1  0  0  0  0
 25 49  1  0  0  0  0
 26 50  1  0  0  0  0
 27 51  1  0  0  0  0
 31 52  1  0  0  0  0
 32 53  1  0  0  0  0
 33 54  1  0  0  0  0
M  END
> <IC50[nM]>
2.1

$$$$
CHEMBL3265033
  -OEChem-05192314333D
 Structure written by MMmdl.
 54 59  0     0  0  0  0  0  0999 V2000
   -6.7377   -5.5954   13.7078 O   0  0  0  0  0  0  0  0  0  0  0  0
   -6.4109   -4.1827   13.9768 S   0  0  0  0  0  0  0  0  0  0  0  0
   -7.4853   -3.1691   13.9645 O   0  0  0  0  0  0  0  0  0  0  0  0
   -5.0718   -3.6553   12.8024 C   0  0  0  0  0  0  0  0  0  0  0  0
   -4.5093   -2.3051   13.2740 C   0  0  0  0  0  0  0  0  0  0  0  0
   -3.8452   -2.4085   14.5766 N   0  0  0  0  0  0  0  0  0  0  0  0
   -4.8019   -2.6733   15.6705 C   0  0  0  0  0  0  0  0  0  0  0  0
   -5.4613   -4.0603   15.5733 C   0  0  0  0  0  0  0  0  0  0  0  0
   -2.5026   -2.1121   14.7721 C   0  0  0  0  0  0  0  0  0  0  0  0
   -1.7498   -2.8472   15.6821 C   0  0  0  0  0  0  0  0  0  0  0  0
   -0.3947   -2.5947   15.8318 C   0  0  0  0  0  0  0  0  0  0  0  0
    0.2287   -1.5788   15.1039 C   0  0  0  0  0  0  0  0  0  0  0  0
    1.6093   -1.3648   15.3339 N   0  0  0  0  0  0  0  0  0  0  0  0
    2.5318   -0.4383   14.7801 C   0  0  0  0  0  0  0  0  0  0  0  0
    2.1634    0.3921   13.7540 N   0  0  0  0  0  0  0  0  0  0  0  0
    3.0974    1.2392   13.2246 C   0  0  0  0  0  0  0  0  0  0  0  0
    4.4044    1.2817   13.6944 C   0  0  0  0  0  0  0  0  0  0  0  0
    4.7423    0.4925   14.7592 N   0  0  0  0  0  0  0  0  0  0  0  0
    5.8954    0.3870   15.4778 C   0  0  0  0  0  0  0  0  0  0  0  0
    5.5990   -0.5412   16.5094 C   0  0  0  0  0  0  0  0  0  0  0  0
    4.3871   -1.0534   16.3565 N   0  0  0  0  0  0  0  0  0  0  0  0
    3.8359   -0.3945   15.3234 C   0  0  0  0  0  0  0  0  0  0  0  0
    2.6253    2.1534   12.1201 C   0  0  0  0  0  0  0  0  0  0  0  0
    3.5412    2.6427   11.1681 C   0  0  0  0  0  0  0  0  0  0  0  0
    3.1527    3.4644   10.1100 C   0  0  0  0  0  0  0  0  0  0  0  0
    1.8061    3.8184   10.0146 C   0  0  0  0  0  0  0  0  0  0  0  0
    0.9967    4.6031    9.1196 C   0  0  0  0  0  0  0  0  0  0  0  0
   -0.2439    4.6096    9.5190 N   0  0  0  0  0  0  0  0  0  0  0  0
   -0.3333    3.8812   10.6311 N   0  0  0  0  0  0  0  0  0  0  0  0
    0.8847    3.3487   10.9898 C   0  0  0  0  0  0  0  0  0  0  0  0
    1.2610    2.5149   12.0531 C   0  0  0  0  0  0  0  0  0  0  0  0
   -0.5302   -0.8124   14.2060 C   0  0  0  0  0  0  0  0  0  0  0  0
   -1.8875   -1.0872   14.0350 C   0  0  0  0  0  0  0  0  0  0  0  0
   -4.2696   -4.4079   12.7930 H   0  0  0  0  0  0  0  0  0  0  0  0
   -5.4876   -3.5500   11.7895 H   0  0  0  0  0  0  0  0  0  0  0  0
   -3.7809   -1.9459   12.5321 H   0  0  0  0  0  0  0  0  0  0  0  0
   -5.3368   -1.5847   13.3540 H   0  0  0  0  0  0  0  0  0  0  0  0
   -4.2654   -2.6071   16.6285 H   0  0  0  0  0  0  0  0  0  0  0  0
   -5.5909   -1.9075   15.6385 H   0  0  0  0  0  0  0  0  0  0  0  0
   -6.1485   -4.2002   16.4208 H   0  0  0  0  0  0  0  0  0  0  0  0
   -4.6844   -4.8386   15.5989 H   0  0  0  0  0  0  0  0  0  0  0  0
   -2.2224   -3.6171   16.2739 H   0  0  0  0  0  0  0  0  0  0  0  0
    0.1860   -3.1911   16.5199 H   0  0  0  0  0  0  0  0  0  0  0  0
    5.0593    0.9960   12.8580 H   0  0  0  0  0  0  0  0  0  0  0  0
    4.6116    2.3226   13.9833 H   0  0  0  0  0  0  0  0  0  0  0  0
    6.8303    0.8980   15.3009 H   0  0  0  0  0  0  0  0  0  0  0  0
    6.2731   -0.7965   17.3137 H   0  0  0  0  0  0  0  0  0  0  0  0
    4.2968    3.2083   11.7331 H   0  0  0  0  0  0  0  0  0  0  0  0
    4.0103    1.7583   10.7123 H   0  0  0  0  0  0  0  0  0  0  0  0
    3.8727    3.8163    9.3860 H   0  0  0  0  0  0  0  0  0  0  0  0
    1.3650    5.1137    8.2421 H   0  0  0  0  0  0  0  0  0  0  0  0
    0.5449    2.1672   12.7829 H   0  0  0  0  0  0  0  0  0  0  0  0
   -0.0651   -0.0124   13.6491 H   0  0  0  0  0  0  0  0  0  0  0  0
   -2.4682   -0.5085   13.3319 H   0  0  0  0  0  0  0  0  0  0  0  0
  1  2  2  0  0  0  0
  2  3  2  0  0  0  0
  2  4  1  0  0  0  0
  2  8  1  0  0  0  0
  4  5  1  0  0  0  0
  5  6  1  0  0  0  0
  6  7  1  0  0  0  0
  6  9  1  0  0  0  0
  7  8  1  0  0  0  0
  9 10  2  0  0  0  0
  9 33  1  0  0  0  0
 10 11  1  0  0  0  0
 11 12  2  0  0  0  0
 12 13  1  0  0  0  0
 12 32  1  0  0  0  0
 13 14  2  0  0  0  0
 14 15  1  0  0  0  0
 14 22  1  0  0  0  0
 15 16  2  0  0  0  0
 16 17  1  0  0  0  0
 16 23  1  0  0  0  0
 17 18  1  0  0  0  0
 18 19  1  0  0  0  0
 18 22  1  0  0  0  0
 19 20  2  0  0  0  0
 20 21  1  0  0  0  0
 21 22  2  0  0  0  0
 23 24  1  0  0  0  0
 23 31  2  0  0  0  0
 24 25  1  0  0  0  0
 25 26  2  0  0  0  0
 26 27  1  0  0  0  0
 26 30  1  0  0  0  0
 27 28  2  0  0  0  0
 28 29  1  0  0  0  0
 29 30  2  0  0  0  0
 30 31  1  0  0  0  0
 32 33  2  0  0  0  0
  4 34  1  0  0  0  0
  4 35  1  0  0  0  0
  5 36  1  0  0  0  0
  5 37  1  0  0  0  0
  7 38  1  0  0  0  0
  7 39  1  0  0  0  0
  8 40  1  0  0  0  0
  8 41  1  0  0  0  0
 10 42  1  0  0  0  0
 11 43  1  0  0  0  0
 17 44  1  0  0  0  0
 17 45  1  0  0  0  0
 19 46  1  0  0  0  0
 20 47  1  0  0  0  0
 24 48  1  0  0  0  0
 24 49  1  0  0  0  0
 25 50  1  0  0  0  0
 27 51  1  0  0  0  0
 31 52  1  0  0  0  0
 32 53  1  0  0  0  0
 33 54  1  0  0  0  0
M  END
> <IC50[nM]>
2.1

$$$$
CHEMBL3265033
  -OEChem-05192314333D
 Structure written by MMmdl.
 54 59  0     0  0  0  0  0  0999 V2000
   -6.7377   -5.5954   13.7078 O   0  0  0  0  0  0  0  0  0  0  0  0
   -6.4109   -4.1827   13.9768 S   0  0  0  0  0  0  0  0  0  0  0  0
   -7.4853   -3.1691   13.9645 O   0  0  0  0  0  0  0  0  0  0  0  0
   -5.0718   -3.6553   12.8024 C   0  0  0  0  0  0  0  0  0  0  0  0
   -4.5093   -2.3051   13.2740 C   0  0  0  0  0  0  0  0  0  0  0  0
   -3.8452   -2.4085   14.5766 N   0  0  0  0  0  0  0  0  0  0  0  0
   -4.8019   -2.6733   15.6705 C   0  0  0  0  0  0  0  0  0  0  0  0
   -5.4613   -4.0603   15.5733 C   0  0  0  0  0  0  0  0  0  0  0  0
   -2.5026   -2.1121   14.7721 C   0  0  0  0  0  0  0  0  0  0  0  0
   -1.7498   -2.8472   15.6821 C   0  0  0  0  0  0  0  0  0  0  0  0
   -0.3947   -2.5947   15.8318 C   0  0  0  0  0  0  0  0  0  0  0  0
    0.2287   -1.5788   15.1039 C   0  0  0  0  0  0  0  0  0  0  0  0
    1.6093   -1.3648   15.3339 N   0  0  0  0  0  0  0  0  0  0  0  0
    2.5318   -0.4383   14.7801 C   0  0  0  0  0  0  0  0  0  0  0  0
    2.1634    0.3921   13.7540 N   0  0  0  0  0  0  0  0  0  0  0  0
    3.0974    1.2392   13.2246 C   0  0  0  0  0  0  0  0  0  0  0  0
    4.4044    1.2817   13.6944 C   0  0  0  0  0  0  0  0  0  0  0  0
    4.7423    0.4925   14.7592 N   0  0  0  0  0  0  0  0  0  0  0  0
    5.8954    0.3870   15.4778 C   0  0  0  0  0  0  0  0  0  0  0  0
    5.5990   -0.5412   16.5094 C   0  0  0  0  0  0  0  0  0  0  0  0
    4.3871   -1.0534   16.3565 N   0  0  0  0  0  0  0  0  0  0  0  0
    3.8359   -0.3945   15.3234 C   0  0  0  0  0  0  0  0  0  0  0  0
    2.6253    2.1534   12.1201 C   0  0  0  0  0  0  0  0  0  0  0  0
    3.5412    2.6427   11.1681 C   0  0  0  0  0  0  0  0  0  0  0  0
    3.1527    3.4644   10.1100 C   0  0  0  0  0  0  0  0  0  0  0  0
    1.8061    3.8184   10.0146 C   0  0  0  0  0  0  0  0  0  0  0  0
    0.9967    4.6031    9.1196 C   0  0  0  0  0  0  0  0  0  0  0  0
   -0.2439    4.6096    9.5190 N   0  0  0  0  0  0  0  0  0  0  0  0
   -0.3333    3.8812   10.6311 N   0  0  0  0  0  0  0  0  0  0  0  0
    0.8847    3.3487   10.9898 C   0  0  0  0  0  0  0  0  0  0  0  0
    1.2610    2.5149   12.0531 C   0  0  0  0  0  0  0  0  0  0  0  0
   -0.5302   -0.8124   14.2060 C   0  0  0  0  0  0  0  0  0  0  0  0
   -1.8875   -1.0872   14.0350 C   0  0  0  0  0  0  0  0  0  0  0  0
   -4.2696   -4.4079   12.7930 H   0  0  0  0  0  0  0  0  0  0  0  0
   -5.4876   -3.5500   11.7895 H   0  0  0  0  0  0  0  0  0  0  0  0
   -3.7809   -1.9459   12.5321 H   0  0  0  0  0  0  0  0  0  0  0  0
   -5.3368   -1.5847   13.3540 H   0  0  0  0  0  0  0  0  0  0  0  0
   -4.2654   -2.6071   16.6285 H   0  0  0  0  0  0  0  0  0  0  0  0
   -5.5909   -1.9075   15.6385 H   0  0  0  0  0  0  0  0  0  0  0  0
   -6.1485   -4.2002   16.4208 H   0  0  0  0  0  0  0  0  0  0  0  0
   -4.6844   -4.8386   15.5989 H   0  0  0  0  0  0  0  0  0  0  0  0
   -2.2224   -3.6171   16.2739 H   0  0  0  0  0  0  0  0  0  0  0  0
    0.1860   -3.1911   16.5199 H   0  0  0  0  0  0  0  0  0  0  0  0
    5.0593    0.9960   12.8580 H   0  0  0  0  0  0  0  0  0  0  0  0
    4.6116    2.3226   13.9833 H   0  0  0  0  0  0  0  0  0  0  0  0
    6.8303    0.8980   15.3009 H   0  0  0  0  0  0  0  0  0  0  0  0
    6.2731   -0.7965   17.3137 H   0  0  0  0  0  0  0  0  0  0  0  0
    4.5825    2.3716   11.2609 H   0  0  0  0  0  0  0  0  0  0  0  0
    3.8727    3.8163    9.3860 H   0  0  0  0  0  0  0  0  0  0  0  0
    1.3650    5.1137    8.2421 H   0  0  0  0  0  0  0  0  0  0  0  0
    0.6735    1.5882   11.9749 H   0  0  0  0  0  0  0  0  0  0  0  0
    1.0063    3.0326   12.9897 H   0  0  0  0  0  0  0  0  0  0  0  0
   -0.0651   -0.0124   13.6491 H   0  0  0  0  0  0  0  0  0  0  0  0
   -2.4682   -0.5085   13.3319 H   0  0  0  0  0  0  0  0  0  0  0  0
  1  2  2  0  0  0  0
  2  3  2  0  0  0  0
  2  4  1  0  0  0  0
  2  8  1  0  0  0  0
  4  5  1  0  0  0  0
  5  6  1  0  0  0  0
  6  7  1  0  0  0  0
  6  9  1  0  0  0  0
  7  8  1  0  0  0  0
  9 10  2  0  0  0  0
  9 33  1  0  0  0  0
 10 11  1  0  0  0  0
 11 12  2  0  0  0  0
 12 13  1  0  0  0  0
 12 32  1  0  0  0  0
 13 14  2  0  0  0  0
 14 15  1  0  0  0  0
 14 22  1  0  0  0  0
 15 16  2  0  0  0  0
 16 17  1  0  0  0  0
 16 23  1  0  0  0  0
 17 18  1  0  0  0  0
 18 19  1  0  0  0  0
 18 22  1  0  0  0  0
 19 20  2  0  0  0  0
 20 21  1  0  0  0  0
 21 22  2  0  0  0  0
 23 24  2  0  0  0  0
 23 31  1  0  0  0  0
 24 25  1  0  0  0  0
 25 26  2  0  0  0  0
 26 27  1  0  0  0  0
 26 30  1  0  0  0  0
 27 28  2  0  0  0  0
 28 29  1  0  0  0  0
 29 30  2  0  0  0  0
 30 31  1  0  0  0  0
 32 33  2  0  0  0  0
  4 34  1  0  0  0  0
  4 35  1  0  0  0  0
  5 36  1  0  0  0  0
  5 37  1  0  0  0  0
  7 38  1  0  0  0  0
  7 39  1  0  0  0  0
  8 40  1  0  0  0  0
  8 41  1  0  0  0  0
 10 42  1  0  0  0  0
 11 43  1  0  0  0  0
 17 44  1  0  0  0  0
 17 45  1  0  0  0  0
 19 46  1  0  0  0  0
 20 47  1  0  0  0  0
 24 48  1  0  0  0  0
 25 49  1  0  0  0  0
 27 50  1  0  0  0  0
 31 51  1  0  0  0  0
 31 52  1  0  0  0  0
 32 53  1  0  0  0  0
 33 54  1  0  0  0  0
M  END
> <IC50[nM]>
2.1

$$$$
CHEMBL3265033
  -OEChem-05192314333D
 Structure written by MMmdl.
 54 59  0     1  0  0  0  0  0999 V2000
   -6.7377   -5.5954   13.7078 O   0  0  0  0  0  0  0  0  0  0  0  0
   -6.4109   -4.1827   13.9768 S   0  0  0  0  0  0  0  0  0  0  0  0
   -7.4853   -3.1691   13.9645 O   0  0  0  0  0  0  0  0  0  0  0  0
   -5.0718   -3.6553   12.8024 C   0  0  0  0  0  0  0  0  0  0  0  0
   -4.5093   -2.3051   13.2740 C   0  0  0  0  0  0  0  0  0  0  0  0
   -3.8452   -2.4085   14.5766 N   0  0  0  0  0  0  0  0  0  0  0  0
   -4.8019   -2.6733   15.6705 C   0  0  0  0  0  0  0  0  0  0  0  0
   -5.4613   -4.0603   15.5733 C   0  0  0  0  0  0  0  0  0  0  0  0
   -2.5026   -2.1121   14.7721 C   0  0  0  0  0  0  0  0  0  0  0  0
   -1.7498   -2.8472   15.6821 C   0  0  0  0  0  0  0  0  0  0  0  0
   -0.3947   -2.5947   15.8318 C   0  0  0  0  0  0  0  0  0  0  0  0
    0.2287   -1.5788   15.1039 C   0  0  0  0  0  0  0  0  0  0  0  0
    1.6093   -1.3648   15.3339 N   0  0  0  0  0  0  0  0  0  0  0  0
    2.5318   -0.4383   14.7801 C   0  0  0  0  0  0  0  0  0  0  0  0
    2.1634    0.3921   13.7540 N   0  0  0  0  0  0  0  0  0  0  0  0
    3.0974    1.2392   13.2246 C   0  0  0  0  0  0  0  0  0  0  0  0
    4.4044    1.2817   13.6944 C   0  0  0  0  0  0  0  0  0  0  0  0
    4.7423    0.4925   14.7592 N   0  0  0  0  0  0  0  0  0  0  0  0
    5.8954    0.3870   15.4778 C   0  0  0  0  0  0  0  0  0  0  0  0
    5.5990   -0.5412   16.5094 C   0  0  0  0  0  0  0  0  0  0  0  0
    4.3871   -1.0534   16.3565 N   0  0  0  0  0  0  0  0  0  0  0  0
    3.8359   -0.3945   15.3234 C   0  0  0  0  0  0  0  0  0  0  0  0
    2.6253    2.1534   12.1201 C   0  0  3  0  0  0  0  0  0  0  0  0
    3.5412    2.6427   11.1681 C   0  0  0  0  0  0  0  0  0  0  0  0
    3.1527    3.4644   10.1100 C   0  0  0  0  0  0  0  0  0  0  0  0
    1.8061    3.8184   10.0146 C   0  0  0  0  0  0  0  0  0  0  0  0
    0.9967    4.6031    9.1196 C   0  0  0  0  0  0  0  0  0  0  0  0
   -0.2439    4.6096    9.5190 N   0  0  0  0  0  0  0  0  0  0  0  0
   -0.3333    3.8812   10.6311 N   0  0  0  0  0  0  0  0  0  0  0  0
    0.8847    3.3487   10.9898 C   0  0  0  0  0  0  0  0  0  0  0  0
    1.2610    2.5149   12.0531 C   0  0  0  0  0  0  0  0  0  0  0  0
   -0.5302   -0.8124   14.2060 C   0  0  0  0  0  0  0  0  0  0  0  0
   -1.8875   -1.0872   14.0350 C   0  0  0  0  0  0  0  0  0  0  0  0
   -4.2696   -4.4079   12.7930 H   0  0  0  0  0  0  0  0  0  0  0  0
   -5.4876   -3.5500   11.7895 H   0  0  0  0  0  0  0  0  0  0  0  0
   -3.7809   -1.9459   12.5321 H   0  0  0  0  0  0  0  0  0  0  0  0
   -5.3368   -1.5847   13.3540 H   0  0  0  0  0  0  0  0  0  0  0  0
   -4.2654   -2.6071   16.6285 H   0  0  0  0  0  0  0  0  0  0  0  0
   -5.5909   -1.9075   15.6385 H   0  0  0  0  0  0  0  0  0  0  0  0
   -6.1485   -4.2002   16.4208 H   0  0  0  0  0  0  0  0  0  0  0  0
   -4.6844   -4.8386   15.5989 H   0  0  0  0  0  0  0  0  0  0  0  0
   -2.2224   -3.6171   16.2739 H   0  0  0  0  0  0  0  0  0  0  0  0
    0.1860   -3.1911   16.5199 H   0  0  0  0  0  0  0  0  0  0  0  0
    5.0593    0.9960   12.8580 H   0  0  0  0  0  0  0  0  0  0  0  0
    4.6116    2.3226   13.9833 H   0  0  0  0  0  0  0  0  0  0  0  0
    6.8303    0.8980   15.3009 H   0  0  0  0  0  0  0  0  0  0  0  0
    6.2731   -0.7965   17.3137 H   0  0  0  0  0  0  0  0  0  0  0  0
    2.4263    1.2803   11.4813 H   0  0  0  0  0  0  0  0  0  0  0  0
    4.5825    2.3716   11.2609 H   0  0  0  0  0  0  0  0  0  0  0  0
    3.8727    3.8163    9.3860 H   0  0  0  0  0  0  0  0  0  0  0  0
    1.3650    5.1137    8.2421 H   0  0  0  0  0  0  0  0  0  0  0  0
    0.5449    2.1672   12.7829 H   0  0  0  0  0  0  0  0  0  0  0  0
   -0.0651   -0.0124   13.6491 H   0  0  0  0  0  0  0  0  0  0  0  0
   -2.4682   -0.5085   13.3319 H   0  0  0  0  0  0  0  0  0  0  0  0
  1  2  2  0  0  0  0
  2  3  2  0  0  0  0
  2  4  1  0  0  0  0
  2  8  1  0  0  0  0
  4  5  1  0  0  0  0
  5  6  1  0  0  0  0
  6  7  1  0  0  0  0
  6  9  1  0  0  0  0
  7  8  1  0  0  0  0
  9 10  2  0  0  0  0
  9 33  1  0  0  0  0
 10 11  1  0  0  0  0
 11 12  2  0  0  0  0
 12 13  1  0  0  0  0
 12 32  1  0  0  0  0
 13 14  2  0  0  0  0
 14 15  1  0  0  0  0
 14 22  1  0  0  0  0
 15 16  2  0  0  0  0
 16 17  1  0  0  0  0
 16 23  1  0  0  0  0
 17 18  1  0  0  0  0
 18 19  1  0  0  0  0
 18 22  1  0  0  0  0
 19 20  2  0  0  0  0
 20 21  1  0  0  0  0
 21 22  2  0  0  0  0
 23 24  1  0  0  0  0
 23 31  1  0  0  0  0
 24 25  2  0  0  0  0
 25 26  1  0  0  0  0
 26 27  2  0  0  0  0
 26 30  1  0  0  0  0
 27 28  1  0  0  0  0
 28 29  2  0  0  0  0
 29 30  1  0  0  0  0
 30 31  2  0  0  0  0
 32 33  2  0  0  0  0
  4 34  1  0  0  0  0
  4 35  1  0  0  0  0
  5 36  1  0  0  0  0
  5 37  1  0  0  0  0
  7 38  1  0  0  0  0
  7 39  1  0  0  0  0
  8 40  1  0  0  0  0
  8 41  1  0  0  0  0
 10 42  1  0  0  0  0
 11 43  1  0  0  0  0
 17 44  1  0  0  0  0
 17 45  1  0  0  0  0
 19 46  1  0  0  0  0
 20 47  1  0  0  0  0
 23 48  1  0  0  0  0
 24 49  1  0  0  0  0
 25 50  1  0  0  0  0
 27 51  1  0  0  0  0
 31 52  1  0  0  0  0
 32 53  1  0  0  0  0
 33 54  1  0  0  0  0
M  END
> <IC50[nM]>
2.1

$$$$
CHEMBL3265033
  -OEChem-05192314333D
 Structure written by MMmdl.
 54 59  0     1  0  0  0  0  0999 V2000
   -6.7377   -5.5954   13.7078 O   0  0  0  0  0  0  0  0  0  0  0  0
   -6.4109   -4.1827   13.9768 S   0  0  0  0  0  0  0  0  0  0  0  0
   -7.4853   -3.1691   13.9645 O   0  0  0  0  0  0  0  0  0  0  0  0
   -5.0718   -3.6553   12.8024 C   0  0  0  0  0  0  0  0  0  0  0  0
   -4.5093   -2.3051   13.2740 C   0  0  0  0  0  0  0  0  0  0  0  0
   -3.8452   -2.4085   14.5766 N   0  0  0  0  0  0  0  0  0  0  0  0
   -4.8019   -2.6733   15.6705 C   0  0  0  0  0  0  0  0  0  0  0  0
   -5.4613   -4.0603   15.5733 C   0  0  0  0  0  0  0  0  0  0  0  0
   -2.5026   -2.1121   14.7721 C   0  0  0  0  0  0  0  0  0  0  0  0
   -1.7498   -2.8472   15.6821 C   0  0  0  0  0  0  0  0  0  0  0  0
   -0.3947   -2.5947   15.8318 C   0  0  0  0  0  0  0  0  0  0  0  0
    0.2287   -1.5788   15.1039 C   0  0  0  0  0  0  0  0  0  0  0  0
    1.6093   -1.3648   15.3339 N   0  0  0  0  0  0  0  0  0  0  0  0
    2.5318   -0.4383   14.7801 C   0  0  0  0  0  0  0  0  0  0  0  0
    2.1634    0.3921   13.7540 N   0  0  0  0  0  0  0  0  0  0  0  0
    3.0974    1.2392   13.2246 C   0  0  0  0  0  0  0  0  0  0  0  0
    4.4044    1.2817   13.6944 C   0  0  0  0  0  0  0  0  0  0  0  0
    4.7423    0.4925   14.7592 N   0  0  0  0  0  0  0  0  0  0  0  0
    5.8954    0.3870   15.4778 C   0  0  0  0  0  0  0  0  0  0  0  0
    5.5990   -0.5412   16.5094 C   0  0  0  0  0  0  0  0  0  0  0  0
    4.3871   -1.0534   16.3565 N   0  0  0  0  0  0  0  0  0  0  0  0
    3.8359   -0.3945   15.3234 C   0  0  0  0  0  0  0  0  0  0  0  0
    2.6253    2.1534   12.1201 C   0  0  0  0  0  0  0  0  0  0  0  0
    3.5412    2.6427   11.1681 C   0  0  0  0  0  0  0  0  0  0  0  0
    3.1527    3.4644   10.1100 C   0  0  0  0  0  0  0  0  0  0  0  0
    1.8061    3.8184   10.0146 C   0  0  0  0  0  0  0  0  0  0  0  0
    0.9967    4.6031    9.1196 C   0  0  0  0  0  0  0  0  0  0  0  0
   -0.2439    4.6096    9.5190 N   0  0  0  0  0  0  0  0  0  0  0  0
   -0.3333    3.8812   10.6311 N   0  0  0  0  0  0  0  0  0  0  0  0
    0.8847    3.3487   10.9898 C   0  0  3  0  0  0  0  0  0  0  0  0
    1.2610    2.5149   12.0531 C   0  0  0  0  0  0  0  0  0  0  0  0
   -0.5302   -0.8124   14.2060 C   0  0  0  0  0  0  0  0  0  0  0  0
   -1.8875   -1.0872   14.0350 C   0  0  0  0  0  0  0  0  0  0  0  0
   -4.2696   -4.4079   12.7930 H   0  0  0  0  0  0  0  0  0  0  0  0
   -5.4876   -3.5500   11.7895 H   0  0  0  0  0  0  0  0  0  0  0  0
   -3.7809   -1.9459   12.5321 H   0  0  0  0  0  0  0  0  0  0  0  0
   -5.3368   -1.5847   13.3540 H   0  0  0  0  0  0  0  0  0  0  0  0
   -4.2654   -2.6071   16.6285 H   0  0  0  0  0  0  0  0  0  0  0  0
   -5.5909   -1.9075   15.6385 H   0  0  0  0  0  0  0  0  0  0  0  0
   -6.1485   -4.2002   16.4208 H   0  0  0  0  0  0  0  0  0  0  0  0
   -4.6844   -4.8386   15.5989 H   0  0  0  0  0  0  0  0  0  0  0  0
   -2.2224   -3.6171   16.2739 H   0  0  0  0  0  0  0  0  0  0  0  0
    0.1860   -3.1911   16.5199 H   0  0  0  0  0  0  0  0  0  0  0  0
    5.0593    0.9960   12.8580 H   0  0  0  0  0  0  0  0  0  0  0  0
    4.6116    2.3226   13.9833 H   0  0  0  0  0  0  0  0  0  0  0  0
    6.8303    0.8980   15.3009 H   0  0  0  0  0  0  0  0  0  0  0  0
    6.2731   -0.7965   17.3137 H   0  0  0  0  0  0  0  0  0  0  0  0
    4.5825    2.3716   11.2609 H   0  0  0  0  0  0  0  0  0  0  0  0
    3.8727    3.8163    9.3860 H   0  0  0  0  0  0  0  0  0  0  0  0
    1.3650    5.1137    8.2421 H   0  0  0  0  0  0  0  0  0  0  0  0
    1.0895    4.2335   11.6104 H   0  0  0  0  0  0  0  0  0  0  0  0
    0.5449    2.1672   12.7829 H   0  0  0  0  0  0  0  0  0  0  0  0
   -0.0651   -0.0124   13.6491 H   0  0  0  0  0  0  0  0  0  0  0  0
   -2.4682   -0.5085   13.3319 H   0  0  0  0  0  0  0  0  0  0  0  0
  1  2  2  0  0  0  0
  2  3  2  0  0  0  0
  2  4  1  0  0  0  0
  2  8  1  0  0  0  0
  4  5  1  0  0  0  0
  5  6  1  0  0  0  0
  6  7  1  0  0  0  0
  6  9  1  0  0  0  0
  7  8  1  0  0  0  0
  9 10  2  0  0  0  0
  9 33  1  0  0  0  0
 10 11  1  0  0  0  0
 11 12  2  0  0  0  0
 12 13  1  0  0  0  0
 12 32  1  0  0  0  0
 13 14  2  0  0  0  0
 14 15  1  0  0  0  0
 14 22  1  0  0  0  0
 15 16  2  0  0  0  0
 16 17  1  0  0  0  0
 16 23  1  0  0  0  0
 17 18  1  0  0  0  0
 18 19  1  0  0  0  0
 18 22  1  0  0  0  0
 19 20  2  0  0  0  0
 20 21  1  0  0  0  0
 21 22  2  0  0  0  0
 23 24  1  0  0  0  0
 23 31  2  0  0  0  0
 24 25  2  0  0  0  0
 25 26  1  0  0  0  0
 26 27  2  0  0  0  0
 26 30  1  0  0  0  0
 27 28  1  0  0  0  0
 28 29  2  0  0  0  0
 29 30  1  0  0  0  0
 30 31  1  0  0  0  0
 32 33  2  0  0  0  0
  4 34  1  0  0  0  0
  4 35  1  0  0  0  0
  5 36  1  0  0  0  0
  5 37  1  0  0  0  0
  7 38  1  0  0  0  0
  7 39  1  0  0  0  0
  8 40  1  0  0  0  0
  8 41  1  0  0  0  0
 10 42  1  0  0  0  0
 11 43  1  0  0  0  0
 17 44  1  0  0  0  0
 17 45  1  0  0  0  0
 19 46  1  0  0  0  0
 20 47  1  0  0  0  0
 24 48  1  0  0  0  0
 25 49  1  0  0  0  0
 27 50  1  0  0  0  0
 30 51  1  0  0  0  0
 31 52  1  0  0  0  0
 32 53  1  0  0  0  0
 33 54  1  0  0  0  0
M  END
> <IC50[nM]>
2.1

$$$$
CHEMBL3265033
  -OEChem-05192314333D
 Structure written by MMmdl.
 54 59  0     0  0  0  0  0  0999 V2000
   -6.7377   -5.5954   13.7078 O   0  0  0  0  0  0  0  0  0  0  0  0
   -6.4109   -4.1827   13.9768 S   0  0  0  0  0  0  0  0  0  0  0  0
   -7.4853   -3.1691   13.9645 O   0  0  0  0  0  0  0  0  0  0  0  0
   -5.0718   -3.6553   12.8024 C   0  0  0  0  0  0  0  0  0  0  0  0
   -4.5093   -2.3051   13.2740 C   0  0  0  0  0  0  0  0  0  0  0  0
   -3.8452   -2.4085   14.5766 N   0  0  0  0  0  0  0  0  0  0  0  0
   -4.8019   -2.6733   15.6705 C   0  0  0  0  0  0  0  0  0  0  0  0
   -5.4613   -4.0603   15.5733 C   0  0  0  0  0  0  0  0  0  0  0  0
   -2.5026   -2.1121   14.7721 C   0  0  0  0  0  0  0  0  0  0  0  0
   -1.7498   -2.8472   15.6821 C   0  0  0  0  0  0  0  0  0  0  0  0
   -0.3947   -2.5947   15.8318 C   0  0  0  0  0  0  0  0  0  0  0  0
    0.2287   -1.5788   15.1039 C   0  0  0  0  0  0  0  0  0  0  0  0
    1.6093   -1.3648   15.3339 N   0  0  0  0  0  0  0  0  0  0  0  0
    2.5318   -0.4383   14.7801 C   0  0  0  0  0  0  0  0  0  0  0  0
    2.1634    0.3921   13.7540 N   0  0  0  0  0  0  0  0  0  0  0  0
    3.0974    1.2392   13.2246 C   0  0  0  0  0  0  0  0  0  0  0  0
    4.4044    1.2817   13.6944 C   0  0  0  0  0  0  0  0  0  0  0  0
    4.7423    0.4925   14.7592 N   0  0  0  0  0  0  0  0  0  0  0  0
    5.8954    0.3870   15.4778 C   0  0  0  0  0  0  0  0  0  0  0  0
    5.5990   -0.5412   16.5094 C   0  0  0  0  0  0  0  0  0  0  0  0
    4.3871   -1.0534   16.3565 N   0  0  0  0  0  0  0  0  0  0  0  0
    3.8359   -0.3945   15.3234 C   0  0  0  0  0  0  0  0  0  0  0  0
    2.6253    2.1534   12.1201 C   0  0  0  0  0  0  0  0  0  0  0  0
    3.5412    2.6427   11.1681 C   0  0  0  0  0  0  0  0  0  0  0  0
    3.1527    3.4644   10.1100 C   0  0  0  0  0  0  0  0  0  0  0  0
    1.8061    3.8184   10.0146 C   0  0  0  0  0  0  0  0  0  0  0  0
    0.9967    4.6031    9.1196 C   0  0  0  0  0  0  0  0  0  0  0  0
   -0.2439    4.6096    9.5190 N   0  0  0  0  0  0  0  0  0  0  0  0
   -0.3333    3.8812   10.6311 N   0  0  0  0  0  0  0  0  0  0  0  0
    0.8847    3.3487   10.9898 C   0  0  0  0  0  0  0  0  0  0  0  0
    1.2610    2.5149   12.0531 C   0  0  0  0  0  0  0  0  0  0  0  0
   -0.5302   -0.8124   14.2060 C   0  0  0  0  0  0  0  0  0  0  0  0
   -1.8875   -1.0872   14.0350 C   0  0  0  0  0  0  0  0  0  0  0  0
   -4.2696   -4.4079   12.7930 H   0  0  0  0  0  0  0  0  0  0  0  0
   -5.4876   -3.5500   11.7895 H   0  0  0  0  0  0  0  0  0  0  0  0
   -3.7809   -1.9459   12.5321 H   0  0  0  0  0  0  0  0  0  0  0  0
   -5.3368   -1.5847   13.3540 H   0  0  0  0  0  0  0  0  0  0  0  0
   -4.2654   -2.6071   16.6285 H   0  0  0  0  0  0  0  0  0  0  0  0
   -5.5909   -1.9075   15.6385 H   0  0  0  0  0  0  0  0  0  0  0  0
   -6.1485   -4.2002   16.4208 H   0  0  0  0  0  0  0  0  0  0  0  0
   -4.6844   -4.8386   15.5989 H   0  0  0  0  0  0  0  0  0  0  0  0
   -2.2224   -3.6171   16.2739 H   0  0  0  0  0  0  0  0  0  0  0  0
    0.1860   -3.1911   16.5199 H   0  0  0  0  0  0  0  0  0  0  0  0
    5.0593    0.9960   12.8580 H   0  0  0  0  0  0  0  0  0  0  0  0
    4.6116    2.3226   13.9833 H   0  0  0  0  0  0  0  0  0  0  0  0
    6.8303    0.8980   15.3009 H   0  0  0  0  0  0  0  0  0  0  0  0
    6.2731   -0.7965   17.3137 H   0  0  0  0  0  0  0  0  0  0  0  0
    4.5825    2.3716   11.2609 H   0  0  0  0  0  0  0  0  0  0  0  0
    3.7309    4.3967   10.1907 H   0  0  0  0  0  0  0  0  0  0  0  0
    3.4213    2.9459    9.1778 H   0  0  0  0  0  0  0  0  0  0  0  0
    1.3650    5.1137    8.2421 H   0  0  0  0  0  0  0  0  0  0  0  0
    0.5449    2.1672   12.7829 H   0  0  0  0  0  0  0  0  0  0  0  0
   -0.0651   -0.0124   13.6491 H   0  0  0  0  0  0  0  0  0  0  0  0
   -2.4682   -0.5085   13.3319 H   0  0  0  0  0  0  0  0  0  0  0  0
  1  2  2  0  0  0  0
  2  3  2  0  0  0  0
  2  4  1  0  0  0  0
  2  8  1  0  0  0  0
  4  5  1  0  0  0  0
  5  6  1  0  0  0  0
  6  7  1  0  0  0  0
  6  9  1  0  0  0  0
  7  8  1  0  0  0  0
  9 10  2  0  0  0  0
  9 33  1  0  0  0  0
 10 11  1  0  0  0  0
 11 12  2  0  0  0  0
 12 13  1  0  0  0  0
 12 32  1  0  0  0  0
 13 14  2  0  0  0  0
 14 15  1  0  0  0  0
 14 22  1  0  0  0  0
 15 16  2  0  0  0  0
 16 17  1  0  0  0  0
 16 23  1  0  0  0  0
 17 18  1  0  0  0  0
 18 19  1  0  0  0  0
 18 22  1  0  0  0  0
 19 20  2  0  0  0  0
 20 21  1  0  0  0  0
 21 22  2  0  0  0  0
 23 24  2  0  0  0  0
 23 31  1  0  0  0  0
 24 25  1  0  0  0  0
 25 26  1  0  0  0  0
 26 27  2  0  0  0  0
 26 30  1  0  0  0  0
 27 28  1  0  0  0  0
 28 29  2  0  0  0  0
 29 30  1  0  0  0  0
 30 31  2  0  0  0  0
 32 33  2  0  0  0  0
  4 34  1  0  0  0  0
  4 35  1  0  0  0  0
  5 36  1  0  0  0  0
  5 37  1  0  0  0  0
  7 38  1  0  0  0  0
  7 39  1  0  0  0  0
  8 40  1  0  0  0  0
  8 41  1  0  0  0  0
 10 42  1  0  0  0  0
 11 43  1  0  0  0  0
 17 44  1  0  0  0  0
 17 45  1  0  0  0  0
 19 46  1  0  0  0  0
 20 47  1  0  0  0  0
 24 48  1  0  0  0  0
 25 49  1  0  0  0  0
 25 50  1  0  0  0  0
 27 51  1  0  0  0  0
 31 52  1  0  0  0  0
 32 53  1  0  0  0  0
 33 54  1  0  0  0  0
M  END
> <IC50[nM]>
2.1

$$$$
CHEMBL3265033
  -OEChem-05192314333D
 Structure written by MMmdl.
 54 59  0     0  0  0  0  0  0999 V2000
   -6.7377   -5.5954   13.7078 O   0  0  0  0  0  0  0  0  0  0  0  0
   -6.4109   -4.1827   13.9768 S   0  0  0  0  0  0  0  0  0  0  0  0
   -7.4853   -3.1691   13.9645 O   0  0  0  0  0  0  0  0  0  0  0  0
   -5.0718   -3.6553   12.8024 C   0  0  0  0  0  0  0  0  0  0  0  0
   -4.5093   -2.3051   13.2740 C   0  0  0  0  0  0  0  0  0  0  0  0
   -3.8452   -2.4085   14.5766 N   0  0  0  0  0  0  0  0  0  0  0  0
   -4.8019   -2.6733   15.6705 C   0  0  0  0  0  0  0  0  0  0  0  0
   -5.4613   -4.0603   15.5733 C   0  0  0  0  0  0  0  0  0  0  0  0
   -2.5026   -2.1121   14.7721 C   0  0  0  0  0  0  0  0  0  0  0  0
   -1.7498   -2.8472   15.6821 C   0  0  0  0  0  0  0  0  0  0  0  0
   -0.3947   -2.5947   15.8318 C   0  0  0  0  0  0  0  0  0  0  0  0
    0.2287   -1.5788   15.1039 C   0  0  0  0  0  0  0  0  0  0  0  0
    1.6093   -1.3648   15.3339 N   0  0  0  0  0  0  0  0  0  0  0  0
    2.5318   -0.4383   14.7801 C   0  0  0  0  0  0  0  0  0  0  0  0
    2.1634    0.3921   13.7540 N   0  0  0  0  0  0  0  0  0  0  0  0
    3.0974    1.2392   13.2246 C   0  0  0  0  0  0  0  0  0  0  0  0
    4.4044    1.2817   13.6944 C   0  0  0  0  0  0  0  0  0  0  0  0
    4.7423    0.4925   14.7592 N   0  0  0  0  0  0  0  0  0  0  0  0
    5.8954    0.3870   15.4778 C   0  0  0  0  0  0  0  0  0  0  0  0
    5.5990   -0.5412   16.5094 C   0  0  0  0  0  0  0  0  0  0  0  0
    4.3871   -1.0534   16.3565 N   0  0  0  0  0  0  0  0  0  0  0  0
    3.8359   -0.3945   15.3234 C   0  0  0  0  0  0  0  0  0  0  0  0
    2.6253    2.1534   12.1201 C   0  0  0  0  0  0  0  0  0  0  0  0
    3.5412    2.6427   11.1681 C   0  0  0  0  0  0  0  0  0  0  0  0
    3.1527    3.4644   10.1100 C   0  0  0  0  0  0  0  0  0  0  0  0
    1.8061    3.8184   10.0146 C   0  0  0  0  0  0  0  0  0  0  0  0
    0.9967    4.6031    9.1196 C   0  0  0  0  0  0  0  0  0  0  0  0
   -0.2439    4.6096    9.5190 N   0  0  0  0  0  0  0  0  0  0  0  0
   -0.3333    3.8812   10.6311 N   0  0  0  0  0  0  0  0  0  0  0  0
    0.8847    3.3487   10.9898 C   0  0  0  0  0  0  0  0  0  0  0  0
    1.2610    2.5149   12.0531 C   0  0  0  0  0  0  0  0  0  0  0  0
   -0.5302   -0.8124   14.2060 C   0  0  0  0  0  0  0  0  0  0  0  0
   -1.8875   -1.0872   14.0350 C   0  0  0  0  0  0  0  0  0  0  0  0
   -4.2696   -4.4079   12.7930 H   0  0  0  0  0  0  0  0  0  0  0  0
   -5.4876   -3.5500   11.7895 H   0  0  0  0  0  0  0  0  0  0  0  0
   -3.7809   -1.9459   12.5321 H   0  0  0  0  0  0  0  0  0  0  0  0
   -5.3368   -1.5847   13.3540 H   0  0  0  0  0  0  0  0  0  0  0  0
   -4.2654   -2.6071   16.6285 H   0  0  0  0  0  0  0  0  0  0  0  0
   -5.5909   -1.9075   15.6385 H   0  0  0  0  0  0  0  0  0  0  0  0
   -6.1485   -4.2002   16.4208 H   0  0  0  0  0  0  0  0  0  0  0  0
   -4.6844   -4.8386   15.5989 H   0  0  0  0  0  0  0  0  0  0  0  0
   -2.7688   -1.3940   15.5617 H   0  0  0  0  0  0  0  0  0  0  0  0
   -2.2224   -3.6171   16.2739 H   0  0  0  0  0  0  0  0  0  0  0  0
    0.1860   -3.1911   16.5199 H   0  0  0  0  0  0  0  0  0  0  0  0
    5.0593    0.9960   12.8580 H   0  0  0  0  0  0  0  0  0  0  0  0
    4.6116    2.3226   13.9833 H   0  0  0  0  0  0  0  0  0  0  0  0
    6.8303    0.8980   15.3009 H   0  0  0  0  0  0  0  0  0  0  0  0
    6.2731   -0.7965   17.3137 H   0  0  0  0  0  0  0  0  0  0  0  0
    4.5825    2.3716   11.2609 H   0  0  0  0  0  0  0  0  0  0  0  0
    3.8727    3.8163    9.3860 H   0  0  0  0  0  0  0  0  0  0  0  0
    1.3650    5.1137    8.2421 H   0  0  0  0  0  0  0  0  0  0  0  0
    0.5449    2.1672   12.7829 H   0  0  0  0  0  0  0  0  0  0  0  0
   -0.0651   -0.0124   13.6491 H   0  0  0  0  0  0  0  0  0  0  0  0
   -2.4682   -0.5085   13.3319 H   0  0  0  0  0  0  0  0  0  0  0  0
  1  2  2  0  0  0  0
  2  3  2  0  0  0  0
  2  4  1  0  0  0  0
  2  8  1  0  0  0  0
  4  5  1  0  0  0  0
  5  6  1  0  0  0  0
  6  7  1  0  0  0  0
  6  9  1  0  0  0  0
  7  8  1  0  0  0  0
  9 10  1  0  0  0  0
  9 33  1  0  0  0  0
 10 11  2  0  0  0  0
 11 12  1  0  0  0  0
 12 13  2  0  0  0  0
 12 32  1  0  0  0  0
 13 14  1  0  0  0  0
 14 15  2  0  0  0  0
 14 22  1  0  0  0  0
 15 16  1  0  0  0  0
 16 17  1  0  0  0  0
 16 23  2  0  0  0  0
 17 18  1  0  0  0  0
 18 19  1  0  0  0  0
 18 22  1  0  0  0  0
 19 20  2  0  0  0  0
 20 21  1  0  0  0  0
 21 22  2  0  0  0  0
 23 24  1  0  0  0  0
 23 31  1  0  0  0  0
 24 25  2  0  0  0  0
 25 26  1  0  0  0  0
 26 27  2  0  0  0  0
 26 30  1  0  0  0  0
 27 28  1  0  0  0  0
 28 29  2  0  0  0  0
 29 30  1  0  0  0  0
 30 31  2  0  0  0  0
 32 33  2  0  0  0  0
  4 34  1  0  0  0  0
  4 35  1  0  0  0  0
  5 36  1  0  0  0  0
  5 37  1  0  0  0  0
  7 38  1  0  0  0  0
  7 39  1  0  0  0  0
  8 40  1  0  0  0  0
  8 41  1  0  0  0  0
  9 42  1  0  0  0  0
 10 43  1  0  0  0  0
 11 44  1  0  0  0  0
 17 45  1  0  0  0  0
 17 46  1  0  0  0  0
 19 47  1  0  0  0  0
 20 48  1  0  0  0  0
 24 49  1  0  0  0  0
 25 50  1  0  0  0  0
 27 51  1  0  0  0  0
 31 52  1  0  0  0  0
 32 53  1  0  0  0  0
 33 54  1  0  0  0  0
M  END
> <IC50[nM]>
2.1

$$$$
CHEMBL3265033
  -OEChem-05192314333D
 Structure written by MMmdl.
 54 59  0     0  0  0  0  0  0999 V2000
   -6.7377   -5.5954   13.7078 O   0  0  0  0  0  0  0  0  0  0  0  0
   -6.4109   -4.1827   13.9768 S   0  0  0  0  0  0  0  0  0  0  0  0
   -7.4853   -3.1691   13.9645 O   0  0  0  0  0  0  0  0  0  0  0  0
   -5.0718   -3.6553   12.8024 C   0  0  0  0  0  0  0  0  0  0  0  0
   -4.5093   -2.3051   13.2740 C   0  0  0  0  0  0  0  0  0  0  0  0
   -3.8452   -2.4085   14.5766 N   0  0  0  0  0  0  0  0  0  0  0  0
   -4.8019   -2.6733   15.6705 C   0  0  0  0  0  0  0  0  0  0  0  0
   -5.4613   -4.0603   15.5733 C   0  0  0  0  0  0  0  0  0  0  0  0
   -2.5026   -2.1121   14.7721 C   0  0  0  0  0  0  0  0  0  0  0  0
   -1.7498   -2.8472   15.6821 C   0  0  0  0  0  0  0  0  0  0  0  0
   -0.3947   -2.5947   15.8318 C   0  0  0  0  0  0  0  0  0  0  0  0
    0.2287   -1.5788   15.1039 C   0  0  0  0  0  0  0  0  0  0  0  0
    1.6093   -1.3648   15.3339 N   0  0  0  0  0  0  0  0  0  0  0  0
    2.5318   -0.4383   14.7801 C   0  0  0  0  0  0  0  0  0  0  0  0
    2.1634    0.3921   13.7540 N   0  0  0  0  0  0  0  0  0  0  0  0
    3.0974    1.2392   13.2246 C   0  0  0  0  0  0  0  0  0  0  0  0
    4.4044    1.2817   13.6944 C   0  0  0  0  0  0  0  0  0  0  0  0
    4.7423    0.4925   14.7592 N   0  0  0  0  0  0  0  0  0  0  0  0
    5.8954    0.3870   15.4778 C   0  0  0  0  0  0  0  0  0  0  0  0
    5.5990   -0.5412   16.5094 C   0  0  0  0  0  0  0  0  0  0  0  0
    4.3871   -1.0534   16.3565 N   0  0  0  0  0  0  0  0  0  0  0  0
    3.8359   -0.3945   15.3234 C   0  0  0  0  0  0  0  0  0  0  0  0
    2.6253    2.1534   12.1201 C   0  0  0  0  0  0  0  0  0  0  0  0
    3.5412    2.6427   11.1681 C   0  0  0  0  0  0  0  0  0  0  0  0
    3.1527    3.4644   10.1100 C   0  0  0  0  0  0  0  0  0  0  0  0
    1.8061    3.8184   10.0146 C   0  0  0  0  0  0  0  0  0  0  0  0
    0.9967    4.6031    9.1196 C   0  0  0  0  0  0  0  0  0  0  0  0
   -0.2439    4.6096    9.5190 N   0  0  0  0  0  0  0  0  0  0  0  0
   -0.3333    3.8812   10.6311 N   0  0  0  0  0  0  0  0  0  0  0  0
    0.8847    3.3487   10.9898 C   0  0  0  0  0  0  0  0  0  0  0  0
    1.2610    2.5149   12.0531 C   0  0  0  0  0  0  0  0  0  0  0  0
   -0.5302   -0.8124   14.2060 C   0  0  0  0  0  0  0  0  0  0  0  0
   -1.8875   -1.0872   14.0350 C   0  0  0  0  0  0  0  0  0  0  0  0
   -4.2696   -4.4079   12.7930 H   0  0  0  0  0  0  0  0  0  0  0  0
   -5.4876   -3.5500   11.7895 H   0  0  0  0  0  0  0  0  0  0  0  0
   -3.7809   -1.9459   12.5321 H   0  0  0  0  0  0  0  0  0  0  0  0
   -5.3368   -1.5847   13.3540 H   0  0  0  0  0  0  0  0  0  0  0  0
   -4.2654   -2.6071   16.6285 H   0  0  0  0  0  0  0  0  0  0  0  0
   -5.5909   -1.9075   15.6385 H   0  0  0  0  0  0  0  0  0  0  0  0
   -6.1485   -4.2002   16.4208 H   0  0  0  0  0  0  0  0  0  0  0  0
   -4.6844   -4.8386   15.5989 H   0  0  0  0  0  0  0  0  0  0  0  0
   -2.2224   -3.6171   16.2739 H   0  0  0  0  0  0  0  0  0  0  0  0
    0.1860   -3.1911   16.5199 H   0  0  0  0  0  0  0  0  0  0  0  0
    5.0593    0.9960   12.8580 H   0  0  0  0  0  0  0  0  0  0  0  0
    4.6116    2.3226   13.9833 H   0  0  0  0  0  0  0  0  0  0  0  0
    6.8303    0.8980   15.3009 H   0  0  0  0  0  0  0  0  0  0  0  0
    6.2731   -0.7965   17.3137 H   0  0  0  0  0  0  0  0  0  0  0  0
    4.5825    2.3716   11.2609 H   0  0  0  0  0  0  0  0  0  0  0  0
    3.8727    3.8163    9.3860 H   0  0  0  0  0  0  0  0  0  0  0  0
    1.3650    5.1137    8.2421 H   0  0  0  0  0  0  0  0  0  0  0  0
    0.5449    2.1672   12.7829 H   0  0  0  0  0  0  0  0  0  0  0  0
   -0.4564    0.2335   14.5385 H   0  0  0  0  0  0  0  0  0  0  0  0
   -0.0571   -0.9175   13.2185 H   0  0  0  0  0  0  0  0  0  0  0  0
   -2.4682   -0.5085   13.3319 H   0  0  0  0  0  0  0  0  0  0  0  0
  1  2  2  0  0  0  0
  2  3  2  0  0  0  0
  2  4  1  0  0  0  0
  2  8  1  0  0  0  0
  4  5  1  0  0  0  0
  5  6  1  0  0  0  0
  6  7  1  0  0  0  0
  6  9  1  0  0  0  0
  7  8  1  0  0  0  0
  9 10  1  0  0  0  0
  9 33  2  0  0  0  0
 10 11  2  0  0  0  0
 11 12  1  0  0  0  0
 12 13  2  0  0  0  0
 12 32  1  0  0  0  0
 13 14  1  0  0  0  0
 14 15  2  0  0  0  0
 14 22  1  0  0  0  0
 15 16  1  0  0  0  0
 16 17  1  0  0  0  0
 16 23  2  0  0  0  0
 17 18  1  0  0  0  0
 18 19  1  0  0  0  0
 18 22  1  0  0  0  0
 19 20  2  0  0  0  0
 20 21  1  0  0  0  0
 21 22  2  0  0  0  0
 23 24  1  0  0  0  0
 23 31  1  0  0  0  0
 24 25  2  0  0  0  0
 25 26  1  0  0  0  0
 26 27  2  0  0  0  0
 26 30  1  0  0  0  0
 27 28  1  0  0  0  0
 28 29  2  0  0  0  0
 29 30  1  0  0  0  0
 30 31  2  0  0  0  0
 32 33  1  0  0  0  0
  4 34  1  0  0  0  0
  4 35  1  0  0  0  0
  5 36  1  0  0  0  0
  5 37  1  0  0  0  0
  7 38  1  0  0  0  0
  7 39  1  0  0  0  0
  8 40  1  0  0  0  0
  8 41  1  0  0  0  0
 10 42  1  0  0  0  0
 11 43  1  0  0  0  0
 17 44  1  0  0  0  0
 17 45  1  0  0  0  0
 19 46  1  0  0  0  0
 20 47  1  0  0  0  0
 24 48  1  0  0  0  0
 25 49  1  0  0  0  0
 27 50  1  0  0  0  0
 31 51  1  0  0  0  0
 32 52  1  0  0  0  0
 32 53  1  0  0  0  0
 33 54  1  0  0  0  0
M  END
> <IC50[nM]>
2.1

$$$$
CHEMBL3265033
  -OEChem-05192314333D
 Structure written by MMmdl.
 54 59  0     1  0  0  0  0  0999 V2000
   -6.7377   -5.5954   13.7078 O   0  0  0  0  0  0  0  0  0  0  0  0
   -6.4109   -4.1827   13.9768 S   0  0  0  0  0  0  0  0  0  0  0  0
   -7.4853   -3.1691   13.9645 O   0  0  0  0  0  0  0  0  0  0  0  0
   -5.0718   -3.6553   12.8024 C   0  0  0  0  0  0  0  0  0  0  0  0
   -4.5093   -2.3051   13.2740 C   0  0  0  0  0  0  0  0  0  0  0  0
   -3.8452   -2.4085   14.5766 N   0  0  0  0  0  0  0  0  0  0  0  0
   -4.8019   -2.6733   15.6705 C   0  0  0  0  0  0  0  0  0  0  0  0
   -5.4613   -4.0603   15.5733 C   0  0  0  0  0  0  0  0  0  0  0  0
   -2.5026   -2.1121   14.7721 C   0  0  0  0  0  0  0  0  0  0  0  0
   -1.7498   -2.8472   15.6821 C   0  0  0  0  0  0  0  0  0  0  0  0
   -0.3947   -2.5947   15.8318 C   0  0  0  0  0  0  0  0  0  0  0  0
    0.2287   -1.5788   15.1039 C   0  0  0  0  0  0  0  0  0  0  0  0
    1.6093   -1.3648   15.3339 N   0  0  0  0  0  0  0  0  0  0  0  0
    2.5318   -0.4383   14.7801 C   0  0  0  0  0  0  0  0  0  0  0  0
    2.1634    0.3921   13.7540 N   0  0  0  0  0  0  0  0  0  0  0  0
    3.0974    1.2392   13.2246 C   0  0  0  0  0  0  0  0  0  0  0  0
    4.4044    1.2817   13.6944 C   0  0  0  0  0  0  0  0  0  0  0  0
    4.7423    0.4925   14.7592 N   0  0  0  0  0  0  0  0  0  0  0  0
    5.8954    0.3870   15.4778 C   0  0  0  0  0  0  0  0  0  0  0  0
    5.5990   -0.5412   16.5094 C   0  0  0  0  0  0  0  0  0  0  0  0
    4.3871   -1.0534   16.3565 N   0  0  0  0  0  0  0  0  0  0  0  0
    3.8359   -0.3945   15.3234 C   0  0  0  0  0  0  0  0  0  0  0  0
    2.6253    2.1534   12.1201 C   0  0  0  0  0  0  0  0  0  0  0  0
    3.5412    2.6427   11.1681 C   0  0  0  0  0  0  0  0  0  0  0  0
    3.1527    3.4644   10.1100 C   0  0  0  0  0  0  0  0  0  0  0  0
    1.8061    3.8184   10.0146 C   0  0  3  0  0  0  0  0  0  0  0  0
    0.9967    4.6031    9.1196 C   0  0  0  0  0  0  0  0  0  0  0  0
   -0.2439    4.6096    9.5190 N   0  0  0  0  0  0  0  0  0  0  0  0
   -0.3333    3.8812   10.6311 N   0  0  0  0  0  0  0  0  0  0  0  0
    0.8847    3.3487   10.9898 C   0  0  0  0  0  0  0  0  0  0  0  0
    1.2610    2.5149   12.0531 C   0  0  0  0  0  0  0  0  0  0  0  0
   -0.5302   -0.8124   14.2060 C   0  0  0  0  0  0  0  0  0  0  0  0
   -1.8875   -1.0872   14.0350 C   0  0  0  0  0  0  0  0  0  0  0  0
   -4.2696   -4.4079   12.7930 H   0  0  0  0  0  0  0  0  0  0  0  0
   -5.4876   -3.5500   11.7895 H   0  0  0  0  0  0  0  0  0  0  0  0
   -3.7809   -1.9459   12.5321 H   0  0  0  0  0  0  0  0  0  0  0  0
   -5.3368   -1.5847   13.3540 H   0  0  0  0  0  0  0  0  0  0  0  0
   -4.2654   -2.6071   16.6285 H   0  0  0  0  0  0  0  0  0  0  0  0
   -5.5909   -1.9075   15.6385 H   0  0  0  0  0  0  0  0  0  0  0  0
   -6.1485   -4.2002   16.4208 H   0  0  0  0  0  0  0  0  0  0  0  0
   -4.6844   -4.8386   15.5989 H   0  0  0  0  0  0  0  0  0  0  0  0
   -2.7688   -1.3940   15.5617 H   0  0  0  0  0  0  0  0  0  0  0  0
   -2.2224   -3.6171   16.2739 H   0  0  0  0  0  0  0  0  0  0  0  0
    0.1860   -3.1911   16.5199 H   0  0  0  0  0  0  0  0  0  0  0  0
    5.1375    1.9239   13.2289 H   0  0  0  0  0  0  0  0  0  0  0  0
    6.8303    0.8980   15.3009 H   0  0  0  0  0  0  0  0  0  0  0  0
    6.2731   -0.7965   17.3137 H   0  0  0  0  0  0  0  0  0  0  0  0
    4.5825    2.3716   11.2609 H   0  0  0  0  0  0  0  0  0  0  0  0
    3.8727    3.8163    9.3860 H   0  0  0  0  0  0  0  0  0  0  0  0
    1.9976    4.7126   10.6259 H   0  0  0  0  0  0  0  0  0  0  0  0
    1.3650    5.1137    8.2421 H   0  0  0  0  0  0  0  0  0  0  0  0
    0.5449    2.1672   12.7829 H   0  0  0  0  0  0  0  0  0  0  0  0
   -0.0651   -0.0124   13.6491 H   0  0  0  0  0  0  0  0  0  0  0  0
   -2.4682   -0.5085   13.3319 H   0  0  0  0  0  0  0  0  0  0  0  0
  1  2  2  0  0  0  0
  2  3  2  0  0  0  0
  2  4  1  0  0  0  0
  2  8  1  0  0  0  0
  4  5  1  0  0  0  0
  5  6  1  0  0  0  0
  6  7  1  0  0  0  0
  6  9  1  0  0  0  0
  7  8  1  0  0  0  0
  9 10  1  0  0  0  0
  9 33  1  0  0  0  0
 10 11  2  0  0  0  0
 11 12  1  0  0  0  0
 12 13  2  0  0  0  0
 12 32  1  0  0  0  0
 13 14  1  0  0  0  0
 14 15  2  0  0  0  0
 14 22  1  0  0  0  0
 15 16  1  0  0  0  0
 16 17  2  0  0  0  0
 16 23  1  0  0  0  0
 17 18  1  0  0  0  0
 18 19  1  0  0  0  0
 18 22  1  0  0  0  0
 19 20  2  0  0  0  0
 20 21  1  0  0  0  0
 21 22  2  0  0  0  0
 23 24  1  0  0  0  0
 23 31  2  0  0  0  0
 24 25  2  0  0  0  0
 25 26  1  0  0  0  0
 26 27  1  0  0  0  0
 26 30  1  0  0  0  0
 27 28  2  0  0  0  0
 28 29  1  0  0  0  0
 29 30  2  0  0  0  0
 30 31  1  0  0  0  0
 32 33  2  0  0  0  0
  4 34  1  0  0  0  0
  4 35  1  0  0  0  0
  5 36  1  0  0  0  0
  5 37  1  0  0  0  0
  7 38  1  0  0  0  0
  7 39  1  0  0  0  0
  8 40  1  0  0  0  0
  8 41  1  0  0  0  0
  9 42  1  0  0  0  0
 10 43  1  0  0  0  0
 11 44  1  0  0  0  0
 17 45  1  0  0  0  0
 19 46  1  0  0  0  0
 20 47  1  0  0  0  0
 24 48  1  0  0  0  0
 25 49  1  0  0  0  0
 26 50  1  0  0  0  0
 27 51  1  0  0  0  0
 31 52  1  0  0  0  0
 32 53  1  0  0  0  0
 33 54  1  0  0  0  0
M  END
> <IC50[nM]>
2.1

$$$$
CHEMBL3265033
  -OEChem-05192314333D
 Structure written by MMmdl.
 54 59  0     1  0  0  0  0  0999 V2000
   -6.7377   -5.5954   13.7078 O   0  0  0  0  0  0  0  0  0  0  0  0
   -6.4109   -4.1827   13.9768 S   0  0  0  0  0  0  0  0  0  0  0  0
   -7.4853   -3.1691   13.9645 O   0  0  0  0  0  0  0  0  0  0  0  0
   -5.0718   -3.6553   12.8024 C   0  0  0  0  0  0  0  0  0  0  0  0
   -4.5093   -2.3051   13.2740 C   0  0  0  0  0  0  0  0  0  0  0  0
   -3.8452   -2.4085   14.5766 N   0  0  0  0  0  0  0  0  0  0  0  0
   -4.8019   -2.6733   15.6705 C   0  0  0  0  0  0  0  0  0  0  0  0
   -5.4613   -4.0603   15.5733 C   0  0  0  0  0  0  0  0  0  0  0  0
   -2.5026   -2.1121   14.7721 C   0  0  0  0  0  0  0  0  0  0  0  0
   -1.7498   -2.8472   15.6821 C   0  0  0  0  0  0  0  0  0  0  0  0
   -0.3947   -2.5947   15.8318 C   0  0  0  0  0  0  0  0  0  0  0  0
    0.2287   -1.5788   15.1039 C   0  0  0  0  0  0  0  0  0  0  0  0
    1.6093   -1.3648   15.3339 N   0  0  0  0  0  0  0  0  0  0  0  0
    2.5318   -0.4383   14.7801 C   0  0  0  0  0  0  0  0  0  0  0  0
    2.1634    0.3921   13.7540 N   0  0  0  0  0  0  0  0  0  0  0  0
    3.0974    1.2392   13.2246 C   0  0  0  0  0  0  0  0  0  0  0  0
    4.4044    1.2817   13.6944 C   0  0  0  0  0  0  0  0  0  0  0  0
    4.7423    0.4925   14.7592 N   0  0  0  0  0  0  0  0  0  0  0  0
    5.8954    0.3870   15.4778 C   0  0  0  0  0  0  0  0  0  0  0  0
    5.5990   -0.5412   16.5094 C   0  0  0  0  0  0  0  0  0  0  0  0
    4.3871   -1.0534   16.3565 N   0  0  0  0  0  0  0  0  0  0  0  0
    3.8359   -0.3945   15.3234 C   0  0  0  0  0  0  0  0  0  0  0  0
    2.6253    2.1534   12.1201 C   0  0  0  0  0  0  0  0  0  0  0  0
    3.5412    2.6427   11.1681 C   0  0  0  0  0  0  0  0  0  0  0  0
    3.1527    3.4644   10.1100 C   0  0  0  0  0  0  0  0  0  0  0  0
    1.8061    3.8184   10.0146 C   0  0  3  0  0  0  0  0  0  0  0  0
    0.9967    4.6031    9.1196 C   0  0  0  0  0  0  0  0  0  0  0  0
   -0.2439    4.6096    9.5190 N   0  0  0  0  0  0  0  0  0  0  0  0
   -0.3333    3.8812   10.6311 N   0  0  0  0  0  0  0  0  0  0  0  0
    0.8847    3.3487   10.9898 C   0  0  0  0  0  0  0  0  0  0  0  0
    1.2610    2.5149   12.0531 C   0  0  0  0  0  0  0  0  0  0  0  0
   -0.5302   -0.8124   14.2060 C   0  0  0  0  0  0  0  0  0  0  0  0
   -1.8875   -1.0872   14.0350 C   0  0  0  0  0  0  0  0  0  0  0  0
   -4.2696   -4.4079   12.7930 H   0  0  0  0  0  0  0  0  0  0  0  0
   -5.4876   -3.5500   11.7895 H   0  0  0  0  0  0  0  0  0  0  0  0
   -3.7809   -1.9459   12.5321 H   0  0  0  0  0  0  0  0  0  0  0  0
   -5.3368   -1.5847   13.3540 H   0  0  0  0  0  0  0  0  0  0  0  0
   -4.2654   -2.6071   16.6285 H   0  0  0  0  0  0  0  0  0  0  0  0
   -5.5909   -1.9075   15.6385 H   0  0  0  0  0  0  0  0  0  0  0  0
   -6.1485   -4.2002   16.4208 H   0  0  0  0  0  0  0  0  0  0  0  0
   -4.6844   -4.8386   15.5989 H   0  0  0  0  0  0  0  0  0  0  0  0
   -2.2224   -3.6171   16.2739 H   0  0  0  0  0  0  0  0  0  0  0  0
    0.1860   -3.1911   16.5199 H   0  0  0  0  0  0  0  0  0  0  0  0
    5.1375    1.9239   13.2289 H   0  0  0  0  0  0  0  0  0  0  0  0
    6.8303    0.8980   15.3009 H   0  0  0  0  0  0  0  0  0  0  0  0
    6.2731   -0.7965   17.3137 H   0  0  0  0  0  0  0  0  0  0  0  0
    4.5825    2.3716   11.2609 H   0  0  0  0  0  0  0  0  0  0  0  0
    3.8727    3.8163    9.3860 H   0  0  0  0  0  0  0  0  0  0  0  0
    1.9976    4.7126   10.6259 H   0  0  0  0  0  0  0  0  0  0  0  0
    1.3650    5.1137    8.2421 H   0  0  0  0  0  0  0  0  0  0  0  0
    0.5449    2.1672   12.7829 H   0  0  0  0  0  0  0  0  0  0  0  0
   -0.4564    0.2335   14.5385 H   0  0  0  0  0  0  0  0  0  0  0  0
   -0.0571   -0.9175   13.2185 H   0  0  0  0  0  0  0  0  0  0  0  0
   -2.4682   -0.5085   13.3319 H   0  0  0  0  0  0  0  0  0  0  0  0
  1  2  2  0  0  0  0
  2  3  2  0  0  0  0
  2  4  1  0  0  0  0
  2  8  1  0  0  0  0
  4  5  1  0  0  0  0
  5  6  1  0  0  0  0
  6  7  1  0  0  0  0
  6  9  1  0  0  0  0
  7  8  1  0  0  0  0
  9 10  1  0  0  0  0
  9 33  2  0  0  0  0
 10 11  2  0  0  0  0
 11 12  1  0  0  0  0
 12 13  2  0  0  0  0
 12 32  1  0  0  0  0
 13 14  1  0  0  0  0
 14 15  2  0  0  0  0
 14 22  1  0  0  0  0
 15 16  1  0  0  0  0
 16 17  2  0  0  0  0
 16 23  1  0  0  0  0
 17 18  1  0  0  0  0
 18 19  1  0  0  0  0
 18 22  1  0  0  0  0
 19 20  2  0  0  0  0
 20 21  1  0  0  0  0
 21 22  2  0  0  0  0
 23 24  1  0  0  0  0
 23 31  2  0  0  0  0
 24 25  2  0  0  0  0
 25 26  1  0  0  0  0
 26 27  1  0  0  0  0
 26 30  1  0  0  0  0
 27 28  2  0  0  0  0
 28 29  1  0  0  0  0
 29 30  2  0  0  0  0
 30 31  1  0  0  0  0
 32 33  1  0  0  0  0
  4 34  1  0  0  0  0
  4 35  1  0  0  0  0
  5 36  1  0  0  0  0
  5 37  1  0  0  0  0
  7 38  1  0  0  0  0
  7 39  1  0  0  0  0
  8 40  1  0  0  0  0
  8 41  1  0  0  0  0
 10 42  1  0  0  0  0
 11 43  1  0  0  0  0
 17 44  1  0  0  0  0
 19 45  1  0  0  0  0
 20 46  1  0  0  0  0
 24 47  1  0  0  0  0
 25 48  1  0  0  0  0
 26 49  1  0  0  0  0
 27 50  1  0  0  0  0
 31 51  1  0  0  0  0
 32 52  1  0  0  0  0
 32 53  1  0  0  0  0
 33 54  1  0  0  0  0
M  END
> <IC50[nM]>
2.1

$$$$
CHEMBL3265033
  -OEChem-05192314333D
 Structure written by MMmdl.
 54 59  0     0  0  0  0  0  0999 V2000
   -6.7377   -5.5954   13.7078 O   0  0  0  0  0  0  0  0  0  0  0  0
   -6.4109   -4.1827   13.9768 S   0  0  0  0  0  0  0  0  0  0  0  0
   -7.4853   -3.1691   13.9645 O   0  0  0  0  0  0  0  0  0  0  0  0
   -5.0718   -3.6553   12.8024 C   0  0  0  0  0  0  0  0  0  0  0  0
   -4.5093   -2.3051   13.2740 C   0  0  0  0  0  0  0  0  0  0  0  0
   -3.8452   -2.4085   14.5766 N   0  0  0  0  0  0  0  0  0  0  0  0
   -4.8019   -2.6733   15.6705 C   0  0  0  0  0  0  0  0  0  0  0  0
   -5.4613   -4.0603   15.5733 C   0  0  0  0  0  0  0  0  0  0  0  0
   -2.5026   -2.1121   14.7721 C   0  0  0  0  0  0  0  0  0  0  0  0
   -1.7498   -2.8472   15.6821 C   0  0  0  0  0  0  0  0  0  0  0  0
   -0.3947   -2.5947   15.8318 C   0  0  0  0  0  0  0  0  0  0  0  0
    0.2287   -1.5788   15.1039 C   0  0  0  0  0  0  0  0  0  0  0  0
    1.6093   -1.3648   15.3339 N   0  0  0  0  0  0  0  0  0  0  0  0
    2.5318   -0.4383   14.7801 C   0  0  0  0  0  0  0  0  0  0  0  0
    2.1634    0.3921   13.7540 N   0  0  0  0  0  0  0  0  0  0  0  0
    3.0974    1.2392   13.2246 C   0  0  0  0  0  0  0  0  0  0  0  0
    4.4044    1.2817   13.6944 C   0  0  0  0  0  0  0  0  0  0  0  0
    4.7423    0.4925   14.7592 N   0  0  0  0  0  0  0  0  0  0  0  0
    5.8954    0.3870   15.4778 C   0  0  0  0  0  0  0  0  0  0  0  0
    5.5990   -0.5412   16.5094 C   0  0  0  0  0  0  0  0  0  0  0  0
    4.3871   -1.0534   16.3565 N   0  0  0  0  0  0  0  0  0  0  0  0
    3.8359   -0.3945   15.3234 C   0  0  0  0  0  0  0  0  0  0  0  0
    2.6253    2.1534   12.1201 C   0  0  0  0  0  0  0  0  0  0  0  0
    3.5412    2.6427   11.1681 C   0  0  0  0  0  0  0  0  0  0  0  0
    3.1527    3.4644   10.1100 C   0  0  0  0  0  0  0  0  0  0  0  0
    1.8061    3.8184   10.0146 C   0  0  0  0  0  0  0  0  0  0  0  0
    0.9967    4.6031    9.1196 C   0  0  0  0  0  0  0  0  0  0  0  0
   -0.2439    4.6096    9.5190 N   0  0  0  0  0  0  0  0  0  0  0  0
   -0.3333    3.8812   10.6311 N   0  0  0  0  0  0  0  0  0  0  0  0
    0.8847    3.3487   10.9898 C   0  0  0  0  0  0  0  0  0  0  0  0
    1.2610    2.5149   12.0531 C   0  0  0  0  0  0  0  0  0  0  0  0
   -0.5302   -0.8124   14.2060 C   0  0  0  0  0  0  0  0  0  0  0  0
   -1.8875   -1.0872   14.0350 C   0  0  0  0  0  0  0  0  0  0  0  0
   -4.2696   -4.4079   12.7930 H   0  0  0  0  0  0  0  0  0  0  0  0
   -5.4876   -3.5500   11.7895 H   0  0  0  0  0  0  0  0  0  0  0  0
   -3.7809   -1.9459   12.5321 H   0  0  0  0  0  0  0  0  0  0  0  0
   -5.3368   -1.5847   13.3540 H   0  0  0  0  0  0  0  0  0  0  0  0
   -4.2654   -2.6071   16.6285 H   0  0  0  0  0  0  0  0  0  0  0  0
   -5.5909   -1.9075   15.6385 H   0  0  0  0  0  0  0  0  0  0  0  0
   -6.1485   -4.2002   16.4208 H   0  0  0  0  0  0  0  0  0  0  0  0
   -4.6844   -4.8386   15.5989 H   0  0  0  0  0  0  0  0  0  0  0  0
   -2.7688   -1.3940   15.5617 H   0  0  0  0  0  0  0  0  0  0  0  0
   -2.2224   -3.6171   16.2739 H   0  0  0  0  0  0  0  0  0  0  0  0
    0.1860   -3.1911   16.5199 H   0  0  0  0  0  0  0  0  0  0  0  0
    5.1375    1.9239   13.2289 H   0  0  0  0  0  0  0  0  0  0  0  0
    6.8303    0.8980   15.3009 H   0  0  0  0  0  0  0  0  0  0  0  0
    6.2731   -0.7965   17.3137 H   0  0  0  0  0  0  0  0  0  0  0  0
    4.2968    3.2083   11.7331 H   0  0  0  0  0  0  0  0  0  0  0  0
    4.0103    1.7583   10.7123 H   0  0  0  0  0  0  0  0  0  0  0  0
    3.8727    3.8163    9.3860 H   0  0  0  0  0  0  0  0  0  0  0  0
    1.3650    5.1137    8.2421 H   0  0  0  0  0  0  0  0  0  0  0  0
    0.5449    2.1672   12.7829 H   0  0  0  0  0  0  0  0  0  0  0  0
   -0.0651   -0.0124   13.6491 H   0  0  0  0  0  0  0  0  0  0  0  0
   -2.4682   -0.5085   13.3319 H   0  0  0  0  0  0  0  0  0  0  0  0
  1  2  2  0  0  0  0
  2  3  2  0  0  0  0
  2  4  1  0  0  0  0
  2  8  1  0  0  0  0
  4  5  1  0  0  0  0
  5  6  1  0  0  0  0
  6  7  1  0  0  0  0
  6  9  1  0  0  0  0
  7  8  1  0  0  0  0
  9 10  1  0  0  0  0
  9 33  1  0  0  0  0
 10 11  2  0  0  0  0
 11 12  1  0  0  0  0
 12 13  2  0  0  0  0
 12 32  1  0  0  0  0
 13 14  1  0  0  0  0
 14 15  2  0  0  0  0
 14 22  1  0  0  0  0
 15 16  1  0  0  0  0
 16 17  2  0  0  0  0
 16 23  1  0  0  0  0
 17 18  1  0  0  0  0
 18 19  1  0  0  0  0
 18 22  1  0  0  0  0
 19 20  2  0  0  0  0
 20 21  1  0  0  0  0
 21 22  2  0  0  0  0
 23 24  1  0  0  0  0
 23 31  2  0  0  0  0
 24 25  1  0  0  0  0
 25 26  2  0  0  0  0
 26 27  1  0  0  0  0
 26 30  1  0  0  0  0
 27 28  2  0  0  0  0
 28 29  1  0  0  0  0
 29 30  2  0  0  0  0
 30 31  1  0  0  0  0
 32 33  2  0  0  0  0
  4 34  1  0  0  0  0
  4 35  1  0  0  0  0
  5 36  1  0  0  0  0
  5 37  1  0  0  0  0
  7 38  1  0  0  0  0
  7 39  1  0  0  0  0
  8 40  1  0  0  0  0
  8 41  1  0  0  0  0
  9 42  1  0  0  0  0
 10 43  1  0  0  0  0
 11 44  1  0  0  0  0
 17 45  1  0  0  0  0
 19 46  1  0  0  0  0
 20 47  1  0  0  0  0
 24 48  1  0  0  0  0
 24 49  1  0  0  0  0
 25 50  1  0  0  0  0
 27 51  1  0  0  0  0
 31 52  1  0  0  0  0
 32 53  1  0  0  0  0
 33 54  1  0  0  0  0
M  END
> <IC50[nM]>
2.1

$$$$
CHEMBL3265033
  -OEChem-05192314333D
 Structure written by MMmdl.
 54 59  0     0  0  0  0  0  0999 V2000
   -6.7377   -5.5954   13.7078 O   0  0  0  0  0  0  0  0  0  0  0  0
   -6.4109   -4.1827   13.9768 S   0  0  0  0  0  0  0  0  0  0  0  0
   -7.4853   -3.1691   13.9645 O   0  0  0  0  0  0  0  0  0  0  0  0
   -5.0718   -3.6553   12.8024 C   0  0  0  0  0  0  0  0  0  0  0  0
   -4.5093   -2.3051   13.2740 C   0  0  0  0  0  0  0  0  0  0  0  0
   -3.8452   -2.4085   14.5766 N   0  0  0  0  0  0  0  0  0  0  0  0
   -4.8019   -2.6733   15.6705 C   0  0  0  0  0  0  0  0  0  0  0  0
   -5.4613   -4.0603   15.5733 C   0  0  0  0  0  0  0  0  0  0  0  0
   -2.5026   -2.1121   14.7721 C   0  0  0  0  0  0  0  0  0  0  0  0
   -1.7498   -2.8472   15.6821 C   0  0  0  0  0  0  0  0  0  0  0  0
   -0.3947   -2.5947   15.8318 C   0  0  0  0  0  0  0  0  0  0  0  0
    0.2287   -1.5788   15.1039 C   0  0  0  0  0  0  0  0  0  0  0  0
    1.6093   -1.3648   15.3339 N   0  0  0  0  0  0  0  0  0  0  0  0
    2.5318   -0.4383   14.7801 C   0  0  0  0  0  0  0  0  0  0  0  0
    2.1634    0.3921   13.7540 N   0  0  0  0  0  0  0  0  0  0  0  0
    3.0974    1.2392   13.2246 C   0  0  0  0  0  0  0  0  0  0  0  0
    4.4044    1.2817   13.6944 C   0  0  0  0  0  0  0  0  0  0  0  0
    4.7423    0.4925   14.7592 N   0  0  0  0  0  0  0  0  0  0  0  0
    5.8954    0.3870   15.4778 C   0  0  0  0  0  0  0  0  0  0  0  0
    5.5990   -0.5412   16.5094 C   0  0  0  0  0  0  0  0  0  0  0  0
    4.3871   -1.0534   16.3565 N   0  0  0  0  0  0  0  0  0  0  0  0
    3.8359   -0.3945   15.3234 C   0  0  0  0  0  0  0  0  0  0  0  0
    2.6253    2.1534   12.1201 C   0  0  0  0  0  0  0  0  0  0  0  0
    3.5412    2.6427   11.1681 C   0  0  0  0  0  0  0  0  0  0  0  0
    3.1527    3.4644   10.1100 C   0  0  0  0  0  0  0  0  0  0  0  0
    1.8061    3.8184   10.0146 C   0  0  0  0  0  0  0  0  0  0  0  0
    0.9967    4.6031    9.1196 C   0  0  0  0  0  0  0  0  0  0  0  0
   -0.2439    4.6096    9.5190 N   0  0  0  0  0  0  0  0  0  0  0  0
   -0.3333    3.8812   10.6311 N   0  0  0  0  0  0  0  0  0  0  0  0
    0.8847    3.3487   10.9898 C   0  0  0  0  0  0  0  0  0  0  0  0
    1.2610    2.5149   12.0531 C   0  0  0  0  0  0  0  0  0  0  0  0
   -0.5302   -0.8124   14.2060 C   0  0  0  0  0  0  0  0  0  0  0  0
   -1.8875   -1.0872   14.0350 C   0  0  0  0  0  0  0  0  0  0  0  0
   -4.2696   -4.4079   12.7930 H   0  0  0  0  0  0  0  0  0  0  0  0
   -5.4876   -3.5500   11.7895 H   0  0  0  0  0  0  0  0  0  0  0  0
   -3.7809   -1.9459   12.5321 H   0  0  0  0  0  0  0  0  0  0  0  0
   -5.3368   -1.5847   13.3540 H   0  0  0  0  0  0  0  0  0  0  0  0
   -4.2654   -2.6071   16.6285 H   0  0  0  0  0  0  0  0  0  0  0  0
   -5.5909   -1.9075   15.6385 H   0  0  0  0  0  0  0  0  0  0  0  0
   -6.1485   -4.2002   16.4208 H   0  0  0  0  0  0  0  0  0  0  0  0
   -4.6844   -4.8386   15.5989 H   0  0  0  0  0  0  0  0  0  0  0  0
   -2.2224   -3.6171   16.2739 H   0  0  0  0  0  0  0  0  0  0  0  0
    0.1860   -3.1911   16.5199 H   0  0  0  0  0  0  0  0  0  0  0  0
    5.1375    1.9239   13.2289 H   0  0  0  0  0  0  0  0  0  0  0  0
    6.8303    0.8980   15.3009 H   0  0  0  0  0  0  0  0  0  0  0  0
    6.2731   -0.7965   17.3137 H   0  0  0  0  0  0  0  0  0  0  0  0
    4.2968    3.2083   11.7331 H   0  0  0  0  0  0  0  0  0  0  0  0
    4.0103    1.7583   10.7123 H   0  0  0  0  0  0  0  0  0  0  0  0
    3.8727    3.8163    9.3860 H   0  0  0  0  0  0  0  0  0  0  0  0
    1.3650    5.1137    8.2421 H   0  0  0  0  0  0  0  0  0  0  0  0
    0.5449    2.1672   12.7829 H   0  0  0  0  0  0  0  0  0  0  0  0
   -0.4564    0.2335   14.5385 H   0  0  0  0  0  0  0  0  0  0  0  0
   -0.0571   -0.9175   13.2185 H   0  0  0  0  0  0  0  0  0  0  0  0
   -2.4682   -0.5085   13.3319 H   0  0  0  0  0  0  0  0  0  0  0  0
  1  2  2  0  0  0  0
  2  3  2  0  0  0  0
  2  4  1  0  0  0  0
  2  8  1  0  0  0  0
  4  5  1  0  0  0  0
  5  6  1  0  0  0  0
  6  7  1  0  0  0  0
  6  9  1  0  0  0  0
  7  8  1  0  0  0  0
  9 10  1  0  0  0  0
  9 33  2  0  0  0  0
 10 11  2  0  0  0  0
 11 12  1  0  0  0  0
 12 13  2  0  0  0  0
 12 32  1  0  0  0  0
 13 14  1  0  0  0  0
 14 15  2  0  0  0  0
 14 22  1  0  0  0  0
 15 16  1  0  0  0  0
 16 17  2  0  0  0  0
 16 23  1  0  0  0  0
 17 18  1  0  0  0  0
 18 19  1  0  0  0  0
 18 22  1  0  0  0  0
 19 20  2  0  0  0  0
 20 21  1  0  0  0  0
 21 22  2  0  0  0  0
 23 24  1  0  0  0  0
 23 31  2  0  0  0  0
 24 25  1  0  0  0  0
 25 26  2  0  0  0  0
 26 27  1  0  0  0  0
 26 30  1  0  0  0  0
 27 28  2  0  0  0  0
 28 29  1  0  0  0  0
 29 30  2  0  0  0  0
 30 31  1  0  0  0  0
 32 33  1  0  0  0  0
  4 34  1  0  0  0  0
  4 35  1  0  0  0  0
  5 36  1  0  0  0  0
  5 37  1  0  0  0  0
  7 38  1  0  0  0  0
  7 39  1  0  0  0  0
  8 40  1  0  0  0  0
  8 41  1  0  0  0  0
 10 42  1  0  0  0  0
 11 43  1  0  0  0  0
 17 44  1  0  0  0  0
 19 45  1  0  0  0  0
 20 46  1  0  0  0  0
 24 47  1  0  0  0  0
 24 48  1  0  0  0  0
 25 49  1  0  0  0  0
 27 50  1  0  0  0  0
 31 51  1  0  0  0  0
 32 52  1  0  0  0  0
 32 53  1  0  0  0  0
 33 54  1  0  0  0  0
M  END
> <IC50[nM]>
2.1

$$$$
CHEMBL3265033
  -OEChem-05192314333D
 Structure written by MMmdl.
 54 59  0     0  0  0  0  0  0999 V2000
   -6.7377   -5.5954   13.7078 O   0  0  0  0  0  0  0  0  0  0  0  0
   -6.4109   -4.1827   13.9768 S   0  0  0  0  0  0  0  0  0  0  0  0
   -7.4853   -3.1691   13.9645 O   0  0  0  0  0  0  0  0  0  0  0  0
   -5.0718   -3.6553   12.8024 C   0  0  0  0  0  0  0  0  0  0  0  0
   -4.5093   -2.3051   13.2740 C   0  0  0  0  0  0  0  0  0  0  0  0
   -3.8452   -2.4085   14.5766 N   0  0  0  0  0  0  0  0  0  0  0  0
   -4.8019   -2.6733   15.6705 C   0  0  0  0  0  0  0  0  0  0  0  0
   -5.4613   -4.0603   15.5733 C   0  0  0  0  0  0  0  0  0  0  0  0
   -2.5026   -2.1121   14.7721 C   0  0  0  0  0  0  0  0  0  0  0  0
   -1.7498   -2.8472   15.6821 C   0  0  0  0  0  0  0  0  0  0  0  0
   -0.3947   -2.5947   15.8318 C   0  0  0  0  0  0  0  0  0  0  0  0
    0.2287   -1.5788   15.1039 C   0  0  0  0  0  0  0  0  0  0  0  0
    1.6093   -1.3648   15.3339 N   0  0  0  0  0  0  0  0  0  0  0  0
    2.5318   -0.4383   14.7801 C   0  0  0  0  0  0  0  0  0  0  0  0
    2.1634    0.3921   13.7540 N   0  0  0  0  0  0  0  0  0  0  0  0
    3.0974    1.2392   13.2246 C   0  0  0  0  0  0  0  0  0  0  0  0
    4.4044    1.2817   13.6944 C   0  0  0  0  0  0  0  0  0  0  0  0
    4.7423    0.4925   14.7592 N   0  0  0  0  0  0  0  0  0  0  0  0
    5.8954    0.3870   15.4778 C   0  0  0  0  0  0  0  0  0  0  0  0
    5.5990   -0.5412   16.5094 C   0  0  0  0  0  0  0  0  0  0  0  0
    4.3871   -1.0534   16.3565 N   0  0  0  0  0  0  0  0  0  0  0  0
    3.8359   -0.3945   15.3234 C   0  0  0  0  0  0  0  0  0  0  0  0
    2.6253    2.1534   12.1201 C   0  0  0  0  0  0  0  0  0  0  0  0
    3.5412    2.6427   11.1681 C   0  0  0  0  0  0  0  0  0  0  0  0
    3.1527    3.4644   10.1100 C   0  0  0  0  0  0  0  0  0  0  0  0
    1.8061    3.8184   10.0146 C   0  0  0  0  0  0  0  0  0  0  0  0
    0.9967    4.6031    9.1196 C   0  0  0  0  0  0  0  0  0  0  0  0
   -0.2439    4.6096    9.5190 N   0  0  0  0  0  0  0  0  0  0  0  0
   -0.3333    3.8812   10.6311 N   0  0  0  0  0  0  0  0  0  0  0  0
    0.8847    3.3487   10.9898 C   0  0  0  0  0  0  0  0  0  0  0  0
    1.2610    2.5149   12.0531 C   0  0  0  0  0  0  0  0  0  0  0  0
   -0.5302   -0.8124   14.2060 C   0  0  0  0  0  0  0  0  0  0  0  0
   -1.8875   -1.0872   14.0350 C   0  0  0  0  0  0  0  0  0  0  0  0
   -4.2696   -4.4079   12.7930 H   0  0  0  0  0  0  0  0  0  0  0  0
   -5.4876   -3.5500   11.7895 H   0  0  0  0  0  0  0  0  0  0  0  0
   -3.7809   -1.9459   12.5321 H   0  0  0  0  0  0  0  0  0  0  0  0
   -5.3368   -1.5847   13.3540 H   0  0  0  0  0  0  0  0  0  0  0  0
   -4.2654   -2.6071   16.6285 H   0  0  0  0  0  0  0  0  0  0  0  0
   -5.5909   -1.9075   15.6385 H   0  0  0  0  0  0  0  0  0  0  0  0
   -6.1485   -4.2002   16.4208 H   0  0  0  0  0  0  0  0  0  0  0  0
   -4.6844   -4.8386   15.5989 H   0  0  0  0  0  0  0  0  0  0  0  0
   -2.7688   -1.3940   15.5617 H   0  0  0  0  0  0  0  0  0  0  0  0
   -2.2224   -3.6171   16.2739 H   0  0  0  0  0  0  0  0  0  0  0  0
    0.1860   -3.1911   16.5199 H   0  0  0  0  0  0  0  0  0  0  0  0
    5.1375    1.9239   13.2289 H   0  0  0  0  0  0  0  0  0  0  0  0
    6.8303    0.8980   15.3009 H   0  0  0  0  0  0  0  0  0  0  0  0
    6.2731   -0.7965   17.3137 H   0  0  0  0  0  0  0  0  0  0  0  0
    4.5825    2.3716   11.2609 H   0  0  0  0  0  0  0  0  0  0  0  0
    3.8727    3.8163    9.3860 H   0  0  0  0  0  0  0  0  0  0  0  0
    1.3650    5.1137    8.2421 H   0  0  0  0  0  0  0  0  0  0  0  0
    0.6735    1.5882   11.9749 H   0  0  0  0  0  0  0  0  0  0  0  0
    1.0063    3.0326   12.9897 H   0  0  0  0  0  0  0  0  0  0  0  0
   -0.0651   -0.0124   13.6491 H   0  0  0  0  0  0  0  0  0  0  0  0
   -2.4682   -0.5085   13.3319 H   0  0  0  0  0  0  0  0  0  0  0  0
  1  2  2  0  0  0  0
  2  3  2  0  0  0  0
  2  4  1  0  0  0  0
  2  8  1  0  0  0  0
  4  5  1  0  0  0  0
  5  6  1  0  0  0  0
  6  7  1  0  0  0  0
  6  9  1  0  0  0  0
  7  8  1  0  0  0  0
  9 10  1  0  0  0  0
  9 33  1  0  0  0  0
 10 11  2  0  0  0  0
 11 12  1  0  0  0  0
 12 13  2  0  0  0  0
 12 32  1  0  0  0  0
 13 14  1  0  0  0  0
 14 15  2  0  0  0  0
 14 22  1  0  0  0  0
 15 16  1  0  0  0  0
 16 17  2  0  0  0  0
 16 23  1  0  0  0  0
 17 18  1  0  0  0  0
 18 19  1  0  0  0  0
 18 22  1  0  0  0  0
 19 20  2  0  0  0  0
 20 21  1  0  0  0  0
 21 22  2  0  0  0  0
 23 24  2  0  0  0  0
 23 31  1  0  0  0  0
 24 25  1  0  0  0  0
 25 26  2  0  0  0  0
 26 27  1  0  0  0  0
 26 30  1  0  0  0  0
 27 28  2  0  0  0  0
 28 29  1  0  0  0  0
 29 30  2  0  0  0  0
 30 31  1  0  0  0  0
 32 33  2  0  0  0  0
  4 34  1  0  0  0  0
  4 35  1  0  0  0  0
  5 36  1  0  0  0  0
  5 37  1  0  0  0  0
  7 38  1  0  0  0  0
  7 39  1  0  0  0  0
  8 40  1  0  0  0  0
  8 41  1  0  0  0  0
  9 42  1  0  0  0  0
 10 43  1  0  0  0  0
 11 44  1  0  0  0  0
 17 45  1  0  0  0  0
 19 46  1  0  0  0  0
 20 47  1  0  0  0  0
 24 48  1  0  0  0  0
 25 49  1  0  0  0  0
 27 50  1  0  0  0  0
 31 51  1  0  0  0  0
 31 52  1  0  0  0  0
 32 53  1  0  0  0  0
 33 54  1  0  0  0  0
M  END
> <IC50[nM]>
2.1

$$$$
CHEMBL3265033
  -OEChem-05192314333D
 Structure written by MMmdl.
 54 59  0     0  0  0  0  0  0999 V2000
   -6.7377   -5.5954   13.7078 O   0  0  0  0  0  0  0  0  0  0  0  0
   -6.4109   -4.1827   13.9768 S   0  0  0  0  0  0  0  0  0  0  0  0
   -7.4853   -3.1691   13.9645 O   0  0  0  0  0  0  0  0  0  0  0  0
   -5.0718   -3.6553   12.8024 C   0  0  0  0  0  0  0  0  0  0  0  0
   -4.5093   -2.3051   13.2740 C   0  0  0  0  0  0  0  0  0  0  0  0
   -3.8452   -2.4085   14.5766 N   0  0  0  0  0  0  0  0  0  0  0  0
   -4.8019   -2.6733   15.6705 C   0  0  0  0  0  0  0  0  0  0  0  0
   -5.4613   -4.0603   15.5733 C   0  0  0  0  0  0  0  0  0  0  0  0
   -2.5026   -2.1121   14.7721 C   0  0  0  0  0  0  0  0  0  0  0  0
   -1.7498   -2.8472   15.6821 C   0  0  0  0  0  0  0  0  0  0  0  0
   -0.3947   -2.5947   15.8318 C   0  0  0  0  0  0  0  0  0  0  0  0
    0.2287   -1.5788   15.1039 C   0  0  0  0  0  0  0  0  0  0  0  0
    1.6093   -1.3648   15.3339 N   0  0  0  0  0  0  0  0  0  0  0  0
    2.5318   -0.4383   14.7801 C   0  0  0  0  0  0  0  0  0  0  0  0
    2.1634    0.3921   13.7540 N   0  0  0  0  0  0  0  0  0  0  0  0
    3.0974    1.2392   13.2246 C   0  0  0  0  0  0  0  0  0  0  0  0
    4.4044    1.2817   13.6944 C   0  0  0  0  0  0  0  0  0  0  0  0
    4.7423    0.4925   14.7592 N   0  0  0  0  0  0  0  0  0  0  0  0
    5.8954    0.3870   15.4778 C   0  0  0  0  0  0  0  0  0  0  0  0
    5.5990   -0.5412   16.5094 C   0  0  0  0  0  0  0  0  0  0  0  0
    4.3871   -1.0534   16.3565 N   0  0  0  0  0  0  0  0  0  0  0  0
    3.8359   -0.3945   15.3234 C   0  0  0  0  0  0  0  0  0  0  0  0
    2.6253    2.1534   12.1201 C   0  0  0  0  0  0  0  0  0  0  0  0
    3.5412    2.6427   11.1681 C   0  0  0  0  0  0  0  0  0  0  0  0
    3.1527    3.4644   10.1100 C   0  0  0  0  0  0  0  0  0  0  0  0
    1.8061    3.8184   10.0146 C   0  0  0  0  0  0  0  0  0  0  0  0
    0.9967    4.6031    9.1196 C   0  0  0  0  0  0  0  0  0  0  0  0
   -0.2439    4.6096    9.5190 N   0  0  0  0  0  0  0  0  0  0  0  0
   -0.3333    3.8812   10.6311 N   0  0  0  0  0  0  0  0  0  0  0  0
    0.8847    3.3487   10.9898 C   0  0  0  0  0  0  0  0  0  0  0  0
    1.2610    2.5149   12.0531 C   0  0  0  0  0  0  0  0  0  0  0  0
   -0.5302   -0.8124   14.2060 C   0  0  0  0  0  0  0  0  0  0  0  0
   -1.8875   -1.0872   14.0350 C   0  0  0  0  0  0  0  0  0  0  0  0
   -4.2696   -4.4079   12.7930 H   0  0  0  0  0  0  0  0  0  0  0  0
   -5.4876   -3.5500   11.7895 H   0  0  0  0  0  0  0  0  0  0  0  0
   -3.7809   -1.9459   12.5321 H   0  0  0  0  0  0  0  0  0  0  0  0
   -5.3368   -1.5847   13.3540 H   0  0  0  0  0  0  0  0  0  0  0  0
   -4.2654   -2.6071   16.6285 H   0  0  0  0  0  0  0  0  0  0  0  0
   -5.5909   -1.9075   15.6385 H   0  0  0  0  0  0  0  0  0  0  0  0
   -6.1485   -4.2002   16.4208 H   0  0  0  0  0  0  0  0  0  0  0  0
   -4.6844   -4.8386   15.5989 H   0  0  0  0  0  0  0  0  0  0  0  0
   -2.2224   -3.6171   16.2739 H   0  0  0  0  0  0  0  0  0  0  0  0
    0.1860   -3.1911   16.5199 H   0  0  0  0  0  0  0  0  0  0  0  0
    5.1375    1.9239   13.2289 H   0  0  0  0  0  0  0  0  0  0  0  0
    6.8303    0.8980   15.3009 H   0  0  0  0  0  0  0  0  0  0  0  0
    6.2731   -0.7965   17.3137 H   0  0  0  0  0  0  0  0  0  0  0  0
    4.5825    2.3716   11.2609 H   0  0  0  0  0  0  0  0  0  0  0  0
    3.8727    3.8163    9.3860 H   0  0  0  0  0  0  0  0  0  0  0  0
    1.3650    5.1137    8.2421 H   0  0  0  0  0  0  0  0  0  0  0  0
    0.6735    1.5882   11.9749 H   0  0  0  0  0  0  0  0  0  0  0  0
    1.0063    3.0326   12.9897 H   0  0  0  0  0  0  0  0  0  0  0  0
   -0.4564    0.2335   14.5385 H   0  0  0  0  0  0  0  0  0  0  0  0
   -0.0571   -0.9175   13.2185 H   0  0  0  0  0  0  0  0  0  0  0  0
   -2.4682   -0.5085   13.3319 H   0  0  0  0  0  0  0  0  0  0  0  0
  1  2  2  0  0  0  0
  2  3  2  0  0  0  0
  2  4  1  0  0  0  0
  2  8  1  0  0  0  0
  4  5  1  0  0  0  0
  5  6  1  0  0  0  0
  6  7  1  0  0  0  0
  6  9  1  0  0  0  0
  7  8  1  0  0  0  0
  9 10  1  0  0  0  0
  9 33  2  0  0  0  0
 10 11  2  0  0  0  0
 11 12  1  0  0  0  0
 12 13  2  0  0  0  0
 12 32  1  0  0  0  0
 13 14  1  0  0  0  0
 14 15  2  0  0  0  0
 14 22  1  0  0  0  0
 15 16  1  0  0  0  0
 16 17  2  0  0  0  0
 16 23  1  0  0  0  0
 17 18  1  0  0  0  0
 18 19  1  0  0  0  0
 18 22  1  0  0  0  0
 19 20  2  0  0  0  0
 20 21  1  0  0  0  0
 21 22  2  0  0  0  0
 23 24  2  0  0  0  0
 23 31  1  0  0  0  0
 24 25  1  0  0  0  0
 25 26  2  0  0  0  0
 26 27  1  0  0  0  0
 26 30  1  0  0  0  0
 27 28  2  0  0  0  0
 28 29  1  0  0  0  0
 29 30  2  0  0  0  0
 30 31  1  0  0  0  0
 32 33  1  0  0  0  0
  4 34  1  0  0  0  0
  4 35  1  0  0  0  0
  5 36  1  0  0  0  0
  5 37  1  0  0  0  0
  7 38  1  0  0  0  0
  7 39  1  0  0  0  0
  8 40  1  0  0  0  0
  8 41  1  0  0  0  0
 10 42  1  0  0  0  0
 11 43  1  0  0  0  0
 17 44  1  0  0  0  0
 19 45  1  0  0  0  0
 20 46  1  0  0  0  0
 24 47  1  0  0  0  0
 25 48  1  0  0  0  0
 27 49  1  0  0  0  0
 31 50  1  0  0  0  0
 31 51  1  0  0  0  0
 32 52  1  0  0  0  0
 32 53  1  0  0  0  0
 33 54  1  0  0  0  0
M  END
> <IC50[nM]>
2.1

$$$$
CHEMBL3265033
  -OEChem-05192314333D
 Structure written by MMmdl.
 54 59  0     1  0  0  0  0  0999 V2000
   -6.7377   -5.5954   13.7078 O   0  0  0  0  0  0  0  0  0  0  0  0
   -6.4109   -4.1827   13.9768 S   0  0  0  0  0  0  0  0  0  0  0  0
   -7.4853   -3.1691   13.9645 O   0  0  0  0  0  0  0  0  0  0  0  0
   -5.0718   -3.6553   12.8024 C   0  0  0  0  0  0  0  0  0  0  0  0
   -4.5093   -2.3051   13.2740 C   0  0  0  0  0  0  0  0  0  0  0  0
   -3.8452   -2.4085   14.5766 N   0  0  0  0  0  0  0  0  0  0  0  0
   -4.8019   -2.6733   15.6705 C   0  0  0  0  0  0  0  0  0  0  0  0
   -5.4613   -4.0603   15.5733 C   0  0  0  0  0  0  0  0  0  0  0  0
   -2.5026   -2.1121   14.7721 C   0  0  0  0  0  0  0  0  0  0  0  0
   -1.7498   -2.8472   15.6821 C   0  0  0  0  0  0  0  0  0  0  0  0
   -0.3947   -2.5947   15.8318 C   0  0  0  0  0  0  0  0  0  0  0  0
    0.2287   -1.5788   15.1039 C   0  0  0  0  0  0  0  0  0  0  0  0
    1.6093   -1.3648   15.3339 N   0  0  0  0  0  0  0  0  0  0  0  0
    2.5318   -0.4383   14.7801 C   0  0  0  0  0  0  0  0  0  0  0  0
    2.1634    0.3921   13.7540 N   0  0  0  0  0  0  0  0  0  0  0  0
    3.0974    1.2392   13.2246 C   0  0  0  0  0  0  0  0  0  0  0  0
    4.4044    1.2817   13.6944 C   0  0  0  0  0  0  0  0  0  0  0  0
    4.7423    0.4925   14.7592 N   0  0  0  0  0  0  0  0  0  0  0  0
    5.8954    0.3870   15.4778 C   0  0  0  0  0  0  0  0  0  0  0  0
    5.5990   -0.5412   16.5094 C   0  0  0  0  0  0  0  0  0  0  0  0
    4.3871   -1.0534   16.3565 N   0  0  0  0  0  0  0  0  0  0  0  0
    3.8359   -0.3945   15.3234 C   0  0  0  0  0  0  0  0  0  0  0  0
    2.6253    2.1534   12.1201 C   0  0  3  0  0  0  0  0  0  0  0  0
    3.5412    2.6427   11.1681 C   0  0  0  0  0  0  0  0  0  0  0  0
    3.1527    3.4644   10.1100 C   0  0  0  0  0  0  0  0  0  0  0  0
    1.8061    3.8184   10.0146 C   0  0  0  0  0  0  0  0  0  0  0  0
    0.9967    4.6031    9.1196 C   0  0  0  0  0  0  0  0  0  0  0  0
   -0.2439    4.6096    9.5190 N   0  0  0  0  0  0  0  0  0  0  0  0
   -0.3333    3.8812   10.6311 N   0  0  0  0  0  0  0  0  0  0  0  0
    0.8847    3.3487   10.9898 C   0  0  0  0  0  0  0  0  0  0  0  0
    1.2610    2.5149   12.0531 C   0  0  0  0  0  0  0  0  0  0  0  0
   -0.5302   -0.8124   14.2060 C   0  0  0  0  0  0  0  0  0  0  0  0
   -1.8875   -1.0872   14.0350 C   0  0  0  0  0  0  0  0  0  0  0  0
   -4.2696   -4.4079   12.7930 H   0  0  0  0  0  0  0  0  0  0  0  0
   -5.4876   -3.5500   11.7895 H   0  0  0  0  0  0  0  0  0  0  0  0
   -3.7809   -1.9459   12.5321 H   0  0  0  0  0  0  0  0  0  0  0  0
   -5.3368   -1.5847   13.3540 H   0  0  0  0  0  0  0  0  0  0  0  0
   -4.2654   -2.6071   16.6285 H   0  0  0  0  0  0  0  0  0  0  0  0
   -5.5909   -1.9075   15.6385 H   0  0  0  0  0  0  0  0  0  0  0  0
   -6.1485   -4.2002   16.4208 H   0  0  0  0  0  0  0  0  0  0  0  0
   -4.6844   -4.8386   15.5989 H   0  0  0  0  0  0  0  0  0  0  0  0
   -2.7688   -1.3940   15.5617 H   0  0  0  0  0  0  0  0  0  0  0  0
   -2.2224   -3.6171   16.2739 H   0  0  0  0  0  0  0  0  0  0  0  0
    0.1860   -3.1911   16.5199 H   0  0  0  0  0  0  0  0  0  0  0  0
    5.1375    1.9239   13.2289 H   0  0  0  0  0  0  0  0  0  0  0  0
    6.8303    0.8980   15.3009 H   0  0  0  0  0  0  0  0  0  0  0  0
    6.2731   -0.7965   17.3137 H   0  0  0  0  0  0  0  0  0  0  0  0
    2.4263    1.2803   11.4813 H   0  0  0  0  0  0  0  0  0  0  0  0
    4.5825    2.3716   11.2609 H   0  0  0  0  0  0  0  0  0  0  0  0
    3.8727    3.8163    9.3860 H   0  0  0  0  0  0  0  0  0  0  0  0
    1.3650    5.1137    8.2421 H   0  0  0  0  0  0  0  0  0  0  0  0
    0.5449    2.1672   12.7829 H   0  0  0  0  0  0  0  0  0  0  0  0
   -0.0651   -0.0124   13.6491 H   0  0  0  0  0  0  0  0  0  0  0  0
   -2.4682   -0.5085   13.3319 H   0  0  0  0  0  0  0  0  0  0  0  0
  1  2  2  0  0  0  0
  2  3  2  0  0  0  0
  2  4  1  0  0  0  0
  2  8  1  0  0  0  0
  4  5  1  0  0  0  0
  5  6  1  0  0  0  0
  6  7  1  0  0  0  0
  6  9  1  0  0  0  0
  7  8  1  0  0  0  0
  9 10  1  0  0  0  0
  9 33  1  0  0  0  0
 10 11  2  0  0  0  0
 11 12  1  0  0  0  0
 12 13  2  0  0  0  0
 12 32  1  0  0  0  0
 13 14  1  0  0  0  0
 14 15  2  0  0  0  0
 14 22  1  0  0  0  0
 15 16  1  0  0  0  0
 16 17  2  0  0  0  0
 16 23  1  0  0  0  0
 17 18  1  0  0  0  0
 18 19  1  0  0  0  0
 18 22  1  0  0  0  0
 19 20  2  0  0  0  0
 20 21  1  0  0  0  0
 21 22  2  0  0  0  0
 23 24  1  0  0  0  0
 23 31  1  0  0  0  0
 24 25  2  0  0  0  0
 25 26  1  0  0  0  0
 26 27  2  0  0  0  0
 26 30  1  0  0  0  0
 27 28  1  0  0  0  0
 28 29  2  0  0  0  0
 29 30  1  0  0  0  0
 30 31  2  0  0  0  0
 32 33  2  0  0  0  0
  4 34  1  0  0  0  0
  4 35  1  0  0  0  0
  5 36  1  0  0  0  0
  5 37  1  0  0  0  0
  7 38  1  0  0  0  0
  7 39  1  0  0  0  0
  8 40  1  0  0  0  0
  8 41  1  0  0  0  0
  9 42  1  0  0  0  0
 10 43  1  0  0  0  0
 11 44  1  0  0  0  0
 17 45  1  0  0  0  0
 19 46  1  0  0  0  0
 20 47  1  0  0  0  0
 23 48  1  0  0  0  0
 24 49  1  0  0  0  0
 25 50  1  0  0  0  0
 27 51  1  0  0  0  0
 31 52  1  0  0  0  0
 32 53  1  0  0  0  0
 33 54  1  0  0  0  0
M  END
> <IC50[nM]>
2.1

$$$$
CHEMBL3265033
  -OEChem-05192314333D
 Structure written by MMmdl.
 54 59  0     1  0  0  0  0  0999 V2000
   -6.7377   -5.5954   13.7078 O   0  0  0  0  0  0  0  0  0  0  0  0
   -6.4109   -4.1827   13.9768 S   0  0  0  0  0  0  0  0  0  0  0  0
   -7.4853   -3.1691   13.9645 O   0  0  0  0  0  0  0  0  0  0  0  0
   -5.0718   -3.6553   12.8024 C   0  0  0  0  0  0  0  0  0  0  0  0
   -4.5093   -2.3051   13.2740 C   0  0  0  0  0  0  0  0  0  0  0  0
   -3.8452   -2.4085   14.5766 N   0  0  0  0  0  0  0  0  0  0  0  0
   -4.8019   -2.6733   15.6705 C   0  0  0  0  0  0  0  0  0  0  0  0
   -5.4613   -4.0603   15.5733 C   0  0  0  0  0  0  0  0  0  0  0  0
   -2.5026   -2.1121   14.7721 C   0  0  0  0  0  0  0  0  0  0  0  0
   -1.7498   -2.8472   15.6821 C   0  0  0  0  0  0  0  0  0  0  0  0
   -0.3947   -2.5947   15.8318 C   0  0  0  0  0  0  0  0  0  0  0  0
    0.2287   -1.5788   15.1039 C   0  0  0  0  0  0  0  0  0  0  0  0
    1.6093   -1.3648   15.3339 N   0  0  0  0  0  0  0  0  0  0  0  0
    2.5318   -0.4383   14.7801 C   0  0  0  0  0  0  0  0  0  0  0  0
    2.1634    0.3921   13.7540 N   0  0  0  0  0  0  0  0  0  0  0  0
    3.0974    1.2392   13.2246 C   0  0  0  0  0  0  0  0  0  0  0  0
    4.4044    1.2817   13.6944 C   0  0  0  0  0  0  0  0  0  0  0  0
    4.7423    0.4925   14.7592 N   0  0  0  0  0  0  0  0  0  0  0  0
    5.8954    0.3870   15.4778 C   0  0  0  0  0  0  0  0  0  0  0  0
    5.5990   -0.5412   16.5094 C   0  0  0  0  0  0  0  0  0  0  0  0
    4.3871   -1.0534   16.3565 N   0  0  0  0  0  0  0  0  0  0  0  0
    3.8359   -0.3945   15.3234 C   0  0  0  0  0  0  0  0  0  0  0  0
    2.6253    2.1534   12.1201 C   0  0  0  0  0  0  0  0  0  0  0  0
    3.5412    2.6427   11.1681 C   0  0  0  0  0  0  0  0  0  0  0  0
    3.1527    3.4644   10.1100 C   0  0  0  0  0  0  0  0  0  0  0  0
    1.8061    3.8184   10.0146 C   0  0  0  0  0  0  0  0  0  0  0  0
    0.9967    4.6031    9.1196 C   0  0  0  0  0  0  0  0  0  0  0  0
   -0.2439    4.6096    9.5190 N   0  0  0  0  0  0  0  0  0  0  0  0
   -0.3333    3.8812   10.6311 N   0  0  0  0  0  0  0  0  0  0  0  0
    0.8847    3.3487   10.9898 C   0  0  3  0  0  0  0  0  0  0  0  0
    1.2610    2.5149   12.0531 C   0  0  0  0  0  0  0  0  0  0  0  0
   -0.5302   -0.8124   14.2060 C   0  0  0  0  0  0  0  0  0  0  0  0
   -1.8875   -1.0872   14.0350 C   0  0  0  0  0  0  0  0  0  0  0  0
   -4.2696   -4.4079   12.7930 H   0  0  0  0  0  0  0  0  0  0  0  0
   -5.4876   -3.5500   11.7895 H   0  0  0  0  0  0  0  0  0  0  0  0
   -3.7809   -1.9459   12.5321 H   0  0  0  0  0  0  0  0  0  0  0  0
   -5.3368   -1.5847   13.3540 H   0  0  0  0  0  0  0  0  0  0  0  0
   -4.2654   -2.6071   16.6285 H   0  0  0  0  0  0  0  0  0  0  0  0
   -5.5909   -1.9075   15.6385 H   0  0  0  0  0  0  0  0  0  0  0  0
   -6.1485   -4.2002   16.4208 H   0  0  0  0  0  0  0  0  0  0  0  0
   -4.6844   -4.8386   15.5989 H   0  0  0  0  0  0  0  0  0  0  0  0
   -2.7688   -1.3940   15.5617 H   0  0  0  0  0  0  0  0  0  0  0  0
   -2.2224   -3.6171   16.2739 H   0  0  0  0  0  0  0  0  0  0  0  0
    0.1860   -3.1911   16.5199 H   0  0  0  0  0  0  0  0  0  0  0  0
    5.1375    1.9239   13.2289 H   0  0  0  0  0  0  0  0  0  0  0  0
    6.8303    0.8980   15.3009 H   0  0  0  0  0  0  0  0  0  0  0  0
    6.2731   -0.7965   17.3137 H   0  0  0  0  0  0  0  0  0  0  0  0
    4.5825    2.3716   11.2609 H   0  0  0  0  0  0  0  0  0  0  0  0
    3.8727    3.8163    9.3860 H   0  0  0  0  0  0  0  0  0  0  0  0
    1.3650    5.1137    8.2421 H   0  0  0  0  0  0  0  0  0  0  0  0
    1.0895    4.2335   11.6104 H   0  0  0  0  0  0  0  0  0  0  0  0
    0.5449    2.1672   12.7829 H   0  0  0  0  0  0  0  0  0  0  0  0
   -0.0651   -0.0124   13.6491 H   0  0  0  0  0  0  0  0  0  0  0  0
   -2.4682   -0.5085   13.3319 H   0  0  0  0  0  0  0  0  0  0  0  0
  1  2  2  0  0  0  0
  2  3  2  0  0  0  0
  2  4  1  0  0  0  0
  2  8  1  0  0  0  0
  4  5  1  0  0  0  0
  5  6  1  0  0  0  0
  6  7  1  0  0  0  0
  6  9  1  0  0  0  0
  7  8  1  0  0  0  0
  9 10  1  0  0  0  0
  9 33  1  0  0  0  0
 10 11  2  0  0  0  0
 11 12  1  0  0  0  0
 12 13  2  0  0  0  0
 12 32  1  0  0  0  0
 13 14  1  0  0  0  0
 14 15  2  0  0  0  0
 14 22  1  0  0  0  0
 15 16  1  0  0  0  0
 16 17  2  0  0  0  0
 16 23  1  0  0  0  0
 17 18  1  0  0  0  0
 18 19  1  0  0  0  0
 18 22  1  0  0  0  0
 19 20  2  0  0  0  0
 20 21  1  0  0  0  0
 21 22  2  0  0  0  0
 23 24  1  0  0  0  0
 23 31  2  0  0  0  0
 24 25  2  0  0  0  0
 25 26  1  0  0  0  0
 26 27  2  0  0  0  0
 26 30  1  0  0  0  0
 27 28  1  0  0  0  0
 28 29  2  0  0  0  0
 29 30  1  0  0  0  0
 30 31  1  0  0  0  0
 32 33  2  0  0  0  0
  4 34  1  0  0  0  0
  4 35  1  0  0  0  0
  5 36  1  0  0  0  0
  5 37  1  0  0  0  0
  7 38  1  0  0  0  0
  7 39  1  0  0  0  0
  8 40  1  0  0  0  0
  8 41  1  0  0  0  0
  9 42  1  0  0  0  0
 10 43  1  0  0  0  0
 11 44  1  0  0  0  0
 17 45  1  0  0  0  0
 19 46  1  0  0  0  0
 20 47  1  0  0  0  0
 24 48  1  0  0  0  0
 25 49  1  0  0  0  0
 27 50  1  0  0  0  0
 30 51  1  0  0  0  0
 31 52  1  0  0  0  0
 32 53  1  0  0  0  0
 33 54  1  0  0  0  0
M  END
> <IC50[nM]>
2.1

$$$$
CHEMBL3265033
  -OEChem-05192314333D
 Structure written by MMmdl.
 54 59  0     1  0  0  0  0  0999 V2000
   -6.7377   -5.5954   13.7078 O   0  0  0  0  0  0  0  0  0  0  0  0
   -6.4109   -4.1827   13.9768 S   0  0  0  0  0  0  0  0  0  0  0  0
   -7.4853   -3.1691   13.9645 O   0  0  0  0  0  0  0  0  0  0  0  0
   -5.0718   -3.6553   12.8024 C   0  0  0  0  0  0  0  0  0  0  0  0
   -4.5093   -2.3051   13.2740 C   0  0  0  0  0  0  0  0  0  0  0  0
   -3.8452   -2.4085   14.5766 N   0  0  0  0  0  0  0  0  0  0  0  0
   -4.8019   -2.6733   15.6705 C   0  0  0  0  0  0  0  0  0  0  0  0
   -5.4613   -4.0603   15.5733 C   0  0  0  0  0  0  0  0  0  0  0  0
   -2.5026   -2.1121   14.7721 C   0  0  0  0  0  0  0  0  0  0  0  0
   -1.7498   -2.8472   15.6821 C   0  0  0  0  0  0  0  0  0  0  0  0
   -0.3947   -2.5947   15.8318 C   0  0  0  0  0  0  0  0  0  0  0  0
    0.2287   -1.5788   15.1039 C   0  0  0  0  0  0  0  0  0  0  0  0
    1.6093   -1.3648   15.3339 N   0  0  0  0  0  0  0  0  0  0  0  0
    2.5318   -0.4383   14.7801 C   0  0  0  0  0  0  0  0  0  0  0  0
    2.1634    0.3921   13.7540 N   0  0  0  0  0  0  0  0  0  0  0  0
    3.0974    1.2392   13.2246 C   0  0  0  0  0  0  0  0  0  0  0  0
    4.4044    1.2817   13.6944 C   0  0  0  0  0  0  0  0  0  0  0  0
    4.7423    0.4925   14.7592 N   0  0  0  0  0  0  0  0  0  0  0  0
    5.8954    0.3870   15.4778 C   0  0  0  0  0  0  0  0  0  0  0  0
    5.5990   -0.5412   16.5094 C   0  0  0  0  0  0  0  0  0  0  0  0
    4.3871   -1.0534   16.3565 N   0  0  0  0  0  0  0  0  0  0  0  0
    3.8359   -0.3945   15.3234 C   0  0  0  0  0  0  0  0  0  0  0  0
    2.6253    2.1534   12.1201 C   0  0  3  0  0  0  0  0  0  0  0  0
    3.5412    2.6427   11.1681 C   0  0  0  0  0  0  0  0  0  0  0  0
    3.1527    3.4644   10.1100 C   0  0  0  0  0  0  0  0  0  0  0  0
    1.8061    3.8184   10.0146 C   0  0  0  0  0  0  0  0  0  0  0  0
    0.9967    4.6031    9.1196 C   0  0  0  0  0  0  0  0  0  0  0  0
   -0.2439    4.6096    9.5190 N   0  0  0  0  0  0  0  0  0  0  0  0
   -0.3333    3.8812   10.6311 N   0  0  0  0  0  0  0  0  0  0  0  0
    0.8847    3.3487   10.9898 C   0  0  0  0  0  0  0  0  0  0  0  0
    1.2610    2.5149   12.0531 C   0  0  0  0  0  0  0  0  0  0  0  0
   -0.5302   -0.8124   14.2060 C   0  0  0  0  0  0  0  0  0  0  0  0
   -1.8875   -1.0872   14.0350 C   0  0  0  0  0  0  0  0  0  0  0  0
   -4.2696   -4.4079   12.7930 H   0  0  0  0  0  0  0  0  0  0  0  0
   -5.4876   -3.5500   11.7895 H   0  0  0  0  0  0  0  0  0  0  0  0
   -3.7809   -1.9459   12.5321 H   0  0  0  0  0  0  0  0  0  0  0  0
   -5.3368   -1.5847   13.3540 H   0  0  0  0  0  0  0  0  0  0  0  0
   -4.2654   -2.6071   16.6285 H   0  0  0  0  0  0  0  0  0  0  0  0
   -5.5909   -1.9075   15.6385 H   0  0  0  0  0  0  0  0  0  0  0  0
   -6.1485   -4.2002   16.4208 H   0  0  0  0  0  0  0  0  0  0  0  0
   -4.6844   -4.8386   15.5989 H   0  0  0  0  0  0  0  0  0  0  0  0
   -2.2224   -3.6171   16.2739 H   0  0  0  0  0  0  0  0  0  0  0  0
    0.1860   -3.1911   16.5199 H   0  0  0  0  0  0  0  0  0  0  0  0
    5.1375    1.9239   13.2289 H   0  0  0  0  0  0  0  0  0  0  0  0
    6.8303    0.8980   15.3009 H   0  0  0  0  0  0  0  0  0  0  0  0
    6.2731   -0.7965   17.3137 H   0  0  0  0  0  0  0  0  0  0  0  0
    2.4263    1.2803   11.4813 H   0  0  0  0  0  0  0  0  0  0  0  0
    4.5825    2.3716   11.2609 H   0  0  0  0  0  0  0  0  0  0  0  0
    3.8727    3.8163    9.3860 H   0  0  0  0  0  0  0  0  0  0  0  0
    1.3650    5.1137    8.2421 H   0  0  0  0  0  0  0  0  0  0  0  0
    0.5449    2.1672   12.7829 H   0  0  0  0  0  0  0  0  0  0  0  0
   -0.4564    0.2335   14.5385 H   0  0  0  0  0  0  0  0  0  0  0  0
   -0.0571   -0.9175   13.2185 H   0  0  0  0  0  0  0  0  0  0  0  0
   -2.4682   -0.5085   13.3319 H   0  0  0  0  0  0  0  0  0  0  0  0
  1  2  2  0  0  0  0
  2  3  2  0  0  0  0
  2  4  1  0  0  0  0
  2  8  1  0  0  0  0
  4  5  1  0  0  0  0
  5  6  1  0  0  0  0
  6  7  1  0  0  0  0
  6  9  1  0  0  0  0
  7  8  1  0  0  0  0
  9 10  1  0  0  0  0
  9 33  2  0  0  0  0
 10 11  2  0  0  0  0
 11 12  1  0  0  0  0
 12 13  2  0  0  0  0
 12 32  1  0  0  0  0
 13 14  1  0  0  0  0
 14 15  2  0  0  0  0
 14 22  1  0  0  0  0
 15 16  1  0  0  0  0
 16 17  2  0  0  0  0
 16 23  1  0  0  0  0
 17 18  1  0  0  0  0
 18 19  1  0  0  0  0
 18 22  1  0  0  0  0
 19 20  2  0  0  0  0
 20 21  1  0  0  0  0
 21 22  2  0  0  0  0
 23 24  1  0  0  0  0
 23 31  1  0  0  0  0
 24 25  2  0  0  0  0
 25 26  1  0  0  0  0
 26 27  2  0  0  0  0
 26 30  1  0  0  0  0
 27 28  1  0  0  0  0
 28 29  2  0  0  0  0
 29 30  1  0  0  0  0
 30 31  2  0  0  0  0
 32 33  1  0  0  0  0
  4 34  1  0  0  0  0
  4 35  1  0  0  0  0
  5 36  1  0  0  0  0
  5 37  1  0  0  0  0
  7 38  1  0  0  0  0
  7 39  1  0  0  0  0
  8 40  1  0  0  0  0
  8 41  1  0  0  0  0
 10 42  1  0  0  0  0
 11 43  1  0  0  0  0
 17 44  1  0  0  0  0
 19 45  1  0  0  0  0
 20 46  1  0  0  0  0
 23 47  1  0  0  0  0
 24 48  1  0  0  0  0
 25 49  1  0  0  0  0
 27 50  1  0  0  0  0
 31 51  1  0  0  0  0
 32 52  1  0  0  0  0
 32 53  1  0  0  0  0
 33 54  1  0  0  0  0
M  END
> <IC50[nM]>
2.1

$$$$
CHEMBL3265033
  -OEChem-05192314333D
 Structure written by MMmdl.
 54 59  0     1  0  0  0  0  0999 V2000
   -6.7377   -5.5954   13.7078 O   0  0  0  0  0  0  0  0  0  0  0  0
   -6.4109   -4.1827   13.9768 S   0  0  0  0  0  0  0  0  0  0  0  0
   -7.4853   -3.1691   13.9645 O   0  0  0  0  0  0  0  0  0  0  0  0
   -5.0718   -3.6553   12.8024 C   0  0  0  0  0  0  0  0  0  0  0  0
   -4.5093   -2.3051   13.2740 C   0  0  0  0  0  0  0  0  0  0  0  0
   -3.8452   -2.4085   14.5766 N   0  0  0  0  0  0  0  0  0  0  0  0
   -4.8019   -2.6733   15.6705 C   0  0  0  0  0  0  0  0  0  0  0  0
   -5.4613   -4.0603   15.5733 C   0  0  0  0  0  0  0  0  0  0  0  0
   -2.5026   -2.1121   14.7721 C   0  0  0  0  0  0  0  0  0  0  0  0
   -1.7498   -2.8472   15.6821 C   0  0  0  0  0  0  0  0  0  0  0  0
   -0.3947   -2.5947   15.8318 C   0  0  0  0  0  0  0  0  0  0  0  0
    0.2287   -1.5788   15.1039 C   0  0  0  0  0  0  0  0  0  0  0  0
    1.6093   -1.3648   15.3339 N   0  0  0  0  0  0  0  0  0  0  0  0
    2.5318   -0.4383   14.7801 C   0  0  0  0  0  0  0  0  0  0  0  0
    2.1634    0.3921   13.7540 N   0  0  0  0  0  0  0  0  0  0  0  0
    3.0974    1.2392   13.2246 C   0  0  0  0  0  0  0  0  0  0  0  0
    4.4044    1.2817   13.6944 C   0  0  0  0  0  0  0  0  0  0  0  0
    4.7423    0.4925   14.7592 N   0  0  0  0  0  0  0  0  0  0  0  0
    5.8954    0.3870   15.4778 C   0  0  0  0  0  0  0  0  0  0  0  0
    5.5990   -0.5412   16.5094 C   0  0  0  0  0  0  0  0  0  0  0  0
    4.3871   -1.0534   16.3565 N   0  0  0  0  0  0  0  0  0  0  0  0
    3.8359   -0.3945   15.3234 C   0  0  0  0  0  0  0  0  0  0  0  0
    2.6253    2.1534   12.1201 C   0  0  0  0  0  0  0  0  0  0  0  0
    3.5412    2.6427   11.1681 C   0  0  0  0  0  0  0  0  0  0  0  0
    3.1527    3.4644   10.1100 C   0  0  0  0  0  0  0  0  0  0  0  0
    1.8061    3.8184   10.0146 C   0  0  0  0  0  0  0  0  0  0  0  0
    0.9967    4.6031    9.1196 C   0  0  0  0  0  0  0  0  0  0  0  0
   -0.2439    4.6096    9.5190 N   0  0  0  0  0  0  0  0  0  0  0  0
   -0.3333    3.8812   10.6311 N   0  0  0  0  0  0  0  0  0  0  0  0
    0.8847    3.3487   10.9898 C   0  0  3  0  0  0  0  0  0  0  0  0
    1.2610    2.5149   12.0531 C   0  0  0  0  0  0  0  0  0  0  0  0
   -0.5302   -0.8124   14.2060 C   0  0  0  0  0  0  0  0  0  0  0  0
   -1.8875   -1.0872   14.0350 C   0  0  0  0  0  0  0  0  0  0  0  0
   -4.2696   -4.4079   12.7930 H   0  0  0  0  0  0  0  0  0  0  0  0
   -5.4876   -3.5500   11.7895 H   0  0  0  0  0  0  0  0  0  0  0  0
   -3.7809   -1.9459   12.5321 H   0  0  0  0  0  0  0  0  0  0  0  0
   -5.3368   -1.5847   13.3540 H   0  0  0  0  0  0  0  0  0  0  0  0
   -4.2654   -2.6071   16.6285 H   0  0  0  0  0  0  0  0  0  0  0  0
   -5.5909   -1.9075   15.6385 H   0  0  0  0  0  0  0  0  0  0  0  0
   -6.1485   -4.2002   16.4208 H   0  0  0  0  0  0  0  0  0  0  0  0
   -4.6844   -4.8386   15.5989 H   0  0  0  0  0  0  0  0  0  0  0  0
   -2.2224   -3.6171   16.2739 H   0  0  0  0  0  0  0  0  0  0  0  0
    0.1860   -3.1911   16.5199 H   0  0  0  0  0  0  0  0  0  0  0  0
    5.1375    1.9239   13.2289 H   0  0  0  0  0  0  0  0  0  0  0  0
    6.8303    0.8980   15.3009 H   0  0  0  0  0  0  0  0  0  0  0  0
    6.2731   -0.7965   17.3137 H   0  0  0  0  0  0  0  0  0  0  0  0
    4.5825    2.3716   11.2609 H   0  0  0  0  0  0  0  0  0  0  0  0
    3.8727    3.8163    9.3860 H   0  0  0  0  0  0  0  0  0  0  0  0
    1.3650    5.1137    8.2421 H   0  0  0  0  0  0  0  0  0  0  0  0
    1.0895    4.2335   11.6104 H   0  0  0  0  0  0  0  0  0  0  0  0
    0.5449    2.1672   12.7829 H   0  0  0  0  0  0  0  0  0  0  0  0
   -0.4564    0.2335   14.5385 H   0  0  0  0  0  0  0  0  0  0  0  0
   -0.0571   -0.9175   13.2185 H   0  0  0  0  0  0  0  0  0  0  0  0
   -2.4682   -0.5085   13.3319 H   0  0  0  0  0  0  0  0  0  0  0  0
  1  2  2  0  0  0  0
  2  3  2  0  0  0  0
  2  4  1  0  0  0  0
  2  8  1  0  0  0  0
  4  5  1  0  0  0  0
  5  6  1  0  0  0  0
  6  7  1  0  0  0  0
  6  9  1  0  0  0  0
  7  8  1  0  0  0  0
  9 10  1  0  0  0  0
  9 33  2  0  0  0  0
 10 11  2  0  0  0  0
 11 12  1  0  0  0  0
 12 13  2  0  0  0  0
 12 32  1  0  0  0  0
 13 14  1  0  0  0  0
 14 15  2  0  0  0  0
 14 22  1  0  0  0  0
 15 16  1  0  0  0  0
 16 17  2  0  0  0  0
 16 23  1  0  0  0  0
 17 18  1  0  0  0  0
 18 19  1  0  0  0  0
 18 22  1  0  0  0  0
 19 20  2  0  0  0  0
 20 21  1  0  0  0  0
 21 22  2  0  0  0  0
 23 24  1  0  0  0  0
 23 31  2  0  0  0  0
 24 25  2  0  0  0  0
 25 26  1  0  0  0  0
 26 27  2  0  0  0  0
 26 30  1  0  0  0  0
 27 28  1  0  0  0  0
 28 29  2  0  0  0  0
 29 30  1  0  0  0  0
 30 31  1  0  0  0  0
 32 33  1  0  0  0  0
  4 34  1  0  0  0  0
  4 35  1  0  0  0  0
  5 36  1  0  0  0  0
  5 37  1  0  0  0  0
  7 38  1  0  0  0  0
  7 39  1  0  0  0  0
  8 40  1  0  0  0  0
  8 41  1  0  0  0  0
 10 42  1  0  0  0  0
 11 43  1  0  0  0  0
 17 44  1  0  0  0  0
 19 45  1  0  0  0  0
 20 46  1  0  0  0  0
 24 47  1  0  0  0  0
 25 48  1  0  0  0  0
 27 49  1  0  0  0  0
 30 50  1  0  0  0  0
 31 51  1  0  0  0  0
 32 52  1  0  0  0  0
 32 53  1  0  0  0  0
 33 54  1  0  0  0  0
M  END
> <IC50[nM]>
2.1

$$$$
CHEMBL3265033
  -OEChem-05192314333D
 Structure written by MMmdl.
 54 59  0     0  0  0  0  0  0999 V2000
   -6.7377   -5.5954   13.7078 O   0  0  0  0  0  0  0  0  0  0  0  0
   -6.4109   -4.1827   13.9768 S   0  0  0  0  0  0  0  0  0  0  0  0
   -7.4853   -3.1691   13.9645 O   0  0  0  0  0  0  0  0  0  0  0  0
   -5.0718   -3.6553   12.8024 C   0  0  0  0  0  0  0  0  0  0  0  0
   -4.5093   -2.3051   13.2740 C   0  0  0  0  0  0  0  0  0  0  0  0
   -3.8452   -2.4085   14.5766 N   0  0  0  0  0  0  0  0  0  0  0  0
   -4.8019   -2.6733   15.6705 C   0  0  0  0  0  0  0  0  0  0  0  0
   -5.4613   -4.0603   15.5733 C   0  0  0  0  0  0  0  0  0  0  0  0
   -2.5026   -2.1121   14.7721 C   0  0  0  0  0  0  0  0  0  0  0  0
   -1.7498   -2.8472   15.6821 C   0  0  0  0  0  0  0  0  0  0  0  0
   -0.3947   -2.5947   15.8318 C   0  0  0  0  0  0  0  0  0  0  0  0
    0.2287   -1.5788   15.1039 C   0  0  0  0  0  0  0  0  0  0  0  0
    1.6093   -1.3648   15.3339 N   0  0  0  0  0  0  0  0  0  0  0  0
    2.5318   -0.4383   14.7801 C   0  0  0  0  0  0  0  0  0  0  0  0
    2.1634    0.3921   13.7540 N   0  0  0  0  0  0  0  0  0  0  0  0
    3.0974    1.2392   13.2246 C   0  0  0  0  0  0  0  0  0  0  0  0
    4.4044    1.2817   13.6944 C   0  0  0  0  0  0  0  0  0  0  0  0
    4.7423    0.4925   14.7592 N   0  0  0  0  0  0  0  0  0  0  0  0
    5.8954    0.3870   15.4778 C   0  0  0  0  0  0  0  0  0  0  0  0
    5.5990   -0.5412   16.5094 C   0  0  0  0  0  0  0  0  0  0  0  0
    4.3871   -1.0534   16.3565 N   0  0  0  0  0  0  0  0  0  0  0  0
    3.8359   -0.3945   15.3234 C   0  0  0  0  0  0  0  0  0  0  0  0
    2.6253    2.1534   12.1201 C   0  0  0  0  0  0  0  0  0  0  0  0
    3.5412    2.6427   11.1681 C   0  0  0  0  0  0  0  0  0  0  0  0
    3.1527    3.4644   10.1100 C   0  0  0  0  0  0  0  0  0  0  0  0
    1.8061    3.8184   10.0146 C   0  0  0  0  0  0  0  0  0  0  0  0
    0.9967    4.6031    9.1196 C   0  0  0  0  0  0  0  0  0  0  0  0
   -0.2439    4.6096    9.5190 N   0  0  0  0  0  0  0  0  0  0  0  0
   -0.3333    3.8812   10.6311 N   0  0  0  0  0  0  0  0  0  0  0  0
    0.8847    3.3487   10.9898 C   0  0  0  0  0  0  0  0  0  0  0  0
    1.2610    2.5149   12.0531 C   0  0  0  0  0  0  0  0  0  0  0  0
   -0.5302   -0.8124   14.2060 C   0  0  0  0  0  0  0  0  0  0  0  0
   -1.8875   -1.0872   14.0350 C   0  0  0  0  0  0  0  0  0  0  0  0
   -4.2696   -4.4079   12.7930 H   0  0  0  0  0  0  0  0  0  0  0  0
   -5.4876   -3.5500   11.7895 H   0  0  0  0  0  0  0  0  0  0  0  0
   -3.7809   -1.9459   12.5321 H   0  0  0  0  0  0  0  0  0  0  0  0
   -5.3368   -1.5847   13.3540 H   0  0  0  0  0  0  0  0  0  0  0  0
   -4.2654   -2.6071   16.6285 H   0  0  0  0  0  0  0  0  0  0  0  0
   -5.5909   -1.9075   15.6385 H   0  0  0  0  0  0  0  0  0  0  0  0
   -6.1485   -4.2002   16.4208 H   0  0  0  0  0  0  0  0  0  0  0  0
   -4.6844   -4.8386   15.5989 H   0  0  0  0  0  0  0  0  0  0  0  0
   -2.7688   -1.3940   15.5617 H   0  0  0  0  0  0  0  0  0  0  0  0
   -2.2224   -3.6171   16.2739 H   0  0  0  0  0  0  0  0  0  0  0  0
    0.1860   -3.1911   16.5199 H   0  0  0  0  0  0  0  0  0  0  0  0
    5.1375    1.9239   13.2289 H   0  0  0  0  0  0  0  0  0  0  0  0
    6.8303    0.8980   15.3009 H   0  0  0  0  0  0  0  0  0  0  0  0
    6.2731   -0.7965   17.3137 H   0  0  0  0  0  0  0  0  0  0  0  0
    4.5825    2.3716   11.2609 H   0  0  0  0  0  0  0  0  0  0  0  0
    3.7309    4.3967   10.1907 H   0  0  0  0  0  0  0  0  0  0  0  0
    3.4213    2.9459    9.1778 H   0  0  0  0  0  0  0  0  0  0  0  0
    1.3650    5.1137    8.2421 H   0  0  0  0  0  0  0  0  0  0  0  0
    0.5449    2.1672   12.7829 H   0  0  0  0  0  0  0  0  0  0  0  0
   -0.0651   -0.0124   13.6491 H   0  0  0  0  0  0  0  0  0  0  0  0
   -2.4682   -0.5085   13.3319 H   0  0  0  0  0  0  0  0  0  0  0  0
  1  2  2  0  0  0  0
  2  3  2  0  0  0  0
  2  4  1  0  0  0  0
  2  8  1  0  0  0  0
  4  5  1  0  0  0  0
  5  6  1  0  0  0  0
  6  7  1  0  0  0  0
  6  9  1  0  0  0  0
  7  8  1  0  0  0  0
  9 10  1  0  0  0  0
  9 33  1  0  0  0  0
 10 11  2  0  0  0  0
 11 12  1  0  0  0  0
 12 13  2  0  0  0  0
 12 32  1  0  0  0  0
 13 14  1  0  0  0  0
 14 15  2  0  0  0  0
 14 22  1  0  0  0  0
 15 16  1  0  0  0  0
 16 17  2  0  0  0  0
 16 23  1  0  0  0  0
 17 18  1  0  0  0  0
 18 19  1  0  0  0  0
 18 22  1  0  0  0  0
 19 20  2  0  0  0  0
 20 21  1  0  0  0  0
 21 22  2  0  0  0  0
 23 24  2  0  0  0  0
 23 31  1  0  0  0  0
 24 25  1  0  0  0  0
 25 26  1  0  0  0  0
 26 27  2  0  0  0  0
 26 30  1  0  0  0  0
 27 28  1  0  0  0  0
 28 29  2  0  0  0  0
 29 30  1  0  0  0  0
 30 31  2  0  0  0  0
 32 33  2  0  0  0  0
  4 34  1  0  0  0  0
  4 35  1  0  0  0  0
  5 36  1  0  0  0  0
  5 37  1  0  0  0  0
  7 38  1  0  0  0  0
  7 39  1  0  0  0  0
  8 40  1  0  0  0  0
  8 41  1  0  0  0  0
  9 42  1  0  0  0  0
 10 43  1  0  0  0  0
 11 44  1  0  0  0  0
 17 45  1  0  0  0  0
 19 46  1  0  0  0  0
 20 47  1  0  0  0  0
 24 48  1  0  0  0  0
 25 49  1  0  0  0  0
 25 50  1  0  0  0  0
 27 51  1  0  0  0  0
 31 52  1  0  0  0  0
 32 53  1  0  0  0  0
 33 54  1  0  0  0  0
M  END
> <IC50[nM]>
2.1

$$$$
CHEMBL3265033
  -OEChem-05192314333D
 Structure written by MMmdl.
 54 59  0     0  0  0  0  0  0999 V2000
   -6.7377   -5.5954   13.7078 O   0  0  0  0  0  0  0  0  0  0  0  0
   -6.4109   -4.1827   13.9768 S   0  0  0  0  0  0  0  0  0  0  0  0
   -7.4853   -3.1691   13.9645 O   0  0  0  0  0  0  0  0  0  0  0  0
   -5.0718   -3.6553   12.8024 C   0  0  0  0  0  0  0  0  0  0  0  0
   -4.5093   -2.3051   13.2740 C   0  0  0  0  0  0  0  0  0  0  0  0
   -3.8452   -2.4085   14.5766 N   0  0  0  0  0  0  0  0  0  0  0  0
   -4.8019   -2.6733   15.6705 C   0  0  0  0  0  0  0  0  0  0  0  0
   -5.4613   -4.0603   15.5733 C   0  0  0  0  0  0  0  0  0  0  0  0
   -2.5026   -2.1121   14.7721 C   0  0  0  0  0  0  0  0  0  0  0  0
   -1.7498   -2.8472   15.6821 C   0  0  0  0  0  0  0  0  0  0  0  0
   -0.3947   -2.5947   15.8318 C   0  0  0  0  0  0  0  0  0  0  0  0
    0.2287   -1.5788   15.1039 C   0  0  0  0  0  0  0  0  0  0  0  0
    1.6093   -1.3648   15.3339 N   0  0  0  0  0  0  0  0  0  0  0  0
    2.5318   -0.4383   14.7801 C   0  0  0  0  0  0  0  0  0  0  0  0
    2.1634    0.3921   13.7540 N   0  0  0  0  0  0  0  0  0  0  0  0
    3.0974    1.2392   13.2246 C   0  0  0  0  0  0  0  0  0  0  0  0
    4.4044    1.2817   13.6944 C   0  0  0  0  0  0  0  0  0  0  0  0
    4.7423    0.4925   14.7592 N   0  0  0  0  0  0  0  0  0  0  0  0
    5.8954    0.3870   15.4778 C   0  0  0  0  0  0  0  0  0  0  0  0
    5.5990   -0.5412   16.5094 C   0  0  0  0  0  0  0  0  0  0  0  0
    4.3871   -1.0534   16.3565 N   0  0  0  0  0  0  0  0  0  0  0  0
    3.8359   -0.3945   15.3234 C   0  0  0  0  0  0  0  0  0  0  0  0
    2.6253    2.1534   12.1201 C   0  0  0  0  0  0  0  0  0  0  0  0
    3.5412    2.6427   11.1681 C   0  0  0  0  0  0  0  0  0  0  0  0
    3.1527    3.4644   10.1100 C   0  0  0  0  0  0  0  0  0  0  0  0
    1.8061    3.8184   10.0146 C   0  0  0  0  0  0  0  0  0  0  0  0
    0.9967    4.6031    9.1196 C   0  0  0  0  0  0  0  0  0  0  0  0
   -0.2439    4.6096    9.5190 N   0  0  0  0  0  0  0  0  0  0  0  0
   -0.3333    3.8812   10.6311 N   0  0  0  0  0  0  0  0  0  0  0  0
    0.8847    3.3487   10.9898 C   0  0  0  0  0  0  0  0  0  0  0  0
    1.2610    2.5149   12.0531 C   0  0  0  0  0  0  0  0  0  0  0  0
   -0.5302   -0.8124   14.2060 C   0  0  0  0  0  0  0  0  0  0  0  0
   -1.8875   -1.0872   14.0350 C   0  0  0  0  0  0  0  0  0  0  0  0
   -4.2696   -4.4079   12.7930 H   0  0  0  0  0  0  0  0  0  0  0  0
   -5.4876   -3.5500   11.7895 H   0  0  0  0  0  0  0  0  0  0  0  0
   -3.7809   -1.9459   12.5321 H   0  0  0  0  0  0  0  0  0  0  0  0
   -5.3368   -1.5847   13.3540 H   0  0  0  0  0  0  0  0  0  0  0  0
   -4.2654   -2.6071   16.6285 H   0  0  0  0  0  0  0  0  0  0  0  0
   -5.5909   -1.9075   15.6385 H   0  0  0  0  0  0  0  0  0  0  0  0
   -6.1485   -4.2002   16.4208 H   0  0  0  0  0  0  0  0  0  0  0  0
   -4.6844   -4.8386   15.5989 H   0  0  0  0  0  0  0  0  0  0  0  0
   -2.2224   -3.6171   16.2739 H   0  0  0  0  0  0  0  0  0  0  0  0
    0.1860   -3.1911   16.5199 H   0  0  0  0  0  0  0  0  0  0  0  0
    5.1375    1.9239   13.2289 H   0  0  0  0  0  0  0  0  0  0  0  0
    6.8303    0.8980   15.3009 H   0  0  0  0  0  0  0  0  0  0  0  0
    6.2731   -0.7965   17.3137 H   0  0  0  0  0  0  0  0  0  0  0  0
    4.5825    2.3716   11.2609 H   0  0  0  0  0  0  0  0  0  0  0  0
    3.7309    4.3967   10.1907 H   0  0  0  0  0  0  0  0  0  0  0  0
    3.4213    2.9459    9.1778 H   0  0  0  0  0  0  0  0  0  0  0  0
    1.3650    5.1137    8.2421 H   0  0  0  0  0  0  0  0  0  0  0  0
    0.5449    2.1672   12.7829 H   0  0  0  0  0  0  0  0  0  0  0  0
   -0.4564    0.2335   14.5385 H   0  0  0  0  0  0  0  0  0  0  0  0
   -0.0571   -0.9175   13.2185 H   0  0  0  0  0  0  0  0  0  0  0  0
   -2.4682   -0.5085   13.3319 H   0  0  0  0  0  0  0  0  0  0  0  0
  1  2  2  0  0  0  0
  2  3  2  0  0  0  0
  2  4  1  0  0  0  0
  2  8  1  0  0  0  0
  4  5  1  0  0  0  0
  5  6  1  0  0  0  0
  6  7  1  0  0  0  0
  6  9  1  0  0  0  0
  7  8  1  0  0  0  0
  9 10  1  0  0  0  0
  9 33  2  0  0  0  0
 10 11  2  0  0  0  0
 11 12  1  0  0  0  0
 12 13  2  0  0  0  0
 12 32  1  0  0  0  0
 13 14  1  0  0  0  0
 14 15  2  0  0  0  0
 14 22  1  0  0  0  0
 15 16  1  0  0  0  0
 16 17  2  0  0  0  0
 16 23  1  0  0  0  0
 17 18  1  0  0  0  0
 18 19  1  0  0  0  0
 18 22  1  0  0  0  0
 19 20  2  0  0  0  0
 20 21  1  0  0  0  0
 21 22  2  0  0  0  0
 23 24  2  0  0  0  0
 23 31  1  0  0  0  0
 24 25  1  0  0  0  0
 25 26  1  0  0  0  0
 26 27  2  0  0  0  0
 26 30  1  0  0  0  0
 27 28  1  0  0  0  0
 28 29  2  0  0  0  0
 29 30  1  0  0  0  0
 30 31  2  0  0  0  0
 32 33  1  0  0  0  0
  4 34  1  0  0  0  0
  4 35  1  0  0  0  0
  5 36  1  0  0  0  0
  5 37  1  0  0  0  0
  7 38  1  0  0  0  0
  7 39  1  0  0  0  0
  8 40  1  0  0  0  0
  8 41  1  0  0  0  0
 10 42  1  0  0  0  0
 11 43  1  0  0  0  0
 17 44  1  0  0  0  0
 19 45  1  0  0  0  0
 20 46  1  0  0  0  0
 24 47  1  0  0  0  0
 25 48  1  0  0  0  0
 25 49  1  0  0  0  0
 27 50  1  0  0  0  0
 31 51  1  0  0  0  0
 32 52  1  0  0  0  0
 32 53  1  0  0  0  0
 33 54  1  0  0  0  0
M  END
> <IC50[nM]>
2.1

$$$$
