CHEMBL3265032
  -OEChem-05192314333D
 Structure written by MMmdl.
 52 57  0     0  0  0  0  0  0999 V2000
   -5.2528   -4.0279   13.4883 C   0  0  0  0  0  0  0  0  0  0  0  0
   -4.5590   -2.6369   13.4544 C   0  0  0  0  0  0  0  0  0  0  0  0
   -3.8919   -2.2470   14.7137 N   0  0  0  0  0  0  0  0  0  0  0  0
   -4.7198   -2.6287   15.8665 C   0  0  0  0  0  0  0  0  0  0  0  0
   -5.4261   -3.9885   15.8402 C   0  0  0  0  0  0  0  0  0  0  0  0
   -6.1177   -4.1508   14.6092 O   0  0  0  0  0  0  0  0  0  0  0  0
   -2.5101   -2.0763   14.8035 C   0  0  0  0  0  0  0  0  0  0  0  0
   -1.8815   -1.1097   14.0182 C   0  0  0  0  0  0  0  0  0  0  0  0
   -0.5196   -0.8466   14.1763 C   0  0  0  0  0  0  0  0  0  0  0  0
    0.2358   -1.5888   15.0999 C   0  0  0  0  0  0  0  0  0  0  0  0
    1.6095   -1.3595   15.3505 N   0  0  0  0  0  0  0  0  0  0  0  0
    2.5288   -0.4326   14.7915 C   0  0  0  0  0  0  0  0  0  0  0  0
    2.1515    0.4038   13.7773 N   0  0  0  0  0  0  0  0  0  0  0  0
    3.0856    1.2408   13.2315 C   0  0  0  0  0  0  0  0  0  0  0  0
    4.3919    1.2835   13.6955 C   0  0  0  0  0  0  0  0  0  0  0  0
    4.7346    0.4998   14.7545 N   0  0  0  0  0  0  0  0  0  0  0  0
    5.8922    0.3978   15.4788 C   0  0  0  0  0  0  0  0  0  0  0  0
    5.6049   -0.5481   16.4962 C   0  0  0  0  0  0  0  0  0  0  0  0
    4.3940   -1.0599   16.3510 N   0  0  0  0  0  0  0  0  0  0  0  0
    3.8344   -0.3880   15.3306 C   0  0  0  0  0  0  0  0  0  0  0  0
    2.6174    2.1451   12.1221 C   0  0  0  0  0  0  0  0  0  0  0  0
    3.5375    2.6360   11.1692 C   0  0  0  0  0  0  0  0  0  0  0  0
    3.1548    3.4584   10.1087 C   0  0  0  0  0  0  0  0  0  0  0  0
    1.8089    3.8176   10.0151 C   0  0  0  0  0  0  0  0  0  0  0  0
    0.9999    4.6108    9.1243 C   0  0  0  0  0  0  0  0  0  0  0  0
   -0.2405    4.6150    9.5301 N   0  0  0  0  0  0  0  0  0  0  0  0
   -0.3274    3.8782   10.6339 N   0  0  0  0  0  0  0  0  0  0  0  0
    0.8831    3.3398   10.9927 C   0  0  0  0  0  0  0  0  0  0  0  0
    1.2567    2.5006   12.0460 C   0  0  0  0  0  0  0  0  0  0  0  0
   -0.3865   -2.5955   15.8355 C   0  0  0  0  0  0  0  0  0  0  0  0
   -1.7498   -2.8337   15.7040 C   0  0  0  0  0  0  0  0  0  0  0  0
   -5.8405   -4.1569   12.5674 H   0  0  0  0  0  0  0  0  0  0  0  0
   -4.4820   -4.8107   13.5440 H   0  0  0  0  0  0  0  0  0  0  0  0
   -3.8021   -2.6512   12.6563 H   0  0  0  0  0  0  0  0  0  0  0  0
   -5.3221   -1.8793   13.2225 H   0  0  0  0  0  0  0  0  0  0  0  0
   -4.0678   -2.6183   16.7524 H   0  0  0  0  0  0  0  0  0  0  0  0
   -5.4990   -1.8599   15.9757 H   0  0  0  0  0  0  0  0  0  0  0  0
   -4.6797   -4.7893   15.9475 H   0  0  0  0  0  0  0  0  0  0  0  0
   -6.1441   -4.0427   16.6718 H   0  0  0  0  0  0  0  0  0  0  0  0
   -2.4521   -0.5614   13.2832 H   0  0  0  0  0  0  0  0  0  0  0  0
   -0.0469   -0.0731   13.5891 H   0  0  0  0  0  0  0  0  0  0  0  0
    2.0043   -1.9584   16.0472 H   0  0  0  0  0  0  0  0  0  0  0  0
    5.1225    1.9256   13.2261 H   0  0  0  0  0  0  0  0  0  0  0  0
    6.8211    0.9228   15.3119 H   0  0  0  0  0  0  0  0  0  0  0  0
    6.2881   -0.8162   17.2885 H   0  0  0  0  0  0  0  0  0  0  0  0
    4.5783    2.3641   11.2652 H   0  0  0  0  0  0  0  0  0  0  0  0
    3.8763    3.8057    9.3840 H   0  0  0  0  0  0  0  0  0  0  0  0
    1.3665    5.1263    8.2490 H   0  0  0  0  0  0  0  0  0  0  0  0
   -1.1758    3.7333   11.1431 H   0  0  0  0  0  0  0  0  0  0  0  0
    0.5368    2.1420   12.7668 H   0  0  0  0  0  0  0  0  0  0  0  0
    0.1972   -3.1978   16.5158 H   0  0  0  0  0  0  0  0  0  0  0  0
   -2.2230   -3.6029   16.2963 H   0  0  0  0  0  0  0  0  0  0  0  0
  1  2  1  0  0  0  0
  1  6  1  0  0  0  0
  2  3  1  0  0  0  0
  3  4  1  0  0  0  0
  3  7  1  0  0  0  0
  4  5  1  0  0  0  0
  5  6  1  0  0  0  0
  7  8  2  0  0  0  0
  7 31  1  0  0  0  0
  8  9  1  0  0  0  0
  9 10  2  0  0  0  0
 10 11  1  0  0  0  0
 10 30  1  0  0  0  0
 11 12  1  0  0  0  0
 12 13  2  0  0  0  0
 12 20  1  0  0  0  0
 13 14  1  0  0  0  0
 14 15  2  0  0  0  0
 14 21  1  0  0  0  0
 15 16  1  0  0  0  0
 16 17  1  0  0  0  0
 16 20  1  0  0  0  0
 17 18  2  0  0  0  0
 18 19  1  0  0  0  0
 19 20  2  0  0  0  0
 21 22  2  0  0  0  0
 21 29  1  0  0  0  0
 22 23  1  0  0  0  0
 23 24  2  0  0  0  0
 24 25  1  0  0  0  0
 24 28  1  0  0  0  0
 25 26  2  0  0  0  0
 26 27  1  0  0  0  0
 27 28  1  0  0  0  0
 28 29  2  0  0  0  0
 30 31  2  0  0  0  0
  1 32  1  0  0  0  0
  1 33  1  0  0  0  0
  2 34  1  0  0  0  0
  2 35  1  0  0  0  0
  4 36  1  0  0  0  0
  4 37  1  0  0  0  0
  5 38  1  0  0  0  0
  5 39  1  0  0  0  0
  8 40  1  0  0  0  0
  9 41  1  0  0  0  0
 11 42  1  0  0  0  0
 15 43  1  0  0  0  0
 17 44  1  0  0  0  0
 18 45  1  0  0  0  0
 22 46  1  0  0  0  0
 23 47  1  0  0  0  0
 25 48  1  0  0  0  0
 27 49  1  0  0  0  0
 29 50  1  0  0  0  0
 30 51  1  0  0  0  0
 31 52  1  0  0  0  0
M  END
> <IC50[nM]>
7.7

$$$$
CHEMBL3265032
  -OEChem-05192314333D
 Structure written by MMmdl.
 52 57  0     0  0  0  0  0  0999 V2000
   -5.2528   -4.0279   13.4883 C   0  0  0  0  0  0  0  0  0  0  0  0
   -4.5590   -2.6369   13.4544 C   0  0  0  0  0  0  0  0  0  0  0  0
   -3.8919   -2.2470   14.7137 N   0  0  0  0  0  0  0  0  0  0  0  0
   -4.7198   -2.6287   15.8665 C   0  0  0  0  0  0  0  0  0  0  0  0
   -5.4261   -3.9885   15.8402 C   0  0  0  0  0  0  0  0  0  0  0  0
   -6.1177   -4.1508   14.6092 O   0  0  0  0  0  0  0  0  0  0  0  0
   -2.5101   -2.0763   14.8035 C   0  0  0  0  0  0  0  0  0  0  0  0
   -1.8815   -1.1097   14.0182 C   0  0  0  0  0  0  0  0  0  0  0  0
   -0.5196   -0.8466   14.1763 C   0  0  0  0  0  0  0  0  0  0  0  0
    0.2358   -1.5888   15.0999 C   0  0  0  0  0  0  0  0  0  0  0  0
    1.6095   -1.3595   15.3505 N   0  0  0  0  0  0  0  0  0  0  0  0
    2.5288   -0.4326   14.7915 C   0  0  0  0  0  0  0  0  0  0  0  0
    2.1515    0.4038   13.7773 N   0  0  0  0  0  0  0  0  0  0  0  0
    3.0856    1.2408   13.2315 C   0  0  0  0  0  0  0  0  0  0  0  0
    4.3919    1.2835   13.6955 C   0  0  0  0  0  0  0  0  0  0  0  0
    4.7346    0.4998   14.7545 N   0  0  0  0  0  0  0  0  0  0  0  0
    5.8922    0.3978   15.4788 C   0  0  0  0  0  0  0  0  0  0  0  0
    5.6049   -0.5481   16.4962 C   0  0  0  0  0  0  0  0  0  0  0  0
    4.3940   -1.0599   16.3510 N   0  0  0  0  0  0  0  0  0  0  0  0
    3.8344   -0.3880   15.3306 C   0  0  0  0  0  0  0  0  0  0  0  0
    2.6174    2.1451   12.1221 C   0  0  0  0  0  0  0  0  0  0  0  0
    3.5375    2.6360   11.1692 C   0  0  0  0  0  0  0  0  0  0  0  0
    3.1548    3.4584   10.1087 C   0  0  0  0  0  0  0  0  0  0  0  0
    1.8089    3.8176   10.0151 C   0  0  0  0  0  0  0  0  0  0  0  0
    0.9999    4.6108    9.1243 C   0  0  0  0  0  0  0  0  0  0  0  0
   -0.2405    4.6150    9.5301 N   0  0  0  0  0  0  0  0  0  0  0  0
   -0.3274    3.8782   10.6339 N   0  0  0  0  0  0  0  0  0  0  0  0
    0.8831    3.3398   10.9927 C   0  0  0  0  0  0  0  0  0  0  0  0
    1.2567    2.5006   12.0460 C   0  0  0  0  0  0  0  0  0  0  0  0
   -0.3865   -2.5955   15.8355 C   0  0  0  0  0  0  0  0  0  0  0  0
   -1.7498   -2.8337   15.7040 C   0  0  0  0  0  0  0  0  0  0  0  0
   -5.8405   -4.1569   12.5674 H   0  0  0  0  0  0  0  0  0  0  0  0
   -4.4820   -4.8107   13.5440 H   0  0  0  0  0  0  0  0  0  0  0  0
   -3.8021   -2.6512   12.6563 H   0  0  0  0  0  0  0  0  0  0  0  0
   -5.3221   -1.8793   13.2225 H   0  0  0  0  0  0  0  0  0  0  0  0
   -4.0678   -2.6183   16.7524 H   0  0  0  0  0  0  0  0  0  0  0  0
   -5.4990   -1.8599   15.9757 H   0  0  0  0  0  0  0  0  0  0  0  0
   -4.6797   -4.7893   15.9475 H   0  0  0  0  0  0  0  0  0  0  0  0
   -6.1441   -4.0427   16.6718 H   0  0  0  0  0  0  0  0  0  0  0  0
   -2.4521   -0.5614   13.2832 H   0  0  0  0  0  0  0  0  0  0  0  0
   -0.0469   -0.0731   13.5891 H   0  0  0  0  0  0  0  0  0  0  0  0
    2.0043   -1.9584   16.0472 H   0  0  0  0  0  0  0  0  0  0  0  0
    5.1225    1.9256   13.2261 H   0  0  0  0  0  0  0  0  0  0  0  0
    6.8211    0.9228   15.3119 H   0  0  0  0  0  0  0  0  0  0  0  0
    6.2881   -0.8162   17.2885 H   0  0  0  0  0  0  0  0  0  0  0  0
    4.5783    2.3641   11.2652 H   0  0  0  0  0  0  0  0  0  0  0  0
    3.8763    3.8057    9.3840 H   0  0  0  0  0  0  0  0  0  0  0  0
    1.3665    5.1263    8.2490 H   0  0  0  0  0  0  0  0  0  0  0  0
   -0.9986    5.0922    9.0856 H   0  0  0  0  0  0  0  0  0  0  0  0
    0.5368    2.1420   12.7668 H   0  0  0  0  0  0  0  0  0  0  0  0
    0.1972   -3.1978   16.5158 H   0  0  0  0  0  0  0  0  0  0  0  0
   -2.2230   -3.6029   16.2963 H   0  0  0  0  0  0  0  0  0  0  0  0
  1  2  1  0  0  0  0
  1  6  1  0  0  0  0
  2  3  1  0  0  0  0
  3  4  1  0  0  0  0
  3  7  1  0  0  0  0
  4  5  1  0  0  0  0
  5  6  1  0  0  0  0
  7  8  2  0  0  0  0
  7 31  1  0  0  0  0
  8  9  1  0  0  0  0
  9 10  2  0  0  0  0
 10 11  1  0  0  0  0
 10 30  1  0  0  0  0
 11 12  1  0  0  0  0
 12 13  2  0  0  0  0
 12 20  1  0  0  0  0
 13 14  1  0  0  0  0
 14 15  2  0  0  0  0
 14 21  1  0  0  0  0
 15 16  1  0  0  0  0
 16 17  1  0  0  0  0
 16 20  1  0  0  0  0
 17 18  2  0  0  0  0
 18 19  1  0  0  0  0
 19 20  2  0  0  0  0
 21 22  1  0  0  0  0
 21 29  2  0  0  0  0
 22 23  2  0  0  0  0
 23 24  1  0  0  0  0
 24 25  2  0  0  0  0
 24 28  1  0  0  0  0
 25 26  1  0  0  0  0
 26 27  1  0  0  0  0
 27 28  2  0  0  0  0
 28 29  1  0  0  0  0
 30 31  2  0  0  0  0
  1 32  1  0  0  0  0
  1 33  1  0  0  0  0
  2 34  1  0  0  0  0
  2 35  1  0  0  0  0
  4 36  1  0  0  0  0
  4 37  1  0  0  0  0
  5 38  1  0  0  0  0
  5 39  1  0  0  0  0
  8 40  1  0  0  0  0
  9 41  1  0  0  0  0
 11 42  1  0  0  0  0
 15 43  1  0  0  0  0
 17 44  1  0  0  0  0
 18 45  1  0  0  0  0
 22 46  1  0  0  0  0
 23 47  1  0  0  0  0
 25 48  1  0  0  0  0
 26 49  1  0  0  0  0
 29 50  1  0  0  0  0
 30 51  1  0  0  0  0
 31 52  1  0  0  0  0
M  END
> <IC50[nM]>
7.7

$$$$
CHEMBL3265032
  -OEChem-05192314333D
 Structure written by MMmdl.
 52 57  0     0  0  0  0  0  0999 V2000
   -5.2528   -4.0279   13.4883 C   0  0  0  0  0  0  0  0  0  0  0  0
   -4.5590   -2.6369   13.4544 C   0  0  0  0  0  0  0  0  0  0  0  0
   -3.8919   -2.2470   14.7137 N   0  0  0  0  0  0  0  0  0  0  0  0
   -4.7198   -2.6287   15.8665 C   0  0  0  0  0  0  0  0  0  0  0  0
   -5.4261   -3.9885   15.8402 C   0  0  0  0  0  0  0  0  0  0  0  0
   -6.1177   -4.1508   14.6092 O   0  0  0  0  0  0  0  0  0  0  0  0
   -2.5101   -2.0763   14.8035 C   0  0  0  0  0  0  0  0  0  0  0  0
   -1.8815   -1.1097   14.0182 C   0  0  0  0  0  0  0  0  0  0  0  0
   -0.5196   -0.8466   14.1763 C   0  0  0  0  0  0  0  0  0  0  0  0
    0.2358   -1.5888   15.0999 C   0  0  0  0  0  0  0  0  0  0  0  0
    1.6095   -1.3595   15.3505 N   0  0  0  0  0  0  0  0  0  0  0  0
    2.5288   -0.4326   14.7915 C   0  0  0  0  0  0  0  0  0  0  0  0
    2.1515    0.4038   13.7773 N   0  0  0  0  0  0  0  0  0  0  0  0
    3.0856    1.2408   13.2315 C   0  0  0  0  0  0  0  0  0  0  0  0
    4.3919    1.2835   13.6955 C   0  0  0  0  0  0  0  0  0  0  0  0
    4.7346    0.4998   14.7545 N   0  0  0  0  0  0  0  0  0  0  0  0
    5.8922    0.3978   15.4788 C   0  0  0  0  0  0  0  0  0  0  0  0
    5.6049   -0.5481   16.4962 C   0  0  0  0  0  0  0  0  0  0  0  0
    4.3940   -1.0599   16.3510 N   0  0  0  0  0  0  0  0  0  0  0  0
    3.8344   -0.3880   15.3306 C   0  0  0  0  0  0  0  0  0  0  0  0
    2.6174    2.1451   12.1221 C   0  0  0  0  0  0  0  0  0  0  0  0
    3.5375    2.6360   11.1692 C   0  0  0  0  0  0  0  0  0  0  0  0
    3.1548    3.4584   10.1087 C   0  0  0  0  0  0  0  0  0  0  0  0
    1.8089    3.8176   10.0151 C   0  0  0  0  0  0  0  0  0  0  0  0
    0.9999    4.6108    9.1243 C   0  0  0  0  0  0  0  0  0  0  0  0
   -0.2405    4.6150    9.5301 N   0  0  0  0  0  0  0  0  0  0  0  0
   -0.3274    3.8782   10.6339 N   0  0  0  0  0  0  0  0  0  0  0  0
    0.8831    3.3398   10.9927 C   0  0  0  0  0  0  0  0  0  0  0  0
    1.2567    2.5006   12.0460 C   0  0  0  0  0  0  0  0  0  0  0  0
   -0.3865   -2.5955   15.8355 C   0  0  0  0  0  0  0  0  0  0  0  0
   -1.7498   -2.8337   15.7040 C   0  0  0  0  0  0  0  0  0  0  0  0
   -5.8405   -4.1569   12.5674 H   0  0  0  0  0  0  0  0  0  0  0  0
   -4.4820   -4.8107   13.5440 H   0  0  0  0  0  0  0  0  0  0  0  0
   -3.8021   -2.6512   12.6563 H   0  0  0  0  0  0  0  0  0  0  0  0
   -5.3221   -1.8793   13.2225 H   0  0  0  0  0  0  0  0  0  0  0  0
   -4.0678   -2.6183   16.7524 H   0  0  0  0  0  0  0  0  0  0  0  0
   -5.4990   -1.8599   15.9757 H   0  0  0  0  0  0  0  0  0  0  0  0
   -4.6797   -4.7893   15.9475 H   0  0  0  0  0  0  0  0  0  0  0  0
   -6.1441   -4.0427   16.6718 H   0  0  0  0  0  0  0  0  0  0  0  0
   -2.4521   -0.5614   13.2832 H   0  0  0  0  0  0  0  0  0  0  0  0
   -0.0469   -0.0731   13.5891 H   0  0  0  0  0  0  0  0  0  0  0  0
    1.2098    0.4034   13.4409 H   0  0  0  0  0  0  0  0  0  0  0  0
    5.1225    1.9256   13.2261 H   0  0  0  0  0  0  0  0  0  0  0  0
    6.8211    0.9228   15.3119 H   0  0  0  0  0  0  0  0  0  0  0  0
    6.2881   -0.8162   17.2885 H   0  0  0  0  0  0  0  0  0  0  0  0
    4.5783    2.3641   11.2652 H   0  0  0  0  0  0  0  0  0  0  0  0
    3.8763    3.8057    9.3840 H   0  0  0  0  0  0  0  0  0  0  0  0
    1.3665    5.1263    8.2490 H   0  0  0  0  0  0  0  0  0  0  0  0
   -1.1758    3.7333   11.1431 H   0  0  0  0  0  0  0  0  0  0  0  0
    0.5368    2.1420   12.7668 H   0  0  0  0  0  0  0  0  0  0  0  0
    0.1972   -3.1978   16.5158 H   0  0  0  0  0  0  0  0  0  0  0  0
   -2.2230   -3.6029   16.2963 H   0  0  0  0  0  0  0  0  0  0  0  0
  1  2  1  0  0  0  0
  1  6  1  0  0  0  0
  2  3  1  0  0  0  0
  3  4  1  0  0  0  0
  3  7  1  0  0  0  0
  4  5  1  0  0  0  0
  5  6  1  0  0  0  0
  7  8  2  0  0  0  0
  7 31  1  0  0  0  0
  8  9  1  0  0  0  0
  9 10  2  0  0  0  0
 10 11  1  0  0  0  0
 10 30  1  0  0  0  0
 11 12  2  0  0  0  0
 12 13  1  0  0  0  0
 12 20  1  0  0  0  0
 13 14  1  0  0  0  0
 14 15  2  0  0  0  0
 14 21  1  0  0  0  0
 15 16  1  0  0  0  0
 16 17  1  0  0  0  0
 16 20  1  0  0  0  0
 17 18  2  0  0  0  0
 18 19  1  0  0  0  0
 19 20  2  0  0  0  0
 21 22  2  0  0  0  0
 21 29  1  0  0  0  0
 22 23  1  0  0  0  0
 23 24  2  0  0  0  0
 24 25  1  0  0  0  0
 24 28  1  0  0  0  0
 25 26  2  0  0  0  0
 26 27  1  0  0  0  0
 27 28  1  0  0  0  0
 28 29  2  0  0  0  0
 30 31  2  0  0  0  0
  1 32  1  0  0  0  0
  1 33  1  0  0  0  0
  2 34  1  0  0  0  0
  2 35  1  0  0  0  0
  4 36  1  0  0  0  0
  4 37  1  0  0  0  0
  5 38  1  0  0  0  0
  5 39  1  0  0  0  0
  8 40  1  0  0  0  0
  9 41  1  0  0  0  0
 13 42  1  0  0  0  0
 15 43  1  0  0  0  0
 17 44  1  0  0  0  0
 18 45  1  0  0  0  0
 22 46  1  0  0  0  0
 23 47  1  0  0  0  0
 25 48  1  0  0  0  0
 27 49  1  0  0  0  0
 29 50  1  0  0  0  0
 30 51  1  0  0  0  0
 31 52  1  0  0  0  0
M  END
> <IC50[nM]>
7.7

$$$$
CHEMBL3265032
  -OEChem-05192314333D
 Structure written by MMmdl.
 52 57  0     0  0  0  0  0  0999 V2000
   -5.2528   -4.0279   13.4883 C   0  0  0  0  0  0  0  0  0  0  0  0
   -4.5590   -2.6369   13.4544 C   0  0  0  0  0  0  0  0  0  0  0  0
   -3.8919   -2.2470   14.7137 N   0  0  0  0  0  0  0  0  0  0  0  0
   -4.7198   -2.6287   15.8665 C   0  0  0  0  0  0  0  0  0  0  0  0
   -5.4261   -3.9885   15.8402 C   0  0  0  0  0  0  0  0  0  0  0  0
   -6.1177   -4.1508   14.6092 O   0  0  0  0  0  0  0  0  0  0  0  0
   -2.5101   -2.0763   14.8035 C   0  0  0  0  0  0  0  0  0  0  0  0
   -1.8815   -1.1097   14.0182 C   0  0  0  0  0  0  0  0  0  0  0  0
   -0.5196   -0.8466   14.1763 C   0  0  0  0  0  0  0  0  0  0  0  0
    0.2358   -1.5888   15.0999 C   0  0  0  0  0  0  0  0  0  0  0  0
    1.6095   -1.3595   15.3505 N   0  0  0  0  0  0  0  0  0  0  0  0
    2.5288   -0.4326   14.7915 C   0  0  0  0  0  0  0  0  0  0  0  0
    2.1515    0.4038   13.7773 N   0  0  0  0  0  0  0  0  0  0  0  0
    3.0856    1.2408   13.2315 C   0  0  0  0  0  0  0  0  0  0  0  0
    4.3919    1.2835   13.6955 C   0  0  0  0  0  0  0  0  0  0  0  0
    4.7346    0.4998   14.7545 N   0  0  0  0  0  0  0  0  0  0  0  0
    5.8922    0.3978   15.4788 C   0  0  0  0  0  0  0  0  0  0  0  0
    5.6049   -0.5481   16.4962 C   0  0  0  0  0  0  0  0  0  0  0  0
    4.3940   -1.0599   16.3510 N   0  0  0  0  0  0  0  0  0  0  0  0
    3.8344   -0.3880   15.3306 C   0  0  0  0  0  0  0  0  0  0  0  0
    2.6174    2.1451   12.1221 C   0  0  0  0  0  0  0  0  0  0  0  0
    3.5375    2.6360   11.1692 C   0  0  0  0  0  0  0  0  0  0  0  0
    3.1548    3.4584   10.1087 C   0  0  0  0  0  0  0  0  0  0  0  0
    1.8089    3.8176   10.0151 C   0  0  0  0  0  0  0  0  0  0  0  0
    0.9999    4.6108    9.1243 C   0  0  0  0  0  0  0  0  0  0  0  0
   -0.2405    4.6150    9.5301 N   0  0  0  0  0  0  0  0  0  0  0  0
   -0.3274    3.8782   10.6339 N   0  0  0  0  0  0  0  0  0  0  0  0
    0.8831    3.3398   10.9927 C   0  0  0  0  0  0  0  0  0  0  0  0
    1.2567    2.5006   12.0460 C   0  0  0  0  0  0  0  0  0  0  0  0
   -0.3865   -2.5955   15.8355 C   0  0  0  0  0  0  0  0  0  0  0  0
   -1.7498   -2.8337   15.7040 C   0  0  0  0  0  0  0  0  0  0  0  0
   -5.8405   -4.1569   12.5674 H   0  0  0  0  0  0  0  0  0  0  0  0
   -4.4820   -4.8107   13.5440 H   0  0  0  0  0  0  0  0  0  0  0  0
   -3.8021   -2.6512   12.6563 H   0  0  0  0  0  0  0  0  0  0  0  0
   -5.3221   -1.8793   13.2225 H   0  0  0  0  0  0  0  0  0  0  0  0
   -4.0678   -2.6183   16.7524 H   0  0  0  0  0  0  0  0  0  0  0  0
   -5.4990   -1.8599   15.9757 H   0  0  0  0  0  0  0  0  0  0  0  0
   -4.6797   -4.7893   15.9475 H   0  0  0  0  0  0  0  0  0  0  0  0
   -6.1441   -4.0427   16.6718 H   0  0  0  0  0  0  0  0  0  0  0  0
   -2.4521   -0.5614   13.2832 H   0  0  0  0  0  0  0  0  0  0  0  0
   -0.0469   -0.0731   13.5891 H   0  0  0  0  0  0  0  0  0  0  0  0
    1.2098    0.4034   13.4409 H   0  0  0  0  0  0  0  0  0  0  0  0
    5.1225    1.9256   13.2261 H   0  0  0  0  0  0  0  0  0  0  0  0
    6.8211    0.9228   15.3119 H   0  0  0  0  0  0  0  0  0  0  0  0
    6.2881   -0.8162   17.2885 H   0  0  0  0  0  0  0  0  0  0  0  0
    4.5783    2.3641   11.2652 H   0  0  0  0  0  0  0  0  0  0  0  0
    3.8763    3.8057    9.3840 H   0  0  0  0  0  0  0  0  0  0  0  0
    1.3665    5.1263    8.2490 H   0  0  0  0  0  0  0  0  0  0  0  0
   -0.9986    5.0922    9.0856 H   0  0  0  0  0  0  0  0  0  0  0  0
    0.5368    2.1420   12.7668 H   0  0  0  0  0  0  0  0  0  0  0  0
    0.1972   -3.1978   16.5158 H   0  0  0  0  0  0  0  0  0  0  0  0
   -2.2230   -3.6029   16.2963 H   0  0  0  0  0  0  0  0  0  0  0  0
  1  2  1  0  0  0  0
  1  6  1  0  0  0  0
  2  3  1  0  0  0  0
  3  4  1  0  0  0  0
  3  7  1  0  0  0  0
  4  5  1  0  0  0  0
  5  6  1  0  0  0  0
  7  8  2  0  0  0  0
  7 31  1  0  0  0  0
  8  9  1  0  0  0  0
  9 10  2  0  0  0  0
 10 11  1  0  0  0  0
 10 30  1  0  0  0  0
 11 12  2  0  0  0  0
 12 13  1  0  0  0  0
 12 20  1  0  0  0  0
 13 14  1  0  0  0  0
 14 15  2  0  0  0  0
 14 21  1  0  0  0  0
 15 16  1  0  0  0  0
 16 17  1  0  0  0  0
 16 20  1  0  0  0  0
 17 18  2  0  0  0  0
 18 19  1  0  0  0  0
 19 20  2  0  0  0  0
 21 22  1  0  0  0  0
 21 29  2  0  0  0  0
 22 23  2  0  0  0  0
 23 24  1  0  0  0  0
 24 25  2  0  0  0  0
 24 28  1  0  0  0  0
 25 26  1  0  0  0  0
 26 27  1  0  0  0  0
 27 28  2  0  0  0  0
 28 29  1  0  0  0  0
 30 31  2  0  0  0  0
  1 32  1  0  0  0  0
  1 33  1  0  0  0  0
  2 34  1  0  0  0  0
  2 35  1  0  0  0  0
  4 36  1  0  0  0  0
  4 37  1  0  0  0  0
  5 38  1  0  0  0  0
  5 39  1  0  0  0  0
  8 40  1  0  0  0  0
  9 41  1  0  0  0  0
 13 42  1  0  0  0  0
 15 43  1  0  0  0  0
 17 44  1  0  0  0  0
 18 45  1  0  0  0  0
 22 46  1  0  0  0  0
 23 47  1  0  0  0  0
 25 48  1  0  0  0  0
 26 49  1  0  0  0  0
 29 50  1  0  0  0  0
 30 51  1  0  0  0  0
 31 52  1  0  0  0  0
M  END
> <IC50[nM]>
7.7

$$$$
CHEMBL3265032
  -OEChem-05192314333D
 Structure written by MMmdl.
 52 57  0     0  0  0  0  0  0999 V2000
   -5.2528   -4.0279   13.4883 C   0  0  0  0  0  0  0  0  0  0  0  0
   -4.5590   -2.6369   13.4544 C   0  0  0  0  0  0  0  0  0  0  0  0
   -3.8919   -2.2470   14.7137 N   0  0  0  0  0  0  0  0  0  0  0  0
   -4.7198   -2.6287   15.8665 C   0  0  0  0  0  0  0  0  0  0  0  0
   -5.4261   -3.9885   15.8402 C   0  0  0  0  0  0  0  0  0  0  0  0
   -6.1177   -4.1508   14.6092 O   0  0  0  0  0  0  0  0  0  0  0  0
   -2.5101   -2.0763   14.8035 C   0  0  0  0  0  0  0  0  0  0  0  0
   -1.8815   -1.1097   14.0182 C   0  0  0  0  0  0  0  0  0  0  0  0
   -0.5196   -0.8466   14.1763 C   0  0  0  0  0  0  0  0  0  0  0  0
    0.2358   -1.5888   15.0999 C   0  0  0  0  0  0  0  0  0  0  0  0
    1.6095   -1.3595   15.3505 N   0  0  0  0  0  0  0  0  0  0  0  0
    2.5288   -0.4326   14.7915 C   0  0  0  0  0  0  0  0  0  0  0  0
    2.1515    0.4038   13.7773 N   0  0  0  0  0  0  0  0  0  0  0  0
    3.0856    1.2408   13.2315 C   0  0  0  0  0  0  0  0  0  0  0  0
    4.3919    1.2835   13.6955 C   0  0  0  0  0  0  0  0  0  0  0  0
    4.7346    0.4998   14.7545 N   0  0  0  0  0  0  0  0  0  0  0  0
    5.8922    0.3978   15.4788 C   0  0  0  0  0  0  0  0  0  0  0  0
    5.6049   -0.5481   16.4962 C   0  0  0  0  0  0  0  0  0  0  0  0
    4.3940   -1.0599   16.3510 N   0  0  0  0  0  0  0  0  0  0  0  0
    3.8344   -0.3880   15.3306 C   0  0  0  0  0  0  0  0  0  0  0  0
    2.6174    2.1451   12.1221 C   0  0  0  0  0  0  0  0  0  0  0  0
    3.5375    2.6360   11.1692 C   0  0  0  0  0  0  0  0  0  0  0  0
    3.1548    3.4584   10.1087 C   0  0  0  0  0  0  0  0  0  0  0  0
    1.8089    3.8176   10.0151 C   0  0  0  0  0  0  0  0  0  0  0  0
    0.9999    4.6108    9.1243 C   0  0  0  0  0  0  0  0  0  0  0  0
   -0.2405    4.6150    9.5301 N   0  0  0  0  0  0  0  0  0  0  0  0
   -0.3274    3.8782   10.6339 N   0  0  0  0  0  0  0  0  0  0  0  0
    0.8831    3.3398   10.9927 C   0  0  0  0  0  0  0  0  0  0  0  0
    1.2567    2.5006   12.0460 C   0  0  0  0  0  0  0  0  0  0  0  0
   -0.3865   -2.5955   15.8355 C   0  0  0  0  0  0  0  0  0  0  0  0
   -1.7498   -2.8337   15.7040 C   0  0  0  0  0  0  0  0  0  0  0  0
   -5.8405   -4.1569   12.5674 H   0  0  0  0  0  0  0  0  0  0  0  0
   -4.4820   -4.8107   13.5440 H   0  0  0  0  0  0  0  0  0  0  0  0
   -3.8021   -2.6512   12.6563 H   0  0  0  0  0  0  0  0  0  0  0  0
   -5.3221   -1.8793   13.2225 H   0  0  0  0  0  0  0  0  0  0  0  0
   -4.0678   -2.6183   16.7524 H   0  0  0  0  0  0  0  0  0  0  0  0
   -5.4990   -1.8599   15.9757 H   0  0  0  0  0  0  0  0  0  0  0  0
   -4.6797   -4.7893   15.9475 H   0  0  0  0  0  0  0  0  0  0  0  0
   -6.1441   -4.0427   16.6718 H   0  0  0  0  0  0  0  0  0  0  0  0
   -2.4521   -0.5614   13.2832 H   0  0  0  0  0  0  0  0  0  0  0  0
   -0.0469   -0.0731   13.5891 H   0  0  0  0  0  0  0  0  0  0  0  0
    2.0043   -1.9584   16.0472 H   0  0  0  0  0  0  0  0  0  0  0  0
    5.1225    1.9256   13.2261 H   0  0  0  0  0  0  0  0  0  0  0  0
    6.8211    0.9228   15.3119 H   0  0  0  0  0  0  0  0  0  0  0  0
    6.2881   -0.8162   17.2885 H   0  0  0  0  0  0  0  0  0  0  0  0
    4.5783    2.3641   11.2652 H   0  0  0  0  0  0  0  0  0  0  0  0
    3.8763    3.8057    9.3840 H   0  0  0  0  0  0  0  0  0  0  0  0
    1.3810    5.6425    9.1080 H   0  0  0  0  0  0  0  0  0  0  0  0
    1.0500    4.1854    8.1111 H   0  0  0  0  0  0  0  0  0  0  0  0
    0.5368    2.1420   12.7668 H   0  0  0  0  0  0  0  0  0  0  0  0
    0.1972   -3.1978   16.5158 H   0  0  0  0  0  0  0  0  0  0  0  0
   -2.2230   -3.6029   16.2963 H   0  0  0  0  0  0  0  0  0  0  0  0
  1  2  1  0  0  0  0
  1  6  1  0  0  0  0
  2  3  1  0  0  0  0
  3  4  1  0  0  0  0
  3  7  1  0  0  0  0
  4  5  1  0  0  0  0
  5  6  1  0  0  0  0
  7  8  2  0  0  0  0
  7 31  1  0  0  0  0
  8  9  1  0  0  0  0
  9 10  2  0  0  0  0
 10 11  1  0  0  0  0
 10 30  1  0  0  0  0
 11 12  1  0  0  0  0
 12 13  2  0  0  0  0
 12 20  1  0  0  0  0
 13 14  1  0  0  0  0
 14 15  2  0  0  0  0
 14 21  1  0  0  0  0
 15 16  1  0  0  0  0
 16 17  1  0  0  0  0
 16 20  1  0  0  0  0
 17 18  2  0  0  0  0
 18 19  1  0  0  0  0
 19 20  2  0  0  0  0
 21 22  2  0  0  0  0
 21 29  1  0  0  0  0
 22 23  1  0  0  0  0
 23 24  2  0  0  0  0
 24 25  1  0  0  0  0
 24 28  1  0  0  0  0
 25 26  1  0  0  0  0
 26 27  2  0  0  0  0
 27 28  1  0  0  0  0
 28 29  2  0  0  0  0
 30 31  2  0  0  0  0
  1 32  1  0  0  0  0
  1 33  1  0  0  0  0
  2 34  1  0  0  0  0
  2 35  1  0  0  0  0
  4 36  1  0  0  0  0
  4 37  1  0  0  0  0
  5 38  1  0  0  0  0
  5 39  1  0  0  0  0
  8 40  1  0  0  0  0
  9 41  1  0  0  0  0
 11 42  1  0  0  0  0
 15 43  1  0  0  0  0
 17 44  1  0  0  0  0
 18 45  1  0  0  0  0
 22 46  1  0  0  0  0
 23 47  1  0  0  0  0
 25 48  1  0  0  0  0
 25 49  1  0  0  0  0
 29 50  1  0  0  0  0
 30 51  1  0  0  0  0
 31 52  1  0  0  0  0
M  END
> <IC50[nM]>
7.7

$$$$
CHEMBL3265032
  -OEChem-05192314333D
 Structure written by MMmdl.
 52 57  0     0  0  0  0  0  0999 V2000
   -5.2528   -4.0279   13.4883 C   0  0  0  0  0  0  0  0  0  0  0  0
   -4.5590   -2.6369   13.4544 C   0  0  0  0  0  0  0  0  0  0  0  0
   -3.8919   -2.2470   14.7137 N   0  0  0  0  0  0  0  0  0  0  0  0
   -4.7198   -2.6287   15.8665 C   0  0  0  0  0  0  0  0  0  0  0  0
   -5.4261   -3.9885   15.8402 C   0  0  0  0  0  0  0  0  0  0  0  0
   -6.1177   -4.1508   14.6092 O   0  0  0  0  0  0  0  0  0  0  0  0
   -2.5101   -2.0763   14.8035 C   0  0  0  0  0  0  0  0  0  0  0  0
   -1.8815   -1.1097   14.0182 C   0  0  0  0  0  0  0  0  0  0  0  0
   -0.5196   -0.8466   14.1763 C   0  0  0  0  0  0  0  0  0  0  0  0
    0.2358   -1.5888   15.0999 C   0  0  0  0  0  0  0  0  0  0  0  0
    1.6095   -1.3595   15.3505 N   0  0  0  0  0  0  0  0  0  0  0  0
    2.5288   -0.4326   14.7915 C   0  0  0  0  0  0  0  0  0  0  0  0
    2.1515    0.4038   13.7773 N   0  0  0  0  0  0  0  0  0  0  0  0
    3.0856    1.2408   13.2315 C   0  0  0  0  0  0  0  0  0  0  0  0
    4.3919    1.2835   13.6955 C   0  0  0  0  0  0  0  0  0  0  0  0
    4.7346    0.4998   14.7545 N   0  0  0  0  0  0  0  0  0  0  0  0
    5.8922    0.3978   15.4788 C   0  0  0  0  0  0  0  0  0  0  0  0
    5.6049   -0.5481   16.4962 C   0  0  0  0  0  0  0  0  0  0  0  0
    4.3940   -1.0599   16.3510 N   0  0  0  0  0  0  0  0  0  0  0  0
    3.8344   -0.3880   15.3306 C   0  0  0  0  0  0  0  0  0  0  0  0
    2.6174    2.1451   12.1221 C   0  0  0  0  0  0  0  0  0  0  0  0
    3.5375    2.6360   11.1692 C   0  0  0  0  0  0  0  0  0  0  0  0
    3.1548    3.4584   10.1087 C   0  0  0  0  0  0  0  0  0  0  0  0
    1.8089    3.8176   10.0151 C   0  0  0  0  0  0  0  0  0  0  0  0
    0.9999    4.6108    9.1243 C   0  0  0  0  0  0  0  0  0  0  0  0
   -0.2405    4.6150    9.5301 N   0  0  0  0  0  0  0  0  0  0  0  0
   -0.3274    3.8782   10.6339 N   0  0  0  0  0  0  0  0  0  0  0  0
    0.8831    3.3398   10.9927 C   0  0  0  0  0  0  0  0  0  0  0  0
    1.2567    2.5006   12.0460 C   0  0  0  0  0  0  0  0  0  0  0  0
   -0.3865   -2.5955   15.8355 C   0  0  0  0  0  0  0  0  0  0  0  0
   -1.7498   -2.8337   15.7040 C   0  0  0  0  0  0  0  0  0  0  0  0
   -5.8405   -4.1569   12.5674 H   0  0  0  0  0  0  0  0  0  0  0  0
   -4.4820   -4.8107   13.5440 H   0  0  0  0  0  0  0  0  0  0  0  0
   -3.8021   -2.6512   12.6563 H   0  0  0  0  0  0  0  0  0  0  0  0
   -5.3221   -1.8793   13.2225 H   0  0  0  0  0  0  0  0  0  0  0  0
   -4.0678   -2.6183   16.7524 H   0  0  0  0  0  0  0  0  0  0  0  0
   -5.4990   -1.8599   15.9757 H   0  0  0  0  0  0  0  0  0  0  0  0
   -4.6797   -4.7893   15.9475 H   0  0  0  0  0  0  0  0  0  0  0  0
   -6.1441   -4.0427   16.6718 H   0  0  0  0  0  0  0  0  0  0  0  0
   -2.4521   -0.5614   13.2832 H   0  0  0  0  0  0  0  0  0  0  0  0
   -0.0469   -0.0731   13.5891 H   0  0  0  0  0  0  0  0  0  0  0  0
    1.2098    0.4034   13.4409 H   0  0  0  0  0  0  0  0  0  0  0  0
    5.1225    1.9256   13.2261 H   0  0  0  0  0  0  0  0  0  0  0  0
    6.8211    0.9228   15.3119 H   0  0  0  0  0  0  0  0  0  0  0  0
    6.2881   -0.8162   17.2885 H   0  0  0  0  0  0  0  0  0  0  0  0
    4.5783    2.3641   11.2652 H   0  0  0  0  0  0  0  0  0  0  0  0
    3.8763    3.8057    9.3840 H   0  0  0  0  0  0  0  0  0  0  0  0
    1.3810    5.6425    9.1080 H   0  0  0  0  0  0  0  0  0  0  0  0
    1.0500    4.1854    8.1111 H   0  0  0  0  0  0  0  0  0  0  0  0
    0.5368    2.1420   12.7668 H   0  0  0  0  0  0  0  0  0  0  0  0
    0.1972   -3.1978   16.5158 H   0  0  0  0  0  0  0  0  0  0  0  0
   -2.2230   -3.6029   16.2963 H   0  0  0  0  0  0  0  0  0  0  0  0
  1  2  1  0  0  0  0
  1  6  1  0  0  0  0
  2  3  1  0  0  0  0
  3  4  1  0  0  0  0
  3  7  1  0  0  0  0
  4  5  1  0  0  0  0
  5  6  1  0  0  0  0
  7  8  2  0  0  0  0
  7 31  1  0  0  0  0
  8  9  1  0  0  0  0
  9 10  2  0  0  0  0
 10 11  1  0  0  0  0
 10 30  1  0  0  0  0
 11 12  2  0  0  0  0
 12 13  1  0  0  0  0
 12 20  1  0  0  0  0
 13 14  1  0  0  0  0
 14 15  2  0  0  0  0
 14 21  1  0  0  0  0
 15 16  1  0  0  0  0
 16 17  1  0  0  0  0
 16 20  1  0  0  0  0
 17 18  2  0  0  0  0
 18 19  1  0  0  0  0
 19 20  2  0  0  0  0
 21 22  2  0  0  0  0
 21 29  1  0  0  0  0
 22 23  1  0  0  0  0
 23 24  2  0  0  0  0
 24 25  1  0  0  0  0
 24 28  1  0  0  0  0
 25 26  1  0  0  0  0
 26 27  2  0  0  0  0
 27 28  1  0  0  0  0
 28 29  2  0  0  0  0
 30 31  2  0  0  0  0
  1 32  1  0  0  0  0
  1 33  1  0  0  0  0
  2 34  1  0  0  0  0
  2 35  1  0  0  0  0
  4 36  1  0  0  0  0
  4 37  1  0  0  0  0
  5 38  1  0  0  0  0
  5 39  1  0  0  0  0
  8 40  1  0  0  0  0
  9 41  1  0  0  0  0
 13 42  1  0  0  0  0
 15 43  1  0  0  0  0
 17 44  1  0  0  0  0
 18 45  1  0  0  0  0
 22 46  1  0  0  0  0
 23 47  1  0  0  0  0
 25 48  1  0  0  0  0
 25 49  1  0  0  0  0
 29 50  1  0  0  0  0
 30 51  1  0  0  0  0
 31 52  1  0  0  0  0
M  END
> <IC50[nM]>
7.7

$$$$
CHEMBL3265032
  -OEChem-05192314333D
 Structure written by MMmdl.
 52 57  0     0  0  0  0  0  0999 V2000
   -5.2528   -4.0279   13.4883 C   0  0  0  0  0  0  0  0  0  0  0  0
   -4.5590   -2.6369   13.4544 C   0  0  0  0  0  0  0  0  0  0  0  0
   -3.8919   -2.2470   14.7137 N   0  0  0  0  0  0  0  0  0  0  0  0
   -4.7198   -2.6287   15.8665 C   0  0  0  0  0  0  0  0  0  0  0  0
   -5.4261   -3.9885   15.8402 C   0  0  0  0  0  0  0  0  0  0  0  0
   -6.1177   -4.1508   14.6092 O   0  0  0  0  0  0  0  0  0  0  0  0
   -2.5101   -2.0763   14.8035 C   0  0  0  0  0  0  0  0  0  0  0  0
   -1.8815   -1.1097   14.0182 C   0  0  0  0  0  0  0  0  0  0  0  0
   -0.5196   -0.8466   14.1763 C   0  0  0  0  0  0  0  0  0  0  0  0
    0.2358   -1.5888   15.0999 C   0  0  0  0  0  0  0  0  0  0  0  0
    1.6095   -1.3595   15.3505 N   0  0  0  0  0  0  0  0  0  0  0  0
    2.5288   -0.4326   14.7915 C   0  0  0  0  0  0  0  0  0  0  0  0
    2.1515    0.4038   13.7773 N   0  0  0  0  0  0  0  0  0  0  0  0
    3.0856    1.2408   13.2315 C   0  0  0  0  0  0  0  0  0  0  0  0
    4.3919    1.2835   13.6955 C   0  0  0  0  0  0  0  0  0  0  0  0
    4.7346    0.4998   14.7545 N   0  0  0  0  0  0  0  0  0  0  0  0
    5.8922    0.3978   15.4788 C   0  0  0  0  0  0  0  0  0  0  0  0
    5.6049   -0.5481   16.4962 C   0  0  0  0  0  0  0  0  0  0  0  0
    4.3940   -1.0599   16.3510 N   0  0  0  0  0  0  0  0  0  0  0  0
    3.8344   -0.3880   15.3306 C   0  0  0  0  0  0  0  0  0  0  0  0
    2.6174    2.1451   12.1221 C   0  0  0  0  0  0  0  0  0  0  0  0
    3.5375    2.6360   11.1692 C   0  0  0  0  0  0  0  0  0  0  0  0
    3.1548    3.4584   10.1087 C   0  0  0  0  0  0  0  0  0  0  0  0
    1.8089    3.8176   10.0151 C   0  0  0  0  0  0  0  0  0  0  0  0
    0.9999    4.6108    9.1243 C   0  0  0  0  0  0  0  0  0  0  0  0
   -0.2405    4.6150    9.5301 N   0  0  0  0  0  0  0  0  0  0  0  0
   -0.3274    3.8782   10.6339 N   0  0  0  0  0  0  0  0  0  0  0  0
    0.8831    3.3398   10.9927 C   0  0  0  0  0  0  0  0  0  0  0  0
    1.2567    2.5006   12.0460 C   0  0  0  0  0  0  0  0  0  0  0  0
   -0.3865   -2.5955   15.8355 C   0  0  0  0  0  0  0  0  0  0  0  0
   -1.7498   -2.8337   15.7040 C   0  0  0  0  0  0  0  0  0  0  0  0
   -5.8405   -4.1569   12.5674 H   0  0  0  0  0  0  0  0  0  0  0  0
   -4.4820   -4.8107   13.5440 H   0  0  0  0  0  0  0  0  0  0  0  0
   -3.8021   -2.6512   12.6563 H   0  0  0  0  0  0  0  0  0  0  0  0
   -5.3221   -1.8793   13.2225 H   0  0  0  0  0  0  0  0  0  0  0  0
   -4.0678   -2.6183   16.7524 H   0  0  0  0  0  0  0  0  0  0  0  0
   -5.4990   -1.8599   15.9757 H   0  0  0  0  0  0  0  0  0  0  0  0
   -4.6797   -4.7893   15.9475 H   0  0  0  0  0  0  0  0  0  0  0  0
   -6.1441   -4.0427   16.6718 H   0  0  0  0  0  0  0  0  0  0  0  0
   -2.4521   -0.5614   13.2832 H   0  0  0  0  0  0  0  0  0  0  0  0
   -0.0469   -0.0731   13.5891 H   0  0  0  0  0  0  0  0  0  0  0  0
    5.0432    0.9973   12.8565 H   0  0  0  0  0  0  0  0  0  0  0  0
    4.5999    2.3249   13.9824 H   0  0  0  0  0  0  0  0  0  0  0  0
    6.8211    0.9228   15.3119 H   0  0  0  0  0  0  0  0  0  0  0  0
    6.2881   -0.8162   17.2885 H   0  0  0  0  0  0  0  0  0  0  0  0
    4.5783    2.3641   11.2652 H   0  0  0  0  0  0  0  0  0  0  0  0
    3.8763    3.8057    9.3840 H   0  0  0  0  0  0  0  0  0  0  0  0
    1.3665    5.1263    8.2490 H   0  0  0  0  0  0  0  0  0  0  0  0
   -1.1758    3.7333   11.1431 H   0  0  0  0  0  0  0  0  0  0  0  0
    0.5368    2.1420   12.7668 H   0  0  0  0  0  0  0  0  0  0  0  0
    0.1972   -3.1978   16.5158 H   0  0  0  0  0  0  0  0  0  0  0  0
   -2.2230   -3.6029   16.2963 H   0  0  0  0  0  0  0  0  0  0  0  0
  1  2  1  0  0  0  0
  1  6  1  0  0  0  0
  2  3  1  0  0  0  0
  3  4  1  0  0  0  0
  3  7  1  0  0  0  0
  4  5  1  0  0  0  0
  5  6  1  0  0  0  0
  7  8  2  0  0  0  0
  7 31  1  0  0  0  0
  8  9  1  0  0  0  0
  9 10  2  0  0  0  0
 10 11  1  0  0  0  0
 10 30  1  0  0  0  0
 11 12  2  0  0  0  0
 12 13  1  0  0  0  0
 12 20  1  0  0  0  0
 13 14  2  0  0  0  0
 14 15  1  0  0  0  0
 14 21  1  0  0  0  0
 15 16  1  0  0  0  0
 16 17  1  0  0  0  0
 16 20  1  0  0  0  0
 17 18  2  0  0  0  0
 18 19  1  0  0  0  0
 19 20  2  0  0  0  0
 21 22  2  0  0  0  0
 21 29  1  0  0  0  0
 22 23  1  0  0  0  0
 23 24  2  0  0  0  0
 24 25  1  0  0  0  0
 24 28  1  0  0  0  0
 25 26  2  0  0  0  0
 26 27  1  0  0  0  0
 27 28  1  0  0  0  0
 28 29  2  0  0  0  0
 30 31  2  0  0  0  0
  1 32  1  0  0  0  0
  1 33  1  0  0  0  0
  2 34  1  0  0  0  0
  2 35  1  0  0  0  0
  4 36  1  0  0  0  0
  4 37  1  0  0  0  0
  5 38  1  0  0  0  0
  5 39  1  0  0  0  0
  8 40  1  0  0  0  0
  9 41  1  0  0  0  0
 15 42  1  0  0  0  0
 15 43  1  0  0  0  0
 17 44  1  0  0  0  0
 18 45  1  0  0  0  0
 22 46  1  0  0  0  0
 23 47  1  0  0  0  0
 25 48  1  0  0  0  0
 27 49  1  0  0  0  0
 29 50  1  0  0  0  0
 30 51  1  0  0  0  0
 31 52  1  0  0  0  0
M  END
> <IC50[nM]>
7.7

$$$$
CHEMBL3265032
  -OEChem-05192314333D
 Structure written by MMmdl.
 52 57  0     0  0  0  0  0  0999 V2000
   -5.2528   -4.0279   13.4883 C   0  0  0  0  0  0  0  0  0  0  0  0
   -4.5590   -2.6369   13.4544 C   0  0  0  0  0  0  0  0  0  0  0  0
   -3.8919   -2.2470   14.7137 N   0  0  0  0  0  0  0  0  0  0  0  0
   -4.7198   -2.6287   15.8665 C   0  0  0  0  0  0  0  0  0  0  0  0
   -5.4261   -3.9885   15.8402 C   0  0  0  0  0  0  0  0  0  0  0  0
   -6.1177   -4.1508   14.6092 O   0  0  0  0  0  0  0  0  0  0  0  0
   -2.5101   -2.0763   14.8035 C   0  0  0  0  0  0  0  0  0  0  0  0
   -1.8815   -1.1097   14.0182 C   0  0  0  0  0  0  0  0  0  0  0  0
   -0.5196   -0.8466   14.1763 C   0  0  0  0  0  0  0  0  0  0  0  0
    0.2358   -1.5888   15.0999 C   0  0  0  0  0  0  0  0  0  0  0  0
    1.6095   -1.3595   15.3505 N   0  0  0  0  0  0  0  0  0  0  0  0
    2.5288   -0.4326   14.7915 C   0  0  0  0  0  0  0  0  0  0  0  0
    2.1515    0.4038   13.7773 N   0  0  0  0  0  0  0  0  0  0  0  0
    3.0856    1.2408   13.2315 C   0  0  0  0  0  0  0  0  0  0  0  0
    4.3919    1.2835   13.6955 C   0  0  0  0  0  0  0  0  0  0  0  0
    4.7346    0.4998   14.7545 N   0  0  0  0  0  0  0  0  0  0  0  0
    5.8922    0.3978   15.4788 C   0  0  0  0  0  0  0  0  0  0  0  0
    5.6049   -0.5481   16.4962 C   0  0  0  0  0  0  0  0  0  0  0  0
    4.3940   -1.0599   16.3510 N   0  0  0  0  0  0  0  0  0  0  0  0
    3.8344   -0.3880   15.3306 C   0  0  0  0  0  0  0  0  0  0  0  0
    2.6174    2.1451   12.1221 C   0  0  0  0  0  0  0  0  0  0  0  0
    3.5375    2.6360   11.1692 C   0  0  0  0  0  0  0  0  0  0  0  0
    3.1548    3.4584   10.1087 C   0  0  0  0  0  0  0  0  0  0  0  0
    1.8089    3.8176   10.0151 C   0  0  0  0  0  0  0  0  0  0  0  0
    0.9999    4.6108    9.1243 C   0  0  0  0  0  0  0  0  0  0  0  0
   -0.2405    4.6150    9.5301 N   0  0  0  0  0  0  0  0  0  0  0  0
   -0.3274    3.8782   10.6339 N   0  0  0  0  0  0  0  0  0  0  0  0
    0.8831    3.3398   10.9927 C   0  0  0  0  0  0  0  0  0  0  0  0
    1.2567    2.5006   12.0460 C   0  0  0  0  0  0  0  0  0  0  0  0
   -0.3865   -2.5955   15.8355 C   0  0  0  0  0  0  0  0  0  0  0  0
   -1.7498   -2.8337   15.7040 C   0  0  0  0  0  0  0  0  0  0  0  0
   -5.8405   -4.1569   12.5674 H   0  0  0  0  0  0  0  0  0  0  0  0
   -4.4820   -4.8107   13.5440 H   0  0  0  0  0  0  0  0  0  0  0  0
   -3.8021   -2.6512   12.6563 H   0  0  0  0  0  0  0  0  0  0  0  0
   -5.3221   -1.8793   13.2225 H   0  0  0  0  0  0  0  0  0  0  0  0
   -4.0678   -2.6183   16.7524 H   0  0  0  0  0  0  0  0  0  0  0  0
   -5.4990   -1.8599   15.9757 H   0  0  0  0  0  0  0  0  0  0  0  0
   -4.6797   -4.7893   15.9475 H   0  0  0  0  0  0  0  0  0  0  0  0
   -6.1441   -4.0427   16.6718 H   0  0  0  0  0  0  0  0  0  0  0  0
   -2.4521   -0.5614   13.2832 H   0  0  0  0  0  0  0  0  0  0  0  0
   -0.0469   -0.0731   13.5891 H   0  0  0  0  0  0  0  0  0  0  0  0
    5.0432    0.9973   12.8565 H   0  0  0  0  0  0  0  0  0  0  0  0
    4.5999    2.3249   13.9824 H   0  0  0  0  0  0  0  0  0  0  0  0
    6.8211    0.9228   15.3119 H   0  0  0  0  0  0  0  0  0  0  0  0
    6.2881   -0.8162   17.2885 H   0  0  0  0  0  0  0  0  0  0  0  0
    4.5783    2.3641   11.2652 H   0  0  0  0  0  0  0  0  0  0  0  0
    3.8763    3.8057    9.3840 H   0  0  0  0  0  0  0  0  0  0  0  0
    1.3665    5.1263    8.2490 H   0  0  0  0  0  0  0  0  0  0  0  0
   -0.9986    5.0922    9.0856 H   0  0  0  0  0  0  0  0  0  0  0  0
    0.5368    2.1420   12.7668 H   0  0  0  0  0  0  0  0  0  0  0  0
    0.1972   -3.1978   16.5158 H   0  0  0  0  0  0  0  0  0  0  0  0
   -2.2230   -3.6029   16.2963 H   0  0  0  0  0  0  0  0  0  0  0  0
  1  2  1  0  0  0  0
  1  6  1  0  0  0  0
  2  3  1  0  0  0  0
  3  4  1  0  0  0  0
  3  7  1  0  0  0  0
  4  5  1  0  0  0  0
  5  6  1  0  0  0  0
  7  8  2  0  0  0  0
  7 31  1  0  0  0  0
  8  9  1  0  0  0  0
  9 10  2  0  0  0  0
 10 11  1  0  0  0  0
 10 30  1  0  0  0  0
 11 12  2  0  0  0  0
 12 13  1  0  0  0  0
 12 20  1  0  0  0  0
 13 14  2  0  0  0  0
 14 15  1  0  0  0  0
 14 21  1  0  0  0  0
 15 16  1  0  0  0  0
 16 17  1  0  0  0  0
 16 20  1  0  0  0  0
 17 18  2  0  0  0  0
 18 19  1  0  0  0  0
 19 20  2  0  0  0  0
 21 22  1  0  0  0  0
 21 29  2  0  0  0  0
 22 23  2  0  0  0  0
 23 24  1  0  0  0  0
 24 25  2  0  0  0  0
 24 28  1  0  0  0  0
 25 26  1  0  0  0  0
 26 27  1  0  0  0  0
 27 28  2  0  0  0  0
 28 29  1  0  0  0  0
 30 31  2  0  0  0  0
  1 32  1  0  0  0  0
  1 33  1  0  0  0  0
  2 34  1  0  0  0  0
  2 35  1  0  0  0  0
  4 36  1  0  0  0  0
  4 37  1  0  0  0  0
  5 38  1  0  0  0  0
  5 39  1  0  0  0  0
  8 40  1  0  0  0  0
  9 41  1  0  0  0  0
 15 42  1  0  0  0  0
 15 43  1  0  0  0  0
 17 44  1  0  0  0  0
 18 45  1  0  0  0  0
 22 46  1  0  0  0  0
 23 47  1  0  0  0  0
 25 48  1  0  0  0  0
 26 49  1  0  0  0  0
 29 50  1  0  0  0  0
 30 51  1  0  0  0  0
 31 52  1  0  0  0  0
M  END
> <IC50[nM]>
7.7

$$$$
CHEMBL3265032
  -OEChem-05192314333D
 Structure written by MMmdl.
 52 57  0     0  0  0  0  0  0999 V2000
   -5.2528   -4.0279   13.4883 C   0  0  0  0  0  0  0  0  0  0  0  0
   -4.5590   -2.6369   13.4544 C   0  0  0  0  0  0  0  0  0  0  0  0
   -3.8919   -2.2470   14.7137 N   0  0  0  0  0  0  0  0  0  0  0  0
   -4.7198   -2.6287   15.8665 C   0  0  0  0  0  0  0  0  0  0  0  0
   -5.4261   -3.9885   15.8402 C   0  0  0  0  0  0  0  0  0  0  0  0
   -6.1177   -4.1508   14.6092 O   0  0  0  0  0  0  0  0  0  0  0  0
   -2.5101   -2.0763   14.8035 C   0  0  0  0  0  0  0  0  0  0  0  0
   -1.8815   -1.1097   14.0182 C   0  0  0  0  0  0  0  0  0  0  0  0
   -0.5196   -0.8466   14.1763 C   0  0  0  0  0  0  0  0  0  0  0  0
    0.2358   -1.5888   15.0999 C   0  0  0  0  0  0  0  0  0  0  0  0
    1.6095   -1.3595   15.3505 N   0  0  0  0  0  0  0  0  0  0  0  0
    2.5288   -0.4326   14.7915 C   0  0  0  0  0  0  0  0  0  0  0  0
    2.1515    0.4038   13.7773 N   0  0  0  0  0  0  0  0  0  0  0  0
    3.0856    1.2408   13.2315 C   0  0  0  0  0  0  0  0  0  0  0  0
    4.3919    1.2835   13.6955 C   0  0  0  0  0  0  0  0  0  0  0  0
    4.7346    0.4998   14.7545 N   0  0  0  0  0  0  0  0  0  0  0  0
    5.8922    0.3978   15.4788 C   0  0  0  0  0  0  0  0  0  0  0  0
    5.6049   -0.5481   16.4962 C   0  0  0  0  0  0  0  0  0  0  0  0
    4.3940   -1.0599   16.3510 N   0  0  0  0  0  0  0  0  0  0  0  0
    3.8344   -0.3880   15.3306 C   0  0  0  0  0  0  0  0  0  0  0  0
    2.6174    2.1451   12.1221 C   0  0  0  0  0  0  0  0  0  0  0  0
    3.5375    2.6360   11.1692 C   0  0  0  0  0  0  0  0  0  0  0  0
    3.1548    3.4584   10.1087 C   0  0  0  0  0  0  0  0  0  0  0  0
    1.8089    3.8176   10.0151 C   0  0  0  0  0  0  0  0  0  0  0  0
    0.9999    4.6108    9.1243 C   0  0  0  0  0  0  0  0  0  0  0  0
   -0.2405    4.6150    9.5301 N   0  0  0  0  0  0  0  0  0  0  0  0
   -0.3274    3.8782   10.6339 N   0  0  0  0  0  0  0  0  0  0  0  0
    0.8831    3.3398   10.9927 C   0  0  0  0  0  0  0  0  0  0  0  0
    1.2567    2.5006   12.0460 C   0  0  0  0  0  0  0  0  0  0  0  0
   -0.3865   -2.5955   15.8355 C   0  0  0  0  0  0  0  0  0  0  0  0
   -1.7498   -2.8337   15.7040 C   0  0  0  0  0  0  0  0  0  0  0  0
   -5.8405   -4.1569   12.5674 H   0  0  0  0  0  0  0  0  0  0  0  0
   -4.4820   -4.8107   13.5440 H   0  0  0  0  0  0  0  0  0  0  0  0
   -3.8021   -2.6512   12.6563 H   0  0  0  0  0  0  0  0  0  0  0  0
   -5.3221   -1.8793   13.2225 H   0  0  0  0  0  0  0  0  0  0  0  0
   -4.0678   -2.6183   16.7524 H   0  0  0  0  0  0  0  0  0  0  0  0
   -5.4990   -1.8599   15.9757 H   0  0  0  0  0  0  0  0  0  0  0  0
   -4.6797   -4.7893   15.9475 H   0  0  0  0  0  0  0  0  0  0  0  0
   -6.1441   -4.0427   16.6718 H   0  0  0  0  0  0  0  0  0  0  0  0
   -2.3543   -2.8315   14.0190 H   0  0  0  0  0  0  0  0  0  0  0  0
   -2.4521   -0.5614   13.2832 H   0  0  0  0  0  0  0  0  0  0  0  0
   -0.0469   -0.0731   13.5891 H   0  0  0  0  0  0  0  0  0  0  0  0
    5.1225    1.9256   13.2261 H   0  0  0  0  0  0  0  0  0  0  0  0
    6.8211    0.9228   15.3119 H   0  0  0  0  0  0  0  0  0  0  0  0
    6.2881   -0.8162   17.2885 H   0  0  0  0  0  0  0  0  0  0  0  0
    4.5783    2.3641   11.2652 H   0  0  0  0  0  0  0  0  0  0  0  0
    3.8763    3.8057    9.3840 H   0  0  0  0  0  0  0  0  0  0  0  0
    1.3665    5.1263    8.2490 H   0  0  0  0  0  0  0  0  0  0  0  0
   -1.1758    3.7333   11.1431 H   0  0  0  0  0  0  0  0  0  0  0  0
    0.5368    2.1420   12.7668 H   0  0  0  0  0  0  0  0  0  0  0  0
    0.1972   -3.1978   16.5158 H   0  0  0  0  0  0  0  0  0  0  0  0
   -2.2230   -3.6029   16.2963 H   0  0  0  0  0  0  0  0  0  0  0  0
  1  2  1  0  0  0  0
  1  6  1  0  0  0  0
  2  3  1  0  0  0  0
  3  4  1  0  0  0  0
  3  7  1  0  0  0  0
  4  5  1  0  0  0  0
  5  6  1  0  0  0  0
  7  8  1  0  0  0  0
  7 31  1  0  0  0  0
  8  9  2  0  0  0  0
  9 10  1  0  0  0  0
 10 11  2  0  0  0  0
 10 30  1  0  0  0  0
 11 12  1  0  0  0  0
 12 13  2  0  0  0  0
 12 20  1  0  0  0  0
 13 14  1  0  0  0  0
 14 15  2  0  0  0  0
 14 21  1  0  0  0  0
 15 16  1  0  0  0  0
 16 17  1  0  0  0  0
 16 20  1  0  0  0  0
 17 18  2  0  0  0  0
 18 19  1  0  0  0  0
 19 20  2  0  0  0  0
 21 22  2  0  0  0  0
 21 29  1  0  0  0  0
 22 23  1  0  0  0  0
 23 24  2  0  0  0  0
 24 25  1  0  0  0  0
 24 28  1  0  0  0  0
 25 26  2  0  0  0  0
 26 27  1  0  0  0  0
 27 28  1  0  0  0  0
 28 29  2  0  0  0  0
 30 31  2  0  0  0  0
  1 32  1  0  0  0  0
  1 33  1  0  0  0  0
  2 34  1  0  0  0  0
  2 35  1  0  0  0  0
  4 36  1  0  0  0  0
  4 37  1  0  0  0  0
  5 38  1  0  0  0  0
  5 39  1  0  0  0  0
  7 40  1  0  0  0  0
  8 41  1  0  0  0  0
  9 42  1  0  0  0  0
 15 43  1  0  0  0  0
 17 44  1  0  0  0  0
 18 45  1  0  0  0  0
 22 46  1  0  0  0  0
 23 47  1  0  0  0  0
 25 48  1  0  0  0  0
 27 49  1  0  0  0  0
 29 50  1  0  0  0  0
 30 51  1  0  0  0  0
 31 52  1  0  0  0  0
M  END
> <IC50[nM]>
7.7

$$$$
CHEMBL3265032
  -OEChem-05192314333D
 Structure written by MMmdl.
 52 57  0     0  0  0  0  0  0999 V2000
   -5.2528   -4.0279   13.4883 C   0  0  0  0  0  0  0  0  0  0  0  0
   -4.5590   -2.6369   13.4544 C   0  0  0  0  0  0  0  0  0  0  0  0
   -3.8919   -2.2470   14.7137 N   0  0  0  0  0  0  0  0  0  0  0  0
   -4.7198   -2.6287   15.8665 C   0  0  0  0  0  0  0  0  0  0  0  0
   -5.4261   -3.9885   15.8402 C   0  0  0  0  0  0  0  0  0  0  0  0
   -6.1177   -4.1508   14.6092 O   0  0  0  0  0  0  0  0  0  0  0  0
   -2.5101   -2.0763   14.8035 C   0  0  0  0  0  0  0  0  0  0  0  0
   -1.8815   -1.1097   14.0182 C   0  0  0  0  0  0  0  0  0  0  0  0
   -0.5196   -0.8466   14.1763 C   0  0  0  0  0  0  0  0  0  0  0  0
    0.2358   -1.5888   15.0999 C   0  0  0  0  0  0  0  0  0  0  0  0
    1.6095   -1.3595   15.3505 N   0  0  0  0  0  0  0  0  0  0  0  0
    2.5288   -0.4326   14.7915 C   0  0  0  0  0  0  0  0  0  0  0  0
    2.1515    0.4038   13.7773 N   0  0  0  0  0  0  0  0  0  0  0  0
    3.0856    1.2408   13.2315 C   0  0  0  0  0  0  0  0  0  0  0  0
    4.3919    1.2835   13.6955 C   0  0  0  0  0  0  0  0  0  0  0  0
    4.7346    0.4998   14.7545 N   0  0  0  0  0  0  0  0  0  0  0  0
    5.8922    0.3978   15.4788 C   0  0  0  0  0  0  0  0  0  0  0  0
    5.6049   -0.5481   16.4962 C   0  0  0  0  0  0  0  0  0  0  0  0
    4.3940   -1.0599   16.3510 N   0  0  0  0  0  0  0  0  0  0  0  0
    3.8344   -0.3880   15.3306 C   0  0  0  0  0  0  0  0  0  0  0  0
    2.6174    2.1451   12.1221 C   0  0  0  0  0  0  0  0  0  0  0  0
    3.5375    2.6360   11.1692 C   0  0  0  0  0  0  0  0  0  0  0  0
    3.1548    3.4584   10.1087 C   0  0  0  0  0  0  0  0  0  0  0  0
    1.8089    3.8176   10.0151 C   0  0  0  0  0  0  0  0  0  0  0  0
    0.9999    4.6108    9.1243 C   0  0  0  0  0  0  0  0  0  0  0  0
   -0.2405    4.6150    9.5301 N   0  0  0  0  0  0  0  0  0  0  0  0
   -0.3274    3.8782   10.6339 N   0  0  0  0  0  0  0  0  0  0  0  0
    0.8831    3.3398   10.9927 C   0  0  0  0  0  0  0  0  0  0  0  0
    1.2567    2.5006   12.0460 C   0  0  0  0  0  0  0  0  0  0  0  0
   -0.3865   -2.5955   15.8355 C   0  0  0  0  0  0  0  0  0  0  0  0
   -1.7498   -2.8337   15.7040 C   0  0  0  0  0  0  0  0  0  0  0  0
   -5.8405   -4.1569   12.5674 H   0  0  0  0  0  0  0  0  0  0  0  0
   -4.4820   -4.8107   13.5440 H   0  0  0  0  0  0  0  0  0  0  0  0
   -3.8021   -2.6512   12.6563 H   0  0  0  0  0  0  0  0  0  0  0  0
   -5.3221   -1.8793   13.2225 H   0  0  0  0  0  0  0  0  0  0  0  0
   -4.0678   -2.6183   16.7524 H   0  0  0  0  0  0  0  0  0  0  0  0
   -5.4990   -1.8599   15.9757 H   0  0  0  0  0  0  0  0  0  0  0  0
   -4.6797   -4.7893   15.9475 H   0  0  0  0  0  0  0  0  0  0  0  0
   -6.1441   -4.0427   16.6718 H   0  0  0  0  0  0  0  0  0  0  0  0
   -2.3543   -2.8315   14.0190 H   0  0  0  0  0  0  0  0  0  0  0  0
   -2.4521   -0.5614   13.2832 H   0  0  0  0  0  0  0  0  0  0  0  0
   -0.0469   -0.0731   13.5891 H   0  0  0  0  0  0  0  0  0  0  0  0
    5.1225    1.9256   13.2261 H   0  0  0  0  0  0  0  0  0  0  0  0
    6.8211    0.9228   15.3119 H   0  0  0  0  0  0  0  0  0  0  0  0
    6.2881   -0.8162   17.2885 H   0  0  0  0  0  0  0  0  0  0  0  0
    4.5783    2.3641   11.2652 H   0  0  0  0  0  0  0  0  0  0  0  0
    3.8763    3.8057    9.3840 H   0  0  0  0  0  0  0  0  0  0  0  0
    1.3665    5.1263    8.2490 H   0  0  0  0  0  0  0  0  0  0  0  0
   -0.9986    5.0922    9.0856 H   0  0  0  0  0  0  0  0  0  0  0  0
    0.5368    2.1420   12.7668 H   0  0  0  0  0  0  0  0  0  0  0  0
    0.1972   -3.1978   16.5158 H   0  0  0  0  0  0  0  0  0  0  0  0
   -2.2230   -3.6029   16.2963 H   0  0  0  0  0  0  0  0  0  0  0  0
  1  2  1  0  0  0  0
  1  6  1  0  0  0  0
  2  3  1  0  0  0  0
  3  4  1  0  0  0  0
  3  7  1  0  0  0  0
  4  5  1  0  0  0  0
  5  6  1  0  0  0  0
  7  8  1  0  0  0  0
  7 31  1  0  0  0  0
  8  9  2  0  0  0  0
  9 10  1  0  0  0  0
 10 11  2  0  0  0  0
 10 30  1  0  0  0  0
 11 12  1  0  0  0  0
 12 13  2  0  0  0  0
 12 20  1  0  0  0  0
 13 14  1  0  0  0  0
 14 15  2  0  0  0  0
 14 21  1  0  0  0  0
 15 16  1  0  0  0  0
 16 17  1  0  0  0  0
 16 20  1  0  0  0  0
 17 18  2  0  0  0  0
 18 19  1  0  0  0  0
 19 20  2  0  0  0  0
 21 22  1  0  0  0  0
 21 29  2  0  0  0  0
 22 23  2  0  0  0  0
 23 24  1  0  0  0  0
 24 25  2  0  0  0  0
 24 28  1  0  0  0  0
 25 26  1  0  0  0  0
 26 27  1  0  0  0  0
 27 28  2  0  0  0  0
 28 29  1  0  0  0  0
 30 31  2  0  0  0  0
  1 32  1  0  0  0  0
  1 33  1  0  0  0  0
  2 34  1  0  0  0  0
  2 35  1  0  0  0  0
  4 36  1  0  0  0  0
  4 37  1  0  0  0  0
  5 38  1  0  0  0  0
  5 39  1  0  0  0  0
  7 40  1  0  0  0  0
  8 41  1  0  0  0  0
  9 42  1  0  0  0  0
 15 43  1  0  0  0  0
 17 44  1  0  0  0  0
 18 45  1  0  0  0  0
 22 46  1  0  0  0  0
 23 47  1  0  0  0  0
 25 48  1  0  0  0  0
 26 49  1  0  0  0  0
 29 50  1  0  0  0  0
 30 51  1  0  0  0  0
 31 52  1  0  0  0  0
M  END
> <IC50[nM]>
7.7

$$$$
CHEMBL3265032
  -OEChem-05192314333D
 Structure written by MMmdl.
 52 57  0     0  0  0  0  0  0999 V2000
   -5.2528   -4.0279   13.4883 C   0  0  0  0  0  0  0  0  0  0  0  0
   -4.5590   -2.6369   13.4544 C   0  0  0  0  0  0  0  0  0  0  0  0
   -3.8919   -2.2470   14.7137 N   0  0  0  0  0  0  0  0  0  0  0  0
   -4.7198   -2.6287   15.8665 C   0  0  0  0  0  0  0  0  0  0  0  0
   -5.4261   -3.9885   15.8402 C   0  0  0  0  0  0  0  0  0  0  0  0
   -6.1177   -4.1508   14.6092 O   0  0  0  0  0  0  0  0  0  0  0  0
   -2.5101   -2.0763   14.8035 C   0  0  0  0  0  0  0  0  0  0  0  0
   -1.8815   -1.1097   14.0182 C   0  0  0  0  0  0  0  0  0  0  0  0
   -0.5196   -0.8466   14.1763 C   0  0  0  0  0  0  0  0  0  0  0  0
    0.2358   -1.5888   15.0999 C   0  0  0  0  0  0  0  0  0  0  0  0
    1.6095   -1.3595   15.3505 N   0  0  0  0  0  0  0  0  0  0  0  0
    2.5288   -0.4326   14.7915 C   0  0  0  0  0  0  0  0  0  0  0  0
    2.1515    0.4038   13.7773 N   0  0  0  0  0  0  0  0  0  0  0  0
    3.0856    1.2408   13.2315 C   0  0  0  0  0  0  0  0  0  0  0  0
    4.3919    1.2835   13.6955 C   0  0  0  0  0  0  0  0  0  0  0  0
    4.7346    0.4998   14.7545 N   0  0  0  0  0  0  0  0  0  0  0  0
    5.8922    0.3978   15.4788 C   0  0  0  0  0  0  0  0  0  0  0  0
    5.6049   -0.5481   16.4962 C   0  0  0  0  0  0  0  0  0  0  0  0
    4.3940   -1.0599   16.3510 N   0  0  0  0  0  0  0  0  0  0  0  0
    3.8344   -0.3880   15.3306 C   0  0  0  0  0  0  0  0  0  0  0  0
    2.6174    2.1451   12.1221 C   0  0  0  0  0  0  0  0  0  0  0  0
    3.5375    2.6360   11.1692 C   0  0  0  0  0  0  0  0  0  0  0  0
    3.1548    3.4584   10.1087 C   0  0  0  0  0  0  0  0  0  0  0  0
    1.8089    3.8176   10.0151 C   0  0  0  0  0  0  0  0  0  0  0  0
    0.9999    4.6108    9.1243 C   0  0  0  0  0  0  0  0  0  0  0  0
   -0.2405    4.6150    9.5301 N   0  0  0  0  0  0  0  0  0  0  0  0
   -0.3274    3.8782   10.6339 N   0  0  0  0  0  0  0  0  0  0  0  0
    0.8831    3.3398   10.9927 C   0  0  0  0  0  0  0  0  0  0  0  0
    1.2567    2.5006   12.0460 C   0  0  0  0  0  0  0  0  0  0  0  0
   -0.3865   -2.5955   15.8355 C   0  0  0  0  0  0  0  0  0  0  0  0
   -1.7498   -2.8337   15.7040 C   0  0  0  0  0  0  0  0  0  0  0  0
   -5.8405   -4.1569   12.5674 H   0  0  0  0  0  0  0  0  0  0  0  0
   -4.4820   -4.8107   13.5440 H   0  0  0  0  0  0  0  0  0  0  0  0
   -3.8021   -2.6512   12.6563 H   0  0  0  0  0  0  0  0  0  0  0  0
   -5.3221   -1.8793   13.2225 H   0  0  0  0  0  0  0  0  0  0  0  0
   -4.0678   -2.6183   16.7524 H   0  0  0  0  0  0  0  0  0  0  0  0
   -5.4990   -1.8599   15.9757 H   0  0  0  0  0  0  0  0  0  0  0  0
   -4.6797   -4.7893   15.9475 H   0  0  0  0  0  0  0  0  0  0  0  0
   -6.1441   -4.0427   16.6718 H   0  0  0  0  0  0  0  0  0  0  0  0
   -2.4521   -0.5614   13.2832 H   0  0  0  0  0  0  0  0  0  0  0  0
   -0.0469   -0.0731   13.5891 H   0  0  0  0  0  0  0  0  0  0  0  0
    5.1225    1.9256   13.2261 H   0  0  0  0  0  0  0  0  0  0  0  0
    6.8211    0.9228   15.3119 H   0  0  0  0  0  0  0  0  0  0  0  0
    6.2881   -0.8162   17.2885 H   0  0  0  0  0  0  0  0  0  0  0  0
    4.5783    2.3641   11.2652 H   0  0  0  0  0  0  0  0  0  0  0  0
    3.8763    3.8057    9.3840 H   0  0  0  0  0  0  0  0  0  0  0  0
    1.3665    5.1263    8.2490 H   0  0  0  0  0  0  0  0  0  0  0  0
   -1.1758    3.7333   11.1431 H   0  0  0  0  0  0  0  0  0  0  0  0
    0.5368    2.1420   12.7668 H   0  0  0  0  0  0  0  0  0  0  0  0
    0.1228   -3.5350   15.5749 H   0  0  0  0  0  0  0  0  0  0  0  0
   -0.2092   -2.3643   16.8962 H   0  0  0  0  0  0  0  0  0  0  0  0
   -2.2230   -3.6029   16.2963 H   0  0  0  0  0  0  0  0  0  0  0  0
  1  2  1  0  0  0  0
  1  6  1  0  0  0  0
  2  3  1  0  0  0  0
  3  4  1  0  0  0  0
  3  7  1  0  0  0  0
  4  5  1  0  0  0  0
  5  6  1  0  0  0  0
  7  8  1  0  0  0  0
  7 31  2  0  0  0  0
  8  9  2  0  0  0  0
  9 10  1  0  0  0  0
 10 11  2  0  0  0  0
 10 30  1  0  0  0  0
 11 12  1  0  0  0  0
 12 13  2  0  0  0  0
 12 20  1  0  0  0  0
 13 14  1  0  0  0  0
 14 15  2  0  0  0  0
 14 21  1  0  0  0  0
 15 16  1  0  0  0  0
 16 17  1  0  0  0  0
 16 20  1  0  0  0  0
 17 18  2  0  0  0  0
 18 19  1  0  0  0  0
 19 20  2  0  0  0  0
 21 22  2  0  0  0  0
 21 29  1  0  0  0  0
 22 23  1  0  0  0  0
 23 24  2  0  0  0  0
 24 25  1  0  0  0  0
 24 28  1  0  0  0  0
 25 26  2  0  0  0  0
 26 27  1  0  0  0  0
 27 28  1  0  0  0  0
 28 29  2  0  0  0  0
 30 31  1  0  0  0  0
  1 32  1  0  0  0  0
  1 33  1  0  0  0  0
  2 34  1  0  0  0  0
  2 35  1  0  0  0  0
  4 36  1  0  0  0  0
  4 37  1  0  0  0  0
  5 38  1  0  0  0  0
  5 39  1  0  0  0  0
  8 40  1  0  0  0  0
  9 41  1  0  0  0  0
 15 42  1  0  0  0  0
 17 43  1  0  0  0  0
 18 44  1  0  0  0  0
 22 45  1  0  0  0  0
 23 46  1  0  0  0  0
 25 47  1  0  0  0  0
 27 48  1  0  0  0  0
 29 49  1  0  0  0  0
 30 50  1  0  0  0  0
 30 51  1  0  0  0  0
 31 52  1  0  0  0  0
M  END
> <IC50[nM]>
7.7

$$$$
CHEMBL3265032
  -OEChem-05192314333D
 Structure written by MMmdl.
 52 57  0     0  0  0  0  0  0999 V2000
   -5.2528   -4.0279   13.4883 C   0  0  0  0  0  0  0  0  0  0  0  0
   -4.5590   -2.6369   13.4544 C   0  0  0  0  0  0  0  0  0  0  0  0
   -3.8919   -2.2470   14.7137 N   0  0  0  0  0  0  0  0  0  0  0  0
   -4.7198   -2.6287   15.8665 C   0  0  0  0  0  0  0  0  0  0  0  0
   -5.4261   -3.9885   15.8402 C   0  0  0  0  0  0  0  0  0  0  0  0
   -6.1177   -4.1508   14.6092 O   0  0  0  0  0  0  0  0  0  0  0  0
   -2.5101   -2.0763   14.8035 C   0  0  0  0  0  0  0  0  0  0  0  0
   -1.8815   -1.1097   14.0182 C   0  0  0  0  0  0  0  0  0  0  0  0
   -0.5196   -0.8466   14.1763 C   0  0  0  0  0  0  0  0  0  0  0  0
    0.2358   -1.5888   15.0999 C   0  0  0  0  0  0  0  0  0  0  0  0
    1.6095   -1.3595   15.3505 N   0  0  0  0  0  0  0  0  0  0  0  0
    2.5288   -0.4326   14.7915 C   0  0  0  0  0  0  0  0  0  0  0  0
    2.1515    0.4038   13.7773 N   0  0  0  0  0  0  0  0  0  0  0  0
    3.0856    1.2408   13.2315 C   0  0  0  0  0  0  0  0  0  0  0  0
    4.3919    1.2835   13.6955 C   0  0  0  0  0  0  0  0  0  0  0  0
    4.7346    0.4998   14.7545 N   0  0  0  0  0  0  0  0  0  0  0  0
    5.8922    0.3978   15.4788 C   0  0  0  0  0  0  0  0  0  0  0  0
    5.6049   -0.5481   16.4962 C   0  0  0  0  0  0  0  0  0  0  0  0
    4.3940   -1.0599   16.3510 N   0  0  0  0  0  0  0  0  0  0  0  0
    3.8344   -0.3880   15.3306 C   0  0  0  0  0  0  0  0  0  0  0  0
    2.6174    2.1451   12.1221 C   0  0  0  0  0  0  0  0  0  0  0  0
    3.5375    2.6360   11.1692 C   0  0  0  0  0  0  0  0  0  0  0  0
    3.1548    3.4584   10.1087 C   0  0  0  0  0  0  0  0  0  0  0  0
    1.8089    3.8176   10.0151 C   0  0  0  0  0  0  0  0  0  0  0  0
    0.9999    4.6108    9.1243 C   0  0  0  0  0  0  0  0  0  0  0  0
   -0.2405    4.6150    9.5301 N   0  0  0  0  0  0  0  0  0  0  0  0
   -0.3274    3.8782   10.6339 N   0  0  0  0  0  0  0  0  0  0  0  0
    0.8831    3.3398   10.9927 C   0  0  0  0  0  0  0  0  0  0  0  0
    1.2567    2.5006   12.0460 C   0  0  0  0  0  0  0  0  0  0  0  0
   -0.3865   -2.5955   15.8355 C   0  0  0  0  0  0  0  0  0  0  0  0
   -1.7498   -2.8337   15.7040 C   0  0  0  0  0  0  0  0  0  0  0  0
   -5.8405   -4.1569   12.5674 H   0  0  0  0  0  0  0  0  0  0  0  0
   -4.4820   -4.8107   13.5440 H   0  0  0  0  0  0  0  0  0  0  0  0
   -3.8021   -2.6512   12.6563 H   0  0  0  0  0  0  0  0  0  0  0  0
   -5.3221   -1.8793   13.2225 H   0  0  0  0  0  0  0  0  0  0  0  0
   -4.0678   -2.6183   16.7524 H   0  0  0  0  0  0  0  0  0  0  0  0
   -5.4990   -1.8599   15.9757 H   0  0  0  0  0  0  0  0  0  0  0  0
   -4.6797   -4.7893   15.9475 H   0  0  0  0  0  0  0  0  0  0  0  0
   -6.1441   -4.0427   16.6718 H   0  0  0  0  0  0  0  0  0  0  0  0
   -2.4521   -0.5614   13.2832 H   0  0  0  0  0  0  0  0  0  0  0  0
   -0.0469   -0.0731   13.5891 H   0  0  0  0  0  0  0  0  0  0  0  0
    5.1225    1.9256   13.2261 H   0  0  0  0  0  0  0  0  0  0  0  0
    6.8211    0.9228   15.3119 H   0  0  0  0  0  0  0  0  0  0  0  0
    6.2881   -0.8162   17.2885 H   0  0  0  0  0  0  0  0  0  0  0  0
    4.5783    2.3641   11.2652 H   0  0  0  0  0  0  0  0  0  0  0  0
    3.8763    3.8057    9.3840 H   0  0  0  0  0  0  0  0  0  0  0  0
    1.3665    5.1263    8.2490 H   0  0  0  0  0  0  0  0  0  0  0  0
   -0.9986    5.0922    9.0856 H   0  0  0  0  0  0  0  0  0  0  0  0
    0.5368    2.1420   12.7668 H   0  0  0  0  0  0  0  0  0  0  0  0
    0.1228   -3.5350   15.5749 H   0  0  0  0  0  0  0  0  0  0  0  0
   -0.2092   -2.3643   16.8962 H   0  0  0  0  0  0  0  0  0  0  0  0
   -2.2230   -3.6029   16.2963 H   0  0  0  0  0  0  0  0  0  0  0  0
  1  2  1  0  0  0  0
  1  6  1  0  0  0  0
  2  3  1  0  0  0  0
  3  4  1  0  0  0  0
  3  7  1  0  0  0  0
  4  5  1  0  0  0  0
  5  6  1  0  0  0  0
  7  8  1  0  0  0  0
  7 31  2  0  0  0  0
  8  9  2  0  0  0  0
  9 10  1  0  0  0  0
 10 11  2  0  0  0  0
 10 30  1  0  0  0  0
 11 12  1  0  0  0  0
 12 13  2  0  0  0  0
 12 20  1  0  0  0  0
 13 14  1  0  0  0  0
 14 15  2  0  0  0  0
 14 21  1  0  0  0  0
 15 16  1  0  0  0  0
 16 17  1  0  0  0  0
 16 20  1  0  0  0  0
 17 18  2  0  0  0  0
 18 19  1  0  0  0  0
 19 20  2  0  0  0  0
 21 22  1  0  0  0  0
 21 29  2  0  0  0  0
 22 23  2  0  0  0  0
 23 24  1  0  0  0  0
 24 25  2  0  0  0  0
 24 28  1  0  0  0  0
 25 26  1  0  0  0  0
 26 27  1  0  0  0  0
 27 28  2  0  0  0  0
 28 29  1  0  0  0  0
 30 31  1  0  0  0  0
  1 32  1  0  0  0  0
  1 33  1  0  0  0  0
  2 34  1  0  0  0  0
  2 35  1  0  0  0  0
  4 36  1  0  0  0  0
  4 37  1  0  0  0  0
  5 38  1  0  0  0  0
  5 39  1  0  0  0  0
  8 40  1  0  0  0  0
  9 41  1  0  0  0  0
 15 42  1  0  0  0  0
 17 43  1  0  0  0  0
 18 44  1  0  0  0  0
 22 45  1  0  0  0  0
 23 46  1  0  0  0  0
 25 47  1  0  0  0  0
 26 48  1  0  0  0  0
 29 49  1  0  0  0  0
 30 50  1  0  0  0  0
 30 51  1  0  0  0  0
 31 52  1  0  0  0  0
M  END
> <IC50[nM]>
7.7

$$$$
CHEMBL3265032
  -OEChem-05192314333D
 Structure written by MMmdl.
 52 57  0     0  0  0  0  0  0999 V2000
   -5.2528   -4.0279   13.4883 C   0  0  0  0  0  0  0  0  0  0  0  0
   -4.5590   -2.6369   13.4544 C   0  0  0  0  0  0  0  0  0  0  0  0
   -3.8919   -2.2470   14.7137 N   0  0  0  0  0  0  0  0  0  0  0  0
   -4.7198   -2.6287   15.8665 C   0  0  0  0  0  0  0  0  0  0  0  0
   -5.4261   -3.9885   15.8402 C   0  0  0  0  0  0  0  0  0  0  0  0
   -6.1177   -4.1508   14.6092 O   0  0  0  0  0  0  0  0  0  0  0  0
   -2.5101   -2.0763   14.8035 C   0  0  0  0  0  0  0  0  0  0  0  0
   -1.8815   -1.1097   14.0182 C   0  0  0  0  0  0  0  0  0  0  0  0
   -0.5196   -0.8466   14.1763 C   0  0  0  0  0  0  0  0  0  0  0  0
    0.2358   -1.5888   15.0999 C   0  0  0  0  0  0  0  0  0  0  0  0
    1.6095   -1.3595   15.3505 N   0  0  0  0  0  0  0  0  0  0  0  0
    2.5288   -0.4326   14.7915 C   0  0  0  0  0  0  0  0  0  0  0  0
    2.1515    0.4038   13.7773 N   0  0  0  0  0  0  0  0  0  0  0  0
    3.0856    1.2408   13.2315 C   0  0  0  0  0  0  0  0  0  0  0  0
    4.3919    1.2835   13.6955 C   0  0  0  0  0  0  0  0  0  0  0  0
    4.7346    0.4998   14.7545 N   0  0  0  0  0  0  0  0  0  0  0  0
    5.8922    0.3978   15.4788 C   0  0  0  0  0  0  0  0  0  0  0  0
    5.6049   -0.5481   16.4962 C   0  0  0  0  0  0  0  0  0  0  0  0
    4.3940   -1.0599   16.3510 N   0  0  0  0  0  0  0  0  0  0  0  0
    3.8344   -0.3880   15.3306 C   0  0  0  0  0  0  0  0  0  0  0  0
    2.6174    2.1451   12.1221 C   0  0  0  0  0  0  0  0  0  0  0  0
    3.5375    2.6360   11.1692 C   0  0  0  0  0  0  0  0  0  0  0  0
    3.1548    3.4584   10.1087 C   0  0  0  0  0  0  0  0  0  0  0  0
    1.8089    3.8176   10.0151 C   0  0  0  0  0  0  0  0  0  0  0  0
    0.9999    4.6108    9.1243 C   0  0  0  0  0  0  0  0  0  0  0  0
   -0.2405    4.6150    9.5301 N   0  0  0  0  0  0  0  0  0  0  0  0
   -0.3274    3.8782   10.6339 N   0  0  0  0  0  0  0  0  0  0  0  0
    0.8831    3.3398   10.9927 C   0  0  0  0  0  0  0  0  0  0  0  0
    1.2567    2.5006   12.0460 C   0  0  0  0  0  0  0  0  0  0  0  0
   -0.3865   -2.5955   15.8355 C   0  0  0  0  0  0  0  0  0  0  0  0
   -1.7498   -2.8337   15.7040 C   0  0  0  0  0  0  0  0  0  0  0  0
   -5.8405   -4.1569   12.5674 H   0  0  0  0  0  0  0  0  0  0  0  0
   -4.4820   -4.8107   13.5440 H   0  0  0  0  0  0  0  0  0  0  0  0
   -3.8021   -2.6512   12.6563 H   0  0  0  0  0  0  0  0  0  0  0  0
   -5.3221   -1.8793   13.2225 H   0  0  0  0  0  0  0  0  0  0  0  0
   -4.0678   -2.6183   16.7524 H   0  0  0  0  0  0  0  0  0  0  0  0
   -5.4990   -1.8599   15.9757 H   0  0  0  0  0  0  0  0  0  0  0  0
   -4.6797   -4.7893   15.9475 H   0  0  0  0  0  0  0  0  0  0  0  0
   -6.1441   -4.0427   16.6718 H   0  0  0  0  0  0  0  0  0  0  0  0
   -2.4521   -0.5614   13.2832 H   0  0  0  0  0  0  0  0  0  0  0  0
   -0.0469   -0.0731   13.5891 H   0  0  0  0  0  0  0  0  0  0  0  0
    5.0432    0.9973   12.8565 H   0  0  0  0  0  0  0  0  0  0  0  0
    4.5999    2.3249   13.9824 H   0  0  0  0  0  0  0  0  0  0  0  0
    6.8211    0.9228   15.3119 H   0  0  0  0  0  0  0  0  0  0  0  0
    6.2881   -0.8162   17.2885 H   0  0  0  0  0  0  0  0  0  0  0  0
    4.5783    2.3641   11.2652 H   0  0  0  0  0  0  0  0  0  0  0  0
    3.8763    3.8057    9.3840 H   0  0  0  0  0  0  0  0  0  0  0  0
    1.3810    5.6425    9.1080 H   0  0  0  0  0  0  0  0  0  0  0  0
    1.0500    4.1854    8.1111 H   0  0  0  0  0  0  0  0  0  0  0  0
    0.5368    2.1420   12.7668 H   0  0  0  0  0  0  0  0  0  0  0  0
    0.1972   -3.1978   16.5158 H   0  0  0  0  0  0  0  0  0  0  0  0
   -2.2230   -3.6029   16.2963 H   0  0  0  0  0  0  0  0  0  0  0  0
  1  2  1  0  0  0  0
  1  6  1  0  0  0  0
  2  3  1  0  0  0  0
  3  4  1  0  0  0  0
  3  7  1  0  0  0  0
  4  5  1  0  0  0  0
  5  6  1  0  0  0  0
  7  8  2  0  0  0  0
  7 31  1  0  0  0  0
  8  9  1  0  0  0  0
  9 10  2  0  0  0  0
 10 11  1  0  0  0  0
 10 30  1  0  0  0  0
 11 12  2  0  0  0  0
 12 13  1  0  0  0  0
 12 20  1  0  0  0  0
 13 14  2  0  0  0  0
 14 15  1  0  0  0  0
 14 21  1  0  0  0  0
 15 16  1  0  0  0  0
 16 17  1  0  0  0  0
 16 20  1  0  0  0  0
 17 18  2  0  0  0  0
 18 19  1  0  0  0  0
 19 20  2  0  0  0  0
 21 22  2  0  0  0  0
 21 29  1  0  0  0  0
 22 23  1  0  0  0  0
 23 24  2  0  0  0  0
 24 25  1  0  0  0  0
 24 28  1  0  0  0  0
 25 26  1  0  0  0  0
 26 27  2  0  0  0  0
 27 28  1  0  0  0  0
 28 29  2  0  0  0  0
 30 31  2  0  0  0  0
  1 32  1  0  0  0  0
  1 33  1  0  0  0  0
  2 34  1  0  0  0  0
  2 35  1  0  0  0  0
  4 36  1  0  0  0  0
  4 37  1  0  0  0  0
  5 38  1  0  0  0  0
  5 39  1  0  0  0  0
  8 40  1  0  0  0  0
  9 41  1  0  0  0  0
 15 42  1  0  0  0  0
 15 43  1  0  0  0  0
 17 44  1  0  0  0  0
 18 45  1  0  0  0  0
 22 46  1  0  0  0  0
 23 47  1  0  0  0  0
 25 48  1  0  0  0  0
 25 49  1  0  0  0  0
 29 50  1  0  0  0  0
 30 51  1  0  0  0  0
 31 52  1  0  0  0  0
M  END
> <IC50[nM]>
7.7

$$$$
CHEMBL3265032
  -OEChem-05192314333D
 Structure written by MMmdl.
 52 57  0     0  0  0  0  0  0999 V2000
   -5.2528   -4.0279   13.4883 C   0  0  0  0  0  0  0  0  0  0  0  0
   -4.5590   -2.6369   13.4544 C   0  0  0  0  0  0  0  0  0  0  0  0
   -3.8919   -2.2470   14.7137 N   0  0  0  0  0  0  0  0  0  0  0  0
   -4.7198   -2.6287   15.8665 C   0  0  0  0  0  0  0  0  0  0  0  0
   -5.4261   -3.9885   15.8402 C   0  0  0  0  0  0  0  0  0  0  0  0
   -6.1177   -4.1508   14.6092 O   0  0  0  0  0  0  0  0  0  0  0  0
   -2.5101   -2.0763   14.8035 C   0  0  0  0  0  0  0  0  0  0  0  0
   -1.8815   -1.1097   14.0182 C   0  0  0  0  0  0  0  0  0  0  0  0
   -0.5196   -0.8466   14.1763 C   0  0  0  0  0  0  0  0  0  0  0  0
    0.2358   -1.5888   15.0999 C   0  0  0  0  0  0  0  0  0  0  0  0
    1.6095   -1.3595   15.3505 N   0  0  0  0  0  0  0  0  0  0  0  0
    2.5288   -0.4326   14.7915 C   0  0  0  0  0  0  0  0  0  0  0  0
    2.1515    0.4038   13.7773 N   0  0  0  0  0  0  0  0  0  0  0  0
    3.0856    1.2408   13.2315 C   0  0  0  0  0  0  0  0  0  0  0  0
    4.3919    1.2835   13.6955 C   0  0  0  0  0  0  0  0  0  0  0  0
    4.7346    0.4998   14.7545 N   0  0  0  0  0  0  0  0  0  0  0  0
    5.8922    0.3978   15.4788 C   0  0  0  0  0  0  0  0  0  0  0  0
    5.6049   -0.5481   16.4962 C   0  0  0  0  0  0  0  0  0  0  0  0
    4.3940   -1.0599   16.3510 N   0  0  0  0  0  0  0  0  0  0  0  0
    3.8344   -0.3880   15.3306 C   0  0  0  0  0  0  0  0  0  0  0  0
    2.6174    2.1451   12.1221 C   0  0  0  0  0  0  0  0  0  0  0  0
    3.5375    2.6360   11.1692 C   0  0  0  0  0  0  0  0  0  0  0  0
    3.1548    3.4584   10.1087 C   0  0  0  0  0  0  0  0  0  0  0  0
    1.8089    3.8176   10.0151 C   0  0  0  0  0  0  0  0  0  0  0  0
    0.9999    4.6108    9.1243 C   0  0  0  0  0  0  0  0  0  0  0  0
   -0.2405    4.6150    9.5301 N   0  0  0  0  0  0  0  0  0  0  0  0
   -0.3274    3.8782   10.6339 N   0  0  0  0  0  0  0  0  0  0  0  0
    0.8831    3.3398   10.9927 C   0  0  0  0  0  0  0  0  0  0  0  0
    1.2567    2.5006   12.0460 C   0  0  0  0  0  0  0  0  0  0  0  0
   -0.3865   -2.5955   15.8355 C   0  0  0  0  0  0  0  0  0  0  0  0
   -1.7498   -2.8337   15.7040 C   0  0  0  0  0  0  0  0  0  0  0  0
   -5.8405   -4.1569   12.5674 H   0  0  0  0  0  0  0  0  0  0  0  0
   -4.4820   -4.8107   13.5440 H   0  0  0  0  0  0  0  0  0  0  0  0
   -3.8021   -2.6512   12.6563 H   0  0  0  0  0  0  0  0  0  0  0  0
   -5.3221   -1.8793   13.2225 H   0  0  0  0  0  0  0  0  0  0  0  0
   -4.0678   -2.6183   16.7524 H   0  0  0  0  0  0  0  0  0  0  0  0
   -5.4990   -1.8599   15.9757 H   0  0  0  0  0  0  0  0  0  0  0  0
   -4.6797   -4.7893   15.9475 H   0  0  0  0  0  0  0  0  0  0  0  0
   -6.1441   -4.0427   16.6718 H   0  0  0  0  0  0  0  0  0  0  0  0
   -2.4521   -0.5614   13.2832 H   0  0  0  0  0  0  0  0  0  0  0  0
   -0.0469   -0.0731   13.5891 H   0  0  0  0  0  0  0  0  0  0  0  0
    2.0043   -1.9584   16.0472 H   0  0  0  0  0  0  0  0  0  0  0  0
    5.0432    0.9973   12.8565 H   0  0  0  0  0  0  0  0  0  0  0  0
    4.5999    2.3249   13.9824 H   0  0  0  0  0  0  0  0  0  0  0  0
    6.8211    0.9228   15.3119 H   0  0  0  0  0  0  0  0  0  0  0  0
    6.2881   -0.8162   17.2885 H   0  0  0  0  0  0  0  0  0  0  0  0
    4.5783    2.3641   11.2652 H   0  0  0  0  0  0  0  0  0  0  0  0
    3.8763    3.8057    9.3840 H   0  0  0  0  0  0  0  0  0  0  0  0
    1.3665    5.1263    8.2490 H   0  0  0  0  0  0  0  0  0  0  0  0
    0.5368    2.1420   12.7668 H   0  0  0  0  0  0  0  0  0  0  0  0
    0.1972   -3.1978   16.5158 H   0  0  0  0  0  0  0  0  0  0  0  0
   -2.2230   -3.6029   16.2963 H   0  0  0  0  0  0  0  0  0  0  0  0
  1  2  1  0  0  0  0
  1  6  1  0  0  0  0
  2  3  1  0  0  0  0
  3  4  1  0  0  0  0
  3  7  1  0  0  0  0
  4  5  1  0  0  0  0
  5  6  1  0  0  0  0
  7  8  2  0  0  0  0
  7 31  1  0  0  0  0
  8  9  1  0  0  0  0
  9 10  2  0  0  0  0
 10 11  1  0  0  0  0
 10 30  1  0  0  0  0
 11 12  1  0  0  0  0
 12 13  2  0  0  0  0
 12 20  1  0  0  0  0
 13 14  1  0  0  0  0
 14 15  1  0  0  0  0
 14 21  2  0  0  0  0
 15 16  1  0  0  0  0
 16 17  1  0  0  0  0
 16 20  1  0  0  0  0
 17 18  2  0  0  0  0
 18 19  1  0  0  0  0
 19 20  2  0  0  0  0
 21 22  1  0  0  0  0
 21 29  1  0  0  0  0
 22 23  2  0  0  0  0
 23 24  1  0  0  0  0
 24 25  2  0  0  0  0
 24 28  1  0  0  0  0
 25 26  1  0  0  0  0
 26 27  2  0  0  0  0
 27 28  1  0  0  0  0
 28 29  2  0  0  0  0
 30 31  2  0  0  0  0
  1 32  1  0  0  0  0
  1 33  1  0  0  0  0
  2 34  1  0  0  0  0
  2 35  1  0  0  0  0
  4 36  1  0  0  0  0
  4 37  1  0  0  0  0
  5 38  1  0  0  0  0
  5 39  1  0  0  0  0
  8 40  1  0  0  0  0
  9 41  1  0  0  0  0
 11 42  1  0  0  0  0
 15 43  1  0  0  0  0
 15 44  1  0  0  0  0
 17 45  1  0  0  0  0
 18 46  1  0  0  0  0
 22 47  1  0  0  0  0
 23 48  1  0  0  0  0
 25 49  1  0  0  0  0
 29 50  1  0  0  0  0
 30 51  1  0  0  0  0
 31 52  1  0  0  0  0
M  END
> <IC50[nM]>
7.7

$$$$
CHEMBL3265032
  -OEChem-05192314333D
 Structure written by MMmdl.
 52 57  0     0  0  0  0  0  0999 V2000
   -5.2528   -4.0279   13.4883 C   0  0  0  0  0  0  0  0  0  0  0  0
   -4.5590   -2.6369   13.4544 C   0  0  0  0  0  0  0  0  0  0  0  0
   -3.8919   -2.2470   14.7137 N   0  0  0  0  0  0  0  0  0  0  0  0
   -4.7198   -2.6287   15.8665 C   0  0  0  0  0  0  0  0  0  0  0  0
   -5.4261   -3.9885   15.8402 C   0  0  0  0  0  0  0  0  0  0  0  0
   -6.1177   -4.1508   14.6092 O   0  0  0  0  0  0  0  0  0  0  0  0
   -2.5101   -2.0763   14.8035 C   0  0  0  0  0  0  0  0  0  0  0  0
   -1.8815   -1.1097   14.0182 C   0  0  0  0  0  0  0  0  0  0  0  0
   -0.5196   -0.8466   14.1763 C   0  0  0  0  0  0  0  0  0  0  0  0
    0.2358   -1.5888   15.0999 C   0  0  0  0  0  0  0  0  0  0  0  0
    1.6095   -1.3595   15.3505 N   0  0  0  0  0  0  0  0  0  0  0  0
    2.5288   -0.4326   14.7915 C   0  0  0  0  0  0  0  0  0  0  0  0
    2.1515    0.4038   13.7773 N   0  0  0  0  0  0  0  0  0  0  0  0
    3.0856    1.2408   13.2315 C   0  0  0  0  0  0  0  0  0  0  0  0
    4.3919    1.2835   13.6955 C   0  0  0  0  0  0  0  0  0  0  0  0
    4.7346    0.4998   14.7545 N   0  0  0  0  0  0  0  0  0  0  0  0
    5.8922    0.3978   15.4788 C   0  0  0  0  0  0  0  0  0  0  0  0
    5.6049   -0.5481   16.4962 C   0  0  0  0  0  0  0  0  0  0  0  0
    4.3940   -1.0599   16.3510 N   0  0  0  0  0  0  0  0  0  0  0  0
    3.8344   -0.3880   15.3306 C   0  0  0  0  0  0  0  0  0  0  0  0
    2.6174    2.1451   12.1221 C   0  0  0  0  0  0  0  0  0  0  0  0
    3.5375    2.6360   11.1692 C   0  0  0  0  0  0  0  0  0  0  0  0
    3.1548    3.4584   10.1087 C   0  0  0  0  0  0  0  0  0  0  0  0
    1.8089    3.8176   10.0151 C   0  0  0  0  0  0  0  0  0  0  0  0
    0.9999    4.6108    9.1243 C   0  0  0  0  0  0  0  0  0  0  0  0
   -0.2405    4.6150    9.5301 N   0  0  0  0  0  0  0  0  0  0  0  0
   -0.3274    3.8782   10.6339 N   0  0  0  0  0  0  0  0  0  0  0  0
    0.8831    3.3398   10.9927 C   0  0  0  0  0  0  0  0  0  0  0  0
    1.2567    2.5006   12.0460 C   0  0  0  0  0  0  0  0  0  0  0  0
   -0.3865   -2.5955   15.8355 C   0  0  0  0  0  0  0  0  0  0  0  0
   -1.7498   -2.8337   15.7040 C   0  0  0  0  0  0  0  0  0  0  0  0
   -5.8405   -4.1569   12.5674 H   0  0  0  0  0  0  0  0  0  0  0  0
   -4.4820   -4.8107   13.5440 H   0  0  0  0  0  0  0  0  0  0  0  0
   -3.8021   -2.6512   12.6563 H   0  0  0  0  0  0  0  0  0  0  0  0
   -5.3221   -1.8793   13.2225 H   0  0  0  0  0  0  0  0  0  0  0  0
   -4.0678   -2.6183   16.7524 H   0  0  0  0  0  0  0  0  0  0  0  0
   -5.4990   -1.8599   15.9757 H   0  0  0  0  0  0  0  0  0  0  0  0
   -4.6797   -4.7893   15.9475 H   0  0  0  0  0  0  0  0  0  0  0  0
   -6.1441   -4.0427   16.6718 H   0  0  0  0  0  0  0  0  0  0  0  0
   -2.4521   -0.5614   13.2832 H   0  0  0  0  0  0  0  0  0  0  0  0
   -0.0469   -0.0731   13.5891 H   0  0  0  0  0  0  0  0  0  0  0  0
    1.2098    0.4034   13.4409 H   0  0  0  0  0  0  0  0  0  0  0  0
    5.0432    0.9973   12.8565 H   0  0  0  0  0  0  0  0  0  0  0  0
    4.5999    2.3249   13.9824 H   0  0  0  0  0  0  0  0  0  0  0  0
    6.8211    0.9228   15.3119 H   0  0  0  0  0  0  0  0  0  0  0  0
    6.2881   -0.8162   17.2885 H   0  0  0  0  0  0  0  0  0  0  0  0
    4.5783    2.3641   11.2652 H   0  0  0  0  0  0  0  0  0  0  0  0
    3.8763    3.8057    9.3840 H   0  0  0  0  0  0  0  0  0  0  0  0
    1.3665    5.1263    8.2490 H   0  0  0  0  0  0  0  0  0  0  0  0
    0.5368    2.1420   12.7668 H   0  0  0  0  0  0  0  0  0  0  0  0
    0.1972   -3.1978   16.5158 H   0  0  0  0  0  0  0  0  0  0  0  0
   -2.2230   -3.6029   16.2963 H   0  0  0  0  0  0  0  0  0  0  0  0
  1  2  1  0  0  0  0
  1  6  1  0  0  0  0
  2  3  1  0  0  0  0
  3  4  1  0  0  0  0
  3  7  1  0  0  0  0
  4  5  1  0  0  0  0
  5  6  1  0  0  0  0
  7  8  2  0  0  0  0
  7 31  1  0  0  0  0
  8  9  1  0  0  0  0
  9 10  2  0  0  0  0
 10 11  1  0  0  0  0
 10 30  1  0  0  0  0
 11 12  2  0  0  0  0
 12 13  1  0  0  0  0
 12 20  1  0  0  0  0
 13 14  1  0  0  0  0
 14 15  1  0  0  0  0
 14 21  2  0  0  0  0
 15 16  1  0  0  0  0
 16 17  1  0  0  0  0
 16 20  1  0  0  0  0
 17 18  2  0  0  0  0
 18 19  1  0  0  0  0
 19 20  2  0  0  0  0
 21 22  1  0  0  0  0
 21 29  1  0  0  0  0
 22 23  2  0  0  0  0
 23 24  1  0  0  0  0
 24 25  2  0  0  0  0
 24 28  1  0  0  0  0
 25 26  1  0  0  0  0
 26 27  2  0  0  0  0
 27 28  1  0  0  0  0
 28 29  2  0  0  0  0
 30 31  2  0  0  0  0
  1 32  1  0  0  0  0
  1 33  1  0  0  0  0
  2 34  1  0  0  0  0
  2 35  1  0  0  0  0
  4 36  1  0  0  0  0
  4 37  1  0  0  0  0
  5 38  1  0  0  0  0
  5 39  1  0  0  0  0
  8 40  1  0  0  0  0
  9 41  1  0  0  0  0
 13 42  1  0  0  0  0
 15 43  1  0  0  0  0
 15 44  1  0  0  0  0
 17 45  1  0  0  0  0
 18 46  1  0  0  0  0
 22 47  1  0  0  0  0
 23 48  1  0  0  0  0
 25 49  1  0  0  0  0
 29 50  1  0  0  0  0
 30 51  1  0  0  0  0
 31 52  1  0  0  0  0
M  END
> <IC50[nM]>
7.7

$$$$
CHEMBL3265032
  -OEChem-05192314333D
 Structure written by MMmdl.
 52 57  0     0  0  0  0  0  0999 V2000
   -5.2528   -4.0279   13.4883 C   0  0  0  0  0  0  0  0  0  0  0  0
   -4.5590   -2.6369   13.4544 C   0  0  0  0  0  0  0  0  0  0  0  0
   -3.8919   -2.2470   14.7137 N   0  0  0  0  0  0  0  0  0  0  0  0
   -4.7198   -2.6287   15.8665 C   0  0  0  0  0  0  0  0  0  0  0  0
   -5.4261   -3.9885   15.8402 C   0  0  0  0  0  0  0  0  0  0  0  0
   -6.1177   -4.1508   14.6092 O   0  0  0  0  0  0  0  0  0  0  0  0
   -2.5101   -2.0763   14.8035 C   0  0  0  0  0  0  0  0  0  0  0  0
   -1.8815   -1.1097   14.0182 C   0  0  0  0  0  0  0  0  0  0  0  0
   -0.5196   -0.8466   14.1763 C   0  0  0  0  0  0  0  0  0  0  0  0
    0.2358   -1.5888   15.0999 C   0  0  0  0  0  0  0  0  0  0  0  0
    1.6095   -1.3595   15.3505 N   0  0  0  0  0  0  0  0  0  0  0  0
    2.5288   -0.4326   14.7915 C   0  0  0  0  0  0  0  0  0  0  0  0
    2.1515    0.4038   13.7773 N   0  0  0  0  0  0  0  0  0  0  0  0
    3.0856    1.2408   13.2315 C   0  0  0  0  0  0  0  0  0  0  0  0
    4.3919    1.2835   13.6955 C   0  0  0  0  0  0  0  0  0  0  0  0
    4.7346    0.4998   14.7545 N   0  0  0  0  0  0  0  0  0  0  0  0
    5.8922    0.3978   15.4788 C   0  0  0  0  0  0  0  0  0  0  0  0
    5.6049   -0.5481   16.4962 C   0  0  0  0  0  0  0  0  0  0  0  0
    4.3940   -1.0599   16.3510 N   0  0  0  0  0  0  0  0  0  0  0  0
    3.8344   -0.3880   15.3306 C   0  0  0  0  0  0  0  0  0  0  0  0
    2.6174    2.1451   12.1221 C   0  0  0  0  0  0  0  0  0  0  0  0
    3.5375    2.6360   11.1692 C   0  0  0  0  0  0  0  0  0  0  0  0
    3.1548    3.4584   10.1087 C   0  0  0  0  0  0  0  0  0  0  0  0
    1.8089    3.8176   10.0151 C   0  0  0  0  0  0  0  0  0  0  0  0
    0.9999    4.6108    9.1243 C   0  0  0  0  0  0  0  0  0  0  0  0
   -0.2405    4.6150    9.5301 N   0  0  0  0  0  0  0  0  0  0  0  0
   -0.3274    3.8782   10.6339 N   0  0  0  0  0  0  0  0  0  0  0  0
    0.8831    3.3398   10.9927 C   0  0  0  0  0  0  0  0  0  0  0  0
    1.2567    2.5006   12.0460 C   0  0  0  0  0  0  0  0  0  0  0  0
   -0.3865   -2.5955   15.8355 C   0  0  0  0  0  0  0  0  0  0  0  0
   -1.7498   -2.8337   15.7040 C   0  0  0  0  0  0  0  0  0  0  0  0
   -5.8405   -4.1569   12.5674 H   0  0  0  0  0  0  0  0  0  0  0  0
   -4.4820   -4.8107   13.5440 H   0  0  0  0  0  0  0  0  0  0  0  0
   -3.8021   -2.6512   12.6563 H   0  0  0  0  0  0  0  0  0  0  0  0
   -5.3221   -1.8793   13.2225 H   0  0  0  0  0  0  0  0  0  0  0  0
   -4.0678   -2.6183   16.7524 H   0  0  0  0  0  0  0  0  0  0  0  0
   -5.4990   -1.8599   15.9757 H   0  0  0  0  0  0  0  0  0  0  0  0
   -4.6797   -4.7893   15.9475 H   0  0  0  0  0  0  0  0  0  0  0  0
   -6.1441   -4.0427   16.6718 H   0  0  0  0  0  0  0  0  0  0  0  0
   -2.3543   -2.8315   14.0190 H   0  0  0  0  0  0  0  0  0  0  0  0
   -2.4521   -0.5614   13.2832 H   0  0  0  0  0  0  0  0  0  0  0  0
   -0.0469   -0.0731   13.5891 H   0  0  0  0  0  0  0  0  0  0  0  0
    5.1225    1.9256   13.2261 H   0  0  0  0  0  0  0  0  0  0  0  0
    6.8211    0.9228   15.3119 H   0  0  0  0  0  0  0  0  0  0  0  0
    6.2881   -0.8162   17.2885 H   0  0  0  0  0  0  0  0  0  0  0  0
    4.5783    2.3641   11.2652 H   0  0  0  0  0  0  0  0  0  0  0  0
    3.8763    3.8057    9.3840 H   0  0  0  0  0  0  0  0  0  0  0  0
    1.3810    5.6425    9.1080 H   0  0  0  0  0  0  0  0  0  0  0  0
    1.0500    4.1854    8.1111 H   0  0  0  0  0  0  0  0  0  0  0  0
    0.5368    2.1420   12.7668 H   0  0  0  0  0  0  0  0  0  0  0  0
    0.1972   -3.1978   16.5158 H   0  0  0  0  0  0  0  0  0  0  0  0
   -2.2230   -3.6029   16.2963 H   0  0  0  0  0  0  0  0  0  0  0  0
  1  2  1  0  0  0  0
  1  6  1  0  0  0  0
  2  3  1  0  0  0  0
  3  4  1  0  0  0  0
  3  7  1  0  0  0  0
  4  5  1  0  0  0  0
  5  6  1  0  0  0  0
  7  8  1  0  0  0  0
  7 31  1  0  0  0  0
  8  9  2  0  0  0  0
  9 10  1  0  0  0  0
 10 11  2  0  0  0  0
 10 30  1  0  0  0  0
 11 12  1  0  0  0  0
 12 13  2  0  0  0  0
 12 20  1  0  0  0  0
 13 14  1  0  0  0  0
 14 15  2  0  0  0  0
 14 21  1  0  0  0  0
 15 16  1  0  0  0  0
 16 17  1  0  0  0  0
 16 20  1  0  0  0  0
 17 18  2  0  0  0  0
 18 19  1  0  0  0  0
 19 20  2  0  0  0  0
 21 22  2  0  0  0  0
 21 29  1  0  0  0  0
 22 23  1  0  0  0  0
 23 24  2  0  0  0  0
 24 25  1  0  0  0  0
 24 28  1  0  0  0  0
 25 26  1  0  0  0  0
 26 27  2  0  0  0  0
 27 28  1  0  0  0  0
 28 29  2  0  0  0  0
 30 31  2  0  0  0  0
  1 32  1  0  0  0  0
  1 33  1  0  0  0  0
  2 34  1  0  0  0  0
  2 35  1  0  0  0  0
  4 36  1  0  0  0  0
  4 37  1  0  0  0  0
  5 38  1  0  0  0  0
  5 39  1  0  0  0  0
  7 40  1  0  0  0  0
  8 41  1  0  0  0  0
  9 42  1  0  0  0  0
 15 43  1  0  0  0  0
 17 44  1  0  0  0  0
 18 45  1  0  0  0  0
 22 46  1  0  0  0  0
 23 47  1  0  0  0  0
 25 48  1  0  0  0  0
 25 49  1  0  0  0  0
 29 50  1  0  0  0  0
 30 51  1  0  0  0  0
 31 52  1  0  0  0  0
M  END
> <IC50[nM]>
7.7

$$$$
CHEMBL3265032
  -OEChem-05192314333D
 Structure written by MMmdl.
 52 57  0     0  0  0  0  0  0999 V2000
   -5.2528   -4.0279   13.4883 C   0  0  0  0  0  0  0  0  0  0  0  0
   -4.5590   -2.6369   13.4544 C   0  0  0  0  0  0  0  0  0  0  0  0
   -3.8919   -2.2470   14.7137 N   0  0  0  0  0  0  0  0  0  0  0  0
   -4.7198   -2.6287   15.8665 C   0  0  0  0  0  0  0  0  0  0  0  0
   -5.4261   -3.9885   15.8402 C   0  0  0  0  0  0  0  0  0  0  0  0
   -6.1177   -4.1508   14.6092 O   0  0  0  0  0  0  0  0  0  0  0  0
   -2.5101   -2.0763   14.8035 C   0  0  0  0  0  0  0  0  0  0  0  0
   -1.8815   -1.1097   14.0182 C   0  0  0  0  0  0  0  0  0  0  0  0
   -0.5196   -0.8466   14.1763 C   0  0  0  0  0  0  0  0  0  0  0  0
    0.2358   -1.5888   15.0999 C   0  0  0  0  0  0  0  0  0  0  0  0
    1.6095   -1.3595   15.3505 N   0  0  0  0  0  0  0  0  0  0  0  0
    2.5288   -0.4326   14.7915 C   0  0  0  0  0  0  0  0  0  0  0  0
    2.1515    0.4038   13.7773 N   0  0  0  0  0  0  0  0  0  0  0  0
    3.0856    1.2408   13.2315 C   0  0  0  0  0  0  0  0  0  0  0  0
    4.3919    1.2835   13.6955 C   0  0  0  0  0  0  0  0  0  0  0  0
    4.7346    0.4998   14.7545 N   0  0  0  0  0  0  0  0  0  0  0  0
    5.8922    0.3978   15.4788 C   0  0  0  0  0  0  0  0  0  0  0  0
    5.6049   -0.5481   16.4962 C   0  0  0  0  0  0  0  0  0  0  0  0
    4.3940   -1.0599   16.3510 N   0  0  0  0  0  0  0  0  0  0  0  0
    3.8344   -0.3880   15.3306 C   0  0  0  0  0  0  0  0  0  0  0  0
    2.6174    2.1451   12.1221 C   0  0  0  0  0  0  0  0  0  0  0  0
    3.5375    2.6360   11.1692 C   0  0  0  0  0  0  0  0  0  0  0  0
    3.1548    3.4584   10.1087 C   0  0  0  0  0  0  0  0  0  0  0  0
    1.8089    3.8176   10.0151 C   0  0  0  0  0  0  0  0  0  0  0  0
    0.9999    4.6108    9.1243 C   0  0  0  0  0  0  0  0  0  0  0  0
   -0.2405    4.6150    9.5301 N   0  0  0  0  0  0  0  0  0  0  0  0
   -0.3274    3.8782   10.6339 N   0  0  0  0  0  0  0  0  0  0  0  0
    0.8831    3.3398   10.9927 C   0  0  0  0  0  0  0  0  0  0  0  0
    1.2567    2.5006   12.0460 C   0  0  0  0  0  0  0  0  0  0  0  0
   -0.3865   -2.5955   15.8355 C   0  0  0  0  0  0  0  0  0  0  0  0
   -1.7498   -2.8337   15.7040 C   0  0  0  0  0  0  0  0  0  0  0  0
   -5.8405   -4.1569   12.5674 H   0  0  0  0  0  0  0  0  0  0  0  0
   -4.4820   -4.8107   13.5440 H   0  0  0  0  0  0  0  0  0  0  0  0
   -3.8021   -2.6512   12.6563 H   0  0  0  0  0  0  0  0  0  0  0  0
   -5.3221   -1.8793   13.2225 H   0  0  0  0  0  0  0  0  0  0  0  0
   -4.0678   -2.6183   16.7524 H   0  0  0  0  0  0  0  0  0  0  0  0
   -5.4990   -1.8599   15.9757 H   0  0  0  0  0  0  0  0  0  0  0  0
   -4.6797   -4.7893   15.9475 H   0  0  0  0  0  0  0  0  0  0  0  0
   -6.1441   -4.0427   16.6718 H   0  0  0  0  0  0  0  0  0  0  0  0
   -2.4521   -0.5614   13.2832 H   0  0  0  0  0  0  0  0  0  0  0  0
   -0.0469   -0.0731   13.5891 H   0  0  0  0  0  0  0  0  0  0  0  0
    5.1225    1.9256   13.2261 H   0  0  0  0  0  0  0  0  0  0  0  0
    6.8211    0.9228   15.3119 H   0  0  0  0  0  0  0  0  0  0  0  0
    6.2881   -0.8162   17.2885 H   0  0  0  0  0  0  0  0  0  0  0  0
    4.5783    2.3641   11.2652 H   0  0  0  0  0  0  0  0  0  0  0  0
    3.8763    3.8057    9.3840 H   0  0  0  0  0  0  0  0  0  0  0  0
    1.3810    5.6425    9.1080 H   0  0  0  0  0  0  0  0  0  0  0  0
    1.0500    4.1854    8.1111 H   0  0  0  0  0  0  0  0  0  0  0  0
    0.5368    2.1420   12.7668 H   0  0  0  0  0  0  0  0  0  0  0  0
    0.1228   -3.5350   15.5749 H   0  0  0  0  0  0  0  0  0  0  0  0
   -0.2092   -2.3643   16.8962 H   0  0  0  0  0  0  0  0  0  0  0  0
   -2.2230   -3.6029   16.2963 H   0  0  0  0  0  0  0  0  0  0  0  0
  1  2  1  0  0  0  0
  1  6  1  0  0  0  0
  2  3  1  0  0  0  0
  3  4  1  0  0  0  0
  3  7  1  0  0  0  0
  4  5  1  0  0  0  0
  5  6  1  0  0  0  0
  7  8  1  0  0  0  0
  7 31  2  0  0  0  0
  8  9  2  0  0  0  0
  9 10  1  0  0  0  0
 10 11  2  0  0  0  0
 10 30  1  0  0  0  0
 11 12  1  0  0  0  0
 12 13  2  0  0  0  0
 12 20  1  0  0  0  0
 13 14  1  0  0  0  0
 14 15  2  0  0  0  0
 14 21  1  0  0  0  0
 15 16  1  0  0  0  0
 16 17  1  0  0  0  0
 16 20  1  0  0  0  0
 17 18  2  0  0  0  0
 18 19  1  0  0  0  0
 19 20  2  0  0  0  0
 21 22  2  0  0  0  0
 21 29  1  0  0  0  0
 22 23  1  0  0  0  0
 23 24  2  0  0  0  0
 24 25  1  0  0  0  0
 24 28  1  0  0  0  0
 25 26  1  0  0  0  0
 26 27  2  0  0  0  0
 27 28  1  0  0  0  0
 28 29  2  0  0  0  0
 30 31  1  0  0  0  0
  1 32  1  0  0  0  0
  1 33  1  0  0  0  0
  2 34  1  0  0  0  0
  2 35  1  0  0  0  0
  4 36  1  0  0  0  0
  4 37  1  0  0  0  0
  5 38  1  0  0  0  0
  5 39  1  0  0  0  0
  8 40  1  0  0  0  0
  9 41  1  0  0  0  0
 15 42  1  0  0  0  0
 17 43  1  0  0  0  0
 18 44  1  0  0  0  0
 22 45  1  0  0  0  0
 23 46  1  0  0  0  0
 25 47  1  0  0  0  0
 25 48  1  0  0  0  0
 29 49  1  0  0  0  0
 30 50  1  0  0  0  0
 30 51  1  0  0  0  0
 31 52  1  0  0  0  0
M  END
> <IC50[nM]>
7.7

$$$$
CHEMBL3265032
  -OEChem-05192314333D
 Structure written by MMmdl.
 52 57  0     1  0  0  0  0  0999 V2000
   -5.2528   -4.0279   13.4883 C   0  0  0  0  0  0  0  0  0  0  0  0
   -4.5590   -2.6369   13.4544 C   0  0  0  0  0  0  0  0  0  0  0  0
   -3.8919   -2.2470   14.7137 N   0  0  0  0  0  0  0  0  0  0  0  0
   -4.7198   -2.6287   15.8665 C   0  0  0  0  0  0  0  0  0  0  0  0
   -5.4261   -3.9885   15.8402 C   0  0  0  0  0  0  0  0  0  0  0  0
   -6.1177   -4.1508   14.6092 O   0  0  0  0  0  0  0  0  0  0  0  0
   -2.5101   -2.0763   14.8035 C   0  0  0  0  0  0  0  0  0  0  0  0
   -1.8815   -1.1097   14.0182 C   0  0  0  0  0  0  0  0  0  0  0  0
   -0.5196   -0.8466   14.1763 C   0  0  0  0  0  0  0  0  0  0  0  0
    0.2358   -1.5888   15.0999 C   0  0  0  0  0  0  0  0  0  0  0  0
    1.6095   -1.3595   15.3505 N   0  0  0  0  0  0  0  0  0  0  0  0
    2.5288   -0.4326   14.7915 C   0  0  0  0  0  0  0  0  0  0  0  0
    2.1515    0.4038   13.7773 N   0  0  0  0  0  0  0  0  0  0  0  0
    3.0856    1.2408   13.2315 C   0  0  0  0  0  0  0  0  0  0  0  0
    4.3919    1.2835   13.6955 C   0  0  0  0  0  0  0  0  0  0  0  0
    4.7346    0.4998   14.7545 N   0  0  0  0  0  0  0  0  0  0  0  0
    5.8922    0.3978   15.4788 C   0  0  0  0  0  0  0  0  0  0  0  0
    5.6049   -0.5481   16.4962 C   0  0  0  0  0  0  0  0  0  0  0  0
    4.3940   -1.0599   16.3510 N   0  0  0  0  0  0  0  0  0  0  0  0
    3.8344   -0.3880   15.3306 C   0  0  0  0  0  0  0  0  0  0  0  0
    2.6174    2.1451   12.1221 C   0  0  0  0  0  0  0  0  0  0  0  0
    3.5375    2.6360   11.1692 C   0  0  0  0  0  0  0  0  0  0  0  0
    3.1548    3.4584   10.1087 C   0  0  0  0  0  0  0  0  0  0  0  0
    1.8089    3.8176   10.0151 C   0  0  3  0  0  0  0  0  0  0  0  0
    0.9999    4.6108    9.1243 C   0  0  0  0  0  0  0  0  0  0  0  0
   -0.2405    4.6150    9.5301 N   0  0  0  0  0  0  0  0  0  0  0  0
   -0.3274    3.8782   10.6339 N   0  0  0  0  0  0  0  0  0  0  0  0
    0.8831    3.3398   10.9927 C   0  0  0  0  0  0  0  0  0  0  0  0
    1.2567    2.5006   12.0460 C   0  0  0  0  0  0  0  0  0  0  0  0
   -0.3865   -2.5955   15.8355 C   0  0  0  0  0  0  0  0  0  0  0  0
   -1.7498   -2.8337   15.7040 C   0  0  0  0  0  0  0  0  0  0  0  0
   -5.8405   -4.1569   12.5674 H   0  0  0  0  0  0  0  0  0  0  0  0
   -4.4820   -4.8107   13.5440 H   0  0  0  0  0  0  0  0  0  0  0  0
   -3.8021   -2.6512   12.6563 H   0  0  0  0  0  0  0  0  0  0  0  0
   -5.3221   -1.8793   13.2225 H   0  0  0  0  0  0  0  0  0  0  0  0
   -4.0678   -2.6183   16.7524 H   0  0  0  0  0  0  0  0  0  0  0  0
   -5.4990   -1.8599   15.9757 H   0  0  0  0  0  0  0  0  0  0  0  0
   -4.6797   -4.7893   15.9475 H   0  0  0  0  0  0  0  0  0  0  0  0
   -6.1441   -4.0427   16.6718 H   0  0  0  0  0  0  0  0  0  0  0  0
   -2.4521   -0.5614   13.2832 H   0  0  0  0  0  0  0  0  0  0  0  0
   -0.0469   -0.0731   13.5891 H   0  0  0  0  0  0  0  0  0  0  0  0
    2.0043   -1.9584   16.0472 H   0  0  0  0  0  0  0  0  0  0  0  0
    5.1225    1.9256   13.2261 H   0  0  0  0  0  0  0  0  0  0  0  0
    6.8211    0.9228   15.3119 H   0  0  0  0  0  0  0  0  0  0  0  0
    6.2881   -0.8162   17.2885 H   0  0  0  0  0  0  0  0  0  0  0  0
    4.5783    2.3641   11.2652 H   0  0  0  0  0  0  0  0  0  0  0  0
    3.8763    3.8057    9.3840 H   0  0  0  0  0  0  0  0  0  0  0  0
    2.0027    4.7072   10.6324 H   0  0  0  0  0  0  0  0  0  0  0  0
    1.3665    5.1263    8.2490 H   0  0  0  0  0  0  0  0  0  0  0  0
    0.5368    2.1420   12.7668 H   0  0  0  0  0  0  0  0  0  0  0  0
    0.1972   -3.1978   16.5158 H   0  0  0  0  0  0  0  0  0  0  0  0
   -2.2230   -3.6029   16.2963 H   0  0  0  0  0  0  0  0  0  0  0  0
  1  2  1  0  0  0  0
  1  6  1  0  0  0  0
  2  3  1  0  0  0  0
  3  4  1  0  0  0  0
  3  7  1  0  0  0  0
  4  5  1  0  0  0  0
  5  6  1  0  0  0  0
  7  8  2  0  0  0  0
  7 31  1  0  0  0  0
  8  9  1  0  0  0  0
  9 10  2  0  0  0  0
 10 11  1  0  0  0  0
 10 30  1  0  0  0  0
 11 12  1  0  0  0  0
 12 13  2  0  0  0  0
 12 20  1  0  0  0  0
 13 14  1  0  0  0  0
 14 15  2  0  0  0  0
 14 21  1  0  0  0  0
 15 16  1  0  0  0  0
 16 17  1  0  0  0  0
 16 20  1  0  0  0  0
 17 18  2  0  0  0  0
 18 19  1  0  0  0  0
 19 20  2  0  0  0  0
 21 22  1  0  0  0  0
 21 29  2  0  0  0  0
 22 23  2  0  0  0  0
 23 24  1  0  0  0  0
 24 25  1  0  0  0  0
 24 28  1  0  0  0  0
 25 26  2  0  0  0  0
 26 27  1  0  0  0  0
 27 28  2  0  0  0  0
 28 29  1  0  0  0  0
 30 31  2  0  0  0  0
  1 32  1  0  0  0  0
  1 33  1  0  0  0  0
  2 34  1  0  0  0  0
  2 35  1  0  0  0  0
  4 36  1  0  0  0  0
  4 37  1  0  0  0  0
  5 38  1  0  0  0  0
  5 39  1  0  0  0  0
  8 40  1  0  0  0  0
  9 41  1  0  0  0  0
 11 42  1  0  0  0  0
 15 43  1  0  0  0  0
 17 44  1  0  0  0  0
 18 45  1  0  0  0  0
 22 46  1  0  0  0  0
 23 47  1  0  0  0  0
 24 48  1  0  0  0  0
 25 49  1  0  0  0  0
 29 50  1  0  0  0  0
 30 51  1  0  0  0  0
 31 52  1  0  0  0  0
M  END
> <IC50[nM]>
7.7

$$$$
CHEMBL3265032
  -OEChem-05192314333D
 Structure written by MMmdl.
 52 57  0     0  0  0  0  0  0999 V2000
   -5.2528   -4.0279   13.4883 C   0  0  0  0  0  0  0  0  0  0  0  0
   -4.5590   -2.6369   13.4544 C   0  0  0  0  0  0  0  0  0  0  0  0
   -3.8919   -2.2470   14.7137 N   0  0  0  0  0  0  0  0  0  0  0  0
   -4.7198   -2.6287   15.8665 C   0  0  0  0  0  0  0  0  0  0  0  0
   -5.4261   -3.9885   15.8402 C   0  0  0  0  0  0  0  0  0  0  0  0
   -6.1177   -4.1508   14.6092 O   0  0  0  0  0  0  0  0  0  0  0  0
   -2.5101   -2.0763   14.8035 C   0  0  0  0  0  0  0  0  0  0  0  0
   -1.8815   -1.1097   14.0182 C   0  0  0  0  0  0  0  0  0  0  0  0
   -0.5196   -0.8466   14.1763 C   0  0  0  0  0  0  0  0  0  0  0  0
    0.2358   -1.5888   15.0999 C   0  0  0  0  0  0  0  0  0  0  0  0
    1.6095   -1.3595   15.3505 N   0  0  0  0  0  0  0  0  0  0  0  0
    2.5288   -0.4326   14.7915 C   0  0  0  0  0  0  0  0  0  0  0  0
    2.1515    0.4038   13.7773 N   0  0  0  0  0  0  0  0  0  0  0  0
    3.0856    1.2408   13.2315 C   0  0  0  0  0  0  0  0  0  0  0  0
    4.3919    1.2835   13.6955 C   0  0  0  0  0  0  0  0  0  0  0  0
    4.7346    0.4998   14.7545 N   0  0  0  0  0  0  0  0  0  0  0  0
    5.8922    0.3978   15.4788 C   0  0  0  0  0  0  0  0  0  0  0  0
    5.6049   -0.5481   16.4962 C   0  0  0  0  0  0  0  0  0  0  0  0
    4.3940   -1.0599   16.3510 N   0  0  0  0  0  0  0  0  0  0  0  0
    3.8344   -0.3880   15.3306 C   0  0  0  0  0  0  0  0  0  0  0  0
    2.6174    2.1451   12.1221 C   0  0  0  0  0  0  0  0  0  0  0  0
    3.5375    2.6360   11.1692 C   0  0  0  0  0  0  0  0  0  0  0  0
    3.1548    3.4584   10.1087 C   0  0  0  0  0  0  0  0  0  0  0  0
    1.8089    3.8176   10.0151 C   0  0  0  0  0  0  0  0  0  0  0  0
    0.9999    4.6108    9.1243 C   0  0  0  0  0  0  0  0  0  0  0  0
   -0.2405    4.6150    9.5301 N   0  0  0  0  0  0  0  0  0  0  0  0
   -0.3274    3.8782   10.6339 N   0  0  0  0  0  0  0  0  0  0  0  0
    0.8831    3.3398   10.9927 C   0  0  0  0  0  0  0  0  0  0  0  0
    1.2567    2.5006   12.0460 C   0  0  0  0  0  0  0  0  0  0  0  0
   -0.3865   -2.5955   15.8355 C   0  0  0  0  0  0  0  0  0  0  0  0
   -1.7498   -2.8337   15.7040 C   0  0  0  0  0  0  0  0  0  0  0  0
   -5.8405   -4.1569   12.5674 H   0  0  0  0  0  0  0  0  0  0  0  0
   -4.4820   -4.8107   13.5440 H   0  0  0  0  0  0  0  0  0  0  0  0
   -3.8021   -2.6512   12.6563 H   0  0  0  0  0  0  0  0  0  0  0  0
   -5.3221   -1.8793   13.2225 H   0  0  0  0  0  0  0  0  0  0  0  0
   -4.0678   -2.6183   16.7524 H   0  0  0  0  0  0  0  0  0  0  0  0
   -5.4990   -1.8599   15.9757 H   0  0  0  0  0  0  0  0  0  0  0  0
   -4.6797   -4.7893   15.9475 H   0  0  0  0  0  0  0  0  0  0  0  0
   -6.1441   -4.0427   16.6718 H   0  0  0  0  0  0  0  0  0  0  0  0
   -2.4521   -0.5614   13.2832 H   0  0  0  0  0  0  0  0  0  0  0  0
   -0.0469   -0.0731   13.5891 H   0  0  0  0  0  0  0  0  0  0  0  0
    2.0043   -1.9584   16.0472 H   0  0  0  0  0  0  0  0  0  0  0  0
    5.1225    1.9256   13.2261 H   0  0  0  0  0  0  0  0  0  0  0  0
    6.8211    0.9228   15.3119 H   0  0  0  0  0  0  0  0  0  0  0  0
    6.2881   -0.8162   17.2885 H   0  0  0  0  0  0  0  0  0  0  0  0
    4.2918    3.2010   11.7365 H   0  0  0  0  0  0  0  0  0  0  0  0
    4.0073    1.7512   10.7148 H   0  0  0  0  0  0  0  0  0  0  0  0
    3.8763    3.8057    9.3840 H   0  0  0  0  0  0  0  0  0  0  0  0
    1.3665    5.1263    8.2490 H   0  0  0  0  0  0  0  0  0  0  0  0
    0.5368    2.1420   12.7668 H   0  0  0  0  0  0  0  0  0  0  0  0
    0.1972   -3.1978   16.5158 H   0  0  0  0  0  0  0  0  0  0  0  0
   -2.2230   -3.6029   16.2963 H   0  0  0  0  0  0  0  0  0  0  0  0
  1  2  1  0  0  0  0
  1  6  1  0  0  0  0
  2  3  1  0  0  0  0
  3  4  1  0  0  0  0
  3  7  1  0  0  0  0
  4  5  1  0  0  0  0
  5  6  1  0  0  0  0
  7  8  2  0  0  0  0
  7 31  1  0  0  0  0
  8  9  1  0  0  0  0
  9 10  2  0  0  0  0
 10 11  1  0  0  0  0
 10 30  1  0  0  0  0
 11 12  1  0  0  0  0
 12 13  2  0  0  0  0
 12 20  1  0  0  0  0
 13 14  1  0  0  0  0
 14 15  2  0  0  0  0
 14 21  1  0  0  0  0
 15 16  1  0  0  0  0
 16 17  1  0  0  0  0
 16 20  1  0  0  0  0
 17 18  2  0  0  0  0
 18 19  1  0  0  0  0
 19 20  2  0  0  0  0
 21 22  1  0  0  0  0
 21 29  2  0  0  0  0
 22 23  1  0  0  0  0
 23 24  2  0  0  0  0
 24 25  1  0  0  0  0
 24 28  1  0  0  0  0
 25 26  2  0  0  0  0
 26 27  1  0  0  0  0
 27 28  2  0  0  0  0
 28 29  1  0  0  0  0
 30 31  2  0  0  0  0
  1 32  1  0  0  0  0
  1 33  1  0  0  0  0
  2 34  1  0  0  0  0
  2 35  1  0  0  0  0
  4 36  1  0  0  0  0
  4 37  1  0  0  0  0
  5 38  1  0  0  0  0
  5 39  1  0  0  0  0
  8 40  1  0  0  0  0
  9 41  1  0  0  0  0
 11 42  1  0  0  0  0
 15 43  1  0  0  0  0
 17 44  1  0  0  0  0
 18 45  1  0  0  0  0
 22 46  1  0  0  0  0
 22 47  1  0  0  0  0
 23 48  1  0  0  0  0
 25 49  1  0  0  0  0
 29 50  1  0  0  0  0
 30 51  1  0  0  0  0
 31 52  1  0  0  0  0
M  END
> <IC50[nM]>
7.7

$$$$
CHEMBL3265032
  -OEChem-05192314333D
 Structure written by MMmdl.
 52 57  0     0  0  0  0  0  0999 V2000
   -5.2528   -4.0279   13.4883 C   0  0  0  0  0  0  0  0  0  0  0  0
   -4.5590   -2.6369   13.4544 C   0  0  0  0  0  0  0  0  0  0  0  0
   -3.8919   -2.2470   14.7137 N   0  0  0  0  0  0  0  0  0  0  0  0
   -4.7198   -2.6287   15.8665 C   0  0  0  0  0  0  0  0  0  0  0  0
   -5.4261   -3.9885   15.8402 C   0  0  0  0  0  0  0  0  0  0  0  0
   -6.1177   -4.1508   14.6092 O   0  0  0  0  0  0  0  0  0  0  0  0
   -2.5101   -2.0763   14.8035 C   0  0  0  0  0  0  0  0  0  0  0  0
   -1.8815   -1.1097   14.0182 C   0  0  0  0  0  0  0  0  0  0  0  0
   -0.5196   -0.8466   14.1763 C   0  0  0  0  0  0  0  0  0  0  0  0
    0.2358   -1.5888   15.0999 C   0  0  0  0  0  0  0  0  0  0  0  0
    1.6095   -1.3595   15.3505 N   0  0  0  0  0  0  0  0  0  0  0  0
    2.5288   -0.4326   14.7915 C   0  0  0  0  0  0  0  0  0  0  0  0
    2.1515    0.4038   13.7773 N   0  0  0  0  0  0  0  0  0  0  0  0
    3.0856    1.2408   13.2315 C   0  0  0  0  0  0  0  0  0  0  0  0
    4.3919    1.2835   13.6955 C   0  0  0  0  0  0  0  0  0  0  0  0
    4.7346    0.4998   14.7545 N   0  0  0  0  0  0  0  0  0  0  0  0
    5.8922    0.3978   15.4788 C   0  0  0  0  0  0  0  0  0  0  0  0
    5.6049   -0.5481   16.4962 C   0  0  0  0  0  0  0  0  0  0  0  0
    4.3940   -1.0599   16.3510 N   0  0  0  0  0  0  0  0  0  0  0  0
    3.8344   -0.3880   15.3306 C   0  0  0  0  0  0  0  0  0  0  0  0
    2.6174    2.1451   12.1221 C   0  0  0  0  0  0  0  0  0  0  0  0
    3.5375    2.6360   11.1692 C   0  0  0  0  0  0  0  0  0  0  0  0
    3.1548    3.4584   10.1087 C   0  0  0  0  0  0  0  0  0  0  0  0
    1.8089    3.8176   10.0151 C   0  0  0  0  0  0  0  0  0  0  0  0
    0.9999    4.6108    9.1243 C   0  0  0  0  0  0  0  0  0  0  0  0
   -0.2405    4.6150    9.5301 N   0  0  0  0  0  0  0  0  0  0  0  0
   -0.3274    3.8782   10.6339 N   0  0  0  0  0  0  0  0  0  0  0  0
    0.8831    3.3398   10.9927 C   0  0  0  0  0  0  0  0  0  0  0  0
    1.2567    2.5006   12.0460 C   0  0  0  0  0  0  0  0  0  0  0  0
   -0.3865   -2.5955   15.8355 C   0  0  0  0  0  0  0  0  0  0  0  0
   -1.7498   -2.8337   15.7040 C   0  0  0  0  0  0  0  0  0  0  0  0
   -5.8405   -4.1569   12.5674 H   0  0  0  0  0  0  0  0  0  0  0  0
   -4.4820   -4.8107   13.5440 H   0  0  0  0  0  0  0  0  0  0  0  0
   -3.8021   -2.6512   12.6563 H   0  0  0  0  0  0  0  0  0  0  0  0
   -5.3221   -1.8793   13.2225 H   0  0  0  0  0  0  0  0  0  0  0  0
   -4.0678   -2.6183   16.7524 H   0  0  0  0  0  0  0  0  0  0  0  0
   -5.4990   -1.8599   15.9757 H   0  0  0  0  0  0  0  0  0  0  0  0
   -4.6797   -4.7893   15.9475 H   0  0  0  0  0  0  0  0  0  0  0  0
   -6.1441   -4.0427   16.6718 H   0  0  0  0  0  0  0  0  0  0  0  0
   -2.4521   -0.5614   13.2832 H   0  0  0  0  0  0  0  0  0  0  0  0
   -0.0469   -0.0731   13.5891 H   0  0  0  0  0  0  0  0  0  0  0  0
    2.0043   -1.9584   16.0472 H   0  0  0  0  0  0  0  0  0  0  0  0
    5.1225    1.9256   13.2261 H   0  0  0  0  0  0  0  0  0  0  0  0
    6.8211    0.9228   15.3119 H   0  0  0  0  0  0  0  0  0  0  0  0
    6.2881   -0.8162   17.2885 H   0  0  0  0  0  0  0  0  0  0  0  0
    4.5783    2.3641   11.2652 H   0  0  0  0  0  0  0  0  0  0  0  0
    3.8763    3.8057    9.3840 H   0  0  0  0  0  0  0  0  0  0  0  0
    1.3665    5.1263    8.2490 H   0  0  0  0  0  0  0  0  0  0  0  0
    0.6746    1.5718   11.9541 H   0  0  0  0  0  0  0  0  0  0  0  0
    0.9921    3.0077   12.9856 H   0  0  0  0  0  0  0  0  0  0  0  0
    0.1972   -3.1978   16.5158 H   0  0  0  0  0  0  0  0  0  0  0  0
   -2.2230   -3.6029   16.2963 H   0  0  0  0  0  0  0  0  0  0  0  0
  1  2  1  0  0  0  0
  1  6  1  0  0  0  0
  2  3  1  0  0  0  0
  3  4  1  0  0  0  0
  3  7  1  0  0  0  0
  4  5  1  0  0  0  0
  5  6  1  0  0  0  0
  7  8  2  0  0  0  0
  7 31  1  0  0  0  0
  8  9  1  0  0  0  0
  9 10  2  0  0  0  0
 10 11  1  0  0  0  0
 10 30  1  0  0  0  0
 11 12  1  0  0  0  0
 12 13  2  0  0  0  0
 12 20  1  0  0  0  0
 13 14  1  0  0  0  0
 14 15  2  0  0  0  0
 14 21  1  0  0  0  0
 15 16  1  0  0  0  0
 16 17  1  0  0  0  0
 16 20  1  0  0  0  0
 17 18  2  0  0  0  0
 18 19  1  0  0  0  0
 19 20  2  0  0  0  0
 21 22  2  0  0  0  0
 21 29  1  0  0  0  0
 22 23  1  0  0  0  0
 23 24  2  0  0  0  0
 24 25  1  0  0  0  0
 24 28  1  0  0  0  0
 25 26  2  0  0  0  0
 26 27  1  0  0  0  0
 27 28  2  0  0  0  0
 28 29  1  0  0  0  0
 30 31  2  0  0  0  0
  1 32  1  0  0  0  0
  1 33  1  0  0  0  0
  2 34  1  0  0  0  0
  2 35  1  0  0  0  0
  4 36  1  0  0  0  0
  4 37  1  0  0  0  0
  5 38  1  0  0  0  0
  5 39  1  0  0  0  0
  8 40  1  0  0  0  0
  9 41  1  0  0  0  0
 11 42  1  0  0  0  0
 15 43  1  0  0  0  0
 17 44  1  0  0  0  0
 18 45  1  0  0  0  0
 22 46  1  0  0  0  0
 23 47  1  0  0  0  0
 25 48  1  0  0  0  0
 29 49  1  0  0  0  0
 29 50  1  0  0  0  0
 30 51  1  0  0  0  0
 31 52  1  0  0  0  0
M  END
> <IC50[nM]>
7.7

$$$$
CHEMBL3265032
  -OEChem-05192314333D
 Structure written by MMmdl.
 52 57  0     1  0  0  0  0  0999 V2000
   -5.2528   -4.0279   13.4883 C   0  0  0  0  0  0  0  0  0  0  0  0
   -4.5590   -2.6369   13.4544 C   0  0  0  0  0  0  0  0  0  0  0  0
   -3.8919   -2.2470   14.7137 N   0  0  0  0  0  0  0  0  0  0  0  0
   -4.7198   -2.6287   15.8665 C   0  0  0  0  0  0  0  0  0  0  0  0
   -5.4261   -3.9885   15.8402 C   0  0  0  0  0  0  0  0  0  0  0  0
   -6.1177   -4.1508   14.6092 O   0  0  0  0  0  0  0  0  0  0  0  0
   -2.5101   -2.0763   14.8035 C   0  0  0  0  0  0  0  0  0  0  0  0
   -1.8815   -1.1097   14.0182 C   0  0  0  0  0  0  0  0  0  0  0  0
   -0.5196   -0.8466   14.1763 C   0  0  0  0  0  0  0  0  0  0  0  0
    0.2358   -1.5888   15.0999 C   0  0  0  0  0  0  0  0  0  0  0  0
    1.6095   -1.3595   15.3505 N   0  0  0  0  0  0  0  0  0  0  0  0
    2.5288   -0.4326   14.7915 C   0  0  0  0  0  0  0  0  0  0  0  0
    2.1515    0.4038   13.7773 N   0  0  0  0  0  0  0  0  0  0  0  0
    3.0856    1.2408   13.2315 C   0  0  0  0  0  0  0  0  0  0  0  0
    4.3919    1.2835   13.6955 C   0  0  0  0  0  0  0  0  0  0  0  0
    4.7346    0.4998   14.7545 N   0  0  0  0  0  0  0  0  0  0  0  0
    5.8922    0.3978   15.4788 C   0  0  0  0  0  0  0  0  0  0  0  0
    5.6049   -0.5481   16.4962 C   0  0  0  0  0  0  0  0  0  0  0  0
    4.3940   -1.0599   16.3510 N   0  0  0  0  0  0  0  0  0  0  0  0
    3.8344   -0.3880   15.3306 C   0  0  0  0  0  0  0  0  0  0  0  0
    2.6174    2.1451   12.1221 C   0  0  3  0  0  0  0  0  0  0  0  0
    3.5375    2.6360   11.1692 C   0  0  0  0  0  0  0  0  0  0  0  0
    3.1548    3.4584   10.1087 C   0  0  0  0  0  0  0  0  0  0  0  0
    1.8089    3.8176   10.0151 C   0  0  0  0  0  0  0  0  0  0  0  0
    0.9999    4.6108    9.1243 C   0  0  0  0  0  0  0  0  0  0  0  0
   -0.2405    4.6150    9.5301 N   0  0  0  0  0  0  0  0  0  0  0  0
   -0.3274    3.8782   10.6339 N   0  0  0  0  0  0  0  0  0  0  0  0
    0.8831    3.3398   10.9927 C   0  0  0  0  0  0  0  0  0  0  0  0
    1.2567    2.5006   12.0460 C   0  0  0  0  0  0  0  0  0  0  0  0
   -0.3865   -2.5955   15.8355 C   0  0  0  0  0  0  0  0  0  0  0  0
   -1.7498   -2.8337   15.7040 C   0  0  0  0  0  0  0  0  0  0  0  0
   -5.8405   -4.1569   12.5674 H   0  0  0  0  0  0  0  0  0  0  0  0
   -4.4820   -4.8107   13.5440 H   0  0  0  0  0  0  0  0  0  0  0  0
   -3.8021   -2.6512   12.6563 H   0  0  0  0  0  0  0  0  0  0  0  0
   -5.3221   -1.8793   13.2225 H   0  0  0  0  0  0  0  0  0  0  0  0
   -4.0678   -2.6183   16.7524 H   0  0  0  0  0  0  0  0  0  0  0  0
   -5.4990   -1.8599   15.9757 H   0  0  0  0  0  0  0  0  0  0  0  0
   -4.6797   -4.7893   15.9475 H   0  0  0  0  0  0  0  0  0  0  0  0
   -6.1441   -4.0427   16.6718 H   0  0  0  0  0  0  0  0  0  0  0  0
   -2.4521   -0.5614   13.2832 H   0  0  0  0  0  0  0  0  0  0  0  0
   -0.0469   -0.0731   13.5891 H   0  0  0  0  0  0  0  0  0  0  0  0
    2.0043   -1.9584   16.0472 H   0  0  0  0  0  0  0  0  0  0  0  0
    5.1225    1.9256   13.2261 H   0  0  0  0  0  0  0  0  0  0  0  0
    6.8211    0.9228   15.3119 H   0  0  0  0  0  0  0  0  0  0  0  0
    6.2881   -0.8162   17.2885 H   0  0  0  0  0  0  0  0  0  0  0  0
    2.4252    1.2680   11.4866 H   0  0  0  0  0  0  0  0  0  0  0  0
    4.5783    2.3641   11.2652 H   0  0  0  0  0  0  0  0  0  0  0  0
    3.8763    3.8057    9.3840 H   0  0  0  0  0  0  0  0  0  0  0  0
    1.3665    5.1263    8.2490 H   0  0  0  0  0  0  0  0  0  0  0  0
    0.5368    2.1420   12.7668 H   0  0  0  0  0  0  0  0  0  0  0  0
    0.1972   -3.1978   16.5158 H   0  0  0  0  0  0  0  0  0  0  0  0
   -2.2230   -3.6029   16.2963 H   0  0  0  0  0  0  0  0  0  0  0  0
  1  2  1  0  0  0  0
  1  6  1  0  0  0  0
  2  3  1  0  0  0  0
  3  4  1  0  0  0  0
  3  7  1  0  0  0  0
  4  5  1  0  0  0  0
  5  6  1  0  0  0  0
  7  8  2  0  0  0  0
  7 31  1  0  0  0  0
  8  9  1  0  0  0  0
  9 10  2  0  0  0  0
 10 11  1  0  0  0  0
 10 30  1  0  0  0  0
 11 12  1  0  0  0  0
 12 13  2  0  0  0  0
 12 20  1  0  0  0  0
 13 14  1  0  0  0  0
 14 15  2  0  0  0  0
 14 21  1  0  0  0  0
 15 16  1  0  0  0  0
 16 17  1  0  0  0  0
 16 20  1  0  0  0  0
 17 18  2  0  0  0  0
 18 19  1  0  0  0  0
 19 20  2  0  0  0  0
 21 22  1  0  0  0  0
 21 29  1  0  0  0  0
 22 23  2  0  0  0  0
 23 24  1  0  0  0  0
 24 25  2  0  0  0  0
 24 28  1  0  0  0  0
 25 26  1  0  0  0  0
 26 27  2  0  0  0  0
 27 28  1  0  0  0  0
 28 29  2  0  0  0  0
 30 31  2  0  0  0  0
  1 32  1  0  0  0  0
  1 33  1  0  0  0  0
  2 34  1  0  0  0  0
  2 35  1  0  0  0  0
  4 36  1  0  0  0  0
  4 37  1  0  0  0  0
  5 38  1  0  0  0  0
  5 39  1  0  0  0  0
  8 40  1  0  0  0  0
  9 41  1  0  0  0  0
 11 42  1  0  0  0  0
 15 43  1  0  0  0  0
 17 44  1  0  0  0  0
 18 45  1  0  0  0  0
 21 46  1  0  0  0  0
 22 47  1  0  0  0  0
 23 48  1  0  0  0  0
 25 49  1  0  0  0  0
 29 50  1  0  0  0  0
 30 51  1  0  0  0  0
 31 52  1  0  0  0  0
M  END
> <IC50[nM]>
7.7

$$$$
CHEMBL3265032
  -OEChem-05192314333D
 Structure written by MMmdl.
 52 57  0     1  0  0  0  0  0999 V2000
   -5.2528   -4.0279   13.4883 C   0  0  0  0  0  0  0  0  0  0  0  0
   -4.5590   -2.6369   13.4544 C   0  0  0  0  0  0  0  0  0  0  0  0
   -3.8919   -2.2470   14.7137 N   0  0  0  0  0  0  0  0  0  0  0  0
   -4.7198   -2.6287   15.8665 C   0  0  0  0  0  0  0  0  0  0  0  0
   -5.4261   -3.9885   15.8402 C   0  0  0  0  0  0  0  0  0  0  0  0
   -6.1177   -4.1508   14.6092 O   0  0  0  0  0  0  0  0  0  0  0  0
   -2.5101   -2.0763   14.8035 C   0  0  0  0  0  0  0  0  0  0  0  0
   -1.8815   -1.1097   14.0182 C   0  0  0  0  0  0  0  0  0  0  0  0
   -0.5196   -0.8466   14.1763 C   0  0  0  0  0  0  0  0  0  0  0  0
    0.2358   -1.5888   15.0999 C   0  0  0  0  0  0  0  0  0  0  0  0
    1.6095   -1.3595   15.3505 N   0  0  0  0  0  0  0  0  0  0  0  0
    2.5288   -0.4326   14.7915 C   0  0  0  0  0  0  0  0  0  0  0  0
    2.1515    0.4038   13.7773 N   0  0  0  0  0  0  0  0  0  0  0  0
    3.0856    1.2408   13.2315 C   0  0  0  0  0  0  0  0  0  0  0  0
    4.3919    1.2835   13.6955 C   0  0  0  0  0  0  0  0  0  0  0  0
    4.7346    0.4998   14.7545 N   0  0  0  0  0  0  0  0  0  0  0  0
    5.8922    0.3978   15.4788 C   0  0  0  0  0  0  0  0  0  0  0  0
    5.6049   -0.5481   16.4962 C   0  0  0  0  0  0  0  0  0  0  0  0
    4.3940   -1.0599   16.3510 N   0  0  0  0  0  0  0  0  0  0  0  0
    3.8344   -0.3880   15.3306 C   0  0  0  0  0  0  0  0  0  0  0  0
    2.6174    2.1451   12.1221 C   0  0  0  0  0  0  0  0  0  0  0  0
    3.5375    2.6360   11.1692 C   0  0  0  0  0  0  0  0  0  0  0  0
    3.1548    3.4584   10.1087 C   0  0  0  0  0  0  0  0  0  0  0  0
    1.8089    3.8176   10.0151 C   0  0  0  0  0  0  0  0  0  0  0  0
    0.9999    4.6108    9.1243 C   0  0  0  0  0  0  0  0  0  0  0  0
   -0.2405    4.6150    9.5301 N   0  0  0  0  0  0  0  0  0  0  0  0
   -0.3274    3.8782   10.6339 N   0  0  0  0  0  0  0  0  0  0  0  0
    0.8831    3.3398   10.9927 C   0  0  3  0  0  0  0  0  0  0  0  0
    1.2567    2.5006   12.0460 C   0  0  0  0  0  0  0  0  0  0  0  0
   -0.3865   -2.5955   15.8355 C   0  0  0  0  0  0  0  0  0  0  0  0
   -1.7498   -2.8337   15.7040 C   0  0  0  0  0  0  0  0  0  0  0  0
   -5.8405   -4.1569   12.5674 H   0  0  0  0  0  0  0  0  0  0  0  0
   -4.4820   -4.8107   13.5440 H   0  0  0  0  0  0  0  0  0  0  0  0
   -3.8021   -2.6512   12.6563 H   0  0  0  0  0  0  0  0  0  0  0  0
   -5.3221   -1.8793   13.2225 H   0  0  0  0  0  0  0  0  0  0  0  0
   -4.0678   -2.6183   16.7524 H   0  0  0  0  0  0  0  0  0  0  0  0
   -5.4990   -1.8599   15.9757 H   0  0  0  0  0  0  0  0  0  0  0  0
   -4.6797   -4.7893   15.9475 H   0  0  0  0  0  0  0  0  0  0  0  0
   -6.1441   -4.0427   16.6718 H   0  0  0  0  0  0  0  0  0  0  0  0
   -2.4521   -0.5614   13.2832 H   0  0  0  0  0  0  0  0  0  0  0  0
   -0.0469   -0.0731   13.5891 H   0  0  0  0  0  0  0  0  0  0  0  0
    2.0043   -1.9584   16.0472 H   0  0  0  0  0  0  0  0  0  0  0  0
    5.1225    1.9256   13.2261 H   0  0  0  0  0  0  0  0  0  0  0  0
    6.8211    0.9228   15.3119 H   0  0  0  0  0  0  0  0  0  0  0  0
    6.2881   -0.8162   17.2885 H   0  0  0  0  0  0  0  0  0  0  0  0
    4.5783    2.3641   11.2652 H   0  0  0  0  0  0  0  0  0  0  0  0
    3.8763    3.8057    9.3840 H   0  0  0  0  0  0  0  0  0  0  0  0
    1.3665    5.1263    8.2490 H   0  0  0  0  0  0  0  0  0  0  0  0
    1.0896    4.2198   11.6195 H   0  0  0  0  0  0  0  0  0  0  0  0
    0.5368    2.1420   12.7668 H   0  0  0  0  0  0  0  0  0  0  0  0
    0.1972   -3.1978   16.5158 H   0  0  0  0  0  0  0  0  0  0  0  0
   -2.2230   -3.6029   16.2963 H   0  0  0  0  0  0  0  0  0  0  0  0
  1  2  1  0  0  0  0
  1  6  1  0  0  0  0
  2  3  1  0  0  0  0
  3  4  1  0  0  0  0
  3  7  1  0  0  0  0
  4  5  1  0  0  0  0
  5  6  1  0  0  0  0
  7  8  2  0  0  0  0
  7 31  1  0  0  0  0
  8  9  1  0  0  0  0
  9 10  2  0  0  0  0
 10 11  1  0  0  0  0
 10 30  1  0  0  0  0
 11 12  1  0  0  0  0
 12 13  2  0  0  0  0
 12 20  1  0  0  0  0
 13 14  1  0  0  0  0
 14 15  2  0  0  0  0
 14 21  1  0  0  0  0
 15 16  1  0  0  0  0
 16 17  1  0  0  0  0
 16 20  1  0  0  0  0
 17 18  2  0  0  0  0
 18 19  1  0  0  0  0
 19 20  2  0  0  0  0
 21 22  1  0  0  0  0
 21 29  2  0  0  0  0
 22 23  2  0  0  0  0
 23 24  1  0  0  0  0
 24 25  2  0  0  0  0
 24 28  1  0  0  0  0
 25 26  1  0  0  0  0
 26 27  2  0  0  0  0
 27 28  1  0  0  0  0
 28 29  1  0  0  0  0
 30 31  2  0  0  0  0
  1 32  1  0  0  0  0
  1 33  1  0  0  0  0
  2 34  1  0  0  0  0
  2 35  1  0  0  0  0
  4 36  1  0  0  0  0
  4 37  1  0  0  0  0
  5 38  1  0  0  0  0
  5 39  1  0  0  0  0
  8 40  1  0  0  0  0
  9 41  1  0  0  0  0
 11 42  1  0  0  0  0
 15 43  1  0  0  0  0
 17 44  1  0  0  0  0
 18 45  1  0  0  0  0
 22 46  1  0  0  0  0
 23 47  1  0  0  0  0
 25 48  1  0  0  0  0
 28 49  1  0  0  0  0
 29 50  1  0  0  0  0
 30 51  1  0  0  0  0
 31 52  1  0  0  0  0
M  END
> <IC50[nM]>
7.7

$$$$
CHEMBL3265032
  -OEChem-05192314333D
 Structure written by MMmdl.
 52 57  0     0  0  0  0  0  0999 V2000
   -5.2528   -4.0279   13.4883 C   0  0  0  0  0  0  0  0  0  0  0  0
   -4.5590   -2.6369   13.4544 C   0  0  0  0  0  0  0  0  0  0  0  0
   -3.8919   -2.2470   14.7137 N   0  0  0  0  0  0  0  0  0  0  0  0
   -4.7198   -2.6287   15.8665 C   0  0  0  0  0  0  0  0  0  0  0  0
   -5.4261   -3.9885   15.8402 C   0  0  0  0  0  0  0  0  0  0  0  0
   -6.1177   -4.1508   14.6092 O   0  0  0  0  0  0  0  0  0  0  0  0
   -2.5101   -2.0763   14.8035 C   0  0  0  0  0  0  0  0  0  0  0  0
   -1.8815   -1.1097   14.0182 C   0  0  0  0  0  0  0  0  0  0  0  0
   -0.5196   -0.8466   14.1763 C   0  0  0  0  0  0  0  0  0  0  0  0
    0.2358   -1.5888   15.0999 C   0  0  0  0  0  0  0  0  0  0  0  0
    1.6095   -1.3595   15.3505 N   0  0  0  0  0  0  0  0  0  0  0  0
    2.5288   -0.4326   14.7915 C   0  0  0  0  0  0  0  0  0  0  0  0
    2.1515    0.4038   13.7773 N   0  0  0  0  0  0  0  0  0  0  0  0
    3.0856    1.2408   13.2315 C   0  0  0  0  0  0  0  0  0  0  0  0
    4.3919    1.2835   13.6955 C   0  0  0  0  0  0  0  0  0  0  0  0
    4.7346    0.4998   14.7545 N   0  0  0  0  0  0  0  0  0  0  0  0
    5.8922    0.3978   15.4788 C   0  0  0  0  0  0  0  0  0  0  0  0
    5.6049   -0.5481   16.4962 C   0  0  0  0  0  0  0  0  0  0  0  0
    4.3940   -1.0599   16.3510 N   0  0  0  0  0  0  0  0  0  0  0  0
    3.8344   -0.3880   15.3306 C   0  0  0  0  0  0  0  0  0  0  0  0
    2.6174    2.1451   12.1221 C   0  0  0  0  0  0  0  0  0  0  0  0
    3.5375    2.6360   11.1692 C   0  0  0  0  0  0  0  0  0  0  0  0
    3.1548    3.4584   10.1087 C   0  0  0  0  0  0  0  0  0  0  0  0
    1.8089    3.8176   10.0151 C   0  0  0  0  0  0  0  0  0  0  0  0
    0.9999    4.6108    9.1243 C   0  0  0  0  0  0  0  0  0  0  0  0
   -0.2405    4.6150    9.5301 N   0  0  0  0  0  0  0  0  0  0  0  0
   -0.3274    3.8782   10.6339 N   0  0  0  0  0  0  0  0  0  0  0  0
    0.8831    3.3398   10.9927 C   0  0  0  0  0  0  0  0  0  0  0  0
    1.2567    2.5006   12.0460 C   0  0  0  0  0  0  0  0  0  0  0  0
   -0.3865   -2.5955   15.8355 C   0  0  0  0  0  0  0  0  0  0  0  0
   -1.7498   -2.8337   15.7040 C   0  0  0  0  0  0  0  0  0  0  0  0
   -5.8405   -4.1569   12.5674 H   0  0  0  0  0  0  0  0  0  0  0  0
   -4.4820   -4.8107   13.5440 H   0  0  0  0  0  0  0  0  0  0  0  0
   -3.8021   -2.6512   12.6563 H   0  0  0  0  0  0  0  0  0  0  0  0
   -5.3221   -1.8793   13.2225 H   0  0  0  0  0  0  0  0  0  0  0  0
   -4.0678   -2.6183   16.7524 H   0  0  0  0  0  0  0  0  0  0  0  0
   -5.4990   -1.8599   15.9757 H   0  0  0  0  0  0  0  0  0  0  0  0
   -4.6797   -4.7893   15.9475 H   0  0  0  0  0  0  0  0  0  0  0  0
   -6.1441   -4.0427   16.6718 H   0  0  0  0  0  0  0  0  0  0  0  0
   -2.4521   -0.5614   13.2832 H   0  0  0  0  0  0  0  0  0  0  0  0
   -0.0469   -0.0731   13.5891 H   0  0  0  0  0  0  0  0  0  0  0  0
    2.0043   -1.9584   16.0472 H   0  0  0  0  0  0  0  0  0  0  0  0
    5.1225    1.9256   13.2261 H   0  0  0  0  0  0  0  0  0  0  0  0
    6.8211    0.9228   15.3119 H   0  0  0  0  0  0  0  0  0  0  0  0
    6.2881   -0.8162   17.2885 H   0  0  0  0  0  0  0  0  0  0  0  0
    4.5783    2.3641   11.2652 H   0  0  0  0  0  0  0  0  0  0  0  0
    3.7375    4.3880   10.1879 H   0  0  0  0  0  0  0  0  0  0  0  0
    3.4206    2.9372    9.1772 H   0  0  0  0  0  0  0  0  0  0  0  0
    1.3665    5.1263    8.2490 H   0  0  0  0  0  0  0  0  0  0  0  0
    0.5368    2.1420   12.7668 H   0  0  0  0  0  0  0  0  0  0  0  0
    0.1972   -3.1978   16.5158 H   0  0  0  0  0  0  0  0  0  0  0  0
   -2.2230   -3.6029   16.2963 H   0  0  0  0  0  0  0  0  0  0  0  0
  1  2  1  0  0  0  0
  1  6  1  0  0  0  0
  2  3  1  0  0  0  0
  3  4  1  0  0  0  0
  3  7  1  0  0  0  0
  4  5  1  0  0  0  0
  5  6  1  0  0  0  0
  7  8  2  0  0  0  0
  7 31  1  0  0  0  0
  8  9  1  0  0  0  0
  9 10  2  0  0  0  0
 10 11  1  0  0  0  0
 10 30  1  0  0  0  0
 11 12  1  0  0  0  0
 12 13  2  0  0  0  0
 12 20  1  0  0  0  0
 13 14  1  0  0  0  0
 14 15  2  0  0  0  0
 14 21  1  0  0  0  0
 15 16  1  0  0  0  0
 16 17  1  0  0  0  0
 16 20  1  0  0  0  0
 17 18  2  0  0  0  0
 18 19  1  0  0  0  0
 19 20  2  0  0  0  0
 21 22  2  0  0  0  0
 21 29  1  0  0  0  0
 22 23  1  0  0  0  0
 23 24  1  0  0  0  0
 24 25  2  0  0  0  0
 24 28  1  0  0  0  0
 25 26  1  0  0  0  0
 26 27  2  0  0  0  0
 27 28  1  0  0  0  0
 28 29  2  0  0  0  0
 30 31  2  0  0  0  0
  1 32  1  0  0  0  0
  1 33  1  0  0  0  0
  2 34  1  0  0  0  0
  2 35  1  0  0  0  0
  4 36  1  0  0  0  0
  4 37  1  0  0  0  0
  5 38  1  0  0  0  0
  5 39  1  0  0  0  0
  8 40  1  0  0  0  0
  9 41  1  0  0  0  0
 11 42  1  0  0  0  0
 15 43  1  0  0  0  0
 17 44  1  0  0  0  0
 18 45  1  0  0  0  0
 22 46  1  0  0  0  0
 23 47  1  0  0  0  0
 23 48  1  0  0  0  0
 25 49  1  0  0  0  0
 29 50  1  0  0  0  0
 30 51  1  0  0  0  0
 31 52  1  0  0  0  0
M  END
> <IC50[nM]>
7.7

$$$$
CHEMBL3265032
  -OEChem-05192314333D
 Structure written by MMmdl.
 52 57  0     1  0  0  0  0  0999 V2000
   -5.2528   -4.0279   13.4883 C   0  0  0  0  0  0  0  0  0  0  0  0
   -4.5590   -2.6369   13.4544 C   0  0  0  0  0  0  0  0  0  0  0  0
   -3.8919   -2.2470   14.7137 N   0  0  0  0  0  0  0  0  0  0  0  0
   -4.7198   -2.6287   15.8665 C   0  0  0  0  0  0  0  0  0  0  0  0
   -5.4261   -3.9885   15.8402 C   0  0  0  0  0  0  0  0  0  0  0  0
   -6.1177   -4.1508   14.6092 O   0  0  0  0  0  0  0  0  0  0  0  0
   -2.5101   -2.0763   14.8035 C   0  0  0  0  0  0  0  0  0  0  0  0
   -1.8815   -1.1097   14.0182 C   0  0  0  0  0  0  0  0  0  0  0  0
   -0.5196   -0.8466   14.1763 C   0  0  0  0  0  0  0  0  0  0  0  0
    0.2358   -1.5888   15.0999 C   0  0  0  0  0  0  0  0  0  0  0  0
    1.6095   -1.3595   15.3505 N   0  0  0  0  0  0  0  0  0  0  0  0
    2.5288   -0.4326   14.7915 C   0  0  0  0  0  0  0  0  0  0  0  0
    2.1515    0.4038   13.7773 N   0  0  0  0  0  0  0  0  0  0  0  0
    3.0856    1.2408   13.2315 C   0  0  0  0  0  0  0  0  0  0  0  0
    4.3919    1.2835   13.6955 C   0  0  0  0  0  0  0  0  0  0  0  0
    4.7346    0.4998   14.7545 N   0  0  0  0  0  0  0  0  0  0  0  0
    5.8922    0.3978   15.4788 C   0  0  0  0  0  0  0  0  0  0  0  0
    5.6049   -0.5481   16.4962 C   0  0  0  0  0  0  0  0  0  0  0  0
    4.3940   -1.0599   16.3510 N   0  0  0  0  0  0  0  0  0  0  0  0
    3.8344   -0.3880   15.3306 C   0  0  0  0  0  0  0  0  0  0  0  0
    2.6174    2.1451   12.1221 C   0  0  0  0  0  0  0  0  0  0  0  0
    3.5375    2.6360   11.1692 C   0  0  0  0  0  0  0  0  0  0  0  0
    3.1548    3.4584   10.1087 C   0  0  0  0  0  0  0  0  0  0  0  0
    1.8089    3.8176   10.0151 C   0  0  3  0  0  0  0  0  0  0  0  0
    0.9999    4.6108    9.1243 C   0  0  0  0  0  0  0  0  0  0  0  0
   -0.2405    4.6150    9.5301 N   0  0  0  0  0  0  0  0  0  0  0  0
   -0.3274    3.8782   10.6339 N   0  0  0  0  0  0  0  0  0  0  0  0
    0.8831    3.3398   10.9927 C   0  0  0  0  0  0  0  0  0  0  0  0
    1.2567    2.5006   12.0460 C   0  0  0  0  0  0  0  0  0  0  0  0
   -0.3865   -2.5955   15.8355 C   0  0  0  0  0  0  0  0  0  0  0  0
   -1.7498   -2.8337   15.7040 C   0  0  0  0  0  0  0  0  0  0  0  0
   -5.8405   -4.1569   12.5674 H   0  0  0  0  0  0  0  0  0  0  0  0
   -4.4820   -4.8107   13.5440 H   0  0  0  0  0  0  0  0  0  0  0  0
   -3.8021   -2.6512   12.6563 H   0  0  0  0  0  0  0  0  0  0  0  0
   -5.3221   -1.8793   13.2225 H   0  0  0  0  0  0  0  0  0  0  0  0
   -4.0678   -2.6183   16.7524 H   0  0  0  0  0  0  0  0  0  0  0  0
   -5.4990   -1.8599   15.9757 H   0  0  0  0  0  0  0  0  0  0  0  0
   -4.6797   -4.7893   15.9475 H   0  0  0  0  0  0  0  0  0  0  0  0
   -6.1441   -4.0427   16.6718 H   0  0  0  0  0  0  0  0  0  0  0  0
   -2.4521   -0.5614   13.2832 H   0  0  0  0  0  0  0  0  0  0  0  0
   -0.0469   -0.0731   13.5891 H   0  0  0  0  0  0  0  0  0  0  0  0
    1.2098    0.4034   13.4409 H   0  0  0  0  0  0  0  0  0  0  0  0
    5.1225    1.9256   13.2261 H   0  0  0  0  0  0  0  0  0  0  0  0
    6.8211    0.9228   15.3119 H   0  0  0  0  0  0  0  0  0  0  0  0
    6.2881   -0.8162   17.2885 H   0  0  0  0  0  0  0  0  0  0  0  0
    4.5783    2.3641   11.2652 H   0  0  0  0  0  0  0  0  0  0  0  0
    3.8763    3.8057    9.3840 H   0  0  0  0  0  0  0  0  0  0  0  0
    2.0027    4.7072   10.6324 H   0  0  0  0  0  0  0  0  0  0  0  0
    1.3665    5.1263    8.2490 H   0  0  0  0  0  0  0  0  0  0  0  0
    0.5368    2.1420   12.7668 H   0  0  0  0  0  0  0  0  0  0  0  0
    0.1972   -3.1978   16.5158 H   0  0  0  0  0  0  0  0  0  0  0  0
   -2.2230   -3.6029   16.2963 H   0  0  0  0  0  0  0  0  0  0  0  0
  1  2  1  0  0  0  0
  1  6  1  0  0  0  0
  2  3  1  0  0  0  0
  3  4  1  0  0  0  0
  3  7  1  0  0  0  0
  4  5  1  0  0  0  0
  5  6  1  0  0  0  0
  7  8  2  0  0  0  0
  7 31  1  0  0  0  0
  8  9  1  0  0  0  0
  9 10  2  0  0  0  0
 10 11  1  0  0  0  0
 10 30  1  0  0  0  0
 11 12  2  0  0  0  0
 12 13  1  0  0  0  0
 12 20  1  0  0  0  0
 13 14  1  0  0  0  0
 14 15  2  0  0  0  0
 14 21  1  0  0  0  0
 15 16  1  0  0  0  0
 16 17  1  0  0  0  0
 16 20  1  0  0  0  0
 17 18  2  0  0  0  0
 18 19  1  0  0  0  0
 19 20  2  0  0  0  0
 21 22  1  0  0  0  0
 21 29  2  0  0  0  0
 22 23  2  0  0  0  0
 23 24  1  0  0  0  0
 24 25  1  0  0  0  0
 24 28  1  0  0  0  0
 25 26  2  0  0  0  0
 26 27  1  0  0  0  0
 27 28  2  0  0  0  0
 28 29  1  0  0  0  0
 30 31  2  0  0  0  0
  1 32  1  0  0  0  0
  1 33  1  0  0  0  0
  2 34  1  0  0  0  0
  2 35  1  0  0  0  0
  4 36  1  0  0  0  0
  4 37  1  0  0  0  0
  5 38  1  0  0  0  0
  5 39  1  0  0  0  0
  8 40  1  0  0  0  0
  9 41  1  0  0  0  0
 13 42  1  0  0  0  0
 15 43  1  0  0  0  0
 17 44  1  0  0  0  0
 18 45  1  0  0  0  0
 22 46  1  0  0  0  0
 23 47  1  0  0  0  0
 24 48  1  0  0  0  0
 25 49  1  0  0  0  0
 29 50  1  0  0  0  0
 30 51  1  0  0  0  0
 31 52  1  0  0  0  0
M  END
> <IC50[nM]>
7.7

$$$$
CHEMBL3265032
  -OEChem-05192314333D
 Structure written by MMmdl.
 52 57  0     0  0  0  0  0  0999 V2000
   -5.2528   -4.0279   13.4883 C   0  0  0  0  0  0  0  0  0  0  0  0
   -4.5590   -2.6369   13.4544 C   0  0  0  0  0  0  0  0  0  0  0  0
   -3.8919   -2.2470   14.7137 N   0  0  0  0  0  0  0  0  0  0  0  0
   -4.7198   -2.6287   15.8665 C   0  0  0  0  0  0  0  0  0  0  0  0
   -5.4261   -3.9885   15.8402 C   0  0  0  0  0  0  0  0  0  0  0  0
   -6.1177   -4.1508   14.6092 O   0  0  0  0  0  0  0  0  0  0  0  0
   -2.5101   -2.0763   14.8035 C   0  0  0  0  0  0  0  0  0  0  0  0
   -1.8815   -1.1097   14.0182 C   0  0  0  0  0  0  0  0  0  0  0  0
   -0.5196   -0.8466   14.1763 C   0  0  0  0  0  0  0  0  0  0  0  0
    0.2358   -1.5888   15.0999 C   0  0  0  0  0  0  0  0  0  0  0  0
    1.6095   -1.3595   15.3505 N   0  0  0  0  0  0  0  0  0  0  0  0
    2.5288   -0.4326   14.7915 C   0  0  0  0  0  0  0  0  0  0  0  0
    2.1515    0.4038   13.7773 N   0  0  0  0  0  0  0  0  0  0  0  0
    3.0856    1.2408   13.2315 C   0  0  0  0  0  0  0  0  0  0  0  0
    4.3919    1.2835   13.6955 C   0  0  0  0  0  0  0  0  0  0  0  0
    4.7346    0.4998   14.7545 N   0  0  0  0  0  0  0  0  0  0  0  0
    5.8922    0.3978   15.4788 C   0  0  0  0  0  0  0  0  0  0  0  0
    5.6049   -0.5481   16.4962 C   0  0  0  0  0  0  0  0  0  0  0  0
    4.3940   -1.0599   16.3510 N   0  0  0  0  0  0  0  0  0  0  0  0
    3.8344   -0.3880   15.3306 C   0  0  0  0  0  0  0  0  0  0  0  0
    2.6174    2.1451   12.1221 C   0  0  0  0  0  0  0  0  0  0  0  0
    3.5375    2.6360   11.1692 C   0  0  0  0  0  0  0  0  0  0  0  0
    3.1548    3.4584   10.1087 C   0  0  0  0  0  0  0  0  0  0  0  0
    1.8089    3.8176   10.0151 C   0  0  0  0  0  0  0  0  0  0  0  0
    0.9999    4.6108    9.1243 C   0  0  0  0  0  0  0  0  0  0  0  0
   -0.2405    4.6150    9.5301 N   0  0  0  0  0  0  0  0  0  0  0  0
   -0.3274    3.8782   10.6339 N   0  0  0  0  0  0  0  0  0  0  0  0
    0.8831    3.3398   10.9927 C   0  0  0  0  0  0  0  0  0  0  0  0
    1.2567    2.5006   12.0460 C   0  0  0  0  0  0  0  0  0  0  0  0
   -0.3865   -2.5955   15.8355 C   0  0  0  0  0  0  0  0  0  0  0  0
   -1.7498   -2.8337   15.7040 C   0  0  0  0  0  0  0  0  0  0  0  0
   -5.8405   -4.1569   12.5674 H   0  0  0  0  0  0  0  0  0  0  0  0
   -4.4820   -4.8107   13.5440 H   0  0  0  0  0  0  0  0  0  0  0  0
   -3.8021   -2.6512   12.6563 H   0  0  0  0  0  0  0  0  0  0  0  0
   -5.3221   -1.8793   13.2225 H   0  0  0  0  0  0  0  0  0  0  0  0
   -4.0678   -2.6183   16.7524 H   0  0  0  0  0  0  0  0  0  0  0  0
   -5.4990   -1.8599   15.9757 H   0  0  0  0  0  0  0  0  0  0  0  0
   -4.6797   -4.7893   15.9475 H   0  0  0  0  0  0  0  0  0  0  0  0
   -6.1441   -4.0427   16.6718 H   0  0  0  0  0  0  0  0  0  0  0  0
   -2.4521   -0.5614   13.2832 H   0  0  0  0  0  0  0  0  0  0  0  0
   -0.0469   -0.0731   13.5891 H   0  0  0  0  0  0  0  0  0  0  0  0
    1.2098    0.4034   13.4409 H   0  0  0  0  0  0  0  0  0  0  0  0
    5.1225    1.9256   13.2261 H   0  0  0  0  0  0  0  0  0  0  0  0
    6.8211    0.9228   15.3119 H   0  0  0  0  0  0  0  0  0  0  0  0
    6.2881   -0.8162   17.2885 H   0  0  0  0  0  0  0  0  0  0  0  0
    4.2918    3.2010   11.7365 H   0  0  0  0  0  0  0  0  0  0  0  0
    4.0073    1.7512   10.7148 H   0  0  0  0  0  0  0  0  0  0  0  0
    3.8763    3.8057    9.3840 H   0  0  0  0  0  0  0  0  0  0  0  0
    1.3665    5.1263    8.2490 H   0  0  0  0  0  0  0  0  0  0  0  0
    0.5368    2.1420   12.7668 H   0  0  0  0  0  0  0  0  0  0  0  0
    0.1972   -3.1978   16.5158 H   0  0  0  0  0  0  0  0  0  0  0  0
   -2.2230   -3.6029   16.2963 H   0  0  0  0  0  0  0  0  0  0  0  0
  1  2  1  0  0  0  0
  1  6  1  0  0  0  0
  2  3  1  0  0  0  0
  3  4  1  0  0  0  0
  3  7  1  0  0  0  0
  4  5  1  0  0  0  0
  5  6  1  0  0  0  0
  7  8  2  0  0  0  0
  7 31  1  0  0  0  0
  8  9  1  0  0  0  0
  9 10  2  0  0  0  0
 10 11  1  0  0  0  0
 10 30  1  0  0  0  0
 11 12  2  0  0  0  0
 12 13  1  0  0  0  0
 12 20  1  0  0  0  0
 13 14  1  0  0  0  0
 14 15  2  0  0  0  0
 14 21  1  0  0  0  0
 15 16  1  0  0  0  0
 16 17  1  0  0  0  0
 16 20  1  0  0  0  0
 17 18  2  0  0  0  0
 18 19  1  0  0  0  0
 19 20  2  0  0  0  0
 21 22  1  0  0  0  0
 21 29  2  0  0  0  0
 22 23  1  0  0  0  0
 23 24  2  0  0  0  0
 24 25  1  0  0  0  0
 24 28  1  0  0  0  0
 25 26  2  0  0  0  0
 26 27  1  0  0  0  0
 27 28  2  0  0  0  0
 28 29  1  0  0  0  0
 30 31  2  0  0  0  0
  1 32  1  0  0  0  0
  1 33  1  0  0  0  0
  2 34  1  0  0  0  0
  2 35  1  0  0  0  0
  4 36  1  0  0  0  0
  4 37  1  0  0  0  0
  5 38  1  0  0  0  0
  5 39  1  0  0  0  0
  8 40  1  0  0  0  0
  9 41  1  0  0  0  0
 13 42  1  0  0  0  0
 15 43  1  0  0  0  0
 17 44  1  0  0  0  0
 18 45  1  0  0  0  0
 22 46  1  0  0  0  0
 22 47  1  0  0  0  0
 23 48  1  0  0  0  0
 25 49  1  0  0  0  0
 29 50  1  0  0  0  0
 30 51  1  0  0  0  0
 31 52  1  0  0  0  0
M  END
> <IC50[nM]>
7.7

$$$$
CHEMBL3265032
  -OEChem-05192314333D
 Structure written by MMmdl.
 52 57  0     0  0  0  0  0  0999 V2000
   -5.2528   -4.0279   13.4883 C   0  0  0  0  0  0  0  0  0  0  0  0
   -4.5590   -2.6369   13.4544 C   0  0  0  0  0  0  0  0  0  0  0  0
   -3.8919   -2.2470   14.7137 N   0  0  0  0  0  0  0  0  0  0  0  0
   -4.7198   -2.6287   15.8665 C   0  0  0  0  0  0  0  0  0  0  0  0
   -5.4261   -3.9885   15.8402 C   0  0  0  0  0  0  0  0  0  0  0  0
   -6.1177   -4.1508   14.6092 O   0  0  0  0  0  0  0  0  0  0  0  0
   -2.5101   -2.0763   14.8035 C   0  0  0  0  0  0  0  0  0  0  0  0
   -1.8815   -1.1097   14.0182 C   0  0  0  0  0  0  0  0  0  0  0  0
   -0.5196   -0.8466   14.1763 C   0  0  0  0  0  0  0  0  0  0  0  0
    0.2358   -1.5888   15.0999 C   0  0  0  0  0  0  0  0  0  0  0  0
    1.6095   -1.3595   15.3505 N   0  0  0  0  0  0  0  0  0  0  0  0
    2.5288   -0.4326   14.7915 C   0  0  0  0  0  0  0  0  0  0  0  0
    2.1515    0.4038   13.7773 N   0  0  0  0  0  0  0  0  0  0  0  0
    3.0856    1.2408   13.2315 C   0  0  0  0  0  0  0  0  0  0  0  0
    4.3919    1.2835   13.6955 C   0  0  0  0  0  0  0  0  0  0  0  0
    4.7346    0.4998   14.7545 N   0  0  0  0  0  0  0  0  0  0  0  0
    5.8922    0.3978   15.4788 C   0  0  0  0  0  0  0  0  0  0  0  0
    5.6049   -0.5481   16.4962 C   0  0  0  0  0  0  0  0  0  0  0  0
    4.3940   -1.0599   16.3510 N   0  0  0  0  0  0  0  0  0  0  0  0
    3.8344   -0.3880   15.3306 C   0  0  0  0  0  0  0  0  0  0  0  0
    2.6174    2.1451   12.1221 C   0  0  0  0  0  0  0  0  0  0  0  0
    3.5375    2.6360   11.1692 C   0  0  0  0  0  0  0  0  0  0  0  0
    3.1548    3.4584   10.1087 C   0  0  0  0  0  0  0  0  0  0  0  0
    1.8089    3.8176   10.0151 C   0  0  0  0  0  0  0  0  0  0  0  0
    0.9999    4.6108    9.1243 C   0  0  0  0  0  0  0  0  0  0  0  0
   -0.2405    4.6150    9.5301 N   0  0  0  0  0  0  0  0  0  0  0  0
   -0.3274    3.8782   10.6339 N   0  0  0  0  0  0  0  0  0  0  0  0
    0.8831    3.3398   10.9927 C   0  0  0  0  0  0  0  0  0  0  0  0
    1.2567    2.5006   12.0460 C   0  0  0  0  0  0  0  0  0  0  0  0
   -0.3865   -2.5955   15.8355 C   0  0  0  0  0  0  0  0  0  0  0  0
   -1.7498   -2.8337   15.7040 C   0  0  0  0  0  0  0  0  0  0  0  0
   -5.8405   -4.1569   12.5674 H   0  0  0  0  0  0  0  0  0  0  0  0
   -4.4820   -4.8107   13.5440 H   0  0  0  0  0  0  0  0  0  0  0  0
   -3.8021   -2.6512   12.6563 H   0  0  0  0  0  0  0  0  0  0  0  0
   -5.3221   -1.8793   13.2225 H   0  0  0  0  0  0  0  0  0  0  0  0
   -4.0678   -2.6183   16.7524 H   0  0  0  0  0  0  0  0  0  0  0  0
   -5.4990   -1.8599   15.9757 H   0  0  0  0  0  0  0  0  0  0  0  0
   -4.6797   -4.7893   15.9475 H   0  0  0  0  0  0  0  0  0  0  0  0
   -6.1441   -4.0427   16.6718 H   0  0  0  0  0  0  0  0  0  0  0  0
   -2.4521   -0.5614   13.2832 H   0  0  0  0  0  0  0  0  0  0  0  0
   -0.0469   -0.0731   13.5891 H   0  0  0  0  0  0  0  0  0  0  0  0
    1.2098    0.4034   13.4409 H   0  0  0  0  0  0  0  0  0  0  0  0
    5.1225    1.9256   13.2261 H   0  0  0  0  0  0  0  0  0  0  0  0
    6.8211    0.9228   15.3119 H   0  0  0  0  0  0  0  0  0  0  0  0
    6.2881   -0.8162   17.2885 H   0  0  0  0  0  0  0  0  0  0  0  0
    4.5783    2.3641   11.2652 H   0  0  0  0  0  0  0  0  0  0  0  0
    3.8763    3.8057    9.3840 H   0  0  0  0  0  0  0  0  0  0  0  0
    1.3665    5.1263    8.2490 H   0  0  0  0  0  0  0  0  0  0  0  0
    0.6746    1.5718   11.9541 H   0  0  0  0  0  0  0  0  0  0  0  0
    0.9921    3.0077   12.9856 H   0  0  0  0  0  0  0  0  0  0  0  0
    0.1972   -3.1978   16.5158 H   0  0  0  0  0  0  0  0  0  0  0  0
   -2.2230   -3.6029   16.2963 H   0  0  0  0  0  0  0  0  0  0  0  0
  1  2  1  0  0  0  0
  1  6  1  0  0  0  0
  2  3  1  0  0  0  0
  3  4  1  0  0  0  0
  3  7  1  0  0  0  0
  4  5  1  0  0  0  0
  5  6  1  0  0  0  0
  7  8  2  0  0  0  0
  7 31  1  0  0  0  0
  8  9  1  0  0  0  0
  9 10  2  0  0  0  0
 10 11  1  0  0  0  0
 10 30  1  0  0  0  0
 11 12  2  0  0  0  0
 12 13  1  0  0  0  0
 12 20  1  0  0  0  0
 13 14  1  0  0  0  0
 14 15  2  0  0  0  0
 14 21  1  0  0  0  0
 15 16  1  0  0  0  0
 16 17  1  0  0  0  0
 16 20  1  0  0  0  0
 17 18  2  0  0  0  0
 18 19  1  0  0  0  0
 19 20  2  0  0  0  0
 21 22  2  0  0  0  0
 21 29  1  0  0  0  0
 22 23  1  0  0  0  0
 23 24  2  0  0  0  0
 24 25  1  0  0  0  0
 24 28  1  0  0  0  0
 25 26  2  0  0  0  0
 26 27  1  0  0  0  0
 27 28  2  0  0  0  0
 28 29  1  0  0  0  0
 30 31  2  0  0  0  0
  1 32  1  0  0  0  0
  1 33  1  0  0  0  0
  2 34  1  0  0  0  0
  2 35  1  0  0  0  0
  4 36  1  0  0  0  0
  4 37  1  0  0  0  0
  5 38  1  0  0  0  0
  5 39  1  0  0  0  0
  8 40  1  0  0  0  0
  9 41  1  0  0  0  0
 13 42  1  0  0  0  0
 15 43  1  0  0  0  0
 17 44  1  0  0  0  0
 18 45  1  0  0  0  0
 22 46  1  0  0  0  0
 23 47  1  0  0  0  0
 25 48  1  0  0  0  0
 29 49  1  0  0  0  0
 29 50  1  0  0  0  0
 30 51  1  0  0  0  0
 31 52  1  0  0  0  0
M  END
> <IC50[nM]>
7.7

$$$$
CHEMBL3265032
  -OEChem-05192314333D
 Structure written by MMmdl.
 52 57  0     1  0  0  0  0  0999 V2000
   -5.2528   -4.0279   13.4883 C   0  0  0  0  0  0  0  0  0  0  0  0
   -4.5590   -2.6369   13.4544 C   0  0  0  0  0  0  0  0  0  0  0  0
   -3.8919   -2.2470   14.7137 N   0  0  0  0  0  0  0  0  0  0  0  0
   -4.7198   -2.6287   15.8665 C   0  0  0  0  0  0  0  0  0  0  0  0
   -5.4261   -3.9885   15.8402 C   0  0  0  0  0  0  0  0  0  0  0  0
   -6.1177   -4.1508   14.6092 O   0  0  0  0  0  0  0  0  0  0  0  0
   -2.5101   -2.0763   14.8035 C   0  0  0  0  0  0  0  0  0  0  0  0
   -1.8815   -1.1097   14.0182 C   0  0  0  0  0  0  0  0  0  0  0  0
   -0.5196   -0.8466   14.1763 C   0  0  0  0  0  0  0  0  0  0  0  0
    0.2358   -1.5888   15.0999 C   0  0  0  0  0  0  0  0  0  0  0  0
    1.6095   -1.3595   15.3505 N   0  0  0  0  0  0  0  0  0  0  0  0
    2.5288   -0.4326   14.7915 C   0  0  0  0  0  0  0  0  0  0  0  0
    2.1515    0.4038   13.7773 N   0  0  0  0  0  0  0  0  0  0  0  0
    3.0856    1.2408   13.2315 C   0  0  0  0  0  0  0  0  0  0  0  0
    4.3919    1.2835   13.6955 C   0  0  0  0  0  0  0  0  0  0  0  0
    4.7346    0.4998   14.7545 N   0  0  0  0  0  0  0  0  0  0  0  0
    5.8922    0.3978   15.4788 C   0  0  0  0  0  0  0  0  0  0  0  0
    5.6049   -0.5481   16.4962 C   0  0  0  0  0  0  0  0  0  0  0  0
    4.3940   -1.0599   16.3510 N   0  0  0  0  0  0  0  0  0  0  0  0
    3.8344   -0.3880   15.3306 C   0  0  0  0  0  0  0  0  0  0  0  0
    2.6174    2.1451   12.1221 C   0  0  3  0  0  0  0  0  0  0  0  0
    3.5375    2.6360   11.1692 C   0  0  0  0  0  0  0  0  0  0  0  0
    3.1548    3.4584   10.1087 C   0  0  0  0  0  0  0  0  0  0  0  0
    1.8089    3.8176   10.0151 C   0  0  0  0  0  0  0  0  0  0  0  0
    0.9999    4.6108    9.1243 C   0  0  0  0  0  0  0  0  0  0  0  0
   -0.2405    4.6150    9.5301 N   0  0  0  0  0  0  0  0  0  0  0  0
   -0.3274    3.8782   10.6339 N   0  0  0  0  0  0  0  0  0  0  0  0
    0.8831    3.3398   10.9927 C   0  0  0  0  0  0  0  0  0  0  0  0
    1.2567    2.5006   12.0460 C   0  0  0  0  0  0  0  0  0  0  0  0
   -0.3865   -2.5955   15.8355 C   0  0  0  0  0  0  0  0  0  0  0  0
   -1.7498   -2.8337   15.7040 C   0  0  0  0  0  0  0  0  0  0  0  0
   -5.8405   -4.1569   12.5674 H   0  0  0  0  0  0  0  0  0  0  0  0
   -4.4820   -4.8107   13.5440 H   0  0  0  0  0  0  0  0  0  0  0  0
   -3.8021   -2.6512   12.6563 H   0  0  0  0  0  0  0  0  0  0  0  0
   -5.3221   -1.8793   13.2225 H   0  0  0  0  0  0  0  0  0  0  0  0
   -4.0678   -2.6183   16.7524 H   0  0  0  0  0  0  0  0  0  0  0  0
   -5.4990   -1.8599   15.9757 H   0  0  0  0  0  0  0  0  0  0  0  0
   -4.6797   -4.7893   15.9475 H   0  0  0  0  0  0  0  0  0  0  0  0
   -6.1441   -4.0427   16.6718 H   0  0  0  0  0  0  0  0  0  0  0  0
   -2.4521   -0.5614   13.2832 H   0  0  0  0  0  0  0  0  0  0  0  0
   -0.0469   -0.0731   13.5891 H   0  0  0  0  0  0  0  0  0  0  0  0
    1.2098    0.4034   13.4409 H   0  0  0  0  0  0  0  0  0  0  0  0
    5.1225    1.9256   13.2261 H   0  0  0  0  0  0  0  0  0  0  0  0
    6.8211    0.9228   15.3119 H   0  0  0  0  0  0  0  0  0  0  0  0
    6.2881   -0.8162   17.2885 H   0  0  0  0  0  0  0  0  0  0  0  0
    2.4252    1.2680   11.4866 H   0  0  0  0  0  0  0  0  0  0  0  0
    4.5783    2.3641   11.2652 H   0  0  0  0  0  0  0  0  0  0  0  0
    3.8763    3.8057    9.3840 H   0  0  0  0  0  0  0  0  0  0  0  0
    1.3665    5.1263    8.2490 H   0  0  0  0  0  0  0  0  0  0  0  0
    0.5368    2.1420   12.7668 H   0  0  0  0  0  0  0  0  0  0  0  0
    0.1972   -3.1978   16.5158 H   0  0  0  0  0  0  0  0  0  0  0  0
   -2.2230   -3.6029   16.2963 H   0  0  0  0  0  0  0  0  0  0  0  0
  1  2  1  0  0  0  0
  1  6  1  0  0  0  0
  2  3  1  0  0  0  0
  3  4  1  0  0  0  0
  3  7  1  0  0  0  0
  4  5  1  0  0  0  0
  5  6  1  0  0  0  0
  7  8  2  0  0  0  0
  7 31  1  0  0  0  0
  8  9  1  0  0  0  0
  9 10  2  0  0  0  0
 10 11  1  0  0  0  0
 10 30  1  0  0  0  0
 11 12  2  0  0  0  0
 12 13  1  0  0  0  0
 12 20  1  0  0  0  0
 13 14  1  0  0  0  0
 14 15  2  0  0  0  0
 14 21  1  0  0  0  0
 15 16  1  0  0  0  0
 16 17  1  0  0  0  0
 16 20  1  0  0  0  0
 17 18  2  0  0  0  0
 18 19  1  0  0  0  0
 19 20  2  0  0  0  0
 21 22  1  0  0  0  0
 21 29  1  0  0  0  0
 22 23  2  0  0  0  0
 23 24  1  0  0  0  0
 24 25  2  0  0  0  0
 24 28  1  0  0  0  0
 25 26  1  0  0  0  0
 26 27  2  0  0  0  0
 27 28  1  0  0  0  0
 28 29  2  0  0  0  0
 30 31  2  0  0  0  0
  1 32  1  0  0  0  0
  1 33  1  0  0  0  0
  2 34  1  0  0  0  0
  2 35  1  0  0  0  0
  4 36  1  0  0  0  0
  4 37  1  0  0  0  0
  5 38  1  0  0  0  0
  5 39  1  0  0  0  0
  8 40  1  0  0  0  0
  9 41  1  0  0  0  0
 13 42  1  0  0  0  0
 15 43  1  0  0  0  0
 17 44  1  0  0  0  0
 18 45  1  0  0  0  0
 21 46  1  0  0  0  0
 22 47  1  0  0  0  0
 23 48  1  0  0  0  0
 25 49  1  0  0  0  0
 29 50  1  0  0  0  0
 30 51  1  0  0  0  0
 31 52  1  0  0  0  0
M  END
> <IC50[nM]>
7.7

$$$$
CHEMBL3265032
  -OEChem-05192314333D
 Structure written by MMmdl.
 52 57  0     1  0  0  0  0  0999 V2000
   -5.2528   -4.0279   13.4883 C   0  0  0  0  0  0  0  0  0  0  0  0
   -4.5590   -2.6369   13.4544 C   0  0  0  0  0  0  0  0  0  0  0  0
   -3.8919   -2.2470   14.7137 N   0  0  0  0  0  0  0  0  0  0  0  0
   -4.7198   -2.6287   15.8665 C   0  0  0  0  0  0  0  0  0  0  0  0
   -5.4261   -3.9885   15.8402 C   0  0  0  0  0  0  0  0  0  0  0  0
   -6.1177   -4.1508   14.6092 O   0  0  0  0  0  0  0  0  0  0  0  0
   -2.5101   -2.0763   14.8035 C   0  0  0  0  0  0  0  0  0  0  0  0
   -1.8815   -1.1097   14.0182 C   0  0  0  0  0  0  0  0  0  0  0  0
   -0.5196   -0.8466   14.1763 C   0  0  0  0  0  0  0  0  0  0  0  0
    0.2358   -1.5888   15.0999 C   0  0  0  0  0  0  0  0  0  0  0  0
    1.6095   -1.3595   15.3505 N   0  0  0  0  0  0  0  0  0  0  0  0
    2.5288   -0.4326   14.7915 C   0  0  0  0  0  0  0  0  0  0  0  0
    2.1515    0.4038   13.7773 N   0  0  0  0  0  0  0  0  0  0  0  0
    3.0856    1.2408   13.2315 C   0  0  0  0  0  0  0  0  0  0  0  0
    4.3919    1.2835   13.6955 C   0  0  0  0  0  0  0  0  0  0  0  0
    4.7346    0.4998   14.7545 N   0  0  0  0  0  0  0  0  0  0  0  0
    5.8922    0.3978   15.4788 C   0  0  0  0  0  0  0  0  0  0  0  0
    5.6049   -0.5481   16.4962 C   0  0  0  0  0  0  0  0  0  0  0  0
    4.3940   -1.0599   16.3510 N   0  0  0  0  0  0  0  0  0  0  0  0
    3.8344   -0.3880   15.3306 C   0  0  0  0  0  0  0  0  0  0  0  0
    2.6174    2.1451   12.1221 C   0  0  0  0  0  0  0  0  0  0  0  0
    3.5375    2.6360   11.1692 C   0  0  0  0  0  0  0  0  0  0  0  0
    3.1548    3.4584   10.1087 C   0  0  0  0  0  0  0  0  0  0  0  0
    1.8089    3.8176   10.0151 C   0  0  0  0  0  0  0  0  0  0  0  0
    0.9999    4.6108    9.1243 C   0  0  0  0  0  0  0  0  0  0  0  0
   -0.2405    4.6150    9.5301 N   0  0  0  0  0  0  0  0  0  0  0  0
   -0.3274    3.8782   10.6339 N   0  0  0  0  0  0  0  0  0  0  0  0
    0.8831    3.3398   10.9927 C   0  0  3  0  0  0  0  0  0  0  0  0
    1.2567    2.5006   12.0460 C   0  0  0  0  0  0  0  0  0  0  0  0
   -0.3865   -2.5955   15.8355 C   0  0  0  0  0  0  0  0  0  0  0  0
   -1.7498   -2.8337   15.7040 C   0  0  0  0  0  0  0  0  0  0  0  0
   -5.8405   -4.1569   12.5674 H   0  0  0  0  0  0  0  0  0  0  0  0
   -4.4820   -4.8107   13.5440 H   0  0  0  0  0  0  0  0  0  0  0  0
   -3.8021   -2.6512   12.6563 H   0  0  0  0  0  0  0  0  0  0  0  0
   -5.3221   -1.8793   13.2225 H   0  0  0  0  0  0  0  0  0  0  0  0
   -4.0678   -2.6183   16.7524 H   0  0  0  0  0  0  0  0  0  0  0  0
   -5.4990   -1.8599   15.9757 H   0  0  0  0  0  0  0  0  0  0  0  0
   -4.6797   -4.7893   15.9475 H   0  0  0  0  0  0  0  0  0  0  0  0
   -6.1441   -4.0427   16.6718 H   0  0  0  0  0  0  0  0  0  0  0  0
   -2.4521   -0.5614   13.2832 H   0  0  0  0  0  0  0  0  0  0  0  0
   -0.0469   -0.0731   13.5891 H   0  0  0  0  0  0  0  0  0  0  0  0
    1.2098    0.4034   13.4409 H   0  0  0  0  0  0  0  0  0  0  0  0
    5.1225    1.9256   13.2261 H   0  0  0  0  0  0  0  0  0  0  0  0
    6.8211    0.9228   15.3119 H   0  0  0  0  0  0  0  0  0  0  0  0
    6.2881   -0.8162   17.2885 H   0  0  0  0  0  0  0  0  0  0  0  0
    4.5783    2.3641   11.2652 H   0  0  0  0  0  0  0  0  0  0  0  0
    3.8763    3.8057    9.3840 H   0  0  0  0  0  0  0  0  0  0  0  0
    1.3665    5.1263    8.2490 H   0  0  0  0  0  0  0  0  0  0  0  0
    1.0896    4.2198   11.6195 H   0  0  0  0  0  0  0  0  0  0  0  0
    0.5368    2.1420   12.7668 H   0  0  0  0  0  0  0  0  0  0  0  0
    0.1972   -3.1978   16.5158 H   0  0  0  0  0  0  0  0  0  0  0  0
   -2.2230   -3.6029   16.2963 H   0  0  0  0  0  0  0  0  0  0  0  0
  1  2  1  0  0  0  0
  1  6  1  0  0  0  0
  2  3  1  0  0  0  0
  3  4  1  0  0  0  0
  3  7  1  0  0  0  0
  4  5  1  0  0  0  0
  5  6  1  0  0  0  0
  7  8  2  0  0  0  0
  7 31  1  0  0  0  0
  8  9  1  0  0  0  0
  9 10  2  0  0  0  0
 10 11  1  0  0  0  0
 10 30  1  0  0  0  0
 11 12  2  0  0  0  0
 12 13  1  0  0  0  0
 12 20  1  0  0  0  0
 13 14  1  0  0  0  0
 14 15  2  0  0  0  0
 14 21  1  0  0  0  0
 15 16  1  0  0  0  0
 16 17  1  0  0  0  0
 16 20  1  0  0  0  0
 17 18  2  0  0  0  0
 18 19  1  0  0  0  0
 19 20  2  0  0  0  0
 21 22  1  0  0  0  0
 21 29  2  0  0  0  0
 22 23  2  0  0  0  0
 23 24  1  0  0  0  0
 24 25  2  0  0  0  0
 24 28  1  0  0  0  0
 25 26  1  0  0  0  0
 26 27  2  0  0  0  0
 27 28  1  0  0  0  0
 28 29  1  0  0  0  0
 30 31  2  0  0  0  0
  1 32  1  0  0  0  0
  1 33  1  0  0  0  0
  2 34  1  0  0  0  0
  2 35  1  0  0  0  0
  4 36  1  0  0  0  0
  4 37  1  0  0  0  0
  5 38  1  0  0  0  0
  5 39  1  0  0  0  0
  8 40  1  0  0  0  0
  9 41  1  0  0  0  0
 13 42  1  0  0  0  0
 15 43  1  0  0  0  0
 17 44  1  0  0  0  0
 18 45  1  0  0  0  0
 22 46  1  0  0  0  0
 23 47  1  0  0  0  0
 25 48  1  0  0  0  0
 28 49  1  0  0  0  0
 29 50  1  0  0  0  0
 30 51  1  0  0  0  0
 31 52  1  0  0  0  0
M  END
> <IC50[nM]>
7.7

$$$$
CHEMBL3265032
  -OEChem-05192314333D
 Structure written by MMmdl.
 52 57  0     0  0  0  0  0  0999 V2000
   -5.2528   -4.0279   13.4883 C   0  0  0  0  0  0  0  0  0  0  0  0
   -4.5590   -2.6369   13.4544 C   0  0  0  0  0  0  0  0  0  0  0  0
   -3.8919   -2.2470   14.7137 N   0  0  0  0  0  0  0  0  0  0  0  0
   -4.7198   -2.6287   15.8665 C   0  0  0  0  0  0  0  0  0  0  0  0
   -5.4261   -3.9885   15.8402 C   0  0  0  0  0  0  0  0  0  0  0  0
   -6.1177   -4.1508   14.6092 O   0  0  0  0  0  0  0  0  0  0  0  0
   -2.5101   -2.0763   14.8035 C   0  0  0  0  0  0  0  0  0  0  0  0
   -1.8815   -1.1097   14.0182 C   0  0  0  0  0  0  0  0  0  0  0  0
   -0.5196   -0.8466   14.1763 C   0  0  0  0  0  0  0  0  0  0  0  0
    0.2358   -1.5888   15.0999 C   0  0  0  0  0  0  0  0  0  0  0  0
    1.6095   -1.3595   15.3505 N   0  0  0  0  0  0  0  0  0  0  0  0
    2.5288   -0.4326   14.7915 C   0  0  0  0  0  0  0  0  0  0  0  0
    2.1515    0.4038   13.7773 N   0  0  0  0  0  0  0  0  0  0  0  0
    3.0856    1.2408   13.2315 C   0  0  0  0  0  0  0  0  0  0  0  0
    4.3919    1.2835   13.6955 C   0  0  0  0  0  0  0  0  0  0  0  0
    4.7346    0.4998   14.7545 N   0  0  0  0  0  0  0  0  0  0  0  0
    5.8922    0.3978   15.4788 C   0  0  0  0  0  0  0  0  0  0  0  0
    5.6049   -0.5481   16.4962 C   0  0  0  0  0  0  0  0  0  0  0  0
    4.3940   -1.0599   16.3510 N   0  0  0  0  0  0  0  0  0  0  0  0
    3.8344   -0.3880   15.3306 C   0  0  0  0  0  0  0  0  0  0  0  0
    2.6174    2.1451   12.1221 C   0  0  0  0  0  0  0  0  0  0  0  0
    3.5375    2.6360   11.1692 C   0  0  0  0  0  0  0  0  0  0  0  0
    3.1548    3.4584   10.1087 C   0  0  0  0  0  0  0  0  0  0  0  0
    1.8089    3.8176   10.0151 C   0  0  0  0  0  0  0  0  0  0  0  0
    0.9999    4.6108    9.1243 C   0  0  0  0  0  0  0  0  0  0  0  0
   -0.2405    4.6150    9.5301 N   0  0  0  0  0  0  0  0  0  0  0  0
   -0.3274    3.8782   10.6339 N   0  0  0  0  0  0  0  0  0  0  0  0
    0.8831    3.3398   10.9927 C   0  0  0  0  0  0  0  0  0  0  0  0
    1.2567    2.5006   12.0460 C   0  0  0  0  0  0  0  0  0  0  0  0
   -0.3865   -2.5955   15.8355 C   0  0  0  0  0  0  0  0  0  0  0  0
   -1.7498   -2.8337   15.7040 C   0  0  0  0  0  0  0  0  0  0  0  0
   -5.8405   -4.1569   12.5674 H   0  0  0  0  0  0  0  0  0  0  0  0
   -4.4820   -4.8107   13.5440 H   0  0  0  0  0  0  0  0  0  0  0  0
   -3.8021   -2.6512   12.6563 H   0  0  0  0  0  0  0  0  0  0  0  0
   -5.3221   -1.8793   13.2225 H   0  0  0  0  0  0  0  0  0  0  0  0
   -4.0678   -2.6183   16.7524 H   0  0  0  0  0  0  0  0  0  0  0  0
   -5.4990   -1.8599   15.9757 H   0  0  0  0  0  0  0  0  0  0  0  0
   -4.6797   -4.7893   15.9475 H   0  0  0  0  0  0  0  0  0  0  0  0
   -6.1441   -4.0427   16.6718 H   0  0  0  0  0  0  0  0  0  0  0  0
   -2.4521   -0.5614   13.2832 H   0  0  0  0  0  0  0  0  0  0  0  0
   -0.0469   -0.0731   13.5891 H   0  0  0  0  0  0  0  0  0  0  0  0
    1.2098    0.4034   13.4409 H   0  0  0  0  0  0  0  0  0  0  0  0
    5.1225    1.9256   13.2261 H   0  0  0  0  0  0  0  0  0  0  0  0
    6.8211    0.9228   15.3119 H   0  0  0  0  0  0  0  0  0  0  0  0
    6.2881   -0.8162   17.2885 H   0  0  0  0  0  0  0  0  0  0  0  0
    4.5783    2.3641   11.2652 H   0  0  0  0  0  0  0  0  0  0  0  0
    3.7375    4.3880   10.1879 H   0  0  0  0  0  0  0  0  0  0  0  0
    3.4206    2.9372    9.1772 H   0  0  0  0  0  0  0  0  0  0  0  0
    1.3665    5.1263    8.2490 H   0  0  0  0  0  0  0  0  0  0  0  0
    0.5368    2.1420   12.7668 H   0  0  0  0  0  0  0  0  0  0  0  0
    0.1972   -3.1978   16.5158 H   0  0  0  0  0  0  0  0  0  0  0  0
   -2.2230   -3.6029   16.2963 H   0  0  0  0  0  0  0  0  0  0  0  0
  1  2  1  0  0  0  0
  1  6  1  0  0  0  0
  2  3  1  0  0  0  0
  3  4  1  0  0  0  0
  3  7  1  0  0  0  0
  4  5  1  0  0  0  0
  5  6  1  0  0  0  0
  7  8  2  0  0  0  0
  7 31  1  0  0  0  0
  8  9  1  0  0  0  0
  9 10  2  0  0  0  0
 10 11  1  0  0  0  0
 10 30  1  0  0  0  0
 11 12  2  0  0  0  0
 12 13  1  0  0  0  0
 12 20  1  0  0  0  0
 13 14  1  0  0  0  0
 14 15  2  0  0  0  0
 14 21  1  0  0  0  0
 15 16  1  0  0  0  0
 16 17  1  0  0  0  0
 16 20  1  0  0  0  0
 17 18  2  0  0  0  0
 18 19  1  0  0  0  0
 19 20  2  0  0  0  0
 21 22  2  0  0  0  0
 21 29  1  0  0  0  0
 22 23  1  0  0  0  0
 23 24  1  0  0  0  0
 24 25  2  0  0  0  0
 24 28  1  0  0  0  0
 25 26  1  0  0  0  0
 26 27  2  0  0  0  0
 27 28  1  0  0  0  0
 28 29  2  0  0  0  0
 30 31  2  0  0  0  0
  1 32  1  0  0  0  0
  1 33  1  0  0  0  0
  2 34  1  0  0  0  0
  2 35  1  0  0  0  0
  4 36  1  0  0  0  0
  4 37  1  0  0  0  0
  5 38  1  0  0  0  0
  5 39  1  0  0  0  0
  8 40  1  0  0  0  0
  9 41  1  0  0  0  0
 13 42  1  0  0  0  0
 15 43  1  0  0  0  0
 17 44  1  0  0  0  0
 18 45  1  0  0  0  0
 22 46  1  0  0  0  0
 23 47  1  0  0  0  0
 23 48  1  0  0  0  0
 25 49  1  0  0  0  0
 29 50  1  0  0  0  0
 30 51  1  0  0  0  0
 31 52  1  0  0  0  0
M  END
> <IC50[nM]>
7.7

$$$$
CHEMBL3265032
  -OEChem-05192314333D
 Structure written by MMmdl.
 52 57  0     1  0  0  0  0  0999 V2000
   -5.2528   -4.0279   13.4883 C   0  0  0  0  0  0  0  0  0  0  0  0
   -4.5590   -2.6369   13.4544 C   0  0  0  0  0  0  0  0  0  0  0  0
   -3.8919   -2.2470   14.7137 N   0  0  0  0  0  0  0  0  0  0  0  0
   -4.7198   -2.6287   15.8665 C   0  0  0  0  0  0  0  0  0  0  0  0
   -5.4261   -3.9885   15.8402 C   0  0  0  0  0  0  0  0  0  0  0  0
   -6.1177   -4.1508   14.6092 O   0  0  0  0  0  0  0  0  0  0  0  0
   -2.5101   -2.0763   14.8035 C   0  0  0  0  0  0  0  0  0  0  0  0
   -1.8815   -1.1097   14.0182 C   0  0  0  0  0  0  0  0  0  0  0  0
   -0.5196   -0.8466   14.1763 C   0  0  0  0  0  0  0  0  0  0  0  0
    0.2358   -1.5888   15.0999 C   0  0  0  0  0  0  0  0  0  0  0  0
    1.6095   -1.3595   15.3505 N   0  0  0  0  0  0  0  0  0  0  0  0
    2.5288   -0.4326   14.7915 C   0  0  0  0  0  0  0  0  0  0  0  0
    2.1515    0.4038   13.7773 N   0  0  0  0  0  0  0  0  0  0  0  0
    3.0856    1.2408   13.2315 C   0  0  0  0  0  0  0  0  0  0  0  0
    4.3919    1.2835   13.6955 C   0  0  0  0  0  0  0  0  0  0  0  0
    4.7346    0.4998   14.7545 N   0  0  0  0  0  0  0  0  0  0  0  0
    5.8922    0.3978   15.4788 C   0  0  0  0  0  0  0  0  0  0  0  0
    5.6049   -0.5481   16.4962 C   0  0  0  0  0  0  0  0  0  0  0  0
    4.3940   -1.0599   16.3510 N   0  0  0  0  0  0  0  0  0  0  0  0
    3.8344   -0.3880   15.3306 C   0  0  0  0  0  0  0  0  0  0  0  0
    2.6174    2.1451   12.1221 C   0  0  0  0  0  0  0  0  0  0  0  0
    3.5375    2.6360   11.1692 C   0  0  0  0  0  0  0  0  0  0  0  0
    3.1548    3.4584   10.1087 C   0  0  0  0  0  0  0  0  0  0  0  0
    1.8089    3.8176   10.0151 C   0  0  3  0  0  0  0  0  0  0  0  0
    0.9999    4.6108    9.1243 C   0  0  0  0  0  0  0  0  0  0  0  0
   -0.2405    4.6150    9.5301 N   0  0  0  0  0  0  0  0  0  0  0  0
   -0.3274    3.8782   10.6339 N   0  0  0  0  0  0  0  0  0  0  0  0
    0.8831    3.3398   10.9927 C   0  0  0  0  0  0  0  0  0  0  0  0
    1.2567    2.5006   12.0460 C   0  0  0  0  0  0  0  0  0  0  0  0
   -0.3865   -2.5955   15.8355 C   0  0  0  0  0  0  0  0  0  0  0  0
   -1.7498   -2.8337   15.7040 C   0  0  0  0  0  0  0  0  0  0  0  0
   -5.8405   -4.1569   12.5674 H   0  0  0  0  0  0  0  0  0  0  0  0
   -4.4820   -4.8107   13.5440 H   0  0  0  0  0  0  0  0  0  0  0  0
   -3.8021   -2.6512   12.6563 H   0  0  0  0  0  0  0  0  0  0  0  0
   -5.3221   -1.8793   13.2225 H   0  0  0  0  0  0  0  0  0  0  0  0
   -4.0678   -2.6183   16.7524 H   0  0  0  0  0  0  0  0  0  0  0  0
   -5.4990   -1.8599   15.9757 H   0  0  0  0  0  0  0  0  0  0  0  0
   -4.6797   -4.7893   15.9475 H   0  0  0  0  0  0  0  0  0  0  0  0
   -6.1441   -4.0427   16.6718 H   0  0  0  0  0  0  0  0  0  0  0  0
   -2.4521   -0.5614   13.2832 H   0  0  0  0  0  0  0  0  0  0  0  0
   -0.0469   -0.0731   13.5891 H   0  0  0  0  0  0  0  0  0  0  0  0
    5.0432    0.9973   12.8565 H   0  0  0  0  0  0  0  0  0  0  0  0
    4.5999    2.3249   13.9824 H   0  0  0  0  0  0  0  0  0  0  0  0
    6.8211    0.9228   15.3119 H   0  0  0  0  0  0  0  0  0  0  0  0
    6.2881   -0.8162   17.2885 H   0  0  0  0  0  0  0  0  0  0  0  0
    4.5783    2.3641   11.2652 H   0  0  0  0  0  0  0  0  0  0  0  0
    3.8763    3.8057    9.3840 H   0  0  0  0  0  0  0  0  0  0  0  0
    2.0027    4.7072   10.6324 H   0  0  0  0  0  0  0  0  0  0  0  0
    1.3665    5.1263    8.2490 H   0  0  0  0  0  0  0  0  0  0  0  0
    0.5368    2.1420   12.7668 H   0  0  0  0  0  0  0  0  0  0  0  0
    0.1972   -3.1978   16.5158 H   0  0  0  0  0  0  0  0  0  0  0  0
   -2.2230   -3.6029   16.2963 H   0  0  0  0  0  0  0  0  0  0  0  0
  1  2  1  0  0  0  0
  1  6  1  0  0  0  0
  2  3  1  0  0  0  0
  3  4  1  0  0  0  0
  3  7  1  0  0  0  0
  4  5  1  0  0  0  0
  5  6  1  0  0  0  0
  7  8  2  0  0  0  0
  7 31  1  0  0  0  0
  8  9  1  0  0  0  0
  9 10  2  0  0  0  0
 10 11  1  0  0  0  0
 10 30  1  0  0  0  0
 11 12  2  0  0  0  0
 12 13  1  0  0  0  0
 12 20  1  0  0  0  0
 13 14  2  0  0  0  0
 14 15  1  0  0  0  0
 14 21  1  0  0  0  0
 15 16  1  0  0  0  0
 16 17  1  0  0  0  0
 16 20  1  0  0  0  0
 17 18  2  0  0  0  0
 18 19  1  0  0  0  0
 19 20  2  0  0  0  0
 21 22  1  0  0  0  0
 21 29  2  0  0  0  0
 22 23  2  0  0  0  0
 23 24  1  0  0  0  0
 24 25  1  0  0  0  0
 24 28  1  0  0  0  0
 25 26  2  0  0  0  0
 26 27  1  0  0  0  0
 27 28  2  0  0  0  0
 28 29  1  0  0  0  0
 30 31  2  0  0  0  0
  1 32  1  0  0  0  0
  1 33  1  0  0  0  0
  2 34  1  0  0  0  0
  2 35  1  0  0  0  0
  4 36  1  0  0  0  0
  4 37  1  0  0  0  0
  5 38  1  0  0  0  0
  5 39  1  0  0  0  0
  8 40  1  0  0  0  0
  9 41  1  0  0  0  0
 15 42  1  0  0  0  0
 15 43  1  0  0  0  0
 17 44  1  0  0  0  0
 18 45  1  0  0  0  0
 22 46  1  0  0  0  0
 23 47  1  0  0  0  0
 24 48  1  0  0  0  0
 25 49  1  0  0  0  0
 29 50  1  0  0  0  0
 30 51  1  0  0  0  0
 31 52  1  0  0  0  0
M  END
> <IC50[nM]>
7.7

$$$$
CHEMBL3265032
  -OEChem-05192314333D
 Structure written by MMmdl.
 52 57  0     0  0  0  0  0  0999 V2000
   -5.2528   -4.0279   13.4883 C   0  0  0  0  0  0  0  0  0  0  0  0
   -4.5590   -2.6369   13.4544 C   0  0  0  0  0  0  0  0  0  0  0  0
   -3.8919   -2.2470   14.7137 N   0  0  0  0  0  0  0  0  0  0  0  0
   -4.7198   -2.6287   15.8665 C   0  0  0  0  0  0  0  0  0  0  0  0
   -5.4261   -3.9885   15.8402 C   0  0  0  0  0  0  0  0  0  0  0  0
   -6.1177   -4.1508   14.6092 O   0  0  0  0  0  0  0  0  0  0  0  0
   -2.5101   -2.0763   14.8035 C   0  0  0  0  0  0  0  0  0  0  0  0
   -1.8815   -1.1097   14.0182 C   0  0  0  0  0  0  0  0  0  0  0  0
   -0.5196   -0.8466   14.1763 C   0  0  0  0  0  0  0  0  0  0  0  0
    0.2358   -1.5888   15.0999 C   0  0  0  0  0  0  0  0  0  0  0  0
    1.6095   -1.3595   15.3505 N   0  0  0  0  0  0  0  0  0  0  0  0
    2.5288   -0.4326   14.7915 C   0  0  0  0  0  0  0  0  0  0  0  0
    2.1515    0.4038   13.7773 N   0  0  0  0  0  0  0  0  0  0  0  0
    3.0856    1.2408   13.2315 C   0  0  0  0  0  0  0  0  0  0  0  0
    4.3919    1.2835   13.6955 C   0  0  0  0  0  0  0  0  0  0  0  0
    4.7346    0.4998   14.7545 N   0  0  0  0  0  0  0  0  0  0  0  0
    5.8922    0.3978   15.4788 C   0  0  0  0  0  0  0  0  0  0  0  0
    5.6049   -0.5481   16.4962 C   0  0  0  0  0  0  0  0  0  0  0  0
    4.3940   -1.0599   16.3510 N   0  0  0  0  0  0  0  0  0  0  0  0
    3.8344   -0.3880   15.3306 C   0  0  0  0  0  0  0  0  0  0  0  0
    2.6174    2.1451   12.1221 C   0  0  0  0  0  0  0  0  0  0  0  0
    3.5375    2.6360   11.1692 C   0  0  0  0  0  0  0  0  0  0  0  0
    3.1548    3.4584   10.1087 C   0  0  0  0  0  0  0  0  0  0  0  0
    1.8089    3.8176   10.0151 C   0  0  0  0  0  0  0  0  0  0  0  0
    0.9999    4.6108    9.1243 C   0  0  0  0  0  0  0  0  0  0  0  0
   -0.2405    4.6150    9.5301 N   0  0  0  0  0  0  0  0  0  0  0  0
   -0.3274    3.8782   10.6339 N   0  0  0  0  0  0  0  0  0  0  0  0
    0.8831    3.3398   10.9927 C   0  0  0  0  0  0  0  0  0  0  0  0
    1.2567    2.5006   12.0460 C   0  0  0  0  0  0  0  0  0  0  0  0
   -0.3865   -2.5955   15.8355 C   0  0  0  0  0  0  0  0  0  0  0  0
   -1.7498   -2.8337   15.7040 C   0  0  0  0  0  0  0  0  0  0  0  0
   -5.8405   -4.1569   12.5674 H   0  0  0  0  0  0  0  0  0  0  0  0
   -4.4820   -4.8107   13.5440 H   0  0  0  0  0  0  0  0  0  0  0  0
   -3.8021   -2.6512   12.6563 H   0  0  0  0  0  0  0  0  0  0  0  0
   -5.3221   -1.8793   13.2225 H   0  0  0  0  0  0  0  0  0  0  0  0
   -4.0678   -2.6183   16.7524 H   0  0  0  0  0  0  0  0  0  0  0  0
   -5.4990   -1.8599   15.9757 H   0  0  0  0  0  0  0  0  0  0  0  0
   -4.6797   -4.7893   15.9475 H   0  0  0  0  0  0  0  0  0  0  0  0
   -6.1441   -4.0427   16.6718 H   0  0  0  0  0  0  0  0  0  0  0  0
   -2.4521   -0.5614   13.2832 H   0  0  0  0  0  0  0  0  0  0  0  0
   -0.0469   -0.0731   13.5891 H   0  0  0  0  0  0  0  0  0  0  0  0
    5.0432    0.9973   12.8565 H   0  0  0  0  0  0  0  0  0  0  0  0
    4.5999    2.3249   13.9824 H   0  0  0  0  0  0  0  0  0  0  0  0
    6.8211    0.9228   15.3119 H   0  0  0  0  0  0  0  0  0  0  0  0
    6.2881   -0.8162   17.2885 H   0  0  0  0  0  0  0  0  0  0  0  0
    4.2918    3.2010   11.7365 H   0  0  0  0  0  0  0  0  0  0  0  0
    4.0073    1.7512   10.7148 H   0  0  0  0  0  0  0  0  0  0  0  0
    3.8763    3.8057    9.3840 H   0  0  0  0  0  0  0  0  0  0  0  0
    1.3665    5.1263    8.2490 H   0  0  0  0  0  0  0  0  0  0  0  0
    0.5368    2.1420   12.7668 H   0  0  0  0  0  0  0  0  0  0  0  0
    0.1972   -3.1978   16.5158 H   0  0  0  0  0  0  0  0  0  0  0  0
   -2.2230   -3.6029   16.2963 H   0  0  0  0  0  0  0  0  0  0  0  0
  1  2  1  0  0  0  0
  1  6  1  0  0  0  0
  2  3  1  0  0  0  0
  3  4  1  0  0  0  0
  3  7  1  0  0  0  0
  4  5  1  0  0  0  0
  5  6  1  0  0  0  0
  7  8  2  0  0  0  0
  7 31  1  0  0  0  0
  8  9  1  0  0  0  0
  9 10  2  0  0  0  0
 10 11  1  0  0  0  0
 10 30  1  0  0  0  0
 11 12  2  0  0  0  0
 12 13  1  0  0  0  0
 12 20  1  0  0  0  0
 13 14  2  0  0  0  0
 14 15  1  0  0  0  0
 14 21  1  0  0  0  0
 15 16  1  0  0  0  0
 16 17  1  0  0  0  0
 16 20  1  0  0  0  0
 17 18  2  0  0  0  0
 18 19  1  0  0  0  0
 19 20  2  0  0  0  0
 21 22  1  0  0  0  0
 21 29  2  0  0  0  0
 22 23  1  0  0  0  0
 23 24  2  0  0  0  0
 24 25  1  0  0  0  0
 24 28  1  0  0  0  0
 25 26  2  0  0  0  0
 26 27  1  0  0  0  0
 27 28  2  0  0  0  0
 28 29  1  0  0  0  0
 30 31  2  0  0  0  0
  1 32  1  0  0  0  0
  1 33  1  0  0  0  0
  2 34  1  0  0  0  0
  2 35  1  0  0  0  0
  4 36  1  0  0  0  0
  4 37  1  0  0  0  0
  5 38  1  0  0  0  0
  5 39  1  0  0  0  0
  8 40  1  0  0  0  0
  9 41  1  0  0  0  0
 15 42  1  0  0  0  0
 15 43  1  0  0  0  0
 17 44  1  0  0  0  0
 18 45  1  0  0  0  0
 22 46  1  0  0  0  0
 22 47  1  0  0  0  0
 23 48  1  0  0  0  0
 25 49  1  0  0  0  0
 29 50  1  0  0  0  0
 30 51  1  0  0  0  0
 31 52  1  0  0  0  0
M  END
> <IC50[nM]>
7.7

$$$$
CHEMBL3265032
  -OEChem-05192314333D
 Structure written by MMmdl.
 52 57  0     0  0  0  0  0  0999 V2000
   -5.2528   -4.0279   13.4883 C   0  0  0  0  0  0  0  0  0  0  0  0
   -4.5590   -2.6369   13.4544 C   0  0  0  0  0  0  0  0  0  0  0  0
   -3.8919   -2.2470   14.7137 N   0  0  0  0  0  0  0  0  0  0  0  0
   -4.7198   -2.6287   15.8665 C   0  0  0  0  0  0  0  0  0  0  0  0
   -5.4261   -3.9885   15.8402 C   0  0  0  0  0  0  0  0  0  0  0  0
   -6.1177   -4.1508   14.6092 O   0  0  0  0  0  0  0  0  0  0  0  0
   -2.5101   -2.0763   14.8035 C   0  0  0  0  0  0  0  0  0  0  0  0
   -1.8815   -1.1097   14.0182 C   0  0  0  0  0  0  0  0  0  0  0  0
   -0.5196   -0.8466   14.1763 C   0  0  0  0  0  0  0  0  0  0  0  0
    0.2358   -1.5888   15.0999 C   0  0  0  0  0  0  0  0  0  0  0  0
    1.6095   -1.3595   15.3505 N   0  0  0  0  0  0  0  0  0  0  0  0
    2.5288   -0.4326   14.7915 C   0  0  0  0  0  0  0  0  0  0  0  0
    2.1515    0.4038   13.7773 N   0  0  0  0  0  0  0  0  0  0  0  0
    3.0856    1.2408   13.2315 C   0  0  0  0  0  0  0  0  0  0  0  0
    4.3919    1.2835   13.6955 C   0  0  0  0  0  0  0  0  0  0  0  0
    4.7346    0.4998   14.7545 N   0  0  0  0  0  0  0  0  0  0  0  0
    5.8922    0.3978   15.4788 C   0  0  0  0  0  0  0  0  0  0  0  0
    5.6049   -0.5481   16.4962 C   0  0  0  0  0  0  0  0  0  0  0  0
    4.3940   -1.0599   16.3510 N   0  0  0  0  0  0  0  0  0  0  0  0
    3.8344   -0.3880   15.3306 C   0  0  0  0  0  0  0  0  0  0  0  0
    2.6174    2.1451   12.1221 C   0  0  0  0  0  0  0  0  0  0  0  0
    3.5375    2.6360   11.1692 C   0  0  0  0  0  0  0  0  0  0  0  0
    3.1548    3.4584   10.1087 C   0  0  0  0  0  0  0  0  0  0  0  0
    1.8089    3.8176   10.0151 C   0  0  0  0  0  0  0  0  0  0  0  0
    0.9999    4.6108    9.1243 C   0  0  0  0  0  0  0  0  0  0  0  0
   -0.2405    4.6150    9.5301 N   0  0  0  0  0  0  0  0  0  0  0  0
   -0.3274    3.8782   10.6339 N   0  0  0  0  0  0  0  0  0  0  0  0
    0.8831    3.3398   10.9927 C   0  0  0  0  0  0  0  0  0  0  0  0
    1.2567    2.5006   12.0460 C   0  0  0  0  0  0  0  0  0  0  0  0
   -0.3865   -2.5955   15.8355 C   0  0  0  0  0  0  0  0  0  0  0  0
   -1.7498   -2.8337   15.7040 C   0  0  0  0  0  0  0  0  0  0  0  0
   -5.8405   -4.1569   12.5674 H   0  0  0  0  0  0  0  0  0  0  0  0
   -4.4820   -4.8107   13.5440 H   0  0  0  0  0  0  0  0  0  0  0  0
   -3.8021   -2.6512   12.6563 H   0  0  0  0  0  0  0  0  0  0  0  0
   -5.3221   -1.8793   13.2225 H   0  0  0  0  0  0  0  0  0  0  0  0
   -4.0678   -2.6183   16.7524 H   0  0  0  0  0  0  0  0  0  0  0  0
   -5.4990   -1.8599   15.9757 H   0  0  0  0  0  0  0  0  0  0  0  0
   -4.6797   -4.7893   15.9475 H   0  0  0  0  0  0  0  0  0  0  0  0
   -6.1441   -4.0427   16.6718 H   0  0  0  0  0  0  0  0  0  0  0  0
   -2.4521   -0.5614   13.2832 H   0  0  0  0  0  0  0  0  0  0  0  0
   -0.0469   -0.0731   13.5891 H   0  0  0  0  0  0  0  0  0  0  0  0
    5.0432    0.9973   12.8565 H   0  0  0  0  0  0  0  0  0  0  0  0
    4.5999    2.3249   13.9824 H   0  0  0  0  0  0  0  0  0  0  0  0
    6.8211    0.9228   15.3119 H   0  0  0  0  0  0  0  0  0  0  0  0
    6.2881   -0.8162   17.2885 H   0  0  0  0  0  0  0  0  0  0  0  0
    4.5783    2.3641   11.2652 H   0  0  0  0  0  0  0  0  0  0  0  0
    3.8763    3.8057    9.3840 H   0  0  0  0  0  0  0  0  0  0  0  0
    1.3665    5.1263    8.2490 H   0  0  0  0  0  0  0  0  0  0  0  0
    0.6746    1.5718   11.9541 H   0  0  0  0  0  0  0  0  0  0  0  0
    0.9921    3.0077   12.9856 H   0  0  0  0  0  0  0  0  0  0  0  0
    0.1972   -3.1978   16.5158 H   0  0  0  0  0  0  0  0  0  0  0  0
   -2.2230   -3.6029   16.2963 H   0  0  0  0  0  0  0  0  0  0  0  0
  1  2  1  0  0  0  0
  1  6  1  0  0  0  0
  2  3  1  0  0  0  0
  3  4  1  0  0  0  0
  3  7  1  0  0  0  0
  4  5  1  0  0  0  0
  5  6  1  0  0  0  0
  7  8  2  0  0  0  0
  7 31  1  0  0  0  0
  8  9  1  0  0  0  0
  9 10  2  0  0  0  0
 10 11  1  0  0  0  0
 10 30  1  0  0  0  0
 11 12  2  0  0  0  0
 12 13  1  0  0  0  0
 12 20  1  0  0  0  0
 13 14  2  0  0  0  0
 14 15  1  0  0  0  0
 14 21  1  0  0  0  0
 15 16  1  0  0  0  0
 16 17  1  0  0  0  0
 16 20  1  0  0  0  0
 17 18  2  0  0  0  0
 18 19  1  0  0  0  0
 19 20  2  0  0  0  0
 21 22  2  0  0  0  0
 21 29  1  0  0  0  0
 22 23  1  0  0  0  0
 23 24  2  0  0  0  0
 24 25  1  0  0  0  0
 24 28  1  0  0  0  0
 25 26  2  0  0  0  0
 26 27  1  0  0  0  0
 27 28  2  0  0  0  0
 28 29  1  0  0  0  0
 30 31  2  0  0  0  0
  1 32  1  0  0  0  0
  1 33  1  0  0  0  0
  2 34  1  0  0  0  0
  2 35  1  0  0  0  0
  4 36  1  0  0  0  0
  4 37  1  0  0  0  0
  5 38  1  0  0  0  0
  5 39  1  0  0  0  0
  8 40  1  0  0  0  0
  9 41  1  0  0  0  0
 15 42  1  0  0  0  0
 15 43  1  0  0  0  0
 17 44  1  0  0  0  0
 18 45  1  0  0  0  0
 22 46  1  0  0  0  0
 23 47  1  0  0  0  0
 25 48  1  0  0  0  0
 29 49  1  0  0  0  0
 29 50  1  0  0  0  0
 30 51  1  0  0  0  0
 31 52  1  0  0  0  0
M  END
> <IC50[nM]>
7.7

$$$$
CHEMBL3265032
  -OEChem-05192314333D
 Structure written by MMmdl.
 52 57  0     1  0  0  0  0  0999 V2000
   -5.2528   -4.0279   13.4883 C   0  0  0  0  0  0  0  0  0  0  0  0
   -4.5590   -2.6369   13.4544 C   0  0  0  0  0  0  0  0  0  0  0  0
   -3.8919   -2.2470   14.7137 N   0  0  0  0  0  0  0  0  0  0  0  0
   -4.7198   -2.6287   15.8665 C   0  0  0  0  0  0  0  0  0  0  0  0
   -5.4261   -3.9885   15.8402 C   0  0  0  0  0  0  0  0  0  0  0  0
   -6.1177   -4.1508   14.6092 O   0  0  0  0  0  0  0  0  0  0  0  0
   -2.5101   -2.0763   14.8035 C   0  0  0  0  0  0  0  0  0  0  0  0
   -1.8815   -1.1097   14.0182 C   0  0  0  0  0  0  0  0  0  0  0  0
   -0.5196   -0.8466   14.1763 C   0  0  0  0  0  0  0  0  0  0  0  0
    0.2358   -1.5888   15.0999 C   0  0  0  0  0  0  0  0  0  0  0  0
    1.6095   -1.3595   15.3505 N   0  0  0  0  0  0  0  0  0  0  0  0
    2.5288   -0.4326   14.7915 C   0  0  0  0  0  0  0  0  0  0  0  0
    2.1515    0.4038   13.7773 N   0  0  0  0  0  0  0  0  0  0  0  0
    3.0856    1.2408   13.2315 C   0  0  0  0  0  0  0  0  0  0  0  0
    4.3919    1.2835   13.6955 C   0  0  0  0  0  0  0  0  0  0  0  0
    4.7346    0.4998   14.7545 N   0  0  0  0  0  0  0  0  0  0  0  0
    5.8922    0.3978   15.4788 C   0  0  0  0  0  0  0  0  0  0  0  0
    5.6049   -0.5481   16.4962 C   0  0  0  0  0  0  0  0  0  0  0  0
    4.3940   -1.0599   16.3510 N   0  0  0  0  0  0  0  0  0  0  0  0
    3.8344   -0.3880   15.3306 C   0  0  0  0  0  0  0  0  0  0  0  0
    2.6174    2.1451   12.1221 C   0  0  3  0  0  0  0  0  0  0  0  0
    3.5375    2.6360   11.1692 C   0  0  0  0  0  0  0  0  0  0  0  0
    3.1548    3.4584   10.1087 C   0  0  0  0  0  0  0  0  0  0  0  0
    1.8089    3.8176   10.0151 C   0  0  0  0  0  0  0  0  0  0  0  0
    0.9999    4.6108    9.1243 C   0  0  0  0  0  0  0  0  0  0  0  0
   -0.2405    4.6150    9.5301 N   0  0  0  0  0  0  0  0  0  0  0  0
   -0.3274    3.8782   10.6339 N   0  0  0  0  0  0  0  0  0  0  0  0
    0.8831    3.3398   10.9927 C   0  0  0  0  0  0  0  0  0  0  0  0
    1.2567    2.5006   12.0460 C   0  0  0  0  0  0  0  0  0  0  0  0
   -0.3865   -2.5955   15.8355 C   0  0  0  0  0  0  0  0  0  0  0  0
   -1.7498   -2.8337   15.7040 C   0  0  0  0  0  0  0  0  0  0  0  0
   -5.8405   -4.1569   12.5674 H   0  0  0  0  0  0  0  0  0  0  0  0
   -4.4820   -4.8107   13.5440 H   0  0  0  0  0  0  0  0  0  0  0  0
   -3.8021   -2.6512   12.6563 H   0  0  0  0  0  0  0  0  0  0  0  0
   -5.3221   -1.8793   13.2225 H   0  0  0  0  0  0  0  0  0  0  0  0
   -4.0678   -2.6183   16.7524 H   0  0  0  0  0  0  0  0  0  0  0  0
   -5.4990   -1.8599   15.9757 H   0  0  0  0  0  0  0  0  0  0  0  0
   -4.6797   -4.7893   15.9475 H   0  0  0  0  0  0  0  0  0  0  0  0
   -6.1441   -4.0427   16.6718 H   0  0  0  0  0  0  0  0  0  0  0  0
   -2.4521   -0.5614   13.2832 H   0  0  0  0  0  0  0  0  0  0  0  0
   -0.0469   -0.0731   13.5891 H   0  0  0  0  0  0  0  0  0  0  0  0
    5.0432    0.9973   12.8565 H   0  0  0  0  0  0  0  0  0  0  0  0
    4.5999    2.3249   13.9824 H   0  0  0  0  0  0  0  0  0  0  0  0
    6.8211    0.9228   15.3119 H   0  0  0  0  0  0  0  0  0  0  0  0
    6.2881   -0.8162   17.2885 H   0  0  0  0  0  0  0  0  0  0  0  0
    2.4252    1.2680   11.4866 H   0  0  0  0  0  0  0  0  0  0  0  0
    4.5783    2.3641   11.2652 H   0  0  0  0  0  0  0  0  0  0  0  0
    3.8763    3.8057    9.3840 H   0  0  0  0  0  0  0  0  0  0  0  0
    1.3665    5.1263    8.2490 H   0  0  0  0  0  0  0  0  0  0  0  0
    0.5368    2.1420   12.7668 H   0  0  0  0  0  0  0  0  0  0  0  0
    0.1972   -3.1978   16.5158 H   0  0  0  0  0  0  0  0  0  0  0  0
   -2.2230   -3.6029   16.2963 H   0  0  0  0  0  0  0  0  0  0  0  0
  1  2  1  0  0  0  0
  1  6  1  0  0  0  0
  2  3  1  0  0  0  0
  3  4  1  0  0  0  0
  3  7  1  0  0  0  0
  4  5  1  0  0  0  0
  5  6  1  0  0  0  0
  7  8  2  0  0  0  0
  7 31  1  0  0  0  0
  8  9  1  0  0  0  0
  9 10  2  0  0  0  0
 10 11  1  0  0  0  0
 10 30  1  0  0  0  0
 11 12  2  0  0  0  0
 12 13  1  0  0  0  0
 12 20  1  0  0  0  0
 13 14  2  0  0  0  0
 14 15  1  0  0  0  0
 14 21  1  0  0  0  0
 15 16  1  0  0  0  0
 16 17  1  0  0  0  0
 16 20  1  0  0  0  0
 17 18  2  0  0  0  0
 18 19  1  0  0  0  0
 19 20  2  0  0  0  0
 21 22  1  0  0  0  0
 21 29  1  0  0  0  0
 22 23  2  0  0  0  0
 23 24  1  0  0  0  0
 24 25  2  0  0  0  0
 24 28  1  0  0  0  0
 25 26  1  0  0  0  0
 26 27  2  0  0  0  0
 27 28  1  0  0  0  0
 28 29  2  0  0  0  0
 30 31  2  0  0  0  0
  1 32  1  0  0  0  0
  1 33  1  0  0  0  0
  2 34  1  0  0  0  0
  2 35  1  0  0  0  0
  4 36  1  0  0  0  0
  4 37  1  0  0  0  0
  5 38  1  0  0  0  0
  5 39  1  0  0  0  0
  8 40  1  0  0  0  0
  9 41  1  0  0  0  0
 15 42  1  0  0  0  0
 15 43  1  0  0  0  0
 17 44  1  0  0  0  0
 18 45  1  0  0  0  0
 21 46  1  0  0  0  0
 22 47  1  0  0  0  0
 23 48  1  0  0  0  0
 25 49  1  0  0  0  0
 29 50  1  0  0  0  0
 30 51  1  0  0  0  0
 31 52  1  0  0  0  0
M  END
> <IC50[nM]>
7.7

$$$$
CHEMBL3265032
  -OEChem-05192314333D
 Structure written by MMmdl.
 52 57  0     1  0  0  0  0  0999 V2000
   -5.2528   -4.0279   13.4883 C   0  0  0  0  0  0  0  0  0  0  0  0
   -4.5590   -2.6369   13.4544 C   0  0  0  0  0  0  0  0  0  0  0  0
   -3.8919   -2.2470   14.7137 N   0  0  0  0  0  0  0  0  0  0  0  0
   -4.7198   -2.6287   15.8665 C   0  0  0  0  0  0  0  0  0  0  0  0
   -5.4261   -3.9885   15.8402 C   0  0  0  0  0  0  0  0  0  0  0  0
   -6.1177   -4.1508   14.6092 O   0  0  0  0  0  0  0  0  0  0  0  0
   -2.5101   -2.0763   14.8035 C   0  0  0  0  0  0  0  0  0  0  0  0
   -1.8815   -1.1097   14.0182 C   0  0  0  0  0  0  0  0  0  0  0  0
   -0.5196   -0.8466   14.1763 C   0  0  0  0  0  0  0  0  0  0  0  0
    0.2358   -1.5888   15.0999 C   0  0  0  0  0  0  0  0  0  0  0  0
    1.6095   -1.3595   15.3505 N   0  0  0  0  0  0  0  0  0  0  0  0
    2.5288   -0.4326   14.7915 C   0  0  0  0  0  0  0  0  0  0  0  0
    2.1515    0.4038   13.7773 N   0  0  0  0  0  0  0  0  0  0  0  0
    3.0856    1.2408   13.2315 C   0  0  0  0  0  0  0  0  0  0  0  0
    4.3919    1.2835   13.6955 C   0  0  0  0  0  0  0  0  0  0  0  0
    4.7346    0.4998   14.7545 N   0  0  0  0  0  0  0  0  0  0  0  0
    5.8922    0.3978   15.4788 C   0  0  0  0  0  0  0  0  0  0  0  0
    5.6049   -0.5481   16.4962 C   0  0  0  0  0  0  0  0  0  0  0  0
    4.3940   -1.0599   16.3510 N   0  0  0  0  0  0  0  0  0  0  0  0
    3.8344   -0.3880   15.3306 C   0  0  0  0  0  0  0  0  0  0  0  0
    2.6174    2.1451   12.1221 C   0  0  0  0  0  0  0  0  0  0  0  0
    3.5375    2.6360   11.1692 C   0  0  0  0  0  0  0  0  0  0  0  0
    3.1548    3.4584   10.1087 C   0  0  0  0  0  0  0  0  0  0  0  0
    1.8089    3.8176   10.0151 C   0  0  0  0  0  0  0  0  0  0  0  0
    0.9999    4.6108    9.1243 C   0  0  0  0  0  0  0  0  0  0  0  0
   -0.2405    4.6150    9.5301 N   0  0  0  0  0  0  0  0  0  0  0  0
   -0.3274    3.8782   10.6339 N   0  0  0  0  0  0  0  0  0  0  0  0
    0.8831    3.3398   10.9927 C   0  0  3  0  0  0  0  0  0  0  0  0
    1.2567    2.5006   12.0460 C   0  0  0  0  0  0  0  0  0  0  0  0
   -0.3865   -2.5955   15.8355 C   0  0  0  0  0  0  0  0  0  0  0  0
   -1.7498   -2.8337   15.7040 C   0  0  0  0  0  0  0  0  0  0  0  0
   -5.8405   -4.1569   12.5674 H   0  0  0  0  0  0  0  0  0  0  0  0
   -4.4820   -4.8107   13.5440 H   0  0  0  0  0  0  0  0  0  0  0  0
   -3.8021   -2.6512   12.6563 H   0  0  0  0  0  0  0  0  0  0  0  0
   -5.3221   -1.8793   13.2225 H   0  0  0  0  0  0  0  0  0  0  0  0
   -4.0678   -2.6183   16.7524 H   0  0  0  0  0  0  0  0  0  0  0  0
   -5.4990   -1.8599   15.9757 H   0  0  0  0  0  0  0  0  0  0  0  0
   -4.6797   -4.7893   15.9475 H   0  0  0  0  0  0  0  0  0  0  0  0
   -6.1441   -4.0427   16.6718 H   0  0  0  0  0  0  0  0  0  0  0  0
   -2.4521   -0.5614   13.2832 H   0  0  0  0  0  0  0  0  0  0  0  0
   -0.0469   -0.0731   13.5891 H   0  0  0  0  0  0  0  0  0  0  0  0
    5.0432    0.9973   12.8565 H   0  0  0  0  0  0  0  0  0  0  0  0
    4.5999    2.3249   13.9824 H   0  0  0  0  0  0  0  0  0  0  0  0
    6.8211    0.9228   15.3119 H   0  0  0  0  0  0  0  0  0  0  0  0
    6.2881   -0.8162   17.2885 H   0  0  0  0  0  0  0  0  0  0  0  0
    4.5783    2.3641   11.2652 H   0  0  0  0  0  0  0  0  0  0  0  0
    3.8763    3.8057    9.3840 H   0  0  0  0  0  0  0  0  0  0  0  0
    1.3665    5.1263    8.2490 H   0  0  0  0  0  0  0  0  0  0  0  0
    1.0896    4.2198   11.6195 H   0  0  0  0  0  0  0  0  0  0  0  0
    0.5368    2.1420   12.7668 H   0  0  0  0  0  0  0  0  0  0  0  0
    0.1972   -3.1978   16.5158 H   0  0  0  0  0  0  0  0  0  0  0  0
   -2.2230   -3.6029   16.2963 H   0  0  0  0  0  0  0  0  0  0  0  0
  1  2  1  0  0  0  0
  1  6  1  0  0  0  0
  2  3  1  0  0  0  0
  3  4  1  0  0  0  0
  3  7  1  0  0  0  0
  4  5  1  0  0  0  0
  5  6  1  0  0  0  0
  7  8  2  0  0  0  0
  7 31  1  0  0  0  0
  8  9  1  0  0  0  0
  9 10  2  0  0  0  0
 10 11  1  0  0  0  0
 10 30  1  0  0  0  0
 11 12  2  0  0  0  0
 12 13  1  0  0  0  0
 12 20  1  0  0  0  0
 13 14  2  0  0  0  0
 14 15  1  0  0  0  0
 14 21  1  0  0  0  0
 15 16  1  0  0  0  0
 16 17  1  0  0  0  0
 16 20  1  0  0  0  0
 17 18  2  0  0  0  0
 18 19  1  0  0  0  0
 19 20  2  0  0  0  0
 21 22  1  0  0  0  0
 21 29  2  0  0  0  0
 22 23  2  0  0  0  0
 23 24  1  0  0  0  0
 24 25  2  0  0  0  0
 24 28  1  0  0  0  0
 25 26  1  0  0  0  0
 26 27  2  0  0  0  0
 27 28  1  0  0  0  0
 28 29  1  0  0  0  0
 30 31  2  0  0  0  0
  1 32  1  0  0  0  0
  1 33  1  0  0  0  0
  2 34  1  0  0  0  0
  2 35  1  0  0  0  0
  4 36  1  0  0  0  0
  4 37  1  0  0  0  0
  5 38  1  0  0  0  0
  5 39  1  0  0  0  0
  8 40  1  0  0  0  0
  9 41  1  0  0  0  0
 15 42  1  0  0  0  0
 15 43  1  0  0  0  0
 17 44  1  0  0  0  0
 18 45  1  0  0  0  0
 22 46  1  0  0  0  0
 23 47  1  0  0  0  0
 25 48  1  0  0  0  0
 28 49  1  0  0  0  0
 29 50  1  0  0  0  0
 30 51  1  0  0  0  0
 31 52  1  0  0  0  0
M  END
> <IC50[nM]>
7.7

$$$$
CHEMBL3265032
  -OEChem-05192314333D
 Structure written by MMmdl.
 52 57  0     0  0  0  0  0  0999 V2000
   -5.2528   -4.0279   13.4883 C   0  0  0  0  0  0  0  0  0  0  0  0
   -4.5590   -2.6369   13.4544 C   0  0  0  0  0  0  0  0  0  0  0  0
   -3.8919   -2.2470   14.7137 N   0  0  0  0  0  0  0  0  0  0  0  0
   -4.7198   -2.6287   15.8665 C   0  0  0  0  0  0  0  0  0  0  0  0
   -5.4261   -3.9885   15.8402 C   0  0  0  0  0  0  0  0  0  0  0  0
   -6.1177   -4.1508   14.6092 O   0  0  0  0  0  0  0  0  0  0  0  0
   -2.5101   -2.0763   14.8035 C   0  0  0  0  0  0  0  0  0  0  0  0
   -1.8815   -1.1097   14.0182 C   0  0  0  0  0  0  0  0  0  0  0  0
   -0.5196   -0.8466   14.1763 C   0  0  0  0  0  0  0  0  0  0  0  0
    0.2358   -1.5888   15.0999 C   0  0  0  0  0  0  0  0  0  0  0  0
    1.6095   -1.3595   15.3505 N   0  0  0  0  0  0  0  0  0  0  0  0
    2.5288   -0.4326   14.7915 C   0  0  0  0  0  0  0  0  0  0  0  0
    2.1515    0.4038   13.7773 N   0  0  0  0  0  0  0  0  0  0  0  0
    3.0856    1.2408   13.2315 C   0  0  0  0  0  0  0  0  0  0  0  0
    4.3919    1.2835   13.6955 C   0  0  0  0  0  0  0  0  0  0  0  0
    4.7346    0.4998   14.7545 N   0  0  0  0  0  0  0  0  0  0  0  0
    5.8922    0.3978   15.4788 C   0  0  0  0  0  0  0  0  0  0  0  0
    5.6049   -0.5481   16.4962 C   0  0  0  0  0  0  0  0  0  0  0  0
    4.3940   -1.0599   16.3510 N   0  0  0  0  0  0  0  0  0  0  0  0
    3.8344   -0.3880   15.3306 C   0  0  0  0  0  0  0  0  0  0  0  0
    2.6174    2.1451   12.1221 C   0  0  0  0  0  0  0  0  0  0  0  0
    3.5375    2.6360   11.1692 C   0  0  0  0  0  0  0  0  0  0  0  0
    3.1548    3.4584   10.1087 C   0  0  0  0  0  0  0  0  0  0  0  0
    1.8089    3.8176   10.0151 C   0  0  0  0  0  0  0  0  0  0  0  0
    0.9999    4.6108    9.1243 C   0  0  0  0  0  0  0  0  0  0  0  0
   -0.2405    4.6150    9.5301 N   0  0  0  0  0  0  0  0  0  0  0  0
   -0.3274    3.8782   10.6339 N   0  0  0  0  0  0  0  0  0  0  0  0
    0.8831    3.3398   10.9927 C   0  0  0  0  0  0  0  0  0  0  0  0
    1.2567    2.5006   12.0460 C   0  0  0  0  0  0  0  0  0  0  0  0
   -0.3865   -2.5955   15.8355 C   0  0  0  0  0  0  0  0  0  0  0  0
   -1.7498   -2.8337   15.7040 C   0  0  0  0  0  0  0  0  0  0  0  0
   -5.8405   -4.1569   12.5674 H   0  0  0  0  0  0  0  0  0  0  0  0
   -4.4820   -4.8107   13.5440 H   0  0  0  0  0  0  0  0  0  0  0  0
   -3.8021   -2.6512   12.6563 H   0  0  0  0  0  0  0  0  0  0  0  0
   -5.3221   -1.8793   13.2225 H   0  0  0  0  0  0  0  0  0  0  0  0
   -4.0678   -2.6183   16.7524 H   0  0  0  0  0  0  0  0  0  0  0  0
   -5.4990   -1.8599   15.9757 H   0  0  0  0  0  0  0  0  0  0  0  0
   -4.6797   -4.7893   15.9475 H   0  0  0  0  0  0  0  0  0  0  0  0
   -6.1441   -4.0427   16.6718 H   0  0  0  0  0  0  0  0  0  0  0  0
   -2.4521   -0.5614   13.2832 H   0  0  0  0  0  0  0  0  0  0  0  0
   -0.0469   -0.0731   13.5891 H   0  0  0  0  0  0  0  0  0  0  0  0
    5.0432    0.9973   12.8565 H   0  0  0  0  0  0  0  0  0  0  0  0
    4.5999    2.3249   13.9824 H   0  0  0  0  0  0  0  0  0  0  0  0
    6.8211    0.9228   15.3119 H   0  0  0  0  0  0  0  0  0  0  0  0
    6.2881   -0.8162   17.2885 H   0  0  0  0  0  0  0  0  0  0  0  0
    4.5783    2.3641   11.2652 H   0  0  0  0  0  0  0  0  0  0  0  0
    3.7375    4.3880   10.1879 H   0  0  0  0  0  0  0  0  0  0  0  0
    3.4206    2.9372    9.1772 H   0  0  0  0  0  0  0  0  0  0  0  0
    1.3665    5.1263    8.2490 H   0  0  0  0  0  0  0  0  0  0  0  0
    0.5368    2.1420   12.7668 H   0  0  0  0  0  0  0  0  0  0  0  0
    0.1972   -3.1978   16.5158 H   0  0  0  0  0  0  0  0  0  0  0  0
   -2.2230   -3.6029   16.2963 H   0  0  0  0  0  0  0  0  0  0  0  0
  1  2  1  0  0  0  0
  1  6  1  0  0  0  0
  2  3  1  0  0  0  0
  3  4  1  0  0  0  0
  3  7  1  0  0  0  0
  4  5  1  0  0  0  0
  5  6  1  0  0  0  0
  7  8  2  0  0  0  0
  7 31  1  0  0  0  0
  8  9  1  0  0  0  0
  9 10  2  0  0  0  0
 10 11  1  0  0  0  0
 10 30  1  0  0  0  0
 11 12  2  0  0  0  0
 12 13  1  0  0  0  0
 12 20  1  0  0  0  0
 13 14  2  0  0  0  0
 14 15  1  0  0  0  0
 14 21  1  0  0  0  0
 15 16  1  0  0  0  0
 16 17  1  0  0  0  0
 16 20  1  0  0  0  0
 17 18  2  0  0  0  0
 18 19  1  0  0  0  0
 19 20  2  0  0  0  0
 21 22  2  0  0  0  0
 21 29  1  0  0  0  0
 22 23  1  0  0  0  0
 23 24  1  0  0  0  0
 24 25  2  0  0  0  0
 24 28  1  0  0  0  0
 25 26  1  0  0  0  0
 26 27  2  0  0  0  0
 27 28  1  0  0  0  0
 28 29  2  0  0  0  0
 30 31  2  0  0  0  0
  1 32  1  0  0  0  0
  1 33  1  0  0  0  0
  2 34  1  0  0  0  0
  2 35  1  0  0  0  0
  4 36  1  0  0  0  0
  4 37  1  0  0  0  0
  5 38  1  0  0  0  0
  5 39  1  0  0  0  0
  8 40  1  0  0  0  0
  9 41  1  0  0  0  0
 15 42  1  0  0  0  0
 15 43  1  0  0  0  0
 17 44  1  0  0  0  0
 18 45  1  0  0  0  0
 22 46  1  0  0  0  0
 23 47  1  0  0  0  0
 23 48  1  0  0  0  0
 25 49  1  0  0  0  0
 29 50  1  0  0  0  0
 30 51  1  0  0  0  0
 31 52  1  0  0  0  0
M  END
> <IC50[nM]>
7.7

$$$$
CHEMBL3265032
  -OEChem-05192314333D
 Structure written by MMmdl.
 52 57  0     0  0  0  0  0  0999 V2000
   -5.2528   -4.0279   13.4883 C   0  0  0  0  0  0  0  0  0  0  0  0
   -4.5590   -2.6369   13.4544 C   0  0  0  0  0  0  0  0  0  0  0  0
   -3.8919   -2.2470   14.7137 N   0  0  0  0  0  0  0  0  0  0  0  0
   -4.7198   -2.6287   15.8665 C   0  0  0  0  0  0  0  0  0  0  0  0
   -5.4261   -3.9885   15.8402 C   0  0  0  0  0  0  0  0  0  0  0  0
   -6.1177   -4.1508   14.6092 O   0  0  0  0  0  0  0  0  0  0  0  0
   -2.5101   -2.0763   14.8035 C   0  0  0  0  0  0  0  0  0  0  0  0
   -1.8815   -1.1097   14.0182 C   0  0  0  0  0  0  0  0  0  0  0  0
   -0.5196   -0.8466   14.1763 C   0  0  0  0  0  0  0  0  0  0  0  0
    0.2358   -1.5888   15.0999 C   0  0  0  0  0  0  0  0  0  0  0  0
    1.6095   -1.3595   15.3505 N   0  0  0  0  0  0  0  0  0  0  0  0
    2.5288   -0.4326   14.7915 C   0  0  0  0  0  0  0  0  0  0  0  0
    2.1515    0.4038   13.7773 N   0  0  0  0  0  0  0  0  0  0  0  0
    3.0856    1.2408   13.2315 C   0  0  0  0  0  0  0  0  0  0  0  0
    4.3919    1.2835   13.6955 C   0  0  0  0  0  0  0  0  0  0  0  0
    4.7346    0.4998   14.7545 N   0  0  0  0  0  0  0  0  0  0  0  0
    5.8922    0.3978   15.4788 C   0  0  0  0  0  0  0  0  0  0  0  0
    5.6049   -0.5481   16.4962 C   0  0  0  0  0  0  0  0  0  0  0  0
    4.3940   -1.0599   16.3510 N   0  0  0  0  0  0  0  0  0  0  0  0
    3.8344   -0.3880   15.3306 C   0  0  0  0  0  0  0  0  0  0  0  0
    2.6174    2.1451   12.1221 C   0  0  0  0  0  0  0  0  0  0  0  0
    3.5375    2.6360   11.1692 C   0  0  0  0  0  0  0  0  0  0  0  0
    3.1548    3.4584   10.1087 C   0  0  0  0  0  0  0  0  0  0  0  0
    1.8089    3.8176   10.0151 C   0  0  0  0  0  0  0  0  0  0  0  0
    0.9999    4.6108    9.1243 C   0  0  0  0  0  0  0  0  0  0  0  0
   -0.2405    4.6150    9.5301 N   0  0  0  0  0  0  0  0  0  0  0  0
   -0.3274    3.8782   10.6339 N   0  0  0  0  0  0  0  0  0  0  0  0
    0.8831    3.3398   10.9927 C   0  0  0  0  0  0  0  0  0  0  0  0
    1.2567    2.5006   12.0460 C   0  0  0  0  0  0  0  0  0  0  0  0
   -0.3865   -2.5955   15.8355 C   0  0  0  0  0  0  0  0  0  0  0  0
   -1.7498   -2.8337   15.7040 C   0  0  0  0  0  0  0  0  0  0  0  0
   -5.8405   -4.1569   12.5674 H   0  0  0  0  0  0  0  0  0  0  0  0
   -4.4820   -4.8107   13.5440 H   0  0  0  0  0  0  0  0  0  0  0  0
   -3.8021   -2.6512   12.6563 H   0  0  0  0  0  0  0  0  0  0  0  0
   -5.3221   -1.8793   13.2225 H   0  0  0  0  0  0  0  0  0  0  0  0
   -4.0678   -2.6183   16.7524 H   0  0  0  0  0  0  0  0  0  0  0  0
   -5.4990   -1.8599   15.9757 H   0  0  0  0  0  0  0  0  0  0  0  0
   -4.6797   -4.7893   15.9475 H   0  0  0  0  0  0  0  0  0  0  0  0
   -6.1441   -4.0427   16.6718 H   0  0  0  0  0  0  0  0  0  0  0  0
   -2.3543   -2.8315   14.0190 H   0  0  0  0  0  0  0  0  0  0  0  0
   -2.4521   -0.5614   13.2832 H   0  0  0  0  0  0  0  0  0  0  0  0
   -0.0469   -0.0731   13.5891 H   0  0  0  0  0  0  0  0  0  0  0  0
    5.0432    0.9973   12.8565 H   0  0  0  0  0  0  0  0  0  0  0  0
    4.5999    2.3249   13.9824 H   0  0  0  0  0  0  0  0  0  0  0  0
    6.8211    0.9228   15.3119 H   0  0  0  0  0  0  0  0  0  0  0  0
    6.2881   -0.8162   17.2885 H   0  0  0  0  0  0  0  0  0  0  0  0
    4.5783    2.3641   11.2652 H   0  0  0  0  0  0  0  0  0  0  0  0
    3.8763    3.8057    9.3840 H   0  0  0  0  0  0  0  0  0  0  0  0
    1.3665    5.1263    8.2490 H   0  0  0  0  0  0  0  0  0  0  0  0
    0.5368    2.1420   12.7668 H   0  0  0  0  0  0  0  0  0  0  0  0
    0.1972   -3.1978   16.5158 H   0  0  0  0  0  0  0  0  0  0  0  0
   -2.2230   -3.6029   16.2963 H   0  0  0  0  0  0  0  0  0  0  0  0
  1  2  1  0  0  0  0
  1  6  1  0  0  0  0
  2  3  1  0  0  0  0
  3  4  1  0  0  0  0
  3  7  1  0  0  0  0
  4  5  1  0  0  0  0
  5  6  1  0  0  0  0
  7  8  1  0  0  0  0
  7 31  1  0  0  0  0
  8  9  2  0  0  0  0
  9 10  1  0  0  0  0
 10 11  2  0  0  0  0
 10 30  1  0  0  0  0
 11 12  1  0  0  0  0
 12 13  2  0  0  0  0
 12 20  1  0  0  0  0
 13 14  1  0  0  0  0
 14 15  1  0  0  0  0
 14 21  2  0  0  0  0
 15 16  1  0  0  0  0
 16 17  1  0  0  0  0
 16 20  1  0  0  0  0
 17 18  2  0  0  0  0
 18 19  1  0  0  0  0
 19 20  2  0  0  0  0
 21 22  1  0  0  0  0
 21 29  1  0  0  0  0
 22 23  2  0  0  0  0
 23 24  1  0  0  0  0
 24 25  2  0  0  0  0
 24 28  1  0  0  0  0
 25 26  1  0  0  0  0
 26 27  2  0  0  0  0
 27 28  1  0  0  0  0
 28 29  2  0  0  0  0
 30 31  2  0  0  0  0
  1 32  1  0  0  0  0
  1 33  1  0  0  0  0
  2 34  1  0  0  0  0
  2 35  1  0  0  0  0
  4 36  1  0  0  0  0
  4 37  1  0  0  0  0
  5 38  1  0  0  0  0
  5 39  1  0  0  0  0
  7 40  1  0  0  0  0
  8 41  1  0  0  0  0
  9 42  1  0  0  0  0
 15 43  1  0  0  0  0
 15 44  1  0  0  0  0
 17 45  1  0  0  0  0
 18 46  1  0  0  0  0
 22 47  1  0  0  0  0
 23 48  1  0  0  0  0
 25 49  1  0  0  0  0
 29 50  1  0  0  0  0
 30 51  1  0  0  0  0
 31 52  1  0  0  0  0
M  END
> <IC50[nM]>
7.7

$$$$
CHEMBL3265032
  -OEChem-05192314333D
 Structure written by MMmdl.
 52 57  0     0  0  0  0  0  0999 V2000
   -5.2528   -4.0279   13.4883 C   0  0  0  0  0  0  0  0  0  0  0  0
   -4.5590   -2.6369   13.4544 C   0  0  0  0  0  0  0  0  0  0  0  0
   -3.8919   -2.2470   14.7137 N   0  0  0  0  0  0  0  0  0  0  0  0
   -4.7198   -2.6287   15.8665 C   0  0  0  0  0  0  0  0  0  0  0  0
   -5.4261   -3.9885   15.8402 C   0  0  0  0  0  0  0  0  0  0  0  0
   -6.1177   -4.1508   14.6092 O   0  0  0  0  0  0  0  0  0  0  0  0
   -2.5101   -2.0763   14.8035 C   0  0  0  0  0  0  0  0  0  0  0  0
   -1.8815   -1.1097   14.0182 C   0  0  0  0  0  0  0  0  0  0  0  0
   -0.5196   -0.8466   14.1763 C   0  0  0  0  0  0  0  0  0  0  0  0
    0.2358   -1.5888   15.0999 C   0  0  0  0  0  0  0  0  0  0  0  0
    1.6095   -1.3595   15.3505 N   0  0  0  0  0  0  0  0  0  0  0  0
    2.5288   -0.4326   14.7915 C   0  0  0  0  0  0  0  0  0  0  0  0
    2.1515    0.4038   13.7773 N   0  0  0  0  0  0  0  0  0  0  0  0
    3.0856    1.2408   13.2315 C   0  0  0  0  0  0  0  0  0  0  0  0
    4.3919    1.2835   13.6955 C   0  0  0  0  0  0  0  0  0  0  0  0
    4.7346    0.4998   14.7545 N   0  0  0  0  0  0  0  0  0  0  0  0
    5.8922    0.3978   15.4788 C   0  0  0  0  0  0  0  0  0  0  0  0
    5.6049   -0.5481   16.4962 C   0  0  0  0  0  0  0  0  0  0  0  0
    4.3940   -1.0599   16.3510 N   0  0  0  0  0  0  0  0  0  0  0  0
    3.8344   -0.3880   15.3306 C   0  0  0  0  0  0  0  0  0  0  0  0
    2.6174    2.1451   12.1221 C   0  0  0  0  0  0  0  0  0  0  0  0
    3.5375    2.6360   11.1692 C   0  0  0  0  0  0  0  0  0  0  0  0
    3.1548    3.4584   10.1087 C   0  0  0  0  0  0  0  0  0  0  0  0
    1.8089    3.8176   10.0151 C   0  0  0  0  0  0  0  0  0  0  0  0
    0.9999    4.6108    9.1243 C   0  0  0  0  0  0  0  0  0  0  0  0
   -0.2405    4.6150    9.5301 N   0  0  0  0  0  0  0  0  0  0  0  0
   -0.3274    3.8782   10.6339 N   0  0  0  0  0  0  0  0  0  0  0  0
    0.8831    3.3398   10.9927 C   0  0  0  0  0  0  0  0  0  0  0  0
    1.2567    2.5006   12.0460 C   0  0  0  0  0  0  0  0  0  0  0  0
   -0.3865   -2.5955   15.8355 C   0  0  0  0  0  0  0  0  0  0  0  0
   -1.7498   -2.8337   15.7040 C   0  0  0  0  0  0  0  0  0  0  0  0
   -5.8405   -4.1569   12.5674 H   0  0  0  0  0  0  0  0  0  0  0  0
   -4.4820   -4.8107   13.5440 H   0  0  0  0  0  0  0  0  0  0  0  0
   -3.8021   -2.6512   12.6563 H   0  0  0  0  0  0  0  0  0  0  0  0
   -5.3221   -1.8793   13.2225 H   0  0  0  0  0  0  0  0  0  0  0  0
   -4.0678   -2.6183   16.7524 H   0  0  0  0  0  0  0  0  0  0  0  0
   -5.4990   -1.8599   15.9757 H   0  0  0  0  0  0  0  0  0  0  0  0
   -4.6797   -4.7893   15.9475 H   0  0  0  0  0  0  0  0  0  0  0  0
   -6.1441   -4.0427   16.6718 H   0  0  0  0  0  0  0  0  0  0  0  0
   -2.4521   -0.5614   13.2832 H   0  0  0  0  0  0  0  0  0  0  0  0
   -0.0469   -0.0731   13.5891 H   0  0  0  0  0  0  0  0  0  0  0  0
    5.0432    0.9973   12.8565 H   0  0  0  0  0  0  0  0  0  0  0  0
    4.5999    2.3249   13.9824 H   0  0  0  0  0  0  0  0  0  0  0  0
    6.8211    0.9228   15.3119 H   0  0  0  0  0  0  0  0  0  0  0  0
    6.2881   -0.8162   17.2885 H   0  0  0  0  0  0  0  0  0  0  0  0
    4.5783    2.3641   11.2652 H   0  0  0  0  0  0  0  0  0  0  0  0
    3.8763    3.8057    9.3840 H   0  0  0  0  0  0  0  0  0  0  0  0
    1.3665    5.1263    8.2490 H   0  0  0  0  0  0  0  0  0  0  0  0
    0.5368    2.1420   12.7668 H   0  0  0  0  0  0  0  0  0  0  0  0
    0.1228   -3.5350   15.5749 H   0  0  0  0  0  0  0  0  0  0  0  0
   -0.2092   -2.3643   16.8962 H   0  0  0  0  0  0  0  0  0  0  0  0
   -2.2230   -3.6029   16.2963 H   0  0  0  0  0  0  0  0  0  0  0  0
  1  2  1  0  0  0  0
  1  6  1  0  0  0  0
  2  3  1  0  0  0  0
  3  4  1  0  0  0  0
  3  7  1  0  0  0  0
  4  5  1  0  0  0  0
  5  6  1  0  0  0  0
  7  8  1  0  0  0  0
  7 31  2  0  0  0  0
  8  9  2  0  0  0  0
  9 10  1  0  0  0  0
 10 11  2  0  0  0  0
 10 30  1  0  0  0  0
 11 12  1  0  0  0  0
 12 13  2  0  0  0  0
 12 20  1  0  0  0  0
 13 14  1  0  0  0  0
 14 15  1  0  0  0  0
 14 21  2  0  0  0  0
 15 16  1  0  0  0  0
 16 17  1  0  0  0  0
 16 20  1  0  0  0  0
 17 18  2  0  0  0  0
 18 19  1  0  0  0  0
 19 20  2  0  0  0  0
 21 22  1  0  0  0  0
 21 29  1  0  0  0  0
 22 23  2  0  0  0  0
 23 24  1  0  0  0  0
 24 25  2  0  0  0  0
 24 28  1  0  0  0  0
 25 26  1  0  0  0  0
 26 27  2  0  0  0  0
 27 28  1  0  0  0  0
 28 29  2  0  0  0  0
 30 31  1  0  0  0  0
  1 32  1  0  0  0  0
  1 33  1  0  0  0  0
  2 34  1  0  0  0  0
  2 35  1  0  0  0  0
  4 36  1  0  0  0  0
  4 37  1  0  0  0  0
  5 38  1  0  0  0  0
  5 39  1  0  0  0  0
  8 40  1  0  0  0  0
  9 41  1  0  0  0  0
 15 42  1  0  0  0  0
 15 43  1  0  0  0  0
 17 44  1  0  0  0  0
 18 45  1  0  0  0  0
 22 46  1  0  0  0  0
 23 47  1  0  0  0  0
 25 48  1  0  0  0  0
 29 49  1  0  0  0  0
 30 50  1  0  0  0  0
 30 51  1  0  0  0  0
 31 52  1  0  0  0  0
M  END
> <IC50[nM]>
7.7

$$$$
CHEMBL3265032
  -OEChem-05192314333D
 Structure written by MMmdl.
 52 57  0     1  0  0  0  0  0999 V2000
   -5.2528   -4.0279   13.4883 C   0  0  0  0  0  0  0  0  0  0  0  0
   -4.5590   -2.6369   13.4544 C   0  0  0  0  0  0  0  0  0  0  0  0
   -3.8919   -2.2470   14.7137 N   0  0  0  0  0  0  0  0  0  0  0  0
   -4.7198   -2.6287   15.8665 C   0  0  0  0  0  0  0  0  0  0  0  0
   -5.4261   -3.9885   15.8402 C   0  0  0  0  0  0  0  0  0  0  0  0
   -6.1177   -4.1508   14.6092 O   0  0  0  0  0  0  0  0  0  0  0  0
   -2.5101   -2.0763   14.8035 C   0  0  0  0  0  0  0  0  0  0  0  0
   -1.8815   -1.1097   14.0182 C   0  0  0  0  0  0  0  0  0  0  0  0
   -0.5196   -0.8466   14.1763 C   0  0  0  0  0  0  0  0  0  0  0  0
    0.2358   -1.5888   15.0999 C   0  0  0  0  0  0  0  0  0  0  0  0
    1.6095   -1.3595   15.3505 N   0  0  0  0  0  0  0  0  0  0  0  0
    2.5288   -0.4326   14.7915 C   0  0  0  0  0  0  0  0  0  0  0  0
    2.1515    0.4038   13.7773 N   0  0  0  0  0  0  0  0  0  0  0  0
    3.0856    1.2408   13.2315 C   0  0  0  0  0  0  0  0  0  0  0  0
    4.3919    1.2835   13.6955 C   0  0  0  0  0  0  0  0  0  0  0  0
    4.7346    0.4998   14.7545 N   0  0  0  0  0  0  0  0  0  0  0  0
    5.8922    0.3978   15.4788 C   0  0  0  0  0  0  0  0  0  0  0  0
    5.6049   -0.5481   16.4962 C   0  0  0  0  0  0  0  0  0  0  0  0
    4.3940   -1.0599   16.3510 N   0  0  0  0  0  0  0  0  0  0  0  0
    3.8344   -0.3880   15.3306 C   0  0  0  0  0  0  0  0  0  0  0  0
    2.6174    2.1451   12.1221 C   0  0  0  0  0  0  0  0  0  0  0  0
    3.5375    2.6360   11.1692 C   0  0  0  0  0  0  0  0  0  0  0  0
    3.1548    3.4584   10.1087 C   0  0  0  0  0  0  0  0  0  0  0  0
    1.8089    3.8176   10.0151 C   0  0  3  0  0  0  0  0  0  0  0  0
    0.9999    4.6108    9.1243 C   0  0  0  0  0  0  0  0  0  0  0  0
   -0.2405    4.6150    9.5301 N   0  0  0  0  0  0  0  0  0  0  0  0
   -0.3274    3.8782   10.6339 N   0  0  0  0  0  0  0  0  0  0  0  0
    0.8831    3.3398   10.9927 C   0  0  0  0  0  0  0  0  0  0  0  0
    1.2567    2.5006   12.0460 C   0  0  0  0  0  0  0  0  0  0  0  0
   -0.3865   -2.5955   15.8355 C   0  0  0  0  0  0  0  0  0  0  0  0
   -1.7498   -2.8337   15.7040 C   0  0  0  0  0  0  0  0  0  0  0  0
   -5.8405   -4.1569   12.5674 H   0  0  0  0  0  0  0  0  0  0  0  0
   -4.4820   -4.8107   13.5440 H   0  0  0  0  0  0  0  0  0  0  0  0
   -3.8021   -2.6512   12.6563 H   0  0  0  0  0  0  0  0  0  0  0  0
   -5.3221   -1.8793   13.2225 H   0  0  0  0  0  0  0  0  0  0  0  0
   -4.0678   -2.6183   16.7524 H   0  0  0  0  0  0  0  0  0  0  0  0
   -5.4990   -1.8599   15.9757 H   0  0  0  0  0  0  0  0  0  0  0  0
   -4.6797   -4.7893   15.9475 H   0  0  0  0  0  0  0  0  0  0  0  0
   -6.1441   -4.0427   16.6718 H   0  0  0  0  0  0  0  0  0  0  0  0
   -2.3543   -2.8315   14.0190 H   0  0  0  0  0  0  0  0  0  0  0  0
   -2.4521   -0.5614   13.2832 H   0  0  0  0  0  0  0  0  0  0  0  0
   -0.0469   -0.0731   13.5891 H   0  0  0  0  0  0  0  0  0  0  0  0
    5.1225    1.9256   13.2261 H   0  0  0  0  0  0  0  0  0  0  0  0
    6.8211    0.9228   15.3119 H   0  0  0  0  0  0  0  0  0  0  0  0
    6.2881   -0.8162   17.2885 H   0  0  0  0  0  0  0  0  0  0  0  0
    4.5783    2.3641   11.2652 H   0  0  0  0  0  0  0  0  0  0  0  0
    3.8763    3.8057    9.3840 H   0  0  0  0  0  0  0  0  0  0  0  0
    2.0027    4.7072   10.6324 H   0  0  0  0  0  0  0  0  0  0  0  0
    1.3665    5.1263    8.2490 H   0  0  0  0  0  0  0  0  0  0  0  0
    0.5368    2.1420   12.7668 H   0  0  0  0  0  0  0  0  0  0  0  0
    0.1972   -3.1978   16.5158 H   0  0  0  0  0  0  0  0  0  0  0  0
   -2.2230   -3.6029   16.2963 H   0  0  0  0  0  0  0  0  0  0  0  0
  1  2  1  0  0  0  0
  1  6  1  0  0  0  0
  2  3  1  0  0  0  0
  3  4  1  0  0  0  0
  3  7  1  0  0  0  0
  4  5  1  0  0  0  0
  5  6  1  0  0  0  0
  7  8  1  0  0  0  0
  7 31  1  0  0  0  0
  8  9  2  0  0  0  0
  9 10  1  0  0  0  0
 10 11  2  0  0  0  0
 10 30  1  0  0  0  0
 11 12  1  0  0  0  0
 12 13  2  0  0  0  0
 12 20  1  0  0  0  0
 13 14  1  0  0  0  0
 14 15  2  0  0  0  0
 14 21  1  0  0  0  0
 15 16  1  0  0  0  0
 16 17  1  0  0  0  0
 16 20  1  0  0  0  0
 17 18  2  0  0  0  0
 18 19  1  0  0  0  0
 19 20  2  0  0  0  0
 21 22  1  0  0  0  0
 21 29  2  0  0  0  0
 22 23  2  0  0  0  0
 23 24  1  0  0  0  0
 24 25  1  0  0  0  0
 24 28  1  0  0  0  0
 25 26  2  0  0  0  0
 26 27  1  0  0  0  0
 27 28  2  0  0  0  0
 28 29  1  0  0  0  0
 30 31  2  0  0  0  0
  1 32  1  0  0  0  0
  1 33  1  0  0  0  0
  2 34  1  0  0  0  0
  2 35  1  0  0  0  0
  4 36  1  0  0  0  0
  4 37  1  0  0  0  0
  5 38  1  0  0  0  0
  5 39  1  0  0  0  0
  7 40  1  0  0  0  0
  8 41  1  0  0  0  0
  9 42  1  0  0  0  0
 15 43  1  0  0  0  0
 17 44  1  0  0  0  0
 18 45  1  0  0  0  0
 22 46  1  0  0  0  0
 23 47  1  0  0  0  0
 24 48  1  0  0  0  0
 25 49  1  0  0  0  0
 29 50  1  0  0  0  0
 30 51  1  0  0  0  0
 31 52  1  0  0  0  0
M  END
> <IC50[nM]>
7.7

$$$$
CHEMBL3265032
  -OEChem-05192314333D
 Structure written by MMmdl.
 52 57  0     1  0  0  0  0  0999 V2000
   -5.2528   -4.0279   13.4883 C   0  0  0  0  0  0  0  0  0  0  0  0
   -4.5590   -2.6369   13.4544 C   0  0  0  0  0  0  0  0  0  0  0  0
   -3.8919   -2.2470   14.7137 N   0  0  0  0  0  0  0  0  0  0  0  0
   -4.7198   -2.6287   15.8665 C   0  0  0  0  0  0  0  0  0  0  0  0
   -5.4261   -3.9885   15.8402 C   0  0  0  0  0  0  0  0  0  0  0  0
   -6.1177   -4.1508   14.6092 O   0  0  0  0  0  0  0  0  0  0  0  0
   -2.5101   -2.0763   14.8035 C   0  0  0  0  0  0  0  0  0  0  0  0
   -1.8815   -1.1097   14.0182 C   0  0  0  0  0  0  0  0  0  0  0  0
   -0.5196   -0.8466   14.1763 C   0  0  0  0  0  0  0  0  0  0  0  0
    0.2358   -1.5888   15.0999 C   0  0  0  0  0  0  0  0  0  0  0  0
    1.6095   -1.3595   15.3505 N   0  0  0  0  0  0  0  0  0  0  0  0
    2.5288   -0.4326   14.7915 C   0  0  0  0  0  0  0  0  0  0  0  0
    2.1515    0.4038   13.7773 N   0  0  0  0  0  0  0  0  0  0  0  0
    3.0856    1.2408   13.2315 C   0  0  0  0  0  0  0  0  0  0  0  0
    4.3919    1.2835   13.6955 C   0  0  0  0  0  0  0  0  0  0  0  0
    4.7346    0.4998   14.7545 N   0  0  0  0  0  0  0  0  0  0  0  0
    5.8922    0.3978   15.4788 C   0  0  0  0  0  0  0  0  0  0  0  0
    5.6049   -0.5481   16.4962 C   0  0  0  0  0  0  0  0  0  0  0  0
    4.3940   -1.0599   16.3510 N   0  0  0  0  0  0  0  0  0  0  0  0
    3.8344   -0.3880   15.3306 C   0  0  0  0  0  0  0  0  0  0  0  0
    2.6174    2.1451   12.1221 C   0  0  0  0  0  0  0  0  0  0  0  0
    3.5375    2.6360   11.1692 C   0  0  0  0  0  0  0  0  0  0  0  0
    3.1548    3.4584   10.1087 C   0  0  0  0  0  0  0  0  0  0  0  0
    1.8089    3.8176   10.0151 C   0  0  3  0  0  0  0  0  0  0  0  0
    0.9999    4.6108    9.1243 C   0  0  0  0  0  0  0  0  0  0  0  0
   -0.2405    4.6150    9.5301 N   0  0  0  0  0  0  0  0  0  0  0  0
   -0.3274    3.8782   10.6339 N   0  0  0  0  0  0  0  0  0  0  0  0
    0.8831    3.3398   10.9927 C   0  0  0  0  0  0  0  0  0  0  0  0
    1.2567    2.5006   12.0460 C   0  0  0  0  0  0  0  0  0  0  0  0
   -0.3865   -2.5955   15.8355 C   0  0  0  0  0  0  0  0  0  0  0  0
   -1.7498   -2.8337   15.7040 C   0  0  0  0  0  0  0  0  0  0  0  0
   -5.8405   -4.1569   12.5674 H   0  0  0  0  0  0  0  0  0  0  0  0
   -4.4820   -4.8107   13.5440 H   0  0  0  0  0  0  0  0  0  0  0  0
   -3.8021   -2.6512   12.6563 H   0  0  0  0  0  0  0  0  0  0  0  0
   -5.3221   -1.8793   13.2225 H   0  0  0  0  0  0  0  0  0  0  0  0
   -4.0678   -2.6183   16.7524 H   0  0  0  0  0  0  0  0  0  0  0  0
   -5.4990   -1.8599   15.9757 H   0  0  0  0  0  0  0  0  0  0  0  0
   -4.6797   -4.7893   15.9475 H   0  0  0  0  0  0  0  0  0  0  0  0
   -6.1441   -4.0427   16.6718 H   0  0  0  0  0  0  0  0  0  0  0  0
   -2.4521   -0.5614   13.2832 H   0  0  0  0  0  0  0  0  0  0  0  0
   -0.0469   -0.0731   13.5891 H   0  0  0  0  0  0  0  0  0  0  0  0
    5.1225    1.9256   13.2261 H   0  0  0  0  0  0  0  0  0  0  0  0
    6.8211    0.9228   15.3119 H   0  0  0  0  0  0  0  0  0  0  0  0
    6.2881   -0.8162   17.2885 H   0  0  0  0  0  0  0  0  0  0  0  0
    4.5783    2.3641   11.2652 H   0  0  0  0  0  0  0  0  0  0  0  0
    3.8763    3.8057    9.3840 H   0  0  0  0  0  0  0  0  0  0  0  0
    2.0027    4.7072   10.6324 H   0  0  0  0  0  0  0  0  0  0  0  0
    1.3665    5.1263    8.2490 H   0  0  0  0  0  0  0  0  0  0  0  0
    0.5368    2.1420   12.7668 H   0  0  0  0  0  0  0  0  0  0  0  0
    0.1228   -3.5350   15.5749 H   0  0  0  0  0  0  0  0  0  0  0  0
   -0.2092   -2.3643   16.8962 H   0  0  0  0  0  0  0  0  0  0  0  0
   -2.2230   -3.6029   16.2963 H   0  0  0  0  0  0  0  0  0  0  0  0
  1  2  1  0  0  0  0
  1  6  1  0  0  0  0
  2  3  1  0  0  0  0
  3  4  1  0  0  0  0
  3  7  1  0  0  0  0
  4  5  1  0  0  0  0
  5  6  1  0  0  0  0
  7  8  1  0  0  0  0
  7 31  2  0  0  0  0
  8  9  2  0  0  0  0
  9 10  1  0  0  0  0
 10 11  2  0  0  0  0
 10 30  1  0  0  0  0
 11 12  1  0  0  0  0
 12 13  2  0  0  0  0
 12 20  1  0  0  0  0
 13 14  1  0  0  0  0
 14 15  2  0  0  0  0
 14 21  1  0  0  0  0
 15 16  1  0  0  0  0
 16 17  1  0  0  0  0
 16 20  1  0  0  0  0
 17 18  2  0  0  0  0
 18 19  1  0  0  0  0
 19 20  2  0  0  0  0
 21 22  1  0  0  0  0
 21 29  2  0  0  0  0
 22 23  2  0  0  0  0
 23 24  1  0  0  0  0
 24 25  1  0  0  0  0
 24 28  1  0  0  0  0
 25 26  2  0  0  0  0
 26 27  1  0  0  0  0
 27 28  2  0  0  0  0
 28 29  1  0  0  0  0
 30 31  1  0  0  0  0
  1 32  1  0  0  0  0
  1 33  1  0  0  0  0
  2 34  1  0  0  0  0
  2 35  1  0  0  0  0
  4 36  1  0  0  0  0
  4 37  1  0  0  0  0
  5 38  1  0  0  0  0
  5 39  1  0  0  0  0
  8 40  1  0  0  0  0
  9 41  1  0  0  0  0
 15 42  1  0  0  0  0
 17 43  1  0  0  0  0
 18 44  1  0  0  0  0
 22 45  1  0  0  0  0
 23 46  1  0  0  0  0
 24 47  1  0  0  0  0
 25 48  1  0  0  0  0
 29 49  1  0  0  0  0
 30 50  1  0  0  0  0
 30 51  1  0  0  0  0
 31 52  1  0  0  0  0
M  END
> <IC50[nM]>
7.7

$$$$
CHEMBL3265032
  -OEChem-05192314333D
 Structure written by MMmdl.
 52 57  0     0  0  0  0  0  0999 V2000
   -5.2528   -4.0279   13.4883 C   0  0  0  0  0  0  0  0  0  0  0  0
   -4.5590   -2.6369   13.4544 C   0  0  0  0  0  0  0  0  0  0  0  0
   -3.8919   -2.2470   14.7137 N   0  0  0  0  0  0  0  0  0  0  0  0
   -4.7198   -2.6287   15.8665 C   0  0  0  0  0  0  0  0  0  0  0  0
   -5.4261   -3.9885   15.8402 C   0  0  0  0  0  0  0  0  0  0  0  0
   -6.1177   -4.1508   14.6092 O   0  0  0  0  0  0  0  0  0  0  0  0
   -2.5101   -2.0763   14.8035 C   0  0  0  0  0  0  0  0  0  0  0  0
   -1.8815   -1.1097   14.0182 C   0  0  0  0  0  0  0  0  0  0  0  0
   -0.5196   -0.8466   14.1763 C   0  0  0  0  0  0  0  0  0  0  0  0
    0.2358   -1.5888   15.0999 C   0  0  0  0  0  0  0  0  0  0  0  0
    1.6095   -1.3595   15.3505 N   0  0  0  0  0  0  0  0  0  0  0  0
    2.5288   -0.4326   14.7915 C   0  0  0  0  0  0  0  0  0  0  0  0
    2.1515    0.4038   13.7773 N   0  0  0  0  0  0  0  0  0  0  0  0
    3.0856    1.2408   13.2315 C   0  0  0  0  0  0  0  0  0  0  0  0
    4.3919    1.2835   13.6955 C   0  0  0  0  0  0  0  0  0  0  0  0
    4.7346    0.4998   14.7545 N   0  0  0  0  0  0  0  0  0  0  0  0
    5.8922    0.3978   15.4788 C   0  0  0  0  0  0  0  0  0  0  0  0
    5.6049   -0.5481   16.4962 C   0  0  0  0  0  0  0  0  0  0  0  0
    4.3940   -1.0599   16.3510 N   0  0  0  0  0  0  0  0  0  0  0  0
    3.8344   -0.3880   15.3306 C   0  0  0  0  0  0  0  0  0  0  0  0
    2.6174    2.1451   12.1221 C   0  0  0  0  0  0  0  0  0  0  0  0
    3.5375    2.6360   11.1692 C   0  0  0  0  0  0  0  0  0  0  0  0
    3.1548    3.4584   10.1087 C   0  0  0  0  0  0  0  0  0  0  0  0
    1.8089    3.8176   10.0151 C   0  0  0  0  0  0  0  0  0  0  0  0
    0.9999    4.6108    9.1243 C   0  0  0  0  0  0  0  0  0  0  0  0
   -0.2405    4.6150    9.5301 N   0  0  0  0  0  0  0  0  0  0  0  0
   -0.3274    3.8782   10.6339 N   0  0  0  0  0  0  0  0  0  0  0  0
    0.8831    3.3398   10.9927 C   0  0  0  0  0  0  0  0  0  0  0  0
    1.2567    2.5006   12.0460 C   0  0  0  0  0  0  0  0  0  0  0  0
   -0.3865   -2.5955   15.8355 C   0  0  0  0  0  0  0  0  0  0  0  0
   -1.7498   -2.8337   15.7040 C   0  0  0  0  0  0  0  0  0  0  0  0
   -5.8405   -4.1569   12.5674 H   0  0  0  0  0  0  0  0  0  0  0  0
   -4.4820   -4.8107   13.5440 H   0  0  0  0  0  0  0  0  0  0  0  0
   -3.8021   -2.6512   12.6563 H   0  0  0  0  0  0  0  0  0  0  0  0
   -5.3221   -1.8793   13.2225 H   0  0  0  0  0  0  0  0  0  0  0  0
   -4.0678   -2.6183   16.7524 H   0  0  0  0  0  0  0  0  0  0  0  0
   -5.4990   -1.8599   15.9757 H   0  0  0  0  0  0  0  0  0  0  0  0
   -4.6797   -4.7893   15.9475 H   0  0  0  0  0  0  0  0  0  0  0  0
   -6.1441   -4.0427   16.6718 H   0  0  0  0  0  0  0  0  0  0  0  0
   -2.3543   -2.8315   14.0190 H   0  0  0  0  0  0  0  0  0  0  0  0
   -2.4521   -0.5614   13.2832 H   0  0  0  0  0  0  0  0  0  0  0  0
   -0.0469   -0.0731   13.5891 H   0  0  0  0  0  0  0  0  0  0  0  0
    5.1225    1.9256   13.2261 H   0  0  0  0  0  0  0  0  0  0  0  0
    6.8211    0.9228   15.3119 H   0  0  0  0  0  0  0  0  0  0  0  0
    6.2881   -0.8162   17.2885 H   0  0  0  0  0  0  0  0  0  0  0  0
    4.2918    3.2010   11.7365 H   0  0  0  0  0  0  0  0  0  0  0  0
    4.0073    1.7512   10.7148 H   0  0  0  0  0  0  0  0  0  0  0  0
    3.8763    3.8057    9.3840 H   0  0  0  0  0  0  0  0  0  0  0  0
    1.3665    5.1263    8.2490 H   0  0  0  0  0  0  0  0  0  0  0  0
    0.5368    2.1420   12.7668 H   0  0  0  0  0  0  0  0  0  0  0  0
    0.1972   -3.1978   16.5158 H   0  0  0  0  0  0  0  0  0  0  0  0
   -2.2230   -3.6029   16.2963 H   0  0  0  0  0  0  0  0  0  0  0  0
  1  2  1  0  0  0  0
  1  6  1  0  0  0  0
  2  3  1  0  0  0  0
  3  4  1  0  0  0  0
  3  7  1  0  0  0  0
  4  5  1  0  0  0  0
  5  6  1  0  0  0  0
  7  8  1  0  0  0  0
  7 31  1  0  0  0  0
  8  9  2  0  0  0  0
  9 10  1  0  0  0  0
 10 11  2  0  0  0  0
 10 30  1  0  0  0  0
 11 12  1  0  0  0  0
 12 13  2  0  0  0  0
 12 20  1  0  0  0  0
 13 14  1  0  0  0  0
 14 15  2  0  0  0  0
 14 21  1  0  0  0  0
 15 16  1  0  0  0  0
 16 17  1  0  0  0  0
 16 20  1  0  0  0  0
 17 18  2  0  0  0  0
 18 19  1  0  0  0  0
 19 20  2  0  0  0  0
 21 22  1  0  0  0  0
 21 29  2  0  0  0  0
 22 23  1  0  0  0  0
 23 24  2  0  0  0  0
 24 25  1  0  0  0  0
 24 28  1  0  0  0  0
 25 26  2  0  0  0  0
 26 27  1  0  0  0  0
 27 28  2  0  0  0  0
 28 29  1  0  0  0  0
 30 31  2  0  0  0  0
  1 32  1  0  0  0  0
  1 33  1  0  0  0  0
  2 34  1  0  0  0  0
  2 35  1  0  0  0  0
  4 36  1  0  0  0  0
  4 37  1  0  0  0  0
  5 38  1  0  0  0  0
  5 39  1  0  0  0  0
  7 40  1  0  0  0  0
  8 41  1  0  0  0  0
  9 42  1  0  0  0  0
 15 43  1  0  0  0  0
 17 44  1  0  0  0  0
 18 45  1  0  0  0  0
 22 46  1  0  0  0  0
 22 47  1  0  0  0  0
 23 48  1  0  0  0  0
 25 49  1  0  0  0  0
 29 50  1  0  0  0  0
 30 51  1  0  0  0  0
 31 52  1  0  0  0  0
M  END
> <IC50[nM]>
7.7

$$$$
CHEMBL3265032
  -OEChem-05192314333D
 Structure written by MMmdl.
 52 57  0     0  0  0  0  0  0999 V2000
   -5.2528   -4.0279   13.4883 C   0  0  0  0  0  0  0  0  0  0  0  0
   -4.5590   -2.6369   13.4544 C   0  0  0  0  0  0  0  0  0  0  0  0
   -3.8919   -2.2470   14.7137 N   0  0  0  0  0  0  0  0  0  0  0  0
   -4.7198   -2.6287   15.8665 C   0  0  0  0  0  0  0  0  0  0  0  0
   -5.4261   -3.9885   15.8402 C   0  0  0  0  0  0  0  0  0  0  0  0
   -6.1177   -4.1508   14.6092 O   0  0  0  0  0  0  0  0  0  0  0  0
   -2.5101   -2.0763   14.8035 C   0  0  0  0  0  0  0  0  0  0  0  0
   -1.8815   -1.1097   14.0182 C   0  0  0  0  0  0  0  0  0  0  0  0
   -0.5196   -0.8466   14.1763 C   0  0  0  0  0  0  0  0  0  0  0  0
    0.2358   -1.5888   15.0999 C   0  0  0  0  0  0  0  0  0  0  0  0
    1.6095   -1.3595   15.3505 N   0  0  0  0  0  0  0  0  0  0  0  0
    2.5288   -0.4326   14.7915 C   0  0  0  0  0  0  0  0  0  0  0  0
    2.1515    0.4038   13.7773 N   0  0  0  0  0  0  0  0  0  0  0  0
    3.0856    1.2408   13.2315 C   0  0  0  0  0  0  0  0  0  0  0  0
    4.3919    1.2835   13.6955 C   0  0  0  0  0  0  0  0  0  0  0  0
    4.7346    0.4998   14.7545 N   0  0  0  0  0  0  0  0  0  0  0  0
    5.8922    0.3978   15.4788 C   0  0  0  0  0  0  0  0  0  0  0  0
    5.6049   -0.5481   16.4962 C   0  0  0  0  0  0  0  0  0  0  0  0
    4.3940   -1.0599   16.3510 N   0  0  0  0  0  0  0  0  0  0  0  0
    3.8344   -0.3880   15.3306 C   0  0  0  0  0  0  0  0  0  0  0  0
    2.6174    2.1451   12.1221 C   0  0  0  0  0  0  0  0  0  0  0  0
    3.5375    2.6360   11.1692 C   0  0  0  0  0  0  0  0  0  0  0  0
    3.1548    3.4584   10.1087 C   0  0  0  0  0  0  0  0  0  0  0  0
    1.8089    3.8176   10.0151 C   0  0  0  0  0  0  0  0  0  0  0  0
    0.9999    4.6108    9.1243 C   0  0  0  0  0  0  0  0  0  0  0  0
   -0.2405    4.6150    9.5301 N   0  0  0  0  0  0  0  0  0  0  0  0
   -0.3274    3.8782   10.6339 N   0  0  0  0  0  0  0  0  0  0  0  0
    0.8831    3.3398   10.9927 C   0  0  0  0  0  0  0  0  0  0  0  0
    1.2567    2.5006   12.0460 C   0  0  0  0  0  0  0  0  0  0  0  0
   -0.3865   -2.5955   15.8355 C   0  0  0  0  0  0  0  0  0  0  0  0
   -1.7498   -2.8337   15.7040 C   0  0  0  0  0  0  0  0  0  0  0  0
   -5.8405   -4.1569   12.5674 H   0  0  0  0  0  0  0  0  0  0  0  0
   -4.4820   -4.8107   13.5440 H   0  0  0  0  0  0  0  0  0  0  0  0
   -3.8021   -2.6512   12.6563 H   0  0  0  0  0  0  0  0  0  0  0  0
   -5.3221   -1.8793   13.2225 H   0  0  0  0  0  0  0  0  0  0  0  0
   -4.0678   -2.6183   16.7524 H   0  0  0  0  0  0  0  0  0  0  0  0
   -5.4990   -1.8599   15.9757 H   0  0  0  0  0  0  0  0  0  0  0  0
   -4.6797   -4.7893   15.9475 H   0  0  0  0  0  0  0  0  0  0  0  0
   -6.1441   -4.0427   16.6718 H   0  0  0  0  0  0  0  0  0  0  0  0
   -2.4521   -0.5614   13.2832 H   0  0  0  0  0  0  0  0  0  0  0  0
   -0.0469   -0.0731   13.5891 H   0  0  0  0  0  0  0  0  0  0  0  0
    5.1225    1.9256   13.2261 H   0  0  0  0  0  0  0  0  0  0  0  0
    6.8211    0.9228   15.3119 H   0  0  0  0  0  0  0  0  0  0  0  0
    6.2881   -0.8162   17.2885 H   0  0  0  0  0  0  0  0  0  0  0  0
    4.2918    3.2010   11.7365 H   0  0  0  0  0  0  0  0  0  0  0  0
    4.0073    1.7512   10.7148 H   0  0  0  0  0  0  0  0  0  0  0  0
    3.8763    3.8057    9.3840 H   0  0  0  0  0  0  0  0  0  0  0  0
    1.3665    5.1263    8.2490 H   0  0  0  0  0  0  0  0  0  0  0  0
    0.5368    2.1420   12.7668 H   0  0  0  0  0  0  0  0  0  0  0  0
    0.1228   -3.5350   15.5749 H   0  0  0  0  0  0  0  0  0  0  0  0
   -0.2092   -2.3643   16.8962 H   0  0  0  0  0  0  0  0  0  0  0  0
   -2.2230   -3.6029   16.2963 H   0  0  0  0  0  0  0  0  0  0  0  0
  1  2  1  0  0  0  0
  1  6  1  0  0  0  0
  2  3  1  0  0  0  0
  3  4  1  0  0  0  0
  3  7  1  0  0  0  0
  4  5  1  0  0  0  0
  5  6  1  0  0  0  0
  7  8  1  0  0  0  0
  7 31  2  0  0  0  0
  8  9  2  0  0  0  0
  9 10  1  0  0  0  0
 10 11  2  0  0  0  0
 10 30  1  0  0  0  0
 11 12  1  0  0  0  0
 12 13  2  0  0  0  0
 12 20  1  0  0  0  0
 13 14  1  0  0  0  0
 14 15  2  0  0  0  0
 14 21  1  0  0  0  0
 15 16  1  0  0  0  0
 16 17  1  0  0  0  0
 16 20  1  0  0  0  0
 17 18  2  0  0  0  0
 18 19  1  0  0  0  0
 19 20  2  0  0  0  0
 21 22  1  0  0  0  0
 21 29  2  0  0  0  0
 22 23  1  0  0  0  0
 23 24  2  0  0  0  0
 24 25  1  0  0  0  0
 24 28  1  0  0  0  0
 25 26  2  0  0  0  0
 26 27  1  0  0  0  0
 27 28  2  0  0  0  0
 28 29  1  0  0  0  0
 30 31  1  0  0  0  0
  1 32  1  0  0  0  0
  1 33  1  0  0  0  0
  2 34  1  0  0  0  0
  2 35  1  0  0  0  0
  4 36  1  0  0  0  0
  4 37  1  0  0  0  0
  5 38  1  0  0  0  0
  5 39  1  0  0  0  0
  8 40  1  0  0  0  0
  9 41  1  0  0  0  0
 15 42  1  0  0  0  0
 17 43  1  0  0  0  0
 18 44  1  0  0  0  0
 22 45  1  0  0  0  0
 22 46  1  0  0  0  0
 23 47  1  0  0  0  0
 25 48  1  0  0  0  0
 29 49  1  0  0  0  0
 30 50  1  0  0  0  0
 30 51  1  0  0  0  0
 31 52  1  0  0  0  0
M  END
> <IC50[nM]>
7.7

$$$$
CHEMBL3265032
  -OEChem-05192314333D
 Structure written by MMmdl.
 52 57  0     0  0  0  0  0  0999 V2000
   -5.2528   -4.0279   13.4883 C   0  0  0  0  0  0  0  0  0  0  0  0
   -4.5590   -2.6369   13.4544 C   0  0  0  0  0  0  0  0  0  0  0  0
   -3.8919   -2.2470   14.7137 N   0  0  0  0  0  0  0  0  0  0  0  0
   -4.7198   -2.6287   15.8665 C   0  0  0  0  0  0  0  0  0  0  0  0
   -5.4261   -3.9885   15.8402 C   0  0  0  0  0  0  0  0  0  0  0  0
   -6.1177   -4.1508   14.6092 O   0  0  0  0  0  0  0  0  0  0  0  0
   -2.5101   -2.0763   14.8035 C   0  0  0  0  0  0  0  0  0  0  0  0
   -1.8815   -1.1097   14.0182 C   0  0  0  0  0  0  0  0  0  0  0  0
   -0.5196   -0.8466   14.1763 C   0  0  0  0  0  0  0  0  0  0  0  0
    0.2358   -1.5888   15.0999 C   0  0  0  0  0  0  0  0  0  0  0  0
    1.6095   -1.3595   15.3505 N   0  0  0  0  0  0  0  0  0  0  0  0
    2.5288   -0.4326   14.7915 C   0  0  0  0  0  0  0  0  0  0  0  0
    2.1515    0.4038   13.7773 N   0  0  0  0  0  0  0  0  0  0  0  0
    3.0856    1.2408   13.2315 C   0  0  0  0  0  0  0  0  0  0  0  0
    4.3919    1.2835   13.6955 C   0  0  0  0  0  0  0  0  0  0  0  0
    4.7346    0.4998   14.7545 N   0  0  0  0  0  0  0  0  0  0  0  0
    5.8922    0.3978   15.4788 C   0  0  0  0  0  0  0  0  0  0  0  0
    5.6049   -0.5481   16.4962 C   0  0  0  0  0  0  0  0  0  0  0  0
    4.3940   -1.0599   16.3510 N   0  0  0  0  0  0  0  0  0  0  0  0
    3.8344   -0.3880   15.3306 C   0  0  0  0  0  0  0  0  0  0  0  0
    2.6174    2.1451   12.1221 C   0  0  0  0  0  0  0  0  0  0  0  0
    3.5375    2.6360   11.1692 C   0  0  0  0  0  0  0  0  0  0  0  0
    3.1548    3.4584   10.1087 C   0  0  0  0  0  0  0  0  0  0  0  0
    1.8089    3.8176   10.0151 C   0  0  0  0  0  0  0  0  0  0  0  0
    0.9999    4.6108    9.1243 C   0  0  0  0  0  0  0  0  0  0  0  0
   -0.2405    4.6150    9.5301 N   0  0  0  0  0  0  0  0  0  0  0  0
   -0.3274    3.8782   10.6339 N   0  0  0  0  0  0  0  0  0  0  0  0
    0.8831    3.3398   10.9927 C   0  0  0  0  0  0  0  0  0  0  0  0
    1.2567    2.5006   12.0460 C   0  0  0  0  0  0  0  0  0  0  0  0
   -0.3865   -2.5955   15.8355 C   0  0  0  0  0  0  0  0  0  0  0  0
   -1.7498   -2.8337   15.7040 C   0  0  0  0  0  0  0  0  0  0  0  0
   -5.8405   -4.1569   12.5674 H   0  0  0  0  0  0  0  0  0  0  0  0
   -4.4820   -4.8107   13.5440 H   0  0  0  0  0  0  0  0  0  0  0  0
   -3.8021   -2.6512   12.6563 H   0  0  0  0  0  0  0  0  0  0  0  0
   -5.3221   -1.8793   13.2225 H   0  0  0  0  0  0  0  0  0  0  0  0
   -4.0678   -2.6183   16.7524 H   0  0  0  0  0  0  0  0  0  0  0  0
   -5.4990   -1.8599   15.9757 H   0  0  0  0  0  0  0  0  0  0  0  0
   -4.6797   -4.7893   15.9475 H   0  0  0  0  0  0  0  0  0  0  0  0
   -6.1441   -4.0427   16.6718 H   0  0  0  0  0  0  0  0  0  0  0  0
   -2.3543   -2.8315   14.0190 H   0  0  0  0  0  0  0  0  0  0  0  0
   -2.4521   -0.5614   13.2832 H   0  0  0  0  0  0  0  0  0  0  0  0
   -0.0469   -0.0731   13.5891 H   0  0  0  0  0  0  0  0  0  0  0  0
    5.1225    1.9256   13.2261 H   0  0  0  0  0  0  0  0  0  0  0  0
    6.8211    0.9228   15.3119 H   0  0  0  0  0  0  0  0  0  0  0  0
    6.2881   -0.8162   17.2885 H   0  0  0  0  0  0  0  0  0  0  0  0
    4.5783    2.3641   11.2652 H   0  0  0  0  0  0  0  0  0  0  0  0
    3.8763    3.8057    9.3840 H   0  0  0  0  0  0  0  0  0  0  0  0
    1.3665    5.1263    8.2490 H   0  0  0  0  0  0  0  0  0  0  0  0
    0.6746    1.5718   11.9541 H   0  0  0  0  0  0  0  0  0  0  0  0
    0.9921    3.0077   12.9856 H   0  0  0  0  0  0  0  0  0  0  0  0
    0.1972   -3.1978   16.5158 H   0  0  0  0  0  0  0  0  0  0  0  0
   -2.2230   -3.6029   16.2963 H   0  0  0  0  0  0  0  0  0  0  0  0
  1  2  1  0  0  0  0
  1  6  1  0  0  0  0
  2  3  1  0  0  0  0
  3  4  1  0  0  0  0
  3  7  1  0  0  0  0
  4  5  1  0  0  0  0
  5  6  1  0  0  0  0
  7  8  1  0  0  0  0
  7 31  1  0  0  0  0
  8  9  2  0  0  0  0
  9 10  1  0  0  0  0
 10 11  2  0  0  0  0
 10 30  1  0  0  0  0
 11 12  1  0  0  0  0
 12 13  2  0  0  0  0
 12 20  1  0  0  0  0
 13 14  1  0  0  0  0
 14 15  2  0  0  0  0
 14 21  1  0  0  0  0
 15 16  1  0  0  0  0
 16 17  1  0  0  0  0
 16 20  1  0  0  0  0
 17 18  2  0  0  0  0
 18 19  1  0  0  0  0
 19 20  2  0  0  0  0
 21 22  2  0  0  0  0
 21 29  1  0  0  0  0
 22 23  1  0  0  0  0
 23 24  2  0  0  0  0
 24 25  1  0  0  0  0
 24 28  1  0  0  0  0
 25 26  2  0  0  0  0
 26 27  1  0  0  0  0
 27 28  2  0  0  0  0
 28 29  1  0  0  0  0
 30 31  2  0  0  0  0
  1 32  1  0  0  0  0
  1 33  1  0  0  0  0
  2 34  1  0  0  0  0
  2 35  1  0  0  0  0
  4 36  1  0  0  0  0
  4 37  1  0  0  0  0
  5 38  1  0  0  0  0
  5 39  1  0  0  0  0
  7 40  1  0  0  0  0
  8 41  1  0  0  0  0
  9 42  1  0  0  0  0
 15 43  1  0  0  0  0
 17 44  1  0  0  0  0
 18 45  1  0  0  0  0
 22 46  1  0  0  0  0
 23 47  1  0  0  0  0
 25 48  1  0  0  0  0
 29 49  1  0  0  0  0
 29 50  1  0  0  0  0
 30 51  1  0  0  0  0
 31 52  1  0  0  0  0
M  END
> <IC50[nM]>
7.7

$$$$
CHEMBL3265032
  -OEChem-05192314333D
 Structure written by MMmdl.
 52 57  0     0  0  0  0  0  0999 V2000
   -5.2528   -4.0279   13.4883 C   0  0  0  0  0  0  0  0  0  0  0  0
   -4.5590   -2.6369   13.4544 C   0  0  0  0  0  0  0  0  0  0  0  0
   -3.8919   -2.2470   14.7137 N   0  0  0  0  0  0  0  0  0  0  0  0
   -4.7198   -2.6287   15.8665 C   0  0  0  0  0  0  0  0  0  0  0  0
   -5.4261   -3.9885   15.8402 C   0  0  0  0  0  0  0  0  0  0  0  0
   -6.1177   -4.1508   14.6092 O   0  0  0  0  0  0  0  0  0  0  0  0
   -2.5101   -2.0763   14.8035 C   0  0  0  0  0  0  0  0  0  0  0  0
   -1.8815   -1.1097   14.0182 C   0  0  0  0  0  0  0  0  0  0  0  0
   -0.5196   -0.8466   14.1763 C   0  0  0  0  0  0  0  0  0  0  0  0
    0.2358   -1.5888   15.0999 C   0  0  0  0  0  0  0  0  0  0  0  0
    1.6095   -1.3595   15.3505 N   0  0  0  0  0  0  0  0  0  0  0  0
    2.5288   -0.4326   14.7915 C   0  0  0  0  0  0  0  0  0  0  0  0
    2.1515    0.4038   13.7773 N   0  0  0  0  0  0  0  0  0  0  0  0
    3.0856    1.2408   13.2315 C   0  0  0  0  0  0  0  0  0  0  0  0
    4.3919    1.2835   13.6955 C   0  0  0  0  0  0  0  0  0  0  0  0
    4.7346    0.4998   14.7545 N   0  0  0  0  0  0  0  0  0  0  0  0
    5.8922    0.3978   15.4788 C   0  0  0  0  0  0  0  0  0  0  0  0
    5.6049   -0.5481   16.4962 C   0  0  0  0  0  0  0  0  0  0  0  0
    4.3940   -1.0599   16.3510 N   0  0  0  0  0  0  0  0  0  0  0  0
    3.8344   -0.3880   15.3306 C   0  0  0  0  0  0  0  0  0  0  0  0
    2.6174    2.1451   12.1221 C   0  0  0  0  0  0  0  0  0  0  0  0
    3.5375    2.6360   11.1692 C   0  0  0  0  0  0  0  0  0  0  0  0
    3.1548    3.4584   10.1087 C   0  0  0  0  0  0  0  0  0  0  0  0
    1.8089    3.8176   10.0151 C   0  0  0  0  0  0  0  0  0  0  0  0
    0.9999    4.6108    9.1243 C   0  0  0  0  0  0  0  0  0  0  0  0
   -0.2405    4.6150    9.5301 N   0  0  0  0  0  0  0  0  0  0  0  0
   -0.3274    3.8782   10.6339 N   0  0  0  0  0  0  0  0  0  0  0  0
    0.8831    3.3398   10.9927 C   0  0  0  0  0  0  0  0  0  0  0  0
    1.2567    2.5006   12.0460 C   0  0  0  0  0  0  0  0  0  0  0  0
   -0.3865   -2.5955   15.8355 C   0  0  0  0  0  0  0  0  0  0  0  0
   -1.7498   -2.8337   15.7040 C   0  0  0  0  0  0  0  0  0  0  0  0
   -5.8405   -4.1569   12.5674 H   0  0  0  0  0  0  0  0  0  0  0  0
   -4.4820   -4.8107   13.5440 H   0  0  0  0  0  0  0  0  0  0  0  0
   -3.8021   -2.6512   12.6563 H   0  0  0  0  0  0  0  0  0  0  0  0
   -5.3221   -1.8793   13.2225 H   0  0  0  0  0  0  0  0  0  0  0  0
   -4.0678   -2.6183   16.7524 H   0  0  0  0  0  0  0  0  0  0  0  0
   -5.4990   -1.8599   15.9757 H   0  0  0  0  0  0  0  0  0  0  0  0
   -4.6797   -4.7893   15.9475 H   0  0  0  0  0  0  0  0  0  0  0  0
   -6.1441   -4.0427   16.6718 H   0  0  0  0  0  0  0  0  0  0  0  0
   -2.4521   -0.5614   13.2832 H   0  0  0  0  0  0  0  0  0  0  0  0
   -0.0469   -0.0731   13.5891 H   0  0  0  0  0  0  0  0  0  0  0  0
    5.1225    1.9256   13.2261 H   0  0  0  0  0  0  0  0  0  0  0  0
    6.8211    0.9228   15.3119 H   0  0  0  0  0  0  0  0  0  0  0  0
    6.2881   -0.8162   17.2885 H   0  0  0  0  0  0  0  0  0  0  0  0
    4.5783    2.3641   11.2652 H   0  0  0  0  0  0  0  0  0  0  0  0
    3.8763    3.8057    9.3840 H   0  0  0  0  0  0  0  0  0  0  0  0
    1.3665    5.1263    8.2490 H   0  0  0  0  0  0  0  0  0  0  0  0
    0.6746    1.5718   11.9541 H   0  0  0  0  0  0  0  0  0  0  0  0
    0.9921    3.0077   12.9856 H   0  0  0  0  0  0  0  0  0  0  0  0
    0.1228   -3.5350   15.5749 H   0  0  0  0  0  0  0  0  0  0  0  0
   -0.2092   -2.3643   16.8962 H   0  0  0  0  0  0  0  0  0  0  0  0
   -2.2230   -3.6029   16.2963 H   0  0  0  0  0  0  0  0  0  0  0  0
  1  2  1  0  0  0  0
  1  6  1  0  0  0  0
  2  3  1  0  0  0  0
  3  4  1  0  0  0  0
  3  7  1  0  0  0  0
  4  5  1  0  0  0  0
  5  6  1  0  0  0  0
  7  8  1  0  0  0  0
  7 31  2  0  0  0  0
  8  9  2  0  0  0  0
  9 10  1  0  0  0  0
 10 11  2  0  0  0  0
 10 30  1  0  0  0  0
 11 12  1  0  0  0  0
 12 13  2  0  0  0  0
 12 20  1  0  0  0  0
 13 14  1  0  0  0  0
 14 15  2  0  0  0  0
 14 21  1  0  0  0  0
 15 16  1  0  0  0  0
 16 17  1  0  0  0  0
 16 20  1  0  0  0  0
 17 18  2  0  0  0  0
 18 19  1  0  0  0  0
 19 20  2  0  0  0  0
 21 22  2  0  0  0  0
 21 29  1  0  0  0  0
 22 23  1  0  0  0  0
 23 24  2  0  0  0  0
 24 25  1  0  0  0  0
 24 28  1  0  0  0  0
 25 26  2  0  0  0  0
 26 27  1  0  0  0  0
 27 28  2  0  0  0  0
 28 29  1  0  0  0  0
 30 31  1  0  0  0  0
  1 32  1  0  0  0  0
  1 33  1  0  0  0  0
  2 34  1  0  0  0  0
  2 35  1  0  0  0  0
  4 36  1  0  0  0  0
  4 37  1  0  0  0  0
  5 38  1  0  0  0  0
  5 39  1  0  0  0  0
  8 40  1  0  0  0  0
  9 41  1  0  0  0  0
 15 42  1  0  0  0  0
 17 43  1  0  0  0  0
 18 44  1  0  0  0  0
 22 45  1  0  0  0  0
 23 46  1  0  0  0  0
 25 47  1  0  0  0  0
 29 48  1  0  0  0  0
 29 49  1  0  0  0  0
 30 50  1  0  0  0  0
 30 51  1  0  0  0  0
 31 52  1  0  0  0  0
M  END
> <IC50[nM]>
7.7

$$$$
CHEMBL3265032
  -OEChem-05192314333D
 Structure written by MMmdl.
 52 57  0     1  0  0  0  0  0999 V2000
   -5.2528   -4.0279   13.4883 C   0  0  0  0  0  0  0  0  0  0  0  0
   -4.5590   -2.6369   13.4544 C   0  0  0  0  0  0  0  0  0  0  0  0
   -3.8919   -2.2470   14.7137 N   0  0  0  0  0  0  0  0  0  0  0  0
   -4.7198   -2.6287   15.8665 C   0  0  0  0  0  0  0  0  0  0  0  0
   -5.4261   -3.9885   15.8402 C   0  0  0  0  0  0  0  0  0  0  0  0
   -6.1177   -4.1508   14.6092 O   0  0  0  0  0  0  0  0  0  0  0  0
   -2.5101   -2.0763   14.8035 C   0  0  0  0  0  0  0  0  0  0  0  0
   -1.8815   -1.1097   14.0182 C   0  0  0  0  0  0  0  0  0  0  0  0
   -0.5196   -0.8466   14.1763 C   0  0  0  0  0  0  0  0  0  0  0  0
    0.2358   -1.5888   15.0999 C   0  0  0  0  0  0  0  0  0  0  0  0
    1.6095   -1.3595   15.3505 N   0  0  0  0  0  0  0  0  0  0  0  0
    2.5288   -0.4326   14.7915 C   0  0  0  0  0  0  0  0  0  0  0  0
    2.1515    0.4038   13.7773 N   0  0  0  0  0  0  0  0  0  0  0  0
    3.0856    1.2408   13.2315 C   0  0  0  0  0  0  0  0  0  0  0  0
    4.3919    1.2835   13.6955 C   0  0  0  0  0  0  0  0  0  0  0  0
    4.7346    0.4998   14.7545 N   0  0  0  0  0  0  0  0  0  0  0  0
    5.8922    0.3978   15.4788 C   0  0  0  0  0  0  0  0  0  0  0  0
    5.6049   -0.5481   16.4962 C   0  0  0  0  0  0  0  0  0  0  0  0
    4.3940   -1.0599   16.3510 N   0  0  0  0  0  0  0  0  0  0  0  0
    3.8344   -0.3880   15.3306 C   0  0  0  0  0  0  0  0  0  0  0  0
    2.6174    2.1451   12.1221 C   0  0  3  0  0  0  0  0  0  0  0  0
    3.5375    2.6360   11.1692 C   0  0  0  0  0  0  0  0  0  0  0  0
    3.1548    3.4584   10.1087 C   0  0  0  0  0  0  0  0  0  0  0  0
    1.8089    3.8176   10.0151 C   0  0  0  0  0  0  0  0  0  0  0  0
    0.9999    4.6108    9.1243 C   0  0  0  0  0  0  0  0  0  0  0  0
   -0.2405    4.6150    9.5301 N   0  0  0  0  0  0  0  0  0  0  0  0
   -0.3274    3.8782   10.6339 N   0  0  0  0  0  0  0  0  0  0  0  0
    0.8831    3.3398   10.9927 C   0  0  0  0  0  0  0  0  0  0  0  0
    1.2567    2.5006   12.0460 C   0  0  0  0  0  0  0  0  0  0  0  0
   -0.3865   -2.5955   15.8355 C   0  0  0  0  0  0  0  0  0  0  0  0
   -1.7498   -2.8337   15.7040 C   0  0  0  0  0  0  0  0  0  0  0  0
   -5.8405   -4.1569   12.5674 H   0  0  0  0  0  0  0  0  0  0  0  0
   -4.4820   -4.8107   13.5440 H   0  0  0  0  0  0  0  0  0  0  0  0
   -3.8021   -2.6512   12.6563 H   0  0  0  0  0  0  0  0  0  0  0  0
   -5.3221   -1.8793   13.2225 H   0  0  0  0  0  0  0  0  0  0  0  0
   -4.0678   -2.6183   16.7524 H   0  0  0  0  0  0  0  0  0  0  0  0
   -5.4990   -1.8599   15.9757 H   0  0  0  0  0  0  0  0  0  0  0  0
   -4.6797   -4.7893   15.9475 H   0  0  0  0  0  0  0  0  0  0  0  0
   -6.1441   -4.0427   16.6718 H   0  0  0  0  0  0  0  0  0  0  0  0
   -2.3543   -2.8315   14.0190 H   0  0  0  0  0  0  0  0  0  0  0  0
   -2.4521   -0.5614   13.2832 H   0  0  0  0  0  0  0  0  0  0  0  0
   -0.0469   -0.0731   13.5891 H   0  0  0  0  0  0  0  0  0  0  0  0
    5.1225    1.9256   13.2261 H   0  0  0  0  0  0  0  0  0  0  0  0
    6.8211    0.9228   15.3119 H   0  0  0  0  0  0  0  0  0  0  0  0
    6.2881   -0.8162   17.2885 H   0  0  0  0  0  0  0  0  0  0  0  0
    2.4252    1.2680   11.4866 H   0  0  0  0  0  0  0  0  0  0  0  0
    4.5783    2.3641   11.2652 H   0  0  0  0  0  0  0  0  0  0  0  0
    3.8763    3.8057    9.3840 H   0  0  0  0  0  0  0  0  0  0  0  0
    1.3665    5.1263    8.2490 H   0  0  0  0  0  0  0  0  0  0  0  0
    0.5368    2.1420   12.7668 H   0  0  0  0  0  0  0  0  0  0  0  0
    0.1972   -3.1978   16.5158 H   0  0  0  0  0  0  0  0  0  0  0  0
   -2.2230   -3.6029   16.2963 H   0  0  0  0  0  0  0  0  0  0  0  0
  1  2  1  0  0  0  0
  1  6  1  0  0  0  0
  2  3  1  0  0  0  0
  3  4  1  0  0  0  0
  3  7  1  0  0  0  0
  4  5  1  0  0  0  0
  5  6  1  0  0  0  0
  7  8  1  0  0  0  0
  7 31  1  0  0  0  0
  8  9  2  0  0  0  0
  9 10  1  0  0  0  0
 10 11  2  0  0  0  0
 10 30  1  0  0  0  0
 11 12  1  0  0  0  0
 12 13  2  0  0  0  0
 12 20  1  0  0  0  0
 13 14  1  0  0  0  0
 14 15  2  0  0  0  0
 14 21  1  0  0  0  0
 15 16  1  0  0  0  0
 16 17  1  0  0  0  0
 16 20  1  0  0  0  0
 17 18  2  0  0  0  0
 18 19  1  0  0  0  0
 19 20  2  0  0  0  0
 21 22  1  0  0  0  0
 21 29  1  0  0  0  0
 22 23  2  0  0  0  0
 23 24  1  0  0  0  0
 24 25  2  0  0  0  0
 24 28  1  0  0  0  0
 25 26  1  0  0  0  0
 26 27  2  0  0  0  0
 27 28  1  0  0  0  0
 28 29  2  0  0  0  0
 30 31  2  0  0  0  0
  1 32  1  0  0  0  0
  1 33  1  0  0  0  0
  2 34  1  0  0  0  0
  2 35  1  0  0  0  0
  4 36  1  0  0  0  0
  4 37  1  0  0  0  0
  5 38  1  0  0  0  0
  5 39  1  0  0  0  0
  7 40  1  0  0  0  0
  8 41  1  0  0  0  0
  9 42  1  0  0  0  0
 15 43  1  0  0  0  0
 17 44  1  0  0  0  0
 18 45  1  0  0  0  0
 21 46  1  0  0  0  0
 22 47  1  0  0  0  0
 23 48  1  0  0  0  0
 25 49  1  0  0  0  0
 29 50  1  0  0  0  0
 30 51  1  0  0  0  0
 31 52  1  0  0  0  0
M  END
> <IC50[nM]>
7.7

$$$$
CHEMBL3265032
  -OEChem-05192314333D
 Structure written by MMmdl.
 52 57  0     1  0  0  0  0  0999 V2000
   -5.2528   -4.0279   13.4883 C   0  0  0  0  0  0  0  0  0  0  0  0
   -4.5590   -2.6369   13.4544 C   0  0  0  0  0  0  0  0  0  0  0  0
   -3.8919   -2.2470   14.7137 N   0  0  0  0  0  0  0  0  0  0  0  0
   -4.7198   -2.6287   15.8665 C   0  0  0  0  0  0  0  0  0  0  0  0
   -5.4261   -3.9885   15.8402 C   0  0  0  0  0  0  0  0  0  0  0  0
   -6.1177   -4.1508   14.6092 O   0  0  0  0  0  0  0  0  0  0  0  0
   -2.5101   -2.0763   14.8035 C   0  0  0  0  0  0  0  0  0  0  0  0
   -1.8815   -1.1097   14.0182 C   0  0  0  0  0  0  0  0  0  0  0  0
   -0.5196   -0.8466   14.1763 C   0  0  0  0  0  0  0  0  0  0  0  0
    0.2358   -1.5888   15.0999 C   0  0  0  0  0  0  0  0  0  0  0  0
    1.6095   -1.3595   15.3505 N   0  0  0  0  0  0  0  0  0  0  0  0
    2.5288   -0.4326   14.7915 C   0  0  0  0  0  0  0  0  0  0  0  0
    2.1515    0.4038   13.7773 N   0  0  0  0  0  0  0  0  0  0  0  0
    3.0856    1.2408   13.2315 C   0  0  0  0  0  0  0  0  0  0  0  0
    4.3919    1.2835   13.6955 C   0  0  0  0  0  0  0  0  0  0  0  0
    4.7346    0.4998   14.7545 N   0  0  0  0  0  0  0  0  0  0  0  0
    5.8922    0.3978   15.4788 C   0  0  0  0  0  0  0  0  0  0  0  0
    5.6049   -0.5481   16.4962 C   0  0  0  0  0  0  0  0  0  0  0  0
    4.3940   -1.0599   16.3510 N   0  0  0  0  0  0  0  0  0  0  0  0
    3.8344   -0.3880   15.3306 C   0  0  0  0  0  0  0  0  0  0  0  0
    2.6174    2.1451   12.1221 C   0  0  0  0  0  0  0  0  0  0  0  0
    3.5375    2.6360   11.1692 C   0  0  0  0  0  0  0  0  0  0  0  0
    3.1548    3.4584   10.1087 C   0  0  0  0  0  0  0  0  0  0  0  0
    1.8089    3.8176   10.0151 C   0  0  0  0  0  0  0  0  0  0  0  0
    0.9999    4.6108    9.1243 C   0  0  0  0  0  0  0  0  0  0  0  0
   -0.2405    4.6150    9.5301 N   0  0  0  0  0  0  0  0  0  0  0  0
   -0.3274    3.8782   10.6339 N   0  0  0  0  0  0  0  0  0  0  0  0
    0.8831    3.3398   10.9927 C   0  0  3  0  0  0  0  0  0  0  0  0
    1.2567    2.5006   12.0460 C   0  0  0  0  0  0  0  0  0  0  0  0
   -0.3865   -2.5955   15.8355 C   0  0  0  0  0  0  0  0  0  0  0  0
   -1.7498   -2.8337   15.7040 C   0  0  0  0  0  0  0  0  0  0  0  0
   -5.8405   -4.1569   12.5674 H   0  0  0  0  0  0  0  0  0  0  0  0
   -4.4820   -4.8107   13.5440 H   0  0  0  0  0  0  0  0  0  0  0  0
   -3.8021   -2.6512   12.6563 H   0  0  0  0  0  0  0  0  0  0  0  0
   -5.3221   -1.8793   13.2225 H   0  0  0  0  0  0  0  0  0  0  0  0
   -4.0678   -2.6183   16.7524 H   0  0  0  0  0  0  0  0  0  0  0  0
   -5.4990   -1.8599   15.9757 H   0  0  0  0  0  0  0  0  0  0  0  0
   -4.6797   -4.7893   15.9475 H   0  0  0  0  0  0  0  0  0  0  0  0
   -6.1441   -4.0427   16.6718 H   0  0  0  0  0  0  0  0  0  0  0  0
   -2.3543   -2.8315   14.0190 H   0  0  0  0  0  0  0  0  0  0  0  0
   -2.4521   -0.5614   13.2832 H   0  0  0  0  0  0  0  0  0  0  0  0
   -0.0469   -0.0731   13.5891 H   0  0  0  0  0  0  0  0  0  0  0  0
    5.1225    1.9256   13.2261 H   0  0  0  0  0  0  0  0  0  0  0  0
    6.8211    0.9228   15.3119 H   0  0  0  0  0  0  0  0  0  0  0  0
    6.2881   -0.8162   17.2885 H   0  0  0  0  0  0  0  0  0  0  0  0
    4.5783    2.3641   11.2652 H   0  0  0  0  0  0  0  0  0  0  0  0
    3.8763    3.8057    9.3840 H   0  0  0  0  0  0  0  0  0  0  0  0
    1.3665    5.1263    8.2490 H   0  0  0  0  0  0  0  0  0  0  0  0
    1.0896    4.2198   11.6195 H   0  0  0  0  0  0  0  0  0  0  0  0
    0.5368    2.1420   12.7668 H   0  0  0  0  0  0  0  0  0  0  0  0
    0.1972   -3.1978   16.5158 H   0  0  0  0  0  0  0  0  0  0  0  0
   -2.2230   -3.6029   16.2963 H   0  0  0  0  0  0  0  0  0  0  0  0
  1  2  1  0  0  0  0
  1  6  1  0  0  0  0
  2  3  1  0  0  0  0
  3  4  1  0  0  0  0
  3  7  1  0  0  0  0
  4  5  1  0  0  0  0
  5  6  1  0  0  0  0
  7  8  1  0  0  0  0
  7 31  1  0  0  0  0
  8  9  2  0  0  0  0
  9 10  1  0  0  0  0
 10 11  2  0  0  0  0
 10 30  1  0  0  0  0
 11 12  1  0  0  0  0
 12 13  2  0  0  0  0
 12 20  1  0  0  0  0
 13 14  1  0  0  0  0
 14 15  2  0  0  0  0
 14 21  1  0  0  0  0
 15 16  1  0  0  0  0
 16 17  1  0  0  0  0
 16 20  1  0  0  0  0
 17 18  2  0  0  0  0
 18 19  1  0  0  0  0
 19 20  2  0  0  0  0
 21 22  1  0  0  0  0
 21 29  2  0  0  0  0
 22 23  2  0  0  0  0
 23 24  1  0  0  0  0
 24 25  2  0  0  0  0
 24 28  1  0  0  0  0
 25 26  1  0  0  0  0
 26 27  2  0  0  0  0
 27 28  1  0  0  0  0
 28 29  1  0  0  0  0
 30 31  2  0  0  0  0
  1 32  1  0  0  0  0
  1 33  1  0  0  0  0
  2 34  1  0  0  0  0
  2 35  1  0  0  0  0
  4 36  1  0  0  0  0
  4 37  1  0  0  0  0
  5 38  1  0  0  0  0
  5 39  1  0  0  0  0
  7 40  1  0  0  0  0
  8 41  1  0  0  0  0
  9 42  1  0  0  0  0
 15 43  1  0  0  0  0
 17 44  1  0  0  0  0
 18 45  1  0  0  0  0
 22 46  1  0  0  0  0
 23 47  1  0  0  0  0
 25 48  1  0  0  0  0
 28 49  1  0  0  0  0
 29 50  1  0  0  0  0
 30 51  1  0  0  0  0
 31 52  1  0  0  0  0
M  END
> <IC50[nM]>
7.7

$$$$
CHEMBL3265032
  -OEChem-05192314333D
 Structure written by MMmdl.
 52 57  0     1  0  0  0  0  0999 V2000
   -5.2528   -4.0279   13.4883 C   0  0  0  0  0  0  0  0  0  0  0  0
   -4.5590   -2.6369   13.4544 C   0  0  0  0  0  0  0  0  0  0  0  0
   -3.8919   -2.2470   14.7137 N   0  0  0  0  0  0  0  0  0  0  0  0
   -4.7198   -2.6287   15.8665 C   0  0  0  0  0  0  0  0  0  0  0  0
   -5.4261   -3.9885   15.8402 C   0  0  0  0  0  0  0  0  0  0  0  0
   -6.1177   -4.1508   14.6092 O   0  0  0  0  0  0  0  0  0  0  0  0
   -2.5101   -2.0763   14.8035 C   0  0  0  0  0  0  0  0  0  0  0  0
   -1.8815   -1.1097   14.0182 C   0  0  0  0  0  0  0  0  0  0  0  0
   -0.5196   -0.8466   14.1763 C   0  0  0  0  0  0  0  0  0  0  0  0
    0.2358   -1.5888   15.0999 C   0  0  0  0  0  0  0  0  0  0  0  0
    1.6095   -1.3595   15.3505 N   0  0  0  0  0  0  0  0  0  0  0  0
    2.5288   -0.4326   14.7915 C   0  0  0  0  0  0  0  0  0  0  0  0
    2.1515    0.4038   13.7773 N   0  0  0  0  0  0  0  0  0  0  0  0
    3.0856    1.2408   13.2315 C   0  0  0  0  0  0  0  0  0  0  0  0
    4.3919    1.2835   13.6955 C   0  0  0  0  0  0  0  0  0  0  0  0
    4.7346    0.4998   14.7545 N   0  0  0  0  0  0  0  0  0  0  0  0
    5.8922    0.3978   15.4788 C   0  0  0  0  0  0  0  0  0  0  0  0
    5.6049   -0.5481   16.4962 C   0  0  0  0  0  0  0  0  0  0  0  0
    4.3940   -1.0599   16.3510 N   0  0  0  0  0  0  0  0  0  0  0  0
    3.8344   -0.3880   15.3306 C   0  0  0  0  0  0  0  0  0  0  0  0
    2.6174    2.1451   12.1221 C   0  0  3  0  0  0  0  0  0  0  0  0
    3.5375    2.6360   11.1692 C   0  0  0  0  0  0  0  0  0  0  0  0
    3.1548    3.4584   10.1087 C   0  0  0  0  0  0  0  0  0  0  0  0
    1.8089    3.8176   10.0151 C   0  0  0  0  0  0  0  0  0  0  0  0
    0.9999    4.6108    9.1243 C   0  0  0  0  0  0  0  0  0  0  0  0
   -0.2405    4.6150    9.5301 N   0  0  0  0  0  0  0  0  0  0  0  0
   -0.3274    3.8782   10.6339 N   0  0  0  0  0  0  0  0  0  0  0  0
    0.8831    3.3398   10.9927 C   0  0  0  0  0  0  0  0  0  0  0  0
    1.2567    2.5006   12.0460 C   0  0  0  0  0  0  0  0  0  0  0  0
   -0.3865   -2.5955   15.8355 C   0  0  0  0  0  0  0  0  0  0  0  0
   -1.7498   -2.8337   15.7040 C   0  0  0  0  0  0  0  0  0  0  0  0
   -5.8405   -4.1569   12.5674 H   0  0  0  0  0  0  0  0  0  0  0  0
   -4.4820   -4.8107   13.5440 H   0  0  0  0  0  0  0  0  0  0  0  0
   -3.8021   -2.6512   12.6563 H   0  0  0  0  0  0  0  0  0  0  0  0
   -5.3221   -1.8793   13.2225 H   0  0  0  0  0  0  0  0  0  0  0  0
   -4.0678   -2.6183   16.7524 H   0  0  0  0  0  0  0  0  0  0  0  0
   -5.4990   -1.8599   15.9757 H   0  0  0  0  0  0  0  0  0  0  0  0
   -4.6797   -4.7893   15.9475 H   0  0  0  0  0  0  0  0  0  0  0  0
   -6.1441   -4.0427   16.6718 H   0  0  0  0  0  0  0  0  0  0  0  0
   -2.4521   -0.5614   13.2832 H   0  0  0  0  0  0  0  0  0  0  0  0
   -0.0469   -0.0731   13.5891 H   0  0  0  0  0  0  0  0  0  0  0  0
    5.1225    1.9256   13.2261 H   0  0  0  0  0  0  0  0  0  0  0  0
    6.8211    0.9228   15.3119 H   0  0  0  0  0  0  0  0  0  0  0  0
    6.2881   -0.8162   17.2885 H   0  0  0  0  0  0  0  0  0  0  0  0
    2.4252    1.2680   11.4866 H   0  0  0  0  0  0  0  0  0  0  0  0
    4.5783    2.3641   11.2652 H   0  0  0  0  0  0  0  0  0  0  0  0
    3.8763    3.8057    9.3840 H   0  0  0  0  0  0  0  0  0  0  0  0
    1.3665    5.1263    8.2490 H   0  0  0  0  0  0  0  0  0  0  0  0
    0.5368    2.1420   12.7668 H   0  0  0  0  0  0  0  0  0  0  0  0
    0.1228   -3.5350   15.5749 H   0  0  0  0  0  0  0  0  0  0  0  0
   -0.2092   -2.3643   16.8962 H   0  0  0  0  0  0  0  0  0  0  0  0
   -2.2230   -3.6029   16.2963 H   0  0  0  0  0  0  0  0  0  0  0  0
  1  2  1  0  0  0  0
  1  6  1  0  0  0  0
  2  3  1  0  0  0  0
  3  4  1  0  0  0  0
  3  7  1  0  0  0  0
  4  5  1  0  0  0  0
  5  6  1  0  0  0  0
  7  8  1  0  0  0  0
  7 31  2  0  0  0  0
  8  9  2  0  0  0  0
  9 10  1  0  0  0  0
 10 11  2  0  0  0  0
 10 30  1  0  0  0  0
 11 12  1  0  0  0  0
 12 13  2  0  0  0  0
 12 20  1  0  0  0  0
 13 14  1  0  0  0  0
 14 15  2  0  0  0  0
 14 21  1  0  0  0  0
 15 16  1  0  0  0  0
 16 17  1  0  0  0  0
 16 20  1  0  0  0  0
 17 18  2  0  0  0  0
 18 19  1  0  0  0  0
 19 20  2  0  0  0  0
 21 22  1  0  0  0  0
 21 29  1  0  0  0  0
 22 23  2  0  0  0  0
 23 24  1  0  0  0  0
 24 25  2  0  0  0  0
 24 28  1  0  0  0  0
 25 26  1  0  0  0  0
 26 27  2  0  0  0  0
 27 28  1  0  0  0  0
 28 29  2  0  0  0  0
 30 31  1  0  0  0  0
  1 32  1  0  0  0  0
  1 33  1  0  0  0  0
  2 34  1  0  0  0  0
  2 35  1  0  0  0  0
  4 36  1  0  0  0  0
  4 37  1  0  0  0  0
  5 38  1  0  0  0  0
  5 39  1  0  0  0  0
  8 40  1  0  0  0  0
  9 41  1  0  0  0  0
 15 42  1  0  0  0  0
 17 43  1  0  0  0  0
 18 44  1  0  0  0  0
 21 45  1  0  0  0  0
 22 46  1  0  0  0  0
 23 47  1  0  0  0  0
 25 48  1  0  0  0  0
 29 49  1  0  0  0  0
 30 50  1  0  0  0  0
 30 51  1  0  0  0  0
 31 52  1  0  0  0  0
M  END
> <IC50[nM]>
7.7

$$$$
CHEMBL3265032
  -OEChem-05192314333D
 Structure written by MMmdl.
 52 57  0     1  0  0  0  0  0999 V2000
   -5.2528   -4.0279   13.4883 C   0  0  0  0  0  0  0  0  0  0  0  0
   -4.5590   -2.6369   13.4544 C   0  0  0  0  0  0  0  0  0  0  0  0
   -3.8919   -2.2470   14.7137 N   0  0  0  0  0  0  0  0  0  0  0  0
   -4.7198   -2.6287   15.8665 C   0  0  0  0  0  0  0  0  0  0  0  0
   -5.4261   -3.9885   15.8402 C   0  0  0  0  0  0  0  0  0  0  0  0
   -6.1177   -4.1508   14.6092 O   0  0  0  0  0  0  0  0  0  0  0  0
   -2.5101   -2.0763   14.8035 C   0  0  0  0  0  0  0  0  0  0  0  0
   -1.8815   -1.1097   14.0182 C   0  0  0  0  0  0  0  0  0  0  0  0
   -0.5196   -0.8466   14.1763 C   0  0  0  0  0  0  0  0  0  0  0  0
    0.2358   -1.5888   15.0999 C   0  0  0  0  0  0  0  0  0  0  0  0
    1.6095   -1.3595   15.3505 N   0  0  0  0  0  0  0  0  0  0  0  0
    2.5288   -0.4326   14.7915 C   0  0  0  0  0  0  0  0  0  0  0  0
    2.1515    0.4038   13.7773 N   0  0  0  0  0  0  0  0  0  0  0  0
    3.0856    1.2408   13.2315 C   0  0  0  0  0  0  0  0  0  0  0  0
    4.3919    1.2835   13.6955 C   0  0  0  0  0  0  0  0  0  0  0  0
    4.7346    0.4998   14.7545 N   0  0  0  0  0  0  0  0  0  0  0  0
    5.8922    0.3978   15.4788 C   0  0  0  0  0  0  0  0  0  0  0  0
    5.6049   -0.5481   16.4962 C   0  0  0  0  0  0  0  0  0  0  0  0
    4.3940   -1.0599   16.3510 N   0  0  0  0  0  0  0  0  0  0  0  0
    3.8344   -0.3880   15.3306 C   0  0  0  0  0  0  0  0  0  0  0  0
    2.6174    2.1451   12.1221 C   0  0  0  0  0  0  0  0  0  0  0  0
    3.5375    2.6360   11.1692 C   0  0  0  0  0  0  0  0  0  0  0  0
    3.1548    3.4584   10.1087 C   0  0  0  0  0  0  0  0  0  0  0  0
    1.8089    3.8176   10.0151 C   0  0  0  0  0  0  0  0  0  0  0  0
    0.9999    4.6108    9.1243 C   0  0  0  0  0  0  0  0  0  0  0  0
   -0.2405    4.6150    9.5301 N   0  0  0  0  0  0  0  0  0  0  0  0
   -0.3274    3.8782   10.6339 N   0  0  0  0  0  0  0  0  0  0  0  0
    0.8831    3.3398   10.9927 C   0  0  3  0  0  0  0  0  0  0  0  0
    1.2567    2.5006   12.0460 C   0  0  0  0  0  0  0  0  0  0  0  0
   -0.3865   -2.5955   15.8355 C   0  0  0  0  0  0  0  0  0  0  0  0
   -1.7498   -2.8337   15.7040 C   0  0  0  0  0  0  0  0  0  0  0  0
   -5.8405   -4.1569   12.5674 H   0  0  0  0  0  0  0  0  0  0  0  0
   -4.4820   -4.8107   13.5440 H   0  0  0  0  0  0  0  0  0  0  0  0
   -3.8021   -2.6512   12.6563 H   0  0  0  0  0  0  0  0  0  0  0  0
   -5.3221   -1.8793   13.2225 H   0  0  0  0  0  0  0  0  0  0  0  0
   -4.0678   -2.6183   16.7524 H   0  0  0  0  0  0  0  0  0  0  0  0
   -5.4990   -1.8599   15.9757 H   0  0  0  0  0  0  0  0  0  0  0  0
   -4.6797   -4.7893   15.9475 H   0  0  0  0  0  0  0  0  0  0  0  0
   -6.1441   -4.0427   16.6718 H   0  0  0  0  0  0  0  0  0  0  0  0
   -2.4521   -0.5614   13.2832 H   0  0  0  0  0  0  0  0  0  0  0  0
   -0.0469   -0.0731   13.5891 H   0  0  0  0  0  0  0  0  0  0  0  0
    5.1225    1.9256   13.2261 H   0  0  0  0  0  0  0  0  0  0  0  0
    6.8211    0.9228   15.3119 H   0  0  0  0  0  0  0  0  0  0  0  0
    6.2881   -0.8162   17.2885 H   0  0  0  0  0  0  0  0  0  0  0  0
    4.5783    2.3641   11.2652 H   0  0  0  0  0  0  0  0  0  0  0  0
    3.8763    3.8057    9.3840 H   0  0  0  0  0  0  0  0  0  0  0  0
    1.3665    5.1263    8.2490 H   0  0  0  0  0  0  0  0  0  0  0  0
    1.0896    4.2198   11.6195 H   0  0  0  0  0  0  0  0  0  0  0  0
    0.5368    2.1420   12.7668 H   0  0  0  0  0  0  0  0  0  0  0  0
    0.1228   -3.5350   15.5749 H   0  0  0  0  0  0  0  0  0  0  0  0
   -0.2092   -2.3643   16.8962 H   0  0  0  0  0  0  0  0  0  0  0  0
   -2.2230   -3.6029   16.2963 H   0  0  0  0  0  0  0  0  0  0  0  0
  1  2  1  0  0  0  0
  1  6  1  0  0  0  0
  2  3  1  0  0  0  0
  3  4  1  0  0  0  0
  3  7  1  0  0  0  0
  4  5  1  0  0  0  0
  5  6  1  0  0  0  0
  7  8  1  0  0  0  0
  7 31  2  0  0  0  0
  8  9  2  0  0  0  0
  9 10  1  0  0  0  0
 10 11  2  0  0  0  0
 10 30  1  0  0  0  0
 11 12  1  0  0  0  0
 12 13  2  0  0  0  0
 12 20  1  0  0  0  0
 13 14  1  0  0  0  0
 14 15  2  0  0  0  0
 14 21  1  0  0  0  0
 15 16  1  0  0  0  0
 16 17  1  0  0  0  0
 16 20  1  0  0  0  0
 17 18  2  0  0  0  0
 18 19  1  0  0  0  0
 19 20  2  0  0  0  0
 21 22  1  0  0  0  0
 21 29  2  0  0  0  0
 22 23  2  0  0  0  0
 23 24  1  0  0  0  0
 24 25  2  0  0  0  0
 24 28  1  0  0  0  0
 25 26  1  0  0  0  0
 26 27  2  0  0  0  0
 27 28  1  0  0  0  0
 28 29  1  0  0  0  0
 30 31  1  0  0  0  0
  1 32  1  0  0  0  0
  1 33  1  0  0  0  0
  2 34  1  0  0  0  0
  2 35  1  0  0  0  0
  4 36  1  0  0  0  0
  4 37  1  0  0  0  0
  5 38  1  0  0  0  0
  5 39  1  0  0  0  0
  8 40  1  0  0  0  0
  9 41  1  0  0  0  0
 15 42  1  0  0  0  0
 17 43  1  0  0  0  0
 18 44  1  0  0  0  0
 22 45  1  0  0  0  0
 23 46  1  0  0  0  0
 25 47  1  0  0  0  0
 28 48  1  0  0  0  0
 29 49  1  0  0  0  0
 30 50  1  0  0  0  0
 30 51  1  0  0  0  0
 31 52  1  0  0  0  0
M  END
> <IC50[nM]>
7.7

$$$$
CHEMBL3265032
  -OEChem-05192314333D
 Structure written by MMmdl.
 52 57  0     0  0  0  0  0  0999 V2000
   -5.2528   -4.0279   13.4883 C   0  0  0  0  0  0  0  0  0  0  0  0
   -4.5590   -2.6369   13.4544 C   0  0  0  0  0  0  0  0  0  0  0  0
   -3.8919   -2.2470   14.7137 N   0  0  0  0  0  0  0  0  0  0  0  0
   -4.7198   -2.6287   15.8665 C   0  0  0  0  0  0  0  0  0  0  0  0
   -5.4261   -3.9885   15.8402 C   0  0  0  0  0  0  0  0  0  0  0  0
   -6.1177   -4.1508   14.6092 O   0  0  0  0  0  0  0  0  0  0  0  0
   -2.5101   -2.0763   14.8035 C   0  0  0  0  0  0  0  0  0  0  0  0
   -1.8815   -1.1097   14.0182 C   0  0  0  0  0  0  0  0  0  0  0  0
   -0.5196   -0.8466   14.1763 C   0  0  0  0  0  0  0  0  0  0  0  0
    0.2358   -1.5888   15.0999 C   0  0  0  0  0  0  0  0  0  0  0  0
    1.6095   -1.3595   15.3505 N   0  0  0  0  0  0  0  0  0  0  0  0
    2.5288   -0.4326   14.7915 C   0  0  0  0  0  0  0  0  0  0  0  0
    2.1515    0.4038   13.7773 N   0  0  0  0  0  0  0  0  0  0  0  0
    3.0856    1.2408   13.2315 C   0  0  0  0  0  0  0  0  0  0  0  0
    4.3919    1.2835   13.6955 C   0  0  0  0  0  0  0  0  0  0  0  0
    4.7346    0.4998   14.7545 N   0  0  0  0  0  0  0  0  0  0  0  0
    5.8922    0.3978   15.4788 C   0  0  0  0  0  0  0  0  0  0  0  0
    5.6049   -0.5481   16.4962 C   0  0  0  0  0  0  0  0  0  0  0  0
    4.3940   -1.0599   16.3510 N   0  0  0  0  0  0  0  0  0  0  0  0
    3.8344   -0.3880   15.3306 C   0  0  0  0  0  0  0  0  0  0  0  0
    2.6174    2.1451   12.1221 C   0  0  0  0  0  0  0  0  0  0  0  0
    3.5375    2.6360   11.1692 C   0  0  0  0  0  0  0  0  0  0  0  0
    3.1548    3.4584   10.1087 C   0  0  0  0  0  0  0  0  0  0  0  0
    1.8089    3.8176   10.0151 C   0  0  0  0  0  0  0  0  0  0  0  0
    0.9999    4.6108    9.1243 C   0  0  0  0  0  0  0  0  0  0  0  0
   -0.2405    4.6150    9.5301 N   0  0  0  0  0  0  0  0  0  0  0  0
   -0.3274    3.8782   10.6339 N   0  0  0  0  0  0  0  0  0  0  0  0
    0.8831    3.3398   10.9927 C   0  0  0  0  0  0  0  0  0  0  0  0
    1.2567    2.5006   12.0460 C   0  0  0  0  0  0  0  0  0  0  0  0
   -0.3865   -2.5955   15.8355 C   0  0  0  0  0  0  0  0  0  0  0  0
   -1.7498   -2.8337   15.7040 C   0  0  0  0  0  0  0  0  0  0  0  0
   -5.8405   -4.1569   12.5674 H   0  0  0  0  0  0  0  0  0  0  0  0
   -4.4820   -4.8107   13.5440 H   0  0  0  0  0  0  0  0  0  0  0  0
   -3.8021   -2.6512   12.6563 H   0  0  0  0  0  0  0  0  0  0  0  0
   -5.3221   -1.8793   13.2225 H   0  0  0  0  0  0  0  0  0  0  0  0
   -4.0678   -2.6183   16.7524 H   0  0  0  0  0  0  0  0  0  0  0  0
   -5.4990   -1.8599   15.9757 H   0  0  0  0  0  0  0  0  0  0  0  0
   -4.6797   -4.7893   15.9475 H   0  0  0  0  0  0  0  0  0  0  0  0
   -6.1441   -4.0427   16.6718 H   0  0  0  0  0  0  0  0  0  0  0  0
   -2.3543   -2.8315   14.0190 H   0  0  0  0  0  0  0  0  0  0  0  0
   -2.4521   -0.5614   13.2832 H   0  0  0  0  0  0  0  0  0  0  0  0
   -0.0469   -0.0731   13.5891 H   0  0  0  0  0  0  0  0  0  0  0  0
    5.1225    1.9256   13.2261 H   0  0  0  0  0  0  0  0  0  0  0  0
    6.8211    0.9228   15.3119 H   0  0  0  0  0  0  0  0  0  0  0  0
    6.2881   -0.8162   17.2885 H   0  0  0  0  0  0  0  0  0  0  0  0
    4.5783    2.3641   11.2652 H   0  0  0  0  0  0  0  0  0  0  0  0
    3.7375    4.3880   10.1879 H   0  0  0  0  0  0  0  0  0  0  0  0
    3.4206    2.9372    9.1772 H   0  0  0  0  0  0  0  0  0  0  0  0
    1.3665    5.1263    8.2490 H   0  0  0  0  0  0  0  0  0  0  0  0
    0.5368    2.1420   12.7668 H   0  0  0  0  0  0  0  0  0  0  0  0
    0.1972   -3.1978   16.5158 H   0  0  0  0  0  0  0  0  0  0  0  0
   -2.2230   -3.6029   16.2963 H   0  0  0  0  0  0  0  0  0  0  0  0
  1  2  1  0  0  0  0
  1  6  1  0  0  0  0
  2  3  1  0  0  0  0
  3  4  1  0  0  0  0
  3  7  1  0  0  0  0
  4  5  1  0  0  0  0
  5  6  1  0  0  0  0
  7  8  1  0  0  0  0
  7 31  1  0  0  0  0
  8  9  2  0  0  0  0
  9 10  1  0  0  0  0
 10 11  2  0  0  0  0
 10 30  1  0  0  0  0
 11 12  1  0  0  0  0
 12 13  2  0  0  0  0
 12 20  1  0  0  0  0
 13 14  1  0  0  0  0
 14 15  2  0  0  0  0
 14 21  1  0  0  0  0
 15 16  1  0  0  0  0
 16 17  1  0  0  0  0
 16 20  1  0  0  0  0
 17 18  2  0  0  0  0
 18 19  1  0  0  0  0
 19 20  2  0  0  0  0
 21 22  2  0  0  0  0
 21 29  1  0  0  0  0
 22 23  1  0  0  0  0
 23 24  1  0  0  0  0
 24 25  2  0  0  0  0
 24 28  1  0  0  0  0
 25 26  1  0  0  0  0
 26 27  2  0  0  0  0
 27 28  1  0  0  0  0
 28 29  2  0  0  0  0
 30 31  2  0  0  0  0
  1 32  1  0  0  0  0
  1 33  1  0  0  0  0
  2 34  1  0  0  0  0
  2 35  1  0  0  0  0
  4 36  1  0  0  0  0
  4 37  1  0  0  0  0
  5 38  1  0  0  0  0
  5 39  1  0  0  0  0
  7 40  1  0  0  0  0
  8 41  1  0  0  0  0
  9 42  1  0  0  0  0
 15 43  1  0  0  0  0
 17 44  1  0  0  0  0
 18 45  1  0  0  0  0
 22 46  1  0  0  0  0
 23 47  1  0  0  0  0
 23 48  1  0  0  0  0
 25 49  1  0  0  0  0
 29 50  1  0  0  0  0
 30 51  1  0  0  0  0
 31 52  1  0  0  0  0
M  END
> <IC50[nM]>
7.7

$$$$
CHEMBL3265032
  -OEChem-05192314333D
 Structure written by MMmdl.
 52 57  0     0  0  0  0  0  0999 V2000
   -5.2528   -4.0279   13.4883 C   0  0  0  0  0  0  0  0  0  0  0  0
   -4.5590   -2.6369   13.4544 C   0  0  0  0  0  0  0  0  0  0  0  0
   -3.8919   -2.2470   14.7137 N   0  0  0  0  0  0  0  0  0  0  0  0
   -4.7198   -2.6287   15.8665 C   0  0  0  0  0  0  0  0  0  0  0  0
   -5.4261   -3.9885   15.8402 C   0  0  0  0  0  0  0  0  0  0  0  0
   -6.1177   -4.1508   14.6092 O   0  0  0  0  0  0  0  0  0  0  0  0
   -2.5101   -2.0763   14.8035 C   0  0  0  0  0  0  0  0  0  0  0  0
   -1.8815   -1.1097   14.0182 C   0  0  0  0  0  0  0  0  0  0  0  0
   -0.5196   -0.8466   14.1763 C   0  0  0  0  0  0  0  0  0  0  0  0
    0.2358   -1.5888   15.0999 C   0  0  0  0  0  0  0  0  0  0  0  0
    1.6095   -1.3595   15.3505 N   0  0  0  0  0  0  0  0  0  0  0  0
    2.5288   -0.4326   14.7915 C   0  0  0  0  0  0  0  0  0  0  0  0
    2.1515    0.4038   13.7773 N   0  0  0  0  0  0  0  0  0  0  0  0
    3.0856    1.2408   13.2315 C   0  0  0  0  0  0  0  0  0  0  0  0
    4.3919    1.2835   13.6955 C   0  0  0  0  0  0  0  0  0  0  0  0
    4.7346    0.4998   14.7545 N   0  0  0  0  0  0  0  0  0  0  0  0
    5.8922    0.3978   15.4788 C   0  0  0  0  0  0  0  0  0  0  0  0
    5.6049   -0.5481   16.4962 C   0  0  0  0  0  0  0  0  0  0  0  0
    4.3940   -1.0599   16.3510 N   0  0  0  0  0  0  0  0  0  0  0  0
    3.8344   -0.3880   15.3306 C   0  0  0  0  0  0  0  0  0  0  0  0
    2.6174    2.1451   12.1221 C   0  0  0  0  0  0  0  0  0  0  0  0
    3.5375    2.6360   11.1692 C   0  0  0  0  0  0  0  0  0  0  0  0
    3.1548    3.4584   10.1087 C   0  0  0  0  0  0  0  0  0  0  0  0
    1.8089    3.8176   10.0151 C   0  0  0  0  0  0  0  0  0  0  0  0
    0.9999    4.6108    9.1243 C   0  0  0  0  0  0  0  0  0  0  0  0
   -0.2405    4.6150    9.5301 N   0  0  0  0  0  0  0  0  0  0  0  0
   -0.3274    3.8782   10.6339 N   0  0  0  0  0  0  0  0  0  0  0  0
    0.8831    3.3398   10.9927 C   0  0  0  0  0  0  0  0  0  0  0  0
    1.2567    2.5006   12.0460 C   0  0  0  0  0  0  0  0  0  0  0  0
   -0.3865   -2.5955   15.8355 C   0  0  0  0  0  0  0  0  0  0  0  0
   -1.7498   -2.8337   15.7040 C   0  0  0  0  0  0  0  0  0  0  0  0
   -5.8405   -4.1569   12.5674 H   0  0  0  0  0  0  0  0  0  0  0  0
   -4.4820   -4.8107   13.5440 H   0  0  0  0  0  0  0  0  0  0  0  0
   -3.8021   -2.6512   12.6563 H   0  0  0  0  0  0  0  0  0  0  0  0
   -5.3221   -1.8793   13.2225 H   0  0  0  0  0  0  0  0  0  0  0  0
   -4.0678   -2.6183   16.7524 H   0  0  0  0  0  0  0  0  0  0  0  0
   -5.4990   -1.8599   15.9757 H   0  0  0  0  0  0  0  0  0  0  0  0
   -4.6797   -4.7893   15.9475 H   0  0  0  0  0  0  0  0  0  0  0  0
   -6.1441   -4.0427   16.6718 H   0  0  0  0  0  0  0  0  0  0  0  0
   -2.4521   -0.5614   13.2832 H   0  0  0  0  0  0  0  0  0  0  0  0
   -0.0469   -0.0731   13.5891 H   0  0  0  0  0  0  0  0  0  0  0  0
    5.1225    1.9256   13.2261 H   0  0  0  0  0  0  0  0  0  0  0  0
    6.8211    0.9228   15.3119 H   0  0  0  0  0  0  0  0  0  0  0  0
    6.2881   -0.8162   17.2885 H   0  0  0  0  0  0  0  0  0  0  0  0
    4.5783    2.3641   11.2652 H   0  0  0  0  0  0  0  0  0  0  0  0
    3.7375    4.3880   10.1879 H   0  0  0  0  0  0  0  0  0  0  0  0
    3.4206    2.9372    9.1772 H   0  0  0  0  0  0  0  0  0  0  0  0
    1.3665    5.1263    8.2490 H   0  0  0  0  0  0  0  0  0  0  0  0
    0.5368    2.1420   12.7668 H   0  0  0  0  0  0  0  0  0  0  0  0
    0.1228   -3.5350   15.5749 H   0  0  0  0  0  0  0  0  0  0  0  0
   -0.2092   -2.3643   16.8962 H   0  0  0  0  0  0  0  0  0  0  0  0
   -2.2230   -3.6029   16.2963 H   0  0  0  0  0  0  0  0  0  0  0  0
  1  2  1  0  0  0  0
  1  6  1  0  0  0  0
  2  3  1  0  0  0  0
  3  4  1  0  0  0  0
  3  7  1  0  0  0  0
  4  5  1  0  0  0  0
  5  6  1  0  0  0  0
  7  8  1  0  0  0  0
  7 31  2  0  0  0  0
  8  9  2  0  0  0  0
  9 10  1  0  0  0  0
 10 11  2  0  0  0  0
 10 30  1  0  0  0  0
 11 12  1  0  0  0  0
 12 13  2  0  0  0  0
 12 20  1  0  0  0  0
 13 14  1  0  0  0  0
 14 15  2  0  0  0  0
 14 21  1  0  0  0  0
 15 16  1  0  0  0  0
 16 17  1  0  0  0  0
 16 20  1  0  0  0  0
 17 18  2  0  0  0  0
 18 19  1  0  0  0  0
 19 20  2  0  0  0  0
 21 22  2  0  0  0  0
 21 29  1  0  0  0  0
 22 23  1  0  0  0  0
 23 24  1  0  0  0  0
 24 25  2  0  0  0  0
 24 28  1  0  0  0  0
 25 26  1  0  0  0  0
 26 27  2  0  0  0  0
 27 28  1  0  0  0  0
 28 29  2  0  0  0  0
 30 31  1  0  0  0  0
  1 32  1  0  0  0  0
  1 33  1  0  0  0  0
  2 34  1  0  0  0  0
  2 35  1  0  0  0  0
  4 36  1  0  0  0  0
  4 37  1  0  0  0  0
  5 38  1  0  0  0  0
  5 39  1  0  0  0  0
  8 40  1  0  0  0  0
  9 41  1  0  0  0  0
 15 42  1  0  0  0  0
 17 43  1  0  0  0  0
 18 44  1  0  0  0  0
 22 45  1  0  0  0  0
 23 46  1  0  0  0  0
 23 47  1  0  0  0  0
 25 48  1  0  0  0  0
 29 49  1  0  0  0  0
 30 50  1  0  0  0  0
 30 51  1  0  0  0  0
 31 52  1  0  0  0  0
M  END
> <IC50[nM]>
7.7

$$$$
