CHEMBL3265020
  -OEChem-05192314333D
 Structure written by MMmdl.
 48 52  0     0  0  0  0  0  0999 V2000
   -4.2567   -3.1041   13.5694 C   0  0  0  0  0  0  0  0  0  0  0  0
   -3.8737   -2.3598   14.7157 O   0  0  0  0  0  0  0  0  0  0  0  0
   -2.5259   -2.1106   14.8172 C   0  0  0  0  0  0  0  0  0  0  0  0
   -1.7455   -2.8698   15.6821 C   0  0  0  0  0  0  0  0  0  0  0  0
   -0.3904   -2.6103   15.8138 C   0  0  0  0  0  0  0  0  0  0  0  0
    0.2204   -1.5845   15.0865 C   0  0  0  0  0  0  0  0  0  0  0  0
    1.6043   -1.3599   15.3203 N   0  0  0  0  0  0  0  0  0  0  0  0
    2.5377   -0.4463   14.7588 C   0  0  0  0  0  0  0  0  0  0  0  0
    2.1842    0.3709   13.7215 N   0  0  0  0  0  0  0  0  0  0  0  0
    3.1172    1.2388   13.2173 C   0  0  0  0  0  0  0  0  0  0  0  0
    4.4204    1.2848   13.7037 C   0  0  0  0  0  0  0  0  0  0  0  0
    4.7469    0.4890   14.7614 N   0  0  0  0  0  0  0  0  0  0  0  0
    5.8976    0.3763   15.4868 C   0  0  0  0  0  0  0  0  0  0  0  0
    5.5864   -0.5217   16.5304 C   0  0  0  0  0  0  0  0  0  0  0  0
    4.3754   -1.0422   16.3738 N   0  0  0  0  0  0  0  0  0  0  0  0
    3.8369   -0.3917   15.3265 C   0  0  0  0  0  0  0  0  0  0  0  0
    2.6436    2.1633   12.1173 C   0  0  0  0  0  0  0  0  0  0  0  0
    3.5480    2.6409   11.1599 C   0  0  0  0  0  0  0  0  0  0  0  0
    3.1566    3.4683   10.0981 C   0  0  0  0  0  0  0  0  0  0  0  0
    1.8094    3.8079   10.0262 C   0  0  0  0  0  0  0  0  0  0  0  0
    1.1129    4.5678    9.1158 N   0  0  0  0  0  0  0  0  0  0  0  0
   -0.1959    4.6369    9.4439 C   0  0  0  0  0  0  0  0  0  0  0  0
   -0.4233    3.9255   10.6079 C   0  0  0  0  0  0  0  0  0  0  0  0
    0.8581    3.3610   11.0052 C   0  0  0  0  0  0  0  0  0  0  0  0
    1.2923    2.5453   12.0556 C   0  0  0  0  0  0  0  0  0  0  0  0
   -0.5553   -0.8190   14.1924 C   0  0  0  0  0  0  0  0  0  0  0  0
   -1.9451   -1.0886   14.0616 C   0  0  0  0  0  0  0  0  0  0  0  0
   -2.7542   -0.3572   13.2046 O   0  0  0  0  0  0  0  0  0  0  0  0
   -2.2337    0.6443   12.3523 C   0  0  0  0  0  0  0  0  0  0  0  0
   -5.3466   -3.2526   13.5753 H   0  0  0  0  0  0  0  0  0  0  0  0
   -3.9666   -2.5545   12.6618 H   0  0  0  0  0  0  0  0  0  0  0  0
   -3.7535   -4.0821   13.5824 H   0  0  0  0  0  0  0  0  0  0  0  0
   -2.1978   -3.6662   16.2545 H   0  0  0  0  0  0  0  0  0  0  0  0
    0.2027   -3.2097   16.4886 H   0  0  0  0  0  0  0  0  0  0  0  0
    1.9981   -1.9617   16.0151 H   0  0  0  0  0  0  0  0  0  0  0  0
    5.1556    1.9355   13.2539 H   0  0  0  0  0  0  0  0  0  0  0  0
    6.8415    0.8677   15.3023 H   0  0  0  0  0  0  0  0  0  0  0  0
    6.2486   -0.7553   17.3510 H   0  0  0  0  0  0  0  0  0  0  0  0
    4.5877    2.3606   11.2431 H   0  0  0  0  0  0  0  0  0  0  0  0
    3.8686    3.8259    9.3690 H   0  0  0  0  0  0  0  0  0  0  0  0
    1.5209    5.0103    8.3172 H   0  0  0  0  0  0  0  0  0  0  0  0
   -0.9504    5.1675    8.8821 H   0  0  0  0  0  0  0  0  0  0  0  0
   -1.3666    3.8112   11.1213 H   0  0  0  0  0  0  0  0  0  0  0  0
    0.5963    2.2125   12.8114 H   0  0  0  0  0  0  0  0  0  0  0  0
   -0.0969   -0.0330   13.6106 H   0  0  0  0  0  0  0  0  0  0  0  0
   -3.0515    1.0894   11.7666 H   0  0  0  0  0  0  0  0  0  0  0  0
   -1.7491    1.4248   12.9572 H   0  0  0  0  0  0  0  0  0  0  0  0
   -1.4953    0.1977   11.6702 H   0  0  0  0  0  0  0  0  0  0  0  0
  1  2  1  0  0  0  0
  2  3  1  0  0  0  0
  3  4  2  0  0  0  0
  3 27  1  0  0  0  0
  4  5  1  0  0  0  0
  5  6  2  0  0  0  0
  6  7  1  0  0  0  0
  6 26  1  0  0  0  0
  7  8  1  0  0  0  0
  8  9  2  0  0  0  0
  8 16  1  0  0  0  0
  9 10  1  0  0  0  0
 10 11  2  0  0  0  0
 10 17  1  0  0  0  0
 11 12  1  0  0  0  0
 12 13  1  0  0  0  0
 12 16  1  0  0  0  0
 13 14  2  0  0  0  0
 14 15  1  0  0  0  0
 15 16  2  0  0  0  0
 17 18  2  0  0  0  0
 17 25  1  0  0  0  0
 18 19  1  0  0  0  0
 19 20  2  0  0  0  0
 20 21  1  0  0  0  0
 20 24  1  0  0  0  0
 21 22  1  0  0  0  0
 22 23  2  0  0  0  0
 23 24  1  0  0  0  0
 24 25  2  0  0  0  0
 26 27  2  0  0  0  0
 27 28  1  0  0  0  0
 28 29  1  0  0  0  0
  1 30  1  0  0  0  0
  1 31  1  0  0  0  0
  1 32  1  0  0  0  0
  4 33  1  0  0  0  0
  5 34  1  0  0  0  0
  7 35  1  0  0  0  0
 11 36  1  0  0  0  0
 13 37  1  0  0  0  0
 14 38  1  0  0  0  0
 18 39  1  0  0  0  0
 19 40  1  0  0  0  0
 21 41  1  0  0  0  0
 22 42  1  0  0  0  0
 23 43  1  0  0  0  0
 25 44  1  0  0  0  0
 26 45  1  0  0  0  0
 29 46  1  0  0  0  0
 29 47  1  0  0  0  0
 29 48  1  0  0  0  0
M  END
> <IC50[nM]>
8.6

$$$$
CHEMBL3265020
  -OEChem-05192314333D
 Structure written by MMmdl.
 48 52  0     0  0  0  0  0  0999 V2000
   -4.2567   -3.1041   13.5694 C   0  0  0  0  0  0  0  0  0  0  0  0
   -3.8737   -2.3598   14.7157 O   0  0  0  0  0  0  0  0  0  0  0  0
   -2.5259   -2.1106   14.8172 C   0  0  0  0  0  0  0  0  0  0  0  0
   -1.7455   -2.8698   15.6821 C   0  0  0  0  0  0  0  0  0  0  0  0
   -0.3904   -2.6103   15.8138 C   0  0  0  0  0  0  0  0  0  0  0  0
    0.2204   -1.5845   15.0865 C   0  0  0  0  0  0  0  0  0  0  0  0
    1.6043   -1.3599   15.3203 N   0  0  0  0  0  0  0  0  0  0  0  0
    2.5377   -0.4463   14.7588 C   0  0  0  0  0  0  0  0  0  0  0  0
    2.1842    0.3709   13.7215 N   0  0  0  0  0  0  0  0  0  0  0  0
    3.1172    1.2388   13.2173 C   0  0  0  0  0  0  0  0  0  0  0  0
    4.4204    1.2848   13.7037 C   0  0  0  0  0  0  0  0  0  0  0  0
    4.7469    0.4890   14.7614 N   0  0  0  0  0  0  0  0  0  0  0  0
    5.8976    0.3763   15.4868 C   0  0  0  0  0  0  0  0  0  0  0  0
    5.5864   -0.5217   16.5304 C   0  0  0  0  0  0  0  0  0  0  0  0
    4.3754   -1.0422   16.3738 N   0  0  0  0  0  0  0  0  0  0  0  0
    3.8369   -0.3917   15.3265 C   0  0  0  0  0  0  0  0  0  0  0  0
    2.6436    2.1633   12.1173 C   0  0  0  0  0  0  0  0  0  0  0  0
    3.5480    2.6409   11.1599 C   0  0  0  0  0  0  0  0  0  0  0  0
    3.1566    3.4683   10.0981 C   0  0  0  0  0  0  0  0  0  0  0  0
    1.8094    3.8079   10.0262 C   0  0  0  0  0  0  0  0  0  0  0  0
    1.1129    4.5678    9.1158 N   0  0  0  0  0  0  0  0  0  0  0  0
   -0.1959    4.6369    9.4439 C   0  0  0  0  0  0  0  0  0  0  0  0
   -0.4233    3.9255   10.6079 C   0  0  0  0  0  0  0  0  0  0  0  0
    0.8581    3.3610   11.0052 C   0  0  0  0  0  0  0  0  0  0  0  0
    1.2923    2.5453   12.0556 C   0  0  0  0  0  0  0  0  0  0  0  0
   -0.5553   -0.8190   14.1924 C   0  0  0  0  0  0  0  0  0  0  0  0
   -1.9451   -1.0886   14.0616 C   0  0  0  0  0  0  0  0  0  0  0  0
   -2.7542   -0.3572   13.2046 O   0  0  0  0  0  0  0  0  0  0  0  0
   -2.2337    0.6443   12.3523 C   0  0  0  0  0  0  0  0  0  0  0  0
   -5.3466   -3.2526   13.5753 H   0  0  0  0  0  0  0  0  0  0  0  0
   -3.9666   -2.5545   12.6618 H   0  0  0  0  0  0  0  0  0  0  0  0
   -3.7535   -4.0821   13.5824 H   0  0  0  0  0  0  0  0  0  0  0  0
   -2.1978   -3.6662   16.2545 H   0  0  0  0  0  0  0  0  0  0  0  0
    0.2027   -3.2097   16.4886 H   0  0  0  0  0  0  0  0  0  0  0  0
    1.2615    0.3360   13.3376 H   0  0  0  0  0  0  0  0  0  0  0  0
    5.1556    1.9355   13.2539 H   0  0  0  0  0  0  0  0  0  0  0  0
    6.8415    0.8677   15.3023 H   0  0  0  0  0  0  0  0  0  0  0  0
    6.2486   -0.7553   17.3510 H   0  0  0  0  0  0  0  0  0  0  0  0
    4.5877    2.3606   11.2431 H   0  0  0  0  0  0  0  0  0  0  0  0
    3.8686    3.8259    9.3690 H   0  0  0  0  0  0  0  0  0  0  0  0
    1.5209    5.0103    8.3172 H   0  0  0  0  0  0  0  0  0  0  0  0
   -0.9504    5.1675    8.8821 H   0  0  0  0  0  0  0  0  0  0  0  0
   -1.3666    3.8112   11.1213 H   0  0  0  0  0  0  0  0  0  0  0  0
    0.5963    2.2125   12.8114 H   0  0  0  0  0  0  0  0  0  0  0  0
   -0.0969   -0.0330   13.6106 H   0  0  0  0  0  0  0  0  0  0  0  0
   -3.0515    1.0894   11.7666 H   0  0  0  0  0  0  0  0  0  0  0  0
   -1.7491    1.4248   12.9572 H   0  0  0  0  0  0  0  0  0  0  0  0
   -1.4953    0.1977   11.6702 H   0  0  0  0  0  0  0  0  0  0  0  0
  1  2  1  0  0  0  0
  2  3  1  0  0  0  0
  3  4  2  0  0  0  0
  3 27  1  0  0  0  0
  4  5  1  0  0  0  0
  5  6  2  0  0  0  0
  6  7  1  0  0  0  0
  6 26  1  0  0  0  0
  7  8  2  0  0  0  0
  8  9  1  0  0  0  0
  8 16  1  0  0  0  0
  9 10  1  0  0  0  0
 10 11  2  0  0  0  0
 10 17  1  0  0  0  0
 11 12  1  0  0  0  0
 12 13  1  0  0  0  0
 12 16  1  0  0  0  0
 13 14  2  0  0  0  0
 14 15  1  0  0  0  0
 15 16  2  0  0  0  0
 17 18  2  0  0  0  0
 17 25  1  0  0  0  0
 18 19  1  0  0  0  0
 19 20  2  0  0  0  0
 20 21  1  0  0  0  0
 20 24  1  0  0  0  0
 21 22  1  0  0  0  0
 22 23  2  0  0  0  0
 23 24  1  0  0  0  0
 24 25  2  0  0  0  0
 26 27  2  0  0  0  0
 27 28  1  0  0  0  0
 28 29  1  0  0  0  0
  1 30  1  0  0  0  0
  1 31  1  0  0  0  0
  1 32  1  0  0  0  0
  4 33  1  0  0  0  0
  5 34  1  0  0  0  0
  9 35  1  0  0  0  0
 11 36  1  0  0  0  0
 13 37  1  0  0  0  0
 14 38  1  0  0  0  0
 18 39  1  0  0  0  0
 19 40  1  0  0  0  0
 21 41  1  0  0  0  0
 22 42  1  0  0  0  0
 23 43  1  0  0  0  0
 25 44  1  0  0  0  0
 26 45  1  0  0  0  0
 29 46  1  0  0  0  0
 29 47  1  0  0  0  0
 29 48  1  0  0  0  0
M  END
> <IC50[nM]>
8.6

$$$$
CHEMBL3265020
  -OEChem-05192314333D
 Structure written by MMmdl.
 48 52  0     0  0  0  0  0  0999 V2000
   -4.2567   -3.1041   13.5694 C   0  0  0  0  0  0  0  0  0  0  0  0
   -3.8737   -2.3598   14.7157 O   0  0  0  0  0  0  0  0  0  0  0  0
   -2.5259   -2.1106   14.8172 C   0  0  0  0  0  0  0  0  0  0  0  0
   -1.7455   -2.8698   15.6821 C   0  0  0  0  0  0  0  0  0  0  0  0
   -0.3904   -2.6103   15.8138 C   0  0  0  0  0  0  0  0  0  0  0  0
    0.2204   -1.5845   15.0865 C   0  0  0  0  0  0  0  0  0  0  0  0
    1.6043   -1.3599   15.3203 N   0  0  0  0  0  0  0  0  0  0  0  0
    2.5377   -0.4463   14.7588 C   0  0  0  0  0  0  0  0  0  0  0  0
    2.1842    0.3709   13.7215 N   0  0  0  0  0  0  0  0  0  0  0  0
    3.1172    1.2388   13.2173 C   0  0  0  0  0  0  0  0  0  0  0  0
    4.4204    1.2848   13.7037 C   0  0  0  0  0  0  0  0  0  0  0  0
    4.7469    0.4890   14.7614 N   0  0  0  0  0  0  0  0  0  0  0  0
    5.8976    0.3763   15.4868 C   0  0  0  0  0  0  0  0  0  0  0  0
    5.5864   -0.5217   16.5304 C   0  0  0  0  0  0  0  0  0  0  0  0
    4.3754   -1.0422   16.3738 N   0  0  0  0  0  0  0  0  0  0  0  0
    3.8369   -0.3917   15.3265 C   0  0  0  0  0  0  0  0  0  0  0  0
    2.6436    2.1633   12.1173 C   0  0  0  0  0  0  0  0  0  0  0  0
    3.5480    2.6409   11.1599 C   0  0  0  0  0  0  0  0  0  0  0  0
    3.1566    3.4683   10.0981 C   0  0  0  0  0  0  0  0  0  0  0  0
    1.8094    3.8079   10.0262 C   0  0  0  0  0  0  0  0  0  0  0  0
    1.1129    4.5678    9.1158 N   0  0  0  0  0  0  0  0  0  0  0  0
   -0.1959    4.6369    9.4439 C   0  0  0  0  0  0  0  0  0  0  0  0
   -0.4233    3.9255   10.6079 C   0  0  0  0  0  0  0  0  0  0  0  0
    0.8581    3.3610   11.0052 C   0  0  0  0  0  0  0  0  0  0  0  0
    1.2923    2.5453   12.0556 C   0  0  0  0  0  0  0  0  0  0  0  0
   -0.5553   -0.8190   14.1924 C   0  0  0  0  0  0  0  0  0  0  0  0
   -1.9451   -1.0886   14.0616 C   0  0  0  0  0  0  0  0  0  0  0  0
   -2.7542   -0.3572   13.2046 O   0  0  0  0  0  0  0  0  0  0  0  0
   -2.2337    0.6443   12.3523 C   0  0  0  0  0  0  0  0  0  0  0  0
   -5.3466   -3.2526   13.5753 H   0  0  0  0  0  0  0  0  0  0  0  0
   -3.9666   -2.5545   12.6618 H   0  0  0  0  0  0  0  0  0  0  0  0
   -3.7535   -4.0821   13.5824 H   0  0  0  0  0  0  0  0  0  0  0  0
   -2.1978   -3.6662   16.2545 H   0  0  0  0  0  0  0  0  0  0  0  0
    0.2027   -3.2097   16.4886 H   0  0  0  0  0  0  0  0  0  0  0  0
    1.9981   -1.9617   16.0151 H   0  0  0  0  0  0  0  0  0  0  0  0
    5.1556    1.9355   13.2539 H   0  0  0  0  0  0  0  0  0  0  0  0
    6.8415    0.8677   15.3023 H   0  0  0  0  0  0  0  0  0  0  0  0
    6.2486   -0.7553   17.3510 H   0  0  0  0  0  0  0  0  0  0  0  0
    4.5877    2.3606   11.2431 H   0  0  0  0  0  0  0  0  0  0  0  0
    3.8686    3.8259    9.3690 H   0  0  0  0  0  0  0  0  0  0  0  0
   -0.9504    5.1675    8.8821 H   0  0  0  0  0  0  0  0  0  0  0  0
   -0.8037    4.5945   11.3938 H   0  0  0  0  0  0  0  0  0  0  0  0
   -1.1522    3.1221   10.4258 H   0  0  0  0  0  0  0  0  0  0  0  0
    0.5963    2.2125   12.8114 H   0  0  0  0  0  0  0  0  0  0  0  0
   -0.0969   -0.0330   13.6106 H   0  0  0  0  0  0  0  0  0  0  0  0
   -3.0515    1.0894   11.7666 H   0  0  0  0  0  0  0  0  0  0  0  0
   -1.7491    1.4248   12.9572 H   0  0  0  0  0  0  0  0  0  0  0  0
   -1.4953    0.1977   11.6702 H   0  0  0  0  0  0  0  0  0  0  0  0
  1  2  1  0  0  0  0
  2  3  1  0  0  0  0
  3  4  2  0  0  0  0
  3 27  1  0  0  0  0
  4  5  1  0  0  0  0
  5  6  2  0  0  0  0
  6  7  1  0  0  0  0
  6 26  1  0  0  0  0
  7  8  1  0  0  0  0
  8  9  2  0  0  0  0
  8 16  1  0  0  0  0
  9 10  1  0  0  0  0
 10 11  2  0  0  0  0
 10 17  1  0  0  0  0
 11 12  1  0  0  0  0
 12 13  1  0  0  0  0
 12 16  1  0  0  0  0
 13 14  2  0  0  0  0
 14 15  1  0  0  0  0
 15 16  2  0  0  0  0
 17 18  2  0  0  0  0
 17 25  1  0  0  0  0
 18 19  1  0  0  0  0
 19 20  2  0  0  0  0
 20 21  1  0  0  0  0
 20 24  1  0  0  0  0
 21 22  2  0  0  0  0
 22 23  1  0  0  0  0
 23 24  1  0  0  0  0
 24 25  2  0  0  0  0
 26 27  2  0  0  0  0
 27 28  1  0  0  0  0
 28 29  1  0  0  0  0
  1 30  1  0  0  0  0
  1 31  1  0  0  0  0
  1 32  1  0  0  0  0
  4 33  1  0  0  0  0
  5 34  1  0  0  0  0
  7 35  1  0  0  0  0
 11 36  1  0  0  0  0
 13 37  1  0  0  0  0
 14 38  1  0  0  0  0
 18 39  1  0  0  0  0
 19 40  1  0  0  0  0
 22 41  1  0  0  0  0
 23 42  1  0  0  0  0
 23 43  1  0  0  0  0
 25 44  1  0  0  0  0
 26 45  1  0  0  0  0
 29 46  1  0  0  0  0
 29 47  1  0  0  0  0
 29 48  1  0  0  0  0
M  END
> <IC50[nM]>
8.6

$$$$
CHEMBL3265020
  -OEChem-05192314333D
 Structure written by MMmdl.
 48 52  0     0  0  0  0  0  0999 V2000
   -4.2567   -3.1041   13.5694 C   0  0  0  0  0  0  0  0  0  0  0  0
   -3.8737   -2.3598   14.7157 O   0  0  0  0  0  0  0  0  0  0  0  0
   -2.5259   -2.1106   14.8172 C   0  0  0  0  0  0  0  0  0  0  0  0
   -1.7455   -2.8698   15.6821 C   0  0  0  0  0  0  0  0  0  0  0  0
   -0.3904   -2.6103   15.8138 C   0  0  0  0  0  0  0  0  0  0  0  0
    0.2204   -1.5845   15.0865 C   0  0  0  0  0  0  0  0  0  0  0  0
    1.6043   -1.3599   15.3203 N   0  0  0  0  0  0  0  0  0  0  0  0
    2.5377   -0.4463   14.7588 C   0  0  0  0  0  0  0  0  0  0  0  0
    2.1842    0.3709   13.7215 N   0  0  0  0  0  0  0  0  0  0  0  0
    3.1172    1.2388   13.2173 C   0  0  0  0  0  0  0  0  0  0  0  0
    4.4204    1.2848   13.7037 C   0  0  0  0  0  0  0  0  0  0  0  0
    4.7469    0.4890   14.7614 N   0  0  0  0  0  0  0  0  0  0  0  0
    5.8976    0.3763   15.4868 C   0  0  0  0  0  0  0  0  0  0  0  0
    5.5864   -0.5217   16.5304 C   0  0  0  0  0  0  0  0  0  0  0  0
    4.3754   -1.0422   16.3738 N   0  0  0  0  0  0  0  0  0  0  0  0
    3.8369   -0.3917   15.3265 C   0  0  0  0  0  0  0  0  0  0  0  0
    2.6436    2.1633   12.1173 C   0  0  0  0  0  0  0  0  0  0  0  0
    3.5480    2.6409   11.1599 C   0  0  0  0  0  0  0  0  0  0  0  0
    3.1566    3.4683   10.0981 C   0  0  0  0  0  0  0  0  0  0  0  0
    1.8094    3.8079   10.0262 C   0  0  0  0  0  0  0  0  0  0  0  0
    1.1129    4.5678    9.1158 N   0  0  0  0  0  0  0  0  0  0  0  0
   -0.1959    4.6369    9.4439 C   0  0  0  0  0  0  0  0  0  0  0  0
   -0.4233    3.9255   10.6079 C   0  0  0  0  0  0  0  0  0  0  0  0
    0.8581    3.3610   11.0052 C   0  0  0  0  0  0  0  0  0  0  0  0
    1.2923    2.5453   12.0556 C   0  0  0  0  0  0  0  0  0  0  0  0
   -0.5553   -0.8190   14.1924 C   0  0  0  0  0  0  0  0  0  0  0  0
   -1.9451   -1.0886   14.0616 C   0  0  0  0  0  0  0  0  0  0  0  0
   -2.7542   -0.3572   13.2046 O   0  0  0  0  0  0  0  0  0  0  0  0
   -2.2337    0.6443   12.3523 C   0  0  0  0  0  0  0  0  0  0  0  0
   -5.3466   -3.2526   13.5753 H   0  0  0  0  0  0  0  0  0  0  0  0
   -3.9666   -2.5545   12.6618 H   0  0  0  0  0  0  0  0  0  0  0  0
   -3.7535   -4.0821   13.5824 H   0  0  0  0  0  0  0  0  0  0  0  0
   -2.1978   -3.6662   16.2545 H   0  0  0  0  0  0  0  0  0  0  0  0
    0.2027   -3.2097   16.4886 H   0  0  0  0  0  0  0  0  0  0  0  0
    1.2615    0.3360   13.3376 H   0  0  0  0  0  0  0  0  0  0  0  0
    5.1556    1.9355   13.2539 H   0  0  0  0  0  0  0  0  0  0  0  0
    6.8415    0.8677   15.3023 H   0  0  0  0  0  0  0  0  0  0  0  0
    6.2486   -0.7553   17.3510 H   0  0  0  0  0  0  0  0  0  0  0  0
    4.5877    2.3606   11.2431 H   0  0  0  0  0  0  0  0  0  0  0  0
    3.8686    3.8259    9.3690 H   0  0  0  0  0  0  0  0  0  0  0  0
   -0.9504    5.1675    8.8821 H   0  0  0  0  0  0  0  0  0  0  0  0
   -0.8037    4.5945   11.3938 H   0  0  0  0  0  0  0  0  0  0  0  0
   -1.1522    3.1221   10.4258 H   0  0  0  0  0  0  0  0  0  0  0  0
    0.5963    2.2125   12.8114 H   0  0  0  0  0  0  0  0  0  0  0  0
   -0.0969   -0.0330   13.6106 H   0  0  0  0  0  0  0  0  0  0  0  0
   -3.0515    1.0894   11.7666 H   0  0  0  0  0  0  0  0  0  0  0  0
   -1.7491    1.4248   12.9572 H   0  0  0  0  0  0  0  0  0  0  0  0
   -1.4953    0.1977   11.6702 H   0  0  0  0  0  0  0  0  0  0  0  0
  1  2  1  0  0  0  0
  2  3  1  0  0  0  0
  3  4  2  0  0  0  0
  3 27  1  0  0  0  0
  4  5  1  0  0  0  0
  5  6  2  0  0  0  0
  6  7  1  0  0  0  0
  6 26  1  0  0  0  0
  7  8  2  0  0  0  0
  8  9  1  0  0  0  0
  8 16  1  0  0  0  0
  9 10  1  0  0  0  0
 10 11  2  0  0  0  0
 10 17  1  0  0  0  0
 11 12  1  0  0  0  0
 12 13  1  0  0  0  0
 12 16  1  0  0  0  0
 13 14  2  0  0  0  0
 14 15  1  0  0  0  0
 15 16  2  0  0  0  0
 17 18  2  0  0  0  0
 17 25  1  0  0  0  0
 18 19  1  0  0  0  0
 19 20  2  0  0  0  0
 20 21  1  0  0  0  0
 20 24  1  0  0  0  0
 21 22  2  0  0  0  0
 22 23  1  0  0  0  0
 23 24  1  0  0  0  0
 24 25  2  0  0  0  0
 26 27  2  0  0  0  0
 27 28  1  0  0  0  0
 28 29  1  0  0  0  0
  1 30  1  0  0  0  0
  1 31  1  0  0  0  0
  1 32  1  0  0  0  0
  4 33  1  0  0  0  0
  5 34  1  0  0  0  0
  9 35  1  0  0  0  0
 11 36  1  0  0  0  0
 13 37  1  0  0  0  0
 14 38  1  0  0  0  0
 18 39  1  0  0  0  0
 19 40  1  0  0  0  0
 22 41  1  0  0  0  0
 23 42  1  0  0  0  0
 23 43  1  0  0  0  0
 25 44  1  0  0  0  0
 26 45  1  0  0  0  0
 29 46  1  0  0  0  0
 29 47  1  0  0  0  0
 29 48  1  0  0  0  0
M  END
> <IC50[nM]>
8.6

$$$$
CHEMBL3265020
  -OEChem-05192314333D
 Structure written by MMmdl.
 48 52  0     0  0  0  0  0  0999 V2000
   -4.2567   -3.1041   13.5694 C   0  0  0  0  0  0  0  0  0  0  0  0
   -3.8737   -2.3598   14.7157 O   0  0  0  0  0  0  0  0  0  0  0  0
   -2.5259   -2.1106   14.8172 C   0  0  0  0  0  0  0  0  0  0  0  0
   -1.7455   -2.8698   15.6821 C   0  0  0  0  0  0  0  0  0  0  0  0
   -0.3904   -2.6103   15.8138 C   0  0  0  0  0  0  0  0  0  0  0  0
    0.2204   -1.5845   15.0865 C   0  0  0  0  0  0  0  0  0  0  0  0
    1.6043   -1.3599   15.3203 N   0  0  0  0  0  0  0  0  0  0  0  0
    2.5377   -0.4463   14.7588 C   0  0  0  0  0  0  0  0  0  0  0  0
    2.1842    0.3709   13.7215 N   0  0  0  0  0  0  0  0  0  0  0  0
    3.1172    1.2388   13.2173 C   0  0  0  0  0  0  0  0  0  0  0  0
    4.4204    1.2848   13.7037 C   0  0  0  0  0  0  0  0  0  0  0  0
    4.7469    0.4890   14.7614 N   0  0  0  0  0  0  0  0  0  0  0  0
    5.8976    0.3763   15.4868 C   0  0  0  0  0  0  0  0  0  0  0  0
    5.5864   -0.5217   16.5304 C   0  0  0  0  0  0  0  0  0  0  0  0
    4.3754   -1.0422   16.3738 N   0  0  0  0  0  0  0  0  0  0  0  0
    3.8369   -0.3917   15.3265 C   0  0  0  0  0  0  0  0  0  0  0  0
    2.6436    2.1633   12.1173 C   0  0  0  0  0  0  0  0  0  0  0  0
    3.5480    2.6409   11.1599 C   0  0  0  0  0  0  0  0  0  0  0  0
    3.1566    3.4683   10.0981 C   0  0  0  0  0  0  0  0  0  0  0  0
    1.8094    3.8079   10.0262 C   0  0  0  0  0  0  0  0  0  0  0  0
    1.1129    4.5678    9.1158 N   0  0  0  0  0  0  0  0  0  0  0  0
   -0.1959    4.6369    9.4439 C   0  0  0  0  0  0  0  0  0  0  0  0
   -0.4233    3.9255   10.6079 C   0  0  0  0  0  0  0  0  0  0  0  0
    0.8581    3.3610   11.0052 C   0  0  0  0  0  0  0  0  0  0  0  0
    1.2923    2.5453   12.0556 C   0  0  0  0  0  0  0  0  0  0  0  0
   -0.5553   -0.8190   14.1924 C   0  0  0  0  0  0  0  0  0  0  0  0
   -1.9451   -1.0886   14.0616 C   0  0  0  0  0  0  0  0  0  0  0  0
   -2.7542   -0.3572   13.2046 O   0  0  0  0  0  0  0  0  0  0  0  0
   -2.2337    0.6443   12.3523 C   0  0  0  0  0  0  0  0  0  0  0  0
   -5.3466   -3.2526   13.5753 H   0  0  0  0  0  0  0  0  0  0  0  0
   -3.9666   -2.5545   12.6618 H   0  0  0  0  0  0  0  0  0  0  0  0
   -3.7535   -4.0821   13.5824 H   0  0  0  0  0  0  0  0  0  0  0  0
   -2.1978   -3.6662   16.2545 H   0  0  0  0  0  0  0  0  0  0  0  0
    0.2027   -3.2097   16.4886 H   0  0  0  0  0  0  0  0  0  0  0  0
    1.9981   -1.9617   16.0151 H   0  0  0  0  0  0  0  0  0  0  0  0
    5.1556    1.9355   13.2539 H   0  0  0  0  0  0  0  0  0  0  0  0
    6.8415    0.8677   15.3023 H   0  0  0  0  0  0  0  0  0  0  0  0
    6.2486   -0.7553   17.3510 H   0  0  0  0  0  0  0  0  0  0  0  0
    4.5877    2.3606   11.2431 H   0  0  0  0  0  0  0  0  0  0  0  0
    3.8686    3.8259    9.3690 H   0  0  0  0  0  0  0  0  0  0  0  0
   -0.4794    5.6887    9.5970 H   0  0  0  0  0  0  0  0  0  0  0  0
   -0.7999    4.2091    8.6301 H   0  0  0  0  0  0  0  0  0  0  0  0
   -1.3666    3.8112   11.1213 H   0  0  0  0  0  0  0  0  0  0  0  0
    0.5963    2.2125   12.8114 H   0  0  0  0  0  0  0  0  0  0  0  0
   -0.0969   -0.0330   13.6106 H   0  0  0  0  0  0  0  0  0  0  0  0
   -3.0515    1.0894   11.7666 H   0  0  0  0  0  0  0  0  0  0  0  0
   -1.7491    1.4248   12.9572 H   0  0  0  0  0  0  0  0  0  0  0  0
   -1.4953    0.1977   11.6702 H   0  0  0  0  0  0  0  0  0  0  0  0
  1  2  1  0  0  0  0
  2  3  1  0  0  0  0
  3  4  2  0  0  0  0
  3 27  1  0  0  0  0
  4  5  1  0  0  0  0
  5  6  2  0  0  0  0
  6  7  1  0  0  0  0
  6 26  1  0  0  0  0
  7  8  1  0  0  0  0
  8  9  2  0  0  0  0
  8 16  1  0  0  0  0
  9 10  1  0  0  0  0
 10 11  2  0  0  0  0
 10 17  1  0  0  0  0
 11 12  1  0  0  0  0
 12 13  1  0  0  0  0
 12 16  1  0  0  0  0
 13 14  2  0  0  0  0
 14 15  1  0  0  0  0
 15 16  2  0  0  0  0
 17 18  1  0  0  0  0
 17 25  2  0  0  0  0
 18 19  2  0  0  0  0
 19 20  1  0  0  0  0
 20 21  2  0  0  0  0
 20 24  1  0  0  0  0
 21 22  1  0  0  0  0
 22 23  1  0  0  0  0
 23 24  2  0  0  0  0
 24 25  1  0  0  0  0
 26 27  2  0  0  0  0
 27 28  1  0  0  0  0
 28 29  1  0  0  0  0
  1 30  1  0  0  0  0
  1 31  1  0  0  0  0
  1 32  1  0  0  0  0
  4 33  1  0  0  0  0
  5 34  1  0  0  0  0
  7 35  1  0  0  0  0
 11 36  1  0  0  0  0
 13 37  1  0  0  0  0
 14 38  1  0  0  0  0
 18 39  1  0  0  0  0
 19 40  1  0  0  0  0
 22 41  1  0  0  0  0
 22 42  1  0  0  0  0
 23 43  1  0  0  0  0
 25 44  1  0  0  0  0
 26 45  1  0  0  0  0
 29 46  1  0  0  0  0
 29 47  1  0  0  0  0
 29 48  1  0  0  0  0
M  END
> <IC50[nM]>
8.6

$$$$
CHEMBL3265020
  -OEChem-05192314333D
 Structure written by MMmdl.
 48 52  0     0  0  0  0  0  0999 V2000
   -4.2567   -3.1041   13.5694 C   0  0  0  0  0  0  0  0  0  0  0  0
   -3.8737   -2.3598   14.7157 O   0  0  0  0  0  0  0  0  0  0  0  0
   -2.5259   -2.1106   14.8172 C   0  0  0  0  0  0  0  0  0  0  0  0
   -1.7455   -2.8698   15.6821 C   0  0  0  0  0  0  0  0  0  0  0  0
   -0.3904   -2.6103   15.8138 C   0  0  0  0  0  0  0  0  0  0  0  0
    0.2204   -1.5845   15.0865 C   0  0  0  0  0  0  0  0  0  0  0  0
    1.6043   -1.3599   15.3203 N   0  0  0  0  0  0  0  0  0  0  0  0
    2.5377   -0.4463   14.7588 C   0  0  0  0  0  0  0  0  0  0  0  0
    2.1842    0.3709   13.7215 N   0  0  0  0  0  0  0  0  0  0  0  0
    3.1172    1.2388   13.2173 C   0  0  0  0  0  0  0  0  0  0  0  0
    4.4204    1.2848   13.7037 C   0  0  0  0  0  0  0  0  0  0  0  0
    4.7469    0.4890   14.7614 N   0  0  0  0  0  0  0  0  0  0  0  0
    5.8976    0.3763   15.4868 C   0  0  0  0  0  0  0  0  0  0  0  0
    5.5864   -0.5217   16.5304 C   0  0  0  0  0  0  0  0  0  0  0  0
    4.3754   -1.0422   16.3738 N   0  0  0  0  0  0  0  0  0  0  0  0
    3.8369   -0.3917   15.3265 C   0  0  0  0  0  0  0  0  0  0  0  0
    2.6436    2.1633   12.1173 C   0  0  0  0  0  0  0  0  0  0  0  0
    3.5480    2.6409   11.1599 C   0  0  0  0  0  0  0  0  0  0  0  0
    3.1566    3.4683   10.0981 C   0  0  0  0  0  0  0  0  0  0  0  0
    1.8094    3.8079   10.0262 C   0  0  0  0  0  0  0  0  0  0  0  0
    1.1129    4.5678    9.1158 N   0  0  0  0  0  0  0  0  0  0  0  0
   -0.1959    4.6369    9.4439 C   0  0  0  0  0  0  0  0  0  0  0  0
   -0.4233    3.9255   10.6079 C   0  0  0  0  0  0  0  0  0  0  0  0
    0.8581    3.3610   11.0052 C   0  0  0  0  0  0  0  0  0  0  0  0
    1.2923    2.5453   12.0556 C   0  0  0  0  0  0  0  0  0  0  0  0
   -0.5553   -0.8190   14.1924 C   0  0  0  0  0  0  0  0  0  0  0  0
   -1.9451   -1.0886   14.0616 C   0  0  0  0  0  0  0  0  0  0  0  0
   -2.7542   -0.3572   13.2046 O   0  0  0  0  0  0  0  0  0  0  0  0
   -2.2337    0.6443   12.3523 C   0  0  0  0  0  0  0  0  0  0  0  0
   -5.3466   -3.2526   13.5753 H   0  0  0  0  0  0  0  0  0  0  0  0
   -3.9666   -2.5545   12.6618 H   0  0  0  0  0  0  0  0  0  0  0  0
   -3.7535   -4.0821   13.5824 H   0  0  0  0  0  0  0  0  0  0  0  0
   -2.1978   -3.6662   16.2545 H   0  0  0  0  0  0  0  0  0  0  0  0
    0.2027   -3.2097   16.4886 H   0  0  0  0  0  0  0  0  0  0  0  0
    1.2615    0.3360   13.3376 H   0  0  0  0  0  0  0  0  0  0  0  0
    5.1556    1.9355   13.2539 H   0  0  0  0  0  0  0  0  0  0  0  0
    6.8415    0.8677   15.3023 H   0  0  0  0  0  0  0  0  0  0  0  0
    6.2486   -0.7553   17.3510 H   0  0  0  0  0  0  0  0  0  0  0  0
    4.5877    2.3606   11.2431 H   0  0  0  0  0  0  0  0  0  0  0  0
    3.8686    3.8259    9.3690 H   0  0  0  0  0  0  0  0  0  0  0  0
   -0.4794    5.6887    9.5970 H   0  0  0  0  0  0  0  0  0  0  0  0
   -0.7999    4.2091    8.6301 H   0  0  0  0  0  0  0  0  0  0  0  0
   -1.3666    3.8112   11.1213 H   0  0  0  0  0  0  0  0  0  0  0  0
    0.5963    2.2125   12.8114 H   0  0  0  0  0  0  0  0  0  0  0  0
   -0.0969   -0.0330   13.6106 H   0  0  0  0  0  0  0  0  0  0  0  0
   -3.0515    1.0894   11.7666 H   0  0  0  0  0  0  0  0  0  0  0  0
   -1.7491    1.4248   12.9572 H   0  0  0  0  0  0  0  0  0  0  0  0
   -1.4953    0.1977   11.6702 H   0  0  0  0  0  0  0  0  0  0  0  0
  1  2  1  0  0  0  0
  2  3  1  0  0  0  0
  3  4  2  0  0  0  0
  3 27  1  0  0  0  0
  4  5  1  0  0  0  0
  5  6  2  0  0  0  0
  6  7  1  0  0  0  0
  6 26  1  0  0  0  0
  7  8  2  0  0  0  0
  8  9  1  0  0  0  0
  8 16  1  0  0  0  0
  9 10  1  0  0  0  0
 10 11  2  0  0  0  0
 10 17  1  0  0  0  0
 11 12  1  0  0  0  0
 12 13  1  0  0  0  0
 12 16  1  0  0  0  0
 13 14  2  0  0  0  0
 14 15  1  0  0  0  0
 15 16  2  0  0  0  0
 17 18  1  0  0  0  0
 17 25  2  0  0  0  0
 18 19  2  0  0  0  0
 19 20  1  0  0  0  0
 20 21  2  0  0  0  0
 20 24  1  0  0  0  0
 21 22  1  0  0  0  0
 22 23  1  0  0  0  0
 23 24  2  0  0  0  0
 24 25  1  0  0  0  0
 26 27  2  0  0  0  0
 27 28  1  0  0  0  0
 28 29  1  0  0  0  0
  1 30  1  0  0  0  0
  1 31  1  0  0  0  0
  1 32  1  0  0  0  0
  4 33  1  0  0  0  0
  5 34  1  0  0  0  0
  9 35  1  0  0  0  0
 11 36  1  0  0  0  0
 13 37  1  0  0  0  0
 14 38  1  0  0  0  0
 18 39  1  0  0  0  0
 19 40  1  0  0  0  0
 22 41  1  0  0  0  0
 22 42  1  0  0  0  0
 23 43  1  0  0  0  0
 25 44  1  0  0  0  0
 26 45  1  0  0  0  0
 29 46  1  0  0  0  0
 29 47  1  0  0  0  0
 29 48  1  0  0  0  0
M  END
> <IC50[nM]>
8.6

$$$$
CHEMBL3265020
  -OEChem-05192314333D
 Structure written by MMmdl.
 48 52  0     0  0  0  0  0  0999 V2000
   -4.2567   -3.1041   13.5694 C   0  0  0  0  0  0  0  0  0  0  0  0
   -3.8737   -2.3598   14.7157 O   0  0  0  0  0  0  0  0  0  0  0  0
   -2.5259   -2.1106   14.8172 C   0  0  0  0  0  0  0  0  0  0  0  0
   -1.7455   -2.8698   15.6821 C   0  0  0  0  0  0  0  0  0  0  0  0
   -0.3904   -2.6103   15.8138 C   0  0  0  0  0  0  0  0  0  0  0  0
    0.2204   -1.5845   15.0865 C   0  0  0  0  0  0  0  0  0  0  0  0
    1.6043   -1.3599   15.3203 N   0  0  0  0  0  0  0  0  0  0  0  0
    2.5377   -0.4463   14.7588 C   0  0  0  0  0  0  0  0  0  0  0  0
    2.1842    0.3709   13.7215 N   0  0  0  0  0  0  0  0  0  0  0  0
    3.1172    1.2388   13.2173 C   0  0  0  0  0  0  0  0  0  0  0  0
    4.4204    1.2848   13.7037 C   0  0  0  0  0  0  0  0  0  0  0  0
    4.7469    0.4890   14.7614 N   0  0  0  0  0  0  0  0  0  0  0  0
    5.8976    0.3763   15.4868 C   0  0  0  0  0  0  0  0  0  0  0  0
    5.5864   -0.5217   16.5304 C   0  0  0  0  0  0  0  0  0  0  0  0
    4.3754   -1.0422   16.3738 N   0  0  0  0  0  0  0  0  0  0  0  0
    3.8369   -0.3917   15.3265 C   0  0  0  0  0  0  0  0  0  0  0  0
    2.6436    2.1633   12.1173 C   0  0  0  0  0  0  0  0  0  0  0  0
    3.5480    2.6409   11.1599 C   0  0  0  0  0  0  0  0  0  0  0  0
    3.1566    3.4683   10.0981 C   0  0  0  0  0  0  0  0  0  0  0  0
    1.8094    3.8079   10.0262 C   0  0  0  0  0  0  0  0  0  0  0  0
    1.1129    4.5678    9.1158 N   0  0  0  0  0  0  0  0  0  0  0  0
   -0.1959    4.6369    9.4439 C   0  0  0  0  0  0  0  0  0  0  0  0
   -0.4233    3.9255   10.6079 C   0  0  0  0  0  0  0  0  0  0  0  0
    0.8581    3.3610   11.0052 C   0  0  0  0  0  0  0  0  0  0  0  0
    1.2923    2.5453   12.0556 C   0  0  0  0  0  0  0  0  0  0  0  0
   -0.5553   -0.8190   14.1924 C   0  0  0  0  0  0  0  0  0  0  0  0
   -1.9451   -1.0886   14.0616 C   0  0  0  0  0  0  0  0  0  0  0  0
   -2.7542   -0.3572   13.2046 O   0  0  0  0  0  0  0  0  0  0  0  0
   -2.2337    0.6443   12.3523 C   0  0  0  0  0  0  0  0  0  0  0  0
   -5.3466   -3.2526   13.5753 H   0  0  0  0  0  0  0  0  0  0  0  0
   -3.9666   -2.5545   12.6618 H   0  0  0  0  0  0  0  0  0  0  0  0
   -3.7535   -4.0821   13.5824 H   0  0  0  0  0  0  0  0  0  0  0  0
   -2.1978   -3.6662   16.2545 H   0  0  0  0  0  0  0  0  0  0  0  0
    0.2027   -3.2097   16.4886 H   0  0  0  0  0  0  0  0  0  0  0  0
    5.0873    1.0110   12.8729 H   0  0  0  0  0  0  0  0  0  0  0  0
    4.6182    2.3239   14.0055 H   0  0  0  0  0  0  0  0  0  0  0  0
    6.8415    0.8677   15.3023 H   0  0  0  0  0  0  0  0  0  0  0  0
    6.2486   -0.7553   17.3510 H   0  0  0  0  0  0  0  0  0  0  0  0
    4.5877    2.3606   11.2431 H   0  0  0  0  0  0  0  0  0  0  0  0
    3.8686    3.8259    9.3690 H   0  0  0  0  0  0  0  0  0  0  0  0
    1.5209    5.0103    8.3172 H   0  0  0  0  0  0  0  0  0  0  0  0
   -0.9504    5.1675    8.8821 H   0  0  0  0  0  0  0  0  0  0  0  0
   -1.3666    3.8112   11.1213 H   0  0  0  0  0  0  0  0  0  0  0  0
    0.5963    2.2125   12.8114 H   0  0  0  0  0  0  0  0  0  0  0  0
   -0.0969   -0.0330   13.6106 H   0  0  0  0  0  0  0  0  0  0  0  0
   -3.0515    1.0894   11.7666 H   0  0  0  0  0  0  0  0  0  0  0  0
   -1.7491    1.4248   12.9572 H   0  0  0  0  0  0  0  0  0  0  0  0
   -1.4953    0.1977   11.6702 H   0  0  0  0  0  0  0  0  0  0  0  0
  1  2  1  0  0  0  0
  2  3  1  0  0  0  0
  3  4  2  0  0  0  0
  3 27  1  0  0  0  0
  4  5  1  0  0  0  0
  5  6  2  0  0  0  0
  6  7  1  0  0  0  0
  6 26  1  0  0  0  0
  7  8  2  0  0  0  0
  8  9  1  0  0  0  0
  8 16  1  0  0  0  0
  9 10  2  0  0  0  0
 10 11  1  0  0  0  0
 10 17  1  0  0  0  0
 11 12  1  0  0  0  0
 12 13  1  0  0  0  0
 12 16  1  0  0  0  0
 13 14  2  0  0  0  0
 14 15  1  0  0  0  0
 15 16  2  0  0  0  0
 17 18  2  0  0  0  0
 17 25  1  0  0  0  0
 18 19  1  0  0  0  0
 19 20  2  0  0  0  0
 20 21  1  0  0  0  0
 20 24  1  0  0  0  0
 21 22  1  0  0  0  0
 22 23  2  0  0  0  0
 23 24  1  0  0  0  0
 24 25  2  0  0  0  0
 26 27  2  0  0  0  0
 27 28  1  0  0  0  0
 28 29  1  0  0  0  0
  1 30  1  0  0  0  0
  1 31  1  0  0  0  0
  1 32  1  0  0  0  0
  4 33  1  0  0  0  0
  5 34  1  0  0  0  0
 11 35  1  0  0  0  0
 11 36  1  0  0  0  0
 13 37  1  0  0  0  0
 14 38  1  0  0  0  0
 18 39  1  0  0  0  0
 19 40  1  0  0  0  0
 21 41  1  0  0  0  0
 22 42  1  0  0  0  0
 23 43  1  0  0  0  0
 25 44  1  0  0  0  0
 26 45  1  0  0  0  0
 29 46  1  0  0  0  0
 29 47  1  0  0  0  0
 29 48  1  0  0  0  0
M  END
> <IC50[nM]>
8.6

$$$$
CHEMBL3265020
  -OEChem-05192314333D
 Structure written by MMmdl.
 48 52  0     1  0  0  0  0  0999 V2000
   -4.2567   -3.1041   13.5694 C   0  0  0  0  0  0  0  0  0  0  0  0
   -3.8737   -2.3598   14.7157 O   0  0  0  0  0  0  0  0  0  0  0  0
   -2.5259   -2.1106   14.8172 C   0  0  3  0  0  0  0  0  0  0  0  0
   -1.7455   -2.8698   15.6821 C   0  0  0  0  0  0  0  0  0  0  0  0
   -0.3904   -2.6103   15.8138 C   0  0  0  0  0  0  0  0  0  0  0  0
    0.2204   -1.5845   15.0865 C   0  0  0  0  0  0  0  0  0  0  0  0
    1.6043   -1.3599   15.3203 N   0  0  0  0  0  0  0  0  0  0  0  0
    2.5377   -0.4463   14.7588 C   0  0  0  0  0  0  0  0  0  0  0  0
    2.1842    0.3709   13.7215 N   0  0  0  0  0  0  0  0  0  0  0  0
    3.1172    1.2388   13.2173 C   0  0  0  0  0  0  0  0  0  0  0  0
    4.4204    1.2848   13.7037 C   0  0  0  0  0  0  0  0  0  0  0  0
    4.7469    0.4890   14.7614 N   0  0  0  0  0  0  0  0  0  0  0  0
    5.8976    0.3763   15.4868 C   0  0  0  0  0  0  0  0  0  0  0  0
    5.5864   -0.5217   16.5304 C   0  0  0  0  0  0  0  0  0  0  0  0
    4.3754   -1.0422   16.3738 N   0  0  0  0  0  0  0  0  0  0  0  0
    3.8369   -0.3917   15.3265 C   0  0  0  0  0  0  0  0  0  0  0  0
    2.6436    2.1633   12.1173 C   0  0  0  0  0  0  0  0  0  0  0  0
    3.5480    2.6409   11.1599 C   0  0  0  0  0  0  0  0  0  0  0  0
    3.1566    3.4683   10.0981 C   0  0  0  0  0  0  0  0  0  0  0  0
    1.8094    3.8079   10.0262 C   0  0  0  0  0  0  0  0  0  0  0  0
    1.1129    4.5678    9.1158 N   0  0  0  0  0  0  0  0  0  0  0  0
   -0.1959    4.6369    9.4439 C   0  0  0  0  0  0  0  0  0  0  0  0
   -0.4233    3.9255   10.6079 C   0  0  0  0  0  0  0  0  0  0  0  0
    0.8581    3.3610   11.0052 C   0  0  0  0  0  0  0  0  0  0  0  0
    1.2923    2.5453   12.0556 C   0  0  0  0  0  0  0  0  0  0  0  0
   -0.5553   -0.8190   14.1924 C   0  0  0  0  0  0  0  0  0  0  0  0
   -1.9451   -1.0886   14.0616 C   0  0  0  0  0  0  0  0  0  0  0  0
   -2.7542   -0.3572   13.2046 O   0  0  0  0  0  0  0  0  0  0  0  0
   -2.2337    0.6443   12.3523 C   0  0  0  0  0  0  0  0  0  0  0  0
   -5.3466   -3.2526   13.5753 H   0  0  0  0  0  0  0  0  0  0  0  0
   -3.9666   -2.5545   12.6618 H   0  0  0  0  0  0  0  0  0  0  0  0
   -3.7535   -4.0821   13.5824 H   0  0  0  0  0  0  0  0  0  0  0  0
   -2.3291   -2.8267   14.0058 H   0  0  0  0  0  0  0  0  0  0  0  0
   -2.1978   -3.6662   16.2545 H   0  0  0  0  0  0  0  0  0  0  0  0
    0.2027   -3.2097   16.4886 H   0  0  0  0  0  0  0  0  0  0  0  0
    5.1556    1.9355   13.2539 H   0  0  0  0  0  0  0  0  0  0  0  0
    6.8415    0.8677   15.3023 H   0  0  0  0  0  0  0  0  0  0  0  0
    6.2486   -0.7553   17.3510 H   0  0  0  0  0  0  0  0  0  0  0  0
    4.5877    2.3606   11.2431 H   0  0  0  0  0  0  0  0  0  0  0  0
    3.8686    3.8259    9.3690 H   0  0  0  0  0  0  0  0  0  0  0  0
    1.5209    5.0103    8.3172 H   0  0  0  0  0  0  0  0  0  0  0  0
   -0.9504    5.1675    8.8821 H   0  0  0  0  0  0  0  0  0  0  0  0
   -1.3666    3.8112   11.1213 H   0  0  0  0  0  0  0  0  0  0  0  0
    0.5963    2.2125   12.8114 H   0  0  0  0  0  0  0  0  0  0  0  0
   -0.0969   -0.0330   13.6106 H   0  0  0  0  0  0  0  0  0  0  0  0
   -3.0515    1.0894   11.7666 H   0  0  0  0  0  0  0  0  0  0  0  0
   -1.7491    1.4248   12.9572 H   0  0  0  0  0  0  0  0  0  0  0  0
   -1.4953    0.1977   11.6702 H   0  0  0  0  0  0  0  0  0  0  0  0
  1  2  1  0  0  0  0
  2  3  1  0  0  0  0
  3  4  1  0  0  0  0
  3 27  1  0  0  0  0
  4  5  2  0  0  0  0
  5  6  1  0  0  0  0
  6  7  2  0  0  0  0
  6 26  1  0  0  0  0
  7  8  1  0  0  0  0
  8  9  2  0  0  0  0
  8 16  1  0  0  0  0
  9 10  1  0  0  0  0
 10 11  2  0  0  0  0
 10 17  1  0  0  0  0
 11 12  1  0  0  0  0
 12 13  1  0  0  0  0
 12 16  1  0  0  0  0
 13 14  2  0  0  0  0
 14 15  1  0  0  0  0
 15 16  2  0  0  0  0
 17 18  2  0  0  0  0
 17 25  1  0  0  0  0
 18 19  1  0  0  0  0
 19 20  2  0  0  0  0
 20 21  1  0  0  0  0
 20 24  1  0  0  0  0
 21 22  1  0  0  0  0
 22 23  2  0  0  0  0
 23 24  1  0  0  0  0
 24 25  2  0  0  0  0
 26 27  2  0  0  0  0
 27 28  1  0  0  0  0
 28 29  1  0  0  0  0
  1 30  1  0  0  0  0
  1 31  1  0  0  0  0
  1 32  1  0  0  0  0
  3 33  1  0  0  0  0
  4 34  1  0  0  0  0
  5 35  1  0  0  0  0
 11 36  1  0  0  0  0
 13 37  1  0  0  0  0
 14 38  1  0  0  0  0
 18 39  1  0  0  0  0
 19 40  1  0  0  0  0
 21 41  1  0  0  0  0
 22 42  1  0  0  0  0
 23 43  1  0  0  0  0
 25 44  1  0  0  0  0
 26 45  1  0  0  0  0
 29 46  1  0  0  0  0
 29 47  1  0  0  0  0
 29 48  1  0  0  0  0
M  END
> <IC50[nM]>
8.6

$$$$
CHEMBL3265020
  -OEChem-05192314333D
 Structure written by MMmdl.
 48 52  0     0  0  0  0  0  0999 V2000
   -4.2567   -3.1041   13.5694 C   0  0  0  0  0  0  0  0  0  0  0  0
   -3.8737   -2.3598   14.7157 O   0  0  0  0  0  0  0  0  0  0  0  0
   -2.5259   -2.1106   14.8172 C   0  0  0  0  0  0  0  0  0  0  0  0
   -1.7455   -2.8698   15.6821 C   0  0  0  0  0  0  0  0  0  0  0  0
   -0.3904   -2.6103   15.8138 C   0  0  0  0  0  0  0  0  0  0  0  0
    0.2204   -1.5845   15.0865 C   0  0  0  0  0  0  0  0  0  0  0  0
    1.6043   -1.3599   15.3203 N   0  0  0  0  0  0  0  0  0  0  0  0
    2.5377   -0.4463   14.7588 C   0  0  0  0  0  0  0  0  0  0  0  0
    2.1842    0.3709   13.7215 N   0  0  0  0  0  0  0  0  0  0  0  0
    3.1172    1.2388   13.2173 C   0  0  0  0  0  0  0  0  0  0  0  0
    4.4204    1.2848   13.7037 C   0  0  0  0  0  0  0  0  0  0  0  0
    4.7469    0.4890   14.7614 N   0  0  0  0  0  0  0  0  0  0  0  0
    5.8976    0.3763   15.4868 C   0  0  0  0  0  0  0  0  0  0  0  0
    5.5864   -0.5217   16.5304 C   0  0  0  0  0  0  0  0  0  0  0  0
    4.3754   -1.0422   16.3738 N   0  0  0  0  0  0  0  0  0  0  0  0
    3.8369   -0.3917   15.3265 C   0  0  0  0  0  0  0  0  0  0  0  0
    2.6436    2.1633   12.1173 C   0  0  0  0  0  0  0  0  0  0  0  0
    3.5480    2.6409   11.1599 C   0  0  0  0  0  0  0  0  0  0  0  0
    3.1566    3.4683   10.0981 C   0  0  0  0  0  0  0  0  0  0  0  0
    1.8094    3.8079   10.0262 C   0  0  0  0  0  0  0  0  0  0  0  0
    1.1129    4.5678    9.1158 N   0  0  0  0  0  0  0  0  0  0  0  0
   -0.1959    4.6369    9.4439 C   0  0  0  0  0  0  0  0  0  0  0  0
   -0.4233    3.9255   10.6079 C   0  0  0  0  0  0  0  0  0  0  0  0
    0.8581    3.3610   11.0052 C   0  0  0  0  0  0  0  0  0  0  0  0
    1.2923    2.5453   12.0556 C   0  0  0  0  0  0  0  0  0  0  0  0
   -0.5553   -0.8190   14.1924 C   0  0  0  0  0  0  0  0  0  0  0  0
   -1.9451   -1.0886   14.0616 C   0  0  0  0  0  0  0  0  0  0  0  0
   -2.7542   -0.3572   13.2046 O   0  0  0  0  0  0  0  0  0  0  0  0
   -2.2337    0.6443   12.3523 C   0  0  0  0  0  0  0  0  0  0  0  0
   -5.3466   -3.2526   13.5753 H   0  0  0  0  0  0  0  0  0  0  0  0
   -3.9666   -2.5545   12.6618 H   0  0  0  0  0  0  0  0  0  0  0  0
   -3.7535   -4.0821   13.5824 H   0  0  0  0  0  0  0  0  0  0  0  0
   -2.1978   -3.6662   16.2545 H   0  0  0  0  0  0  0  0  0  0  0  0
   -0.2168   -2.3863   16.8767 H   0  0  0  0  0  0  0  0  0  0  0  0
    0.1335   -3.5393   15.5446 H   0  0  0  0  0  0  0  0  0  0  0  0
    5.1556    1.9355   13.2539 H   0  0  0  0  0  0  0  0  0  0  0  0
    6.8415    0.8677   15.3023 H   0  0  0  0  0  0  0  0  0  0  0  0
    6.2486   -0.7553   17.3510 H   0  0  0  0  0  0  0  0  0  0  0  0
    4.5877    2.3606   11.2431 H   0  0  0  0  0  0  0  0  0  0  0  0
    3.8686    3.8259    9.3690 H   0  0  0  0  0  0  0  0  0  0  0  0
    1.5209    5.0103    8.3172 H   0  0  0  0  0  0  0  0  0  0  0  0
   -0.9504    5.1675    8.8821 H   0  0  0  0  0  0  0  0  0  0  0  0
   -1.3666    3.8112   11.1213 H   0  0  0  0  0  0  0  0  0  0  0  0
    0.5963    2.2125   12.8114 H   0  0  0  0  0  0  0  0  0  0  0  0
   -0.0969   -0.0330   13.6106 H   0  0  0  0  0  0  0  0  0  0  0  0
   -3.0515    1.0894   11.7666 H   0  0  0  0  0  0  0  0  0  0  0  0
   -1.7491    1.4248   12.9572 H   0  0  0  0  0  0  0  0  0  0  0  0
   -1.4953    0.1977   11.6702 H   0  0  0  0  0  0  0  0  0  0  0  0
  1  2  1  0  0  0  0
  2  3  1  0  0  0  0
  3  4  2  0  0  0  0
  3 27  1  0  0  0  0
  4  5  1  0  0  0  0
  5  6  1  0  0  0  0
  6  7  2  0  0  0  0
  6 26  1  0  0  0  0
  7  8  1  0  0  0  0
  8  9  2  0  0  0  0
  8 16  1  0  0  0  0
  9 10  1  0  0  0  0
 10 11  2  0  0  0  0
 10 17  1  0  0  0  0
 11 12  1  0  0  0  0
 12 13  1  0  0  0  0
 12 16  1  0  0  0  0
 13 14  2  0  0  0  0
 14 15  1  0  0  0  0
 15 16  2  0  0  0  0
 17 18  2  0  0  0  0
 17 25  1  0  0  0  0
 18 19  1  0  0  0  0
 19 20  2  0  0  0  0
 20 21  1  0  0  0  0
 20 24  1  0  0  0  0
 21 22  1  0  0  0  0
 22 23  2  0  0  0  0
 23 24  1  0  0  0  0
 24 25  2  0  0  0  0
 26 27  2  0  0  0  0
 27 28  1  0  0  0  0
 28 29  1  0  0  0  0
  1 30  1  0  0  0  0
  1 31  1  0  0  0  0
  1 32  1  0  0  0  0
  4 33  1  0  0  0  0
  5 34  1  0  0  0  0
  5 35  1  0  0  0  0
 11 36  1  0  0  0  0
 13 37  1  0  0  0  0
 14 38  1  0  0  0  0
 18 39  1  0  0  0  0
 19 40  1  0  0  0  0
 21 41  1  0  0  0  0
 22 42  1  0  0  0  0
 23 43  1  0  0  0  0
 25 44  1  0  0  0  0
 26 45  1  0  0  0  0
 29 46  1  0  0  0  0
 29 47  1  0  0  0  0
 29 48  1  0  0  0  0
M  END
> <IC50[nM]>
8.6

$$$$
CHEMBL3265020
  -OEChem-05192314333D
 Structure written by MMmdl.
 48 52  0     0  0  0  0  0  0999 V2000
   -4.2567   -3.1041   13.5694 C   0  0  0  0  0  0  0  0  0  0  0  0
   -3.8737   -2.3598   14.7157 O   0  0  0  0  0  0  0  0  0  0  0  0
   -2.5259   -2.1106   14.8172 C   0  0  0  0  0  0  0  0  0  0  0  0
   -1.7455   -2.8698   15.6821 C   0  0  0  0  0  0  0  0  0  0  0  0
   -0.3904   -2.6103   15.8138 C   0  0  0  0  0  0  0  0  0  0  0  0
    0.2204   -1.5845   15.0865 C   0  0  0  0  0  0  0  0  0  0  0  0
    1.6043   -1.3599   15.3203 N   0  0  0  0  0  0  0  0  0  0  0  0
    2.5377   -0.4463   14.7588 C   0  0  0  0  0  0  0  0  0  0  0  0
    2.1842    0.3709   13.7215 N   0  0  0  0  0  0  0  0  0  0  0  0
    3.1172    1.2388   13.2173 C   0  0  0  0  0  0  0  0  0  0  0  0
    4.4204    1.2848   13.7037 C   0  0  0  0  0  0  0  0  0  0  0  0
    4.7469    0.4890   14.7614 N   0  0  0  0  0  0  0  0  0  0  0  0
    5.8976    0.3763   15.4868 C   0  0  0  0  0  0  0  0  0  0  0  0
    5.5864   -0.5217   16.5304 C   0  0  0  0  0  0  0  0  0  0  0  0
    4.3754   -1.0422   16.3738 N   0  0  0  0  0  0  0  0  0  0  0  0
    3.8369   -0.3917   15.3265 C   0  0  0  0  0  0  0  0  0  0  0  0
    2.6436    2.1633   12.1173 C   0  0  0  0  0  0  0  0  0  0  0  0
    3.5480    2.6409   11.1599 C   0  0  0  0  0  0  0  0  0  0  0  0
    3.1566    3.4683   10.0981 C   0  0  0  0  0  0  0  0  0  0  0  0
    1.8094    3.8079   10.0262 C   0  0  0  0  0  0  0  0  0  0  0  0
    1.1129    4.5678    9.1158 N   0  0  0  0  0  0  0  0  0  0  0  0
   -0.1959    4.6369    9.4439 C   0  0  0  0  0  0  0  0  0  0  0  0
   -0.4233    3.9255   10.6079 C   0  0  0  0  0  0  0  0  0  0  0  0
    0.8581    3.3610   11.0052 C   0  0  0  0  0  0  0  0  0  0  0  0
    1.2923    2.5453   12.0556 C   0  0  0  0  0  0  0  0  0  0  0  0
   -0.5553   -0.8190   14.1924 C   0  0  0  0  0  0  0  0  0  0  0  0
   -1.9451   -1.0886   14.0616 C   0  0  0  0  0  0  0  0  0  0  0  0
   -2.7542   -0.3572   13.2046 O   0  0  0  0  0  0  0  0  0  0  0  0
   -2.2337    0.6443   12.3523 C   0  0  0  0  0  0  0  0  0  0  0  0
   -5.3466   -3.2526   13.5753 H   0  0  0  0  0  0  0  0  0  0  0  0
   -3.9666   -2.5545   12.6618 H   0  0  0  0  0  0  0  0  0  0  0  0
   -3.7535   -4.0821   13.5824 H   0  0  0  0  0  0  0  0  0  0  0  0
   -2.1978   -3.6662   16.2545 H   0  0  0  0  0  0  0  0  0  0  0  0
    0.2027   -3.2097   16.4886 H   0  0  0  0  0  0  0  0  0  0  0  0
    5.1556    1.9355   13.2539 H   0  0  0  0  0  0  0  0  0  0  0  0
    6.8415    0.8677   15.3023 H   0  0  0  0  0  0  0  0  0  0  0  0
    6.2486   -0.7553   17.3510 H   0  0  0  0  0  0  0  0  0  0  0  0
    4.5877    2.3606   11.2431 H   0  0  0  0  0  0  0  0  0  0  0  0
    3.8686    3.8259    9.3690 H   0  0  0  0  0  0  0  0  0  0  0  0
    1.5209    5.0103    8.3172 H   0  0  0  0  0  0  0  0  0  0  0  0
   -0.9504    5.1675    8.8821 H   0  0  0  0  0  0  0  0  0  0  0  0
   -1.3666    3.8112   11.1213 H   0  0  0  0  0  0  0  0  0  0  0  0
    0.5963    2.2125   12.8114 H   0  0  0  0  0  0  0  0  0  0  0  0
   -0.4615    0.2311   14.5061 H   0  0  0  0  0  0  0  0  0  0  0  0
   -0.1100   -0.9447   13.1945 H   0  0  0  0  0  0  0  0  0  0  0  0
   -3.0515    1.0894   11.7666 H   0  0  0  0  0  0  0  0  0  0  0  0
   -1.7491    1.4248   12.9572 H   0  0  0  0  0  0  0  0  0  0  0  0
   -1.4953    0.1977   11.6702 H   0  0  0  0  0  0  0  0  0  0  0  0
  1  2  1  0  0  0  0
  2  3  1  0  0  0  0
  3  4  1  0  0  0  0
  3 27  2  0  0  0  0
  4  5  2  0  0  0  0
  5  6  1  0  0  0  0
  6  7  2  0  0  0  0
  6 26  1  0  0  0  0
  7  8  1  0  0  0  0
  8  9  2  0  0  0  0
  8 16  1  0  0  0  0
  9 10  1  0  0  0  0
 10 11  2  0  0  0  0
 10 17  1  0  0  0  0
 11 12  1  0  0  0  0
 12 13  1  0  0  0  0
 12 16  1  0  0  0  0
 13 14  2  0  0  0  0
 14 15  1  0  0  0  0
 15 16  2  0  0  0  0
 17 18  2  0  0  0  0
 17 25  1  0  0  0  0
 18 19  1  0  0  0  0
 19 20  2  0  0  0  0
 20 21  1  0  0  0  0
 20 24  1  0  0  0  0
 21 22  1  0  0  0  0
 22 23  2  0  0  0  0
 23 24  1  0  0  0  0
 24 25  2  0  0  0  0
 26 27  1  0  0  0  0
 27 28  1  0  0  0  0
 28 29  1  0  0  0  0
  1 30  1  0  0  0  0
  1 31  1  0  0  0  0
  1 32  1  0  0  0  0
  4 33  1  0  0  0  0
  5 34  1  0  0  0  0
 11 35  1  0  0  0  0
 13 36  1  0  0  0  0
 14 37  1  0  0  0  0
 18 38  1  0  0  0  0
 19 39  1  0  0  0  0
 21 40  1  0  0  0  0
 22 41  1  0  0  0  0
 23 42  1  0  0  0  0
 25 43  1  0  0  0  0
 26 44  1  0  0  0  0
 26 45  1  0  0  0  0
 29 46  1  0  0  0  0
 29 47  1  0  0  0  0
 29 48  1  0  0  0  0
M  END
> <IC50[nM]>
8.6

$$$$
CHEMBL3265020
  -OEChem-05192314333D
 Structure written by MMmdl.
 48 52  0     0  0  0  0  0  0999 V2000
   -4.2567   -3.1041   13.5694 C   0  0  0  0  0  0  0  0  0  0  0  0
   -3.8737   -2.3598   14.7157 O   0  0  0  0  0  0  0  0  0  0  0  0
   -2.5259   -2.1106   14.8172 C   0  0  0  0  0  0  0  0  0  0  0  0
   -1.7455   -2.8698   15.6821 C   0  0  0  0  0  0  0  0  0  0  0  0
   -0.3904   -2.6103   15.8138 C   0  0  0  0  0  0  0  0  0  0  0  0
    0.2204   -1.5845   15.0865 C   0  0  0  0  0  0  0  0  0  0  0  0
    1.6043   -1.3599   15.3203 N   0  0  0  0  0  0  0  0  0  0  0  0
    2.5377   -0.4463   14.7588 C   0  0  0  0  0  0  0  0  0  0  0  0
    2.1842    0.3709   13.7215 N   0  0  0  0  0  0  0  0  0  0  0  0
    3.1172    1.2388   13.2173 C   0  0  0  0  0  0  0  0  0  0  0  0
    4.4204    1.2848   13.7037 C   0  0  0  0  0  0  0  0  0  0  0  0
    4.7469    0.4890   14.7614 N   0  0  0  0  0  0  0  0  0  0  0  0
    5.8976    0.3763   15.4868 C   0  0  0  0  0  0  0  0  0  0  0  0
    5.5864   -0.5217   16.5304 C   0  0  0  0  0  0  0  0  0  0  0  0
    4.3754   -1.0422   16.3738 N   0  0  0  0  0  0  0  0  0  0  0  0
    3.8369   -0.3917   15.3265 C   0  0  0  0  0  0  0  0  0  0  0  0
    2.6436    2.1633   12.1173 C   0  0  0  0  0  0  0  0  0  0  0  0
    3.5480    2.6409   11.1599 C   0  0  0  0  0  0  0  0  0  0  0  0
    3.1566    3.4683   10.0981 C   0  0  0  0  0  0  0  0  0  0  0  0
    1.8094    3.8079   10.0262 C   0  0  0  0  0  0  0  0  0  0  0  0
    1.1129    4.5678    9.1158 N   0  0  0  0  0  0  0  0  0  0  0  0
   -0.1959    4.6369    9.4439 C   0  0  0  0  0  0  0  0  0  0  0  0
   -0.4233    3.9255   10.6079 C   0  0  0  0  0  0  0  0  0  0  0  0
    0.8581    3.3610   11.0052 C   0  0  0  0  0  0  0  0  0  0  0  0
    1.2923    2.5453   12.0556 C   0  0  0  0  0  0  0  0  0  0  0  0
   -0.5553   -0.8190   14.1924 C   0  0  0  0  0  0  0  0  0  0  0  0
   -1.9451   -1.0886   14.0616 C   0  0  0  0  0  0  0  0  0  0  0  0
   -2.7542   -0.3572   13.2046 O   0  0  0  0  0  0  0  0  0  0  0  0
   -2.2337    0.6443   12.3523 C   0  0  0  0  0  0  0  0  0  0  0  0
   -5.3466   -3.2526   13.5753 H   0  0  0  0  0  0  0  0  0  0  0  0
   -3.9666   -2.5545   12.6618 H   0  0  0  0  0  0  0  0  0  0  0  0
   -3.7535   -4.0821   13.5824 H   0  0  0  0  0  0  0  0  0  0  0  0
   -2.1978   -3.6662   16.2545 H   0  0  0  0  0  0  0  0  0  0  0  0
    0.2027   -3.2097   16.4886 H   0  0  0  0  0  0  0  0  0  0  0  0
    5.0873    1.0110   12.8729 H   0  0  0  0  0  0  0  0  0  0  0  0
    4.6182    2.3239   14.0055 H   0  0  0  0  0  0  0  0  0  0  0  0
    6.8415    0.8677   15.3023 H   0  0  0  0  0  0  0  0  0  0  0  0
    6.2486   -0.7553   17.3510 H   0  0  0  0  0  0  0  0  0  0  0  0
    4.5877    2.3606   11.2431 H   0  0  0  0  0  0  0  0  0  0  0  0
    3.8686    3.8259    9.3690 H   0  0  0  0  0  0  0  0  0  0  0  0
   -0.9504    5.1675    8.8821 H   0  0  0  0  0  0  0  0  0  0  0  0
   -0.8037    4.5945   11.3938 H   0  0  0  0  0  0  0  0  0  0  0  0
   -1.1522    3.1221   10.4258 H   0  0  0  0  0  0  0  0  0  0  0  0
    0.5963    2.2125   12.8114 H   0  0  0  0  0  0  0  0  0  0  0  0
   -0.0969   -0.0330   13.6106 H   0  0  0  0  0  0  0  0  0  0  0  0
   -3.0515    1.0894   11.7666 H   0  0  0  0  0  0  0  0  0  0  0  0
   -1.7491    1.4248   12.9572 H   0  0  0  0  0  0  0  0  0  0  0  0
   -1.4953    0.1977   11.6702 H   0  0  0  0  0  0  0  0  0  0  0  0
  1  2  1  0  0  0  0
  2  3  1  0  0  0  0
  3  4  2  0  0  0  0
  3 27  1  0  0  0  0
  4  5  1  0  0  0  0
  5  6  2  0  0  0  0
  6  7  1  0  0  0  0
  6 26  1  0  0  0  0
  7  8  2  0  0  0  0
  8  9  1  0  0  0  0
  8 16  1  0  0  0  0
  9 10  2  0  0  0  0
 10 11  1  0  0  0  0
 10 17  1  0  0  0  0
 11 12  1  0  0  0  0
 12 13  1  0  0  0  0
 12 16  1  0  0  0  0
 13 14  2  0  0  0  0
 14 15  1  0  0  0  0
 15 16  2  0  0  0  0
 17 18  2  0  0  0  0
 17 25  1  0  0  0  0
 18 19  1  0  0  0  0
 19 20  2  0  0  0  0
 20 21  1  0  0  0  0
 20 24  1  0  0  0  0
 21 22  2  0  0  0  0
 22 23  1  0  0  0  0
 23 24  1  0  0  0  0
 24 25  2  0  0  0  0
 26 27  2  0  0  0  0
 27 28  1  0  0  0  0
 28 29  1  0  0  0  0
  1 30  1  0  0  0  0
  1 31  1  0  0  0  0
  1 32  1  0  0  0  0
  4 33  1  0  0  0  0
  5 34  1  0  0  0  0
 11 35  1  0  0  0  0
 11 36  1  0  0  0  0
 13 37  1  0  0  0  0
 14 38  1  0  0  0  0
 18 39  1  0  0  0  0
 19 40  1  0  0  0  0
 22 41  1  0  0  0  0
 23 42  1  0  0  0  0
 23 43  1  0  0  0  0
 25 44  1  0  0  0  0
 26 45  1  0  0  0  0
 29 46  1  0  0  0  0
 29 47  1  0  0  0  0
 29 48  1  0  0  0  0
M  END
> <IC50[nM]>
8.6

$$$$
CHEMBL3265020
  -OEChem-05192314333D
 Structure written by MMmdl.
 48 52  0     0  0  0  0  0  0999 V2000
   -4.2567   -3.1041   13.5694 C   0  0  0  0  0  0  0  0  0  0  0  0
   -3.8737   -2.3598   14.7157 O   0  0  0  0  0  0  0  0  0  0  0  0
   -2.5259   -2.1106   14.8172 C   0  0  0  0  0  0  0  0  0  0  0  0
   -1.7455   -2.8698   15.6821 C   0  0  0  0  0  0  0  0  0  0  0  0
   -0.3904   -2.6103   15.8138 C   0  0  0  0  0  0  0  0  0  0  0  0
    0.2204   -1.5845   15.0865 C   0  0  0  0  0  0  0  0  0  0  0  0
    1.6043   -1.3599   15.3203 N   0  0  0  0  0  0  0  0  0  0  0  0
    2.5377   -0.4463   14.7588 C   0  0  0  0  0  0  0  0  0  0  0  0
    2.1842    0.3709   13.7215 N   0  0  0  0  0  0  0  0  0  0  0  0
    3.1172    1.2388   13.2173 C   0  0  0  0  0  0  0  0  0  0  0  0
    4.4204    1.2848   13.7037 C   0  0  0  0  0  0  0  0  0  0  0  0
    4.7469    0.4890   14.7614 N   0  0  0  0  0  0  0  0  0  0  0  0
    5.8976    0.3763   15.4868 C   0  0  0  0  0  0  0  0  0  0  0  0
    5.5864   -0.5217   16.5304 C   0  0  0  0  0  0  0  0  0  0  0  0
    4.3754   -1.0422   16.3738 N   0  0  0  0  0  0  0  0  0  0  0  0
    3.8369   -0.3917   15.3265 C   0  0  0  0  0  0  0  0  0  0  0  0
    2.6436    2.1633   12.1173 C   0  0  0  0  0  0  0  0  0  0  0  0
    3.5480    2.6409   11.1599 C   0  0  0  0  0  0  0  0  0  0  0  0
    3.1566    3.4683   10.0981 C   0  0  0  0  0  0  0  0  0  0  0  0
    1.8094    3.8079   10.0262 C   0  0  0  0  0  0  0  0  0  0  0  0
    1.1129    4.5678    9.1158 N   0  0  0  0  0  0  0  0  0  0  0  0
   -0.1959    4.6369    9.4439 C   0  0  0  0  0  0  0  0  0  0  0  0
   -0.4233    3.9255   10.6079 C   0  0  0  0  0  0  0  0  0  0  0  0
    0.8581    3.3610   11.0052 C   0  0  0  0  0  0  0  0  0  0  0  0
    1.2923    2.5453   12.0556 C   0  0  0  0  0  0  0  0  0  0  0  0
   -0.5553   -0.8190   14.1924 C   0  0  0  0  0  0  0  0  0  0  0  0
   -1.9451   -1.0886   14.0616 C   0  0  0  0  0  0  0  0  0  0  0  0
   -2.7542   -0.3572   13.2046 O   0  0  0  0  0  0  0  0  0  0  0  0
   -2.2337    0.6443   12.3523 C   0  0  0  0  0  0  0  0  0  0  0  0
   -5.3466   -3.2526   13.5753 H   0  0  0  0  0  0  0  0  0  0  0  0
   -3.9666   -2.5545   12.6618 H   0  0  0  0  0  0  0  0  0  0  0  0
   -3.7535   -4.0821   13.5824 H   0  0  0  0  0  0  0  0  0  0  0  0
   -2.1978   -3.6662   16.2545 H   0  0  0  0  0  0  0  0  0  0  0  0
    0.2027   -3.2097   16.4886 H   0  0  0  0  0  0  0  0  0  0  0  0
    5.0873    1.0110   12.8729 H   0  0  0  0  0  0  0  0  0  0  0  0
    4.6182    2.3239   14.0055 H   0  0  0  0  0  0  0  0  0  0  0  0
    6.8415    0.8677   15.3023 H   0  0  0  0  0  0  0  0  0  0  0  0
    6.2486   -0.7553   17.3510 H   0  0  0  0  0  0  0  0  0  0  0  0
    4.5877    2.3606   11.2431 H   0  0  0  0  0  0  0  0  0  0  0  0
    3.8686    3.8259    9.3690 H   0  0  0  0  0  0  0  0  0  0  0  0
   -0.4794    5.6887    9.5970 H   0  0  0  0  0  0  0  0  0  0  0  0
   -0.7999    4.2091    8.6301 H   0  0  0  0  0  0  0  0  0  0  0  0
   -1.3666    3.8112   11.1213 H   0  0  0  0  0  0  0  0  0  0  0  0
    0.5963    2.2125   12.8114 H   0  0  0  0  0  0  0  0  0  0  0  0
   -0.0969   -0.0330   13.6106 H   0  0  0  0  0  0  0  0  0  0  0  0
   -3.0515    1.0894   11.7666 H   0  0  0  0  0  0  0  0  0  0  0  0
   -1.7491    1.4248   12.9572 H   0  0  0  0  0  0  0  0  0  0  0  0
   -1.4953    0.1977   11.6702 H   0  0  0  0  0  0  0  0  0  0  0  0
  1  2  1  0  0  0  0
  2  3  1  0  0  0  0
  3  4  2  0  0  0  0
  3 27  1  0  0  0  0
  4  5  1  0  0  0  0
  5  6  2  0  0  0  0
  6  7  1  0  0  0  0
  6 26  1  0  0  0  0
  7  8  2  0  0  0  0
  8  9  1  0  0  0  0
  8 16  1  0  0  0  0
  9 10  2  0  0  0  0
 10 11  1  0  0  0  0
 10 17  1  0  0  0  0
 11 12  1  0  0  0  0
 12 13  1  0  0  0  0
 12 16  1  0  0  0  0
 13 14  2  0  0  0  0
 14 15  1  0  0  0  0
 15 16  2  0  0  0  0
 17 18  1  0  0  0  0
 17 25  2  0  0  0  0
 18 19  2  0  0  0  0
 19 20  1  0  0  0  0
 20 21  2  0  0  0  0
 20 24  1  0  0  0  0
 21 22  1  0  0  0  0
 22 23  1  0  0  0  0
 23 24  2  0  0  0  0
 24 25  1  0  0  0  0
 26 27  2  0  0  0  0
 27 28  1  0  0  0  0
 28 29  1  0  0  0  0
  1 30  1  0  0  0  0
  1 31  1  0  0  0  0
  1 32  1  0  0  0  0
  4 33  1  0  0  0  0
  5 34  1  0  0  0  0
 11 35  1  0  0  0  0
 11 36  1  0  0  0  0
 13 37  1  0  0  0  0
 14 38  1  0  0  0  0
 18 39  1  0  0  0  0
 19 40  1  0  0  0  0
 22 41  1  0  0  0  0
 22 42  1  0  0  0  0
 23 43  1  0  0  0  0
 25 44  1  0  0  0  0
 26 45  1  0  0  0  0
 29 46  1  0  0  0  0
 29 47  1  0  0  0  0
 29 48  1  0  0  0  0
M  END
> <IC50[nM]>
8.6

$$$$
CHEMBL3265020
  -OEChem-05192314333D
 Structure written by MMmdl.
 48 52  0     0  0  0  0  0  0999 V2000
   -4.2567   -3.1041   13.5694 C   0  0  0  0  0  0  0  0  0  0  0  0
   -3.8737   -2.3598   14.7157 O   0  0  0  0  0  0  0  0  0  0  0  0
   -2.5259   -2.1106   14.8172 C   0  0  0  0  0  0  0  0  0  0  0  0
   -1.7455   -2.8698   15.6821 C   0  0  0  0  0  0  0  0  0  0  0  0
   -0.3904   -2.6103   15.8138 C   0  0  0  0  0  0  0  0  0  0  0  0
    0.2204   -1.5845   15.0865 C   0  0  0  0  0  0  0  0  0  0  0  0
    1.6043   -1.3599   15.3203 N   0  0  0  0  0  0  0  0  0  0  0  0
    2.5377   -0.4463   14.7588 C   0  0  0  0  0  0  0  0  0  0  0  0
    2.1842    0.3709   13.7215 N   0  0  0  0  0  0  0  0  0  0  0  0
    3.1172    1.2388   13.2173 C   0  0  0  0  0  0  0  0  0  0  0  0
    4.4204    1.2848   13.7037 C   0  0  0  0  0  0  0  0  0  0  0  0
    4.7469    0.4890   14.7614 N   0  0  0  0  0  0  0  0  0  0  0  0
    5.8976    0.3763   15.4868 C   0  0  0  0  0  0  0  0  0  0  0  0
    5.5864   -0.5217   16.5304 C   0  0  0  0  0  0  0  0  0  0  0  0
    4.3754   -1.0422   16.3738 N   0  0  0  0  0  0  0  0  0  0  0  0
    3.8369   -0.3917   15.3265 C   0  0  0  0  0  0  0  0  0  0  0  0
    2.6436    2.1633   12.1173 C   0  0  0  0  0  0  0  0  0  0  0  0
    3.5480    2.6409   11.1599 C   0  0  0  0  0  0  0  0  0  0  0  0
    3.1566    3.4683   10.0981 C   0  0  0  0  0  0  0  0  0  0  0  0
    1.8094    3.8079   10.0262 C   0  0  0  0  0  0  0  0  0  0  0  0
    1.1129    4.5678    9.1158 N   0  0  0  0  0  0  0  0  0  0  0  0
   -0.1959    4.6369    9.4439 C   0  0  0  0  0  0  0  0  0  0  0  0
   -0.4233    3.9255   10.6079 C   0  0  0  0  0  0  0  0  0  0  0  0
    0.8581    3.3610   11.0052 C   0  0  0  0  0  0  0  0  0  0  0  0
    1.2923    2.5453   12.0556 C   0  0  0  0  0  0  0  0  0  0  0  0
   -0.5553   -0.8190   14.1924 C   0  0  0  0  0  0  0  0  0  0  0  0
   -1.9451   -1.0886   14.0616 C   0  0  0  0  0  0  0  0  0  0  0  0
   -2.7542   -0.3572   13.2046 O   0  0  0  0  0  0  0  0  0  0  0  0
   -2.2337    0.6443   12.3523 C   0  0  0  0  0  0  0  0  0  0  0  0
   -5.3466   -3.2526   13.5753 H   0  0  0  0  0  0  0  0  0  0  0  0
   -3.9666   -2.5545   12.6618 H   0  0  0  0  0  0  0  0  0  0  0  0
   -3.7535   -4.0821   13.5824 H   0  0  0  0  0  0  0  0  0  0  0  0
   -2.1978   -3.6662   16.2545 H   0  0  0  0  0  0  0  0  0  0  0  0
    0.2027   -3.2097   16.4886 H   0  0  0  0  0  0  0  0  0  0  0  0
    1.9981   -1.9617   16.0151 H   0  0  0  0  0  0  0  0  0  0  0  0
    5.0873    1.0110   12.8729 H   0  0  0  0  0  0  0  0  0  0  0  0
    4.6182    2.3239   14.0055 H   0  0  0  0  0  0  0  0  0  0  0  0
    6.8415    0.8677   15.3023 H   0  0  0  0  0  0  0  0  0  0  0  0
    6.2486   -0.7553   17.3510 H   0  0  0  0  0  0  0  0  0  0  0  0
    4.5877    2.3606   11.2431 H   0  0  0  0  0  0  0  0  0  0  0  0
    3.8686    3.8259    9.3690 H   0  0  0  0  0  0  0  0  0  0  0  0
   -0.9504    5.1675    8.8821 H   0  0  0  0  0  0  0  0  0  0  0  0
   -1.3666    3.8112   11.1213 H   0  0  0  0  0  0  0  0  0  0  0  0
    0.5963    2.2125   12.8114 H   0  0  0  0  0  0  0  0  0  0  0  0
   -0.0969   -0.0330   13.6106 H   0  0  0  0  0  0  0  0  0  0  0  0
   -3.0515    1.0894   11.7666 H   0  0  0  0  0  0  0  0  0  0  0  0
   -1.7491    1.4248   12.9572 H   0  0  0  0  0  0  0  0  0  0  0  0
   -1.4953    0.1977   11.6702 H   0  0  0  0  0  0  0  0  0  0  0  0
  1  2  1  0  0  0  0
  2  3  1  0  0  0  0
  3  4  2  0  0  0  0
  3 27  1  0  0  0  0
  4  5  1  0  0  0  0
  5  6  2  0  0  0  0
  6  7  1  0  0  0  0
  6 26  1  0  0  0  0
  7  8  1  0  0  0  0
  8  9  2  0  0  0  0
  8 16  1  0  0  0  0
  9 10  1  0  0  0  0
 10 11  1  0  0  0  0
 10 17  2  0  0  0  0
 11 12  1  0  0  0  0
 12 13  1  0  0  0  0
 12 16  1  0  0  0  0
 13 14  2  0  0  0  0
 14 15  1  0  0  0  0
 15 16  2  0  0  0  0
 17 18  1  0  0  0  0
 17 25  1  0  0  0  0
 18 19  2  0  0  0  0
 19 20  1  0  0  0  0
 20 21  2  0  0  0  0
 20 24  1  0  0  0  0
 21 22  1  0  0  0  0
 22 23  2  0  0  0  0
 23 24  1  0  0  0  0
 24 25  2  0  0  0  0
 26 27  2  0  0  0  0
 27 28  1  0  0  0  0
 28 29  1  0  0  0  0
  1 30  1  0  0  0  0
  1 31  1  0  0  0  0
  1 32  1  0  0  0  0
  4 33  1  0  0  0  0
  5 34  1  0  0  0  0
  7 35  1  0  0  0  0
 11 36  1  0  0  0  0
 11 37  1  0  0  0  0
 13 38  1  0  0  0  0
 14 39  1  0  0  0  0
 18 40  1  0  0  0  0
 19 41  1  0  0  0  0
 22 42  1  0  0  0  0
 23 43  1  0  0  0  0
 25 44  1  0  0  0  0
 26 45  1  0  0  0  0
 29 46  1  0  0  0  0
 29 47  1  0  0  0  0
 29 48  1  0  0  0  0
M  END
> <IC50[nM]>
8.6

$$$$
CHEMBL3265020
  -OEChem-05192314333D
 Structure written by MMmdl.
 48 52  0     0  0  0  0  0  0999 V2000
   -4.2567   -3.1041   13.5694 C   0  0  0  0  0  0  0  0  0  0  0  0
   -3.8737   -2.3598   14.7157 O   0  0  0  0  0  0  0  0  0  0  0  0
   -2.5259   -2.1106   14.8172 C   0  0  0  0  0  0  0  0  0  0  0  0
   -1.7455   -2.8698   15.6821 C   0  0  0  0  0  0  0  0  0  0  0  0
   -0.3904   -2.6103   15.8138 C   0  0  0  0  0  0  0  0  0  0  0  0
    0.2204   -1.5845   15.0865 C   0  0  0  0  0  0  0  0  0  0  0  0
    1.6043   -1.3599   15.3203 N   0  0  0  0  0  0  0  0  0  0  0  0
    2.5377   -0.4463   14.7588 C   0  0  0  0  0  0  0  0  0  0  0  0
    2.1842    0.3709   13.7215 N   0  0  0  0  0  0  0  0  0  0  0  0
    3.1172    1.2388   13.2173 C   0  0  0  0  0  0  0  0  0  0  0  0
    4.4204    1.2848   13.7037 C   0  0  0  0  0  0  0  0  0  0  0  0
    4.7469    0.4890   14.7614 N   0  0  0  0  0  0  0  0  0  0  0  0
    5.8976    0.3763   15.4868 C   0  0  0  0  0  0  0  0  0  0  0  0
    5.5864   -0.5217   16.5304 C   0  0  0  0  0  0  0  0  0  0  0  0
    4.3754   -1.0422   16.3738 N   0  0  0  0  0  0  0  0  0  0  0  0
    3.8369   -0.3917   15.3265 C   0  0  0  0  0  0  0  0  0  0  0  0
    2.6436    2.1633   12.1173 C   0  0  0  0  0  0  0  0  0  0  0  0
    3.5480    2.6409   11.1599 C   0  0  0  0  0  0  0  0  0  0  0  0
    3.1566    3.4683   10.0981 C   0  0  0  0  0  0  0  0  0  0  0  0
    1.8094    3.8079   10.0262 C   0  0  0  0  0  0  0  0  0  0  0  0
    1.1129    4.5678    9.1158 N   0  0  0  0  0  0  0  0  0  0  0  0
   -0.1959    4.6369    9.4439 C   0  0  0  0  0  0  0  0  0  0  0  0
   -0.4233    3.9255   10.6079 C   0  0  0  0  0  0  0  0  0  0  0  0
    0.8581    3.3610   11.0052 C   0  0  0  0  0  0  0  0  0  0  0  0
    1.2923    2.5453   12.0556 C   0  0  0  0  0  0  0  0  0  0  0  0
   -0.5553   -0.8190   14.1924 C   0  0  0  0  0  0  0  0  0  0  0  0
   -1.9451   -1.0886   14.0616 C   0  0  0  0  0  0  0  0  0  0  0  0
   -2.7542   -0.3572   13.2046 O   0  0  0  0  0  0  0  0  0  0  0  0
   -2.2337    0.6443   12.3523 C   0  0  0  0  0  0  0  0  0  0  0  0
   -5.3466   -3.2526   13.5753 H   0  0  0  0  0  0  0  0  0  0  0  0
   -3.9666   -2.5545   12.6618 H   0  0  0  0  0  0  0  0  0  0  0  0
   -3.7535   -4.0821   13.5824 H   0  0  0  0  0  0  0  0  0  0  0  0
   -2.1978   -3.6662   16.2545 H   0  0  0  0  0  0  0  0  0  0  0  0
    0.2027   -3.2097   16.4886 H   0  0  0  0  0  0  0  0  0  0  0  0
    1.2615    0.3360   13.3376 H   0  0  0  0  0  0  0  0  0  0  0  0
    5.0873    1.0110   12.8729 H   0  0  0  0  0  0  0  0  0  0  0  0
    4.6182    2.3239   14.0055 H   0  0  0  0  0  0  0  0  0  0  0  0
    6.8415    0.8677   15.3023 H   0  0  0  0  0  0  0  0  0  0  0  0
    6.2486   -0.7553   17.3510 H   0  0  0  0  0  0  0  0  0  0  0  0
    4.5877    2.3606   11.2431 H   0  0  0  0  0  0  0  0  0  0  0  0
    3.8686    3.8259    9.3690 H   0  0  0  0  0  0  0  0  0  0  0  0
   -0.9504    5.1675    8.8821 H   0  0  0  0  0  0  0  0  0  0  0  0
   -1.3666    3.8112   11.1213 H   0  0  0  0  0  0  0  0  0  0  0  0
    0.5963    2.2125   12.8114 H   0  0  0  0  0  0  0  0  0  0  0  0
   -0.0969   -0.0330   13.6106 H   0  0  0  0  0  0  0  0  0  0  0  0
   -3.0515    1.0894   11.7666 H   0  0  0  0  0  0  0  0  0  0  0  0
   -1.7491    1.4248   12.9572 H   0  0  0  0  0  0  0  0  0  0  0  0
   -1.4953    0.1977   11.6702 H   0  0  0  0  0  0  0  0  0  0  0  0
  1  2  1  0  0  0  0
  2  3  1  0  0  0  0
  3  4  2  0  0  0  0
  3 27  1  0  0  0  0
  4  5  1  0  0  0  0
  5  6  2  0  0  0  0
  6  7  1  0  0  0  0
  6 26  1  0  0  0  0
  7  8  2  0  0  0  0
  8  9  1  0  0  0  0
  8 16  1  0  0  0  0
  9 10  1  0  0  0  0
 10 11  1  0  0  0  0
 10 17  2  0  0  0  0
 11 12  1  0  0  0  0
 12 13  1  0  0  0  0
 12 16  1  0  0  0  0
 13 14  2  0  0  0  0
 14 15  1  0  0  0  0
 15 16  2  0  0  0  0
 17 18  1  0  0  0  0
 17 25  1  0  0  0  0
 18 19  2  0  0  0  0
 19 20  1  0  0  0  0
 20 21  2  0  0  0  0
 20 24  1  0  0  0  0
 21 22  1  0  0  0  0
 22 23  2  0  0  0  0
 23 24  1  0  0  0  0
 24 25  2  0  0  0  0
 26 27  2  0  0  0  0
 27 28  1  0  0  0  0
 28 29  1  0  0  0  0
  1 30  1  0  0  0  0
  1 31  1  0  0  0  0
  1 32  1  0  0  0  0
  4 33  1  0  0  0  0
  5 34  1  0  0  0  0
  9 35  1  0  0  0  0
 11 36  1  0  0  0  0
 11 37  1  0  0  0  0
 13 38  1  0  0  0  0
 14 39  1  0  0  0  0
 18 40  1  0  0  0  0
 19 41  1  0  0  0  0
 22 42  1  0  0  0  0
 23 43  1  0  0  0  0
 25 44  1  0  0  0  0
 26 45  1  0  0  0  0
 29 46  1  0  0  0  0
 29 47  1  0  0  0  0
 29 48  1  0  0  0  0
M  END
> <IC50[nM]>
8.6

$$$$
CHEMBL3265020
  -OEChem-05192314333D
 Structure written by MMmdl.
 48 52  0     1  0  0  0  0  0999 V2000
   -4.2567   -3.1041   13.5694 C   0  0  0  0  0  0  0  0  0  0  0  0
   -3.8737   -2.3598   14.7157 O   0  0  0  0  0  0  0  0  0  0  0  0
   -2.5259   -2.1106   14.8172 C   0  0  3  0  0  0  0  0  0  0  0  0
   -1.7455   -2.8698   15.6821 C   0  0  0  0  0  0  0  0  0  0  0  0
   -0.3904   -2.6103   15.8138 C   0  0  0  0  0  0  0  0  0  0  0  0
    0.2204   -1.5845   15.0865 C   0  0  0  0  0  0  0  0  0  0  0  0
    1.6043   -1.3599   15.3203 N   0  0  0  0  0  0  0  0  0  0  0  0
    2.5377   -0.4463   14.7588 C   0  0  0  0  0  0  0  0  0  0  0  0
    2.1842    0.3709   13.7215 N   0  0  0  0  0  0  0  0  0  0  0  0
    3.1172    1.2388   13.2173 C   0  0  0  0  0  0  0  0  0  0  0  0
    4.4204    1.2848   13.7037 C   0  0  0  0  0  0  0  0  0  0  0  0
    4.7469    0.4890   14.7614 N   0  0  0  0  0  0  0  0  0  0  0  0
    5.8976    0.3763   15.4868 C   0  0  0  0  0  0  0  0  0  0  0  0
    5.5864   -0.5217   16.5304 C   0  0  0  0  0  0  0  0  0  0  0  0
    4.3754   -1.0422   16.3738 N   0  0  0  0  0  0  0  0  0  0  0  0
    3.8369   -0.3917   15.3265 C   0  0  0  0  0  0  0  0  0  0  0  0
    2.6436    2.1633   12.1173 C   0  0  0  0  0  0  0  0  0  0  0  0
    3.5480    2.6409   11.1599 C   0  0  0  0  0  0  0  0  0  0  0  0
    3.1566    3.4683   10.0981 C   0  0  0  0  0  0  0  0  0  0  0  0
    1.8094    3.8079   10.0262 C   0  0  0  0  0  0  0  0  0  0  0  0
    1.1129    4.5678    9.1158 N   0  0  0  0  0  0  0  0  0  0  0  0
   -0.1959    4.6369    9.4439 C   0  0  0  0  0  0  0  0  0  0  0  0
   -0.4233    3.9255   10.6079 C   0  0  0  0  0  0  0  0  0  0  0  0
    0.8581    3.3610   11.0052 C   0  0  0  0  0  0  0  0  0  0  0  0
    1.2923    2.5453   12.0556 C   0  0  0  0  0  0  0  0  0  0  0  0
   -0.5553   -0.8190   14.1924 C   0  0  0  0  0  0  0  0  0  0  0  0
   -1.9451   -1.0886   14.0616 C   0  0  0  0  0  0  0  0  0  0  0  0
   -2.7542   -0.3572   13.2046 O   0  0  0  0  0  0  0  0  0  0  0  0
   -2.2337    0.6443   12.3523 C   0  0  0  0  0  0  0  0  0  0  0  0
   -5.3466   -3.2526   13.5753 H   0  0  0  0  0  0  0  0  0  0  0  0
   -3.9666   -2.5545   12.6618 H   0  0  0  0  0  0  0  0  0  0  0  0
   -3.7535   -4.0821   13.5824 H   0  0  0  0  0  0  0  0  0  0  0  0
   -2.3291   -2.8267   14.0058 H   0  0  0  0  0  0  0  0  0  0  0  0
   -2.1978   -3.6662   16.2545 H   0  0  0  0  0  0  0  0  0  0  0  0
    0.2027   -3.2097   16.4886 H   0  0  0  0  0  0  0  0  0  0  0  0
    5.1556    1.9355   13.2539 H   0  0  0  0  0  0  0  0  0  0  0  0
    6.8415    0.8677   15.3023 H   0  0  0  0  0  0  0  0  0  0  0  0
    6.2486   -0.7553   17.3510 H   0  0  0  0  0  0  0  0  0  0  0  0
    4.5877    2.3606   11.2431 H   0  0  0  0  0  0  0  0  0  0  0  0
    3.8686    3.8259    9.3690 H   0  0  0  0  0  0  0  0  0  0  0  0
   -0.9504    5.1675    8.8821 H   0  0  0  0  0  0  0  0  0  0  0  0
   -0.8037    4.5945   11.3938 H   0  0  0  0  0  0  0  0  0  0  0  0
   -1.1522    3.1221   10.4258 H   0  0  0  0  0  0  0  0  0  0  0  0
    0.5963    2.2125   12.8114 H   0  0  0  0  0  0  0  0  0  0  0  0
   -0.0969   -0.0330   13.6106 H   0  0  0  0  0  0  0  0  0  0  0  0
   -3.0515    1.0894   11.7666 H   0  0  0  0  0  0  0  0  0  0  0  0
   -1.7491    1.4248   12.9572 H   0  0  0  0  0  0  0  0  0  0  0  0
   -1.4953    0.1977   11.6702 H   0  0  0  0  0  0  0  0  0  0  0  0
  1  2  1  0  0  0  0
  2  3  1  0  0  0  0
  3  4  1  0  0  0  0
  3 27  1  0  0  0  0
  4  5  2  0  0  0  0
  5  6  1  0  0  0  0
  6  7  2  0  0  0  0
  6 26  1  0  0  0  0
  7  8  1  0  0  0  0
  8  9  2  0  0  0  0
  8 16  1  0  0  0  0
  9 10  1  0  0  0  0
 10 11  2  0  0  0  0
 10 17  1  0  0  0  0
 11 12  1  0  0  0  0
 12 13  1  0  0  0  0
 12 16  1  0  0  0  0
 13 14  2  0  0  0  0
 14 15  1  0  0  0  0
 15 16  2  0  0  0  0
 17 18  2  0  0  0  0
 17 25  1  0  0  0  0
 18 19  1  0  0  0  0
 19 20  2  0  0  0  0
 20 21  1  0  0  0  0
 20 24  1  0  0  0  0
 21 22  2  0  0  0  0
 22 23  1  0  0  0  0
 23 24  1  0  0  0  0
 24 25  2  0  0  0  0
 26 27  2  0  0  0  0
 27 28  1  0  0  0  0
 28 29  1  0  0  0  0
  1 30  1  0  0  0  0
  1 31  1  0  0  0  0
  1 32  1  0  0  0  0
  3 33  1  0  0  0  0
  4 34  1  0  0  0  0
  5 35  1  0  0  0  0
 11 36  1  0  0  0  0
 13 37  1  0  0  0  0
 14 38  1  0  0  0  0
 18 39  1  0  0  0  0
 19 40  1  0  0  0  0
 22 41  1  0  0  0  0
 23 42  1  0  0  0  0
 23 43  1  0  0  0  0
 25 44  1  0  0  0  0
 26 45  1  0  0  0  0
 29 46  1  0  0  0  0
 29 47  1  0  0  0  0
 29 48  1  0  0  0  0
M  END
> <IC50[nM]>
8.6

$$$$
CHEMBL3265020
  -OEChem-05192314333D
 Structure written by MMmdl.
 48 52  0     0  0  0  0  0  0999 V2000
   -4.2567   -3.1041   13.5694 C   0  0  0  0  0  0  0  0  0  0  0  0
   -3.8737   -2.3598   14.7157 O   0  0  0  0  0  0  0  0  0  0  0  0
   -2.5259   -2.1106   14.8172 C   0  0  0  0  0  0  0  0  0  0  0  0
   -1.7455   -2.8698   15.6821 C   0  0  0  0  0  0  0  0  0  0  0  0
   -0.3904   -2.6103   15.8138 C   0  0  0  0  0  0  0  0  0  0  0  0
    0.2204   -1.5845   15.0865 C   0  0  0  0  0  0  0  0  0  0  0  0
    1.6043   -1.3599   15.3203 N   0  0  0  0  0  0  0  0  0  0  0  0
    2.5377   -0.4463   14.7588 C   0  0  0  0  0  0  0  0  0  0  0  0
    2.1842    0.3709   13.7215 N   0  0  0  0  0  0  0  0  0  0  0  0
    3.1172    1.2388   13.2173 C   0  0  0  0  0  0  0  0  0  0  0  0
    4.4204    1.2848   13.7037 C   0  0  0  0  0  0  0  0  0  0  0  0
    4.7469    0.4890   14.7614 N   0  0  0  0  0  0  0  0  0  0  0  0
    5.8976    0.3763   15.4868 C   0  0  0  0  0  0  0  0  0  0  0  0
    5.5864   -0.5217   16.5304 C   0  0  0  0  0  0  0  0  0  0  0  0
    4.3754   -1.0422   16.3738 N   0  0  0  0  0  0  0  0  0  0  0  0
    3.8369   -0.3917   15.3265 C   0  0  0  0  0  0  0  0  0  0  0  0
    2.6436    2.1633   12.1173 C   0  0  0  0  0  0  0  0  0  0  0  0
    3.5480    2.6409   11.1599 C   0  0  0  0  0  0  0  0  0  0  0  0
    3.1566    3.4683   10.0981 C   0  0  0  0  0  0  0  0  0  0  0  0
    1.8094    3.8079   10.0262 C   0  0  0  0  0  0  0  0  0  0  0  0
    1.1129    4.5678    9.1158 N   0  0  0  0  0  0  0  0  0  0  0  0
   -0.1959    4.6369    9.4439 C   0  0  0  0  0  0  0  0  0  0  0  0
   -0.4233    3.9255   10.6079 C   0  0  0  0  0  0  0  0  0  0  0  0
    0.8581    3.3610   11.0052 C   0  0  0  0  0  0  0  0  0  0  0  0
    1.2923    2.5453   12.0556 C   0  0  0  0  0  0  0  0  0  0  0  0
   -0.5553   -0.8190   14.1924 C   0  0  0  0  0  0  0  0  0  0  0  0
   -1.9451   -1.0886   14.0616 C   0  0  0  0  0  0  0  0  0  0  0  0
   -2.7542   -0.3572   13.2046 O   0  0  0  0  0  0  0  0  0  0  0  0
   -2.2337    0.6443   12.3523 C   0  0  0  0  0  0  0  0  0  0  0  0
   -5.3466   -3.2526   13.5753 H   0  0  0  0  0  0  0  0  0  0  0  0
   -3.9666   -2.5545   12.6618 H   0  0  0  0  0  0  0  0  0  0  0  0
   -3.7535   -4.0821   13.5824 H   0  0  0  0  0  0  0  0  0  0  0  0
   -2.1978   -3.6662   16.2545 H   0  0  0  0  0  0  0  0  0  0  0  0
   -0.2168   -2.3863   16.8767 H   0  0  0  0  0  0  0  0  0  0  0  0
    0.1335   -3.5393   15.5446 H   0  0  0  0  0  0  0  0  0  0  0  0
    5.1556    1.9355   13.2539 H   0  0  0  0  0  0  0  0  0  0  0  0
    6.8415    0.8677   15.3023 H   0  0  0  0  0  0  0  0  0  0  0  0
    6.2486   -0.7553   17.3510 H   0  0  0  0  0  0  0  0  0  0  0  0
    4.5877    2.3606   11.2431 H   0  0  0  0  0  0  0  0  0  0  0  0
    3.8686    3.8259    9.3690 H   0  0  0  0  0  0  0  0  0  0  0  0
   -0.9504    5.1675    8.8821 H   0  0  0  0  0  0  0  0  0  0  0  0
   -0.8037    4.5945   11.3938 H   0  0  0  0  0  0  0  0  0  0  0  0
   -1.1522    3.1221   10.4258 H   0  0  0  0  0  0  0  0  0  0  0  0
    0.5963    2.2125   12.8114 H   0  0  0  0  0  0  0  0  0  0  0  0
   -0.0969   -0.0330   13.6106 H   0  0  0  0  0  0  0  0  0  0  0  0
   -3.0515    1.0894   11.7666 H   0  0  0  0  0  0  0  0  0  0  0  0
   -1.7491    1.4248   12.9572 H   0  0  0  0  0  0  0  0  0  0  0  0
   -1.4953    0.1977   11.6702 H   0  0  0  0  0  0  0  0  0  0  0  0
  1  2  1  0  0  0  0
  2  3  1  0  0  0  0
  3  4  2  0  0  0  0
  3 27  1  0  0  0  0
  4  5  1  0  0  0  0
  5  6  1  0  0  0  0
  6  7  2  0  0  0  0
  6 26  1  0  0  0  0
  7  8  1  0  0  0  0
  8  9  2  0  0  0  0
  8 16  1  0  0  0  0
  9 10  1  0  0  0  0
 10 11  2  0  0  0  0
 10 17  1  0  0  0  0
 11 12  1  0  0  0  0
 12 13  1  0  0  0  0
 12 16  1  0  0  0  0
 13 14  2  0  0  0  0
 14 15  1  0  0  0  0
 15 16  2  0  0  0  0
 17 18  2  0  0  0  0
 17 25  1  0  0  0  0
 18 19  1  0  0  0  0
 19 20  2  0  0  0  0
 20 21  1  0  0  0  0
 20 24  1  0  0  0  0
 21 22  2  0  0  0  0
 22 23  1  0  0  0  0
 23 24  1  0  0  0  0
 24 25  2  0  0  0  0
 26 27  2  0  0  0  0
 27 28  1  0  0  0  0
 28 29  1  0  0  0  0
  1 30  1  0  0  0  0
  1 31  1  0  0  0  0
  1 32  1  0  0  0  0
  4 33  1  0  0  0  0
  5 34  1  0  0  0  0
  5 35  1  0  0  0  0
 11 36  1  0  0  0  0
 13 37  1  0  0  0  0
 14 38  1  0  0  0  0
 18 39  1  0  0  0  0
 19 40  1  0  0  0  0
 22 41  1  0  0  0  0
 23 42  1  0  0  0  0
 23 43  1  0  0  0  0
 25 44  1  0  0  0  0
 26 45  1  0  0  0  0
 29 46  1  0  0  0  0
 29 47  1  0  0  0  0
 29 48  1  0  0  0  0
M  END
> <IC50[nM]>
8.6

$$$$
CHEMBL3265020
  -OEChem-05192314333D
 Structure written by MMmdl.
 48 52  0     0  0  0  0  0  0999 V2000
   -4.2567   -3.1041   13.5694 C   0  0  0  0  0  0  0  0  0  0  0  0
   -3.8737   -2.3598   14.7157 O   0  0  0  0  0  0  0  0  0  0  0  0
   -2.5259   -2.1106   14.8172 C   0  0  0  0  0  0  0  0  0  0  0  0
   -1.7455   -2.8698   15.6821 C   0  0  0  0  0  0  0  0  0  0  0  0
   -0.3904   -2.6103   15.8138 C   0  0  0  0  0  0  0  0  0  0  0  0
    0.2204   -1.5845   15.0865 C   0  0  0  0  0  0  0  0  0  0  0  0
    1.6043   -1.3599   15.3203 N   0  0  0  0  0  0  0  0  0  0  0  0
    2.5377   -0.4463   14.7588 C   0  0  0  0  0  0  0  0  0  0  0  0
    2.1842    0.3709   13.7215 N   0  0  0  0  0  0  0  0  0  0  0  0
    3.1172    1.2388   13.2173 C   0  0  0  0  0  0  0  0  0  0  0  0
    4.4204    1.2848   13.7037 C   0  0  0  0  0  0  0  0  0  0  0  0
    4.7469    0.4890   14.7614 N   0  0  0  0  0  0  0  0  0  0  0  0
    5.8976    0.3763   15.4868 C   0  0  0  0  0  0  0  0  0  0  0  0
    5.5864   -0.5217   16.5304 C   0  0  0  0  0  0  0  0  0  0  0  0
    4.3754   -1.0422   16.3738 N   0  0  0  0  0  0  0  0  0  0  0  0
    3.8369   -0.3917   15.3265 C   0  0  0  0  0  0  0  0  0  0  0  0
    2.6436    2.1633   12.1173 C   0  0  0  0  0  0  0  0  0  0  0  0
    3.5480    2.6409   11.1599 C   0  0  0  0  0  0  0  0  0  0  0  0
    3.1566    3.4683   10.0981 C   0  0  0  0  0  0  0  0  0  0  0  0
    1.8094    3.8079   10.0262 C   0  0  0  0  0  0  0  0  0  0  0  0
    1.1129    4.5678    9.1158 N   0  0  0  0  0  0  0  0  0  0  0  0
   -0.1959    4.6369    9.4439 C   0  0  0  0  0  0  0  0  0  0  0  0
   -0.4233    3.9255   10.6079 C   0  0  0  0  0  0  0  0  0  0  0  0
    0.8581    3.3610   11.0052 C   0  0  0  0  0  0  0  0  0  0  0  0
    1.2923    2.5453   12.0556 C   0  0  0  0  0  0  0  0  0  0  0  0
   -0.5553   -0.8190   14.1924 C   0  0  0  0  0  0  0  0  0  0  0  0
   -1.9451   -1.0886   14.0616 C   0  0  0  0  0  0  0  0  0  0  0  0
   -2.7542   -0.3572   13.2046 O   0  0  0  0  0  0  0  0  0  0  0  0
   -2.2337    0.6443   12.3523 C   0  0  0  0  0  0  0  0  0  0  0  0
   -5.3466   -3.2526   13.5753 H   0  0  0  0  0  0  0  0  0  0  0  0
   -3.9666   -2.5545   12.6618 H   0  0  0  0  0  0  0  0  0  0  0  0
   -3.7535   -4.0821   13.5824 H   0  0  0  0  0  0  0  0  0  0  0  0
   -2.1978   -3.6662   16.2545 H   0  0  0  0  0  0  0  0  0  0  0  0
    0.2027   -3.2097   16.4886 H   0  0  0  0  0  0  0  0  0  0  0  0
    5.1556    1.9355   13.2539 H   0  0  0  0  0  0  0  0  0  0  0  0
    6.8415    0.8677   15.3023 H   0  0  0  0  0  0  0  0  0  0  0  0
    6.2486   -0.7553   17.3510 H   0  0  0  0  0  0  0  0  0  0  0  0
    4.5877    2.3606   11.2431 H   0  0  0  0  0  0  0  0  0  0  0  0
    3.8686    3.8259    9.3690 H   0  0  0  0  0  0  0  0  0  0  0  0
   -0.9504    5.1675    8.8821 H   0  0  0  0  0  0  0  0  0  0  0  0
   -0.8037    4.5945   11.3938 H   0  0  0  0  0  0  0  0  0  0  0  0
   -1.1522    3.1221   10.4258 H   0  0  0  0  0  0  0  0  0  0  0  0
    0.5963    2.2125   12.8114 H   0  0  0  0  0  0  0  0  0  0  0  0
   -0.4615    0.2311   14.5061 H   0  0  0  0  0  0  0  0  0  0  0  0
   -0.1100   -0.9447   13.1945 H   0  0  0  0  0  0  0  0  0  0  0  0
   -3.0515    1.0894   11.7666 H   0  0  0  0  0  0  0  0  0  0  0  0
   -1.7491    1.4248   12.9572 H   0  0  0  0  0  0  0  0  0  0  0  0
   -1.4953    0.1977   11.6702 H   0  0  0  0  0  0  0  0  0  0  0  0
  1  2  1  0  0  0  0
  2  3  1  0  0  0  0
  3  4  1  0  0  0  0
  3 27  2  0  0  0  0
  4  5  2  0  0  0  0
  5  6  1  0  0  0  0
  6  7  2  0  0  0  0
  6 26  1  0  0  0  0
  7  8  1  0  0  0  0
  8  9  2  0  0  0  0
  8 16  1  0  0  0  0
  9 10  1  0  0  0  0
 10 11  2  0  0  0  0
 10 17  1  0  0  0  0
 11 12  1  0  0  0  0
 12 13  1  0  0  0  0
 12 16  1  0  0  0  0
 13 14  2  0  0  0  0
 14 15  1  0  0  0  0
 15 16  2  0  0  0  0
 17 18  2  0  0  0  0
 17 25  1  0  0  0  0
 18 19  1  0  0  0  0
 19 20  2  0  0  0  0
 20 21  1  0  0  0  0
 20 24  1  0  0  0  0
 21 22  2  0  0  0  0
 22 23  1  0  0  0  0
 23 24  1  0  0  0  0
 24 25  2  0  0  0  0
 26 27  1  0  0  0  0
 27 28  1  0  0  0  0
 28 29  1  0  0  0  0
  1 30  1  0  0  0  0
  1 31  1  0  0  0  0
  1 32  1  0  0  0  0
  4 33  1  0  0  0  0
  5 34  1  0  0  0  0
 11 35  1  0  0  0  0
 13 36  1  0  0  0  0
 14 37  1  0  0  0  0
 18 38  1  0  0  0  0
 19 39  1  0  0  0  0
 22 40  1  0  0  0  0
 23 41  1  0  0  0  0
 23 42  1  0  0  0  0
 25 43  1  0  0  0  0
 26 44  1  0  0  0  0
 26 45  1  0  0  0  0
 29 46  1  0  0  0  0
 29 47  1  0  0  0  0
 29 48  1  0  0  0  0
M  END
> <IC50[nM]>
8.6

$$$$
CHEMBL3265020
  -OEChem-05192314333D
 Structure written by MMmdl.
 48 52  0     1  0  0  0  0  0999 V2000
   -4.2567   -3.1041   13.5694 C   0  0  0  0  0  0  0  0  0  0  0  0
   -3.8737   -2.3598   14.7157 O   0  0  0  0  0  0  0  0  0  0  0  0
   -2.5259   -2.1106   14.8172 C   0  0  0  0  0  0  0  0  0  0  0  0
   -1.7455   -2.8698   15.6821 C   0  0  0  0  0  0  0  0  0  0  0  0
   -0.3904   -2.6103   15.8138 C   0  0  0  0  0  0  0  0  0  0  0  0
    0.2204   -1.5845   15.0865 C   0  0  0  0  0  0  0  0  0  0  0  0
    1.6043   -1.3599   15.3203 N   0  0  0  0  0  0  0  0  0  0  0  0
    2.5377   -0.4463   14.7588 C   0  0  0  0  0  0  0  0  0  0  0  0
    2.1842    0.3709   13.7215 N   0  0  0  0  0  0  0  0  0  0  0  0
    3.1172    1.2388   13.2173 C   0  0  0  0  0  0  0  0  0  0  0  0
    4.4204    1.2848   13.7037 C   0  0  0  0  0  0  0  0  0  0  0  0
    4.7469    0.4890   14.7614 N   0  0  0  0  0  0  0  0  0  0  0  0
    5.8976    0.3763   15.4868 C   0  0  0  0  0  0  0  0  0  0  0  0
    5.5864   -0.5217   16.5304 C   0  0  0  0  0  0  0  0  0  0  0  0
    4.3754   -1.0422   16.3738 N   0  0  0  0  0  0  0  0  0  0  0  0
    3.8369   -0.3917   15.3265 C   0  0  0  0  0  0  0  0  0  0  0  0
    2.6436    2.1633   12.1173 C   0  0  0  0  0  0  0  0  0  0  0  0
    3.5480    2.6409   11.1599 C   0  0  0  0  0  0  0  0  0  0  0  0
    3.1566    3.4683   10.0981 C   0  0  0  0  0  0  0  0  0  0  0  0
    1.8094    3.8079   10.0262 C   0  0  0  0  0  0  0  0  0  0  0  0
    1.1129    4.5678    9.1158 N   0  0  0  0  0  0  0  0  0  0  0  0
   -0.1959    4.6369    9.4439 C   0  0  0  0  0  0  0  0  0  0  0  0
   -0.4233    3.9255   10.6079 C   0  0  0  0  0  0  0  0  0  0  0  0
    0.8581    3.3610   11.0052 C   0  0  3  0  0  0  0  0  0  0  0  0
    1.2923    2.5453   12.0556 C   0  0  0  0  0  0  0  0  0  0  0  0
   -0.5553   -0.8190   14.1924 C   0  0  0  0  0  0  0  0  0  0  0  0
   -1.9451   -1.0886   14.0616 C   0  0  0  0  0  0  0  0  0  0  0  0
   -2.7542   -0.3572   13.2046 O   0  0  0  0  0  0  0  0  0  0  0  0
   -2.2337    0.6443   12.3523 C   0  0  0  0  0  0  0  0  0  0  0  0
   -5.3466   -3.2526   13.5753 H   0  0  0  0  0  0  0  0  0  0  0  0
   -3.9666   -2.5545   12.6618 H   0  0  0  0  0  0  0  0  0  0  0  0
   -3.7535   -4.0821   13.5824 H   0  0  0  0  0  0  0  0  0  0  0  0
   -2.1978   -3.6662   16.2545 H   0  0  0  0  0  0  0  0  0  0  0  0
    0.2027   -3.2097   16.4886 H   0  0  0  0  0  0  0  0  0  0  0  0
    1.9981   -1.9617   16.0151 H   0  0  0  0  0  0  0  0  0  0  0  0
    5.1556    1.9355   13.2539 H   0  0  0  0  0  0  0  0  0  0  0  0
    6.8415    0.8677   15.3023 H   0  0  0  0  0  0  0  0  0  0  0  0
    6.2486   -0.7553   17.3510 H   0  0  0  0  0  0  0  0  0  0  0  0
    4.5877    2.3606   11.2431 H   0  0  0  0  0  0  0  0  0  0  0  0
    3.8686    3.8259    9.3690 H   0  0  0  0  0  0  0  0  0  0  0  0
   -0.9504    5.1675    8.8821 H   0  0  0  0  0  0  0  0  0  0  0  0
   -1.3666    3.8112   11.1213 H   0  0  0  0  0  0  0  0  0  0  0  0
    1.0636    4.2543   11.6133 H   0  0  0  0  0  0  0  0  0  0  0  0
    0.5963    2.2125   12.8114 H   0  0  0  0  0  0  0  0  0  0  0  0
   -0.0969   -0.0330   13.6106 H   0  0  0  0  0  0  0  0  0  0  0  0
   -3.0515    1.0894   11.7666 H   0  0  0  0  0  0  0  0  0  0  0  0
   -1.7491    1.4248   12.9572 H   0  0  0  0  0  0  0  0  0  0  0  0
   -1.4953    0.1977   11.6702 H   0  0  0  0  0  0  0  0  0  0  0  0
  1  2  1  0  0  0  0
  2  3  1  0  0  0  0
  3  4  2  0  0  0  0
  3 27  1  0  0  0  0
  4  5  1  0  0  0  0
  5  6  2  0  0  0  0
  6  7  1  0  0  0  0
  6 26  1  0  0  0  0
  7  8  1  0  0  0  0
  8  9  2  0  0  0  0
  8 16  1  0  0  0  0
  9 10  1  0  0  0  0
 10 11  2  0  0  0  0
 10 17  1  0  0  0  0
 11 12  1  0  0  0  0
 12 13  1  0  0  0  0
 12 16  1  0  0  0  0
 13 14  2  0  0  0  0
 14 15  1  0  0  0  0
 15 16  2  0  0  0  0
 17 18  1  0  0  0  0
 17 25  2  0  0  0  0
 18 19  2  0  0  0  0
 19 20  1  0  0  0  0
 20 21  2  0  0  0  0
 20 24  1  0  0  0  0
 21 22  1  0  0  0  0
 22 23  2  0  0  0  0
 23 24  1  0  0  0  0
 24 25  1  0  0  0  0
 26 27  2  0  0  0  0
 27 28  1  0  0  0  0
 28 29  1  0  0  0  0
  1 30  1  0  0  0  0
  1 31  1  0  0  0  0
  1 32  1  0  0  0  0
  4 33  1  0  0  0  0
  5 34  1  0  0  0  0
  7 35  1  0  0  0  0
 11 36  1  0  0  0  0
 13 37  1  0  0  0  0
 14 38  1  0  0  0  0
 18 39  1  0  0  0  0
 19 40  1  0  0  0  0
 22 41  1  0  0  0  0
 23 42  1  0  0  0  0
 24 43  1  0  0  0  0
 25 44  1  0  0  0  0
 26 45  1  0  0  0  0
 29 46  1  0  0  0  0
 29 47  1  0  0  0  0
 29 48  1  0  0  0  0
M  END
> <IC50[nM]>
8.6

$$$$
CHEMBL3265020
  -OEChem-05192314333D
 Structure written by MMmdl.
 48 52  0     1  0  0  0  0  0999 V2000
   -4.2567   -3.1041   13.5694 C   0  0  0  0  0  0  0  0  0  0  0  0
   -3.8737   -2.3598   14.7157 O   0  0  0  0  0  0  0  0  0  0  0  0
   -2.5259   -2.1106   14.8172 C   0  0  0  0  0  0  0  0  0  0  0  0
   -1.7455   -2.8698   15.6821 C   0  0  0  0  0  0  0  0  0  0  0  0
   -0.3904   -2.6103   15.8138 C   0  0  0  0  0  0  0  0  0  0  0  0
    0.2204   -1.5845   15.0865 C   0  0  0  0  0  0  0  0  0  0  0  0
    1.6043   -1.3599   15.3203 N   0  0  0  0  0  0  0  0  0  0  0  0
    2.5377   -0.4463   14.7588 C   0  0  0  0  0  0  0  0  0  0  0  0
    2.1842    0.3709   13.7215 N   0  0  0  0  0  0  0  0  0  0  0  0
    3.1172    1.2388   13.2173 C   0  0  0  0  0  0  0  0  0  0  0  0
    4.4204    1.2848   13.7037 C   0  0  0  0  0  0  0  0  0  0  0  0
    4.7469    0.4890   14.7614 N   0  0  0  0  0  0  0  0  0  0  0  0
    5.8976    0.3763   15.4868 C   0  0  0  0  0  0  0  0  0  0  0  0
    5.5864   -0.5217   16.5304 C   0  0  0  0  0  0  0  0  0  0  0  0
    4.3754   -1.0422   16.3738 N   0  0  0  0  0  0  0  0  0  0  0  0
    3.8369   -0.3917   15.3265 C   0  0  0  0  0  0  0  0  0  0  0  0
    2.6436    2.1633   12.1173 C   0  0  3  0  0  0  0  0  0  0  0  0
    3.5480    2.6409   11.1599 C   0  0  0  0  0  0  0  0  0  0  0  0
    3.1566    3.4683   10.0981 C   0  0  0  0  0  0  0  0  0  0  0  0
    1.8094    3.8079   10.0262 C   0  0  0  0  0  0  0  0  0  0  0  0
    1.1129    4.5678    9.1158 N   0  0  0  0  0  0  0  0  0  0  0  0
   -0.1959    4.6369    9.4439 C   0  0  0  0  0  0  0  0  0  0  0  0
   -0.4233    3.9255   10.6079 C   0  0  0  0  0  0  0  0  0  0  0  0
    0.8581    3.3610   11.0052 C   0  0  0  0  0  0  0  0  0  0  0  0
    1.2923    2.5453   12.0556 C   0  0  0  0  0  0  0  0  0  0  0  0
   -0.5553   -0.8190   14.1924 C   0  0  0  0  0  0  0  0  0  0  0  0
   -1.9451   -1.0886   14.0616 C   0  0  0  0  0  0  0  0  0  0  0  0
   -2.7542   -0.3572   13.2046 O   0  0  0  0  0  0  0  0  0  0  0  0
   -2.2337    0.6443   12.3523 C   0  0  0  0  0  0  0  0  0  0  0  0
   -5.3466   -3.2526   13.5753 H   0  0  0  0  0  0  0  0  0  0  0  0
   -3.9666   -2.5545   12.6618 H   0  0  0  0  0  0  0  0  0  0  0  0
   -3.7535   -4.0821   13.5824 H   0  0  0  0  0  0  0  0  0  0  0  0
   -2.1978   -3.6662   16.2545 H   0  0  0  0  0  0  0  0  0  0  0  0
    0.2027   -3.2097   16.4886 H   0  0  0  0  0  0  0  0  0  0  0  0
    1.9981   -1.9617   16.0151 H   0  0  0  0  0  0  0  0  0  0  0  0
    5.1556    1.9355   13.2539 H   0  0  0  0  0  0  0  0  0  0  0  0
    6.8415    0.8677   15.3023 H   0  0  0  0  0  0  0  0  0  0  0  0
    6.2486   -0.7553   17.3510 H   0  0  0  0  0  0  0  0  0  0  0  0
    2.4271    1.2937   11.4794 H   0  0  0  0  0  0  0  0  0  0  0  0
    4.5877    2.3606   11.2431 H   0  0  0  0  0  0  0  0  0  0  0  0
    3.8686    3.8259    9.3690 H   0  0  0  0  0  0  0  0  0  0  0  0
   -0.9504    5.1675    8.8821 H   0  0  0  0  0  0  0  0  0  0  0  0
   -1.3666    3.8112   11.1213 H   0  0  0  0  0  0  0  0  0  0  0  0
    0.5963    2.2125   12.8114 H   0  0  0  0  0  0  0  0  0  0  0  0
   -0.0969   -0.0330   13.6106 H   0  0  0  0  0  0  0  0  0  0  0  0
   -3.0515    1.0894   11.7666 H   0  0  0  0  0  0  0  0  0  0  0  0
   -1.7491    1.4248   12.9572 H   0  0  0  0  0  0  0  0  0  0  0  0
   -1.4953    0.1977   11.6702 H   0  0  0  0  0  0  0  0  0  0  0  0
  1  2  1  0  0  0  0
  2  3  1  0  0  0  0
  3  4  2  0  0  0  0
  3 27  1  0  0  0  0
  4  5  1  0  0  0  0
  5  6  2  0  0  0  0
  6  7  1  0  0  0  0
  6 26  1  0  0  0  0
  7  8  1  0  0  0  0
  8  9  2  0  0  0  0
  8 16  1  0  0  0  0
  9 10  1  0  0  0  0
 10 11  2  0  0  0  0
 10 17  1  0  0  0  0
 11 12  1  0  0  0  0
 12 13  1  0  0  0  0
 12 16  1  0  0  0  0
 13 14  2  0  0  0  0
 14 15  1  0  0  0  0
 15 16  2  0  0  0  0
 17 18  1  0  0  0  0
 17 25  1  0  0  0  0
 18 19  2  0  0  0  0
 19 20  1  0  0  0  0
 20 21  2  0  0  0  0
 20 24  1  0  0  0  0
 21 22  1  0  0  0  0
 22 23  2  0  0  0  0
 23 24  1  0  0  0  0
 24 25  2  0  0  0  0
 26 27  2  0  0  0  0
 27 28  1  0  0  0  0
 28 29  1  0  0  0  0
  1 30  1  0  0  0  0
  1 31  1  0  0  0  0
  1 32  1  0  0  0  0
  4 33  1  0  0  0  0
  5 34  1  0  0  0  0
  7 35  1  0  0  0  0
 11 36  1  0  0  0  0
 13 37  1  0  0  0  0
 14 38  1  0  0  0  0
 17 39  1  0  0  0  0
 18 40  1  0  0  0  0
 19 41  1  0  0  0  0
 22 42  1  0  0  0  0
 23 43  1  0  0  0  0
 25 44  1  0  0  0  0
 26 45  1  0  0  0  0
 29 46  1  0  0  0  0
 29 47  1  0  0  0  0
 29 48  1  0  0  0  0
M  END
> <IC50[nM]>
8.6

$$$$
CHEMBL3265020
  -OEChem-05192314333D
 Structure written by MMmdl.
 48 52  0     1  0  0  0  0  0999 V2000
   -4.2567   -3.1041   13.5694 C   0  0  0  0  0  0  0  0  0  0  0  0
   -3.8737   -2.3598   14.7157 O   0  0  0  0  0  0  0  0  0  0  0  0
   -2.5259   -2.1106   14.8172 C   0  0  0  0  0  0  0  0  0  0  0  0
   -1.7455   -2.8698   15.6821 C   0  0  0  0  0  0  0  0  0  0  0  0
   -0.3904   -2.6103   15.8138 C   0  0  0  0  0  0  0  0  0  0  0  0
    0.2204   -1.5845   15.0865 C   0  0  0  0  0  0  0  0  0  0  0  0
    1.6043   -1.3599   15.3203 N   0  0  0  0  0  0  0  0  0  0  0  0
    2.5377   -0.4463   14.7588 C   0  0  0  0  0  0  0  0  0  0  0  0
    2.1842    0.3709   13.7215 N   0  0  0  0  0  0  0  0  0  0  0  0
    3.1172    1.2388   13.2173 C   0  0  0  0  0  0  0  0  0  0  0  0
    4.4204    1.2848   13.7037 C   0  0  0  0  0  0  0  0  0  0  0  0
    4.7469    0.4890   14.7614 N   0  0  0  0  0  0  0  0  0  0  0  0
    5.8976    0.3763   15.4868 C   0  0  0  0  0  0  0  0  0  0  0  0
    5.5864   -0.5217   16.5304 C   0  0  0  0  0  0  0  0  0  0  0  0
    4.3754   -1.0422   16.3738 N   0  0  0  0  0  0  0  0  0  0  0  0
    3.8369   -0.3917   15.3265 C   0  0  0  0  0  0  0  0  0  0  0  0
    2.6436    2.1633   12.1173 C   0  0  0  0  0  0  0  0  0  0  0  0
    3.5480    2.6409   11.1599 C   0  0  0  0  0  0  0  0  0  0  0  0
    3.1566    3.4683   10.0981 C   0  0  0  0  0  0  0  0  0  0  0  0
    1.8094    3.8079   10.0262 C   0  0  3  0  0  0  0  0  0  0  0  0
    1.1129    4.5678    9.1158 N   0  0  0  0  0  0  0  0  0  0  0  0
   -0.1959    4.6369    9.4439 C   0  0  0  0  0  0  0  0  0  0  0  0
   -0.4233    3.9255   10.6079 C   0  0  0  0  0  0  0  0  0  0  0  0
    0.8581    3.3610   11.0052 C   0  0  0  0  0  0  0  0  0  0  0  0
    1.2923    2.5453   12.0556 C   0  0  0  0  0  0  0  0  0  0  0  0
   -0.5553   -0.8190   14.1924 C   0  0  0  0  0  0  0  0  0  0  0  0
   -1.9451   -1.0886   14.0616 C   0  0  0  0  0  0  0  0  0  0  0  0
   -2.7542   -0.3572   13.2046 O   0  0  0  0  0  0  0  0  0  0  0  0
   -2.2337    0.6443   12.3523 C   0  0  0  0  0  0  0  0  0  0  0  0
   -5.3466   -3.2526   13.5753 H   0  0  0  0  0  0  0  0  0  0  0  0
   -3.9666   -2.5545   12.6618 H   0  0  0  0  0  0  0  0  0  0  0  0
   -3.7535   -4.0821   13.5824 H   0  0  0  0  0  0  0  0  0  0  0  0
   -2.1978   -3.6662   16.2545 H   0  0  0  0  0  0  0  0  0  0  0  0
    0.2027   -3.2097   16.4886 H   0  0  0  0  0  0  0  0  0  0  0  0
    1.9981   -1.9617   16.0151 H   0  0  0  0  0  0  0  0  0  0  0  0
    5.1556    1.9355   13.2539 H   0  0  0  0  0  0  0  0  0  0  0  0
    6.8415    0.8677   15.3023 H   0  0  0  0  0  0  0  0  0  0  0  0
    6.2486   -0.7553   17.3510 H   0  0  0  0  0  0  0  0  0  0  0  0
    4.5877    2.3606   11.2431 H   0  0  0  0  0  0  0  0  0  0  0  0
    3.8686    3.8259    9.3690 H   0  0  0  0  0  0  0  0  0  0  0  0
    1.6141    2.9077    9.4249 H   0  0  0  0  0  0  0  0  0  0  0  0
   -0.9504    5.1675    8.8821 H   0  0  0  0  0  0  0  0  0  0  0  0
   -1.3666    3.8112   11.1213 H   0  0  0  0  0  0  0  0  0  0  0  0
    0.5963    2.2125   12.8114 H   0  0  0  0  0  0  0  0  0  0  0  0
   -0.0969   -0.0330   13.6106 H   0  0  0  0  0  0  0  0  0  0  0  0
   -3.0515    1.0894   11.7666 H   0  0  0  0  0  0  0  0  0  0  0  0
   -1.7491    1.4248   12.9572 H   0  0  0  0  0  0  0  0  0  0  0  0
   -1.4953    0.1977   11.6702 H   0  0  0  0  0  0  0  0  0  0  0  0
  1  2  1  0  0  0  0
  2  3  1  0  0  0  0
  3  4  2  0  0  0  0
  3 27  1  0  0  0  0
  4  5  1  0  0  0  0
  5  6  2  0  0  0  0
  6  7  1  0  0  0  0
  6 26  1  0  0  0  0
  7  8  1  0  0  0  0
  8  9  2  0  0  0  0
  8 16  1  0  0  0  0
  9 10  1  0  0  0  0
 10 11  2  0  0  0  0
 10 17  1  0  0  0  0
 11 12  1  0  0  0  0
 12 13  1  0  0  0  0
 12 16  1  0  0  0  0
 13 14  2  0  0  0  0
 14 15  1  0  0  0  0
 15 16  2  0  0  0  0
 17 18  1  0  0  0  0
 17 25  2  0  0  0  0
 18 19  2  0  0  0  0
 19 20  1  0  0  0  0
 20 21  1  0  0  0  0
 20 24  1  0  0  0  0
 21 22  2  0  0  0  0
 22 23  1  0  0  0  0
 23 24  2  0  0  0  0
 24 25  1  0  0  0  0
 26 27  2  0  0  0  0
 27 28  1  0  0  0  0
 28 29  1  0  0  0  0
  1 30  1  0  0  0  0
  1 31  1  0  0  0  0
  1 32  1  0  0  0  0
  4 33  1  0  0  0  0
  5 34  1  0  0  0  0
  7 35  1  0  0  0  0
 11 36  1  0  0  0  0
 13 37  1  0  0  0  0
 14 38  1  0  0  0  0
 18 39  1  0  0  0  0
 19 40  1  0  0  0  0
 20 41  1  0  0  0  0
 22 42  1  0  0  0  0
 23 43  1  0  0  0  0
 25 44  1  0  0  0  0
 26 45  1  0  0  0  0
 29 46  1  0  0  0  0
 29 47  1  0  0  0  0
 29 48  1  0  0  0  0
M  END
> <IC50[nM]>
8.6

$$$$
CHEMBL3265020
  -OEChem-05192314333D
 Structure written by MMmdl.
 48 52  0     0  0  0  0  0  0999 V2000
   -4.2567   -3.1041   13.5694 C   0  0  0  0  0  0  0  0  0  0  0  0
   -3.8737   -2.3598   14.7157 O   0  0  0  0  0  0  0  0  0  0  0  0
   -2.5259   -2.1106   14.8172 C   0  0  0  0  0  0  0  0  0  0  0  0
   -1.7455   -2.8698   15.6821 C   0  0  0  0  0  0  0  0  0  0  0  0
   -0.3904   -2.6103   15.8138 C   0  0  0  0  0  0  0  0  0  0  0  0
    0.2204   -1.5845   15.0865 C   0  0  0  0  0  0  0  0  0  0  0  0
    1.6043   -1.3599   15.3203 N   0  0  0  0  0  0  0  0  0  0  0  0
    2.5377   -0.4463   14.7588 C   0  0  0  0  0  0  0  0  0  0  0  0
    2.1842    0.3709   13.7215 N   0  0  0  0  0  0  0  0  0  0  0  0
    3.1172    1.2388   13.2173 C   0  0  0  0  0  0  0  0  0  0  0  0
    4.4204    1.2848   13.7037 C   0  0  0  0  0  0  0  0  0  0  0  0
    4.7469    0.4890   14.7614 N   0  0  0  0  0  0  0  0  0  0  0  0
    5.8976    0.3763   15.4868 C   0  0  0  0  0  0  0  0  0  0  0  0
    5.5864   -0.5217   16.5304 C   0  0  0  0  0  0  0  0  0  0  0  0
    4.3754   -1.0422   16.3738 N   0  0  0  0  0  0  0  0  0  0  0  0
    3.8369   -0.3917   15.3265 C   0  0  0  0  0  0  0  0  0  0  0  0
    2.6436    2.1633   12.1173 C   0  0  0  0  0  0  0  0  0  0  0  0
    3.5480    2.6409   11.1599 C   0  0  0  0  0  0  0  0  0  0  0  0
    3.1566    3.4683   10.0981 C   0  0  0  0  0  0  0  0  0  0  0  0
    1.8094    3.8079   10.0262 C   0  0  0  0  0  0  0  0  0  0  0  0
    1.1129    4.5678    9.1158 N   0  0  0  0  0  0  0  0  0  0  0  0
   -0.1959    4.6369    9.4439 C   0  0  0  0  0  0  0  0  0  0  0  0
   -0.4233    3.9255   10.6079 C   0  0  0  0  0  0  0  0  0  0  0  0
    0.8581    3.3610   11.0052 C   0  0  0  0  0  0  0  0  0  0  0  0
    1.2923    2.5453   12.0556 C   0  0  0  0  0  0  0  0  0  0  0  0
   -0.5553   -0.8190   14.1924 C   0  0  0  0  0  0  0  0  0  0  0  0
   -1.9451   -1.0886   14.0616 C   0  0  0  0  0  0  0  0  0  0  0  0
   -2.7542   -0.3572   13.2046 O   0  0  0  0  0  0  0  0  0  0  0  0
   -2.2337    0.6443   12.3523 C   0  0  0  0  0  0  0  0  0  0  0  0
   -5.3466   -3.2526   13.5753 H   0  0  0  0  0  0  0  0  0  0  0  0
   -3.9666   -2.5545   12.6618 H   0  0  0  0  0  0  0  0  0  0  0  0
   -3.7535   -4.0821   13.5824 H   0  0  0  0  0  0  0  0  0  0  0  0
   -2.1978   -3.6662   16.2545 H   0  0  0  0  0  0  0  0  0  0  0  0
    0.2027   -3.2097   16.4886 H   0  0  0  0  0  0  0  0  0  0  0  0
    1.9981   -1.9617   16.0151 H   0  0  0  0  0  0  0  0  0  0  0  0
    5.1556    1.9355   13.2539 H   0  0  0  0  0  0  0  0  0  0  0  0
    6.8415    0.8677   15.3023 H   0  0  0  0  0  0  0  0  0  0  0  0
    6.2486   -0.7553   17.3510 H   0  0  0  0  0  0  0  0  0  0  0  0
    4.5877    2.3606   11.2431 H   0  0  0  0  0  0  0  0  0  0  0  0
    3.7309    4.4032   10.1767 H   0  0  0  0  0  0  0  0  0  0  0  0
    3.4197    2.9539    9.1620 H   0  0  0  0  0  0  0  0  0  0  0  0
   -0.9504    5.1675    8.8821 H   0  0  0  0  0  0  0  0  0  0  0  0
   -1.3666    3.8112   11.1213 H   0  0  0  0  0  0  0  0  0  0  0  0
    0.5963    2.2125   12.8114 H   0  0  0  0  0  0  0  0  0  0  0  0
   -0.0969   -0.0330   13.6106 H   0  0  0  0  0  0  0  0  0  0  0  0
   -3.0515    1.0894   11.7666 H   0  0  0  0  0  0  0  0  0  0  0  0
   -1.7491    1.4248   12.9572 H   0  0  0  0  0  0  0  0  0  0  0  0
   -1.4953    0.1977   11.6702 H   0  0  0  0  0  0  0  0  0  0  0  0
  1  2  1  0  0  0  0
  2  3  1  0  0  0  0
  3  4  2  0  0  0  0
  3 27  1  0  0  0  0
  4  5  1  0  0  0  0
  5  6  2  0  0  0  0
  6  7  1  0  0  0  0
  6 26  1  0  0  0  0
  7  8  1  0  0  0  0
  8  9  2  0  0  0  0
  8 16  1  0  0  0  0
  9 10  1  0  0  0  0
 10 11  2  0  0  0  0
 10 17  1  0  0  0  0
 11 12  1  0  0  0  0
 12 13  1  0  0  0  0
 12 16  1  0  0  0  0
 13 14  2  0  0  0  0
 14 15  1  0  0  0  0
 15 16  2  0  0  0  0
 17 18  2  0  0  0  0
 17 25  1  0  0  0  0
 18 19  1  0  0  0  0
 19 20  1  0  0  0  0
 20 21  2  0  0  0  0
 20 24  1  0  0  0  0
 21 22  1  0  0  0  0
 22 23  2  0  0  0  0
 23 24  1  0  0  0  0
 24 25  2  0  0  0  0
 26 27  2  0  0  0  0
 27 28  1  0  0  0  0
 28 29  1  0  0  0  0
  1 30  1  0  0  0  0
  1 31  1  0  0  0  0
  1 32  1  0  0  0  0
  4 33  1  0  0  0  0
  5 34  1  0  0  0  0
  7 35  1  0  0  0  0
 11 36  1  0  0  0  0
 13 37  1  0  0  0  0
 14 38  1  0  0  0  0
 18 39  1  0  0  0  0
 19 40  1  0  0  0  0
 19 41  1  0  0  0  0
 22 42  1  0  0  0  0
 23 43  1  0  0  0  0
 25 44  1  0  0  0  0
 26 45  1  0  0  0  0
 29 46  1  0  0  0  0
 29 47  1  0  0  0  0
 29 48  1  0  0  0  0
M  END
> <IC50[nM]>
8.6

$$$$
CHEMBL3265020
  -OEChem-05192314333D
 Structure written by MMmdl.
 48 52  0     0  0  0  0  0  0999 V2000
   -4.2567   -3.1041   13.5694 C   0  0  0  0  0  0  0  0  0  0  0  0
   -3.8737   -2.3598   14.7157 O   0  0  0  0  0  0  0  0  0  0  0  0
   -2.5259   -2.1106   14.8172 C   0  0  0  0  0  0  0  0  0  0  0  0
   -1.7455   -2.8698   15.6821 C   0  0  0  0  0  0  0  0  0  0  0  0
   -0.3904   -2.6103   15.8138 C   0  0  0  0  0  0  0  0  0  0  0  0
    0.2204   -1.5845   15.0865 C   0  0  0  0  0  0  0  0  0  0  0  0
    1.6043   -1.3599   15.3203 N   0  0  0  0  0  0  0  0  0  0  0  0
    2.5377   -0.4463   14.7588 C   0  0  0  0  0  0  0  0  0  0  0  0
    2.1842    0.3709   13.7215 N   0  0  0  0  0  0  0  0  0  0  0  0
    3.1172    1.2388   13.2173 C   0  0  0  0  0  0  0  0  0  0  0  0
    4.4204    1.2848   13.7037 C   0  0  0  0  0  0  0  0  0  0  0  0
    4.7469    0.4890   14.7614 N   0  0  0  0  0  0  0  0  0  0  0  0
    5.8976    0.3763   15.4868 C   0  0  0  0  0  0  0  0  0  0  0  0
    5.5864   -0.5217   16.5304 C   0  0  0  0  0  0  0  0  0  0  0  0
    4.3754   -1.0422   16.3738 N   0  0  0  0  0  0  0  0  0  0  0  0
    3.8369   -0.3917   15.3265 C   0  0  0  0  0  0  0  0  0  0  0  0
    2.6436    2.1633   12.1173 C   0  0  0  0  0  0  0  0  0  0  0  0
    3.5480    2.6409   11.1599 C   0  0  0  0  0  0  0  0  0  0  0  0
    3.1566    3.4683   10.0981 C   0  0  0  0  0  0  0  0  0  0  0  0
    1.8094    3.8079   10.0262 C   0  0  0  0  0  0  0  0  0  0  0  0
    1.1129    4.5678    9.1158 N   0  0  0  0  0  0  0  0  0  0  0  0
   -0.1959    4.6369    9.4439 C   0  0  0  0  0  0  0  0  0  0  0  0
   -0.4233    3.9255   10.6079 C   0  0  0  0  0  0  0  0  0  0  0  0
    0.8581    3.3610   11.0052 C   0  0  0  0  0  0  0  0  0  0  0  0
    1.2923    2.5453   12.0556 C   0  0  0  0  0  0  0  0  0  0  0  0
   -0.5553   -0.8190   14.1924 C   0  0  0  0  0  0  0  0  0  0  0  0
   -1.9451   -1.0886   14.0616 C   0  0  0  0  0  0  0  0  0  0  0  0
   -2.7542   -0.3572   13.2046 O   0  0  0  0  0  0  0  0  0  0  0  0
   -2.2337    0.6443   12.3523 C   0  0  0  0  0  0  0  0  0  0  0  0
   -5.3466   -3.2526   13.5753 H   0  0  0  0  0  0  0  0  0  0  0  0
   -3.9666   -2.5545   12.6618 H   0  0  0  0  0  0  0  0  0  0  0  0
   -3.7535   -4.0821   13.5824 H   0  0  0  0  0  0  0  0  0  0  0  0
   -2.1978   -3.6662   16.2545 H   0  0  0  0  0  0  0  0  0  0  0  0
    0.2027   -3.2097   16.4886 H   0  0  0  0  0  0  0  0  0  0  0  0
    1.9981   -1.9617   16.0151 H   0  0  0  0  0  0  0  0  0  0  0  0
    5.1556    1.9355   13.2539 H   0  0  0  0  0  0  0  0  0  0  0  0
    6.8415    0.8677   15.3023 H   0  0  0  0  0  0  0  0  0  0  0  0
    6.2486   -0.7553   17.3510 H   0  0  0  0  0  0  0  0  0  0  0  0
    4.3141    3.2007   11.7165 H   0  0  0  0  0  0  0  0  0  0  0  0
    4.0047    1.7515   10.7012 H   0  0  0  0  0  0  0  0  0  0  0  0
    3.8686    3.8259    9.3690 H   0  0  0  0  0  0  0  0  0  0  0  0
   -0.9504    5.1675    8.8821 H   0  0  0  0  0  0  0  0  0  0  0  0
   -1.3666    3.8112   11.1213 H   0  0  0  0  0  0  0  0  0  0  0  0
    0.5963    2.2125   12.8114 H   0  0  0  0  0  0  0  0  0  0  0  0
   -0.0969   -0.0330   13.6106 H   0  0  0  0  0  0  0  0  0  0  0  0
   -3.0515    1.0894   11.7666 H   0  0  0  0  0  0  0  0  0  0  0  0
   -1.7491    1.4248   12.9572 H   0  0  0  0  0  0  0  0  0  0  0  0
   -1.4953    0.1977   11.6702 H   0  0  0  0  0  0  0  0  0  0  0  0
  1  2  1  0  0  0  0
  2  3  1  0  0  0  0
  3  4  2  0  0  0  0
  3 27  1  0  0  0  0
  4  5  1  0  0  0  0
  5  6  2  0  0  0  0
  6  7  1  0  0  0  0
  6 26  1  0  0  0  0
  7  8  1  0  0  0  0
  8  9  2  0  0  0  0
  8 16  1  0  0  0  0
  9 10  1  0  0  0  0
 10 11  2  0  0  0  0
 10 17  1  0  0  0  0
 11 12  1  0  0  0  0
 12 13  1  0  0  0  0
 12 16  1  0  0  0  0
 13 14  2  0  0  0  0
 14 15  1  0  0  0  0
 15 16  2  0  0  0  0
 17 18  1  0  0  0  0
 17 25  2  0  0  0  0
 18 19  1  0  0  0  0
 19 20  2  0  0  0  0
 20 21  1  0  0  0  0
 20 24  1  0  0  0  0
 21 22  2  0  0  0  0
 22 23  1  0  0  0  0
 23 24  2  0  0  0  0
 24 25  1  0  0  0  0
 26 27  2  0  0  0  0
 27 28  1  0  0  0  0
 28 29  1  0  0  0  0
  1 30  1  0  0  0  0
  1 31  1  0  0  0  0
  1 32  1  0  0  0  0
  4 33  1  0  0  0  0
  5 34  1  0  0  0  0
  7 35  1  0  0  0  0
 11 36  1  0  0  0  0
 13 37  1  0  0  0  0
 14 38  1  0  0  0  0
 18 39  1  0  0  0  0
 18 40  1  0  0  0  0
 19 41  1  0  0  0  0
 22 42  1  0  0  0  0
 23 43  1  0  0  0  0
 25 44  1  0  0  0  0
 26 45  1  0  0  0  0
 29 46  1  0  0  0  0
 29 47  1  0  0  0  0
 29 48  1  0  0  0  0
M  END
> <IC50[nM]>
8.6

$$$$
CHEMBL3265020
  -OEChem-05192314333D
 Structure written by MMmdl.
 48 52  0     0  0  0  0  0  0999 V2000
   -4.2567   -3.1041   13.5694 C   0  0  0  0  0  0  0  0  0  0  0  0
   -3.8737   -2.3598   14.7157 O   0  0  0  0  0  0  0  0  0  0  0  0
   -2.5259   -2.1106   14.8172 C   0  0  0  0  0  0  0  0  0  0  0  0
   -1.7455   -2.8698   15.6821 C   0  0  0  0  0  0  0  0  0  0  0  0
   -0.3904   -2.6103   15.8138 C   0  0  0  0  0  0  0  0  0  0  0  0
    0.2204   -1.5845   15.0865 C   0  0  0  0  0  0  0  0  0  0  0  0
    1.6043   -1.3599   15.3203 N   0  0  0  0  0  0  0  0  0  0  0  0
    2.5377   -0.4463   14.7588 C   0  0  0  0  0  0  0  0  0  0  0  0
    2.1842    0.3709   13.7215 N   0  0  0  0  0  0  0  0  0  0  0  0
    3.1172    1.2388   13.2173 C   0  0  0  0  0  0  0  0  0  0  0  0
    4.4204    1.2848   13.7037 C   0  0  0  0  0  0  0  0  0  0  0  0
    4.7469    0.4890   14.7614 N   0  0  0  0  0  0  0  0  0  0  0  0
    5.8976    0.3763   15.4868 C   0  0  0  0  0  0  0  0  0  0  0  0
    5.5864   -0.5217   16.5304 C   0  0  0  0  0  0  0  0  0  0  0  0
    4.3754   -1.0422   16.3738 N   0  0  0  0  0  0  0  0  0  0  0  0
    3.8369   -0.3917   15.3265 C   0  0  0  0  0  0  0  0  0  0  0  0
    2.6436    2.1633   12.1173 C   0  0  0  0  0  0  0  0  0  0  0  0
    3.5480    2.6409   11.1599 C   0  0  0  0  0  0  0  0  0  0  0  0
    3.1566    3.4683   10.0981 C   0  0  0  0  0  0  0  0  0  0  0  0
    1.8094    3.8079   10.0262 C   0  0  0  0  0  0  0  0  0  0  0  0
    1.1129    4.5678    9.1158 N   0  0  0  0  0  0  0  0  0  0  0  0
   -0.1959    4.6369    9.4439 C   0  0  0  0  0  0  0  0  0  0  0  0
   -0.4233    3.9255   10.6079 C   0  0  0  0  0  0  0  0  0  0  0  0
    0.8581    3.3610   11.0052 C   0  0  0  0  0  0  0  0  0  0  0  0
    1.2923    2.5453   12.0556 C   0  0  0  0  0  0  0  0  0  0  0  0
   -0.5553   -0.8190   14.1924 C   0  0  0  0  0  0  0  0  0  0  0  0
   -1.9451   -1.0886   14.0616 C   0  0  0  0  0  0  0  0  0  0  0  0
   -2.7542   -0.3572   13.2046 O   0  0  0  0  0  0  0  0  0  0  0  0
   -2.2337    0.6443   12.3523 C   0  0  0  0  0  0  0  0  0  0  0  0
   -5.3466   -3.2526   13.5753 H   0  0  0  0  0  0  0  0  0  0  0  0
   -3.9666   -2.5545   12.6618 H   0  0  0  0  0  0  0  0  0  0  0  0
   -3.7535   -4.0821   13.5824 H   0  0  0  0  0  0  0  0  0  0  0  0
   -2.1978   -3.6662   16.2545 H   0  0  0  0  0  0  0  0  0  0  0  0
    0.2027   -3.2097   16.4886 H   0  0  0  0  0  0  0  0  0  0  0  0
    1.9981   -1.9617   16.0151 H   0  0  0  0  0  0  0  0  0  0  0  0
    5.1556    1.9355   13.2539 H   0  0  0  0  0  0  0  0  0  0  0  0
    6.8415    0.8677   15.3023 H   0  0  0  0  0  0  0  0  0  0  0  0
    6.2486   -0.7553   17.3510 H   0  0  0  0  0  0  0  0  0  0  0  0
    4.5877    2.3606   11.2431 H   0  0  0  0  0  0  0  0  0  0  0  0
    3.8686    3.8259    9.3690 H   0  0  0  0  0  0  0  0  0  0  0  0
   -0.9504    5.1675    8.8821 H   0  0  0  0  0  0  0  0  0  0  0  0
   -1.3666    3.8112   11.1213 H   0  0  0  0  0  0  0  0  0  0  0  0
    0.6992    1.6201   12.0095 H   0  0  0  0  0  0  0  0  0  0  0  0
    1.0669    3.0791   12.9906 H   0  0  0  0  0  0  0  0  0  0  0  0
   -0.0969   -0.0330   13.6106 H   0  0  0  0  0  0  0  0  0  0  0  0
   -3.0515    1.0894   11.7666 H   0  0  0  0  0  0  0  0  0  0  0  0
   -1.7491    1.4248   12.9572 H   0  0  0  0  0  0  0  0  0  0  0  0
   -1.4953    0.1977   11.6702 H   0  0  0  0  0  0  0  0  0  0  0  0
  1  2  1  0  0  0  0
  2  3  1  0  0  0  0
  3  4  2  0  0  0  0
  3 27  1  0  0  0  0
  4  5  1  0  0  0  0
  5  6  2  0  0  0  0
  6  7  1  0  0  0  0
  6 26  1  0  0  0  0
  7  8  1  0  0  0  0
  8  9  2  0  0  0  0
  8 16  1  0  0  0  0
  9 10  1  0  0  0  0
 10 11  2  0  0  0  0
 10 17  1  0  0  0  0
 11 12  1  0  0  0  0
 12 13  1  0  0  0  0
 12 16  1  0  0  0  0
 13 14  2  0  0  0  0
 14 15  1  0  0  0  0
 15 16  2  0  0  0  0
 17 18  2  0  0  0  0
 17 25  1  0  0  0  0
 18 19  1  0  0  0  0
 19 20  2  0  0  0  0
 20 21  1  0  0  0  0
 20 24  1  0  0  0  0
 21 22  2  0  0  0  0
 22 23  1  0  0  0  0
 23 24  2  0  0  0  0
 24 25  1  0  0  0  0
 26 27  2  0  0  0  0
 27 28  1  0  0  0  0
 28 29  1  0  0  0  0
  1 30  1  0  0  0  0
  1 31  1  0  0  0  0
  1 32  1  0  0  0  0
  4 33  1  0  0  0  0
  5 34  1  0  0  0  0
  7 35  1  0  0  0  0
 11 36  1  0  0  0  0
 13 37  1  0  0  0  0
 14 38  1  0  0  0  0
 18 39  1  0  0  0  0
 19 40  1  0  0  0  0
 22 41  1  0  0  0  0
 23 42  1  0  0  0  0
 25 43  1  0  0  0  0
 25 44  1  0  0  0  0
 26 45  1  0  0  0  0
 29 46  1  0  0  0  0
 29 47  1  0  0  0  0
 29 48  1  0  0  0  0
M  END
> <IC50[nM]>
8.6

$$$$
CHEMBL3265020
  -OEChem-05192314333D
 Structure written by MMmdl.
 48 52  0     1  0  0  0  0  0999 V2000
   -4.2567   -3.1041   13.5694 C   0  0  0  0  0  0  0  0  0  0  0  0
   -3.8737   -2.3598   14.7157 O   0  0  0  0  0  0  0  0  0  0  0  0
   -2.5259   -2.1106   14.8172 C   0  0  3  0  0  0  0  0  0  0  0  0
   -1.7455   -2.8698   15.6821 C   0  0  0  0  0  0  0  0  0  0  0  0
   -0.3904   -2.6103   15.8138 C   0  0  0  0  0  0  0  0  0  0  0  0
    0.2204   -1.5845   15.0865 C   0  0  0  0  0  0  0  0  0  0  0  0
    1.6043   -1.3599   15.3203 N   0  0  0  0  0  0  0  0  0  0  0  0
    2.5377   -0.4463   14.7588 C   0  0  0  0  0  0  0  0  0  0  0  0
    2.1842    0.3709   13.7215 N   0  0  0  0  0  0  0  0  0  0  0  0
    3.1172    1.2388   13.2173 C   0  0  0  0  0  0  0  0  0  0  0  0
    4.4204    1.2848   13.7037 C   0  0  0  0  0  0  0  0  0  0  0  0
    4.7469    0.4890   14.7614 N   0  0  0  0  0  0  0  0  0  0  0  0
    5.8976    0.3763   15.4868 C   0  0  0  0  0  0  0  0  0  0  0  0
    5.5864   -0.5217   16.5304 C   0  0  0  0  0  0  0  0  0  0  0  0
    4.3754   -1.0422   16.3738 N   0  0  0  0  0  0  0  0  0  0  0  0
    3.8369   -0.3917   15.3265 C   0  0  0  0  0  0  0  0  0  0  0  0
    2.6436    2.1633   12.1173 C   0  0  0  0  0  0  0  0  0  0  0  0
    3.5480    2.6409   11.1599 C   0  0  0  0  0  0  0  0  0  0  0  0
    3.1566    3.4683   10.0981 C   0  0  0  0  0  0  0  0  0  0  0  0
    1.8094    3.8079   10.0262 C   0  0  0  0  0  0  0  0  0  0  0  0
    1.1129    4.5678    9.1158 N   0  0  0  0  0  0  0  0  0  0  0  0
   -0.1959    4.6369    9.4439 C   0  0  0  0  0  0  0  0  0  0  0  0
   -0.4233    3.9255   10.6079 C   0  0  0  0  0  0  0  0  0  0  0  0
    0.8581    3.3610   11.0052 C   0  0  0  0  0  0  0  0  0  0  0  0
    1.2923    2.5453   12.0556 C   0  0  0  0  0  0  0  0  0  0  0  0
   -0.5553   -0.8190   14.1924 C   0  0  0  0  0  0  0  0  0  0  0  0
   -1.9451   -1.0886   14.0616 C   0  0  0  0  0  0  0  0  0  0  0  0
   -2.7542   -0.3572   13.2046 O   0  0  0  0  0  0  0  0  0  0  0  0
   -2.2337    0.6443   12.3523 C   0  0  0  0  0  0  0  0  0  0  0  0
   -5.3466   -3.2526   13.5753 H   0  0  0  0  0  0  0  0  0  0  0  0
   -3.9666   -2.5545   12.6618 H   0  0  0  0  0  0  0  0  0  0  0  0
   -3.7535   -4.0821   13.5824 H   0  0  0  0  0  0  0  0  0  0  0  0
   -2.3291   -2.8267   14.0058 H   0  0  0  0  0  0  0  0  0  0  0  0
   -2.1978   -3.6662   16.2545 H   0  0  0  0  0  0  0  0  0  0  0  0
    0.2027   -3.2097   16.4886 H   0  0  0  0  0  0  0  0  0  0  0  0
    5.1556    1.9355   13.2539 H   0  0  0  0  0  0  0  0  0  0  0  0
    6.8415    0.8677   15.3023 H   0  0  0  0  0  0  0  0  0  0  0  0
    6.2486   -0.7553   17.3510 H   0  0  0  0  0  0  0  0  0  0  0  0
    4.5877    2.3606   11.2431 H   0  0  0  0  0  0  0  0  0  0  0  0
    3.8686    3.8259    9.3690 H   0  0  0  0  0  0  0  0  0  0  0  0
   -0.4794    5.6887    9.5970 H   0  0  0  0  0  0  0  0  0  0  0  0
   -0.7999    4.2091    8.6301 H   0  0  0  0  0  0  0  0  0  0  0  0
   -1.3666    3.8112   11.1213 H   0  0  0  0  0  0  0  0  0  0  0  0
    0.5963    2.2125   12.8114 H   0  0  0  0  0  0  0  0  0  0  0  0
   -0.0969   -0.0330   13.6106 H   0  0  0  0  0  0  0  0  0  0  0  0
   -3.0515    1.0894   11.7666 H   0  0  0  0  0  0  0  0  0  0  0  0
   -1.7491    1.4248   12.9572 H   0  0  0  0  0  0  0  0  0  0  0  0
   -1.4953    0.1977   11.6702 H   0  0  0  0  0  0  0  0  0  0  0  0
  1  2  1  0  0  0  0
  2  3  1  0  0  0  0
  3  4  1  0  0  0  0
  3 27  1  0  0  0  0
  4  5  2  0  0  0  0
  5  6  1  0  0  0  0
  6  7  2  0  0  0  0
  6 26  1  0  0  0  0
  7  8  1  0  0  0  0
  8  9  2  0  0  0  0
  8 16  1  0  0  0  0
  9 10  1  0  0  0  0
 10 11  2  0  0  0  0
 10 17  1  0  0  0  0
 11 12  1  0  0  0  0
 12 13  1  0  0  0  0
 12 16  1  0  0  0  0
 13 14  2  0  0  0  0
 14 15  1  0  0  0  0
 15 16  2  0  0  0  0
 17 18  1  0  0  0  0
 17 25  2  0  0  0  0
 18 19  2  0  0  0  0
 19 20  1  0  0  0  0
 20 21  2  0  0  0  0
 20 24  1  0  0  0  0
 21 22  1  0  0  0  0
 22 23  1  0  0  0  0
 23 24  2  0  0  0  0
 24 25  1  0  0  0  0
 26 27  2  0  0  0  0
 27 28  1  0  0  0  0
 28 29  1  0  0  0  0
  1 30  1  0  0  0  0
  1 31  1  0  0  0  0
  1 32  1  0  0  0  0
  3 33  1  0  0  0  0
  4 34  1  0  0  0  0
  5 35  1  0  0  0  0
 11 36  1  0  0  0  0
 13 37  1  0  0  0  0
 14 38  1  0  0  0  0
 18 39  1  0  0  0  0
 19 40  1  0  0  0  0
 22 41  1  0  0  0  0
 22 42  1  0  0  0  0
 23 43  1  0  0  0  0
 25 44  1  0  0  0  0
 26 45  1  0  0  0  0
 29 46  1  0  0  0  0
 29 47  1  0  0  0  0
 29 48  1  0  0  0  0
M  END
> <IC50[nM]>
8.6

$$$$
CHEMBL3265020
  -OEChem-05192314333D
 Structure written by MMmdl.
 48 52  0     0  0  0  0  0  0999 V2000
   -4.2567   -3.1041   13.5694 C   0  0  0  0  0  0  0  0  0  0  0  0
   -3.8737   -2.3598   14.7157 O   0  0  0  0  0  0  0  0  0  0  0  0
   -2.5259   -2.1106   14.8172 C   0  0  0  0  0  0  0  0  0  0  0  0
   -1.7455   -2.8698   15.6821 C   0  0  0  0  0  0  0  0  0  0  0  0
   -0.3904   -2.6103   15.8138 C   0  0  0  0  0  0  0  0  0  0  0  0
    0.2204   -1.5845   15.0865 C   0  0  0  0  0  0  0  0  0  0  0  0
    1.6043   -1.3599   15.3203 N   0  0  0  0  0  0  0  0  0  0  0  0
    2.5377   -0.4463   14.7588 C   0  0  0  0  0  0  0  0  0  0  0  0
    2.1842    0.3709   13.7215 N   0  0  0  0  0  0  0  0  0  0  0  0
    3.1172    1.2388   13.2173 C   0  0  0  0  0  0  0  0  0  0  0  0
    4.4204    1.2848   13.7037 C   0  0  0  0  0  0  0  0  0  0  0  0
    4.7469    0.4890   14.7614 N   0  0  0  0  0  0  0  0  0  0  0  0
    5.8976    0.3763   15.4868 C   0  0  0  0  0  0  0  0  0  0  0  0
    5.5864   -0.5217   16.5304 C   0  0  0  0  0  0  0  0  0  0  0  0
    4.3754   -1.0422   16.3738 N   0  0  0  0  0  0  0  0  0  0  0  0
    3.8369   -0.3917   15.3265 C   0  0  0  0  0  0  0  0  0  0  0  0
    2.6436    2.1633   12.1173 C   0  0  0  0  0  0  0  0  0  0  0  0
    3.5480    2.6409   11.1599 C   0  0  0  0  0  0  0  0  0  0  0  0
    3.1566    3.4683   10.0981 C   0  0  0  0  0  0  0  0  0  0  0  0
    1.8094    3.8079   10.0262 C   0  0  0  0  0  0  0  0  0  0  0  0
    1.1129    4.5678    9.1158 N   0  0  0  0  0  0  0  0  0  0  0  0
   -0.1959    4.6369    9.4439 C   0  0  0  0  0  0  0  0  0  0  0  0
   -0.4233    3.9255   10.6079 C   0  0  0  0  0  0  0  0  0  0  0  0
    0.8581    3.3610   11.0052 C   0  0  0  0  0  0  0  0  0  0  0  0
    1.2923    2.5453   12.0556 C   0  0  0  0  0  0  0  0  0  0  0  0
   -0.5553   -0.8190   14.1924 C   0  0  0  0  0  0  0  0  0  0  0  0
   -1.9451   -1.0886   14.0616 C   0  0  0  0  0  0  0  0  0  0  0  0
   -2.7542   -0.3572   13.2046 O   0  0  0  0  0  0  0  0  0  0  0  0
   -2.2337    0.6443   12.3523 C   0  0  0  0  0  0  0  0  0  0  0  0
   -5.3466   -3.2526   13.5753 H   0  0  0  0  0  0  0  0  0  0  0  0
   -3.9666   -2.5545   12.6618 H   0  0  0  0  0  0  0  0  0  0  0  0
   -3.7535   -4.0821   13.5824 H   0  0  0  0  0  0  0  0  0  0  0  0
   -2.1978   -3.6662   16.2545 H   0  0  0  0  0  0  0  0  0  0  0  0
   -0.2168   -2.3863   16.8767 H   0  0  0  0  0  0  0  0  0  0  0  0
    0.1335   -3.5393   15.5446 H   0  0  0  0  0  0  0  0  0  0  0  0
    5.1556    1.9355   13.2539 H   0  0  0  0  0  0  0  0  0  0  0  0
    6.8415    0.8677   15.3023 H   0  0  0  0  0  0  0  0  0  0  0  0
    6.2486   -0.7553   17.3510 H   0  0  0  0  0  0  0  0  0  0  0  0
    4.5877    2.3606   11.2431 H   0  0  0  0  0  0  0  0  0  0  0  0
    3.8686    3.8259    9.3690 H   0  0  0  0  0  0  0  0  0  0  0  0
   -0.4794    5.6887    9.5970 H   0  0  0  0  0  0  0  0  0  0  0  0
   -0.7999    4.2091    8.6301 H   0  0  0  0  0  0  0  0  0  0  0  0
   -1.3666    3.8112   11.1213 H   0  0  0  0  0  0  0  0  0  0  0  0
    0.5963    2.2125   12.8114 H   0  0  0  0  0  0  0  0  0  0  0  0
   -0.0969   -0.0330   13.6106 H   0  0  0  0  0  0  0  0  0  0  0  0
   -3.0515    1.0894   11.7666 H   0  0  0  0  0  0  0  0  0  0  0  0
   -1.7491    1.4248   12.9572 H   0  0  0  0  0  0  0  0  0  0  0  0
   -1.4953    0.1977   11.6702 H   0  0  0  0  0  0  0  0  0  0  0  0
  1  2  1  0  0  0  0
  2  3  1  0  0  0  0
  3  4  2  0  0  0  0
  3 27  1  0  0  0  0
  4  5  1  0  0  0  0
  5  6  1  0  0  0  0
  6  7  2  0  0  0  0
  6 26  1  0  0  0  0
  7  8  1  0  0  0  0
  8  9  2  0  0  0  0
  8 16  1  0  0  0  0
  9 10  1  0  0  0  0
 10 11  2  0  0  0  0
 10 17  1  0  0  0  0
 11 12  1  0  0  0  0
 12 13  1  0  0  0  0
 12 16  1  0  0  0  0
 13 14  2  0  0  0  0
 14 15  1  0  0  0  0
 15 16  2  0  0  0  0
 17 18  1  0  0  0  0
 17 25  2  0  0  0  0
 18 19  2  0  0  0  0
 19 20  1  0  0  0  0
 20 21  2  0  0  0  0
 20 24  1  0  0  0  0
 21 22  1  0  0  0  0
 22 23  1  0  0  0  0
 23 24  2  0  0  0  0
 24 25  1  0  0  0  0
 26 27  2  0  0  0  0
 27 28  1  0  0  0  0
 28 29  1  0  0  0  0
  1 30  1  0  0  0  0
  1 31  1  0  0  0  0
  1 32  1  0  0  0  0
  4 33  1  0  0  0  0
  5 34  1  0  0  0  0
  5 35  1  0  0  0  0
 11 36  1  0  0  0  0
 13 37  1  0  0  0  0
 14 38  1  0  0  0  0
 18 39  1  0  0  0  0
 19 40  1  0  0  0  0
 22 41  1  0  0  0  0
 22 42  1  0  0  0  0
 23 43  1  0  0  0  0
 25 44  1  0  0  0  0
 26 45  1  0  0  0  0
 29 46  1  0  0  0  0
 29 47  1  0  0  0  0
 29 48  1  0  0  0  0
M  END
> <IC50[nM]>
8.6

$$$$
CHEMBL3265020
  -OEChem-05192314333D
 Structure written by MMmdl.
 48 52  0     0  0  0  0  0  0999 V2000
   -4.2567   -3.1041   13.5694 C   0  0  0  0  0  0  0  0  0  0  0  0
   -3.8737   -2.3598   14.7157 O   0  0  0  0  0  0  0  0  0  0  0  0
   -2.5259   -2.1106   14.8172 C   0  0  0  0  0  0  0  0  0  0  0  0
   -1.7455   -2.8698   15.6821 C   0  0  0  0  0  0  0  0  0  0  0  0
   -0.3904   -2.6103   15.8138 C   0  0  0  0  0  0  0  0  0  0  0  0
    0.2204   -1.5845   15.0865 C   0  0  0  0  0  0  0  0  0  0  0  0
    1.6043   -1.3599   15.3203 N   0  0  0  0  0  0  0  0  0  0  0  0
    2.5377   -0.4463   14.7588 C   0  0  0  0  0  0  0  0  0  0  0  0
    2.1842    0.3709   13.7215 N   0  0  0  0  0  0  0  0  0  0  0  0
    3.1172    1.2388   13.2173 C   0  0  0  0  0  0  0  0  0  0  0  0
    4.4204    1.2848   13.7037 C   0  0  0  0  0  0  0  0  0  0  0  0
    4.7469    0.4890   14.7614 N   0  0  0  0  0  0  0  0  0  0  0  0
    5.8976    0.3763   15.4868 C   0  0  0  0  0  0  0  0  0  0  0  0
    5.5864   -0.5217   16.5304 C   0  0  0  0  0  0  0  0  0  0  0  0
    4.3754   -1.0422   16.3738 N   0  0  0  0  0  0  0  0  0  0  0  0
    3.8369   -0.3917   15.3265 C   0  0  0  0  0  0  0  0  0  0  0  0
    2.6436    2.1633   12.1173 C   0  0  0  0  0  0  0  0  0  0  0  0
    3.5480    2.6409   11.1599 C   0  0  0  0  0  0  0  0  0  0  0  0
    3.1566    3.4683   10.0981 C   0  0  0  0  0  0  0  0  0  0  0  0
    1.8094    3.8079   10.0262 C   0  0  0  0  0  0  0  0  0  0  0  0
    1.1129    4.5678    9.1158 N   0  0  0  0  0  0  0  0  0  0  0  0
   -0.1959    4.6369    9.4439 C   0  0  0  0  0  0  0  0  0  0  0  0
   -0.4233    3.9255   10.6079 C   0  0  0  0  0  0  0  0  0  0  0  0
    0.8581    3.3610   11.0052 C   0  0  0  0  0  0  0  0  0  0  0  0
    1.2923    2.5453   12.0556 C   0  0  0  0  0  0  0  0  0  0  0  0
   -0.5553   -0.8190   14.1924 C   0  0  0  0  0  0  0  0  0  0  0  0
   -1.9451   -1.0886   14.0616 C   0  0  0  0  0  0  0  0  0  0  0  0
   -2.7542   -0.3572   13.2046 O   0  0  0  0  0  0  0  0  0  0  0  0
   -2.2337    0.6443   12.3523 C   0  0  0  0  0  0  0  0  0  0  0  0
   -5.3466   -3.2526   13.5753 H   0  0  0  0  0  0  0  0  0  0  0  0
   -3.9666   -2.5545   12.6618 H   0  0  0  0  0  0  0  0  0  0  0  0
   -3.7535   -4.0821   13.5824 H   0  0  0  0  0  0  0  0  0  0  0  0
   -2.1978   -3.6662   16.2545 H   0  0  0  0  0  0  0  0  0  0  0  0
    0.2027   -3.2097   16.4886 H   0  0  0  0  0  0  0  0  0  0  0  0
    5.1556    1.9355   13.2539 H   0  0  0  0  0  0  0  0  0  0  0  0
    6.8415    0.8677   15.3023 H   0  0  0  0  0  0  0  0  0  0  0  0
    6.2486   -0.7553   17.3510 H   0  0  0  0  0  0  0  0  0  0  0  0
    4.5877    2.3606   11.2431 H   0  0  0  0  0  0  0  0  0  0  0  0
    3.8686    3.8259    9.3690 H   0  0  0  0  0  0  0  0  0  0  0  0
   -0.4794    5.6887    9.5970 H   0  0  0  0  0  0  0  0  0  0  0  0
   -0.7999    4.2091    8.6301 H   0  0  0  0  0  0  0  0  0  0  0  0
   -1.3666    3.8112   11.1213 H   0  0  0  0  0  0  0  0  0  0  0  0
    0.5963    2.2125   12.8114 H   0  0  0  0  0  0  0  0  0  0  0  0
   -0.4615    0.2311   14.5061 H   0  0  0  0  0  0  0  0  0  0  0  0
   -0.1100   -0.9447   13.1945 H   0  0  0  0  0  0  0  0  0  0  0  0
   -3.0515    1.0894   11.7666 H   0  0  0  0  0  0  0  0  0  0  0  0
   -1.7491    1.4248   12.9572 H   0  0  0  0  0  0  0  0  0  0  0  0
   -1.4953    0.1977   11.6702 H   0  0  0  0  0  0  0  0  0  0  0  0
  1  2  1  0  0  0  0
  2  3  1  0  0  0  0
  3  4  1  0  0  0  0
  3 27  2  0  0  0  0
  4  5  2  0  0  0  0
  5  6  1  0  0  0  0
  6  7  2  0  0  0  0
  6 26  1  0  0  0  0
  7  8  1  0  0  0  0
  8  9  2  0  0  0  0
  8 16  1  0  0  0  0
  9 10  1  0  0  0  0
 10 11  2  0  0  0  0
 10 17  1  0  0  0  0
 11 12  1  0  0  0  0
 12 13  1  0  0  0  0
 12 16  1  0  0  0  0
 13 14  2  0  0  0  0
 14 15  1  0  0  0  0
 15 16  2  0  0  0  0
 17 18  1  0  0  0  0
 17 25  2  0  0  0  0
 18 19  2  0  0  0  0
 19 20  1  0  0  0  0
 20 21  2  0  0  0  0
 20 24  1  0  0  0  0
 21 22  1  0  0  0  0
 22 23  1  0  0  0  0
 23 24  2  0  0  0  0
 24 25  1  0  0  0  0
 26 27  1  0  0  0  0
 27 28  1  0  0  0  0
 28 29  1  0  0  0  0
  1 30  1  0  0  0  0
  1 31  1  0  0  0  0
  1 32  1  0  0  0  0
  4 33  1  0  0  0  0
  5 34  1  0  0  0  0
 11 35  1  0  0  0  0
 13 36  1  0  0  0  0
 14 37  1  0  0  0  0
 18 38  1  0  0  0  0
 19 39  1  0  0  0  0
 22 40  1  0  0  0  0
 22 41  1  0  0  0  0
 23 42  1  0  0  0  0
 25 43  1  0  0  0  0
 26 44  1  0  0  0  0
 26 45  1  0  0  0  0
 29 46  1  0  0  0  0
 29 47  1  0  0  0  0
 29 48  1  0  0  0  0
M  END
> <IC50[nM]>
8.6

$$$$
CHEMBL3265020
  -OEChem-05192314333D
 Structure written by MMmdl.
 48 52  0     1  0  0  0  0  0999 V2000
   -4.2567   -3.1041   13.5694 C   0  0  0  0  0  0  0  0  0  0  0  0
   -3.8737   -2.3598   14.7157 O   0  0  0  0  0  0  0  0  0  0  0  0
   -2.5259   -2.1106   14.8172 C   0  0  0  0  0  0  0  0  0  0  0  0
   -1.7455   -2.8698   15.6821 C   0  0  0  0  0  0  0  0  0  0  0  0
   -0.3904   -2.6103   15.8138 C   0  0  0  0  0  0  0  0  0  0  0  0
    0.2204   -1.5845   15.0865 C   0  0  0  0  0  0  0  0  0  0  0  0
    1.6043   -1.3599   15.3203 N   0  0  0  0  0  0  0  0  0  0  0  0
    2.5377   -0.4463   14.7588 C   0  0  0  0  0  0  0  0  0  0  0  0
    2.1842    0.3709   13.7215 N   0  0  0  0  0  0  0  0  0  0  0  0
    3.1172    1.2388   13.2173 C   0  0  0  0  0  0  0  0  0  0  0  0
    4.4204    1.2848   13.7037 C   0  0  0  0  0  0  0  0  0  0  0  0
    4.7469    0.4890   14.7614 N   0  0  0  0  0  0  0  0  0  0  0  0
    5.8976    0.3763   15.4868 C   0  0  0  0  0  0  0  0  0  0  0  0
    5.5864   -0.5217   16.5304 C   0  0  0  0  0  0  0  0  0  0  0  0
    4.3754   -1.0422   16.3738 N   0  0  0  0  0  0  0  0  0  0  0  0
    3.8369   -0.3917   15.3265 C   0  0  0  0  0  0  0  0  0  0  0  0
    2.6436    2.1633   12.1173 C   0  0  0  0  0  0  0  0  0  0  0  0
    3.5480    2.6409   11.1599 C   0  0  0  0  0  0  0  0  0  0  0  0
    3.1566    3.4683   10.0981 C   0  0  0  0  0  0  0  0  0  0  0  0
    1.8094    3.8079   10.0262 C   0  0  0  0  0  0  0  0  0  0  0  0
    1.1129    4.5678    9.1158 N   0  0  0  0  0  0  0  0  0  0  0  0
   -0.1959    4.6369    9.4439 C   0  0  0  0  0  0  0  0  0  0  0  0
   -0.4233    3.9255   10.6079 C   0  0  0  0  0  0  0  0  0  0  0  0
    0.8581    3.3610   11.0052 C   0  0  3  0  0  0  0  0  0  0  0  0
    1.2923    2.5453   12.0556 C   0  0  0  0  0  0  0  0  0  0  0  0
   -0.5553   -0.8190   14.1924 C   0  0  0  0  0  0  0  0  0  0  0  0
   -1.9451   -1.0886   14.0616 C   0  0  0  0  0  0  0  0  0  0  0  0
   -2.7542   -0.3572   13.2046 O   0  0  0  0  0  0  0  0  0  0  0  0
   -2.2337    0.6443   12.3523 C   0  0  0  0  0  0  0  0  0  0  0  0
   -5.3466   -3.2526   13.5753 H   0  0  0  0  0  0  0  0  0  0  0  0
   -3.9666   -2.5545   12.6618 H   0  0  0  0  0  0  0  0  0  0  0  0
   -3.7535   -4.0821   13.5824 H   0  0  0  0  0  0  0  0  0  0  0  0
   -2.1978   -3.6662   16.2545 H   0  0  0  0  0  0  0  0  0  0  0  0
    0.2027   -3.2097   16.4886 H   0  0  0  0  0  0  0  0  0  0  0  0
    1.2615    0.3360   13.3376 H   0  0  0  0  0  0  0  0  0  0  0  0
    5.1556    1.9355   13.2539 H   0  0  0  0  0  0  0  0  0  0  0  0
    6.8415    0.8677   15.3023 H   0  0  0  0  0  0  0  0  0  0  0  0
    6.2486   -0.7553   17.3510 H   0  0  0  0  0  0  0  0  0  0  0  0
    4.5877    2.3606   11.2431 H   0  0  0  0  0  0  0  0  0  0  0  0
    3.8686    3.8259    9.3690 H   0  0  0  0  0  0  0  0  0  0  0  0
   -0.9504    5.1675    8.8821 H   0  0  0  0  0  0  0  0  0  0  0  0
   -1.3666    3.8112   11.1213 H   0  0  0  0  0  0  0  0  0  0  0  0
    1.0636    4.2543   11.6133 H   0  0  0  0  0  0  0  0  0  0  0  0
    0.5963    2.2125   12.8114 H   0  0  0  0  0  0  0  0  0  0  0  0
   -0.0969   -0.0330   13.6106 H   0  0  0  0  0  0  0  0  0  0  0  0
   -3.0515    1.0894   11.7666 H   0  0  0  0  0  0  0  0  0  0  0  0
   -1.7491    1.4248   12.9572 H   0  0  0  0  0  0  0  0  0  0  0  0
   -1.4953    0.1977   11.6702 H   0  0  0  0  0  0  0  0  0  0  0  0
  1  2  1  0  0  0  0
  2  3  1  0  0  0  0
  3  4  2  0  0  0  0
  3 27  1  0  0  0  0
  4  5  1  0  0  0  0
  5  6  2  0  0  0  0
  6  7  1  0  0  0  0
  6 26  1  0  0  0  0
  7  8  2  0  0  0  0
  8  9  1  0  0  0  0
  8 16  1  0  0  0  0
  9 10  1  0  0  0  0
 10 11  2  0  0  0  0
 10 17  1  0  0  0  0
 11 12  1  0  0  0  0
 12 13  1  0  0  0  0
 12 16  1  0  0  0  0
 13 14  2  0  0  0  0
 14 15  1  0  0  0  0
 15 16  2  0  0  0  0
 17 18  1  0  0  0  0
 17 25  2  0  0  0  0
 18 19  2  0  0  0  0
 19 20  1  0  0  0  0
 20 21  2  0  0  0  0
 20 24  1  0  0  0  0
 21 22  1  0  0  0  0
 22 23  2  0  0  0  0
 23 24  1  0  0  0  0
 24 25  1  0  0  0  0
 26 27  2  0  0  0  0
 27 28  1  0  0  0  0
 28 29  1  0  0  0  0
  1 30  1  0  0  0  0
  1 31  1  0  0  0  0
  1 32  1  0  0  0  0
  4 33  1  0  0  0  0
  5 34  1  0  0  0  0
  9 35  1  0  0  0  0
 11 36  1  0  0  0  0
 13 37  1  0  0  0  0
 14 38  1  0  0  0  0
 18 39  1  0  0  0  0
 19 40  1  0  0  0  0
 22 41  1  0  0  0  0
 23 42  1  0  0  0  0
 24 43  1  0  0  0  0
 25 44  1  0  0  0  0
 26 45  1  0  0  0  0
 29 46  1  0  0  0  0
 29 47  1  0  0  0  0
 29 48  1  0  0  0  0
M  END
> <IC50[nM]>
8.6

$$$$
CHEMBL3265020
  -OEChem-05192314333D
 Structure written by MMmdl.
 48 52  0     1  0  0  0  0  0999 V2000
   -4.2567   -3.1041   13.5694 C   0  0  0  0  0  0  0  0  0  0  0  0
   -3.8737   -2.3598   14.7157 O   0  0  0  0  0  0  0  0  0  0  0  0
   -2.5259   -2.1106   14.8172 C   0  0  0  0  0  0  0  0  0  0  0  0
   -1.7455   -2.8698   15.6821 C   0  0  0  0  0  0  0  0  0  0  0  0
   -0.3904   -2.6103   15.8138 C   0  0  0  0  0  0  0  0  0  0  0  0
    0.2204   -1.5845   15.0865 C   0  0  0  0  0  0  0  0  0  0  0  0
    1.6043   -1.3599   15.3203 N   0  0  0  0  0  0  0  0  0  0  0  0
    2.5377   -0.4463   14.7588 C   0  0  0  0  0  0  0  0  0  0  0  0
    2.1842    0.3709   13.7215 N   0  0  0  0  0  0  0  0  0  0  0  0
    3.1172    1.2388   13.2173 C   0  0  0  0  0  0  0  0  0  0  0  0
    4.4204    1.2848   13.7037 C   0  0  0  0  0  0  0  0  0  0  0  0
    4.7469    0.4890   14.7614 N   0  0  0  0  0  0  0  0  0  0  0  0
    5.8976    0.3763   15.4868 C   0  0  0  0  0  0  0  0  0  0  0  0
    5.5864   -0.5217   16.5304 C   0  0  0  0  0  0  0  0  0  0  0  0
    4.3754   -1.0422   16.3738 N   0  0  0  0  0  0  0  0  0  0  0  0
    3.8369   -0.3917   15.3265 C   0  0  0  0  0  0  0  0  0  0  0  0
    2.6436    2.1633   12.1173 C   0  0  3  0  0  0  0  0  0  0  0  0
    3.5480    2.6409   11.1599 C   0  0  0  0  0  0  0  0  0  0  0  0
    3.1566    3.4683   10.0981 C   0  0  0  0  0  0  0  0  0  0  0  0
    1.8094    3.8079   10.0262 C   0  0  0  0  0  0  0  0  0  0  0  0
    1.1129    4.5678    9.1158 N   0  0  0  0  0  0  0  0  0  0  0  0
   -0.1959    4.6369    9.4439 C   0  0  0  0  0  0  0  0  0  0  0  0
   -0.4233    3.9255   10.6079 C   0  0  0  0  0  0  0  0  0  0  0  0
    0.8581    3.3610   11.0052 C   0  0  0  0  0  0  0  0  0  0  0  0
    1.2923    2.5453   12.0556 C   0  0  0  0  0  0  0  0  0  0  0  0
   -0.5553   -0.8190   14.1924 C   0  0  0  0  0  0  0  0  0  0  0  0
   -1.9451   -1.0886   14.0616 C   0  0  0  0  0  0  0  0  0  0  0  0
   -2.7542   -0.3572   13.2046 O   0  0  0  0  0  0  0  0  0  0  0  0
   -2.2337    0.6443   12.3523 C   0  0  0  0  0  0  0  0  0  0  0  0
   -5.3466   -3.2526   13.5753 H   0  0  0  0  0  0  0  0  0  0  0  0
   -3.9666   -2.5545   12.6618 H   0  0  0  0  0  0  0  0  0  0  0  0
   -3.7535   -4.0821   13.5824 H   0  0  0  0  0  0  0  0  0  0  0  0
   -2.1978   -3.6662   16.2545 H   0  0  0  0  0  0  0  0  0  0  0  0
    0.2027   -3.2097   16.4886 H   0  0  0  0  0  0  0  0  0  0  0  0
    1.2615    0.3360   13.3376 H   0  0  0  0  0  0  0  0  0  0  0  0
    5.1556    1.9355   13.2539 H   0  0  0  0  0  0  0  0  0  0  0  0
    6.8415    0.8677   15.3023 H   0  0  0  0  0  0  0  0  0  0  0  0
    6.2486   -0.7553   17.3510 H   0  0  0  0  0  0  0  0  0  0  0  0
    2.4271    1.2937   11.4794 H   0  0  0  0  0  0  0  0  0  0  0  0
    4.5877    2.3606   11.2431 H   0  0  0  0  0  0  0  0  0  0  0  0
    3.8686    3.8259    9.3690 H   0  0  0  0  0  0  0  0  0  0  0  0
   -0.9504    5.1675    8.8821 H   0  0  0  0  0  0  0  0  0  0  0  0
   -1.3666    3.8112   11.1213 H   0  0  0  0  0  0  0  0  0  0  0  0
    0.5963    2.2125   12.8114 H   0  0  0  0  0  0  0  0  0  0  0  0
   -0.0969   -0.0330   13.6106 H   0  0  0  0  0  0  0  0  0  0  0  0
   -3.0515    1.0894   11.7666 H   0  0  0  0  0  0  0  0  0  0  0  0
   -1.7491    1.4248   12.9572 H   0  0  0  0  0  0  0  0  0  0  0  0
   -1.4953    0.1977   11.6702 H   0  0  0  0  0  0  0  0  0  0  0  0
  1  2  1  0  0  0  0
  2  3  1  0  0  0  0
  3  4  2  0  0  0  0
  3 27  1  0  0  0  0
  4  5  1  0  0  0  0
  5  6  2  0  0  0  0
  6  7  1  0  0  0  0
  6 26  1  0  0  0  0
  7  8  2  0  0  0  0
  8  9  1  0  0  0  0
  8 16  1  0  0  0  0
  9 10  1  0  0  0  0
 10 11  2  0  0  0  0
 10 17  1  0  0  0  0
 11 12  1  0  0  0  0
 12 13  1  0  0  0  0
 12 16  1  0  0  0  0
 13 14  2  0  0  0  0
 14 15  1  0  0  0  0
 15 16  2  0  0  0  0
 17 18  1  0  0  0  0
 17 25  1  0  0  0  0
 18 19  2  0  0  0  0
 19 20  1  0  0  0  0
 20 21  2  0  0  0  0
 20 24  1  0  0  0  0
 21 22  1  0  0  0  0
 22 23  2  0  0  0  0
 23 24  1  0  0  0  0
 24 25  2  0  0  0  0
 26 27  2  0  0  0  0
 27 28  1  0  0  0  0
 28 29  1  0  0  0  0
  1 30  1  0  0  0  0
  1 31  1  0  0  0  0
  1 32  1  0  0  0  0
  4 33  1  0  0  0  0
  5 34  1  0  0  0  0
  9 35  1  0  0  0  0
 11 36  1  0  0  0  0
 13 37  1  0  0  0  0
 14 38  1  0  0  0  0
 17 39  1  0  0  0  0
 18 40  1  0  0  0  0
 19 41  1  0  0  0  0
 22 42  1  0  0  0  0
 23 43  1  0  0  0  0
 25 44  1  0  0  0  0
 26 45  1  0  0  0  0
 29 46  1  0  0  0  0
 29 47  1  0  0  0  0
 29 48  1  0  0  0  0
M  END
> <IC50[nM]>
8.6

$$$$
CHEMBL3265020
  -OEChem-05192314333D
 Structure written by MMmdl.
 48 52  0     1  0  0  0  0  0999 V2000
   -4.2567   -3.1041   13.5694 C   0  0  0  0  0  0  0  0  0  0  0  0
   -3.8737   -2.3598   14.7157 O   0  0  0  0  0  0  0  0  0  0  0  0
   -2.5259   -2.1106   14.8172 C   0  0  0  0  0  0  0  0  0  0  0  0
   -1.7455   -2.8698   15.6821 C   0  0  0  0  0  0  0  0  0  0  0  0
   -0.3904   -2.6103   15.8138 C   0  0  0  0  0  0  0  0  0  0  0  0
    0.2204   -1.5845   15.0865 C   0  0  0  0  0  0  0  0  0  0  0  0
    1.6043   -1.3599   15.3203 N   0  0  0  0  0  0  0  0  0  0  0  0
    2.5377   -0.4463   14.7588 C   0  0  0  0  0  0  0  0  0  0  0  0
    2.1842    0.3709   13.7215 N   0  0  0  0  0  0  0  0  0  0  0  0
    3.1172    1.2388   13.2173 C   0  0  0  0  0  0  0  0  0  0  0  0
    4.4204    1.2848   13.7037 C   0  0  0  0  0  0  0  0  0  0  0  0
    4.7469    0.4890   14.7614 N   0  0  0  0  0  0  0  0  0  0  0  0
    5.8976    0.3763   15.4868 C   0  0  0  0  0  0  0  0  0  0  0  0
    5.5864   -0.5217   16.5304 C   0  0  0  0  0  0  0  0  0  0  0  0
    4.3754   -1.0422   16.3738 N   0  0  0  0  0  0  0  0  0  0  0  0
    3.8369   -0.3917   15.3265 C   0  0  0  0  0  0  0  0  0  0  0  0
    2.6436    2.1633   12.1173 C   0  0  0  0  0  0  0  0  0  0  0  0
    3.5480    2.6409   11.1599 C   0  0  0  0  0  0  0  0  0  0  0  0
    3.1566    3.4683   10.0981 C   0  0  0  0  0  0  0  0  0  0  0  0
    1.8094    3.8079   10.0262 C   0  0  3  0  0  0  0  0  0  0  0  0
    1.1129    4.5678    9.1158 N   0  0  0  0  0  0  0  0  0  0  0  0
   -0.1959    4.6369    9.4439 C   0  0  0  0  0  0  0  0  0  0  0  0
   -0.4233    3.9255   10.6079 C   0  0  0  0  0  0  0  0  0  0  0  0
    0.8581    3.3610   11.0052 C   0  0  0  0  0  0  0  0  0  0  0  0
    1.2923    2.5453   12.0556 C   0  0  0  0  0  0  0  0  0  0  0  0
   -0.5553   -0.8190   14.1924 C   0  0  0  0  0  0  0  0  0  0  0  0
   -1.9451   -1.0886   14.0616 C   0  0  0  0  0  0  0  0  0  0  0  0
   -2.7542   -0.3572   13.2046 O   0  0  0  0  0  0  0  0  0  0  0  0
   -2.2337    0.6443   12.3523 C   0  0  0  0  0  0  0  0  0  0  0  0
   -5.3466   -3.2526   13.5753 H   0  0  0  0  0  0  0  0  0  0  0  0
   -3.9666   -2.5545   12.6618 H   0  0  0  0  0  0  0  0  0  0  0  0
   -3.7535   -4.0821   13.5824 H   0  0  0  0  0  0  0  0  0  0  0  0
   -2.1978   -3.6662   16.2545 H   0  0  0  0  0  0  0  0  0  0  0  0
    0.2027   -3.2097   16.4886 H   0  0  0  0  0  0  0  0  0  0  0  0
    1.2615    0.3360   13.3376 H   0  0  0  0  0  0  0  0  0  0  0  0
    5.1556    1.9355   13.2539 H   0  0  0  0  0  0  0  0  0  0  0  0
    6.8415    0.8677   15.3023 H   0  0  0  0  0  0  0  0  0  0  0  0
    6.2486   -0.7553   17.3510 H   0  0  0  0  0  0  0  0  0  0  0  0
    4.5877    2.3606   11.2431 H   0  0  0  0  0  0  0  0  0  0  0  0
    3.8686    3.8259    9.3690 H   0  0  0  0  0  0  0  0  0  0  0  0
    1.6141    2.9077    9.4249 H   0  0  0  0  0  0  0  0  0  0  0  0
   -0.9504    5.1675    8.8821 H   0  0  0  0  0  0  0  0  0  0  0  0
   -1.3666    3.8112   11.1213 H   0  0  0  0  0  0  0  0  0  0  0  0
    0.5963    2.2125   12.8114 H   0  0  0  0  0  0  0  0  0  0  0  0
   -0.0969   -0.0330   13.6106 H   0  0  0  0  0  0  0  0  0  0  0  0
   -3.0515    1.0894   11.7666 H   0  0  0  0  0  0  0  0  0  0  0  0
   -1.7491    1.4248   12.9572 H   0  0  0  0  0  0  0  0  0  0  0  0
   -1.4953    0.1977   11.6702 H   0  0  0  0  0  0  0  0  0  0  0  0
  1  2  1  0  0  0  0
  2  3  1  0  0  0  0
  3  4  2  0  0  0  0
  3 27  1  0  0  0  0
  4  5  1  0  0  0  0
  5  6  2  0  0  0  0
  6  7  1  0  0  0  0
  6 26  1  0  0  0  0
  7  8  2  0  0  0  0
  8  9  1  0  0  0  0
  8 16  1  0  0  0  0
  9 10  1  0  0  0  0
 10 11  2  0  0  0  0
 10 17  1  0  0  0  0
 11 12  1  0  0  0  0
 12 13  1  0  0  0  0
 12 16  1  0  0  0  0
 13 14  2  0  0  0  0
 14 15  1  0  0  0  0
 15 16  2  0  0  0  0
 17 18  1  0  0  0  0
 17 25  2  0  0  0  0
 18 19  2  0  0  0  0
 19 20  1  0  0  0  0
 20 21  1  0  0  0  0
 20 24  1  0  0  0  0
 21 22  2  0  0  0  0
 22 23  1  0  0  0  0
 23 24  2  0  0  0  0
 24 25  1  0  0  0  0
 26 27  2  0  0  0  0
 27 28  1  0  0  0  0
 28 29  1  0  0  0  0
  1 30  1  0  0  0  0
  1 31  1  0  0  0  0
  1 32  1  0  0  0  0
  4 33  1  0  0  0  0
  5 34  1  0  0  0  0
  9 35  1  0  0  0  0
 11 36  1  0  0  0  0
 13 37  1  0  0  0  0
 14 38  1  0  0  0  0
 18 39  1  0  0  0  0
 19 40  1  0  0  0  0
 20 41  1  0  0  0  0
 22 42  1  0  0  0  0
 23 43  1  0  0  0  0
 25 44  1  0  0  0  0
 26 45  1  0  0  0  0
 29 46  1  0  0  0  0
 29 47  1  0  0  0  0
 29 48  1  0  0  0  0
M  END
> <IC50[nM]>
8.6

$$$$
CHEMBL3265020
  -OEChem-05192314333D
 Structure written by MMmdl.
 48 52  0     0  0  0  0  0  0999 V2000
   -4.2567   -3.1041   13.5694 C   0  0  0  0  0  0  0  0  0  0  0  0
   -3.8737   -2.3598   14.7157 O   0  0  0  0  0  0  0  0  0  0  0  0
   -2.5259   -2.1106   14.8172 C   0  0  0  0  0  0  0  0  0  0  0  0
   -1.7455   -2.8698   15.6821 C   0  0  0  0  0  0  0  0  0  0  0  0
   -0.3904   -2.6103   15.8138 C   0  0  0  0  0  0  0  0  0  0  0  0
    0.2204   -1.5845   15.0865 C   0  0  0  0  0  0  0  0  0  0  0  0
    1.6043   -1.3599   15.3203 N   0  0  0  0  0  0  0  0  0  0  0  0
    2.5377   -0.4463   14.7588 C   0  0  0  0  0  0  0  0  0  0  0  0
    2.1842    0.3709   13.7215 N   0  0  0  0  0  0  0  0  0  0  0  0
    3.1172    1.2388   13.2173 C   0  0  0  0  0  0  0  0  0  0  0  0
    4.4204    1.2848   13.7037 C   0  0  0  0  0  0  0  0  0  0  0  0
    4.7469    0.4890   14.7614 N   0  0  0  0  0  0  0  0  0  0  0  0
    5.8976    0.3763   15.4868 C   0  0  0  0  0  0  0  0  0  0  0  0
    5.5864   -0.5217   16.5304 C   0  0  0  0  0  0  0  0  0  0  0  0
    4.3754   -1.0422   16.3738 N   0  0  0  0  0  0  0  0  0  0  0  0
    3.8369   -0.3917   15.3265 C   0  0  0  0  0  0  0  0  0  0  0  0
    2.6436    2.1633   12.1173 C   0  0  0  0  0  0  0  0  0  0  0  0
    3.5480    2.6409   11.1599 C   0  0  0  0  0  0  0  0  0  0  0  0
    3.1566    3.4683   10.0981 C   0  0  0  0  0  0  0  0  0  0  0  0
    1.8094    3.8079   10.0262 C   0  0  0  0  0  0  0  0  0  0  0  0
    1.1129    4.5678    9.1158 N   0  0  0  0  0  0  0  0  0  0  0  0
   -0.1959    4.6369    9.4439 C   0  0  0  0  0  0  0  0  0  0  0  0
   -0.4233    3.9255   10.6079 C   0  0  0  0  0  0  0  0  0  0  0  0
    0.8581    3.3610   11.0052 C   0  0  0  0  0  0  0  0  0  0  0  0
    1.2923    2.5453   12.0556 C   0  0  0  0  0  0  0  0  0  0  0  0
   -0.5553   -0.8190   14.1924 C   0  0  0  0  0  0  0  0  0  0  0  0
   -1.9451   -1.0886   14.0616 C   0  0  0  0  0  0  0  0  0  0  0  0
   -2.7542   -0.3572   13.2046 O   0  0  0  0  0  0  0  0  0  0  0  0
   -2.2337    0.6443   12.3523 C   0  0  0  0  0  0  0  0  0  0  0  0
   -5.3466   -3.2526   13.5753 H   0  0  0  0  0  0  0  0  0  0  0  0
   -3.9666   -2.5545   12.6618 H   0  0  0  0  0  0  0  0  0  0  0  0
   -3.7535   -4.0821   13.5824 H   0  0  0  0  0  0  0  0  0  0  0  0
   -2.1978   -3.6662   16.2545 H   0  0  0  0  0  0  0  0  0  0  0  0
    0.2027   -3.2097   16.4886 H   0  0  0  0  0  0  0  0  0  0  0  0
    1.2615    0.3360   13.3376 H   0  0  0  0  0  0  0  0  0  0  0  0
    5.1556    1.9355   13.2539 H   0  0  0  0  0  0  0  0  0  0  0  0
    6.8415    0.8677   15.3023 H   0  0  0  0  0  0  0  0  0  0  0  0
    6.2486   -0.7553   17.3510 H   0  0  0  0  0  0  0  0  0  0  0  0
    4.5877    2.3606   11.2431 H   0  0  0  0  0  0  0  0  0  0  0  0
    3.7309    4.4032   10.1767 H   0  0  0  0  0  0  0  0  0  0  0  0
    3.4197    2.9539    9.1620 H   0  0  0  0  0  0  0  0  0  0  0  0
   -0.9504    5.1675    8.8821 H   0  0  0  0  0  0  0  0  0  0  0  0
   -1.3666    3.8112   11.1213 H   0  0  0  0  0  0  0  0  0  0  0  0
    0.5963    2.2125   12.8114 H   0  0  0  0  0  0  0  0  0  0  0  0
   -0.0969   -0.0330   13.6106 H   0  0  0  0  0  0  0  0  0  0  0  0
   -3.0515    1.0894   11.7666 H   0  0  0  0  0  0  0  0  0  0  0  0
   -1.7491    1.4248   12.9572 H   0  0  0  0  0  0  0  0  0  0  0  0
   -1.4953    0.1977   11.6702 H   0  0  0  0  0  0  0  0  0  0  0  0
  1  2  1  0  0  0  0
  2  3  1  0  0  0  0
  3  4  2  0  0  0  0
  3 27  1  0  0  0  0
  4  5  1  0  0  0  0
  5  6  2  0  0  0  0
  6  7  1  0  0  0  0
  6 26  1  0  0  0  0
  7  8  2  0  0  0  0
  8  9  1  0  0  0  0
  8 16  1  0  0  0  0
  9 10  1  0  0  0  0
 10 11  2  0  0  0  0
 10 17  1  0  0  0  0
 11 12  1  0  0  0  0
 12 13  1  0  0  0  0
 12 16  1  0  0  0  0
 13 14  2  0  0  0  0
 14 15  1  0  0  0  0
 15 16  2  0  0  0  0
 17 18  2  0  0  0  0
 17 25  1  0  0  0  0
 18 19  1  0  0  0  0
 19 20  1  0  0  0  0
 20 21  2  0  0  0  0
 20 24  1  0  0  0  0
 21 22  1  0  0  0  0
 22 23  2  0  0  0  0
 23 24  1  0  0  0  0
 24 25  2  0  0  0  0
 26 27  2  0  0  0  0
 27 28  1  0  0  0  0
 28 29  1  0  0  0  0
  1 30  1  0  0  0  0
  1 31  1  0  0  0  0
  1 32  1  0  0  0  0
  4 33  1  0  0  0  0
  5 34  1  0  0  0  0
  9 35  1  0  0  0  0
 11 36  1  0  0  0  0
 13 37  1  0  0  0  0
 14 38  1  0  0  0  0
 18 39  1  0  0  0  0
 19 40  1  0  0  0  0
 19 41  1  0  0  0  0
 22 42  1  0  0  0  0
 23 43  1  0  0  0  0
 25 44  1  0  0  0  0
 26 45  1  0  0  0  0
 29 46  1  0  0  0  0
 29 47  1  0  0  0  0
 29 48  1  0  0  0  0
M  END
> <IC50[nM]>
8.6

$$$$
CHEMBL3265020
  -OEChem-05192314333D
 Structure written by MMmdl.
 48 52  0     0  0  0  0  0  0999 V2000
   -4.2567   -3.1041   13.5694 C   0  0  0  0  0  0  0  0  0  0  0  0
   -3.8737   -2.3598   14.7157 O   0  0  0  0  0  0  0  0  0  0  0  0
   -2.5259   -2.1106   14.8172 C   0  0  0  0  0  0  0  0  0  0  0  0
   -1.7455   -2.8698   15.6821 C   0  0  0  0  0  0  0  0  0  0  0  0
   -0.3904   -2.6103   15.8138 C   0  0  0  0  0  0  0  0  0  0  0  0
    0.2204   -1.5845   15.0865 C   0  0  0  0  0  0  0  0  0  0  0  0
    1.6043   -1.3599   15.3203 N   0  0  0  0  0  0  0  0  0  0  0  0
    2.5377   -0.4463   14.7588 C   0  0  0  0  0  0  0  0  0  0  0  0
    2.1842    0.3709   13.7215 N   0  0  0  0  0  0  0  0  0  0  0  0
    3.1172    1.2388   13.2173 C   0  0  0  0  0  0  0  0  0  0  0  0
    4.4204    1.2848   13.7037 C   0  0  0  0  0  0  0  0  0  0  0  0
    4.7469    0.4890   14.7614 N   0  0  0  0  0  0  0  0  0  0  0  0
    5.8976    0.3763   15.4868 C   0  0  0  0  0  0  0  0  0  0  0  0
    5.5864   -0.5217   16.5304 C   0  0  0  0  0  0  0  0  0  0  0  0
    4.3754   -1.0422   16.3738 N   0  0  0  0  0  0  0  0  0  0  0  0
    3.8369   -0.3917   15.3265 C   0  0  0  0  0  0  0  0  0  0  0  0
    2.6436    2.1633   12.1173 C   0  0  0  0  0  0  0  0  0  0  0  0
    3.5480    2.6409   11.1599 C   0  0  0  0  0  0  0  0  0  0  0  0
    3.1566    3.4683   10.0981 C   0  0  0  0  0  0  0  0  0  0  0  0
    1.8094    3.8079   10.0262 C   0  0  0  0  0  0  0  0  0  0  0  0
    1.1129    4.5678    9.1158 N   0  0  0  0  0  0  0  0  0  0  0  0
   -0.1959    4.6369    9.4439 C   0  0  0  0  0  0  0  0  0  0  0  0
   -0.4233    3.9255   10.6079 C   0  0  0  0  0  0  0  0  0  0  0  0
    0.8581    3.3610   11.0052 C   0  0  0  0  0  0  0  0  0  0  0  0
    1.2923    2.5453   12.0556 C   0  0  0  0  0  0  0  0  0  0  0  0
   -0.5553   -0.8190   14.1924 C   0  0  0  0  0  0  0  0  0  0  0  0
   -1.9451   -1.0886   14.0616 C   0  0  0  0  0  0  0  0  0  0  0  0
   -2.7542   -0.3572   13.2046 O   0  0  0  0  0  0  0  0  0  0  0  0
   -2.2337    0.6443   12.3523 C   0  0  0  0  0  0  0  0  0  0  0  0
   -5.3466   -3.2526   13.5753 H   0  0  0  0  0  0  0  0  0  0  0  0
   -3.9666   -2.5545   12.6618 H   0  0  0  0  0  0  0  0  0  0  0  0
   -3.7535   -4.0821   13.5824 H   0  0  0  0  0  0  0  0  0  0  0  0
   -2.1978   -3.6662   16.2545 H   0  0  0  0  0  0  0  0  0  0  0  0
    0.2027   -3.2097   16.4886 H   0  0  0  0  0  0  0  0  0  0  0  0
    1.2615    0.3360   13.3376 H   0  0  0  0  0  0  0  0  0  0  0  0
    5.1556    1.9355   13.2539 H   0  0  0  0  0  0  0  0  0  0  0  0
    6.8415    0.8677   15.3023 H   0  0  0  0  0  0  0  0  0  0  0  0
    6.2486   -0.7553   17.3510 H   0  0  0  0  0  0  0  0  0  0  0  0
    4.3141    3.2007   11.7165 H   0  0  0  0  0  0  0  0  0  0  0  0
    4.0047    1.7515   10.7012 H   0  0  0  0  0  0  0  0  0  0  0  0
    3.8686    3.8259    9.3690 H   0  0  0  0  0  0  0  0  0  0  0  0
   -0.9504    5.1675    8.8821 H   0  0  0  0  0  0  0  0  0  0  0  0
   -1.3666    3.8112   11.1213 H   0  0  0  0  0  0  0  0  0  0  0  0
    0.5963    2.2125   12.8114 H   0  0  0  0  0  0  0  0  0  0  0  0
   -0.0969   -0.0330   13.6106 H   0  0  0  0  0  0  0  0  0  0  0  0
   -3.0515    1.0894   11.7666 H   0  0  0  0  0  0  0  0  0  0  0  0
   -1.7491    1.4248   12.9572 H   0  0  0  0  0  0  0  0  0  0  0  0
   -1.4953    0.1977   11.6702 H   0  0  0  0  0  0  0  0  0  0  0  0
  1  2  1  0  0  0  0
  2  3  1  0  0  0  0
  3  4  2  0  0  0  0
  3 27  1  0  0  0  0
  4  5  1  0  0  0  0
  5  6  2  0  0  0  0
  6  7  1  0  0  0  0
  6 26  1  0  0  0  0
  7  8  2  0  0  0  0
  8  9  1  0  0  0  0
  8 16  1  0  0  0  0
  9 10  1  0  0  0  0
 10 11  2  0  0  0  0
 10 17  1  0  0  0  0
 11 12  1  0  0  0  0
 12 13  1  0  0  0  0
 12 16  1  0  0  0  0
 13 14  2  0  0  0  0
 14 15  1  0  0  0  0
 15 16  2  0  0  0  0
 17 18  1  0  0  0  0
 17 25  2  0  0  0  0
 18 19  1  0  0  0  0
 19 20  2  0  0  0  0
 20 21  1  0  0  0  0
 20 24  1  0  0  0  0
 21 22  2  0  0  0  0
 22 23  1  0  0  0  0
 23 24  2  0  0  0  0
 24 25  1  0  0  0  0
 26 27  2  0  0  0  0
 27 28  1  0  0  0  0
 28 29  1  0  0  0  0
  1 30  1  0  0  0  0
  1 31  1  0  0  0  0
  1 32  1  0  0  0  0
  4 33  1  0  0  0  0
  5 34  1  0  0  0  0
  9 35  1  0  0  0  0
 11 36  1  0  0  0  0
 13 37  1  0  0  0  0
 14 38  1  0  0  0  0
 18 39  1  0  0  0  0
 18 40  1  0  0  0  0
 19 41  1  0  0  0  0
 22 42  1  0  0  0  0
 23 43  1  0  0  0  0
 25 44  1  0  0  0  0
 26 45  1  0  0  0  0
 29 46  1  0  0  0  0
 29 47  1  0  0  0  0
 29 48  1  0  0  0  0
M  END
> <IC50[nM]>
8.6

$$$$
CHEMBL3265020
  -OEChem-05192314333D
 Structure written by MMmdl.
 48 52  0     0  0  0  0  0  0999 V2000
   -4.2567   -3.1041   13.5694 C   0  0  0  0  0  0  0  0  0  0  0  0
   -3.8737   -2.3598   14.7157 O   0  0  0  0  0  0  0  0  0  0  0  0
   -2.5259   -2.1106   14.8172 C   0  0  0  0  0  0  0  0  0  0  0  0
   -1.7455   -2.8698   15.6821 C   0  0  0  0  0  0  0  0  0  0  0  0
   -0.3904   -2.6103   15.8138 C   0  0  0  0  0  0  0  0  0  0  0  0
    0.2204   -1.5845   15.0865 C   0  0  0  0  0  0  0  0  0  0  0  0
    1.6043   -1.3599   15.3203 N   0  0  0  0  0  0  0  0  0  0  0  0
    2.5377   -0.4463   14.7588 C   0  0  0  0  0  0  0  0  0  0  0  0
    2.1842    0.3709   13.7215 N   0  0  0  0  0  0  0  0  0  0  0  0
    3.1172    1.2388   13.2173 C   0  0  0  0  0  0  0  0  0  0  0  0
    4.4204    1.2848   13.7037 C   0  0  0  0  0  0  0  0  0  0  0  0
    4.7469    0.4890   14.7614 N   0  0  0  0  0  0  0  0  0  0  0  0
    5.8976    0.3763   15.4868 C   0  0  0  0  0  0  0  0  0  0  0  0
    5.5864   -0.5217   16.5304 C   0  0  0  0  0  0  0  0  0  0  0  0
    4.3754   -1.0422   16.3738 N   0  0  0  0  0  0  0  0  0  0  0  0
    3.8369   -0.3917   15.3265 C   0  0  0  0  0  0  0  0  0  0  0  0
    2.6436    2.1633   12.1173 C   0  0  0  0  0  0  0  0  0  0  0  0
    3.5480    2.6409   11.1599 C   0  0  0  0  0  0  0  0  0  0  0  0
    3.1566    3.4683   10.0981 C   0  0  0  0  0  0  0  0  0  0  0  0
    1.8094    3.8079   10.0262 C   0  0  0  0  0  0  0  0  0  0  0  0
    1.1129    4.5678    9.1158 N   0  0  0  0  0  0  0  0  0  0  0  0
   -0.1959    4.6369    9.4439 C   0  0  0  0  0  0  0  0  0  0  0  0
   -0.4233    3.9255   10.6079 C   0  0  0  0  0  0  0  0  0  0  0  0
    0.8581    3.3610   11.0052 C   0  0  0  0  0  0  0  0  0  0  0  0
    1.2923    2.5453   12.0556 C   0  0  0  0  0  0  0  0  0  0  0  0
   -0.5553   -0.8190   14.1924 C   0  0  0  0  0  0  0  0  0  0  0  0
   -1.9451   -1.0886   14.0616 C   0  0  0  0  0  0  0  0  0  0  0  0
   -2.7542   -0.3572   13.2046 O   0  0  0  0  0  0  0  0  0  0  0  0
   -2.2337    0.6443   12.3523 C   0  0  0  0  0  0  0  0  0  0  0  0
   -5.3466   -3.2526   13.5753 H   0  0  0  0  0  0  0  0  0  0  0  0
   -3.9666   -2.5545   12.6618 H   0  0  0  0  0  0  0  0  0  0  0  0
   -3.7535   -4.0821   13.5824 H   0  0  0  0  0  0  0  0  0  0  0  0
   -2.1978   -3.6662   16.2545 H   0  0  0  0  0  0  0  0  0  0  0  0
    0.2027   -3.2097   16.4886 H   0  0  0  0  0  0  0  0  0  0  0  0
    1.2615    0.3360   13.3376 H   0  0  0  0  0  0  0  0  0  0  0  0
    5.1556    1.9355   13.2539 H   0  0  0  0  0  0  0  0  0  0  0  0
    6.8415    0.8677   15.3023 H   0  0  0  0  0  0  0  0  0  0  0  0
    6.2486   -0.7553   17.3510 H   0  0  0  0  0  0  0  0  0  0  0  0
    4.5877    2.3606   11.2431 H   0  0  0  0  0  0  0  0  0  0  0  0
    3.8686    3.8259    9.3690 H   0  0  0  0  0  0  0  0  0  0  0  0
   -0.9504    5.1675    8.8821 H   0  0  0  0  0  0  0  0  0  0  0  0
   -1.3666    3.8112   11.1213 H   0  0  0  0  0  0  0  0  0  0  0  0
    0.6992    1.6201   12.0095 H   0  0  0  0  0  0  0  0  0  0  0  0
    1.0669    3.0791   12.9906 H   0  0  0  0  0  0  0  0  0  0  0  0
   -0.0969   -0.0330   13.6106 H   0  0  0  0  0  0  0  0  0  0  0  0
   -3.0515    1.0894   11.7666 H   0  0  0  0  0  0  0  0  0  0  0  0
   -1.7491    1.4248   12.9572 H   0  0  0  0  0  0  0  0  0  0  0  0
   -1.4953    0.1977   11.6702 H   0  0  0  0  0  0  0  0  0  0  0  0
  1  2  1  0  0  0  0
  2  3  1  0  0  0  0
  3  4  2  0  0  0  0
  3 27  1  0  0  0  0
  4  5  1  0  0  0  0
  5  6  2  0  0  0  0
  6  7  1  0  0  0  0
  6 26  1  0  0  0  0
  7  8  2  0  0  0  0
  8  9  1  0  0  0  0
  8 16  1  0  0  0  0
  9 10  1  0  0  0  0
 10 11  2  0  0  0  0
 10 17  1  0  0  0  0
 11 12  1  0  0  0  0
 12 13  1  0  0  0  0
 12 16  1  0  0  0  0
 13 14  2  0  0  0  0
 14 15  1  0  0  0  0
 15 16  2  0  0  0  0
 17 18  2  0  0  0  0
 17 25  1  0  0  0  0
 18 19  1  0  0  0  0
 19 20  2  0  0  0  0
 20 21  1  0  0  0  0
 20 24  1  0  0  0  0
 21 22  2  0  0  0  0
 22 23  1  0  0  0  0
 23 24  2  0  0  0  0
 24 25  1  0  0  0  0
 26 27  2  0  0  0  0
 27 28  1  0  0  0  0
 28 29  1  0  0  0  0
  1 30  1  0  0  0  0
  1 31  1  0  0  0  0
  1 32  1  0  0  0  0
  4 33  1  0  0  0  0
  5 34  1  0  0  0  0
  9 35  1  0  0  0  0
 11 36  1  0  0  0  0
 13 37  1  0  0  0  0
 14 38  1  0  0  0  0
 18 39  1  0  0  0  0
 19 40  1  0  0  0  0
 22 41  1  0  0  0  0
 23 42  1  0  0  0  0
 25 43  1  0  0  0  0
 25 44  1  0  0  0  0
 26 45  1  0  0  0  0
 29 46  1  0  0  0  0
 29 47  1  0  0  0  0
 29 48  1  0  0  0  0
M  END
> <IC50[nM]>
8.6

$$$$
CHEMBL3265020
  -OEChem-05192314333D
 Structure written by MMmdl.
 48 52  0     1  0  0  0  0  0999 V2000
   -4.2567   -3.1041   13.5694 C   0  0  0  0  0  0  0  0  0  0  0  0
   -3.8737   -2.3598   14.7157 O   0  0  0  0  0  0  0  0  0  0  0  0
   -2.5259   -2.1106   14.8172 C   0  0  0  0  0  0  0  0  0  0  0  0
   -1.7455   -2.8698   15.6821 C   0  0  0  0  0  0  0  0  0  0  0  0
   -0.3904   -2.6103   15.8138 C   0  0  0  0  0  0  0  0  0  0  0  0
    0.2204   -1.5845   15.0865 C   0  0  0  0  0  0  0  0  0  0  0  0
    1.6043   -1.3599   15.3203 N   0  0  0  0  0  0  0  0  0  0  0  0
    2.5377   -0.4463   14.7588 C   0  0  0  0  0  0  0  0  0  0  0  0
    2.1842    0.3709   13.7215 N   0  0  0  0  0  0  0  0  0  0  0  0
    3.1172    1.2388   13.2173 C   0  0  0  0  0  0  0  0  0  0  0  0
    4.4204    1.2848   13.7037 C   0  0  0  0  0  0  0  0  0  0  0  0
    4.7469    0.4890   14.7614 N   0  0  0  0  0  0  0  0  0  0  0  0
    5.8976    0.3763   15.4868 C   0  0  0  0  0  0  0  0  0  0  0  0
    5.5864   -0.5217   16.5304 C   0  0  0  0  0  0  0  0  0  0  0  0
    4.3754   -1.0422   16.3738 N   0  0  0  0  0  0  0  0  0  0  0  0
    3.8369   -0.3917   15.3265 C   0  0  0  0  0  0  0  0  0  0  0  0
    2.6436    2.1633   12.1173 C   0  0  0  0  0  0  0  0  0  0  0  0
    3.5480    2.6409   11.1599 C   0  0  0  0  0  0  0  0  0  0  0  0
    3.1566    3.4683   10.0981 C   0  0  0  0  0  0  0  0  0  0  0  0
    1.8094    3.8079   10.0262 C   0  0  0  0  0  0  0  0  0  0  0  0
    1.1129    4.5678    9.1158 N   0  0  0  0  0  0  0  0  0  0  0  0
   -0.1959    4.6369    9.4439 C   0  0  0  0  0  0  0  0  0  0  0  0
   -0.4233    3.9255   10.6079 C   0  0  0  0  0  0  0  0  0  0  0  0
    0.8581    3.3610   11.0052 C   0  0  3  0  0  0  0  0  0  0  0  0
    1.2923    2.5453   12.0556 C   0  0  0  0  0  0  0  0  0  0  0  0
   -0.5553   -0.8190   14.1924 C   0  0  0  0  0  0  0  0  0  0  0  0
   -1.9451   -1.0886   14.0616 C   0  0  0  0  0  0  0  0  0  0  0  0
   -2.7542   -0.3572   13.2046 O   0  0  0  0  0  0  0  0  0  0  0  0
   -2.2337    0.6443   12.3523 C   0  0  0  0  0  0  0  0  0  0  0  0
   -5.3466   -3.2526   13.5753 H   0  0  0  0  0  0  0  0  0  0  0  0
   -3.9666   -2.5545   12.6618 H   0  0  0  0  0  0  0  0  0  0  0  0
   -3.7535   -4.0821   13.5824 H   0  0  0  0  0  0  0  0  0  0  0  0
   -2.1978   -3.6662   16.2545 H   0  0  0  0  0  0  0  0  0  0  0  0
    0.2027   -3.2097   16.4886 H   0  0  0  0  0  0  0  0  0  0  0  0
    5.0873    1.0110   12.8729 H   0  0  0  0  0  0  0  0  0  0  0  0
    4.6182    2.3239   14.0055 H   0  0  0  0  0  0  0  0  0  0  0  0
    6.8415    0.8677   15.3023 H   0  0  0  0  0  0  0  0  0  0  0  0
    6.2486   -0.7553   17.3510 H   0  0  0  0  0  0  0  0  0  0  0  0
    4.5877    2.3606   11.2431 H   0  0  0  0  0  0  0  0  0  0  0  0
    3.8686    3.8259    9.3690 H   0  0  0  0  0  0  0  0  0  0  0  0
   -0.9504    5.1675    8.8821 H   0  0  0  0  0  0  0  0  0  0  0  0
   -1.3666    3.8112   11.1213 H   0  0  0  0  0  0  0  0  0  0  0  0
    1.0636    4.2543   11.6133 H   0  0  0  0  0  0  0  0  0  0  0  0
    0.5963    2.2125   12.8114 H   0  0  0  0  0  0  0  0  0  0  0  0
   -0.0969   -0.0330   13.6106 H   0  0  0  0  0  0  0  0  0  0  0  0
   -3.0515    1.0894   11.7666 H   0  0  0  0  0  0  0  0  0  0  0  0
   -1.7491    1.4248   12.9572 H   0  0  0  0  0  0  0  0  0  0  0  0
   -1.4953    0.1977   11.6702 H   0  0  0  0  0  0  0  0  0  0  0  0
  1  2  1  0  0  0  0
  2  3  1  0  0  0  0
  3  4  2  0  0  0  0
  3 27  1  0  0  0  0
  4  5  1  0  0  0  0
  5  6  2  0  0  0  0
  6  7  1  0  0  0  0
  6 26  1  0  0  0  0
  7  8  2  0  0  0  0
  8  9  1  0  0  0  0
  8 16  1  0  0  0  0
  9 10  2  0  0  0  0
 10 11  1  0  0  0  0
 10 17  1  0  0  0  0
 11 12  1  0  0  0  0
 12 13  1  0  0  0  0
 12 16  1  0  0  0  0
 13 14  2  0  0  0  0
 14 15  1  0  0  0  0
 15 16  2  0  0  0  0
 17 18  1  0  0  0  0
 17 25  2  0  0  0  0
 18 19  2  0  0  0  0
 19 20  1  0  0  0  0
 20 21  2  0  0  0  0
 20 24  1  0  0  0  0
 21 22  1  0  0  0  0
 22 23  2  0  0  0  0
 23 24  1  0  0  0  0
 24 25  1  0  0  0  0
 26 27  2  0  0  0  0
 27 28  1  0  0  0  0
 28 29  1  0  0  0  0
  1 30  1  0  0  0  0
  1 31  1  0  0  0  0
  1 32  1  0  0  0  0
  4 33  1  0  0  0  0
  5 34  1  0  0  0  0
 11 35  1  0  0  0  0
 11 36  1  0  0  0  0
 13 37  1  0  0  0  0
 14 38  1  0  0  0  0
 18 39  1  0  0  0  0
 19 40  1  0  0  0  0
 22 41  1  0  0  0  0
 23 42  1  0  0  0  0
 24 43  1  0  0  0  0
 25 44  1  0  0  0  0
 26 45  1  0  0  0  0
 29 46  1  0  0  0  0
 29 47  1  0  0  0  0
 29 48  1  0  0  0  0
M  END
> <IC50[nM]>
8.6

$$$$
CHEMBL3265020
  -OEChem-05192314333D
 Structure written by MMmdl.
 48 52  0     1  0  0  0  0  0999 V2000
   -4.2567   -3.1041   13.5694 C   0  0  0  0  0  0  0  0  0  0  0  0
   -3.8737   -2.3598   14.7157 O   0  0  0  0  0  0  0  0  0  0  0  0
   -2.5259   -2.1106   14.8172 C   0  0  0  0  0  0  0  0  0  0  0  0
   -1.7455   -2.8698   15.6821 C   0  0  0  0  0  0  0  0  0  0  0  0
   -0.3904   -2.6103   15.8138 C   0  0  0  0  0  0  0  0  0  0  0  0
    0.2204   -1.5845   15.0865 C   0  0  0  0  0  0  0  0  0  0  0  0
    1.6043   -1.3599   15.3203 N   0  0  0  0  0  0  0  0  0  0  0  0
    2.5377   -0.4463   14.7588 C   0  0  0  0  0  0  0  0  0  0  0  0
    2.1842    0.3709   13.7215 N   0  0  0  0  0  0  0  0  0  0  0  0
    3.1172    1.2388   13.2173 C   0  0  0  0  0  0  0  0  0  0  0  0
    4.4204    1.2848   13.7037 C   0  0  0  0  0  0  0  0  0  0  0  0
    4.7469    0.4890   14.7614 N   0  0  0  0  0  0  0  0  0  0  0  0
    5.8976    0.3763   15.4868 C   0  0  0  0  0  0  0  0  0  0  0  0
    5.5864   -0.5217   16.5304 C   0  0  0  0  0  0  0  0  0  0  0  0
    4.3754   -1.0422   16.3738 N   0  0  0  0  0  0  0  0  0  0  0  0
    3.8369   -0.3917   15.3265 C   0  0  0  0  0  0  0  0  0  0  0  0
    2.6436    2.1633   12.1173 C   0  0  3  0  0  0  0  0  0  0  0  0
    3.5480    2.6409   11.1599 C   0  0  0  0  0  0  0  0  0  0  0  0
    3.1566    3.4683   10.0981 C   0  0  0  0  0  0  0  0  0  0  0  0
    1.8094    3.8079   10.0262 C   0  0  0  0  0  0  0  0  0  0  0  0
    1.1129    4.5678    9.1158 N   0  0  0  0  0  0  0  0  0  0  0  0
   -0.1959    4.6369    9.4439 C   0  0  0  0  0  0  0  0  0  0  0  0
   -0.4233    3.9255   10.6079 C   0  0  0  0  0  0  0  0  0  0  0  0
    0.8581    3.3610   11.0052 C   0  0  0  0  0  0  0  0  0  0  0  0
    1.2923    2.5453   12.0556 C   0  0  0  0  0  0  0  0  0  0  0  0
   -0.5553   -0.8190   14.1924 C   0  0  0  0  0  0  0  0  0  0  0  0
   -1.9451   -1.0886   14.0616 C   0  0  0  0  0  0  0  0  0  0  0  0
   -2.7542   -0.3572   13.2046 O   0  0  0  0  0  0  0  0  0  0  0  0
   -2.2337    0.6443   12.3523 C   0  0  0  0  0  0  0  0  0  0  0  0
   -5.3466   -3.2526   13.5753 H   0  0  0  0  0  0  0  0  0  0  0  0
   -3.9666   -2.5545   12.6618 H   0  0  0  0  0  0  0  0  0  0  0  0
   -3.7535   -4.0821   13.5824 H   0  0  0  0  0  0  0  0  0  0  0  0
   -2.1978   -3.6662   16.2545 H   0  0  0  0  0  0  0  0  0  0  0  0
    0.2027   -3.2097   16.4886 H   0  0  0  0  0  0  0  0  0  0  0  0
    5.0873    1.0110   12.8729 H   0  0  0  0  0  0  0  0  0  0  0  0
    4.6182    2.3239   14.0055 H   0  0  0  0  0  0  0  0  0  0  0  0
    6.8415    0.8677   15.3023 H   0  0  0  0  0  0  0  0  0  0  0  0
    6.2486   -0.7553   17.3510 H   0  0  0  0  0  0  0  0  0  0  0  0
    2.4271    1.2937   11.4794 H   0  0  0  0  0  0  0  0  0  0  0  0
    4.5877    2.3606   11.2431 H   0  0  0  0  0  0  0  0  0  0  0  0
    3.8686    3.8259    9.3690 H   0  0  0  0  0  0  0  0  0  0  0  0
   -0.9504    5.1675    8.8821 H   0  0  0  0  0  0  0  0  0  0  0  0
   -1.3666    3.8112   11.1213 H   0  0  0  0  0  0  0  0  0  0  0  0
    0.5963    2.2125   12.8114 H   0  0  0  0  0  0  0  0  0  0  0  0
   -0.0969   -0.0330   13.6106 H   0  0  0  0  0  0  0  0  0  0  0  0
   -3.0515    1.0894   11.7666 H   0  0  0  0  0  0  0  0  0  0  0  0
   -1.7491    1.4248   12.9572 H   0  0  0  0  0  0  0  0  0  0  0  0
   -1.4953    0.1977   11.6702 H   0  0  0  0  0  0  0  0  0  0  0  0
  1  2  1  0  0  0  0
  2  3  1  0  0  0  0
  3  4  2  0  0  0  0
  3 27  1  0  0  0  0
  4  5  1  0  0  0  0
  5  6  2  0  0  0  0
  6  7  1  0  0  0  0
  6 26  1  0  0  0  0
  7  8  2  0  0  0  0
  8  9  1  0  0  0  0
  8 16  1  0  0  0  0
  9 10  2  0  0  0  0
 10 11  1  0  0  0  0
 10 17  1  0  0  0  0
 11 12  1  0  0  0  0
 12 13  1  0  0  0  0
 12 16  1  0  0  0  0
 13 14  2  0  0  0  0
 14 15  1  0  0  0  0
 15 16  2  0  0  0  0
 17 18  1  0  0  0  0
 17 25  1  0  0  0  0
 18 19  2  0  0  0  0
 19 20  1  0  0  0  0
 20 21  2  0  0  0  0
 20 24  1  0  0  0  0
 21 22  1  0  0  0  0
 22 23  2  0  0  0  0
 23 24  1  0  0  0  0
 24 25  2  0  0  0  0
 26 27  2  0  0  0  0
 27 28  1  0  0  0  0
 28 29  1  0  0  0  0
  1 30  1  0  0  0  0
  1 31  1  0  0  0  0
  1 32  1  0  0  0  0
  4 33  1  0  0  0  0
  5 34  1  0  0  0  0
 11 35  1  0  0  0  0
 11 36  1  0  0  0  0
 13 37  1  0  0  0  0
 14 38  1  0  0  0  0
 17 39  1  0  0  0  0
 18 40  1  0  0  0  0
 19 41  1  0  0  0  0
 22 42  1  0  0  0  0
 23 43  1  0  0  0  0
 25 44  1  0  0  0  0
 26 45  1  0  0  0  0
 29 46  1  0  0  0  0
 29 47  1  0  0  0  0
 29 48  1  0  0  0  0
M  END
> <IC50[nM]>
8.6

$$$$
CHEMBL3265020
  -OEChem-05192314333D
 Structure written by MMmdl.
 48 52  0     1  0  0  0  0  0999 V2000
   -4.2567   -3.1041   13.5694 C   0  0  0  0  0  0  0  0  0  0  0  0
   -3.8737   -2.3598   14.7157 O   0  0  0  0  0  0  0  0  0  0  0  0
   -2.5259   -2.1106   14.8172 C   0  0  0  0  0  0  0  0  0  0  0  0
   -1.7455   -2.8698   15.6821 C   0  0  0  0  0  0  0  0  0  0  0  0
   -0.3904   -2.6103   15.8138 C   0  0  0  0  0  0  0  0  0  0  0  0
    0.2204   -1.5845   15.0865 C   0  0  0  0  0  0  0  0  0  0  0  0
    1.6043   -1.3599   15.3203 N   0  0  0  0  0  0  0  0  0  0  0  0
    2.5377   -0.4463   14.7588 C   0  0  0  0  0  0  0  0  0  0  0  0
    2.1842    0.3709   13.7215 N   0  0  0  0  0  0  0  0  0  0  0  0
    3.1172    1.2388   13.2173 C   0  0  0  0  0  0  0  0  0  0  0  0
    4.4204    1.2848   13.7037 C   0  0  0  0  0  0  0  0  0  0  0  0
    4.7469    0.4890   14.7614 N   0  0  0  0  0  0  0  0  0  0  0  0
    5.8976    0.3763   15.4868 C   0  0  0  0  0  0  0  0  0  0  0  0
    5.5864   -0.5217   16.5304 C   0  0  0  0  0  0  0  0  0  0  0  0
    4.3754   -1.0422   16.3738 N   0  0  0  0  0  0  0  0  0  0  0  0
    3.8369   -0.3917   15.3265 C   0  0  0  0  0  0  0  0  0  0  0  0
    2.6436    2.1633   12.1173 C   0  0  0  0  0  0  0  0  0  0  0  0
    3.5480    2.6409   11.1599 C   0  0  0  0  0  0  0  0  0  0  0  0
    3.1566    3.4683   10.0981 C   0  0  0  0  0  0  0  0  0  0  0  0
    1.8094    3.8079   10.0262 C   0  0  3  0  0  0  0  0  0  0  0  0
    1.1129    4.5678    9.1158 N   0  0  0  0  0  0  0  0  0  0  0  0
   -0.1959    4.6369    9.4439 C   0  0  0  0  0  0  0  0  0  0  0  0
   -0.4233    3.9255   10.6079 C   0  0  0  0  0  0  0  0  0  0  0  0
    0.8581    3.3610   11.0052 C   0  0  0  0  0  0  0  0  0  0  0  0
    1.2923    2.5453   12.0556 C   0  0  0  0  0  0  0  0  0  0  0  0
   -0.5553   -0.8190   14.1924 C   0  0  0  0  0  0  0  0  0  0  0  0
   -1.9451   -1.0886   14.0616 C   0  0  0  0  0  0  0  0  0  0  0  0
   -2.7542   -0.3572   13.2046 O   0  0  0  0  0  0  0  0  0  0  0  0
   -2.2337    0.6443   12.3523 C   0  0  0  0  0  0  0  0  0  0  0  0
   -5.3466   -3.2526   13.5753 H   0  0  0  0  0  0  0  0  0  0  0  0
   -3.9666   -2.5545   12.6618 H   0  0  0  0  0  0  0  0  0  0  0  0
   -3.7535   -4.0821   13.5824 H   0  0  0  0  0  0  0  0  0  0  0  0
   -2.1978   -3.6662   16.2545 H   0  0  0  0  0  0  0  0  0  0  0  0
    0.2027   -3.2097   16.4886 H   0  0  0  0  0  0  0  0  0  0  0  0
    5.0873    1.0110   12.8729 H   0  0  0  0  0  0  0  0  0  0  0  0
    4.6182    2.3239   14.0055 H   0  0  0  0  0  0  0  0  0  0  0  0
    6.8415    0.8677   15.3023 H   0  0  0  0  0  0  0  0  0  0  0  0
    6.2486   -0.7553   17.3510 H   0  0  0  0  0  0  0  0  0  0  0  0
    4.5877    2.3606   11.2431 H   0  0  0  0  0  0  0  0  0  0  0  0
    3.8686    3.8259    9.3690 H   0  0  0  0  0  0  0  0  0  0  0  0
    1.6141    2.9077    9.4249 H   0  0  0  0  0  0  0  0  0  0  0  0
   -0.9504    5.1675    8.8821 H   0  0  0  0  0  0  0  0  0  0  0  0
   -1.3666    3.8112   11.1213 H   0  0  0  0  0  0  0  0  0  0  0  0
    0.5963    2.2125   12.8114 H   0  0  0  0  0  0  0  0  0  0  0  0
   -0.0969   -0.0330   13.6106 H   0  0  0  0  0  0  0  0  0  0  0  0
   -3.0515    1.0894   11.7666 H   0  0  0  0  0  0  0  0  0  0  0  0
   -1.7491    1.4248   12.9572 H   0  0  0  0  0  0  0  0  0  0  0  0
   -1.4953    0.1977   11.6702 H   0  0  0  0  0  0  0  0  0  0  0  0
  1  2  1  0  0  0  0
  2  3  1  0  0  0  0
  3  4  2  0  0  0  0
  3 27  1  0  0  0  0
  4  5  1  0  0  0  0
  5  6  2  0  0  0  0
  6  7  1  0  0  0  0
  6 26  1  0  0  0  0
  7  8  2  0  0  0  0
  8  9  1  0  0  0  0
  8 16  1  0  0  0  0
  9 10  2  0  0  0  0
 10 11  1  0  0  0  0
 10 17  1  0  0  0  0
 11 12  1  0  0  0  0
 12 13  1  0  0  0  0
 12 16  1  0  0  0  0
 13 14  2  0  0  0  0
 14 15  1  0  0  0  0
 15 16  2  0  0  0  0
 17 18  1  0  0  0  0
 17 25  2  0  0  0  0
 18 19  2  0  0  0  0
 19 20  1  0  0  0  0
 20 21  1  0  0  0  0
 20 24  1  0  0  0  0
 21 22  2  0  0  0  0
 22 23  1  0  0  0  0
 23 24  2  0  0  0  0
 24 25  1  0  0  0  0
 26 27  2  0  0  0  0
 27 28  1  0  0  0  0
 28 29  1  0  0  0  0
  1 30  1  0  0  0  0
  1 31  1  0  0  0  0
  1 32  1  0  0  0  0
  4 33  1  0  0  0  0
  5 34  1  0  0  0  0
 11 35  1  0  0  0  0
 11 36  1  0  0  0  0
 13 37  1  0  0  0  0
 14 38  1  0  0  0  0
 18 39  1  0  0  0  0
 19 40  1  0  0  0  0
 20 41  1  0  0  0  0
 22 42  1  0  0  0  0
 23 43  1  0  0  0  0
 25 44  1  0  0  0  0
 26 45  1  0  0  0  0
 29 46  1  0  0  0  0
 29 47  1  0  0  0  0
 29 48  1  0  0  0  0
M  END
> <IC50[nM]>
8.6

$$$$
CHEMBL3265020
  -OEChem-05192314333D
 Structure written by MMmdl.
 48 52  0     0  0  0  0  0  0999 V2000
   -4.2567   -3.1041   13.5694 C   0  0  0  0  0  0  0  0  0  0  0  0
   -3.8737   -2.3598   14.7157 O   0  0  0  0  0  0  0  0  0  0  0  0
   -2.5259   -2.1106   14.8172 C   0  0  0  0  0  0  0  0  0  0  0  0
   -1.7455   -2.8698   15.6821 C   0  0  0  0  0  0  0  0  0  0  0  0
   -0.3904   -2.6103   15.8138 C   0  0  0  0  0  0  0  0  0  0  0  0
    0.2204   -1.5845   15.0865 C   0  0  0  0  0  0  0  0  0  0  0  0
    1.6043   -1.3599   15.3203 N   0  0  0  0  0  0  0  0  0  0  0  0
    2.5377   -0.4463   14.7588 C   0  0  0  0  0  0  0  0  0  0  0  0
    2.1842    0.3709   13.7215 N   0  0  0  0  0  0  0  0  0  0  0  0
    3.1172    1.2388   13.2173 C   0  0  0  0  0  0  0  0  0  0  0  0
    4.4204    1.2848   13.7037 C   0  0  0  0  0  0  0  0  0  0  0  0
    4.7469    0.4890   14.7614 N   0  0  0  0  0  0  0  0  0  0  0  0
    5.8976    0.3763   15.4868 C   0  0  0  0  0  0  0  0  0  0  0  0
    5.5864   -0.5217   16.5304 C   0  0  0  0  0  0  0  0  0  0  0  0
    4.3754   -1.0422   16.3738 N   0  0  0  0  0  0  0  0  0  0  0  0
    3.8369   -0.3917   15.3265 C   0  0  0  0  0  0  0  0  0  0  0  0
    2.6436    2.1633   12.1173 C   0  0  0  0  0  0  0  0  0  0  0  0
    3.5480    2.6409   11.1599 C   0  0  0  0  0  0  0  0  0  0  0  0
    3.1566    3.4683   10.0981 C   0  0  0  0  0  0  0  0  0  0  0  0
    1.8094    3.8079   10.0262 C   0  0  0  0  0  0  0  0  0  0  0  0
    1.1129    4.5678    9.1158 N   0  0  0  0  0  0  0  0  0  0  0  0
   -0.1959    4.6369    9.4439 C   0  0  0  0  0  0  0  0  0  0  0  0
   -0.4233    3.9255   10.6079 C   0  0  0  0  0  0  0  0  0  0  0  0
    0.8581    3.3610   11.0052 C   0  0  0  0  0  0  0  0  0  0  0  0
    1.2923    2.5453   12.0556 C   0  0  0  0  0  0  0  0  0  0  0  0
   -0.5553   -0.8190   14.1924 C   0  0  0  0  0  0  0  0  0  0  0  0
   -1.9451   -1.0886   14.0616 C   0  0  0  0  0  0  0  0  0  0  0  0
   -2.7542   -0.3572   13.2046 O   0  0  0  0  0  0  0  0  0  0  0  0
   -2.2337    0.6443   12.3523 C   0  0  0  0  0  0  0  0  0  0  0  0
   -5.3466   -3.2526   13.5753 H   0  0  0  0  0  0  0  0  0  0  0  0
   -3.9666   -2.5545   12.6618 H   0  0  0  0  0  0  0  0  0  0  0  0
   -3.7535   -4.0821   13.5824 H   0  0  0  0  0  0  0  0  0  0  0  0
   -2.1978   -3.6662   16.2545 H   0  0  0  0  0  0  0  0  0  0  0  0
    0.2027   -3.2097   16.4886 H   0  0  0  0  0  0  0  0  0  0  0  0
    5.0873    1.0110   12.8729 H   0  0  0  0  0  0  0  0  0  0  0  0
    4.6182    2.3239   14.0055 H   0  0  0  0  0  0  0  0  0  0  0  0
    6.8415    0.8677   15.3023 H   0  0  0  0  0  0  0  0  0  0  0  0
    6.2486   -0.7553   17.3510 H   0  0  0  0  0  0  0  0  0  0  0  0
    4.5877    2.3606   11.2431 H   0  0  0  0  0  0  0  0  0  0  0  0
    3.7309    4.4032   10.1767 H   0  0  0  0  0  0  0  0  0  0  0  0
    3.4197    2.9539    9.1620 H   0  0  0  0  0  0  0  0  0  0  0  0
   -0.9504    5.1675    8.8821 H   0  0  0  0  0  0  0  0  0  0  0  0
   -1.3666    3.8112   11.1213 H   0  0  0  0  0  0  0  0  0  0  0  0
    0.5963    2.2125   12.8114 H   0  0  0  0  0  0  0  0  0  0  0  0
   -0.0969   -0.0330   13.6106 H   0  0  0  0  0  0  0  0  0  0  0  0
   -3.0515    1.0894   11.7666 H   0  0  0  0  0  0  0  0  0  0  0  0
   -1.7491    1.4248   12.9572 H   0  0  0  0  0  0  0  0  0  0  0  0
   -1.4953    0.1977   11.6702 H   0  0  0  0  0  0  0  0  0  0  0  0
  1  2  1  0  0  0  0
  2  3  1  0  0  0  0
  3  4  2  0  0  0  0
  3 27  1  0  0  0  0
  4  5  1  0  0  0  0
  5  6  2  0  0  0  0
  6  7  1  0  0  0  0
  6 26  1  0  0  0  0
  7  8  2  0  0  0  0
  8  9  1  0  0  0  0
  8 16  1  0  0  0  0
  9 10  2  0  0  0  0
 10 11  1  0  0  0  0
 10 17  1  0  0  0  0
 11 12  1  0  0  0  0
 12 13  1  0  0  0  0
 12 16  1  0  0  0  0
 13 14  2  0  0  0  0
 14 15  1  0  0  0  0
 15 16  2  0  0  0  0
 17 18  2  0  0  0  0
 17 25  1  0  0  0  0
 18 19  1  0  0  0  0
 19 20  1  0  0  0  0
 20 21  2  0  0  0  0
 20 24  1  0  0  0  0
 21 22  1  0  0  0  0
 22 23  2  0  0  0  0
 23 24  1  0  0  0  0
 24 25  2  0  0  0  0
 26 27  2  0  0  0  0
 27 28  1  0  0  0  0
 28 29  1  0  0  0  0
  1 30  1  0  0  0  0
  1 31  1  0  0  0  0
  1 32  1  0  0  0  0
  4 33  1  0  0  0  0
  5 34  1  0  0  0  0
 11 35  1  0  0  0  0
 11 36  1  0  0  0  0
 13 37  1  0  0  0  0
 14 38  1  0  0  0  0
 18 39  1  0  0  0  0
 19 40  1  0  0  0  0
 19 41  1  0  0  0  0
 22 42  1  0  0  0  0
 23 43  1  0  0  0  0
 25 44  1  0  0  0  0
 26 45  1  0  0  0  0
 29 46  1  0  0  0  0
 29 47  1  0  0  0  0
 29 48  1  0  0  0  0
M  END
> <IC50[nM]>
8.6

$$$$
CHEMBL3265020
  -OEChem-05192314333D
 Structure written by MMmdl.
 48 52  0     0  0  0  0  0  0999 V2000
   -4.2567   -3.1041   13.5694 C   0  0  0  0  0  0  0  0  0  0  0  0
   -3.8737   -2.3598   14.7157 O   0  0  0  0  0  0  0  0  0  0  0  0
   -2.5259   -2.1106   14.8172 C   0  0  0  0  0  0  0  0  0  0  0  0
   -1.7455   -2.8698   15.6821 C   0  0  0  0  0  0  0  0  0  0  0  0
   -0.3904   -2.6103   15.8138 C   0  0  0  0  0  0  0  0  0  0  0  0
    0.2204   -1.5845   15.0865 C   0  0  0  0  0  0  0  0  0  0  0  0
    1.6043   -1.3599   15.3203 N   0  0  0  0  0  0  0  0  0  0  0  0
    2.5377   -0.4463   14.7588 C   0  0  0  0  0  0  0  0  0  0  0  0
    2.1842    0.3709   13.7215 N   0  0  0  0  0  0  0  0  0  0  0  0
    3.1172    1.2388   13.2173 C   0  0  0  0  0  0  0  0  0  0  0  0
    4.4204    1.2848   13.7037 C   0  0  0  0  0  0  0  0  0  0  0  0
    4.7469    0.4890   14.7614 N   0  0  0  0  0  0  0  0  0  0  0  0
    5.8976    0.3763   15.4868 C   0  0  0  0  0  0  0  0  0  0  0  0
    5.5864   -0.5217   16.5304 C   0  0  0  0  0  0  0  0  0  0  0  0
    4.3754   -1.0422   16.3738 N   0  0  0  0  0  0  0  0  0  0  0  0
    3.8369   -0.3917   15.3265 C   0  0  0  0  0  0  0  0  0  0  0  0
    2.6436    2.1633   12.1173 C   0  0  0  0  0  0  0  0  0  0  0  0
    3.5480    2.6409   11.1599 C   0  0  0  0  0  0  0  0  0  0  0  0
    3.1566    3.4683   10.0981 C   0  0  0  0  0  0  0  0  0  0  0  0
    1.8094    3.8079   10.0262 C   0  0  0  0  0  0  0  0  0  0  0  0
    1.1129    4.5678    9.1158 N   0  0  0  0  0  0  0  0  0  0  0  0
   -0.1959    4.6369    9.4439 C   0  0  0  0  0  0  0  0  0  0  0  0
   -0.4233    3.9255   10.6079 C   0  0  0  0  0  0  0  0  0  0  0  0
    0.8581    3.3610   11.0052 C   0  0  0  0  0  0  0  0  0  0  0  0
    1.2923    2.5453   12.0556 C   0  0  0  0  0  0  0  0  0  0  0  0
   -0.5553   -0.8190   14.1924 C   0  0  0  0  0  0  0  0  0  0  0  0
   -1.9451   -1.0886   14.0616 C   0  0  0  0  0  0  0  0  0  0  0  0
   -2.7542   -0.3572   13.2046 O   0  0  0  0  0  0  0  0  0  0  0  0
   -2.2337    0.6443   12.3523 C   0  0  0  0  0  0  0  0  0  0  0  0
   -5.3466   -3.2526   13.5753 H   0  0  0  0  0  0  0  0  0  0  0  0
   -3.9666   -2.5545   12.6618 H   0  0  0  0  0  0  0  0  0  0  0  0
   -3.7535   -4.0821   13.5824 H   0  0  0  0  0  0  0  0  0  0  0  0
   -2.1978   -3.6662   16.2545 H   0  0  0  0  0  0  0  0  0  0  0  0
    0.2027   -3.2097   16.4886 H   0  0  0  0  0  0  0  0  0  0  0  0
    5.0873    1.0110   12.8729 H   0  0  0  0  0  0  0  0  0  0  0  0
    4.6182    2.3239   14.0055 H   0  0  0  0  0  0  0  0  0  0  0  0
    6.8415    0.8677   15.3023 H   0  0  0  0  0  0  0  0  0  0  0  0
    6.2486   -0.7553   17.3510 H   0  0  0  0  0  0  0  0  0  0  0  0
    4.3141    3.2007   11.7165 H   0  0  0  0  0  0  0  0  0  0  0  0
    4.0047    1.7515   10.7012 H   0  0  0  0  0  0  0  0  0  0  0  0
    3.8686    3.8259    9.3690 H   0  0  0  0  0  0  0  0  0  0  0  0
   -0.9504    5.1675    8.8821 H   0  0  0  0  0  0  0  0  0  0  0  0
   -1.3666    3.8112   11.1213 H   0  0  0  0  0  0  0  0  0  0  0  0
    0.5963    2.2125   12.8114 H   0  0  0  0  0  0  0  0  0  0  0  0
   -0.0969   -0.0330   13.6106 H   0  0  0  0  0  0  0  0  0  0  0  0
   -3.0515    1.0894   11.7666 H   0  0  0  0  0  0  0  0  0  0  0  0
   -1.7491    1.4248   12.9572 H   0  0  0  0  0  0  0  0  0  0  0  0
   -1.4953    0.1977   11.6702 H   0  0  0  0  0  0  0  0  0  0  0  0
  1  2  1  0  0  0  0
  2  3  1  0  0  0  0
  3  4  2  0  0  0  0
  3 27  1  0  0  0  0
  4  5  1  0  0  0  0
  5  6  2  0  0  0  0
  6  7  1  0  0  0  0
  6 26  1  0  0  0  0
  7  8  2  0  0  0  0
  8  9  1  0  0  0  0
  8 16  1  0  0  0  0
  9 10  2  0  0  0  0
 10 11  1  0  0  0  0
 10 17  1  0  0  0  0
 11 12  1  0  0  0  0
 12 13  1  0  0  0  0
 12 16  1  0  0  0  0
 13 14  2  0  0  0  0
 14 15  1  0  0  0  0
 15 16  2  0  0  0  0
 17 18  1  0  0  0  0
 17 25  2  0  0  0  0
 18 19  1  0  0  0  0
 19 20  2  0  0  0  0
 20 21  1  0  0  0  0
 20 24  1  0  0  0  0
 21 22  2  0  0  0  0
 22 23  1  0  0  0  0
 23 24  2  0  0  0  0
 24 25  1  0  0  0  0
 26 27  2  0  0  0  0
 27 28  1  0  0  0  0
 28 29  1  0  0  0  0
  1 30  1  0  0  0  0
  1 31  1  0  0  0  0
  1 32  1  0  0  0  0
  4 33  1  0  0  0  0
  5 34  1  0  0  0  0
 11 35  1  0  0  0  0
 11 36  1  0  0  0  0
 13 37  1  0  0  0  0
 14 38  1  0  0  0  0
 18 39  1  0  0  0  0
 18 40  1  0  0  0  0
 19 41  1  0  0  0  0
 22 42  1  0  0  0  0
 23 43  1  0  0  0  0
 25 44  1  0  0  0  0
 26 45  1  0  0  0  0
 29 46  1  0  0  0  0
 29 47  1  0  0  0  0
 29 48  1  0  0  0  0
M  END
> <IC50[nM]>
8.6

$$$$
CHEMBL3265020
  -OEChem-05192314333D
 Structure written by MMmdl.
 48 52  0     0  0  0  0  0  0999 V2000
   -4.2567   -3.1041   13.5694 C   0  0  0  0  0  0  0  0  0  0  0  0
   -3.8737   -2.3598   14.7157 O   0  0  0  0  0  0  0  0  0  0  0  0
   -2.5259   -2.1106   14.8172 C   0  0  0  0  0  0  0  0  0  0  0  0
   -1.7455   -2.8698   15.6821 C   0  0  0  0  0  0  0  0  0  0  0  0
   -0.3904   -2.6103   15.8138 C   0  0  0  0  0  0  0  0  0  0  0  0
    0.2204   -1.5845   15.0865 C   0  0  0  0  0  0  0  0  0  0  0  0
    1.6043   -1.3599   15.3203 N   0  0  0  0  0  0  0  0  0  0  0  0
    2.5377   -0.4463   14.7588 C   0  0  0  0  0  0  0  0  0  0  0  0
    2.1842    0.3709   13.7215 N   0  0  0  0  0  0  0  0  0  0  0  0
    3.1172    1.2388   13.2173 C   0  0  0  0  0  0  0  0  0  0  0  0
    4.4204    1.2848   13.7037 C   0  0  0  0  0  0  0  0  0  0  0  0
    4.7469    0.4890   14.7614 N   0  0  0  0  0  0  0  0  0  0  0  0
    5.8976    0.3763   15.4868 C   0  0  0  0  0  0  0  0  0  0  0  0
    5.5864   -0.5217   16.5304 C   0  0  0  0  0  0  0  0  0  0  0  0
    4.3754   -1.0422   16.3738 N   0  0  0  0  0  0  0  0  0  0  0  0
    3.8369   -0.3917   15.3265 C   0  0  0  0  0  0  0  0  0  0  0  0
    2.6436    2.1633   12.1173 C   0  0  0  0  0  0  0  0  0  0  0  0
    3.5480    2.6409   11.1599 C   0  0  0  0  0  0  0  0  0  0  0  0
    3.1566    3.4683   10.0981 C   0  0  0  0  0  0  0  0  0  0  0  0
    1.8094    3.8079   10.0262 C   0  0  0  0  0  0  0  0  0  0  0  0
    1.1129    4.5678    9.1158 N   0  0  0  0  0  0  0  0  0  0  0  0
   -0.1959    4.6369    9.4439 C   0  0  0  0  0  0  0  0  0  0  0  0
   -0.4233    3.9255   10.6079 C   0  0  0  0  0  0  0  0  0  0  0  0
    0.8581    3.3610   11.0052 C   0  0  0  0  0  0  0  0  0  0  0  0
    1.2923    2.5453   12.0556 C   0  0  0  0  0  0  0  0  0  0  0  0
   -0.5553   -0.8190   14.1924 C   0  0  0  0  0  0  0  0  0  0  0  0
   -1.9451   -1.0886   14.0616 C   0  0  0  0  0  0  0  0  0  0  0  0
   -2.7542   -0.3572   13.2046 O   0  0  0  0  0  0  0  0  0  0  0  0
   -2.2337    0.6443   12.3523 C   0  0  0  0  0  0  0  0  0  0  0  0
   -5.3466   -3.2526   13.5753 H   0  0  0  0  0  0  0  0  0  0  0  0
   -3.9666   -2.5545   12.6618 H   0  0  0  0  0  0  0  0  0  0  0  0
   -3.7535   -4.0821   13.5824 H   0  0  0  0  0  0  0  0  0  0  0  0
   -2.1978   -3.6662   16.2545 H   0  0  0  0  0  0  0  0  0  0  0  0
    0.2027   -3.2097   16.4886 H   0  0  0  0  0  0  0  0  0  0  0  0
    5.0873    1.0110   12.8729 H   0  0  0  0  0  0  0  0  0  0  0  0
    4.6182    2.3239   14.0055 H   0  0  0  0  0  0  0  0  0  0  0  0
    6.8415    0.8677   15.3023 H   0  0  0  0  0  0  0  0  0  0  0  0
    6.2486   -0.7553   17.3510 H   0  0  0  0  0  0  0  0  0  0  0  0
    4.5877    2.3606   11.2431 H   0  0  0  0  0  0  0  0  0  0  0  0
    3.8686    3.8259    9.3690 H   0  0  0  0  0  0  0  0  0  0  0  0
   -0.9504    5.1675    8.8821 H   0  0  0  0  0  0  0  0  0  0  0  0
   -1.3666    3.8112   11.1213 H   0  0  0  0  0  0  0  0  0  0  0  0
    0.6992    1.6201   12.0095 H   0  0  0  0  0  0  0  0  0  0  0  0
    1.0669    3.0791   12.9906 H   0  0  0  0  0  0  0  0  0  0  0  0
   -0.0969   -0.0330   13.6106 H   0  0  0  0  0  0  0  0  0  0  0  0
   -3.0515    1.0894   11.7666 H   0  0  0  0  0  0  0  0  0  0  0  0
   -1.7491    1.4248   12.9572 H   0  0  0  0  0  0  0  0  0  0  0  0
   -1.4953    0.1977   11.6702 H   0  0  0  0  0  0  0  0  0  0  0  0
  1  2  1  0  0  0  0
  2  3  1  0  0  0  0
  3  4  2  0  0  0  0
  3 27  1  0  0  0  0
  4  5  1  0  0  0  0
  5  6  2  0  0  0  0
  6  7  1  0  0  0  0
  6 26  1  0  0  0  0
  7  8  2  0  0  0  0
  8  9  1  0  0  0  0
  8 16  1  0  0  0  0
  9 10  2  0  0  0  0
 10 11  1  0  0  0  0
 10 17  1  0  0  0  0
 11 12  1  0  0  0  0
 12 13  1  0  0  0  0
 12 16  1  0  0  0  0
 13 14  2  0  0  0  0
 14 15  1  0  0  0  0
 15 16  2  0  0  0  0
 17 18  2  0  0  0  0
 17 25  1  0  0  0  0
 18 19  1  0  0  0  0
 19 20  2  0  0  0  0
 20 21  1  0  0  0  0
 20 24  1  0  0  0  0
 21 22  2  0  0  0  0
 22 23  1  0  0  0  0
 23 24  2  0  0  0  0
 24 25  1  0  0  0  0
 26 27  2  0  0  0  0
 27 28  1  0  0  0  0
 28 29  1  0  0  0  0
  1 30  1  0  0  0  0
  1 31  1  0  0  0  0
  1 32  1  0  0  0  0
  4 33  1  0  0  0  0
  5 34  1  0  0  0  0
 11 35  1  0  0  0  0
 11 36  1  0  0  0  0
 13 37  1  0  0  0  0
 14 38  1  0  0  0  0
 18 39  1  0  0  0  0
 19 40  1  0  0  0  0
 22 41  1  0  0  0  0
 23 42  1  0  0  0  0
 25 43  1  0  0  0  0
 25 44  1  0  0  0  0
 26 45  1  0  0  0  0
 29 46  1  0  0  0  0
 29 47  1  0  0  0  0
 29 48  1  0  0  0  0
M  END
> <IC50[nM]>
8.6

$$$$
CHEMBL3265020
  -OEChem-05192314333D
 Structure written by MMmdl.
 48 52  0     1  0  0  0  0  0999 V2000
   -4.2567   -3.1041   13.5694 C   0  0  0  0  0  0  0  0  0  0  0  0
   -3.8737   -2.3598   14.7157 O   0  0  0  0  0  0  0  0  0  0  0  0
   -2.5259   -2.1106   14.8172 C   0  0  3  0  0  0  0  0  0  0  0  0
   -1.7455   -2.8698   15.6821 C   0  0  0  0  0  0  0  0  0  0  0  0
   -0.3904   -2.6103   15.8138 C   0  0  0  0  0  0  0  0  0  0  0  0
    0.2204   -1.5845   15.0865 C   0  0  0  0  0  0  0  0  0  0  0  0
    1.6043   -1.3599   15.3203 N   0  0  0  0  0  0  0  0  0  0  0  0
    2.5377   -0.4463   14.7588 C   0  0  0  0  0  0  0  0  0  0  0  0
    2.1842    0.3709   13.7215 N   0  0  0  0  0  0  0  0  0  0  0  0
    3.1172    1.2388   13.2173 C   0  0  0  0  0  0  0  0  0  0  0  0
    4.4204    1.2848   13.7037 C   0  0  0  0  0  0  0  0  0  0  0  0
    4.7469    0.4890   14.7614 N   0  0  0  0  0  0  0  0  0  0  0  0
    5.8976    0.3763   15.4868 C   0  0  0  0  0  0  0  0  0  0  0  0
    5.5864   -0.5217   16.5304 C   0  0  0  0  0  0  0  0  0  0  0  0
    4.3754   -1.0422   16.3738 N   0  0  0  0  0  0  0  0  0  0  0  0
    3.8369   -0.3917   15.3265 C   0  0  0  0  0  0  0  0  0  0  0  0
    2.6436    2.1633   12.1173 C   0  0  0  0  0  0  0  0  0  0  0  0
    3.5480    2.6409   11.1599 C   0  0  0  0  0  0  0  0  0  0  0  0
    3.1566    3.4683   10.0981 C   0  0  0  0  0  0  0  0  0  0  0  0
    1.8094    3.8079   10.0262 C   0  0  0  0  0  0  0  0  0  0  0  0
    1.1129    4.5678    9.1158 N   0  0  0  0  0  0  0  0  0  0  0  0
   -0.1959    4.6369    9.4439 C   0  0  0  0  0  0  0  0  0  0  0  0
   -0.4233    3.9255   10.6079 C   0  0  0  0  0  0  0  0  0  0  0  0
    0.8581    3.3610   11.0052 C   0  0  0  0  0  0  0  0  0  0  0  0
    1.2923    2.5453   12.0556 C   0  0  0  0  0  0  0  0  0  0  0  0
   -0.5553   -0.8190   14.1924 C   0  0  0  0  0  0  0  0  0  0  0  0
   -1.9451   -1.0886   14.0616 C   0  0  0  0  0  0  0  0  0  0  0  0
   -2.7542   -0.3572   13.2046 O   0  0  0  0  0  0  0  0  0  0  0  0
   -2.2337    0.6443   12.3523 C   0  0  0  0  0  0  0  0  0  0  0  0
   -5.3466   -3.2526   13.5753 H   0  0  0  0  0  0  0  0  0  0  0  0
   -3.9666   -2.5545   12.6618 H   0  0  0  0  0  0  0  0  0  0  0  0
   -3.7535   -4.0821   13.5824 H   0  0  0  0  0  0  0  0  0  0  0  0
   -2.3291   -2.8267   14.0058 H   0  0  0  0  0  0  0  0  0  0  0  0
   -2.1978   -3.6662   16.2545 H   0  0  0  0  0  0  0  0  0  0  0  0
    0.2027   -3.2097   16.4886 H   0  0  0  0  0  0  0  0  0  0  0  0
    5.0873    1.0110   12.8729 H   0  0  0  0  0  0  0  0  0  0  0  0
    4.6182    2.3239   14.0055 H   0  0  0  0  0  0  0  0  0  0  0  0
    6.8415    0.8677   15.3023 H   0  0  0  0  0  0  0  0  0  0  0  0
    6.2486   -0.7553   17.3510 H   0  0  0  0  0  0  0  0  0  0  0  0
    4.5877    2.3606   11.2431 H   0  0  0  0  0  0  0  0  0  0  0  0
    3.8686    3.8259    9.3690 H   0  0  0  0  0  0  0  0  0  0  0  0
   -0.9504    5.1675    8.8821 H   0  0  0  0  0  0  0  0  0  0  0  0
   -1.3666    3.8112   11.1213 H   0  0  0  0  0  0  0  0  0  0  0  0
    0.5963    2.2125   12.8114 H   0  0  0  0  0  0  0  0  0  0  0  0
   -0.0969   -0.0330   13.6106 H   0  0  0  0  0  0  0  0  0  0  0  0
   -3.0515    1.0894   11.7666 H   0  0  0  0  0  0  0  0  0  0  0  0
   -1.7491    1.4248   12.9572 H   0  0  0  0  0  0  0  0  0  0  0  0
   -1.4953    0.1977   11.6702 H   0  0  0  0  0  0  0  0  0  0  0  0
  1  2  1  0  0  0  0
  2  3  1  0  0  0  0
  3  4  1  0  0  0  0
  3 27  1  0  0  0  0
  4  5  2  0  0  0  0
  5  6  1  0  0  0  0
  6  7  2  0  0  0  0
  6 26  1  0  0  0  0
  7  8  1  0  0  0  0
  8  9  2  0  0  0  0
  8 16  1  0  0  0  0
  9 10  1  0  0  0  0
 10 11  1  0  0  0  0
 10 17  2  0  0  0  0
 11 12  1  0  0  0  0
 12 13  1  0  0  0  0
 12 16  1  0  0  0  0
 13 14  2  0  0  0  0
 14 15  1  0  0  0  0
 15 16  2  0  0  0  0
 17 18  1  0  0  0  0
 17 25  1  0  0  0  0
 18 19  2  0  0  0  0
 19 20  1  0  0  0  0
 20 21  2  0  0  0  0
 20 24  1  0  0  0  0
 21 22  1  0  0  0  0
 22 23  2  0  0  0  0
 23 24  1  0  0  0  0
 24 25  2  0  0  0  0
 26 27  2  0  0  0  0
 27 28  1  0  0  0  0
 28 29  1  0  0  0  0
  1 30  1  0  0  0  0
  1 31  1  0  0  0  0
  1 32  1  0  0  0  0
  3 33  1  0  0  0  0
  4 34  1  0  0  0  0
  5 35  1  0  0  0  0
 11 36  1  0  0  0  0
 11 37  1  0  0  0  0
 13 38  1  0  0  0  0
 14 39  1  0  0  0  0
 18 40  1  0  0  0  0
 19 41  1  0  0  0  0
 22 42  1  0  0  0  0
 23 43  1  0  0  0  0
 25 44  1  0  0  0  0
 26 45  1  0  0  0  0
 29 46  1  0  0  0  0
 29 47  1  0  0  0  0
 29 48  1  0  0  0  0
M  END
> <IC50[nM]>
8.6

$$$$
CHEMBL3265020
  -OEChem-05192314333D
 Structure written by MMmdl.
 48 52  0     0  0  0  0  0  0999 V2000
   -4.2567   -3.1041   13.5694 C   0  0  0  0  0  0  0  0  0  0  0  0
   -3.8737   -2.3598   14.7157 O   0  0  0  0  0  0  0  0  0  0  0  0
   -2.5259   -2.1106   14.8172 C   0  0  0  0  0  0  0  0  0  0  0  0
   -1.7455   -2.8698   15.6821 C   0  0  0  0  0  0  0  0  0  0  0  0
   -0.3904   -2.6103   15.8138 C   0  0  0  0  0  0  0  0  0  0  0  0
    0.2204   -1.5845   15.0865 C   0  0  0  0  0  0  0  0  0  0  0  0
    1.6043   -1.3599   15.3203 N   0  0  0  0  0  0  0  0  0  0  0  0
    2.5377   -0.4463   14.7588 C   0  0  0  0  0  0  0  0  0  0  0  0
    2.1842    0.3709   13.7215 N   0  0  0  0  0  0  0  0  0  0  0  0
    3.1172    1.2388   13.2173 C   0  0  0  0  0  0  0  0  0  0  0  0
    4.4204    1.2848   13.7037 C   0  0  0  0  0  0  0  0  0  0  0  0
    4.7469    0.4890   14.7614 N   0  0  0  0  0  0  0  0  0  0  0  0
    5.8976    0.3763   15.4868 C   0  0  0  0  0  0  0  0  0  0  0  0
    5.5864   -0.5217   16.5304 C   0  0  0  0  0  0  0  0  0  0  0  0
    4.3754   -1.0422   16.3738 N   0  0  0  0  0  0  0  0  0  0  0  0
    3.8369   -0.3917   15.3265 C   0  0  0  0  0  0  0  0  0  0  0  0
    2.6436    2.1633   12.1173 C   0  0  0  0  0  0  0  0  0  0  0  0
    3.5480    2.6409   11.1599 C   0  0  0  0  0  0  0  0  0  0  0  0
    3.1566    3.4683   10.0981 C   0  0  0  0  0  0  0  0  0  0  0  0
    1.8094    3.8079   10.0262 C   0  0  0  0  0  0  0  0  0  0  0  0
    1.1129    4.5678    9.1158 N   0  0  0  0  0  0  0  0  0  0  0  0
   -0.1959    4.6369    9.4439 C   0  0  0  0  0  0  0  0  0  0  0  0
   -0.4233    3.9255   10.6079 C   0  0  0  0  0  0  0  0  0  0  0  0
    0.8581    3.3610   11.0052 C   0  0  0  0  0  0  0  0  0  0  0  0
    1.2923    2.5453   12.0556 C   0  0  0  0  0  0  0  0  0  0  0  0
   -0.5553   -0.8190   14.1924 C   0  0  0  0  0  0  0  0  0  0  0  0
   -1.9451   -1.0886   14.0616 C   0  0  0  0  0  0  0  0  0  0  0  0
   -2.7542   -0.3572   13.2046 O   0  0  0  0  0  0  0  0  0  0  0  0
   -2.2337    0.6443   12.3523 C   0  0  0  0  0  0  0  0  0  0  0  0
   -5.3466   -3.2526   13.5753 H   0  0  0  0  0  0  0  0  0  0  0  0
   -3.9666   -2.5545   12.6618 H   0  0  0  0  0  0  0  0  0  0  0  0
   -3.7535   -4.0821   13.5824 H   0  0  0  0  0  0  0  0  0  0  0  0
   -2.1978   -3.6662   16.2545 H   0  0  0  0  0  0  0  0  0  0  0  0
   -0.2168   -2.3863   16.8767 H   0  0  0  0  0  0  0  0  0  0  0  0
    0.1335   -3.5393   15.5446 H   0  0  0  0  0  0  0  0  0  0  0  0
    5.0873    1.0110   12.8729 H   0  0  0  0  0  0  0  0  0  0  0  0
    4.6182    2.3239   14.0055 H   0  0  0  0  0  0  0  0  0  0  0  0
    6.8415    0.8677   15.3023 H   0  0  0  0  0  0  0  0  0  0  0  0
    6.2486   -0.7553   17.3510 H   0  0  0  0  0  0  0  0  0  0  0  0
    4.5877    2.3606   11.2431 H   0  0  0  0  0  0  0  0  0  0  0  0
    3.8686    3.8259    9.3690 H   0  0  0  0  0  0  0  0  0  0  0  0
   -0.9504    5.1675    8.8821 H   0  0  0  0  0  0  0  0  0  0  0  0
   -1.3666    3.8112   11.1213 H   0  0  0  0  0  0  0  0  0  0  0  0
    0.5963    2.2125   12.8114 H   0  0  0  0  0  0  0  0  0  0  0  0
   -0.0969   -0.0330   13.6106 H   0  0  0  0  0  0  0  0  0  0  0  0
   -3.0515    1.0894   11.7666 H   0  0  0  0  0  0  0  0  0  0  0  0
   -1.7491    1.4248   12.9572 H   0  0  0  0  0  0  0  0  0  0  0  0
   -1.4953    0.1977   11.6702 H   0  0  0  0  0  0  0  0  0  0  0  0
  1  2  1  0  0  0  0
  2  3  1  0  0  0  0
  3  4  2  0  0  0  0
  3 27  1  0  0  0  0
  4  5  1  0  0  0  0
  5  6  1  0  0  0  0
  6  7  2  0  0  0  0
  6 26  1  0  0  0  0
  7  8  1  0  0  0  0
  8  9  2  0  0  0  0
  8 16  1  0  0  0  0
  9 10  1  0  0  0  0
 10 11  1  0  0  0  0
 10 17  2  0  0  0  0
 11 12  1  0  0  0  0
 12 13  1  0  0  0  0
 12 16  1  0  0  0  0
 13 14  2  0  0  0  0
 14 15  1  0  0  0  0
 15 16  2  0  0  0  0
 17 18  1  0  0  0  0
 17 25  1  0  0  0  0
 18 19  2  0  0  0  0
 19 20  1  0  0  0  0
 20 21  2  0  0  0  0
 20 24  1  0  0  0  0
 21 22  1  0  0  0  0
 22 23  2  0  0  0  0
 23 24  1  0  0  0  0
 24 25  2  0  0  0  0
 26 27  2  0  0  0  0
 27 28  1  0  0  0  0
 28 29  1  0  0  0  0
  1 30  1  0  0  0  0
  1 31  1  0  0  0  0
  1 32  1  0  0  0  0
  4 33  1  0  0  0  0
  5 34  1  0  0  0  0
  5 35  1  0  0  0  0
 11 36  1  0  0  0  0
 11 37  1  0  0  0  0
 13 38  1  0  0  0  0
 14 39  1  0  0  0  0
 18 40  1  0  0  0  0
 19 41  1  0  0  0  0
 22 42  1  0  0  0  0
 23 43  1  0  0  0  0
 25 44  1  0  0  0  0
 26 45  1  0  0  0  0
 29 46  1  0  0  0  0
 29 47  1  0  0  0  0
 29 48  1  0  0  0  0
M  END
> <IC50[nM]>
8.6

$$$$
CHEMBL3265020
  -OEChem-05192314333D
 Structure written by MMmdl.
 48 52  0     0  0  0  0  0  0999 V2000
   -4.2567   -3.1041   13.5694 C   0  0  0  0  0  0  0  0  0  0  0  0
   -3.8737   -2.3598   14.7157 O   0  0  0  0  0  0  0  0  0  0  0  0
   -2.5259   -2.1106   14.8172 C   0  0  0  0  0  0  0  0  0  0  0  0
   -1.7455   -2.8698   15.6821 C   0  0  0  0  0  0  0  0  0  0  0  0
   -0.3904   -2.6103   15.8138 C   0  0  0  0  0  0  0  0  0  0  0  0
    0.2204   -1.5845   15.0865 C   0  0  0  0  0  0  0  0  0  0  0  0
    1.6043   -1.3599   15.3203 N   0  0  0  0  0  0  0  0  0  0  0  0
    2.5377   -0.4463   14.7588 C   0  0  0  0  0  0  0  0  0  0  0  0
    2.1842    0.3709   13.7215 N   0  0  0  0  0  0  0  0  0  0  0  0
    3.1172    1.2388   13.2173 C   0  0  0  0  0  0  0  0  0  0  0  0
    4.4204    1.2848   13.7037 C   0  0  0  0  0  0  0  0  0  0  0  0
    4.7469    0.4890   14.7614 N   0  0  0  0  0  0  0  0  0  0  0  0
    5.8976    0.3763   15.4868 C   0  0  0  0  0  0  0  0  0  0  0  0
    5.5864   -0.5217   16.5304 C   0  0  0  0  0  0  0  0  0  0  0  0
    4.3754   -1.0422   16.3738 N   0  0  0  0  0  0  0  0  0  0  0  0
    3.8369   -0.3917   15.3265 C   0  0  0  0  0  0  0  0  0  0  0  0
    2.6436    2.1633   12.1173 C   0  0  0  0  0  0  0  0  0  0  0  0
    3.5480    2.6409   11.1599 C   0  0  0  0  0  0  0  0  0  0  0  0
    3.1566    3.4683   10.0981 C   0  0  0  0  0  0  0  0  0  0  0  0
    1.8094    3.8079   10.0262 C   0  0  0  0  0  0  0  0  0  0  0  0
    1.1129    4.5678    9.1158 N   0  0  0  0  0  0  0  0  0  0  0  0
   -0.1959    4.6369    9.4439 C   0  0  0  0  0  0  0  0  0  0  0  0
   -0.4233    3.9255   10.6079 C   0  0  0  0  0  0  0  0  0  0  0  0
    0.8581    3.3610   11.0052 C   0  0  0  0  0  0  0  0  0  0  0  0
    1.2923    2.5453   12.0556 C   0  0  0  0  0  0  0  0  0  0  0  0
   -0.5553   -0.8190   14.1924 C   0  0  0  0  0  0  0  0  0  0  0  0
   -1.9451   -1.0886   14.0616 C   0  0  0  0  0  0  0  0  0  0  0  0
   -2.7542   -0.3572   13.2046 O   0  0  0  0  0  0  0  0  0  0  0  0
   -2.2337    0.6443   12.3523 C   0  0  0  0  0  0  0  0  0  0  0  0
   -5.3466   -3.2526   13.5753 H   0  0  0  0  0  0  0  0  0  0  0  0
   -3.9666   -2.5545   12.6618 H   0  0  0  0  0  0  0  0  0  0  0  0
   -3.7535   -4.0821   13.5824 H   0  0  0  0  0  0  0  0  0  0  0  0
   -2.1978   -3.6662   16.2545 H   0  0  0  0  0  0  0  0  0  0  0  0
    0.2027   -3.2097   16.4886 H   0  0  0  0  0  0  0  0  0  0  0  0
    5.0873    1.0110   12.8729 H   0  0  0  0  0  0  0  0  0  0  0  0
    4.6182    2.3239   14.0055 H   0  0  0  0  0  0  0  0  0  0  0  0
    6.8415    0.8677   15.3023 H   0  0  0  0  0  0  0  0  0  0  0  0
    6.2486   -0.7553   17.3510 H   0  0  0  0  0  0  0  0  0  0  0  0
    4.5877    2.3606   11.2431 H   0  0  0  0  0  0  0  0  0  0  0  0
    3.8686    3.8259    9.3690 H   0  0  0  0  0  0  0  0  0  0  0  0
   -0.9504    5.1675    8.8821 H   0  0  0  0  0  0  0  0  0  0  0  0
   -1.3666    3.8112   11.1213 H   0  0  0  0  0  0  0  0  0  0  0  0
    0.5963    2.2125   12.8114 H   0  0  0  0  0  0  0  0  0  0  0  0
   -0.4615    0.2311   14.5061 H   0  0  0  0  0  0  0  0  0  0  0  0
   -0.1100   -0.9447   13.1945 H   0  0  0  0  0  0  0  0  0  0  0  0
   -3.0515    1.0894   11.7666 H   0  0  0  0  0  0  0  0  0  0  0  0
   -1.7491    1.4248   12.9572 H   0  0  0  0  0  0  0  0  0  0  0  0
   -1.4953    0.1977   11.6702 H   0  0  0  0  0  0  0  0  0  0  0  0
  1  2  1  0  0  0  0
  2  3  1  0  0  0  0
  3  4  1  0  0  0  0
  3 27  2  0  0  0  0
  4  5  2  0  0  0  0
  5  6  1  0  0  0  0
  6  7  2  0  0  0  0
  6 26  1  0  0  0  0
  7  8  1  0  0  0  0
  8  9  2  0  0  0  0
  8 16  1  0  0  0  0
  9 10  1  0  0  0  0
 10 11  1  0  0  0  0
 10 17  2  0  0  0  0
 11 12  1  0  0  0  0
 12 13  1  0  0  0  0
 12 16  1  0  0  0  0
 13 14  2  0  0  0  0
 14 15  1  0  0  0  0
 15 16  2  0  0  0  0
 17 18  1  0  0  0  0
 17 25  1  0  0  0  0
 18 19  2  0  0  0  0
 19 20  1  0  0  0  0
 20 21  2  0  0  0  0
 20 24  1  0  0  0  0
 21 22  1  0  0  0  0
 22 23  2  0  0  0  0
 23 24  1  0  0  0  0
 24 25  2  0  0  0  0
 26 27  1  0  0  0  0
 27 28  1  0  0  0  0
 28 29  1  0  0  0  0
  1 30  1  0  0  0  0
  1 31  1  0  0  0  0
  1 32  1  0  0  0  0
  4 33  1  0  0  0  0
  5 34  1  0  0  0  0
 11 35  1  0  0  0  0
 11 36  1  0  0  0  0
 13 37  1  0  0  0  0
 14 38  1  0  0  0  0
 18 39  1  0  0  0  0
 19 40  1  0  0  0  0
 22 41  1  0  0  0  0
 23 42  1  0  0  0  0
 25 43  1  0  0  0  0
 26 44  1  0  0  0  0
 26 45  1  0  0  0  0
 29 46  1  0  0  0  0
 29 47  1  0  0  0  0
 29 48  1  0  0  0  0
M  END
> <IC50[nM]>
8.6

$$$$
CHEMBL3265020
  -OEChem-05192314333D
 Structure written by MMmdl.
 48 52  0     1  0  0  0  0  0999 V2000
   -4.2567   -3.1041   13.5694 C   0  0  0  0  0  0  0  0  0  0  0  0
   -3.8737   -2.3598   14.7157 O   0  0  0  0  0  0  0  0  0  0  0  0
   -2.5259   -2.1106   14.8172 C   0  0  3  0  0  0  0  0  0  0  0  0
   -1.7455   -2.8698   15.6821 C   0  0  0  0  0  0  0  0  0  0  0  0
   -0.3904   -2.6103   15.8138 C   0  0  0  0  0  0  0  0  0  0  0  0
    0.2204   -1.5845   15.0865 C   0  0  0  0  0  0  0  0  0  0  0  0
    1.6043   -1.3599   15.3203 N   0  0  0  0  0  0  0  0  0  0  0  0
    2.5377   -0.4463   14.7588 C   0  0  0  0  0  0  0  0  0  0  0  0
    2.1842    0.3709   13.7215 N   0  0  0  0  0  0  0  0  0  0  0  0
    3.1172    1.2388   13.2173 C   0  0  0  0  0  0  0  0  0  0  0  0
    4.4204    1.2848   13.7037 C   0  0  0  0  0  0  0  0  0  0  0  0
    4.7469    0.4890   14.7614 N   0  0  0  0  0  0  0  0  0  0  0  0
    5.8976    0.3763   15.4868 C   0  0  0  0  0  0  0  0  0  0  0  0
    5.5864   -0.5217   16.5304 C   0  0  0  0  0  0  0  0  0  0  0  0
    4.3754   -1.0422   16.3738 N   0  0  0  0  0  0  0  0  0  0  0  0
    3.8369   -0.3917   15.3265 C   0  0  0  0  0  0  0  0  0  0  0  0
    2.6436    2.1633   12.1173 C   0  0  0  0  0  0  0  0  0  0  0  0
    3.5480    2.6409   11.1599 C   0  0  0  0  0  0  0  0  0  0  0  0
    3.1566    3.4683   10.0981 C   0  0  0  0  0  0  0  0  0  0  0  0
    1.8094    3.8079   10.0262 C   0  0  0  0  0  0  0  0  0  0  0  0
    1.1129    4.5678    9.1158 N   0  0  0  0  0  0  0  0  0  0  0  0
   -0.1959    4.6369    9.4439 C   0  0  0  0  0  0  0  0  0  0  0  0
   -0.4233    3.9255   10.6079 C   0  0  0  0  0  0  0  0  0  0  0  0
    0.8581    3.3610   11.0052 C   0  0  3  0  0  0  0  0  0  0  0  0
    1.2923    2.5453   12.0556 C   0  0  0  0  0  0  0  0  0  0  0  0
   -0.5553   -0.8190   14.1924 C   0  0  0  0  0  0  0  0  0  0  0  0
   -1.9451   -1.0886   14.0616 C   0  0  0  0  0  0  0  0  0  0  0  0
   -2.7542   -0.3572   13.2046 O   0  0  0  0  0  0  0  0  0  0  0  0
   -2.2337    0.6443   12.3523 C   0  0  0  0  0  0  0  0  0  0  0  0
   -5.3466   -3.2526   13.5753 H   0  0  0  0  0  0  0  0  0  0  0  0
   -3.9666   -2.5545   12.6618 H   0  0  0  0  0  0  0  0  0  0  0  0
   -3.7535   -4.0821   13.5824 H   0  0  0  0  0  0  0  0  0  0  0  0
   -2.3291   -2.8267   14.0058 H   0  0  0  0  0  0  0  0  0  0  0  0
   -2.1978   -3.6662   16.2545 H   0  0  0  0  0  0  0  0  0  0  0  0
    0.2027   -3.2097   16.4886 H   0  0  0  0  0  0  0  0  0  0  0  0
    5.1556    1.9355   13.2539 H   0  0  0  0  0  0  0  0  0  0  0  0
    6.8415    0.8677   15.3023 H   0  0  0  0  0  0  0  0  0  0  0  0
    6.2486   -0.7553   17.3510 H   0  0  0  0  0  0  0  0  0  0  0  0
    4.5877    2.3606   11.2431 H   0  0  0  0  0  0  0  0  0  0  0  0
    3.8686    3.8259    9.3690 H   0  0  0  0  0  0  0  0  0  0  0  0
   -0.9504    5.1675    8.8821 H   0  0  0  0  0  0  0  0  0  0  0  0
   -1.3666    3.8112   11.1213 H   0  0  0  0  0  0  0  0  0  0  0  0
    1.0636    4.2543   11.6133 H   0  0  0  0  0  0  0  0  0  0  0  0
    0.5963    2.2125   12.8114 H   0  0  0  0  0  0  0  0  0  0  0  0
   -0.0969   -0.0330   13.6106 H   0  0  0  0  0  0  0  0  0  0  0  0
   -3.0515    1.0894   11.7666 H   0  0  0  0  0  0  0  0  0  0  0  0
   -1.7491    1.4248   12.9572 H   0  0  0  0  0  0  0  0  0  0  0  0
   -1.4953    0.1977   11.6702 H   0  0  0  0  0  0  0  0  0  0  0  0
  1  2  1  0  0  0  0
  2  3  1  0  0  0  0
  3  4  1  0  0  0  0
  3 27  1  0  0  0  0
  4  5  2  0  0  0  0
  5  6  1  0  0  0  0
  6  7  2  0  0  0  0
  6 26  1  0  0  0  0
  7  8  1  0  0  0  0
  8  9  2  0  0  0  0
  8 16  1  0  0  0  0
  9 10  1  0  0  0  0
 10 11  2  0  0  0  0
 10 17  1  0  0  0  0
 11 12  1  0  0  0  0
 12 13  1  0  0  0  0
 12 16  1  0  0  0  0
 13 14  2  0  0  0  0
 14 15  1  0  0  0  0
 15 16  2  0  0  0  0
 17 18  1  0  0  0  0
 17 25  2  0  0  0  0
 18 19  2  0  0  0  0
 19 20  1  0  0  0  0
 20 21  2  0  0  0  0
 20 24  1  0  0  0  0
 21 22  1  0  0  0  0
 22 23  2  0  0  0  0
 23 24  1  0  0  0  0
 24 25  1  0  0  0  0
 26 27  2  0  0  0  0
 27 28  1  0  0  0  0
 28 29  1  0  0  0  0
  1 30  1  0  0  0  0
  1 31  1  0  0  0  0
  1 32  1  0  0  0  0
  3 33  1  0  0  0  0
  4 34  1  0  0  0  0
  5 35  1  0  0  0  0
 11 36  1  0  0  0  0
 13 37  1  0  0  0  0
 14 38  1  0  0  0  0
 18 39  1  0  0  0  0
 19 40  1  0  0  0  0
 22 41  1  0  0  0  0
 23 42  1  0  0  0  0
 24 43  1  0  0  0  0
 25 44  1  0  0  0  0
 26 45  1  0  0  0  0
 29 46  1  0  0  0  0
 29 47  1  0  0  0  0
 29 48  1  0  0  0  0
M  END
> <IC50[nM]>
8.6

$$$$
CHEMBL3265020
  -OEChem-05192314333D
 Structure written by MMmdl.
 48 52  0     1  0  0  0  0  0999 V2000
   -4.2567   -3.1041   13.5694 C   0  0  0  0  0  0  0  0  0  0  0  0
   -3.8737   -2.3598   14.7157 O   0  0  0  0  0  0  0  0  0  0  0  0
   -2.5259   -2.1106   14.8172 C   0  0  3  0  0  0  0  0  0  0  0  0
   -1.7455   -2.8698   15.6821 C   0  0  0  0  0  0  0  0  0  0  0  0
   -0.3904   -2.6103   15.8138 C   0  0  0  0  0  0  0  0  0  0  0  0
    0.2204   -1.5845   15.0865 C   0  0  0  0  0  0  0  0  0  0  0  0
    1.6043   -1.3599   15.3203 N   0  0  0  0  0  0  0  0  0  0  0  0
    2.5377   -0.4463   14.7588 C   0  0  0  0  0  0  0  0  0  0  0  0
    2.1842    0.3709   13.7215 N   0  0  0  0  0  0  0  0  0  0  0  0
    3.1172    1.2388   13.2173 C   0  0  0  0  0  0  0  0  0  0  0  0
    4.4204    1.2848   13.7037 C   0  0  0  0  0  0  0  0  0  0  0  0
    4.7469    0.4890   14.7614 N   0  0  0  0  0  0  0  0  0  0  0  0
    5.8976    0.3763   15.4868 C   0  0  0  0  0  0  0  0  0  0  0  0
    5.5864   -0.5217   16.5304 C   0  0  0  0  0  0  0  0  0  0  0  0
    4.3754   -1.0422   16.3738 N   0  0  0  0  0  0  0  0  0  0  0  0
    3.8369   -0.3917   15.3265 C   0  0  0  0  0  0  0  0  0  0  0  0
    2.6436    2.1633   12.1173 C   0  0  3  0  0  0  0  0  0  0  0  0
    3.5480    2.6409   11.1599 C   0  0  0  0  0  0  0  0  0  0  0  0
    3.1566    3.4683   10.0981 C   0  0  0  0  0  0  0  0  0  0  0  0
    1.8094    3.8079   10.0262 C   0  0  0  0  0  0  0  0  0  0  0  0
    1.1129    4.5678    9.1158 N   0  0  0  0  0  0  0  0  0  0  0  0
   -0.1959    4.6369    9.4439 C   0  0  0  0  0  0  0  0  0  0  0  0
   -0.4233    3.9255   10.6079 C   0  0  0  0  0  0  0  0  0  0  0  0
    0.8581    3.3610   11.0052 C   0  0  0  0  0  0  0  0  0  0  0  0
    1.2923    2.5453   12.0556 C   0  0  0  0  0  0  0  0  0  0  0  0
   -0.5553   -0.8190   14.1924 C   0  0  0  0  0  0  0  0  0  0  0  0
   -1.9451   -1.0886   14.0616 C   0  0  0  0  0  0  0  0  0  0  0  0
   -2.7542   -0.3572   13.2046 O   0  0  0  0  0  0  0  0  0  0  0  0
   -2.2337    0.6443   12.3523 C   0  0  0  0  0  0  0  0  0  0  0  0
   -5.3466   -3.2526   13.5753 H   0  0  0  0  0  0  0  0  0  0  0  0
   -3.9666   -2.5545   12.6618 H   0  0  0  0  0  0  0  0  0  0  0  0
   -3.7535   -4.0821   13.5824 H   0  0  0  0  0  0  0  0  0  0  0  0
   -2.3291   -2.8267   14.0058 H   0  0  0  0  0  0  0  0  0  0  0  0
   -2.1978   -3.6662   16.2545 H   0  0  0  0  0  0  0  0  0  0  0  0
    0.2027   -3.2097   16.4886 H   0  0  0  0  0  0  0  0  0  0  0  0
    5.1556    1.9355   13.2539 H   0  0  0  0  0  0  0  0  0  0  0  0
    6.8415    0.8677   15.3023 H   0  0  0  0  0  0  0  0  0  0  0  0
    6.2486   -0.7553   17.3510 H   0  0  0  0  0  0  0  0  0  0  0  0
    2.4271    1.2937   11.4794 H   0  0  0  0  0  0  0  0  0  0  0  0
    4.5877    2.3606   11.2431 H   0  0  0  0  0  0  0  0  0  0  0  0
    3.8686    3.8259    9.3690 H   0  0  0  0  0  0  0  0  0  0  0  0
   -0.9504    5.1675    8.8821 H   0  0  0  0  0  0  0  0  0  0  0  0
   -1.3666    3.8112   11.1213 H   0  0  0  0  0  0  0  0  0  0  0  0
    0.5963    2.2125   12.8114 H   0  0  0  0  0  0  0  0  0  0  0  0
   -0.0969   -0.0330   13.6106 H   0  0  0  0  0  0  0  0  0  0  0  0
   -3.0515    1.0894   11.7666 H   0  0  0  0  0  0  0  0  0  0  0  0
   -1.7491    1.4248   12.9572 H   0  0  0  0  0  0  0  0  0  0  0  0
   -1.4953    0.1977   11.6702 H   0  0  0  0  0  0  0  0  0  0  0  0
  1  2  1  0  0  0  0
  2  3  1  0  0  0  0
  3  4  1  0  0  0  0
  3 27  1  0  0  0  0
  4  5  2  0  0  0  0
  5  6  1  0  0  0  0
  6  7  2  0  0  0  0
  6 26  1  0  0  0  0
  7  8  1  0  0  0  0
  8  9  2  0  0  0  0
  8 16  1  0  0  0  0
  9 10  1  0  0  0  0
 10 11  2  0  0  0  0
 10 17  1  0  0  0  0
 11 12  1  0  0  0  0
 12 13  1  0  0  0  0
 12 16  1  0  0  0  0
 13 14  2  0  0  0  0
 14 15  1  0  0  0  0
 15 16  2  0  0  0  0
 17 18  1  0  0  0  0
 17 25  1  0  0  0  0
 18 19  2  0  0  0  0
 19 20  1  0  0  0  0
 20 21  2  0  0  0  0
 20 24  1  0  0  0  0
 21 22  1  0  0  0  0
 22 23  2  0  0  0  0
 23 24  1  0  0  0  0
 24 25  2  0  0  0  0
 26 27  2  0  0  0  0
 27 28  1  0  0  0  0
 28 29  1  0  0  0  0
  1 30  1  0  0  0  0
  1 31  1  0  0  0  0
  1 32  1  0  0  0  0
  3 33  1  0  0  0  0
  4 34  1  0  0  0  0
  5 35  1  0  0  0  0
 11 36  1  0  0  0  0
 13 37  1  0  0  0  0
 14 38  1  0  0  0  0
 17 39  1  0  0  0  0
 18 40  1  0  0  0  0
 19 41  1  0  0  0  0
 22 42  1  0  0  0  0
 23 43  1  0  0  0  0
 25 44  1  0  0  0  0
 26 45  1  0  0  0  0
 29 46  1  0  0  0  0
 29 47  1  0  0  0  0
 29 48  1  0  0  0  0
M  END
> <IC50[nM]>
8.6

$$$$
CHEMBL3265020
  -OEChem-05192314333D
 Structure written by MMmdl.
 48 52  0     1  0  0  0  0  0999 V2000
   -4.2567   -3.1041   13.5694 C   0  0  0  0  0  0  0  0  0  0  0  0
   -3.8737   -2.3598   14.7157 O   0  0  0  0  0  0  0  0  0  0  0  0
   -2.5259   -2.1106   14.8172 C   0  0  3  0  0  0  0  0  0  0  0  0
   -1.7455   -2.8698   15.6821 C   0  0  0  0  0  0  0  0  0  0  0  0
   -0.3904   -2.6103   15.8138 C   0  0  0  0  0  0  0  0  0  0  0  0
    0.2204   -1.5845   15.0865 C   0  0  0  0  0  0  0  0  0  0  0  0
    1.6043   -1.3599   15.3203 N   0  0  0  0  0  0  0  0  0  0  0  0
    2.5377   -0.4463   14.7588 C   0  0  0  0  0  0  0  0  0  0  0  0
    2.1842    0.3709   13.7215 N   0  0  0  0  0  0  0  0  0  0  0  0
    3.1172    1.2388   13.2173 C   0  0  0  0  0  0  0  0  0  0  0  0
    4.4204    1.2848   13.7037 C   0  0  0  0  0  0  0  0  0  0  0  0
    4.7469    0.4890   14.7614 N   0  0  0  0  0  0  0  0  0  0  0  0
    5.8976    0.3763   15.4868 C   0  0  0  0  0  0  0  0  0  0  0  0
    5.5864   -0.5217   16.5304 C   0  0  0  0  0  0  0  0  0  0  0  0
    4.3754   -1.0422   16.3738 N   0  0  0  0  0  0  0  0  0  0  0  0
    3.8369   -0.3917   15.3265 C   0  0  0  0  0  0  0  0  0  0  0  0
    2.6436    2.1633   12.1173 C   0  0  0  0  0  0  0  0  0  0  0  0
    3.5480    2.6409   11.1599 C   0  0  0  0  0  0  0  0  0  0  0  0
    3.1566    3.4683   10.0981 C   0  0  0  0  0  0  0  0  0  0  0  0
    1.8094    3.8079   10.0262 C   0  0  3  0  0  0  0  0  0  0  0  0
    1.1129    4.5678    9.1158 N   0  0  0  0  0  0  0  0  0  0  0  0
   -0.1959    4.6369    9.4439 C   0  0  0  0  0  0  0  0  0  0  0  0
   -0.4233    3.9255   10.6079 C   0  0  0  0  0  0  0  0  0  0  0  0
    0.8581    3.3610   11.0052 C   0  0  0  0  0  0  0  0  0  0  0  0
    1.2923    2.5453   12.0556 C   0  0  0  0  0  0  0  0  0  0  0  0
   -0.5553   -0.8190   14.1924 C   0  0  0  0  0  0  0  0  0  0  0  0
   -1.9451   -1.0886   14.0616 C   0  0  0  0  0  0  0  0  0  0  0  0
   -2.7542   -0.3572   13.2046 O   0  0  0  0  0  0  0  0  0  0  0  0
   -2.2337    0.6443   12.3523 C   0  0  0  0  0  0  0  0  0  0  0  0
   -5.3466   -3.2526   13.5753 H   0  0  0  0  0  0  0  0  0  0  0  0
   -3.9666   -2.5545   12.6618 H   0  0  0  0  0  0  0  0  0  0  0  0
   -3.7535   -4.0821   13.5824 H   0  0  0  0  0  0  0  0  0  0  0  0
   -2.3291   -2.8267   14.0058 H   0  0  0  0  0  0  0  0  0  0  0  0
   -2.1978   -3.6662   16.2545 H   0  0  0  0  0  0  0  0  0  0  0  0
    0.2027   -3.2097   16.4886 H   0  0  0  0  0  0  0  0  0  0  0  0
    5.1556    1.9355   13.2539 H   0  0  0  0  0  0  0  0  0  0  0  0
    6.8415    0.8677   15.3023 H   0  0  0  0  0  0  0  0  0  0  0  0
    6.2486   -0.7553   17.3510 H   0  0  0  0  0  0  0  0  0  0  0  0
    4.5877    2.3606   11.2431 H   0  0  0  0  0  0  0  0  0  0  0  0
    3.8686    3.8259    9.3690 H   0  0  0  0  0  0  0  0  0  0  0  0
    1.6141    2.9077    9.4249 H   0  0  0  0  0  0  0  0  0  0  0  0
   -0.9504    5.1675    8.8821 H   0  0  0  0  0  0  0  0  0  0  0  0
   -1.3666    3.8112   11.1213 H   0  0  0  0  0  0  0  0  0  0  0  0
    0.5963    2.2125   12.8114 H   0  0  0  0  0  0  0  0  0  0  0  0
   -0.0969   -0.0330   13.6106 H   0  0  0  0  0  0  0  0  0  0  0  0
   -3.0515    1.0894   11.7666 H   0  0  0  0  0  0  0  0  0  0  0  0
   -1.7491    1.4248   12.9572 H   0  0  0  0  0  0  0  0  0  0  0  0
   -1.4953    0.1977   11.6702 H   0  0  0  0  0  0  0  0  0  0  0  0
  1  2  1  0  0  0  0
  2  3  1  0  0  0  0
  3  4  1  0  0  0  0
  3 27  1  0  0  0  0
  4  5  2  0  0  0  0
  5  6  1  0  0  0  0
  6  7  2  0  0  0  0
  6 26  1  0  0  0  0
  7  8  1  0  0  0  0
  8  9  2  0  0  0  0
  8 16  1  0  0  0  0
  9 10  1  0  0  0  0
 10 11  2  0  0  0  0
 10 17  1  0  0  0  0
 11 12  1  0  0  0  0
 12 13  1  0  0  0  0
 12 16  1  0  0  0  0
 13 14  2  0  0  0  0
 14 15  1  0  0  0  0
 15 16  2  0  0  0  0
 17 18  1  0  0  0  0
 17 25  2  0  0  0  0
 18 19  2  0  0  0  0
 19 20  1  0  0  0  0
 20 21  1  0  0  0  0
 20 24  1  0  0  0  0
 21 22  2  0  0  0  0
 22 23  1  0  0  0  0
 23 24  2  0  0  0  0
 24 25  1  0  0  0  0
 26 27  2  0  0  0  0
 27 28  1  0  0  0  0
 28 29  1  0  0  0  0
  1 30  1  0  0  0  0
  1 31  1  0  0  0  0
  1 32  1  0  0  0  0
  3 33  1  0  0  0  0
  4 34  1  0  0  0  0
  5 35  1  0  0  0  0
 11 36  1  0  0  0  0
 13 37  1  0  0  0  0
 14 38  1  0  0  0  0
 18 39  1  0  0  0  0
 19 40  1  0  0  0  0
 20 41  1  0  0  0  0
 22 42  1  0  0  0  0
 23 43  1  0  0  0  0
 25 44  1  0  0  0  0
 26 45  1  0  0  0  0
 29 46  1  0  0  0  0
 29 47  1  0  0  0  0
 29 48  1  0  0  0  0
M  END
> <IC50[nM]>
8.6

$$$$
CHEMBL3265020
  -OEChem-05192314333D
 Structure written by MMmdl.
 48 52  0     1  0  0  0  0  0999 V2000
   -4.2567   -3.1041   13.5694 C   0  0  0  0  0  0  0  0  0  0  0  0
   -3.8737   -2.3598   14.7157 O   0  0  0  0  0  0  0  0  0  0  0  0
   -2.5259   -2.1106   14.8172 C   0  0  3  0  0  0  0  0  0  0  0  0
   -1.7455   -2.8698   15.6821 C   0  0  0  0  0  0  0  0  0  0  0  0
   -0.3904   -2.6103   15.8138 C   0  0  0  0  0  0  0  0  0  0  0  0
    0.2204   -1.5845   15.0865 C   0  0  0  0  0  0  0  0  0  0  0  0
    1.6043   -1.3599   15.3203 N   0  0  0  0  0  0  0  0  0  0  0  0
    2.5377   -0.4463   14.7588 C   0  0  0  0  0  0  0  0  0  0  0  0
    2.1842    0.3709   13.7215 N   0  0  0  0  0  0  0  0  0  0  0  0
    3.1172    1.2388   13.2173 C   0  0  0  0  0  0  0  0  0  0  0  0
    4.4204    1.2848   13.7037 C   0  0  0  0  0  0  0  0  0  0  0  0
    4.7469    0.4890   14.7614 N   0  0  0  0  0  0  0  0  0  0  0  0
    5.8976    0.3763   15.4868 C   0  0  0  0  0  0  0  0  0  0  0  0
    5.5864   -0.5217   16.5304 C   0  0  0  0  0  0  0  0  0  0  0  0
    4.3754   -1.0422   16.3738 N   0  0  0  0  0  0  0  0  0  0  0  0
    3.8369   -0.3917   15.3265 C   0  0  0  0  0  0  0  0  0  0  0  0
    2.6436    2.1633   12.1173 C   0  0  0  0  0  0  0  0  0  0  0  0
    3.5480    2.6409   11.1599 C   0  0  0  0  0  0  0  0  0  0  0  0
    3.1566    3.4683   10.0981 C   0  0  0  0  0  0  0  0  0  0  0  0
    1.8094    3.8079   10.0262 C   0  0  0  0  0  0  0  0  0  0  0  0
    1.1129    4.5678    9.1158 N   0  0  0  0  0  0  0  0  0  0  0  0
   -0.1959    4.6369    9.4439 C   0  0  0  0  0  0  0  0  0  0  0  0
   -0.4233    3.9255   10.6079 C   0  0  0  0  0  0  0  0  0  0  0  0
    0.8581    3.3610   11.0052 C   0  0  0  0  0  0  0  0  0  0  0  0
    1.2923    2.5453   12.0556 C   0  0  0  0  0  0  0  0  0  0  0  0
   -0.5553   -0.8190   14.1924 C   0  0  0  0  0  0  0  0  0  0  0  0
   -1.9451   -1.0886   14.0616 C   0  0  0  0  0  0  0  0  0  0  0  0
   -2.7542   -0.3572   13.2046 O   0  0  0  0  0  0  0  0  0  0  0  0
   -2.2337    0.6443   12.3523 C   0  0  0  0  0  0  0  0  0  0  0  0
   -5.3466   -3.2526   13.5753 H   0  0  0  0  0  0  0  0  0  0  0  0
   -3.9666   -2.5545   12.6618 H   0  0  0  0  0  0  0  0  0  0  0  0
   -3.7535   -4.0821   13.5824 H   0  0  0  0  0  0  0  0  0  0  0  0
   -2.3291   -2.8267   14.0058 H   0  0  0  0  0  0  0  0  0  0  0  0
   -2.1978   -3.6662   16.2545 H   0  0  0  0  0  0  0  0  0  0  0  0
    0.2027   -3.2097   16.4886 H   0  0  0  0  0  0  0  0  0  0  0  0
    5.1556    1.9355   13.2539 H   0  0  0  0  0  0  0  0  0  0  0  0
    6.8415    0.8677   15.3023 H   0  0  0  0  0  0  0  0  0  0  0  0
    6.2486   -0.7553   17.3510 H   0  0  0  0  0  0  0  0  0  0  0  0
    4.5877    2.3606   11.2431 H   0  0  0  0  0  0  0  0  0  0  0  0
    3.7309    4.4032   10.1767 H   0  0  0  0  0  0  0  0  0  0  0  0
    3.4197    2.9539    9.1620 H   0  0  0  0  0  0  0  0  0  0  0  0
   -0.9504    5.1675    8.8821 H   0  0  0  0  0  0  0  0  0  0  0  0
   -1.3666    3.8112   11.1213 H   0  0  0  0  0  0  0  0  0  0  0  0
    0.5963    2.2125   12.8114 H   0  0  0  0  0  0  0  0  0  0  0  0
   -0.0969   -0.0330   13.6106 H   0  0  0  0  0  0  0  0  0  0  0  0
   -3.0515    1.0894   11.7666 H   0  0  0  0  0  0  0  0  0  0  0  0
   -1.7491    1.4248   12.9572 H   0  0  0  0  0  0  0  0  0  0  0  0
   -1.4953    0.1977   11.6702 H   0  0  0  0  0  0  0  0  0  0  0  0
  1  2  1  0  0  0  0
  2  3  1  0  0  0  0
  3  4  1  0  0  0  0
  3 27  1  0  0  0  0
  4  5  2  0  0  0  0
  5  6  1  0  0  0  0
  6  7  2  0  0  0  0
  6 26  1  0  0  0  0
  7  8  1  0  0  0  0
  8  9  2  0  0  0  0
  8 16  1  0  0  0  0
  9 10  1  0  0  0  0
 10 11  2  0  0  0  0
 10 17  1  0  0  0  0
 11 12  1  0  0  0  0
 12 13  1  0  0  0  0
 12 16  1  0  0  0  0
 13 14  2  0  0  0  0
 14 15  1  0  0  0  0
 15 16  2  0  0  0  0
 17 18  2  0  0  0  0
 17 25  1  0  0  0  0
 18 19  1  0  0  0  0
 19 20  1  0  0  0  0
 20 21  2  0  0  0  0
 20 24  1  0  0  0  0
 21 22  1  0  0  0  0
 22 23  2  0  0  0  0
 23 24  1  0  0  0  0
 24 25  2  0  0  0  0
 26 27  2  0  0  0  0
 27 28  1  0  0  0  0
 28 29  1  0  0  0  0
  1 30  1  0  0  0  0
  1 31  1  0  0  0  0
  1 32  1  0  0  0  0
  3 33  1  0  0  0  0
  4 34  1  0  0  0  0
  5 35  1  0  0  0  0
 11 36  1  0  0  0  0
 13 37  1  0  0  0  0
 14 38  1  0  0  0  0
 18 39  1  0  0  0  0
 19 40  1  0  0  0  0
 19 41  1  0  0  0  0
 22 42  1  0  0  0  0
 23 43  1  0  0  0  0
 25 44  1  0  0  0  0
 26 45  1  0  0  0  0
 29 46  1  0  0  0  0
 29 47  1  0  0  0  0
 29 48  1  0  0  0  0
M  END
> <IC50[nM]>
8.6

$$$$
CHEMBL3265020
  -OEChem-05192314333D
 Structure written by MMmdl.
 48 52  0     1  0  0  0  0  0999 V2000
   -4.2567   -3.1041   13.5694 C   0  0  0  0  0  0  0  0  0  0  0  0
   -3.8737   -2.3598   14.7157 O   0  0  0  0  0  0  0  0  0  0  0  0
   -2.5259   -2.1106   14.8172 C   0  0  0  0  0  0  0  0  0  0  0  0
   -1.7455   -2.8698   15.6821 C   0  0  0  0  0  0  0  0  0  0  0  0
   -0.3904   -2.6103   15.8138 C   0  0  0  0  0  0  0  0  0  0  0  0
    0.2204   -1.5845   15.0865 C   0  0  0  0  0  0  0  0  0  0  0  0
    1.6043   -1.3599   15.3203 N   0  0  0  0  0  0  0  0  0  0  0  0
    2.5377   -0.4463   14.7588 C   0  0  0  0  0  0  0  0  0  0  0  0
    2.1842    0.3709   13.7215 N   0  0  0  0  0  0  0  0  0  0  0  0
    3.1172    1.2388   13.2173 C   0  0  0  0  0  0  0  0  0  0  0  0
    4.4204    1.2848   13.7037 C   0  0  0  0  0  0  0  0  0  0  0  0
    4.7469    0.4890   14.7614 N   0  0  0  0  0  0  0  0  0  0  0  0
    5.8976    0.3763   15.4868 C   0  0  0  0  0  0  0  0  0  0  0  0
    5.5864   -0.5217   16.5304 C   0  0  0  0  0  0  0  0  0  0  0  0
    4.3754   -1.0422   16.3738 N   0  0  0  0  0  0  0  0  0  0  0  0
    3.8369   -0.3917   15.3265 C   0  0  0  0  0  0  0  0  0  0  0  0
    2.6436    2.1633   12.1173 C   0  0  0  0  0  0  0  0  0  0  0  0
    3.5480    2.6409   11.1599 C   0  0  0  0  0  0  0  0  0  0  0  0
    3.1566    3.4683   10.0981 C   0  0  0  0  0  0  0  0  0  0  0  0
    1.8094    3.8079   10.0262 C   0  0  0  0  0  0  0  0  0  0  0  0
    1.1129    4.5678    9.1158 N   0  0  0  0  0  0  0  0  0  0  0  0
   -0.1959    4.6369    9.4439 C   0  0  0  0  0  0  0  0  0  0  0  0
   -0.4233    3.9255   10.6079 C   0  0  0  0  0  0  0  0  0  0  0  0
    0.8581    3.3610   11.0052 C   0  0  3  0  0  0  0  0  0  0  0  0
    1.2923    2.5453   12.0556 C   0  0  0  0  0  0  0  0  0  0  0  0
   -0.5553   -0.8190   14.1924 C   0  0  0  0  0  0  0  0  0  0  0  0
   -1.9451   -1.0886   14.0616 C   0  0  0  0  0  0  0  0  0  0  0  0
   -2.7542   -0.3572   13.2046 O   0  0  0  0  0  0  0  0  0  0  0  0
   -2.2337    0.6443   12.3523 C   0  0  0  0  0  0  0  0  0  0  0  0
   -5.3466   -3.2526   13.5753 H   0  0  0  0  0  0  0  0  0  0  0  0
   -3.9666   -2.5545   12.6618 H   0  0  0  0  0  0  0  0  0  0  0  0
   -3.7535   -4.0821   13.5824 H   0  0  0  0  0  0  0  0  0  0  0  0
   -2.1978   -3.6662   16.2545 H   0  0  0  0  0  0  0  0  0  0  0  0
   -0.2168   -2.3863   16.8767 H   0  0  0  0  0  0  0  0  0  0  0  0
    0.1335   -3.5393   15.5446 H   0  0  0  0  0  0  0  0  0  0  0  0
    5.1556    1.9355   13.2539 H   0  0  0  0  0  0  0  0  0  0  0  0
    6.8415    0.8677   15.3023 H   0  0  0  0  0  0  0  0  0  0  0  0
    6.2486   -0.7553   17.3510 H   0  0  0  0  0  0  0  0  0  0  0  0
    4.5877    2.3606   11.2431 H   0  0  0  0  0  0  0  0  0  0  0  0
    3.8686    3.8259    9.3690 H   0  0  0  0  0  0  0  0  0  0  0  0
   -0.9504    5.1675    8.8821 H   0  0  0  0  0  0  0  0  0  0  0  0
   -1.3666    3.8112   11.1213 H   0  0  0  0  0  0  0  0  0  0  0  0
    1.0636    4.2543   11.6133 H   0  0  0  0  0  0  0  0  0  0  0  0
    0.5963    2.2125   12.8114 H   0  0  0  0  0  0  0  0  0  0  0  0
   -0.0969   -0.0330   13.6106 H   0  0  0  0  0  0  0  0  0  0  0  0
   -3.0515    1.0894   11.7666 H   0  0  0  0  0  0  0  0  0  0  0  0
   -1.7491    1.4248   12.9572 H   0  0  0  0  0  0  0  0  0  0  0  0
   -1.4953    0.1977   11.6702 H   0  0  0  0  0  0  0  0  0  0  0  0
  1  2  1  0  0  0  0
  2  3  1  0  0  0  0
  3  4  2  0  0  0  0
  3 27  1  0  0  0  0
  4  5  1  0  0  0  0
  5  6  1  0  0  0  0
  6  7  2  0  0  0  0
  6 26  1  0  0  0  0
  7  8  1  0  0  0  0
  8  9  2  0  0  0  0
  8 16  1  0  0  0  0
  9 10  1  0  0  0  0
 10 11  2  0  0  0  0
 10 17  1  0  0  0  0
 11 12  1  0  0  0  0
 12 13  1  0  0  0  0
 12 16  1  0  0  0  0
 13 14  2  0  0  0  0
 14 15  1  0  0  0  0
 15 16  2  0  0  0  0
 17 18  1  0  0  0  0
 17 25  2  0  0  0  0
 18 19  2  0  0  0  0
 19 20  1  0  0  0  0
 20 21  2  0  0  0  0
 20 24  1  0  0  0  0
 21 22  1  0  0  0  0
 22 23  2  0  0  0  0
 23 24  1  0  0  0  0
 24 25  1  0  0  0  0
 26 27  2  0  0  0  0
 27 28  1  0  0  0  0
 28 29  1  0  0  0  0
  1 30  1  0  0  0  0
  1 31  1  0  0  0  0
  1 32  1  0  0  0  0
  4 33  1  0  0  0  0
  5 34  1  0  0  0  0
  5 35  1  0  0  0  0
 11 36  1  0  0  0  0
 13 37  1  0  0  0  0
 14 38  1  0  0  0  0
 18 39  1  0  0  0  0
 19 40  1  0  0  0  0
 22 41  1  0  0  0  0
 23 42  1  0  0  0  0
 24 43  1  0  0  0  0
 25 44  1  0  0  0  0
 26 45  1  0  0  0  0
 29 46  1  0  0  0  0
 29 47  1  0  0  0  0
 29 48  1  0  0  0  0
M  END
> <IC50[nM]>
8.6

$$$$
CHEMBL3265020
  -OEChem-05192314333D
 Structure written by MMmdl.
 48 52  0     1  0  0  0  0  0999 V2000
   -4.2567   -3.1041   13.5694 C   0  0  0  0  0  0  0  0  0  0  0  0
   -3.8737   -2.3598   14.7157 O   0  0  0  0  0  0  0  0  0  0  0  0
   -2.5259   -2.1106   14.8172 C   0  0  0  0  0  0  0  0  0  0  0  0
   -1.7455   -2.8698   15.6821 C   0  0  0  0  0  0  0  0  0  0  0  0
   -0.3904   -2.6103   15.8138 C   0  0  0  0  0  0  0  0  0  0  0  0
    0.2204   -1.5845   15.0865 C   0  0  0  0  0  0  0  0  0  0  0  0
    1.6043   -1.3599   15.3203 N   0  0  0  0  0  0  0  0  0  0  0  0
    2.5377   -0.4463   14.7588 C   0  0  0  0  0  0  0  0  0  0  0  0
    2.1842    0.3709   13.7215 N   0  0  0  0  0  0  0  0  0  0  0  0
    3.1172    1.2388   13.2173 C   0  0  0  0  0  0  0  0  0  0  0  0
    4.4204    1.2848   13.7037 C   0  0  0  0  0  0  0  0  0  0  0  0
    4.7469    0.4890   14.7614 N   0  0  0  0  0  0  0  0  0  0  0  0
    5.8976    0.3763   15.4868 C   0  0  0  0  0  0  0  0  0  0  0  0
    5.5864   -0.5217   16.5304 C   0  0  0  0  0  0  0  0  0  0  0  0
    4.3754   -1.0422   16.3738 N   0  0  0  0  0  0  0  0  0  0  0  0
    3.8369   -0.3917   15.3265 C   0  0  0  0  0  0  0  0  0  0  0  0
    2.6436    2.1633   12.1173 C   0  0  3  0  0  0  0  0  0  0  0  0
    3.5480    2.6409   11.1599 C   0  0  0  0  0  0  0  0  0  0  0  0
    3.1566    3.4683   10.0981 C   0  0  0  0  0  0  0  0  0  0  0  0
    1.8094    3.8079   10.0262 C   0  0  0  0  0  0  0  0  0  0  0  0
    1.1129    4.5678    9.1158 N   0  0  0  0  0  0  0  0  0  0  0  0
   -0.1959    4.6369    9.4439 C   0  0  0  0  0  0  0  0  0  0  0  0
   -0.4233    3.9255   10.6079 C   0  0  0  0  0  0  0  0  0  0  0  0
    0.8581    3.3610   11.0052 C   0  0  0  0  0  0  0  0  0  0  0  0
    1.2923    2.5453   12.0556 C   0  0  0  0  0  0  0  0  0  0  0  0
   -0.5553   -0.8190   14.1924 C   0  0  0  0  0  0  0  0  0  0  0  0
   -1.9451   -1.0886   14.0616 C   0  0  0  0  0  0  0  0  0  0  0  0
   -2.7542   -0.3572   13.2046 O   0  0  0  0  0  0  0  0  0  0  0  0
   -2.2337    0.6443   12.3523 C   0  0  0  0  0  0  0  0  0  0  0  0
   -5.3466   -3.2526   13.5753 H   0  0  0  0  0  0  0  0  0  0  0  0
   -3.9666   -2.5545   12.6618 H   0  0  0  0  0  0  0  0  0  0  0  0
   -3.7535   -4.0821   13.5824 H   0  0  0  0  0  0  0  0  0  0  0  0
   -2.1978   -3.6662   16.2545 H   0  0  0  0  0  0  0  0  0  0  0  0
   -0.2168   -2.3863   16.8767 H   0  0  0  0  0  0  0  0  0  0  0  0
    0.1335   -3.5393   15.5446 H   0  0  0  0  0  0  0  0  0  0  0  0
    5.1556    1.9355   13.2539 H   0  0  0  0  0  0  0  0  0  0  0  0
    6.8415    0.8677   15.3023 H   0  0  0  0  0  0  0  0  0  0  0  0
    6.2486   -0.7553   17.3510 H   0  0  0  0  0  0  0  0  0  0  0  0
    2.4271    1.2937   11.4794 H   0  0  0  0  0  0  0  0  0  0  0  0
    4.5877    2.3606   11.2431 H   0  0  0  0  0  0  0  0  0  0  0  0
    3.8686    3.8259    9.3690 H   0  0  0  0  0  0  0  0  0  0  0  0
   -0.9504    5.1675    8.8821 H   0  0  0  0  0  0  0  0  0  0  0  0
   -1.3666    3.8112   11.1213 H   0  0  0  0  0  0  0  0  0  0  0  0
    0.5963    2.2125   12.8114 H   0  0  0  0  0  0  0  0  0  0  0  0
   -0.0969   -0.0330   13.6106 H   0  0  0  0  0  0  0  0  0  0  0  0
   -3.0515    1.0894   11.7666 H   0  0  0  0  0  0  0  0  0  0  0  0
   -1.7491    1.4248   12.9572 H   0  0  0  0  0  0  0  0  0  0  0  0
   -1.4953    0.1977   11.6702 H   0  0  0  0  0  0  0  0  0  0  0  0
  1  2  1  0  0  0  0
  2  3  1  0  0  0  0
  3  4  2  0  0  0  0
  3 27  1  0  0  0  0
  4  5  1  0  0  0  0
  5  6  1  0  0  0  0
  6  7  2  0  0  0  0
  6 26  1  0  0  0  0
  7  8  1  0  0  0  0
  8  9  2  0  0  0  0
  8 16  1  0  0  0  0
  9 10  1  0  0  0  0
 10 11  2  0  0  0  0
 10 17  1  0  0  0  0
 11 12  1  0  0  0  0
 12 13  1  0  0  0  0
 12 16  1  0  0  0  0
 13 14  2  0  0  0  0
 14 15  1  0  0  0  0
 15 16  2  0  0  0  0
 17 18  1  0  0  0  0
 17 25  1  0  0  0  0
 18 19  2  0  0  0  0
 19 20  1  0  0  0  0
 20 21  2  0  0  0  0
 20 24  1  0  0  0  0
 21 22  1  0  0  0  0
 22 23  2  0  0  0  0
 23 24  1  0  0  0  0
 24 25  2  0  0  0  0
 26 27  2  0  0  0  0
 27 28  1  0  0  0  0
 28 29  1  0  0  0  0
  1 30  1  0  0  0  0
  1 31  1  0  0  0  0
  1 32  1  0  0  0  0
  4 33  1  0  0  0  0
  5 34  1  0  0  0  0
  5 35  1  0  0  0  0
 11 36  1  0  0  0  0
 13 37  1  0  0  0  0
 14 38  1  0  0  0  0
 17 39  1  0  0  0  0
 18 40  1  0  0  0  0
 19 41  1  0  0  0  0
 22 42  1  0  0  0  0
 23 43  1  0  0  0  0
 25 44  1  0  0  0  0
 26 45  1  0  0  0  0
 29 46  1  0  0  0  0
 29 47  1  0  0  0  0
 29 48  1  0  0  0  0
M  END
> <IC50[nM]>
8.6

$$$$
CHEMBL3265020
  -OEChem-05192314333D
 Structure written by MMmdl.
 48 52  0     1  0  0  0  0  0999 V2000
   -4.2567   -3.1041   13.5694 C   0  0  0  0  0  0  0  0  0  0  0  0
   -3.8737   -2.3598   14.7157 O   0  0  0  0  0  0  0  0  0  0  0  0
   -2.5259   -2.1106   14.8172 C   0  0  0  0  0  0  0  0  0  0  0  0
   -1.7455   -2.8698   15.6821 C   0  0  0  0  0  0  0  0  0  0  0  0
   -0.3904   -2.6103   15.8138 C   0  0  0  0  0  0  0  0  0  0  0  0
    0.2204   -1.5845   15.0865 C   0  0  0  0  0  0  0  0  0  0  0  0
    1.6043   -1.3599   15.3203 N   0  0  0  0  0  0  0  0  0  0  0  0
    2.5377   -0.4463   14.7588 C   0  0  0  0  0  0  0  0  0  0  0  0
    2.1842    0.3709   13.7215 N   0  0  0  0  0  0  0  0  0  0  0  0
    3.1172    1.2388   13.2173 C   0  0  0  0  0  0  0  0  0  0  0  0
    4.4204    1.2848   13.7037 C   0  0  0  0  0  0  0  0  0  0  0  0
    4.7469    0.4890   14.7614 N   0  0  0  0  0  0  0  0  0  0  0  0
    5.8976    0.3763   15.4868 C   0  0  0  0  0  0  0  0  0  0  0  0
    5.5864   -0.5217   16.5304 C   0  0  0  0  0  0  0  0  0  0  0  0
    4.3754   -1.0422   16.3738 N   0  0  0  0  0  0  0  0  0  0  0  0
    3.8369   -0.3917   15.3265 C   0  0  0  0  0  0  0  0  0  0  0  0
    2.6436    2.1633   12.1173 C   0  0  0  0  0  0  0  0  0  0  0  0
    3.5480    2.6409   11.1599 C   0  0  0  0  0  0  0  0  0  0  0  0
    3.1566    3.4683   10.0981 C   0  0  0  0  0  0  0  0  0  0  0  0
    1.8094    3.8079   10.0262 C   0  0  3  0  0  0  0  0  0  0  0  0
    1.1129    4.5678    9.1158 N   0  0  0  0  0  0  0  0  0  0  0  0
   -0.1959    4.6369    9.4439 C   0  0  0  0  0  0  0  0  0  0  0  0
   -0.4233    3.9255   10.6079 C   0  0  0  0  0  0  0  0  0  0  0  0
    0.8581    3.3610   11.0052 C   0  0  0  0  0  0  0  0  0  0  0  0
    1.2923    2.5453   12.0556 C   0  0  0  0  0  0  0  0  0  0  0  0
   -0.5553   -0.8190   14.1924 C   0  0  0  0  0  0  0  0  0  0  0  0
   -1.9451   -1.0886   14.0616 C   0  0  0  0  0  0  0  0  0  0  0  0
   -2.7542   -0.3572   13.2046 O   0  0  0  0  0  0  0  0  0  0  0  0
   -2.2337    0.6443   12.3523 C   0  0  0  0  0  0  0  0  0  0  0  0
   -5.3466   -3.2526   13.5753 H   0  0  0  0  0  0  0  0  0  0  0  0
   -3.9666   -2.5545   12.6618 H   0  0  0  0  0  0  0  0  0  0  0  0
   -3.7535   -4.0821   13.5824 H   0  0  0  0  0  0  0  0  0  0  0  0
   -2.1978   -3.6662   16.2545 H   0  0  0  0  0  0  0  0  0  0  0  0
   -0.2168   -2.3863   16.8767 H   0  0  0  0  0  0  0  0  0  0  0  0
    0.1335   -3.5393   15.5446 H   0  0  0  0  0  0  0  0  0  0  0  0
    5.1556    1.9355   13.2539 H   0  0  0  0  0  0  0  0  0  0  0  0
    6.8415    0.8677   15.3023 H   0  0  0  0  0  0  0  0  0  0  0  0
    6.2486   -0.7553   17.3510 H   0  0  0  0  0  0  0  0  0  0  0  0
    4.5877    2.3606   11.2431 H   0  0  0  0  0  0  0  0  0  0  0  0
    3.8686    3.8259    9.3690 H   0  0  0  0  0  0  0  0  0  0  0  0
    1.6141    2.9077    9.4249 H   0  0  0  0  0  0  0  0  0  0  0  0
   -0.9504    5.1675    8.8821 H   0  0  0  0  0  0  0  0  0  0  0  0
   -1.3666    3.8112   11.1213 H   0  0  0  0  0  0  0  0  0  0  0  0
    0.5963    2.2125   12.8114 H   0  0  0  0  0  0  0  0  0  0  0  0
   -0.0969   -0.0330   13.6106 H   0  0  0  0  0  0  0  0  0  0  0  0
   -3.0515    1.0894   11.7666 H   0  0  0  0  0  0  0  0  0  0  0  0
   -1.7491    1.4248   12.9572 H   0  0  0  0  0  0  0  0  0  0  0  0
   -1.4953    0.1977   11.6702 H   0  0  0  0  0  0  0  0  0  0  0  0
  1  2  1  0  0  0  0
  2  3  1  0  0  0  0
  3  4  2  0  0  0  0
  3 27  1  0  0  0  0
  4  5  1  0  0  0  0
  5  6  1  0  0  0  0
  6  7  2  0  0  0  0
  6 26  1  0  0  0  0
  7  8  1  0  0  0  0
  8  9  2  0  0  0  0
  8 16  1  0  0  0  0
  9 10  1  0  0  0  0
 10 11  2  0  0  0  0
 10 17  1  0  0  0  0
 11 12  1  0  0  0  0
 12 13  1  0  0  0  0
 12 16  1  0  0  0  0
 13 14  2  0  0  0  0
 14 15  1  0  0  0  0
 15 16  2  0  0  0  0
 17 18  1  0  0  0  0
 17 25  2  0  0  0  0
 18 19  2  0  0  0  0
 19 20  1  0  0  0  0
 20 21  1  0  0  0  0
 20 24  1  0  0  0  0
 21 22  2  0  0  0  0
 22 23  1  0  0  0  0
 23 24  2  0  0  0  0
 24 25  1  0  0  0  0
 26 27  2  0  0  0  0
 27 28  1  0  0  0  0
 28 29  1  0  0  0  0
  1 30  1  0  0  0  0
  1 31  1  0  0  0  0
  1 32  1  0  0  0  0
  4 33  1  0  0  0  0
  5 34  1  0  0  0  0
  5 35  1  0  0  0  0
 11 36  1  0  0  0  0
 13 37  1  0  0  0  0
 14 38  1  0  0  0  0
 18 39  1  0  0  0  0
 19 40  1  0  0  0  0
 20 41  1  0  0  0  0
 22 42  1  0  0  0  0
 23 43  1  0  0  0  0
 25 44  1  0  0  0  0
 26 45  1  0  0  0  0
 29 46  1  0  0  0  0
 29 47  1  0  0  0  0
 29 48  1  0  0  0  0
M  END
> <IC50[nM]>
8.6

$$$$
CHEMBL3265020
  -OEChem-05192314333D
 Structure written by MMmdl.
 48 52  0     0  0  0  0  0  0999 V2000
   -4.2567   -3.1041   13.5694 C   0  0  0  0  0  0  0  0  0  0  0  0
   -3.8737   -2.3598   14.7157 O   0  0  0  0  0  0  0  0  0  0  0  0
   -2.5259   -2.1106   14.8172 C   0  0  0  0  0  0  0  0  0  0  0  0
   -1.7455   -2.8698   15.6821 C   0  0  0  0  0  0  0  0  0  0  0  0
   -0.3904   -2.6103   15.8138 C   0  0  0  0  0  0  0  0  0  0  0  0
    0.2204   -1.5845   15.0865 C   0  0  0  0  0  0  0  0  0  0  0  0
    1.6043   -1.3599   15.3203 N   0  0  0  0  0  0  0  0  0  0  0  0
    2.5377   -0.4463   14.7588 C   0  0  0  0  0  0  0  0  0  0  0  0
    2.1842    0.3709   13.7215 N   0  0  0  0  0  0  0  0  0  0  0  0
    3.1172    1.2388   13.2173 C   0  0  0  0  0  0  0  0  0  0  0  0
    4.4204    1.2848   13.7037 C   0  0  0  0  0  0  0  0  0  0  0  0
    4.7469    0.4890   14.7614 N   0  0  0  0  0  0  0  0  0  0  0  0
    5.8976    0.3763   15.4868 C   0  0  0  0  0  0  0  0  0  0  0  0
    5.5864   -0.5217   16.5304 C   0  0  0  0  0  0  0  0  0  0  0  0
    4.3754   -1.0422   16.3738 N   0  0  0  0  0  0  0  0  0  0  0  0
    3.8369   -0.3917   15.3265 C   0  0  0  0  0  0  0  0  0  0  0  0
    2.6436    2.1633   12.1173 C   0  0  0  0  0  0  0  0  0  0  0  0
    3.5480    2.6409   11.1599 C   0  0  0  0  0  0  0  0  0  0  0  0
    3.1566    3.4683   10.0981 C   0  0  0  0  0  0  0  0  0  0  0  0
    1.8094    3.8079   10.0262 C   0  0  0  0  0  0  0  0  0  0  0  0
    1.1129    4.5678    9.1158 N   0  0  0  0  0  0  0  0  0  0  0  0
   -0.1959    4.6369    9.4439 C   0  0  0  0  0  0  0  0  0  0  0  0
   -0.4233    3.9255   10.6079 C   0  0  0  0  0  0  0  0  0  0  0  0
    0.8581    3.3610   11.0052 C   0  0  0  0  0  0  0  0  0  0  0  0
    1.2923    2.5453   12.0556 C   0  0  0  0  0  0  0  0  0  0  0  0
   -0.5553   -0.8190   14.1924 C   0  0  0  0  0  0  0  0  0  0  0  0
   -1.9451   -1.0886   14.0616 C   0  0  0  0  0  0  0  0  0  0  0  0
   -2.7542   -0.3572   13.2046 O   0  0  0  0  0  0  0  0  0  0  0  0
   -2.2337    0.6443   12.3523 C   0  0  0  0  0  0  0  0  0  0  0  0
   -5.3466   -3.2526   13.5753 H   0  0  0  0  0  0  0  0  0  0  0  0
   -3.9666   -2.5545   12.6618 H   0  0  0  0  0  0  0  0  0  0  0  0
   -3.7535   -4.0821   13.5824 H   0  0  0  0  0  0  0  0  0  0  0  0
   -2.1978   -3.6662   16.2545 H   0  0  0  0  0  0  0  0  0  0  0  0
   -0.2168   -2.3863   16.8767 H   0  0  0  0  0  0  0  0  0  0  0  0
    0.1335   -3.5393   15.5446 H   0  0  0  0  0  0  0  0  0  0  0  0
    5.1556    1.9355   13.2539 H   0  0  0  0  0  0  0  0  0  0  0  0
    6.8415    0.8677   15.3023 H   0  0  0  0  0  0  0  0  0  0  0  0
    6.2486   -0.7553   17.3510 H   0  0  0  0  0  0  0  0  0  0  0  0
    4.5877    2.3606   11.2431 H   0  0  0  0  0  0  0  0  0  0  0  0
    3.7309    4.4032   10.1767 H   0  0  0  0  0  0  0  0  0  0  0  0
    3.4197    2.9539    9.1620 H   0  0  0  0  0  0  0  0  0  0  0  0
   -0.9504    5.1675    8.8821 H   0  0  0  0  0  0  0  0  0  0  0  0
   -1.3666    3.8112   11.1213 H   0  0  0  0  0  0  0  0  0  0  0  0
    0.5963    2.2125   12.8114 H   0  0  0  0  0  0  0  0  0  0  0  0
   -0.0969   -0.0330   13.6106 H   0  0  0  0  0  0  0  0  0  0  0  0
   -3.0515    1.0894   11.7666 H   0  0  0  0  0  0  0  0  0  0  0  0
   -1.7491    1.4248   12.9572 H   0  0  0  0  0  0  0  0  0  0  0  0
   -1.4953    0.1977   11.6702 H   0  0  0  0  0  0  0  0  0  0  0  0
  1  2  1  0  0  0  0
  2  3  1  0  0  0  0
  3  4  2  0  0  0  0
  3 27  1  0  0  0  0
  4  5  1  0  0  0  0
  5  6  1  0  0  0  0
  6  7  2  0  0  0  0
  6 26  1  0  0  0  0
  7  8  1  0  0  0  0
  8  9  2  0  0  0  0
  8 16  1  0  0  0  0
  9 10  1  0  0  0  0
 10 11  2  0  0  0  0
 10 17  1  0  0  0  0
 11 12  1  0  0  0  0
 12 13  1  0  0  0  0
 12 16  1  0  0  0  0
 13 14  2  0  0  0  0
 14 15  1  0  0  0  0
 15 16  2  0  0  0  0
 17 18  2  0  0  0  0
 17 25  1  0  0  0  0
 18 19  1  0  0  0  0
 19 20  1  0  0  0  0
 20 21  2  0  0  0  0
 20 24  1  0  0  0  0
 21 22  1  0  0  0  0
 22 23  2  0  0  0  0
 23 24  1  0  0  0  0
 24 25  2  0  0  0  0
 26 27  2  0  0  0  0
 27 28  1  0  0  0  0
 28 29  1  0  0  0  0
  1 30  1  0  0  0  0
  1 31  1  0  0  0  0
  1 32  1  0  0  0  0
  4 33  1  0  0  0  0
  5 34  1  0  0  0  0
  5 35  1  0  0  0  0
 11 36  1  0  0  0  0
 13 37  1  0  0  0  0
 14 38  1  0  0  0  0
 18 39  1  0  0  0  0
 19 40  1  0  0  0  0
 19 41  1  0  0  0  0
 22 42  1  0  0  0  0
 23 43  1  0  0  0  0
 25 44  1  0  0  0  0
 26 45  1  0  0  0  0
 29 46  1  0  0  0  0
 29 47  1  0  0  0  0
 29 48  1  0  0  0  0
M  END
> <IC50[nM]>
8.6

$$$$
CHEMBL3265020
  -OEChem-05192314333D
 Structure written by MMmdl.
 48 52  0     1  0  0  0  0  0999 V2000
   -4.2567   -3.1041   13.5694 C   0  0  0  0  0  0  0  0  0  0  0  0
   -3.8737   -2.3598   14.7157 O   0  0  0  0  0  0  0  0  0  0  0  0
   -2.5259   -2.1106   14.8172 C   0  0  3  0  0  0  0  0  0  0  0  0
   -1.7455   -2.8698   15.6821 C   0  0  0  0  0  0  0  0  0  0  0  0
   -0.3904   -2.6103   15.8138 C   0  0  0  0  0  0  0  0  0  0  0  0
    0.2204   -1.5845   15.0865 C   0  0  0  0  0  0  0  0  0  0  0  0
    1.6043   -1.3599   15.3203 N   0  0  0  0  0  0  0  0  0  0  0  0
    2.5377   -0.4463   14.7588 C   0  0  0  0  0  0  0  0  0  0  0  0
    2.1842    0.3709   13.7215 N   0  0  0  0  0  0  0  0  0  0  0  0
    3.1172    1.2388   13.2173 C   0  0  0  0  0  0  0  0  0  0  0  0
    4.4204    1.2848   13.7037 C   0  0  0  0  0  0  0  0  0  0  0  0
    4.7469    0.4890   14.7614 N   0  0  0  0  0  0  0  0  0  0  0  0
    5.8976    0.3763   15.4868 C   0  0  0  0  0  0  0  0  0  0  0  0
    5.5864   -0.5217   16.5304 C   0  0  0  0  0  0  0  0  0  0  0  0
    4.3754   -1.0422   16.3738 N   0  0  0  0  0  0  0  0  0  0  0  0
    3.8369   -0.3917   15.3265 C   0  0  0  0  0  0  0  0  0  0  0  0
    2.6436    2.1633   12.1173 C   0  0  0  0  0  0  0  0  0  0  0  0
    3.5480    2.6409   11.1599 C   0  0  0  0  0  0  0  0  0  0  0  0
    3.1566    3.4683   10.0981 C   0  0  0  0  0  0  0  0  0  0  0  0
    1.8094    3.8079   10.0262 C   0  0  0  0  0  0  0  0  0  0  0  0
    1.1129    4.5678    9.1158 N   0  0  0  0  0  0  0  0  0  0  0  0
   -0.1959    4.6369    9.4439 C   0  0  0  0  0  0  0  0  0  0  0  0
   -0.4233    3.9255   10.6079 C   0  0  0  0  0  0  0  0  0  0  0  0
    0.8581    3.3610   11.0052 C   0  0  0  0  0  0  0  0  0  0  0  0
    1.2923    2.5453   12.0556 C   0  0  0  0  0  0  0  0  0  0  0  0
   -0.5553   -0.8190   14.1924 C   0  0  0  0  0  0  0  0  0  0  0  0
   -1.9451   -1.0886   14.0616 C   0  0  0  0  0  0  0  0  0  0  0  0
   -2.7542   -0.3572   13.2046 O   0  0  0  0  0  0  0  0  0  0  0  0
   -2.2337    0.6443   12.3523 C   0  0  0  0  0  0  0  0  0  0  0  0
   -5.3466   -3.2526   13.5753 H   0  0  0  0  0  0  0  0  0  0  0  0
   -3.9666   -2.5545   12.6618 H   0  0  0  0  0  0  0  0  0  0  0  0
   -3.7535   -4.0821   13.5824 H   0  0  0  0  0  0  0  0  0  0  0  0
   -2.3291   -2.8267   14.0058 H   0  0  0  0  0  0  0  0  0  0  0  0
   -2.1978   -3.6662   16.2545 H   0  0  0  0  0  0  0  0  0  0  0  0
    0.2027   -3.2097   16.4886 H   0  0  0  0  0  0  0  0  0  0  0  0
    5.1556    1.9355   13.2539 H   0  0  0  0  0  0  0  0  0  0  0  0
    6.8415    0.8677   15.3023 H   0  0  0  0  0  0  0  0  0  0  0  0
    6.2486   -0.7553   17.3510 H   0  0  0  0  0  0  0  0  0  0  0  0
    4.3141    3.2007   11.7165 H   0  0  0  0  0  0  0  0  0  0  0  0
    4.0047    1.7515   10.7012 H   0  0  0  0  0  0  0  0  0  0  0  0
    3.8686    3.8259    9.3690 H   0  0  0  0  0  0  0  0  0  0  0  0
   -0.9504    5.1675    8.8821 H   0  0  0  0  0  0  0  0  0  0  0  0
   -1.3666    3.8112   11.1213 H   0  0  0  0  0  0  0  0  0  0  0  0
    0.5963    2.2125   12.8114 H   0  0  0  0  0  0  0  0  0  0  0  0
   -0.0969   -0.0330   13.6106 H   0  0  0  0  0  0  0  0  0  0  0  0
   -3.0515    1.0894   11.7666 H   0  0  0  0  0  0  0  0  0  0  0  0
   -1.7491    1.4248   12.9572 H   0  0  0  0  0  0  0  0  0  0  0  0
   -1.4953    0.1977   11.6702 H   0  0  0  0  0  0  0  0  0  0  0  0
  1  2  1  0  0  0  0
  2  3  1  0  0  0  0
  3  4  1  0  0  0  0
  3 27  1  0  0  0  0
  4  5  2  0  0  0  0
  5  6  1  0  0  0  0
  6  7  2  0  0  0  0
  6 26  1  0  0  0  0
  7  8  1  0  0  0  0
  8  9  2  0  0  0  0
  8 16  1  0  0  0  0
  9 10  1  0  0  0  0
 10 11  2  0  0  0  0
 10 17  1  0  0  0  0
 11 12  1  0  0  0  0
 12 13  1  0  0  0  0
 12 16  1  0  0  0  0
 13 14  2  0  0  0  0
 14 15  1  0  0  0  0
 15 16  2  0  0  0  0
 17 18  1  0  0  0  0
 17 25  2  0  0  0  0
 18 19  1  0  0  0  0
 19 20  2  0  0  0  0
 20 21  1  0  0  0  0
 20 24  1  0  0  0  0
 21 22  2  0  0  0  0
 22 23  1  0  0  0  0
 23 24  2  0  0  0  0
 24 25  1  0  0  0  0
 26 27  2  0  0  0  0
 27 28  1  0  0  0  0
 28 29  1  0  0  0  0
  1 30  1  0  0  0  0
  1 31  1  0  0  0  0
  1 32  1  0  0  0  0
  3 33  1  0  0  0  0
  4 34  1  0  0  0  0
  5 35  1  0  0  0  0
 11 36  1  0  0  0  0
 13 37  1  0  0  0  0
 14 38  1  0  0  0  0
 18 39  1  0  0  0  0
 18 40  1  0  0  0  0
 19 41  1  0  0  0  0
 22 42  1  0  0  0  0
 23 43  1  0  0  0  0
 25 44  1  0  0  0  0
 26 45  1  0  0  0  0
 29 46  1  0  0  0  0
 29 47  1  0  0  0  0
 29 48  1  0  0  0  0
M  END
> <IC50[nM]>
8.6

$$$$
CHEMBL3265020
  -OEChem-05192314333D
 Structure written by MMmdl.
 48 52  0     0  0  0  0  0  0999 V2000
   -4.2567   -3.1041   13.5694 C   0  0  0  0  0  0  0  0  0  0  0  0
   -3.8737   -2.3598   14.7157 O   0  0  0  0  0  0  0  0  0  0  0  0
   -2.5259   -2.1106   14.8172 C   0  0  0  0  0  0  0  0  0  0  0  0
   -1.7455   -2.8698   15.6821 C   0  0  0  0  0  0  0  0  0  0  0  0
   -0.3904   -2.6103   15.8138 C   0  0  0  0  0  0  0  0  0  0  0  0
    0.2204   -1.5845   15.0865 C   0  0  0  0  0  0  0  0  0  0  0  0
    1.6043   -1.3599   15.3203 N   0  0  0  0  0  0  0  0  0  0  0  0
    2.5377   -0.4463   14.7588 C   0  0  0  0  0  0  0  0  0  0  0  0
    2.1842    0.3709   13.7215 N   0  0  0  0  0  0  0  0  0  0  0  0
    3.1172    1.2388   13.2173 C   0  0  0  0  0  0  0  0  0  0  0  0
    4.4204    1.2848   13.7037 C   0  0  0  0  0  0  0  0  0  0  0  0
    4.7469    0.4890   14.7614 N   0  0  0  0  0  0  0  0  0  0  0  0
    5.8976    0.3763   15.4868 C   0  0  0  0  0  0  0  0  0  0  0  0
    5.5864   -0.5217   16.5304 C   0  0  0  0  0  0  0  0  0  0  0  0
    4.3754   -1.0422   16.3738 N   0  0  0  0  0  0  0  0  0  0  0  0
    3.8369   -0.3917   15.3265 C   0  0  0  0  0  0  0  0  0  0  0  0
    2.6436    2.1633   12.1173 C   0  0  0  0  0  0  0  0  0  0  0  0
    3.5480    2.6409   11.1599 C   0  0  0  0  0  0  0  0  0  0  0  0
    3.1566    3.4683   10.0981 C   0  0  0  0  0  0  0  0  0  0  0  0
    1.8094    3.8079   10.0262 C   0  0  0  0  0  0  0  0  0  0  0  0
    1.1129    4.5678    9.1158 N   0  0  0  0  0  0  0  0  0  0  0  0
   -0.1959    4.6369    9.4439 C   0  0  0  0  0  0  0  0  0  0  0  0
   -0.4233    3.9255   10.6079 C   0  0  0  0  0  0  0  0  0  0  0  0
    0.8581    3.3610   11.0052 C   0  0  0  0  0  0  0  0  0  0  0  0
    1.2923    2.5453   12.0556 C   0  0  0  0  0  0  0  0  0  0  0  0
   -0.5553   -0.8190   14.1924 C   0  0  0  0  0  0  0  0  0  0  0  0
   -1.9451   -1.0886   14.0616 C   0  0  0  0  0  0  0  0  0  0  0  0
   -2.7542   -0.3572   13.2046 O   0  0  0  0  0  0  0  0  0  0  0  0
   -2.2337    0.6443   12.3523 C   0  0  0  0  0  0  0  0  0  0  0  0
   -5.3466   -3.2526   13.5753 H   0  0  0  0  0  0  0  0  0  0  0  0
   -3.9666   -2.5545   12.6618 H   0  0  0  0  0  0  0  0  0  0  0  0
   -3.7535   -4.0821   13.5824 H   0  0  0  0  0  0  0  0  0  0  0  0
   -2.1978   -3.6662   16.2545 H   0  0  0  0  0  0  0  0  0  0  0  0
   -0.2168   -2.3863   16.8767 H   0  0  0  0  0  0  0  0  0  0  0  0
    0.1335   -3.5393   15.5446 H   0  0  0  0  0  0  0  0  0  0  0  0
    5.1556    1.9355   13.2539 H   0  0  0  0  0  0  0  0  0  0  0  0
    6.8415    0.8677   15.3023 H   0  0  0  0  0  0  0  0  0  0  0  0
    6.2486   -0.7553   17.3510 H   0  0  0  0  0  0  0  0  0  0  0  0
    4.3141    3.2007   11.7165 H   0  0  0  0  0  0  0  0  0  0  0  0
    4.0047    1.7515   10.7012 H   0  0  0  0  0  0  0  0  0  0  0  0
    3.8686    3.8259    9.3690 H   0  0  0  0  0  0  0  0  0  0  0  0
   -0.9504    5.1675    8.8821 H   0  0  0  0  0  0  0  0  0  0  0  0
   -1.3666    3.8112   11.1213 H   0  0  0  0  0  0  0  0  0  0  0  0
    0.5963    2.2125   12.8114 H   0  0  0  0  0  0  0  0  0  0  0  0
   -0.0969   -0.0330   13.6106 H   0  0  0  0  0  0  0  0  0  0  0  0
   -3.0515    1.0894   11.7666 H   0  0  0  0  0  0  0  0  0  0  0  0
   -1.7491    1.4248   12.9572 H   0  0  0  0  0  0  0  0  0  0  0  0
   -1.4953    0.1977   11.6702 H   0  0  0  0  0  0  0  0  0  0  0  0
  1  2  1  0  0  0  0
  2  3  1  0  0  0  0
  3  4  2  0  0  0  0
  3 27  1  0  0  0  0
  4  5  1  0  0  0  0
  5  6  1  0  0  0  0
  6  7  2  0  0  0  0
  6 26  1  0  0  0  0
  7  8  1  0  0  0  0
  8  9  2  0  0  0  0
  8 16  1  0  0  0  0
  9 10  1  0  0  0  0
 10 11  2  0  0  0  0
 10 17  1  0  0  0  0
 11 12  1  0  0  0  0
 12 13  1  0  0  0  0
 12 16  1  0  0  0  0
 13 14  2  0  0  0  0
 14 15  1  0  0  0  0
 15 16  2  0  0  0  0
 17 18  1  0  0  0  0
 17 25  2  0  0  0  0
 18 19  1  0  0  0  0
 19 20  2  0  0  0  0
 20 21  1  0  0  0  0
 20 24  1  0  0  0  0
 21 22  2  0  0  0  0
 22 23  1  0  0  0  0
 23 24  2  0  0  0  0
 24 25  1  0  0  0  0
 26 27  2  0  0  0  0
 27 28  1  0  0  0  0
 28 29  1  0  0  0  0
  1 30  1  0  0  0  0
  1 31  1  0  0  0  0
  1 32  1  0  0  0  0
  4 33  1  0  0  0  0
  5 34  1  0  0  0  0
  5 35  1  0  0  0  0
 11 36  1  0  0  0  0
 13 37  1  0  0  0  0
 14 38  1  0  0  0  0
 18 39  1  0  0  0  0
 18 40  1  0  0  0  0
 19 41  1  0  0  0  0
 22 42  1  0  0  0  0
 23 43  1  0  0  0  0
 25 44  1  0  0  0  0
 26 45  1  0  0  0  0
 29 46  1  0  0  0  0
 29 47  1  0  0  0  0
 29 48  1  0  0  0  0
M  END
> <IC50[nM]>
8.6

$$$$
CHEMBL3265020
  -OEChem-05192314333D
 Structure written by MMmdl.
 48 52  0     1  0  0  0  0  0999 V2000
   -4.2567   -3.1041   13.5694 C   0  0  0  0  0  0  0  0  0  0  0  0
   -3.8737   -2.3598   14.7157 O   0  0  0  0  0  0  0  0  0  0  0  0
   -2.5259   -2.1106   14.8172 C   0  0  0  0  0  0  0  0  0  0  0  0
   -1.7455   -2.8698   15.6821 C   0  0  0  0  0  0  0  0  0  0  0  0
   -0.3904   -2.6103   15.8138 C   0  0  0  0  0  0  0  0  0  0  0  0
    0.2204   -1.5845   15.0865 C   0  0  0  0  0  0  0  0  0  0  0  0
    1.6043   -1.3599   15.3203 N   0  0  0  0  0  0  0  0  0  0  0  0
    2.5377   -0.4463   14.7588 C   0  0  0  0  0  0  0  0  0  0  0  0
    2.1842    0.3709   13.7215 N   0  0  0  0  0  0  0  0  0  0  0  0
    3.1172    1.2388   13.2173 C   0  0  0  0  0  0  0  0  0  0  0  0
    4.4204    1.2848   13.7037 C   0  0  0  0  0  0  0  0  0  0  0  0
    4.7469    0.4890   14.7614 N   0  0  0  0  0  0  0  0  0  0  0  0
    5.8976    0.3763   15.4868 C   0  0  0  0  0  0  0  0  0  0  0  0
    5.5864   -0.5217   16.5304 C   0  0  0  0  0  0  0  0  0  0  0  0
    4.3754   -1.0422   16.3738 N   0  0  0  0  0  0  0  0  0  0  0  0
    3.8369   -0.3917   15.3265 C   0  0  0  0  0  0  0  0  0  0  0  0
    2.6436    2.1633   12.1173 C   0  0  0  0  0  0  0  0  0  0  0  0
    3.5480    2.6409   11.1599 C   0  0  0  0  0  0  0  0  0  0  0  0
    3.1566    3.4683   10.0981 C   0  0  0  0  0  0  0  0  0  0  0  0
    1.8094    3.8079   10.0262 C   0  0  0  0  0  0  0  0  0  0  0  0
    1.1129    4.5678    9.1158 N   0  0  0  0  0  0  0  0  0  0  0  0
   -0.1959    4.6369    9.4439 C   0  0  0  0  0  0  0  0  0  0  0  0
   -0.4233    3.9255   10.6079 C   0  0  0  0  0  0  0  0  0  0  0  0
    0.8581    3.3610   11.0052 C   0  0  3  0  0  0  0  0  0  0  0  0
    1.2923    2.5453   12.0556 C   0  0  0  0  0  0  0  0  0  0  0  0
   -0.5553   -0.8190   14.1924 C   0  0  0  0  0  0  0  0  0  0  0  0
   -1.9451   -1.0886   14.0616 C   0  0  0  0  0  0  0  0  0  0  0  0
   -2.7542   -0.3572   13.2046 O   0  0  0  0  0  0  0  0  0  0  0  0
   -2.2337    0.6443   12.3523 C   0  0  0  0  0  0  0  0  0  0  0  0
   -5.3466   -3.2526   13.5753 H   0  0  0  0  0  0  0  0  0  0  0  0
   -3.9666   -2.5545   12.6618 H   0  0  0  0  0  0  0  0  0  0  0  0
   -3.7535   -4.0821   13.5824 H   0  0  0  0  0  0  0  0  0  0  0  0
   -2.1978   -3.6662   16.2545 H   0  0  0  0  0  0  0  0  0  0  0  0
    0.2027   -3.2097   16.4886 H   0  0  0  0  0  0  0  0  0  0  0  0
    5.1556    1.9355   13.2539 H   0  0  0  0  0  0  0  0  0  0  0  0
    6.8415    0.8677   15.3023 H   0  0  0  0  0  0  0  0  0  0  0  0
    6.2486   -0.7553   17.3510 H   0  0  0  0  0  0  0  0  0  0  0  0
    4.5877    2.3606   11.2431 H   0  0  0  0  0  0  0  0  0  0  0  0
    3.8686    3.8259    9.3690 H   0  0  0  0  0  0  0  0  0  0  0  0
   -0.9504    5.1675    8.8821 H   0  0  0  0  0  0  0  0  0  0  0  0
   -1.3666    3.8112   11.1213 H   0  0  0  0  0  0  0  0  0  0  0  0
    1.0636    4.2543   11.6133 H   0  0  0  0  0  0  0  0  0  0  0  0
    0.5963    2.2125   12.8114 H   0  0  0  0  0  0  0  0  0  0  0  0
   -0.4615    0.2311   14.5061 H   0  0  0  0  0  0  0  0  0  0  0  0
   -0.1100   -0.9447   13.1945 H   0  0  0  0  0  0  0  0  0  0  0  0
   -3.0515    1.0894   11.7666 H   0  0  0  0  0  0  0  0  0  0  0  0
   -1.7491    1.4248   12.9572 H   0  0  0  0  0  0  0  0  0  0  0  0
   -1.4953    0.1977   11.6702 H   0  0  0  0  0  0  0  0  0  0  0  0
  1  2  1  0  0  0  0
  2  3  1  0  0  0  0
  3  4  1  0  0  0  0
  3 27  2  0  0  0  0
  4  5  2  0  0  0  0
  5  6  1  0  0  0  0
  6  7  2  0  0  0  0
  6 26  1  0  0  0  0
  7  8  1  0  0  0  0
  8  9  2  0  0  0  0
  8 16  1  0  0  0  0
  9 10  1  0  0  0  0
 10 11  2  0  0  0  0
 10 17  1  0  0  0  0
 11 12  1  0  0  0  0
 12 13  1  0  0  0  0
 12 16  1  0  0  0  0
 13 14  2  0  0  0  0
 14 15  1  0  0  0  0
 15 16  2  0  0  0  0
 17 18  1  0  0  0  0
 17 25  2  0  0  0  0
 18 19  2  0  0  0  0
 19 20  1  0  0  0  0
 20 21  2  0  0  0  0
 20 24  1  0  0  0  0
 21 22  1  0  0  0  0
 22 23  2  0  0  0  0
 23 24  1  0  0  0  0
 24 25  1  0  0  0  0
 26 27  1  0  0  0  0
 27 28  1  0  0  0  0
 28 29  1  0  0  0  0
  1 30  1  0  0  0  0
  1 31  1  0  0  0  0
  1 32  1  0  0  0  0
  4 33  1  0  0  0  0
  5 34  1  0  0  0  0
 11 35  1  0  0  0  0
 13 36  1  0  0  0  0
 14 37  1  0  0  0  0
 18 38  1  0  0  0  0
 19 39  1  0  0  0  0
 22 40  1  0  0  0  0
 23 41  1  0  0  0  0
 24 42  1  0  0  0  0
 25 43  1  0  0  0  0
 26 44  1  0  0  0  0
 26 45  1  0  0  0  0
 29 46  1  0  0  0  0
 29 47  1  0  0  0  0
 29 48  1  0  0  0  0
M  END
> <IC50[nM]>
8.6

$$$$
CHEMBL3265020
  -OEChem-05192314333D
 Structure written by MMmdl.
 48 52  0     1  0  0  0  0  0999 V2000
   -4.2567   -3.1041   13.5694 C   0  0  0  0  0  0  0  0  0  0  0  0
   -3.8737   -2.3598   14.7157 O   0  0  0  0  0  0  0  0  0  0  0  0
   -2.5259   -2.1106   14.8172 C   0  0  0  0  0  0  0  0  0  0  0  0
   -1.7455   -2.8698   15.6821 C   0  0  0  0  0  0  0  0  0  0  0  0
   -0.3904   -2.6103   15.8138 C   0  0  0  0  0  0  0  0  0  0  0  0
    0.2204   -1.5845   15.0865 C   0  0  0  0  0  0  0  0  0  0  0  0
    1.6043   -1.3599   15.3203 N   0  0  0  0  0  0  0  0  0  0  0  0
    2.5377   -0.4463   14.7588 C   0  0  0  0  0  0  0  0  0  0  0  0
    2.1842    0.3709   13.7215 N   0  0  0  0  0  0  0  0  0  0  0  0
    3.1172    1.2388   13.2173 C   0  0  0  0  0  0  0  0  0  0  0  0
    4.4204    1.2848   13.7037 C   0  0  0  0  0  0  0  0  0  0  0  0
    4.7469    0.4890   14.7614 N   0  0  0  0  0  0  0  0  0  0  0  0
    5.8976    0.3763   15.4868 C   0  0  0  0  0  0  0  0  0  0  0  0
    5.5864   -0.5217   16.5304 C   0  0  0  0  0  0  0  0  0  0  0  0
    4.3754   -1.0422   16.3738 N   0  0  0  0  0  0  0  0  0  0  0  0
    3.8369   -0.3917   15.3265 C   0  0  0  0  0  0  0  0  0  0  0  0
    2.6436    2.1633   12.1173 C   0  0  3  0  0  0  0  0  0  0  0  0
    3.5480    2.6409   11.1599 C   0  0  0  0  0  0  0  0  0  0  0  0
    3.1566    3.4683   10.0981 C   0  0  0  0  0  0  0  0  0  0  0  0
    1.8094    3.8079   10.0262 C   0  0  0  0  0  0  0  0  0  0  0  0
    1.1129    4.5678    9.1158 N   0  0  0  0  0  0  0  0  0  0  0  0
   -0.1959    4.6369    9.4439 C   0  0  0  0  0  0  0  0  0  0  0  0
   -0.4233    3.9255   10.6079 C   0  0  0  0  0  0  0  0  0  0  0  0
    0.8581    3.3610   11.0052 C   0  0  0  0  0  0  0  0  0  0  0  0
    1.2923    2.5453   12.0556 C   0  0  0  0  0  0  0  0  0  0  0  0
   -0.5553   -0.8190   14.1924 C   0  0  0  0  0  0  0  0  0  0  0  0
   -1.9451   -1.0886   14.0616 C   0  0  0  0  0  0  0  0  0  0  0  0
   -2.7542   -0.3572   13.2046 O   0  0  0  0  0  0  0  0  0  0  0  0
   -2.2337    0.6443   12.3523 C   0  0  0  0  0  0  0  0  0  0  0  0
   -5.3466   -3.2526   13.5753 H   0  0  0  0  0  0  0  0  0  0  0  0
   -3.9666   -2.5545   12.6618 H   0  0  0  0  0  0  0  0  0  0  0  0
   -3.7535   -4.0821   13.5824 H   0  0  0  0  0  0  0  0  0  0  0  0
   -2.1978   -3.6662   16.2545 H   0  0  0  0  0  0  0  0  0  0  0  0
    0.2027   -3.2097   16.4886 H   0  0  0  0  0  0  0  0  0  0  0  0
    5.1556    1.9355   13.2539 H   0  0  0  0  0  0  0  0  0  0  0  0
    6.8415    0.8677   15.3023 H   0  0  0  0  0  0  0  0  0  0  0  0
    6.2486   -0.7553   17.3510 H   0  0  0  0  0  0  0  0  0  0  0  0
    2.4271    1.2937   11.4794 H   0  0  0  0  0  0  0  0  0  0  0  0
    4.5877    2.3606   11.2431 H   0  0  0  0  0  0  0  0  0  0  0  0
    3.8686    3.8259    9.3690 H   0  0  0  0  0  0  0  0  0  0  0  0
   -0.9504    5.1675    8.8821 H   0  0  0  0  0  0  0  0  0  0  0  0
   -1.3666    3.8112   11.1213 H   0  0  0  0  0  0  0  0  0  0  0  0
    0.5963    2.2125   12.8114 H   0  0  0  0  0  0  0  0  0  0  0  0
   -0.4615    0.2311   14.5061 H   0  0  0  0  0  0  0  0  0  0  0  0
   -0.1100   -0.9447   13.1945 H   0  0  0  0  0  0  0  0  0  0  0  0
   -3.0515    1.0894   11.7666 H   0  0  0  0  0  0  0  0  0  0  0  0
   -1.7491    1.4248   12.9572 H   0  0  0  0  0  0  0  0  0  0  0  0
   -1.4953    0.1977   11.6702 H   0  0  0  0  0  0  0  0  0  0  0  0
  1  2  1  0  0  0  0
  2  3  1  0  0  0  0
  3  4  1  0  0  0  0
  3 27  2  0  0  0  0
  4  5  2  0  0  0  0
  5  6  1  0  0  0  0
  6  7  2  0  0  0  0
  6 26  1  0  0  0  0
  7  8  1  0  0  0  0
  8  9  2  0  0  0  0
  8 16  1  0  0  0  0
  9 10  1  0  0  0  0
 10 11  2  0  0  0  0
 10 17  1  0  0  0  0
 11 12  1  0  0  0  0
 12 13  1  0  0  0  0
 12 16  1  0  0  0  0
 13 14  2  0  0  0  0
 14 15  1  0  0  0  0
 15 16  2  0  0  0  0
 17 18  1  0  0  0  0
 17 25  1  0  0  0  0
 18 19  2  0  0  0  0
 19 20  1  0  0  0  0
 20 21  2  0  0  0  0
 20 24  1  0  0  0  0
 21 22  1  0  0  0  0
 22 23  2  0  0  0  0
 23 24  1  0  0  0  0
 24 25  2  0  0  0  0
 26 27  1  0  0  0  0
 27 28  1  0  0  0  0
 28 29  1  0  0  0  0
  1 30  1  0  0  0  0
  1 31  1  0  0  0  0
  1 32  1  0  0  0  0
  4 33  1  0  0  0  0
  5 34  1  0  0  0  0
 11 35  1  0  0  0  0
 13 36  1  0  0  0  0
 14 37  1  0  0  0  0
 17 38  1  0  0  0  0
 18 39  1  0  0  0  0
 19 40  1  0  0  0  0
 22 41  1  0  0  0  0
 23 42  1  0  0  0  0
 25 43  1  0  0  0  0
 26 44  1  0  0  0  0
 26 45  1  0  0  0  0
 29 46  1  0  0  0  0
 29 47  1  0  0  0  0
 29 48  1  0  0  0  0
M  END
> <IC50[nM]>
8.6

$$$$
CHEMBL3265020
  -OEChem-05192314333D
 Structure written by MMmdl.
 48 52  0     1  0  0  0  0  0999 V2000
   -4.2567   -3.1041   13.5694 C   0  0  0  0  0  0  0  0  0  0  0  0
   -3.8737   -2.3598   14.7157 O   0  0  0  0  0  0  0  0  0  0  0  0
   -2.5259   -2.1106   14.8172 C   0  0  0  0  0  0  0  0  0  0  0  0
   -1.7455   -2.8698   15.6821 C   0  0  0  0  0  0  0  0  0  0  0  0
   -0.3904   -2.6103   15.8138 C   0  0  0  0  0  0  0  0  0  0  0  0
    0.2204   -1.5845   15.0865 C   0  0  0  0  0  0  0  0  0  0  0  0
    1.6043   -1.3599   15.3203 N   0  0  0  0  0  0  0  0  0  0  0  0
    2.5377   -0.4463   14.7588 C   0  0  0  0  0  0  0  0  0  0  0  0
    2.1842    0.3709   13.7215 N   0  0  0  0  0  0  0  0  0  0  0  0
    3.1172    1.2388   13.2173 C   0  0  0  0  0  0  0  0  0  0  0  0
    4.4204    1.2848   13.7037 C   0  0  0  0  0  0  0  0  0  0  0  0
    4.7469    0.4890   14.7614 N   0  0  0  0  0  0  0  0  0  0  0  0
    5.8976    0.3763   15.4868 C   0  0  0  0  0  0  0  0  0  0  0  0
    5.5864   -0.5217   16.5304 C   0  0  0  0  0  0  0  0  0  0  0  0
    4.3754   -1.0422   16.3738 N   0  0  0  0  0  0  0  0  0  0  0  0
    3.8369   -0.3917   15.3265 C   0  0  0  0  0  0  0  0  0  0  0  0
    2.6436    2.1633   12.1173 C   0  0  0  0  0  0  0  0  0  0  0  0
    3.5480    2.6409   11.1599 C   0  0  0  0  0  0  0  0  0  0  0  0
    3.1566    3.4683   10.0981 C   0  0  0  0  0  0  0  0  0  0  0  0
    1.8094    3.8079   10.0262 C   0  0  3  0  0  0  0  0  0  0  0  0
    1.1129    4.5678    9.1158 N   0  0  0  0  0  0  0  0  0  0  0  0
   -0.1959    4.6369    9.4439 C   0  0  0  0  0  0  0  0  0  0  0  0
   -0.4233    3.9255   10.6079 C   0  0  0  0  0  0  0  0  0  0  0  0
    0.8581    3.3610   11.0052 C   0  0  0  0  0  0  0  0  0  0  0  0
    1.2923    2.5453   12.0556 C   0  0  0  0  0  0  0  0  0  0  0  0
   -0.5553   -0.8190   14.1924 C   0  0  0  0  0  0  0  0  0  0  0  0
   -1.9451   -1.0886   14.0616 C   0  0  0  0  0  0  0  0  0  0  0  0
   -2.7542   -0.3572   13.2046 O   0  0  0  0  0  0  0  0  0  0  0  0
   -2.2337    0.6443   12.3523 C   0  0  0  0  0  0  0  0  0  0  0  0
   -5.3466   -3.2526   13.5753 H   0  0  0  0  0  0  0  0  0  0  0  0
   -3.9666   -2.5545   12.6618 H   0  0  0  0  0  0  0  0  0  0  0  0
   -3.7535   -4.0821   13.5824 H   0  0  0  0  0  0  0  0  0  0  0  0
   -2.1978   -3.6662   16.2545 H   0  0  0  0  0  0  0  0  0  0  0  0
    0.2027   -3.2097   16.4886 H   0  0  0  0  0  0  0  0  0  0  0  0
    5.1556    1.9355   13.2539 H   0  0  0  0  0  0  0  0  0  0  0  0
    6.8415    0.8677   15.3023 H   0  0  0  0  0  0  0  0  0  0  0  0
    6.2486   -0.7553   17.3510 H   0  0  0  0  0  0  0  0  0  0  0  0
    4.5877    2.3606   11.2431 H   0  0  0  0  0  0  0  0  0  0  0  0
    3.8686    3.8259    9.3690 H   0  0  0  0  0  0  0  0  0  0  0  0
    1.6141    2.9077    9.4249 H   0  0  0  0  0  0  0  0  0  0  0  0
   -0.9504    5.1675    8.8821 H   0  0  0  0  0  0  0  0  0  0  0  0
   -1.3666    3.8112   11.1213 H   0  0  0  0  0  0  0  0  0  0  0  0
    0.5963    2.2125   12.8114 H   0  0  0  0  0  0  0  0  0  0  0  0
   -0.4615    0.2311   14.5061 H   0  0  0  0  0  0  0  0  0  0  0  0
   -0.1100   -0.9447   13.1945 H   0  0  0  0  0  0  0  0  0  0  0  0
   -3.0515    1.0894   11.7666 H   0  0  0  0  0  0  0  0  0  0  0  0
   -1.7491    1.4248   12.9572 H   0  0  0  0  0  0  0  0  0  0  0  0
   -1.4953    0.1977   11.6702 H   0  0  0  0  0  0  0  0  0  0  0  0
  1  2  1  0  0  0  0
  2  3  1  0  0  0  0
  3  4  1  0  0  0  0
  3 27  2  0  0  0  0
  4  5  2  0  0  0  0
  5  6  1  0  0  0  0
  6  7  2  0  0  0  0
  6 26  1  0  0  0  0
  7  8  1  0  0  0  0
  8  9  2  0  0  0  0
  8 16  1  0  0  0  0
  9 10  1  0  0  0  0
 10 11  2  0  0  0  0
 10 17  1  0  0  0  0
 11 12  1  0  0  0  0
 12 13  1  0  0  0  0
 12 16  1  0  0  0  0
 13 14  2  0  0  0  0
 14 15  1  0  0  0  0
 15 16  2  0  0  0  0
 17 18  1  0  0  0  0
 17 25  2  0  0  0  0
 18 19  2  0  0  0  0
 19 20  1  0  0  0  0
 20 21  1  0  0  0  0
 20 24  1  0  0  0  0
 21 22  2  0  0  0  0
 22 23  1  0  0  0  0
 23 24  2  0  0  0  0
 24 25  1  0  0  0  0
 26 27  1  0  0  0  0
 27 28  1  0  0  0  0
 28 29  1  0  0  0  0
  1 30  1  0  0  0  0
  1 31  1  0  0  0  0
  1 32  1  0  0  0  0
  4 33  1  0  0  0  0
  5 34  1  0  0  0  0
 11 35  1  0  0  0  0
 13 36  1  0  0  0  0
 14 37  1  0  0  0  0
 18 38  1  0  0  0  0
 19 39  1  0  0  0  0
 20 40  1  0  0  0  0
 22 41  1  0  0  0  0
 23 42  1  0  0  0  0
 25 43  1  0  0  0  0
 26 44  1  0  0  0  0
 26 45  1  0  0  0  0
 29 46  1  0  0  0  0
 29 47  1  0  0  0  0
 29 48  1  0  0  0  0
M  END
> <IC50[nM]>
8.6

$$$$
CHEMBL3265020
  -OEChem-05192314333D
 Structure written by MMmdl.
 48 52  0     0  0  0  0  0  0999 V2000
   -4.2567   -3.1041   13.5694 C   0  0  0  0  0  0  0  0  0  0  0  0
   -3.8737   -2.3598   14.7157 O   0  0  0  0  0  0  0  0  0  0  0  0
   -2.5259   -2.1106   14.8172 C   0  0  0  0  0  0  0  0  0  0  0  0
   -1.7455   -2.8698   15.6821 C   0  0  0  0  0  0  0  0  0  0  0  0
   -0.3904   -2.6103   15.8138 C   0  0  0  0  0  0  0  0  0  0  0  0
    0.2204   -1.5845   15.0865 C   0  0  0  0  0  0  0  0  0  0  0  0
    1.6043   -1.3599   15.3203 N   0  0  0  0  0  0  0  0  0  0  0  0
    2.5377   -0.4463   14.7588 C   0  0  0  0  0  0  0  0  0  0  0  0
    2.1842    0.3709   13.7215 N   0  0  0  0  0  0  0  0  0  0  0  0
    3.1172    1.2388   13.2173 C   0  0  0  0  0  0  0  0  0  0  0  0
    4.4204    1.2848   13.7037 C   0  0  0  0  0  0  0  0  0  0  0  0
    4.7469    0.4890   14.7614 N   0  0  0  0  0  0  0  0  0  0  0  0
    5.8976    0.3763   15.4868 C   0  0  0  0  0  0  0  0  0  0  0  0
    5.5864   -0.5217   16.5304 C   0  0  0  0  0  0  0  0  0  0  0  0
    4.3754   -1.0422   16.3738 N   0  0  0  0  0  0  0  0  0  0  0  0
    3.8369   -0.3917   15.3265 C   0  0  0  0  0  0  0  0  0  0  0  0
    2.6436    2.1633   12.1173 C   0  0  0  0  0  0  0  0  0  0  0  0
    3.5480    2.6409   11.1599 C   0  0  0  0  0  0  0  0  0  0  0  0
    3.1566    3.4683   10.0981 C   0  0  0  0  0  0  0  0  0  0  0  0
    1.8094    3.8079   10.0262 C   0  0  0  0  0  0  0  0  0  0  0  0
    1.1129    4.5678    9.1158 N   0  0  0  0  0  0  0  0  0  0  0  0
   -0.1959    4.6369    9.4439 C   0  0  0  0  0  0  0  0  0  0  0  0
   -0.4233    3.9255   10.6079 C   0  0  0  0  0  0  0  0  0  0  0  0
    0.8581    3.3610   11.0052 C   0  0  0  0  0  0  0  0  0  0  0  0
    1.2923    2.5453   12.0556 C   0  0  0  0  0  0  0  0  0  0  0  0
   -0.5553   -0.8190   14.1924 C   0  0  0  0  0  0  0  0  0  0  0  0
   -1.9451   -1.0886   14.0616 C   0  0  0  0  0  0  0  0  0  0  0  0
   -2.7542   -0.3572   13.2046 O   0  0  0  0  0  0  0  0  0  0  0  0
   -2.2337    0.6443   12.3523 C   0  0  0  0  0  0  0  0  0  0  0  0
   -5.3466   -3.2526   13.5753 H   0  0  0  0  0  0  0  0  0  0  0  0
   -3.9666   -2.5545   12.6618 H   0  0  0  0  0  0  0  0  0  0  0  0
   -3.7535   -4.0821   13.5824 H   0  0  0  0  0  0  0  0  0  0  0  0
   -2.1978   -3.6662   16.2545 H   0  0  0  0  0  0  0  0  0  0  0  0
    0.2027   -3.2097   16.4886 H   0  0  0  0  0  0  0  0  0  0  0  0
    5.1556    1.9355   13.2539 H   0  0  0  0  0  0  0  0  0  0  0  0
    6.8415    0.8677   15.3023 H   0  0  0  0  0  0  0  0  0  0  0  0
    6.2486   -0.7553   17.3510 H   0  0  0  0  0  0  0  0  0  0  0  0
    4.5877    2.3606   11.2431 H   0  0  0  0  0  0  0  0  0  0  0  0
    3.7309    4.4032   10.1767 H   0  0  0  0  0  0  0  0  0  0  0  0
    3.4197    2.9539    9.1620 H   0  0  0  0  0  0  0  0  0  0  0  0
   -0.9504    5.1675    8.8821 H   0  0  0  0  0  0  0  0  0  0  0  0
   -1.3666    3.8112   11.1213 H   0  0  0  0  0  0  0  0  0  0  0  0
    0.5963    2.2125   12.8114 H   0  0  0  0  0  0  0  0  0  0  0  0
   -0.4615    0.2311   14.5061 H   0  0  0  0  0  0  0  0  0  0  0  0
   -0.1100   -0.9447   13.1945 H   0  0  0  0  0  0  0  0  0  0  0  0
   -3.0515    1.0894   11.7666 H   0  0  0  0  0  0  0  0  0  0  0  0
   -1.7491    1.4248   12.9572 H   0  0  0  0  0  0  0  0  0  0  0  0
   -1.4953    0.1977   11.6702 H   0  0  0  0  0  0  0  0  0  0  0  0
  1  2  1  0  0  0  0
  2  3  1  0  0  0  0
  3  4  1  0  0  0  0
  3 27  2  0  0  0  0
  4  5  2  0  0  0  0
  5  6  1  0  0  0  0
  6  7  2  0  0  0  0
  6 26  1  0  0  0  0
  7  8  1  0  0  0  0
  8  9  2  0  0  0  0
  8 16  1  0  0  0  0
  9 10  1  0  0  0  0
 10 11  2  0  0  0  0
 10 17  1  0  0  0  0
 11 12  1  0  0  0  0
 12 13  1  0  0  0  0
 12 16  1  0  0  0  0
 13 14  2  0  0  0  0
 14 15  1  0  0  0  0
 15 16  2  0  0  0  0
 17 18  2  0  0  0  0
 17 25  1  0  0  0  0
 18 19  1  0  0  0  0
 19 20  1  0  0  0  0
 20 21  2  0  0  0  0
 20 24  1  0  0  0  0
 21 22  1  0  0  0  0
 22 23  2  0  0  0  0
 23 24  1  0  0  0  0
 24 25  2  0  0  0  0
 26 27  1  0  0  0  0
 27 28  1  0  0  0  0
 28 29  1  0  0  0  0
  1 30  1  0  0  0  0
  1 31  1  0  0  0  0
  1 32  1  0  0  0  0
  4 33  1  0  0  0  0
  5 34  1  0  0  0  0
 11 35  1  0  0  0  0
 13 36  1  0  0  0  0
 14 37  1  0  0  0  0
 18 38  1  0  0  0  0
 19 39  1  0  0  0  0
 19 40  1  0  0  0  0
 22 41  1  0  0  0  0
 23 42  1  0  0  0  0
 25 43  1  0  0  0  0
 26 44  1  0  0  0  0
 26 45  1  0  0  0  0
 29 46  1  0  0  0  0
 29 47  1  0  0  0  0
 29 48  1  0  0  0  0
M  END
> <IC50[nM]>
8.6

$$$$
CHEMBL3265020
  -OEChem-05192314333D
 Structure written by MMmdl.
 48 52  0     0  0  0  0  0  0999 V2000
   -4.2567   -3.1041   13.5694 C   0  0  0  0  0  0  0  0  0  0  0  0
   -3.8737   -2.3598   14.7157 O   0  0  0  0  0  0  0  0  0  0  0  0
   -2.5259   -2.1106   14.8172 C   0  0  0  0  0  0  0  0  0  0  0  0
   -1.7455   -2.8698   15.6821 C   0  0  0  0  0  0  0  0  0  0  0  0
   -0.3904   -2.6103   15.8138 C   0  0  0  0  0  0  0  0  0  0  0  0
    0.2204   -1.5845   15.0865 C   0  0  0  0  0  0  0  0  0  0  0  0
    1.6043   -1.3599   15.3203 N   0  0  0  0  0  0  0  0  0  0  0  0
    2.5377   -0.4463   14.7588 C   0  0  0  0  0  0  0  0  0  0  0  0
    2.1842    0.3709   13.7215 N   0  0  0  0  0  0  0  0  0  0  0  0
    3.1172    1.2388   13.2173 C   0  0  0  0  0  0  0  0  0  0  0  0
    4.4204    1.2848   13.7037 C   0  0  0  0  0  0  0  0  0  0  0  0
    4.7469    0.4890   14.7614 N   0  0  0  0  0  0  0  0  0  0  0  0
    5.8976    0.3763   15.4868 C   0  0  0  0  0  0  0  0  0  0  0  0
    5.5864   -0.5217   16.5304 C   0  0  0  0  0  0  0  0  0  0  0  0
    4.3754   -1.0422   16.3738 N   0  0  0  0  0  0  0  0  0  0  0  0
    3.8369   -0.3917   15.3265 C   0  0  0  0  0  0  0  0  0  0  0  0
    2.6436    2.1633   12.1173 C   0  0  0  0  0  0  0  0  0  0  0  0
    3.5480    2.6409   11.1599 C   0  0  0  0  0  0  0  0  0  0  0  0
    3.1566    3.4683   10.0981 C   0  0  0  0  0  0  0  0  0  0  0  0
    1.8094    3.8079   10.0262 C   0  0  0  0  0  0  0  0  0  0  0  0
    1.1129    4.5678    9.1158 N   0  0  0  0  0  0  0  0  0  0  0  0
   -0.1959    4.6369    9.4439 C   0  0  0  0  0  0  0  0  0  0  0  0
   -0.4233    3.9255   10.6079 C   0  0  0  0  0  0  0  0  0  0  0  0
    0.8581    3.3610   11.0052 C   0  0  0  0  0  0  0  0  0  0  0  0
    1.2923    2.5453   12.0556 C   0  0  0  0  0  0  0  0  0  0  0  0
   -0.5553   -0.8190   14.1924 C   0  0  0  0  0  0  0  0  0  0  0  0
   -1.9451   -1.0886   14.0616 C   0  0  0  0  0  0  0  0  0  0  0  0
   -2.7542   -0.3572   13.2046 O   0  0  0  0  0  0  0  0  0  0  0  0
   -2.2337    0.6443   12.3523 C   0  0  0  0  0  0  0  0  0  0  0  0
   -5.3466   -3.2526   13.5753 H   0  0  0  0  0  0  0  0  0  0  0  0
   -3.9666   -2.5545   12.6618 H   0  0  0  0  0  0  0  0  0  0  0  0
   -3.7535   -4.0821   13.5824 H   0  0  0  0  0  0  0  0  0  0  0  0
   -2.1978   -3.6662   16.2545 H   0  0  0  0  0  0  0  0  0  0  0  0
    0.2027   -3.2097   16.4886 H   0  0  0  0  0  0  0  0  0  0  0  0
    5.1556    1.9355   13.2539 H   0  0  0  0  0  0  0  0  0  0  0  0
    6.8415    0.8677   15.3023 H   0  0  0  0  0  0  0  0  0  0  0  0
    6.2486   -0.7553   17.3510 H   0  0  0  0  0  0  0  0  0  0  0  0
    4.3141    3.2007   11.7165 H   0  0  0  0  0  0  0  0  0  0  0  0
    4.0047    1.7515   10.7012 H   0  0  0  0  0  0  0  0  0  0  0  0
    3.8686    3.8259    9.3690 H   0  0  0  0  0  0  0  0  0  0  0  0
   -0.9504    5.1675    8.8821 H   0  0  0  0  0  0  0  0  0  0  0  0
   -1.3666    3.8112   11.1213 H   0  0  0  0  0  0  0  0  0  0  0  0
    0.5963    2.2125   12.8114 H   0  0  0  0  0  0  0  0  0  0  0  0
   -0.4615    0.2311   14.5061 H   0  0  0  0  0  0  0  0  0  0  0  0
   -0.1100   -0.9447   13.1945 H   0  0  0  0  0  0  0  0  0  0  0  0
   -3.0515    1.0894   11.7666 H   0  0  0  0  0  0  0  0  0  0  0  0
   -1.7491    1.4248   12.9572 H   0  0  0  0  0  0  0  0  0  0  0  0
   -1.4953    0.1977   11.6702 H   0  0  0  0  0  0  0  0  0  0  0  0
  1  2  1  0  0  0  0
  2  3  1  0  0  0  0
  3  4  1  0  0  0  0
  3 27  2  0  0  0  0
  4  5  2  0  0  0  0
  5  6  1  0  0  0  0
  6  7  2  0  0  0  0
  6 26  1  0  0  0  0
  7  8  1  0  0  0  0
  8  9  2  0  0  0  0
  8 16  1  0  0  0  0
  9 10  1  0  0  0  0
 10 11  2  0  0  0  0
 10 17  1  0  0  0  0
 11 12  1  0  0  0  0
 12 13  1  0  0  0  0
 12 16  1  0  0  0  0
 13 14  2  0  0  0  0
 14 15  1  0  0  0  0
 15 16  2  0  0  0  0
 17 18  1  0  0  0  0
 17 25  2  0  0  0  0
 18 19  1  0  0  0  0
 19 20  2  0  0  0  0
 20 21  1  0  0  0  0
 20 24  1  0  0  0  0
 21 22  2  0  0  0  0
 22 23  1  0  0  0  0
 23 24  2  0  0  0  0
 24 25  1  0  0  0  0
 26 27  1  0  0  0  0
 27 28  1  0  0  0  0
 28 29  1  0  0  0  0
  1 30  1  0  0  0  0
  1 31  1  0  0  0  0
  1 32  1  0  0  0  0
  4 33  1  0  0  0  0
  5 34  1  0  0  0  0
 11 35  1  0  0  0  0
 13 36  1  0  0  0  0
 14 37  1  0  0  0  0
 18 38  1  0  0  0  0
 18 39  1  0  0  0  0
 19 40  1  0  0  0  0
 22 41  1  0  0  0  0
 23 42  1  0  0  0  0
 25 43  1  0  0  0  0
 26 44  1  0  0  0  0
 26 45  1  0  0  0  0
 29 46  1  0  0  0  0
 29 47  1  0  0  0  0
 29 48  1  0  0  0  0
M  END
> <IC50[nM]>
8.6

$$$$
CHEMBL3265020
  -OEChem-05192314333D
 Structure written by MMmdl.
 48 52  0     1  0  0  0  0  0999 V2000
   -4.2567   -3.1041   13.5694 C   0  0  0  0  0  0  0  0  0  0  0  0
   -3.8737   -2.3598   14.7157 O   0  0  0  0  0  0  0  0  0  0  0  0
   -2.5259   -2.1106   14.8172 C   0  0  3  0  0  0  0  0  0  0  0  0
   -1.7455   -2.8698   15.6821 C   0  0  0  0  0  0  0  0  0  0  0  0
   -0.3904   -2.6103   15.8138 C   0  0  0  0  0  0  0  0  0  0  0  0
    0.2204   -1.5845   15.0865 C   0  0  0  0  0  0  0  0  0  0  0  0
    1.6043   -1.3599   15.3203 N   0  0  0  0  0  0  0  0  0  0  0  0
    2.5377   -0.4463   14.7588 C   0  0  0  0  0  0  0  0  0  0  0  0
    2.1842    0.3709   13.7215 N   0  0  0  0  0  0  0  0  0  0  0  0
    3.1172    1.2388   13.2173 C   0  0  0  0  0  0  0  0  0  0  0  0
    4.4204    1.2848   13.7037 C   0  0  0  0  0  0  0  0  0  0  0  0
    4.7469    0.4890   14.7614 N   0  0  0  0  0  0  0  0  0  0  0  0
    5.8976    0.3763   15.4868 C   0  0  0  0  0  0  0  0  0  0  0  0
    5.5864   -0.5217   16.5304 C   0  0  0  0  0  0  0  0  0  0  0  0
    4.3754   -1.0422   16.3738 N   0  0  0  0  0  0  0  0  0  0  0  0
    3.8369   -0.3917   15.3265 C   0  0  0  0  0  0  0  0  0  0  0  0
    2.6436    2.1633   12.1173 C   0  0  0  0  0  0  0  0  0  0  0  0
    3.5480    2.6409   11.1599 C   0  0  0  0  0  0  0  0  0  0  0  0
    3.1566    3.4683   10.0981 C   0  0  0  0  0  0  0  0  0  0  0  0
    1.8094    3.8079   10.0262 C   0  0  0  0  0  0  0  0  0  0  0  0
    1.1129    4.5678    9.1158 N   0  0  0  0  0  0  0  0  0  0  0  0
   -0.1959    4.6369    9.4439 C   0  0  0  0  0  0  0  0  0  0  0  0
   -0.4233    3.9255   10.6079 C   0  0  0  0  0  0  0  0  0  0  0  0
    0.8581    3.3610   11.0052 C   0  0  0  0  0  0  0  0  0  0  0  0
    1.2923    2.5453   12.0556 C   0  0  0  0  0  0  0  0  0  0  0  0
   -0.5553   -0.8190   14.1924 C   0  0  0  0  0  0  0  0  0  0  0  0
   -1.9451   -1.0886   14.0616 C   0  0  0  0  0  0  0  0  0  0  0  0
   -2.7542   -0.3572   13.2046 O   0  0  0  0  0  0  0  0  0  0  0  0
   -2.2337    0.6443   12.3523 C   0  0  0  0  0  0  0  0  0  0  0  0
   -5.3466   -3.2526   13.5753 H   0  0  0  0  0  0  0  0  0  0  0  0
   -3.9666   -2.5545   12.6618 H   0  0  0  0  0  0  0  0  0  0  0  0
   -3.7535   -4.0821   13.5824 H   0  0  0  0  0  0  0  0  0  0  0  0
   -2.3291   -2.8267   14.0058 H   0  0  0  0  0  0  0  0  0  0  0  0
   -2.1978   -3.6662   16.2545 H   0  0  0  0  0  0  0  0  0  0  0  0
    0.2027   -3.2097   16.4886 H   0  0  0  0  0  0  0  0  0  0  0  0
    5.1556    1.9355   13.2539 H   0  0  0  0  0  0  0  0  0  0  0  0
    6.8415    0.8677   15.3023 H   0  0  0  0  0  0  0  0  0  0  0  0
    6.2486   -0.7553   17.3510 H   0  0  0  0  0  0  0  0  0  0  0  0
    4.5877    2.3606   11.2431 H   0  0  0  0  0  0  0  0  0  0  0  0
    3.8686    3.8259    9.3690 H   0  0  0  0  0  0  0  0  0  0  0  0
   -0.9504    5.1675    8.8821 H   0  0  0  0  0  0  0  0  0  0  0  0
   -1.3666    3.8112   11.1213 H   0  0  0  0  0  0  0  0  0  0  0  0
    0.6992    1.6201   12.0095 H   0  0  0  0  0  0  0  0  0  0  0  0
    1.0669    3.0791   12.9906 H   0  0  0  0  0  0  0  0  0  0  0  0
   -0.0969   -0.0330   13.6106 H   0  0  0  0  0  0  0  0  0  0  0  0
   -3.0515    1.0894   11.7666 H   0  0  0  0  0  0  0  0  0  0  0  0
   -1.7491    1.4248   12.9572 H   0  0  0  0  0  0  0  0  0  0  0  0
   -1.4953    0.1977   11.6702 H   0  0  0  0  0  0  0  0  0  0  0  0
  1  2  1  0  0  0  0
  2  3  1  0  0  0  0
  3  4  1  0  0  0  0
  3 27  1  0  0  0  0
  4  5  2  0  0  0  0
  5  6  1  0  0  0  0
  6  7  2  0  0  0  0
  6 26  1  0  0  0  0
  7  8  1  0  0  0  0
  8  9  2  0  0  0  0
  8 16  1  0  0  0  0
  9 10  1  0  0  0  0
 10 11  2  0  0  0  0
 10 17  1  0  0  0  0
 11 12  1  0  0  0  0
 12 13  1  0  0  0  0
 12 16  1  0  0  0  0
 13 14  2  0  0  0  0
 14 15  1  0  0  0  0
 15 16  2  0  0  0  0
 17 18  2  0  0  0  0
 17 25  1  0  0  0  0
 18 19  1  0  0  0  0
 19 20  2  0  0  0  0
 20 21  1  0  0  0  0
 20 24  1  0  0  0  0
 21 22  2  0  0  0  0
 22 23  1  0  0  0  0
 23 24  2  0  0  0  0
 24 25  1  0  0  0  0
 26 27  2  0  0  0  0
 27 28  1  0  0  0  0
 28 29  1  0  0  0  0
  1 30  1  0  0  0  0
  1 31  1  0  0  0  0
  1 32  1  0  0  0  0
  3 33  1  0  0  0  0
  4 34  1  0  0  0  0
  5 35  1  0  0  0  0
 11 36  1  0  0  0  0
 13 37  1  0  0  0  0
 14 38  1  0  0  0  0
 18 39  1  0  0  0  0
 19 40  1  0  0  0  0
 22 41  1  0  0  0  0
 23 42  1  0  0  0  0
 25 43  1  0  0  0  0
 25 44  1  0  0  0  0
 26 45  1  0  0  0  0
 29 46  1  0  0  0  0
 29 47  1  0  0  0  0
 29 48  1  0  0  0  0
M  END
> <IC50[nM]>
8.6

$$$$
CHEMBL3265020
  -OEChem-05192314333D
 Structure written by MMmdl.
 48 52  0     0  0  0  0  0  0999 V2000
   -4.2567   -3.1041   13.5694 C   0  0  0  0  0  0  0  0  0  0  0  0
   -3.8737   -2.3598   14.7157 O   0  0  0  0  0  0  0  0  0  0  0  0
   -2.5259   -2.1106   14.8172 C   0  0  0  0  0  0  0  0  0  0  0  0
   -1.7455   -2.8698   15.6821 C   0  0  0  0  0  0  0  0  0  0  0  0
   -0.3904   -2.6103   15.8138 C   0  0  0  0  0  0  0  0  0  0  0  0
    0.2204   -1.5845   15.0865 C   0  0  0  0  0  0  0  0  0  0  0  0
    1.6043   -1.3599   15.3203 N   0  0  0  0  0  0  0  0  0  0  0  0
    2.5377   -0.4463   14.7588 C   0  0  0  0  0  0  0  0  0  0  0  0
    2.1842    0.3709   13.7215 N   0  0  0  0  0  0  0  0  0  0  0  0
    3.1172    1.2388   13.2173 C   0  0  0  0  0  0  0  0  0  0  0  0
    4.4204    1.2848   13.7037 C   0  0  0  0  0  0  0  0  0  0  0  0
    4.7469    0.4890   14.7614 N   0  0  0  0  0  0  0  0  0  0  0  0
    5.8976    0.3763   15.4868 C   0  0  0  0  0  0  0  0  0  0  0  0
    5.5864   -0.5217   16.5304 C   0  0  0  0  0  0  0  0  0  0  0  0
    4.3754   -1.0422   16.3738 N   0  0  0  0  0  0  0  0  0  0  0  0
    3.8369   -0.3917   15.3265 C   0  0  0  0  0  0  0  0  0  0  0  0
    2.6436    2.1633   12.1173 C   0  0  0  0  0  0  0  0  0  0  0  0
    3.5480    2.6409   11.1599 C   0  0  0  0  0  0  0  0  0  0  0  0
    3.1566    3.4683   10.0981 C   0  0  0  0  0  0  0  0  0  0  0  0
    1.8094    3.8079   10.0262 C   0  0  0  0  0  0  0  0  0  0  0  0
    1.1129    4.5678    9.1158 N   0  0  0  0  0  0  0  0  0  0  0  0
   -0.1959    4.6369    9.4439 C   0  0  0  0  0  0  0  0  0  0  0  0
   -0.4233    3.9255   10.6079 C   0  0  0  0  0  0  0  0  0  0  0  0
    0.8581    3.3610   11.0052 C   0  0  0  0  0  0  0  0  0  0  0  0
    1.2923    2.5453   12.0556 C   0  0  0  0  0  0  0  0  0  0  0  0
   -0.5553   -0.8190   14.1924 C   0  0  0  0  0  0  0  0  0  0  0  0
   -1.9451   -1.0886   14.0616 C   0  0  0  0  0  0  0  0  0  0  0  0
   -2.7542   -0.3572   13.2046 O   0  0  0  0  0  0  0  0  0  0  0  0
   -2.2337    0.6443   12.3523 C   0  0  0  0  0  0  0  0  0  0  0  0
   -5.3466   -3.2526   13.5753 H   0  0  0  0  0  0  0  0  0  0  0  0
   -3.9666   -2.5545   12.6618 H   0  0  0  0  0  0  0  0  0  0  0  0
   -3.7535   -4.0821   13.5824 H   0  0  0  0  0  0  0  0  0  0  0  0
   -2.1978   -3.6662   16.2545 H   0  0  0  0  0  0  0  0  0  0  0  0
   -0.2168   -2.3863   16.8767 H   0  0  0  0  0  0  0  0  0  0  0  0
    0.1335   -3.5393   15.5446 H   0  0  0  0  0  0  0  0  0  0  0  0
    5.1556    1.9355   13.2539 H   0  0  0  0  0  0  0  0  0  0  0  0
    6.8415    0.8677   15.3023 H   0  0  0  0  0  0  0  0  0  0  0  0
    6.2486   -0.7553   17.3510 H   0  0  0  0  0  0  0  0  0  0  0  0
    4.5877    2.3606   11.2431 H   0  0  0  0  0  0  0  0  0  0  0  0
    3.8686    3.8259    9.3690 H   0  0  0  0  0  0  0  0  0  0  0  0
   -0.9504    5.1675    8.8821 H   0  0  0  0  0  0  0  0  0  0  0  0
   -1.3666    3.8112   11.1213 H   0  0  0  0  0  0  0  0  0  0  0  0
    0.6992    1.6201   12.0095 H   0  0  0  0  0  0  0  0  0  0  0  0
    1.0669    3.0791   12.9906 H   0  0  0  0  0  0  0  0  0  0  0  0
   -0.0969   -0.0330   13.6106 H   0  0  0  0  0  0  0  0  0  0  0  0
   -3.0515    1.0894   11.7666 H   0  0  0  0  0  0  0  0  0  0  0  0
   -1.7491    1.4248   12.9572 H   0  0  0  0  0  0  0  0  0  0  0  0
   -1.4953    0.1977   11.6702 H   0  0  0  0  0  0  0  0  0  0  0  0
  1  2  1  0  0  0  0
  2  3  1  0  0  0  0
  3  4  2  0  0  0  0
  3 27  1  0  0  0  0
  4  5  1  0  0  0  0
  5  6  1  0  0  0  0
  6  7  2  0  0  0  0
  6 26  1  0  0  0  0
  7  8  1  0  0  0  0
  8  9  2  0  0  0  0
  8 16  1  0  0  0  0
  9 10  1  0  0  0  0
 10 11  2  0  0  0  0
 10 17  1  0  0  0  0
 11 12  1  0  0  0  0
 12 13  1  0  0  0  0
 12 16  1  0  0  0  0
 13 14  2  0  0  0  0
 14 15  1  0  0  0  0
 15 16  2  0  0  0  0
 17 18  2  0  0  0  0
 17 25  1  0  0  0  0
 18 19  1  0  0  0  0
 19 20  2  0  0  0  0
 20 21  1  0  0  0  0
 20 24  1  0  0  0  0
 21 22  2  0  0  0  0
 22 23  1  0  0  0  0
 23 24  2  0  0  0  0
 24 25  1  0  0  0  0
 26 27  2  0  0  0  0
 27 28  1  0  0  0  0
 28 29  1  0  0  0  0
  1 30  1  0  0  0  0
  1 31  1  0  0  0  0
  1 32  1  0  0  0  0
  4 33  1  0  0  0  0
  5 34  1  0  0  0  0
  5 35  1  0  0  0  0
 11 36  1  0  0  0  0
 13 37  1  0  0  0  0
 14 38  1  0  0  0  0
 18 39  1  0  0  0  0
 19 40  1  0  0  0  0
 22 41  1  0  0  0  0
 23 42  1  0  0  0  0
 25 43  1  0  0  0  0
 25 44  1  0  0  0  0
 26 45  1  0  0  0  0
 29 46  1  0  0  0  0
 29 47  1  0  0  0  0
 29 48  1  0  0  0  0
M  END
> <IC50[nM]>
8.6

$$$$
CHEMBL3265020
  -OEChem-05192314333D
 Structure written by MMmdl.
 48 52  0     0  0  0  0  0  0999 V2000
   -4.2567   -3.1041   13.5694 C   0  0  0  0  0  0  0  0  0  0  0  0
   -3.8737   -2.3598   14.7157 O   0  0  0  0  0  0  0  0  0  0  0  0
   -2.5259   -2.1106   14.8172 C   0  0  0  0  0  0  0  0  0  0  0  0
   -1.7455   -2.8698   15.6821 C   0  0  0  0  0  0  0  0  0  0  0  0
   -0.3904   -2.6103   15.8138 C   0  0  0  0  0  0  0  0  0  0  0  0
    0.2204   -1.5845   15.0865 C   0  0  0  0  0  0  0  0  0  0  0  0
    1.6043   -1.3599   15.3203 N   0  0  0  0  0  0  0  0  0  0  0  0
    2.5377   -0.4463   14.7588 C   0  0  0  0  0  0  0  0  0  0  0  0
    2.1842    0.3709   13.7215 N   0  0  0  0  0  0  0  0  0  0  0  0
    3.1172    1.2388   13.2173 C   0  0  0  0  0  0  0  0  0  0  0  0
    4.4204    1.2848   13.7037 C   0  0  0  0  0  0  0  0  0  0  0  0
    4.7469    0.4890   14.7614 N   0  0  0  0  0  0  0  0  0  0  0  0
    5.8976    0.3763   15.4868 C   0  0  0  0  0  0  0  0  0  0  0  0
    5.5864   -0.5217   16.5304 C   0  0  0  0  0  0  0  0  0  0  0  0
    4.3754   -1.0422   16.3738 N   0  0  0  0  0  0  0  0  0  0  0  0
    3.8369   -0.3917   15.3265 C   0  0  0  0  0  0  0  0  0  0  0  0
    2.6436    2.1633   12.1173 C   0  0  0  0  0  0  0  0  0  0  0  0
    3.5480    2.6409   11.1599 C   0  0  0  0  0  0  0  0  0  0  0  0
    3.1566    3.4683   10.0981 C   0  0  0  0  0  0  0  0  0  0  0  0
    1.8094    3.8079   10.0262 C   0  0  0  0  0  0  0  0  0  0  0  0
    1.1129    4.5678    9.1158 N   0  0  0  0  0  0  0  0  0  0  0  0
   -0.1959    4.6369    9.4439 C   0  0  0  0  0  0  0  0  0  0  0  0
   -0.4233    3.9255   10.6079 C   0  0  0  0  0  0  0  0  0  0  0  0
    0.8581    3.3610   11.0052 C   0  0  0  0  0  0  0  0  0  0  0  0
    1.2923    2.5453   12.0556 C   0  0  0  0  0  0  0  0  0  0  0  0
   -0.5553   -0.8190   14.1924 C   0  0  0  0  0  0  0  0  0  0  0  0
   -1.9451   -1.0886   14.0616 C   0  0  0  0  0  0  0  0  0  0  0  0
   -2.7542   -0.3572   13.2046 O   0  0  0  0  0  0  0  0  0  0  0  0
   -2.2337    0.6443   12.3523 C   0  0  0  0  0  0  0  0  0  0  0  0
   -5.3466   -3.2526   13.5753 H   0  0  0  0  0  0  0  0  0  0  0  0
   -3.9666   -2.5545   12.6618 H   0  0  0  0  0  0  0  0  0  0  0  0
   -3.7535   -4.0821   13.5824 H   0  0  0  0  0  0  0  0  0  0  0  0
   -2.1978   -3.6662   16.2545 H   0  0  0  0  0  0  0  0  0  0  0  0
    0.2027   -3.2097   16.4886 H   0  0  0  0  0  0  0  0  0  0  0  0
    5.1556    1.9355   13.2539 H   0  0  0  0  0  0  0  0  0  0  0  0
    6.8415    0.8677   15.3023 H   0  0  0  0  0  0  0  0  0  0  0  0
    6.2486   -0.7553   17.3510 H   0  0  0  0  0  0  0  0  0  0  0  0
    4.5877    2.3606   11.2431 H   0  0  0  0  0  0  0  0  0  0  0  0
    3.8686    3.8259    9.3690 H   0  0  0  0  0  0  0  0  0  0  0  0
   -0.9504    5.1675    8.8821 H   0  0  0  0  0  0  0  0  0  0  0  0
   -1.3666    3.8112   11.1213 H   0  0  0  0  0  0  0  0  0  0  0  0
    0.6992    1.6201   12.0095 H   0  0  0  0  0  0  0  0  0  0  0  0
    1.0669    3.0791   12.9906 H   0  0  0  0  0  0  0  0  0  0  0  0
   -0.4615    0.2311   14.5061 H   0  0  0  0  0  0  0  0  0  0  0  0
   -0.1100   -0.9447   13.1945 H   0  0  0  0  0  0  0  0  0  0  0  0
   -3.0515    1.0894   11.7666 H   0  0  0  0  0  0  0  0  0  0  0  0
   -1.7491    1.4248   12.9572 H   0  0  0  0  0  0  0  0  0  0  0  0
   -1.4953    0.1977   11.6702 H   0  0  0  0  0  0  0  0  0  0  0  0
  1  2  1  0  0  0  0
  2  3  1  0  0  0  0
  3  4  1  0  0  0  0
  3 27  2  0  0  0  0
  4  5  2  0  0  0  0
  5  6  1  0  0  0  0
  6  7  2  0  0  0  0
  6 26  1  0  0  0  0
  7  8  1  0  0  0  0
  8  9  2  0  0  0  0
  8 16  1  0  0  0  0
  9 10  1  0  0  0  0
 10 11  2  0  0  0  0
 10 17  1  0  0  0  0
 11 12  1  0  0  0  0
 12 13  1  0  0  0  0
 12 16  1  0  0  0  0
 13 14  2  0  0  0  0
 14 15  1  0  0  0  0
 15 16  2  0  0  0  0
 17 18  2  0  0  0  0
 17 25  1  0  0  0  0
 18 19  1  0  0  0  0
 19 20  2  0  0  0  0
 20 21  1  0  0  0  0
 20 24  1  0  0  0  0
 21 22  2  0  0  0  0
 22 23  1  0  0  0  0
 23 24  2  0  0  0  0
 24 25  1  0  0  0  0
 26 27  1  0  0  0  0
 27 28  1  0  0  0  0
 28 29  1  0  0  0  0
  1 30  1  0  0  0  0
  1 31  1  0  0  0  0
  1 32  1  0  0  0  0
  4 33  1  0  0  0  0
  5 34  1  0  0  0  0
 11 35  1  0  0  0  0
 13 36  1  0  0  0  0
 14 37  1  0  0  0  0
 18 38  1  0  0  0  0
 19 39  1  0  0  0  0
 22 40  1  0  0  0  0
 23 41  1  0  0  0  0
 25 42  1  0  0  0  0
 25 43  1  0  0  0  0
 26 44  1  0  0  0  0
 26 45  1  0  0  0  0
 29 46  1  0  0  0  0
 29 47  1  0  0  0  0
 29 48  1  0  0  0  0
M  END
> <IC50[nM]>
8.6

$$$$
