CHEMBL3264994
  -OEChem-05192314333D
 Structure written by MMmdl.
 65 69  0     0  0  0  0  0  0999 V2000
   -4.1531   -3.4266   13.5369 C   0  0  0  0  0  0  0  0  0  0  0  0
   -3.9919   -2.3907   14.6629 C   0  0  0  0  0  0  0  0  0  0  0  0
   -4.6875   -1.0646   14.3101 C   0  0  0  0  0  0  0  0  0  0  0  0
   -4.4873   -2.9438   16.0103 C   0  0  0  0  0  0  0  0  0  0  0  0
   -2.5261   -2.1057   14.8053 C   0  0  0  0  0  0  0  0  0  0  0  0
   -1.9389   -1.0760   14.0580 C   0  0  0  0  0  0  0  0  0  0  0  0
   -0.5664   -0.8256   14.2115 C   0  0  0  0  0  0  0  0  0  0  0  0
    0.2220   -1.5829   15.0890 C   0  0  0  0  0  0  0  0  0  0  0  0
    1.5930   -1.3491   15.3060 N   0  0  0  0  0  0  0  0  0  0  0  0
    2.5452   -0.4689   14.7536 C   0  0  0  0  0  0  0  0  0  0  0  0
    2.2178    0.3551   13.7190 N   0  0  0  0  0  0  0  0  0  0  0  0
    3.1227    1.2406   13.2181 C   0  0  0  0  0  0  0  0  0  0  0  0
    4.4207    1.3039   13.7175 C   0  0  0  0  0  0  0  0  0  0  0  0
    4.7482    0.4921   14.7654 N   0  0  0  0  0  0  0  0  0  0  0  0
    5.8898    0.3836   15.5035 C   0  0  0  0  0  0  0  0  0  0  0  0
    5.5715   -0.5089   16.5177 C   0  0  0  0  0  0  0  0  0  0  0  0
    4.3818   -1.0543   16.3920 N   0  0  0  0  0  0  0  0  0  0  0  0
    3.8330   -0.4170   15.3252 C   0  0  0  0  0  0  0  0  0  0  0  0
    2.6564    2.1560   12.1340 C   0  0  0  0  0  0  0  0  0  0  0  0
    3.5566    2.6280   11.1666 C   0  0  0  0  0  0  0  0  0  0  0  0
    3.1294    3.4499   10.1277 C   0  0  0  0  0  0  0  0  0  0  0  0
    1.7879    3.8078   10.0318 C   0  0  0  0  0  0  0  0  0  0  0  0
    0.8660    3.3707   10.9895 C   0  0  0  0  0  0  0  0  0  0  0  0
   -0.5399    3.7537   10.8977 N   0  0  0  0  0  0  0  0  0  0  0  0
   -1.2550    4.3141   11.8736 C   0  0  0  0  0  0  0  0  0  0  0  0
   -0.8140    4.4931   13.0050 O   0  0  0  0  0  0  0  0  0  0  0  0
   -2.6333    4.6854   11.4124 C   0  0  0  0  0  0  0  0  0  0  0  0
   -3.5436    5.2295   12.3108 C   0  0  0  0  0  0  0  0  0  0  0  0
   -4.8206    5.5735   11.8835 C   0  0  0  0  0  0  0  0  0  0  0  0
   -5.1873    5.3735   10.5579 C   0  0  0  0  0  0  0  0  0  0  0  0
   -4.2770    4.8294    9.6596 C   0  0  0  0  0  0  0  0  0  0  0  0
   -3.0000    4.4854   10.0869 C   0  0  0  0  0  0  0  0  0  0  0  0
   -6.5655    5.7447   10.0968 C   0  0  0  0  0  0  0  0  0  0  0  0
   -6.9139    5.5749    8.9190 O   0  0  0  0  0  0  0  0  0  0  0  0
   -7.3451    6.2270   10.9318 O   0  0  0  0  0  0  0  0  0  0  0  0
    1.3140    2.5576   12.0419 C   0  0  0  0  0  0  0  0  0  0  0  0
   -0.3863   -2.6106   15.8150 C   0  0  0  0  0  0  0  0  0  0  0  0
   -1.7497   -2.8673   15.6804 C   0  0  0  0  0  0  0  0  0  0  0  0
   -3.6454   -4.3600   13.8213 H   0  0  0  0  0  0  0  0  0  0  0  0
   -5.2223   -3.6262   13.3728 H   0  0  0  0  0  0  0  0  0  0  0  0
   -3.7071   -3.0341   12.6111 H   0  0  0  0  0  0  0  0  0  0  0  0
   -4.5529   -0.3487   15.1344 H   0  0  0  0  0  0  0  0  0  0  0  0
   -4.2460   -0.6523   13.3908 H   0  0  0  0  0  0  0  0  0  0  0  0
   -5.7612   -1.2445   14.1525 H   0  0  0  0  0  0  0  0  0  0  0  0
   -4.3579   -2.1796   16.7908 H   0  0  0  0  0  0  0  0  0  0  0  0
   -5.5520   -3.2079   15.9289 H   0  0  0  0  0  0  0  0  0  0  0  0
   -3.9064   -3.8397   16.2746 H   0  0  0  0  0  0  0  0  0  0  0  0
   -2.5321   -0.4853   13.3757 H   0  0  0  0  0  0  0  0  0  0  0  0
   -0.1075   -0.0318   13.6408 H   0  0  0  0  0  0  0  0  0  0  0  0
    1.9791   -1.9422   16.0125 H   0  0  0  0  0  0  0  0  0  0  0  0
    5.1484    1.9765   13.2880 H   0  0  0  0  0  0  0  0  0  0  0  0
    6.8331    0.8820   15.3359 H   0  0  0  0  0  0  0  0  0  0  0  0
    6.2400   -0.7347   17.3354 H   0  0  0  0  0  0  0  0  0  0  0  0
    4.5981    2.3490   11.2292 H   0  0  0  0  0  0  0  0  0  0  0  0
    3.8383    3.8096    9.3966 H   0  0  0  0  0  0  0  0  0  0  0  0
    1.4559    4.4276    9.2120 H   0  0  0  0  0  0  0  0  0  0  0  0
   -1.0057    3.5812   10.0298 H   0  0  0  0  0  0  0  0  0  0  0  0
   -3.2586    5.3850   13.3409 H   0  0  0  0  0  0  0  0  0  0  0  0
   -5.5280    5.9962   12.5816 H   0  0  0  0  0  0  0  0  0  0  0  0
   -4.5619    4.6739    8.6295 H   0  0  0  0  0  0  0  0  0  0  0  0
   -2.2926    4.0626    9.3888 H   0  0  0  0  0  0  0  0  0  0  0  0
   -8.1777    6.4171   10.5156 H   0  0  0  0  0  0  0  0  0  0  0  0
    0.6121    2.2342   12.7963 H   0  0  0  0  0  0  0  0  0  0  0  0
    0.2066   -3.2125   16.4877 H   0  0  0  0  0  0  0  0  0  0  0  0
   -2.2073   -3.6587   16.2555 H   0  0  0  0  0  0  0  0  0  0  0  0
  1  2  1  0  0  0  0
  2  3  1  0  0  0  0
  2  4  1  0  0  0  0
  2  5  1  0  0  0  0
  5  6  2  0  0  0  0
  5 38  1  0  0  0  0
  6  7  1  0  0  0  0
  7  8  2  0  0  0  0
  8  9  1  0  0  0  0
  8 37  1  0  0  0  0
  9 10  1  0  0  0  0
 10 11  2  0  0  0  0
 10 18  1  0  0  0  0
 11 12  1  0  0  0  0
 12 13  2  0  0  0  0
 12 19  1  0  0  0  0
 13 14  1  0  0  0  0
 14 15  1  0  0  0  0
 14 18  1  0  0  0  0
 15 16  2  0  0  0  0
 16 17  1  0  0  0  0
 17 18  2  0  0  0  0
 19 20  2  0  0  0  0
 19 36  1  0  0  0  0
 20 21  1  0  0  0  0
 21 22  2  0  0  0  0
 22 23  1  0  0  0  0
 23 24  1  0  0  0  0
 23 36  2  0  0  0  0
 24 25  1  0  0  0  0
 25 26  2  0  0  0  0
 25 27  1  0  0  0  0
 27 28  2  0  0  0  0
 27 32  1  0  0  0  0
 28 29  1  0  0  0  0
 29 30  2  0  0  0  0
 30 31  1  0  0  0  0
 30 33  1  0  0  0  0
 31 32  2  0  0  0  0
 33 34  2  0  0  0  0
 33 35  1  0  0  0  0
 37 38  2  0  0  0  0
  1 39  1  0  0  0  0
  1 40  1  0  0  0  0
  1 41  1  0  0  0  0
  3 42  1  0  0  0  0
  3 43  1  0  0  0  0
  3 44  1  0  0  0  0
  4 45  1  0  0  0  0
  4 46  1  0  0  0  0
  4 47  1  0  0  0  0
  6 48  1  0  0  0  0
  7 49  1  0  0  0  0
  9 50  1  0  0  0  0
 13 51  1  0  0  0  0
 15 52  1  0  0  0  0
 16 53  1  0  0  0  0
 20 54  1  0  0  0  0
 21 55  1  0  0  0  0
 22 56  1  0  0  0  0
 24 57  1  0  0  0  0
 28 58  1  0  0  0  0
 29 59  1  0  0  0  0
 31 60  1  0  0  0  0
 32 61  1  0  0  0  0
 35 62  1  0  0  0  0
 36 63  1  0  0  0  0
 37 64  1  0  0  0  0
 38 65  1  0  0  0  0
M  END
> <IC50[nM]>
65

$$$$
CHEMBL3264994
  -OEChem-05192314333D
 Structure written by MMmdl.
 65 69  0     0  0  0  0  0  0999 V2000
   -4.1531   -3.4266   13.5369 C   0  0  0  0  0  0  0  0  0  0  0  0
   -3.9919   -2.3907   14.6629 C   0  0  0  0  0  0  0  0  0  0  0  0
   -4.6875   -1.0646   14.3101 C   0  0  0  0  0  0  0  0  0  0  0  0
   -4.4873   -2.9438   16.0103 C   0  0  0  0  0  0  0  0  0  0  0  0
   -2.5261   -2.1057   14.8053 C   0  0  0  0  0  0  0  0  0  0  0  0
   -1.9389   -1.0760   14.0580 C   0  0  0  0  0  0  0  0  0  0  0  0
   -0.5664   -0.8256   14.2115 C   0  0  0  0  0  0  0  0  0  0  0  0
    0.2220   -1.5829   15.0890 C   0  0  0  0  0  0  0  0  0  0  0  0
    1.5930   -1.3491   15.3060 N   0  0  0  0  0  0  0  0  0  0  0  0
    2.5452   -0.4689   14.7536 C   0  0  0  0  0  0  0  0  0  0  0  0
    2.2178    0.3551   13.7190 N   0  0  0  0  0  0  0  0  0  0  0  0
    3.1227    1.2406   13.2181 C   0  0  0  0  0  0  0  0  0  0  0  0
    4.4207    1.3039   13.7175 C   0  0  0  0  0  0  0  0  0  0  0  0
    4.7482    0.4921   14.7654 N   0  0  0  0  0  0  0  0  0  0  0  0
    5.8898    0.3836   15.5035 C   0  0  0  0  0  0  0  0  0  0  0  0
    5.5715   -0.5089   16.5177 C   0  0  0  0  0  0  0  0  0  0  0  0
    4.3818   -1.0543   16.3920 N   0  0  0  0  0  0  0  0  0  0  0  0
    3.8330   -0.4170   15.3252 C   0  0  0  0  0  0  0  0  0  0  0  0
    2.6564    2.1560   12.1340 C   0  0  0  0  0  0  0  0  0  0  0  0
    3.5566    2.6280   11.1666 C   0  0  0  0  0  0  0  0  0  0  0  0
    3.1294    3.4499   10.1277 C   0  0  0  0  0  0  0  0  0  0  0  0
    1.7879    3.8078   10.0318 C   0  0  0  0  0  0  0  0  0  0  0  0
    0.8660    3.3707   10.9895 C   0  0  0  0  0  0  0  0  0  0  0  0
   -0.5399    3.7537   10.8977 N   0  0  0  0  0  0  0  0  0  0  0  0
   -1.2550    4.3141   11.8736 C   0  0  0  0  0  0  0  0  0  0  0  0
   -0.8140    4.4931   13.0050 O   0  0  0  0  0  0  0  0  0  0  0  0
   -2.6333    4.6854   11.4124 C   0  0  0  0  0  0  0  0  0  0  0  0
   -3.5436    5.2295   12.3108 C   0  0  0  0  0  0  0  0  0  0  0  0
   -4.8206    5.5735   11.8835 C   0  0  0  0  0  0  0  0  0  0  0  0
   -5.1873    5.3735   10.5579 C   0  0  0  0  0  0  0  0  0  0  0  0
   -4.2770    4.8294    9.6596 C   0  0  0  0  0  0  0  0  0  0  0  0
   -3.0000    4.4854   10.0869 C   0  0  0  0  0  0  0  0  0  0  0  0
   -6.5655    5.7447   10.0968 C   0  0  0  0  0  0  0  0  0  0  0  0
   -6.9139    5.5749    8.9190 O   0  0  0  0  0  0  0  0  0  0  0  0
   -7.3451    6.2270   10.9318 O   0  0  0  0  0  0  0  0  0  0  0  0
    1.3140    2.5576   12.0419 C   0  0  0  0  0  0  0  0  0  0  0  0
   -0.3863   -2.6106   15.8150 C   0  0  0  0  0  0  0  0  0  0  0  0
   -1.7497   -2.8673   15.6804 C   0  0  0  0  0  0  0  0  0  0  0  0
   -3.6454   -4.3600   13.8213 H   0  0  0  0  0  0  0  0  0  0  0  0
   -5.2223   -3.6262   13.3728 H   0  0  0  0  0  0  0  0  0  0  0  0
   -3.7071   -3.0341   12.6111 H   0  0  0  0  0  0  0  0  0  0  0  0
   -4.5529   -0.3487   15.1344 H   0  0  0  0  0  0  0  0  0  0  0  0
   -4.2460   -0.6523   13.3908 H   0  0  0  0  0  0  0  0  0  0  0  0
   -5.7612   -1.2445   14.1525 H   0  0  0  0  0  0  0  0  0  0  0  0
   -4.3579   -2.1796   16.7908 H   0  0  0  0  0  0  0  0  0  0  0  0
   -5.5520   -3.2079   15.9289 H   0  0  0  0  0  0  0  0  0  0  0  0
   -3.9064   -3.8397   16.2746 H   0  0  0  0  0  0  0  0  0  0  0  0
   -2.5321   -0.4853   13.3757 H   0  0  0  0  0  0  0  0  0  0  0  0
   -0.1075   -0.0318   13.6408 H   0  0  0  0  0  0  0  0  0  0  0  0
    1.9791   -1.9422   16.0125 H   0  0  0  0  0  0  0  0  0  0  0  0
    5.1484    1.9765   13.2880 H   0  0  0  0  0  0  0  0  0  0  0  0
    6.8331    0.8820   15.3359 H   0  0  0  0  0  0  0  0  0  0  0  0
    6.2400   -0.7347   17.3354 H   0  0  0  0  0  0  0  0  0  0  0  0
    4.5981    2.3490   11.2292 H   0  0  0  0  0  0  0  0  0  0  0  0
    3.8383    3.8096    9.3966 H   0  0  0  0  0  0  0  0  0  0  0  0
    1.4559    4.4276    9.2120 H   0  0  0  0  0  0  0  0  0  0  0  0
   -1.4803    4.9031   13.5439 H   0  0  0  0  0  0  0  0  0  0  0  0
   -3.2586    5.3850   13.3409 H   0  0  0  0  0  0  0  0  0  0  0  0
   -5.5280    5.9962   12.5816 H   0  0  0  0  0  0  0  0  0  0  0  0
   -4.5619    4.6739    8.6295 H   0  0  0  0  0  0  0  0  0  0  0  0
   -2.2926    4.0626    9.3888 H   0  0  0  0  0  0  0  0  0  0  0  0
   -8.1777    6.4171   10.5156 H   0  0  0  0  0  0  0  0  0  0  0  0
    0.6121    2.2342   12.7963 H   0  0  0  0  0  0  0  0  0  0  0  0
    0.2066   -3.2125   16.4877 H   0  0  0  0  0  0  0  0  0  0  0  0
   -2.2073   -3.6587   16.2555 H   0  0  0  0  0  0  0  0  0  0  0  0
  1  2  1  0  0  0  0
  2  3  1  0  0  0  0
  2  4  1  0  0  0  0
  2  5  1  0  0  0  0
  5  6  2  0  0  0  0
  5 38  1  0  0  0  0
  6  7  1  0  0  0  0
  7  8  2  0  0  0  0
  8  9  1  0  0  0  0
  8 37  1  0  0  0  0
  9 10  1  0  0  0  0
 10 11  2  0  0  0  0
 10 18  1  0  0  0  0
 11 12  1  0  0  0  0
 12 13  2  0  0  0  0
 12 19  1  0  0  0  0
 13 14  1  0  0  0  0
 14 15  1  0  0  0  0
 14 18  1  0  0  0  0
 15 16  2  0  0  0  0
 16 17  1  0  0  0  0
 17 18  2  0  0  0  0
 19 20  2  0  0  0  0
 19 36  1  0  0  0  0
 20 21  1  0  0  0  0
 21 22  2  0  0  0  0
 22 23  1  0  0  0  0
 23 24  1  0  0  0  0
 23 36  2  0  0  0  0
 24 25  2  0  0  0  0
 25 26  1  0  0  0  0
 25 27  1  0  0  0  0
 27 28  2  0  0  0  0
 27 32  1  0  0  0  0
 28 29  1  0  0  0  0
 29 30  2  0  0  0  0
 30 31  1  0  0  0  0
 30 33  1  0  0  0  0
 31 32  2  0  0  0  0
 33 34  2  0  0  0  0
 33 35  1  0  0  0  0
 37 38  2  0  0  0  0
  1 39  1  0  0  0  0
  1 40  1  0  0  0  0
  1 41  1  0  0  0  0
  3 42  1  0  0  0  0
  3 43  1  0  0  0  0
  3 44  1  0  0  0  0
  4 45  1  0  0  0  0
  4 46  1  0  0  0  0
  4 47  1  0  0  0  0
  6 48  1  0  0  0  0
  7 49  1  0  0  0  0
  9 50  1  0  0  0  0
 13 51  1  0  0  0  0
 15 52  1  0  0  0  0
 16 53  1  0  0  0  0
 20 54  1  0  0  0  0
 21 55  1  0  0  0  0
 22 56  1  0  0  0  0
 26 57  1  0  0  0  0
 28 58  1  0  0  0  0
 29 59  1  0  0  0  0
 31 60  1  0  0  0  0
 32 61  1  0  0  0  0
 35 62  1  0  0  0  0
 36 63  1  0  0  0  0
 37 64  1  0  0  0  0
 38 65  1  0  0  0  0
M  END
> <IC50[nM]>
65

$$$$
CHEMBL3264994
  -OEChem-05192314333D
 Structure written by MMmdl.
 65 69  0     0  0  0  0  0  0999 V2000
   -4.1531   -3.4266   13.5369 C   0  0  0  0  0  0  0  0  0  0  0  0
   -3.9919   -2.3907   14.6629 C   0  0  0  0  0  0  0  0  0  0  0  0
   -4.6875   -1.0646   14.3101 C   0  0  0  0  0  0  0  0  0  0  0  0
   -4.4873   -2.9438   16.0103 C   0  0  0  0  0  0  0  0  0  0  0  0
   -2.5261   -2.1057   14.8053 C   0  0  0  0  0  0  0  0  0  0  0  0
   -1.9389   -1.0760   14.0580 C   0  0  0  0  0  0  0  0  0  0  0  0
   -0.5664   -0.8256   14.2115 C   0  0  0  0  0  0  0  0  0  0  0  0
    0.2220   -1.5829   15.0890 C   0  0  0  0  0  0  0  0  0  0  0  0
    1.5930   -1.3491   15.3060 N   0  0  0  0  0  0  0  0  0  0  0  0
    2.5452   -0.4689   14.7536 C   0  0  0  0  0  0  0  0  0  0  0  0
    2.2178    0.3551   13.7190 N   0  0  0  0  0  0  0  0  0  0  0  0
    3.1227    1.2406   13.2181 C   0  0  0  0  0  0  0  0  0  0  0  0
    4.4207    1.3039   13.7175 C   0  0  0  0  0  0  0  0  0  0  0  0
    4.7482    0.4921   14.7654 N   0  0  0  0  0  0  0  0  0  0  0  0
    5.8898    0.3836   15.5035 C   0  0  0  0  0  0  0  0  0  0  0  0
    5.5715   -0.5089   16.5177 C   0  0  0  0  0  0  0  0  0  0  0  0
    4.3818   -1.0543   16.3920 N   0  0  0  0  0  0  0  0  0  0  0  0
    3.8330   -0.4170   15.3252 C   0  0  0  0  0  0  0  0  0  0  0  0
    2.6564    2.1560   12.1340 C   0  0  0  0  0  0  0  0  0  0  0  0
    3.5566    2.6280   11.1666 C   0  0  0  0  0  0  0  0  0  0  0  0
    3.1294    3.4499   10.1277 C   0  0  0  0  0  0  0  0  0  0  0  0
    1.7879    3.8078   10.0318 C   0  0  0  0  0  0  0  0  0  0  0  0
    0.8660    3.3707   10.9895 C   0  0  0  0  0  0  0  0  0  0  0  0
   -0.5399    3.7537   10.8977 N   0  0  0  0  0  0  0  0  0  0  0  0
   -1.2550    4.3141   11.8736 C   0  0  0  0  0  0  0  0  0  0  0  0
   -0.8140    4.4931   13.0050 O   0  0  0  0  0  0  0  0  0  0  0  0
   -2.6333    4.6854   11.4124 C   0  0  0  0  0  0  0  0  0  0  0  0
   -3.5436    5.2295   12.3108 C   0  0  0  0  0  0  0  0  0  0  0  0
   -4.8206    5.5735   11.8835 C   0  0  0  0  0  0  0  0  0  0  0  0
   -5.1873    5.3735   10.5579 C   0  0  0  0  0  0  0  0  0  0  0  0
   -4.2770    4.8294    9.6596 C   0  0  0  0  0  0  0  0  0  0  0  0
   -3.0000    4.4854   10.0869 C   0  0  0  0  0  0  0  0  0  0  0  0
   -6.5655    5.7447   10.0968 C   0  0  0  0  0  0  0  0  0  0  0  0
   -6.9139    5.5749    8.9190 O   0  0  0  0  0  0  0  0  0  0  0  0
   -7.3451    6.2270   10.9318 O   0  0  0  0  0  0  0  0  0  0  0  0
    1.3140    2.5576   12.0419 C   0  0  0  0  0  0  0  0  0  0  0  0
   -0.3863   -2.6106   15.8150 C   0  0  0  0  0  0  0  0  0  0  0  0
   -1.7497   -2.8673   15.6804 C   0  0  0  0  0  0  0  0  0  0  0  0
   -3.6454   -4.3600   13.8213 H   0  0  0  0  0  0  0  0  0  0  0  0
   -5.2223   -3.6262   13.3728 H   0  0  0  0  0  0  0  0  0  0  0  0
   -3.7071   -3.0341   12.6111 H   0  0  0  0  0  0  0  0  0  0  0  0
   -4.5529   -0.3487   15.1344 H   0  0  0  0  0  0  0  0  0  0  0  0
   -4.2460   -0.6523   13.3908 H   0  0  0  0  0  0  0  0  0  0  0  0
   -5.7612   -1.2445   14.1525 H   0  0  0  0  0  0  0  0  0  0  0  0
   -4.3579   -2.1796   16.7908 H   0  0  0  0  0  0  0  0  0  0  0  0
   -5.5520   -3.2079   15.9289 H   0  0  0  0  0  0  0  0  0  0  0  0
   -3.9064   -3.8397   16.2746 H   0  0  0  0  0  0  0  0  0  0  0  0
   -2.5321   -0.4853   13.3757 H   0  0  0  0  0  0  0  0  0  0  0  0
   -0.1075   -0.0318   13.6408 H   0  0  0  0  0  0  0  0  0  0  0  0
    1.3010    0.3089   13.3224 H   0  0  0  0  0  0  0  0  0  0  0  0
    5.1484    1.9765   13.2880 H   0  0  0  0  0  0  0  0  0  0  0  0
    6.8331    0.8820   15.3359 H   0  0  0  0  0  0  0  0  0  0  0  0
    6.2400   -0.7347   17.3354 H   0  0  0  0  0  0  0  0  0  0  0  0
    4.5981    2.3490   11.2292 H   0  0  0  0  0  0  0  0  0  0  0  0
    3.8383    3.8096    9.3966 H   0  0  0  0  0  0  0  0  0  0  0  0
    1.4559    4.4276    9.2120 H   0  0  0  0  0  0  0  0  0  0  0  0
   -1.0057    3.5812   10.0298 H   0  0  0  0  0  0  0  0  0  0  0  0
   -3.2586    5.3850   13.3409 H   0  0  0  0  0  0  0  0  0  0  0  0
   -5.5280    5.9962   12.5816 H   0  0  0  0  0  0  0  0  0  0  0  0
   -4.5619    4.6739    8.6295 H   0  0  0  0  0  0  0  0  0  0  0  0
   -2.2926    4.0626    9.3888 H   0  0  0  0  0  0  0  0  0  0  0  0
   -8.1777    6.4171   10.5156 H   0  0  0  0  0  0  0  0  0  0  0  0
    0.6121    2.2342   12.7963 H   0  0  0  0  0  0  0  0  0  0  0  0
    0.2066   -3.2125   16.4877 H   0  0  0  0  0  0  0  0  0  0  0  0
   -2.2073   -3.6587   16.2555 H   0  0  0  0  0  0  0  0  0  0  0  0
  1  2  1  0  0  0  0
  2  3  1  0  0  0  0
  2  4  1  0  0  0  0
  2  5  1  0  0  0  0
  5  6  2  0  0  0  0
  5 38  1  0  0  0  0
  6  7  1  0  0  0  0
  7  8  2  0  0  0  0
  8  9  1  0  0  0  0
  8 37  1  0  0  0  0
  9 10  2  0  0  0  0
 10 11  1  0  0  0  0
 10 18  1  0  0  0  0
 11 12  1  0  0  0  0
 12 13  2  0  0  0  0
 12 19  1  0  0  0  0
 13 14  1  0  0  0  0
 14 15  1  0  0  0  0
 14 18  1  0  0  0  0
 15 16  2  0  0  0  0
 16 17  1  0  0  0  0
 17 18  2  0  0  0  0
 19 20  2  0  0  0  0
 19 36  1  0  0  0  0
 20 21  1  0  0  0  0
 21 22  2  0  0  0  0
 22 23  1  0  0  0  0
 23 24  1  0  0  0  0
 23 36  2  0  0  0  0
 24 25  1  0  0  0  0
 25 26  2  0  0  0  0
 25 27  1  0  0  0  0
 27 28  2  0  0  0  0
 27 32  1  0  0  0  0
 28 29  1  0  0  0  0
 29 30  2  0  0  0  0
 30 31  1  0  0  0  0
 30 33  1  0  0  0  0
 31 32  2  0  0  0  0
 33 34  2  0  0  0  0
 33 35  1  0  0  0  0
 37 38  2  0  0  0  0
  1 39  1  0  0  0  0
  1 40  1  0  0  0  0
  1 41  1  0  0  0  0
  3 42  1  0  0  0  0
  3 43  1  0  0  0  0
  3 44  1  0  0  0  0
  4 45  1  0  0  0  0
  4 46  1  0  0  0  0
  4 47  1  0  0  0  0
  6 48  1  0  0  0  0
  7 49  1  0  0  0  0
 11 50  1  0  0  0  0
 13 51  1  0  0  0  0
 15 52  1  0  0  0  0
 16 53  1  0  0  0  0
 20 54  1  0  0  0  0
 21 55  1  0  0  0  0
 22 56  1  0  0  0  0
 24 57  1  0  0  0  0
 28 58  1  0  0  0  0
 29 59  1  0  0  0  0
 31 60  1  0  0  0  0
 32 61  1  0  0  0  0
 35 62  1  0  0  0  0
 36 63  1  0  0  0  0
 37 64  1  0  0  0  0
 38 65  1  0  0  0  0
M  END
> <IC50[nM]>
65

$$$$
CHEMBL3264994
  -OEChem-05192314333D
 Structure written by MMmdl.
 65 69  0     0  0  0  0  0  0999 V2000
   -4.1531   -3.4266   13.5369 C   0  0  0  0  0  0  0  0  0  0  0  0
   -3.9919   -2.3907   14.6629 C   0  0  0  0  0  0  0  0  0  0  0  0
   -4.6875   -1.0646   14.3101 C   0  0  0  0  0  0  0  0  0  0  0  0
   -4.4873   -2.9438   16.0103 C   0  0  0  0  0  0  0  0  0  0  0  0
   -2.5261   -2.1057   14.8053 C   0  0  0  0  0  0  0  0  0  0  0  0
   -1.9389   -1.0760   14.0580 C   0  0  0  0  0  0  0  0  0  0  0  0
   -0.5664   -0.8256   14.2115 C   0  0  0  0  0  0  0  0  0  0  0  0
    0.2220   -1.5829   15.0890 C   0  0  0  0  0  0  0  0  0  0  0  0
    1.5930   -1.3491   15.3060 N   0  0  0  0  0  0  0  0  0  0  0  0
    2.5452   -0.4689   14.7536 C   0  0  0  0  0  0  0  0  0  0  0  0
    2.2178    0.3551   13.7190 N   0  0  0  0  0  0  0  0  0  0  0  0
    3.1227    1.2406   13.2181 C   0  0  0  0  0  0  0  0  0  0  0  0
    4.4207    1.3039   13.7175 C   0  0  0  0  0  0  0  0  0  0  0  0
    4.7482    0.4921   14.7654 N   0  0  0  0  0  0  0  0  0  0  0  0
    5.8898    0.3836   15.5035 C   0  0  0  0  0  0  0  0  0  0  0  0
    5.5715   -0.5089   16.5177 C   0  0  0  0  0  0  0  0  0  0  0  0
    4.3818   -1.0543   16.3920 N   0  0  0  0  0  0  0  0  0  0  0  0
    3.8330   -0.4170   15.3252 C   0  0  0  0  0  0  0  0  0  0  0  0
    2.6564    2.1560   12.1340 C   0  0  0  0  0  0  0  0  0  0  0  0
    3.5566    2.6280   11.1666 C   0  0  0  0  0  0  0  0  0  0  0  0
    3.1294    3.4499   10.1277 C   0  0  0  0  0  0  0  0  0  0  0  0
    1.7879    3.8078   10.0318 C   0  0  0  0  0  0  0  0  0  0  0  0
    0.8660    3.3707   10.9895 C   0  0  0  0  0  0  0  0  0  0  0  0
   -0.5399    3.7537   10.8977 N   0  0  0  0  0  0  0  0  0  0  0  0
   -1.2550    4.3141   11.8736 C   0  0  0  0  0  0  0  0  0  0  0  0
   -0.8140    4.4931   13.0050 O   0  0  0  0  0  0  0  0  0  0  0  0
   -2.6333    4.6854   11.4124 C   0  0  0  0  0  0  0  0  0  0  0  0
   -3.5436    5.2295   12.3108 C   0  0  0  0  0  0  0  0  0  0  0  0
   -4.8206    5.5735   11.8835 C   0  0  0  0  0  0  0  0  0  0  0  0
   -5.1873    5.3735   10.5579 C   0  0  0  0  0  0  0  0  0  0  0  0
   -4.2770    4.8294    9.6596 C   0  0  0  0  0  0  0  0  0  0  0  0
   -3.0000    4.4854   10.0869 C   0  0  0  0  0  0  0  0  0  0  0  0
   -6.5655    5.7447   10.0968 C   0  0  0  0  0  0  0  0  0  0  0  0
   -6.9139    5.5749    8.9190 O   0  0  0  0  0  0  0  0  0  0  0  0
   -7.3451    6.2270   10.9318 O   0  0  0  0  0  0  0  0  0  0  0  0
    1.3140    2.5576   12.0419 C   0  0  0  0  0  0  0  0  0  0  0  0
   -0.3863   -2.6106   15.8150 C   0  0  0  0  0  0  0  0  0  0  0  0
   -1.7497   -2.8673   15.6804 C   0  0  0  0  0  0  0  0  0  0  0  0
   -3.6454   -4.3600   13.8213 H   0  0  0  0  0  0  0  0  0  0  0  0
   -5.2223   -3.6262   13.3728 H   0  0  0  0  0  0  0  0  0  0  0  0
   -3.7071   -3.0341   12.6111 H   0  0  0  0  0  0  0  0  0  0  0  0
   -4.5529   -0.3487   15.1344 H   0  0  0  0  0  0  0  0  0  0  0  0
   -4.2460   -0.6523   13.3908 H   0  0  0  0  0  0  0  0  0  0  0  0
   -5.7612   -1.2445   14.1525 H   0  0  0  0  0  0  0  0  0  0  0  0
   -4.3579   -2.1796   16.7908 H   0  0  0  0  0  0  0  0  0  0  0  0
   -5.5520   -3.2079   15.9289 H   0  0  0  0  0  0  0  0  0  0  0  0
   -3.9064   -3.8397   16.2746 H   0  0  0  0  0  0  0  0  0  0  0  0
   -2.5321   -0.4853   13.3757 H   0  0  0  0  0  0  0  0  0  0  0  0
   -0.1075   -0.0318   13.6408 H   0  0  0  0  0  0  0  0  0  0  0  0
    1.3010    0.3089   13.3224 H   0  0  0  0  0  0  0  0  0  0  0  0
    5.1484    1.9765   13.2880 H   0  0  0  0  0  0  0  0  0  0  0  0
    6.8331    0.8820   15.3359 H   0  0  0  0  0  0  0  0  0  0  0  0
    6.2400   -0.7347   17.3354 H   0  0  0  0  0  0  0  0  0  0  0  0
    4.5981    2.3490   11.2292 H   0  0  0  0  0  0  0  0  0  0  0  0
    3.8383    3.8096    9.3966 H   0  0  0  0  0  0  0  0  0  0  0  0
    1.4559    4.4276    9.2120 H   0  0  0  0  0  0  0  0  0  0  0  0
   -1.4803    4.9031   13.5439 H   0  0  0  0  0  0  0  0  0  0  0  0
   -3.2586    5.3850   13.3409 H   0  0  0  0  0  0  0  0  0  0  0  0
   -5.5280    5.9962   12.5816 H   0  0  0  0  0  0  0  0  0  0  0  0
   -4.5619    4.6739    8.6295 H   0  0  0  0  0  0  0  0  0  0  0  0
   -2.2926    4.0626    9.3888 H   0  0  0  0  0  0  0  0  0  0  0  0
   -8.1777    6.4171   10.5156 H   0  0  0  0  0  0  0  0  0  0  0  0
    0.6121    2.2342   12.7963 H   0  0  0  0  0  0  0  0  0  0  0  0
    0.2066   -3.2125   16.4877 H   0  0  0  0  0  0  0  0  0  0  0  0
   -2.2073   -3.6587   16.2555 H   0  0  0  0  0  0  0  0  0  0  0  0
  1  2  1  0  0  0  0
  2  3  1  0  0  0  0
  2  4  1  0  0  0  0
  2  5  1  0  0  0  0
  5  6  2  0  0  0  0
  5 38  1  0  0  0  0
  6  7  1  0  0  0  0
  7  8  2  0  0  0  0
  8  9  1  0  0  0  0
  8 37  1  0  0  0  0
  9 10  2  0  0  0  0
 10 11  1  0  0  0  0
 10 18  1  0  0  0  0
 11 12  1  0  0  0  0
 12 13  2  0  0  0  0
 12 19  1  0  0  0  0
 13 14  1  0  0  0  0
 14 15  1  0  0  0  0
 14 18  1  0  0  0  0
 15 16  2  0  0  0  0
 16 17  1  0  0  0  0
 17 18  2  0  0  0  0
 19 20  2  0  0  0  0
 19 36  1  0  0  0  0
 20 21  1  0  0  0  0
 21 22  2  0  0  0  0
 22 23  1  0  0  0  0
 23 24  1  0  0  0  0
 23 36  2  0  0  0  0
 24 25  2  0  0  0  0
 25 26  1  0  0  0  0
 25 27  1  0  0  0  0
 27 28  2  0  0  0  0
 27 32  1  0  0  0  0
 28 29  1  0  0  0  0
 29 30  2  0  0  0  0
 30 31  1  0  0  0  0
 30 33  1  0  0  0  0
 31 32  2  0  0  0  0
 33 34  2  0  0  0  0
 33 35  1  0  0  0  0
 37 38  2  0  0  0  0
  1 39  1  0  0  0  0
  1 40  1  0  0  0  0
  1 41  1  0  0  0  0
  3 42  1  0  0  0  0
  3 43  1  0  0  0  0
  3 44  1  0  0  0  0
  4 45  1  0  0  0  0
  4 46  1  0  0  0  0
  4 47  1  0  0  0  0
  6 48  1  0  0  0  0
  7 49  1  0  0  0  0
 11 50  1  0  0  0  0
 13 51  1  0  0  0  0
 15 52  1  0  0  0  0
 16 53  1  0  0  0  0
 20 54  1  0  0  0  0
 21 55  1  0  0  0  0
 22 56  1  0  0  0  0
 26 57  1  0  0  0  0
 28 58  1  0  0  0  0
 29 59  1  0  0  0  0
 31 60  1  0  0  0  0
 32 61  1  0  0  0  0
 35 62  1  0  0  0  0
 36 63  1  0  0  0  0
 37 64  1  0  0  0  0
 38 65  1  0  0  0  0
M  END
> <IC50[nM]>
65

$$$$
CHEMBL3264994
  -OEChem-05192314333D
 Structure written by MMmdl.
 65 69  0     0  0  0  0  0  0999 V2000
   -4.1531   -3.4266   13.5369 C   0  0  0  0  0  0  0  0  0  0  0  0
   -3.9919   -2.3907   14.6629 C   0  0  0  0  0  0  0  0  0  0  0  0
   -4.6875   -1.0646   14.3101 C   0  0  0  0  0  0  0  0  0  0  0  0
   -4.4873   -2.9438   16.0103 C   0  0  0  0  0  0  0  0  0  0  0  0
   -2.5261   -2.1057   14.8053 C   0  0  0  0  0  0  0  0  0  0  0  0
   -1.9389   -1.0760   14.0580 C   0  0  0  0  0  0  0  0  0  0  0  0
   -0.5664   -0.8256   14.2115 C   0  0  0  0  0  0  0  0  0  0  0  0
    0.2220   -1.5829   15.0890 C   0  0  0  0  0  0  0  0  0  0  0  0
    1.5930   -1.3491   15.3060 N   0  0  0  0  0  0  0  0  0  0  0  0
    2.5452   -0.4689   14.7536 C   0  0  0  0  0  0  0  0  0  0  0  0
    2.2178    0.3551   13.7190 N   0  0  0  0  0  0  0  0  0  0  0  0
    3.1227    1.2406   13.2181 C   0  0  0  0  0  0  0  0  0  0  0  0
    4.4207    1.3039   13.7175 C   0  0  0  0  0  0  0  0  0  0  0  0
    4.7482    0.4921   14.7654 N   0  0  0  0  0  0  0  0  0  0  0  0
    5.8898    0.3836   15.5035 C   0  0  0  0  0  0  0  0  0  0  0  0
    5.5715   -0.5089   16.5177 C   0  0  0  0  0  0  0  0  0  0  0  0
    4.3818   -1.0543   16.3920 N   0  0  0  0  0  0  0  0  0  0  0  0
    3.8330   -0.4170   15.3252 C   0  0  0  0  0  0  0  0  0  0  0  0
    2.6564    2.1560   12.1340 C   0  0  0  0  0  0  0  0  0  0  0  0
    3.5566    2.6280   11.1666 C   0  0  0  0  0  0  0  0  0  0  0  0
    3.1294    3.4499   10.1277 C   0  0  0  0  0  0  0  0  0  0  0  0
    1.7879    3.8078   10.0318 C   0  0  0  0  0  0  0  0  0  0  0  0
    0.8660    3.3707   10.9895 C   0  0  0  0  0  0  0  0  0  0  0  0
   -0.5399    3.7537   10.8977 N   0  0  0  0  0  0  0  0  0  0  0  0
   -1.2550    4.3141   11.8736 C   0  0  0  0  0  0  0  0  0  0  0  0
   -0.8140    4.4931   13.0050 O   0  0  0  0  0  0  0  0  0  0  0  0
   -2.6333    4.6854   11.4124 C   0  0  0  0  0  0  0  0  0  0  0  0
   -3.5436    5.2295   12.3108 C   0  0  0  0  0  0  0  0  0  0  0  0
   -4.8206    5.5735   11.8835 C   0  0  0  0  0  0  0  0  0  0  0  0
   -5.1873    5.3735   10.5579 C   0  0  0  0  0  0  0  0  0  0  0  0
   -4.2770    4.8294    9.6596 C   0  0  0  0  0  0  0  0  0  0  0  0
   -3.0000    4.4854   10.0869 C   0  0  0  0  0  0  0  0  0  0  0  0
   -6.5655    5.7447   10.0968 C   0  0  0  0  0  0  0  0  0  0  0  0
   -6.9139    5.5749    8.9190 O   0  0  0  0  0  0  0  0  0  0  0  0
   -7.3451    6.2270   10.9318 O   0  0  0  0  0  0  0  0  0  0  0  0
    1.3140    2.5576   12.0419 C   0  0  0  0  0  0  0  0  0  0  0  0
   -0.3863   -2.6106   15.8150 C   0  0  0  0  0  0  0  0  0  0  0  0
   -1.7497   -2.8673   15.6804 C   0  0  0  0  0  0  0  0  0  0  0  0
   -3.6454   -4.3600   13.8213 H   0  0  0  0  0  0  0  0  0  0  0  0
   -5.2223   -3.6262   13.3728 H   0  0  0  0  0  0  0  0  0  0  0  0
   -3.7071   -3.0341   12.6111 H   0  0  0  0  0  0  0  0  0  0  0  0
   -4.5529   -0.3487   15.1344 H   0  0  0  0  0  0  0  0  0  0  0  0
   -4.2460   -0.6523   13.3908 H   0  0  0  0  0  0  0  0  0  0  0  0
   -5.7612   -1.2445   14.1525 H   0  0  0  0  0  0  0  0  0  0  0  0
   -4.3579   -2.1796   16.7908 H   0  0  0  0  0  0  0  0  0  0  0  0
   -5.5520   -3.2079   15.9289 H   0  0  0  0  0  0  0  0  0  0  0  0
   -3.9064   -3.8397   16.2746 H   0  0  0  0  0  0  0  0  0  0  0  0
   -2.5321   -0.4853   13.3757 H   0  0  0  0  0  0  0  0  0  0  0  0
   -0.1075   -0.0318   13.6408 H   0  0  0  0  0  0  0  0  0  0  0  0
    5.1014    1.0581   12.8891 H   0  0  0  0  0  0  0  0  0  0  0  0
    4.5958    2.3407   14.0407 H   0  0  0  0  0  0  0  0  0  0  0  0
    6.8331    0.8820   15.3359 H   0  0  0  0  0  0  0  0  0  0  0  0
    6.2400   -0.7347   17.3354 H   0  0  0  0  0  0  0  0  0  0  0  0
    4.5981    2.3490   11.2292 H   0  0  0  0  0  0  0  0  0  0  0  0
    3.8383    3.8096    9.3966 H   0  0  0  0  0  0  0  0  0  0  0  0
    1.4559    4.4276    9.2120 H   0  0  0  0  0  0  0  0  0  0  0  0
   -1.0057    3.5812   10.0298 H   0  0  0  0  0  0  0  0  0  0  0  0
   -3.2586    5.3850   13.3409 H   0  0  0  0  0  0  0  0  0  0  0  0
   -5.5280    5.9962   12.5816 H   0  0  0  0  0  0  0  0  0  0  0  0
   -4.5619    4.6739    8.6295 H   0  0  0  0  0  0  0  0  0  0  0  0
   -2.2926    4.0626    9.3888 H   0  0  0  0  0  0  0  0  0  0  0  0
   -8.1777    6.4171   10.5156 H   0  0  0  0  0  0  0  0  0  0  0  0
    0.6121    2.2342   12.7963 H   0  0  0  0  0  0  0  0  0  0  0  0
    0.2066   -3.2125   16.4877 H   0  0  0  0  0  0  0  0  0  0  0  0
   -2.2073   -3.6587   16.2555 H   0  0  0  0  0  0  0  0  0  0  0  0
  1  2  1  0  0  0  0
  2  3  1  0  0  0  0
  2  4  1  0  0  0  0
  2  5  1  0  0  0  0
  5  6  2  0  0  0  0
  5 38  1  0  0  0  0
  6  7  1  0  0  0  0
  7  8  2  0  0  0  0
  8  9  1  0  0  0  0
  8 37  1  0  0  0  0
  9 10  2  0  0  0  0
 10 11  1  0  0  0  0
 10 18  1  0  0  0  0
 11 12  2  0  0  0  0
 12 13  1  0  0  0  0
 12 19  1  0  0  0  0
 13 14  1  0  0  0  0
 14 15  1  0  0  0  0
 14 18  1  0  0  0  0
 15 16  2  0  0  0  0
 16 17  1  0  0  0  0
 17 18  2  0  0  0  0
 19 20  2  0  0  0  0
 19 36  1  0  0  0  0
 20 21  1  0  0  0  0
 21 22  2  0  0  0  0
 22 23  1  0  0  0  0
 23 24  1  0  0  0  0
 23 36  2  0  0  0  0
 24 25  1  0  0  0  0
 25 26  2  0  0  0  0
 25 27  1  0  0  0  0
 27 28  2  0  0  0  0
 27 32  1  0  0  0  0
 28 29  1  0  0  0  0
 29 30  2  0  0  0  0
 30 31  1  0  0  0  0
 30 33  1  0  0  0  0
 31 32  2  0  0  0  0
 33 34  2  0  0  0  0
 33 35  1  0  0  0  0
 37 38  2  0  0  0  0
  1 39  1  0  0  0  0
  1 40  1  0  0  0  0
  1 41  1  0  0  0  0
  3 42  1  0  0  0  0
  3 43  1  0  0  0  0
  3 44  1  0  0  0  0
  4 45  1  0  0  0  0
  4 46  1  0  0  0  0
  4 47  1  0  0  0  0
  6 48  1  0  0  0  0
  7 49  1  0  0  0  0
 13 50  1  0  0  0  0
 13 51  1  0  0  0  0
 15 52  1  0  0  0  0
 16 53  1  0  0  0  0
 20 54  1  0  0  0  0
 21 55  1  0  0  0  0
 22 56  1  0  0  0  0
 24 57  1  0  0  0  0
 28 58  1  0  0  0  0
 29 59  1  0  0  0  0
 31 60  1  0  0  0  0
 32 61  1  0  0  0  0
 35 62  1  0  0  0  0
 36 63  1  0  0  0  0
 37 64  1  0  0  0  0
 38 65  1  0  0  0  0
M  END
> <IC50[nM]>
65

$$$$
CHEMBL3264994
  -OEChem-05192314333D
 Structure written by MMmdl.
 65 69  0     0  0  0  0  0  0999 V2000
   -4.1531   -3.4266   13.5369 C   0  0  0  0  0  0  0  0  0  0  0  0
   -3.9919   -2.3907   14.6629 C   0  0  0  0  0  0  0  0  0  0  0  0
   -4.6875   -1.0646   14.3101 C   0  0  0  0  0  0  0  0  0  0  0  0
   -4.4873   -2.9438   16.0103 C   0  0  0  0  0  0  0  0  0  0  0  0
   -2.5261   -2.1057   14.8053 C   0  0  0  0  0  0  0  0  0  0  0  0
   -1.9389   -1.0760   14.0580 C   0  0  0  0  0  0  0  0  0  0  0  0
   -0.5664   -0.8256   14.2115 C   0  0  0  0  0  0  0  0  0  0  0  0
    0.2220   -1.5829   15.0890 C   0  0  0  0  0  0  0  0  0  0  0  0
    1.5930   -1.3491   15.3060 N   0  0  0  0  0  0  0  0  0  0  0  0
    2.5452   -0.4689   14.7536 C   0  0  0  0  0  0  0  0  0  0  0  0
    2.2178    0.3551   13.7190 N   0  0  0  0  0  0  0  0  0  0  0  0
    3.1227    1.2406   13.2181 C   0  0  0  0  0  0  0  0  0  0  0  0
    4.4207    1.3039   13.7175 C   0  0  0  0  0  0  0  0  0  0  0  0
    4.7482    0.4921   14.7654 N   0  0  0  0  0  0  0  0  0  0  0  0
    5.8898    0.3836   15.5035 C   0  0  0  0  0  0  0  0  0  0  0  0
    5.5715   -0.5089   16.5177 C   0  0  0  0  0  0  0  0  0  0  0  0
    4.3818   -1.0543   16.3920 N   0  0  0  0  0  0  0  0  0  0  0  0
    3.8330   -0.4170   15.3252 C   0  0  0  0  0  0  0  0  0  0  0  0
    2.6564    2.1560   12.1340 C   0  0  0  0  0  0  0  0  0  0  0  0
    3.5566    2.6280   11.1666 C   0  0  0  0  0  0  0  0  0  0  0  0
    3.1294    3.4499   10.1277 C   0  0  0  0  0  0  0  0  0  0  0  0
    1.7879    3.8078   10.0318 C   0  0  0  0  0  0  0  0  0  0  0  0
    0.8660    3.3707   10.9895 C   0  0  0  0  0  0  0  0  0  0  0  0
   -0.5399    3.7537   10.8977 N   0  0  0  0  0  0  0  0  0  0  0  0
   -1.2550    4.3141   11.8736 C   0  0  0  0  0  0  0  0  0  0  0  0
   -0.8140    4.4931   13.0050 O   0  0  0  0  0  0  0  0  0  0  0  0
   -2.6333    4.6854   11.4124 C   0  0  0  0  0  0  0  0  0  0  0  0
   -3.5436    5.2295   12.3108 C   0  0  0  0  0  0  0  0  0  0  0  0
   -4.8206    5.5735   11.8835 C   0  0  0  0  0  0  0  0  0  0  0  0
   -5.1873    5.3735   10.5579 C   0  0  0  0  0  0  0  0  0  0  0  0
   -4.2770    4.8294    9.6596 C   0  0  0  0  0  0  0  0  0  0  0  0
   -3.0000    4.4854   10.0869 C   0  0  0  0  0  0  0  0  0  0  0  0
   -6.5655    5.7447   10.0968 C   0  0  0  0  0  0  0  0  0  0  0  0
   -6.9139    5.5749    8.9190 O   0  0  0  0  0  0  0  0  0  0  0  0
   -7.3451    6.2270   10.9318 O   0  0  0  0  0  0  0  0  0  0  0  0
    1.3140    2.5576   12.0419 C   0  0  0  0  0  0  0  0  0  0  0  0
   -0.3863   -2.6106   15.8150 C   0  0  0  0  0  0  0  0  0  0  0  0
   -1.7497   -2.8673   15.6804 C   0  0  0  0  0  0  0  0  0  0  0  0
   -3.6454   -4.3600   13.8213 H   0  0  0  0  0  0  0  0  0  0  0  0
   -5.2223   -3.6262   13.3728 H   0  0  0  0  0  0  0  0  0  0  0  0
   -3.7071   -3.0341   12.6111 H   0  0  0  0  0  0  0  0  0  0  0  0
   -4.5529   -0.3487   15.1344 H   0  0  0  0  0  0  0  0  0  0  0  0
   -4.2460   -0.6523   13.3908 H   0  0  0  0  0  0  0  0  0  0  0  0
   -5.7612   -1.2445   14.1525 H   0  0  0  0  0  0  0  0  0  0  0  0
   -4.3579   -2.1796   16.7908 H   0  0  0  0  0  0  0  0  0  0  0  0
   -5.5520   -3.2079   15.9289 H   0  0  0  0  0  0  0  0  0  0  0  0
   -3.9064   -3.8397   16.2746 H   0  0  0  0  0  0  0  0  0  0  0  0
   -2.5321   -0.4853   13.3757 H   0  0  0  0  0  0  0  0  0  0  0  0
   -0.1075   -0.0318   13.6408 H   0  0  0  0  0  0  0  0  0  0  0  0
    5.1014    1.0581   12.8891 H   0  0  0  0  0  0  0  0  0  0  0  0
    4.5958    2.3407   14.0407 H   0  0  0  0  0  0  0  0  0  0  0  0
    6.8331    0.8820   15.3359 H   0  0  0  0  0  0  0  0  0  0  0  0
    6.2400   -0.7347   17.3354 H   0  0  0  0  0  0  0  0  0  0  0  0
    4.5981    2.3490   11.2292 H   0  0  0  0  0  0  0  0  0  0  0  0
    3.8383    3.8096    9.3966 H   0  0  0  0  0  0  0  0  0  0  0  0
    1.4559    4.4276    9.2120 H   0  0  0  0  0  0  0  0  0  0  0  0
   -1.4803    4.9031   13.5439 H   0  0  0  0  0  0  0  0  0  0  0  0
   -3.2586    5.3850   13.3409 H   0  0  0  0  0  0  0  0  0  0  0  0
   -5.5280    5.9962   12.5816 H   0  0  0  0  0  0  0  0  0  0  0  0
   -4.5619    4.6739    8.6295 H   0  0  0  0  0  0  0  0  0  0  0  0
   -2.2926    4.0626    9.3888 H   0  0  0  0  0  0  0  0  0  0  0  0
   -8.1777    6.4171   10.5156 H   0  0  0  0  0  0  0  0  0  0  0  0
    0.6121    2.2342   12.7963 H   0  0  0  0  0  0  0  0  0  0  0  0
    0.2066   -3.2125   16.4877 H   0  0  0  0  0  0  0  0  0  0  0  0
   -2.2073   -3.6587   16.2555 H   0  0  0  0  0  0  0  0  0  0  0  0
  1  2  1  0  0  0  0
  2  3  1  0  0  0  0
  2  4  1  0  0  0  0
  2  5  1  0  0  0  0
  5  6  2  0  0  0  0
  5 38  1  0  0  0  0
  6  7  1  0  0  0  0
  7  8  2  0  0  0  0
  8  9  1  0  0  0  0
  8 37  1  0  0  0  0
  9 10  2  0  0  0  0
 10 11  1  0  0  0  0
 10 18  1  0  0  0  0
 11 12  2  0  0  0  0
 12 13  1  0  0  0  0
 12 19  1  0  0  0  0
 13 14  1  0  0  0  0
 14 15  1  0  0  0  0
 14 18  1  0  0  0  0
 15 16  2  0  0  0  0
 16 17  1  0  0  0  0
 17 18  2  0  0  0  0
 19 20  2  0  0  0  0
 19 36  1  0  0  0  0
 20 21  1  0  0  0  0
 21 22  2  0  0  0  0
 22 23  1  0  0  0  0
 23 24  1  0  0  0  0
 23 36  2  0  0  0  0
 24 25  2  0  0  0  0
 25 26  1  0  0  0  0
 25 27  1  0  0  0  0
 27 28  2  0  0  0  0
 27 32  1  0  0  0  0
 28 29  1  0  0  0  0
 29 30  2  0  0  0  0
 30 31  1  0  0  0  0
 30 33  1  0  0  0  0
 31 32  2  0  0  0  0
 33 34  2  0  0  0  0
 33 35  1  0  0  0  0
 37 38  2  0  0  0  0
  1 39  1  0  0  0  0
  1 40  1  0  0  0  0
  1 41  1  0  0  0  0
  3 42  1  0  0  0  0
  3 43  1  0  0  0  0
  3 44  1  0  0  0  0
  4 45  1  0  0  0  0
  4 46  1  0  0  0  0
  4 47  1  0  0  0  0
  6 48  1  0  0  0  0
  7 49  1  0  0  0  0
 13 50  1  0  0  0  0
 13 51  1  0  0  0  0
 15 52  1  0  0  0  0
 16 53  1  0  0  0  0
 20 54  1  0  0  0  0
 21 55  1  0  0  0  0
 22 56  1  0  0  0  0
 26 57  1  0  0  0  0
 28 58  1  0  0  0  0
 29 59  1  0  0  0  0
 31 60  1  0  0  0  0
 32 61  1  0  0  0  0
 35 62  1  0  0  0  0
 36 63  1  0  0  0  0
 37 64  1  0  0  0  0
 38 65  1  0  0  0  0
M  END
> <IC50[nM]>
65

$$$$
CHEMBL3264994
  -OEChem-05192314333D
 Structure written by MMmdl.
 65 69  0     0  0  0  0  0  0999 V2000
   -4.1531   -3.4266   13.5369 C   0  0  0  0  0  0  0  0  0  0  0  0
   -3.9919   -2.3907   14.6629 C   0  0  0  0  0  0  0  0  0  0  0  0
   -4.6875   -1.0646   14.3101 C   0  0  0  0  0  0  0  0  0  0  0  0
   -4.4873   -2.9438   16.0103 C   0  0  0  0  0  0  0  0  0  0  0  0
   -2.5261   -2.1057   14.8053 C   0  0  0  0  0  0  0  0  0  0  0  0
   -1.9389   -1.0760   14.0580 C   0  0  0  0  0  0  0  0  0  0  0  0
   -0.5664   -0.8256   14.2115 C   0  0  0  0  0  0  0  0  0  0  0  0
    0.2220   -1.5829   15.0890 C   0  0  0  0  0  0  0  0  0  0  0  0
    1.5930   -1.3491   15.3060 N   0  0  0  0  0  0  0  0  0  0  0  0
    2.5452   -0.4689   14.7536 C   0  0  0  0  0  0  0  0  0  0  0  0
    2.2178    0.3551   13.7190 N   0  0  0  0  0  0  0  0  0  0  0  0
    3.1227    1.2406   13.2181 C   0  0  0  0  0  0  0  0  0  0  0  0
    4.4207    1.3039   13.7175 C   0  0  0  0  0  0  0  0  0  0  0  0
    4.7482    0.4921   14.7654 N   0  0  0  0  0  0  0  0  0  0  0  0
    5.8898    0.3836   15.5035 C   0  0  0  0  0  0  0  0  0  0  0  0
    5.5715   -0.5089   16.5177 C   0  0  0  0  0  0  0  0  0  0  0  0
    4.3818   -1.0543   16.3920 N   0  0  0  0  0  0  0  0  0  0  0  0
    3.8330   -0.4170   15.3252 C   0  0  0  0  0  0  0  0  0  0  0  0
    2.6564    2.1560   12.1340 C   0  0  0  0  0  0  0  0  0  0  0  0
    3.5566    2.6280   11.1666 C   0  0  0  0  0  0  0  0  0  0  0  0
    3.1294    3.4499   10.1277 C   0  0  0  0  0  0  0  0  0  0  0  0
    1.7879    3.8078   10.0318 C   0  0  0  0  0  0  0  0  0  0  0  0
    0.8660    3.3707   10.9895 C   0  0  0  0  0  0  0  0  0  0  0  0
   -0.5399    3.7537   10.8977 N   0  0  0  0  0  0  0  0  0  0  0  0
   -1.2550    4.3141   11.8736 C   0  0  0  0  0  0  0  0  0  0  0  0
   -0.8140    4.4931   13.0050 O   0  0  0  0  0  0  0  0  0  0  0  0
   -2.6333    4.6854   11.4124 C   0  0  0  0  0  0  0  0  0  0  0  0
   -3.5436    5.2295   12.3108 C   0  0  0  0  0  0  0  0  0  0  0  0
   -4.8206    5.5735   11.8835 C   0  0  0  0  0  0  0  0  0  0  0  0
   -5.1873    5.3735   10.5579 C   0  0  0  0  0  0  0  0  0  0  0  0
   -4.2770    4.8294    9.6596 C   0  0  0  0  0  0  0  0  0  0  0  0
   -3.0000    4.4854   10.0869 C   0  0  0  0  0  0  0  0  0  0  0  0
   -6.5655    5.7447   10.0968 C   0  0  0  0  0  0  0  0  0  0  0  0
   -6.9139    5.5749    8.9190 O   0  0  0  0  0  0  0  0  0  0  0  0
   -7.3451    6.2270   10.9318 O   0  0  0  0  0  0  0  0  0  0  0  0
    1.3140    2.5576   12.0419 C   0  0  0  0  0  0  0  0  0  0  0  0
   -0.3863   -2.6106   15.8150 C   0  0  0  0  0  0  0  0  0  0  0  0
   -1.7497   -2.8673   15.6804 C   0  0  0  0  0  0  0  0  0  0  0  0
   -3.6454   -4.3600   13.8213 H   0  0  0  0  0  0  0  0  0  0  0  0
   -5.2223   -3.6262   13.3728 H   0  0  0  0  0  0  0  0  0  0  0  0
   -3.7071   -3.0341   12.6111 H   0  0  0  0  0  0  0  0  0  0  0  0
   -4.5529   -0.3487   15.1344 H   0  0  0  0  0  0  0  0  0  0  0  0
   -4.2460   -0.6523   13.3908 H   0  0  0  0  0  0  0  0  0  0  0  0
   -5.7612   -1.2445   14.1525 H   0  0  0  0  0  0  0  0  0  0  0  0
   -4.3579   -2.1796   16.7908 H   0  0  0  0  0  0  0  0  0  0  0  0
   -5.5520   -3.2079   15.9289 H   0  0  0  0  0  0  0  0  0  0  0  0
   -3.9064   -3.8397   16.2746 H   0  0  0  0  0  0  0  0  0  0  0  0
   -2.7428   -1.3944   15.6159 H   0  0  0  0  0  0  0  0  0  0  0  0
   -2.5321   -0.4853   13.3757 H   0  0  0  0  0  0  0  0  0  0  0  0
   -0.1075   -0.0318   13.6408 H   0  0  0  0  0  0  0  0  0  0  0  0
    5.1484    1.9765   13.2880 H   0  0  0  0  0  0  0  0  0  0  0  0
    6.8331    0.8820   15.3359 H   0  0  0  0  0  0  0  0  0  0  0  0
    6.2400   -0.7347   17.3354 H   0  0  0  0  0  0  0  0  0  0  0  0
    4.5981    2.3490   11.2292 H   0  0  0  0  0  0  0  0  0  0  0  0
    3.8383    3.8096    9.3966 H   0  0  0  0  0  0  0  0  0  0  0  0
    1.4559    4.4276    9.2120 H   0  0  0  0  0  0  0  0  0  0  0  0
   -1.0057    3.5812   10.0298 H   0  0  0  0  0  0  0  0  0  0  0  0
   -3.2586    5.3850   13.3409 H   0  0  0  0  0  0  0  0  0  0  0  0
   -5.5280    5.9962   12.5816 H   0  0  0  0  0  0  0  0  0  0  0  0
   -4.5619    4.6739    8.6295 H   0  0  0  0  0  0  0  0  0  0  0  0
   -2.2926    4.0626    9.3888 H   0  0  0  0  0  0  0  0  0  0  0  0
   -8.1777    6.4171   10.5156 H   0  0  0  0  0  0  0  0  0  0  0  0
    0.6121    2.2342   12.7963 H   0  0  0  0  0  0  0  0  0  0  0  0
    0.2066   -3.2125   16.4877 H   0  0  0  0  0  0  0  0  0  0  0  0
   -2.2073   -3.6587   16.2555 H   0  0  0  0  0  0  0  0  0  0  0  0
  1  2  1  0  0  0  0
  2  3  1  0  0  0  0
  2  4  1  0  0  0  0
  2  5  1  0  0  0  0
  5  6  1  0  0  0  0
  5 38  1  0  0  0  0
  6  7  2  0  0  0  0
  7  8  1  0  0  0  0
  8  9  2  0  0  0  0
  8 37  1  0  0  0  0
  9 10  1  0  0  0  0
 10 11  2  0  0  0  0
 10 18  1  0  0  0  0
 11 12  1  0  0  0  0
 12 13  2  0  0  0  0
 12 19  1  0  0  0  0
 13 14  1  0  0  0  0
 14 15  1  0  0  0  0
 14 18  1  0  0  0  0
 15 16  2  0  0  0  0
 16 17  1  0  0  0  0
 17 18  2  0  0  0  0
 19 20  2  0  0  0  0
 19 36  1  0  0  0  0
 20 21  1  0  0  0  0
 21 22  2  0  0  0  0
 22 23  1  0  0  0  0
 23 24  1  0  0  0  0
 23 36  2  0  0  0  0
 24 25  1  0  0  0  0
 25 26  2  0  0  0  0
 25 27  1  0  0  0  0
 27 28  2  0  0  0  0
 27 32  1  0  0  0  0
 28 29  1  0  0  0  0
 29 30  2  0  0  0  0
 30 31  1  0  0  0  0
 30 33  1  0  0  0  0
 31 32  2  0  0  0  0
 33 34  2  0  0  0  0
 33 35  1  0  0  0  0
 37 38  2  0  0  0  0
  1 39  1  0  0  0  0
  1 40  1  0  0  0  0
  1 41  1  0  0  0  0
  3 42  1  0  0  0  0
  3 43  1  0  0  0  0
  3 44  1  0  0  0  0
  4 45  1  0  0  0  0
  4 46  1  0  0  0  0
  4 47  1  0  0  0  0
  5 48  1  0  0  0  0
  6 49  1  0  0  0  0
  7 50  1  0  0  0  0
 13 51  1  0  0  0  0
 15 52  1  0  0  0  0
 16 53  1  0  0  0  0
 20 54  1  0  0  0  0
 21 55  1  0  0  0  0
 22 56  1  0  0  0  0
 24 57  1  0  0  0  0
 28 58  1  0  0  0  0
 29 59  1  0  0  0  0
 31 60  1  0  0  0  0
 32 61  1  0  0  0  0
 35 62  1  0  0  0  0
 36 63  1  0  0  0  0
 37 64  1  0  0  0  0
 38 65  1  0  0  0  0
M  END
> <IC50[nM]>
65

$$$$
CHEMBL3264994
  -OEChem-05192314333D
 Structure written by MMmdl.
 65 69  0     0  0  0  0  0  0999 V2000
   -4.1531   -3.4266   13.5369 C   0  0  0  0  0  0  0  0  0  0  0  0
   -3.9919   -2.3907   14.6629 C   0  0  0  0  0  0  0  0  0  0  0  0
   -4.6875   -1.0646   14.3101 C   0  0  0  0  0  0  0  0  0  0  0  0
   -4.4873   -2.9438   16.0103 C   0  0  0  0  0  0  0  0  0  0  0  0
   -2.5261   -2.1057   14.8053 C   0  0  0  0  0  0  0  0  0  0  0  0
   -1.9389   -1.0760   14.0580 C   0  0  0  0  0  0  0  0  0  0  0  0
   -0.5664   -0.8256   14.2115 C   0  0  0  0  0  0  0  0  0  0  0  0
    0.2220   -1.5829   15.0890 C   0  0  0  0  0  0  0  0  0  0  0  0
    1.5930   -1.3491   15.3060 N   0  0  0  0  0  0  0  0  0  0  0  0
    2.5452   -0.4689   14.7536 C   0  0  0  0  0  0  0  0  0  0  0  0
    2.2178    0.3551   13.7190 N   0  0  0  0  0  0  0  0  0  0  0  0
    3.1227    1.2406   13.2181 C   0  0  0  0  0  0  0  0  0  0  0  0
    4.4207    1.3039   13.7175 C   0  0  0  0  0  0  0  0  0  0  0  0
    4.7482    0.4921   14.7654 N   0  0  0  0  0  0  0  0  0  0  0  0
    5.8898    0.3836   15.5035 C   0  0  0  0  0  0  0  0  0  0  0  0
    5.5715   -0.5089   16.5177 C   0  0  0  0  0  0  0  0  0  0  0  0
    4.3818   -1.0543   16.3920 N   0  0  0  0  0  0  0  0  0  0  0  0
    3.8330   -0.4170   15.3252 C   0  0  0  0  0  0  0  0  0  0  0  0
    2.6564    2.1560   12.1340 C   0  0  0  0  0  0  0  0  0  0  0  0
    3.5566    2.6280   11.1666 C   0  0  0  0  0  0  0  0  0  0  0  0
    3.1294    3.4499   10.1277 C   0  0  0  0  0  0  0  0  0  0  0  0
    1.7879    3.8078   10.0318 C   0  0  0  0  0  0  0  0  0  0  0  0
    0.8660    3.3707   10.9895 C   0  0  0  0  0  0  0  0  0  0  0  0
   -0.5399    3.7537   10.8977 N   0  0  0  0  0  0  0  0  0  0  0  0
   -1.2550    4.3141   11.8736 C   0  0  0  0  0  0  0  0  0  0  0  0
   -0.8140    4.4931   13.0050 O   0  0  0  0  0  0  0  0  0  0  0  0
   -2.6333    4.6854   11.4124 C   0  0  0  0  0  0  0  0  0  0  0  0
   -3.5436    5.2295   12.3108 C   0  0  0  0  0  0  0  0  0  0  0  0
   -4.8206    5.5735   11.8835 C   0  0  0  0  0  0  0  0  0  0  0  0
   -5.1873    5.3735   10.5579 C   0  0  0  0  0  0  0  0  0  0  0  0
   -4.2770    4.8294    9.6596 C   0  0  0  0  0  0  0  0  0  0  0  0
   -3.0000    4.4854   10.0869 C   0  0  0  0  0  0  0  0  0  0  0  0
   -6.5655    5.7447   10.0968 C   0  0  0  0  0  0  0  0  0  0  0  0
   -6.9139    5.5749    8.9190 O   0  0  0  0  0  0  0  0  0  0  0  0
   -7.3451    6.2270   10.9318 O   0  0  0  0  0  0  0  0  0  0  0  0
    1.3140    2.5576   12.0419 C   0  0  0  0  0  0  0  0  0  0  0  0
   -0.3863   -2.6106   15.8150 C   0  0  0  0  0  0  0  0  0  0  0  0
   -1.7497   -2.8673   15.6804 C   0  0  0  0  0  0  0  0  0  0  0  0
   -3.6454   -4.3600   13.8213 H   0  0  0  0  0  0  0  0  0  0  0  0
   -5.2223   -3.6262   13.3728 H   0  0  0  0  0  0  0  0  0  0  0  0
   -3.7071   -3.0341   12.6111 H   0  0  0  0  0  0  0  0  0  0  0  0
   -4.5529   -0.3487   15.1344 H   0  0  0  0  0  0  0  0  0  0  0  0
   -4.2460   -0.6523   13.3908 H   0  0  0  0  0  0  0  0  0  0  0  0
   -5.7612   -1.2445   14.1525 H   0  0  0  0  0  0  0  0  0  0  0  0
   -4.3579   -2.1796   16.7908 H   0  0  0  0  0  0  0  0  0  0  0  0
   -5.5520   -3.2079   15.9289 H   0  0  0  0  0  0  0  0  0  0  0  0
   -3.9064   -3.8397   16.2746 H   0  0  0  0  0  0  0  0  0  0  0  0
   -2.5321   -0.4853   13.3757 H   0  0  0  0  0  0  0  0  0  0  0  0
   -0.1167   -0.9386   13.2140 H   0  0  0  0  0  0  0  0  0  0  0  0
   -0.4764    0.2210   14.5379 H   0  0  0  0  0  0  0  0  0  0  0  0
    5.1484    1.9765   13.2880 H   0  0  0  0  0  0  0  0  0  0  0  0
    6.8331    0.8820   15.3359 H   0  0  0  0  0  0  0  0  0  0  0  0
    6.2400   -0.7347   17.3354 H   0  0  0  0  0  0  0  0  0  0  0  0
    4.5981    2.3490   11.2292 H   0  0  0  0  0  0  0  0  0  0  0  0
    3.8383    3.8096    9.3966 H   0  0  0  0  0  0  0  0  0  0  0  0
    1.4559    4.4276    9.2120 H   0  0  0  0  0  0  0  0  0  0  0  0
   -1.0057    3.5812   10.0298 H   0  0  0  0  0  0  0  0  0  0  0  0
   -3.2586    5.3850   13.3409 H   0  0  0  0  0  0  0  0  0  0  0  0
   -5.5280    5.9962   12.5816 H   0  0  0  0  0  0  0  0  0  0  0  0
   -4.5619    4.6739    8.6295 H   0  0  0  0  0  0  0  0  0  0  0  0
   -2.2926    4.0626    9.3888 H   0  0  0  0  0  0  0  0  0  0  0  0
   -8.1777    6.4171   10.5156 H   0  0  0  0  0  0  0  0  0  0  0  0
    0.6121    2.2342   12.7963 H   0  0  0  0  0  0  0  0  0  0  0  0
    0.2066   -3.2125   16.4877 H   0  0  0  0  0  0  0  0  0  0  0  0
   -2.2073   -3.6587   16.2555 H   0  0  0  0  0  0  0  0  0  0  0  0
  1  2  1  0  0  0  0
  2  3  1  0  0  0  0
  2  4  1  0  0  0  0
  2  5  1  0  0  0  0
  5  6  2  0  0  0  0
  5 38  1  0  0  0  0
  6  7  1  0  0  0  0
  7  8  1  0  0  0  0
  8  9  2  0  0  0  0
  8 37  1  0  0  0  0
  9 10  1  0  0  0  0
 10 11  2  0  0  0  0
 10 18  1  0  0  0  0
 11 12  1  0  0  0  0
 12 13  2  0  0  0  0
 12 19  1  0  0  0  0
 13 14  1  0  0  0  0
 14 15  1  0  0  0  0
 14 18  1  0  0  0  0
 15 16  2  0  0  0  0
 16 17  1  0  0  0  0
 17 18  2  0  0  0  0
 19 20  2  0  0  0  0
 19 36  1  0  0  0  0
 20 21  1  0  0  0  0
 21 22  2  0  0  0  0
 22 23  1  0  0  0  0
 23 24  1  0  0  0  0
 23 36  2  0  0  0  0
 24 25  1  0  0  0  0
 25 26  2  0  0  0  0
 25 27  1  0  0  0  0
 27 28  2  0  0  0  0
 27 32  1  0  0  0  0
 28 29  1  0  0  0  0
 29 30  2  0  0  0  0
 30 31  1  0  0  0  0
 30 33  1  0  0  0  0
 31 32  2  0  0  0  0
 33 34  2  0  0  0  0
 33 35  1  0  0  0  0
 37 38  2  0  0  0  0
  1 39  1  0  0  0  0
  1 40  1  0  0  0  0
  1 41  1  0  0  0  0
  3 42  1  0  0  0  0
  3 43  1  0  0  0  0
  3 44  1  0  0  0  0
  4 45  1  0  0  0  0
  4 46  1  0  0  0  0
  4 47  1  0  0  0  0
  6 48  1  0  0  0  0
  7 49  1  0  0  0  0
  7 50  1  0  0  0  0
 13 51  1  0  0  0  0
 15 52  1  0  0  0  0
 16 53  1  0  0  0  0
 20 54  1  0  0  0  0
 21 55  1  0  0  0  0
 22 56  1  0  0  0  0
 24 57  1  0  0  0  0
 28 58  1  0  0  0  0
 29 59  1  0  0  0  0
 31 60  1  0  0  0  0
 32 61  1  0  0  0  0
 35 62  1  0  0  0  0
 36 63  1  0  0  0  0
 37 64  1  0  0  0  0
 38 65  1  0  0  0  0
M  END
> <IC50[nM]>
65

$$$$
CHEMBL3264994
  -OEChem-05192314333D
 Structure written by MMmdl.
 65 69  0     0  0  0  0  0  0999 V2000
   -4.1531   -3.4266   13.5369 C   0  0  0  0  0  0  0  0  0  0  0  0
   -3.9919   -2.3907   14.6629 C   0  0  0  0  0  0  0  0  0  0  0  0
   -4.6875   -1.0646   14.3101 C   0  0  0  0  0  0  0  0  0  0  0  0
   -4.4873   -2.9438   16.0103 C   0  0  0  0  0  0  0  0  0  0  0  0
   -2.5261   -2.1057   14.8053 C   0  0  0  0  0  0  0  0  0  0  0  0
   -1.9389   -1.0760   14.0580 C   0  0  0  0  0  0  0  0  0  0  0  0
   -0.5664   -0.8256   14.2115 C   0  0  0  0  0  0  0  0  0  0  0  0
    0.2220   -1.5829   15.0890 C   0  0  0  0  0  0  0  0  0  0  0  0
    1.5930   -1.3491   15.3060 N   0  0  0  0  0  0  0  0  0  0  0  0
    2.5452   -0.4689   14.7536 C   0  0  0  0  0  0  0  0  0  0  0  0
    2.2178    0.3551   13.7190 N   0  0  0  0  0  0  0  0  0  0  0  0
    3.1227    1.2406   13.2181 C   0  0  0  0  0  0  0  0  0  0  0  0
    4.4207    1.3039   13.7175 C   0  0  0  0  0  0  0  0  0  0  0  0
    4.7482    0.4921   14.7654 N   0  0  0  0  0  0  0  0  0  0  0  0
    5.8898    0.3836   15.5035 C   0  0  0  0  0  0  0  0  0  0  0  0
    5.5715   -0.5089   16.5177 C   0  0  0  0  0  0  0  0  0  0  0  0
    4.3818   -1.0543   16.3920 N   0  0  0  0  0  0  0  0  0  0  0  0
    3.8330   -0.4170   15.3252 C   0  0  0  0  0  0  0  0  0  0  0  0
    2.6564    2.1560   12.1340 C   0  0  0  0  0  0  0  0  0  0  0  0
    3.5566    2.6280   11.1666 C   0  0  0  0  0  0  0  0  0  0  0  0
    3.1294    3.4499   10.1277 C   0  0  0  0  0  0  0  0  0  0  0  0
    1.7879    3.8078   10.0318 C   0  0  0  0  0  0  0  0  0  0  0  0
    0.8660    3.3707   10.9895 C   0  0  0  0  0  0  0  0  0  0  0  0
   -0.5399    3.7537   10.8977 N   0  0  0  0  0  0  0  0  0  0  0  0
   -1.2550    4.3141   11.8736 C   0  0  0  0  0  0  0  0  0  0  0  0
   -0.8140    4.4931   13.0050 O   0  0  0  0  0  0  0  0  0  0  0  0
   -2.6333    4.6854   11.4124 C   0  0  0  0  0  0  0  0  0  0  0  0
   -3.5436    5.2295   12.3108 C   0  0  0  0  0  0  0  0  0  0  0  0
   -4.8206    5.5735   11.8835 C   0  0  0  0  0  0  0  0  0  0  0  0
   -5.1873    5.3735   10.5579 C   0  0  0  0  0  0  0  0  0  0  0  0
   -4.2770    4.8294    9.6596 C   0  0  0  0  0  0  0  0  0  0  0  0
   -3.0000    4.4854   10.0869 C   0  0  0  0  0  0  0  0  0  0  0  0
   -6.5655    5.7447   10.0968 C   0  0  0  0  0  0  0  0  0  0  0  0
   -6.9139    5.5749    8.9190 O   0  0  0  0  0  0  0  0  0  0  0  0
   -7.3451    6.2270   10.9318 O   0  0  0  0  0  0  0  0  0  0  0  0
    1.3140    2.5576   12.0419 C   0  0  0  0  0  0  0  0  0  0  0  0
   -0.3863   -2.6106   15.8150 C   0  0  0  0  0  0  0  0  0  0  0  0
   -1.7497   -2.8673   15.6804 C   0  0  0  0  0  0  0  0  0  0  0  0
   -3.6454   -4.3600   13.8213 H   0  0  0  0  0  0  0  0  0  0  0  0
   -5.2223   -3.6262   13.3728 H   0  0  0  0  0  0  0  0  0  0  0  0
   -3.7071   -3.0341   12.6111 H   0  0  0  0  0  0  0  0  0  0  0  0
   -4.5529   -0.3487   15.1344 H   0  0  0  0  0  0  0  0  0  0  0  0
   -4.2460   -0.6523   13.3908 H   0  0  0  0  0  0  0  0  0  0  0  0
   -5.7612   -1.2445   14.1525 H   0  0  0  0  0  0  0  0  0  0  0  0
   -4.3579   -2.1796   16.7908 H   0  0  0  0  0  0  0  0  0  0  0  0
   -5.5520   -3.2079   15.9289 H   0  0  0  0  0  0  0  0  0  0  0  0
   -3.9064   -3.8397   16.2746 H   0  0  0  0  0  0  0  0  0  0  0  0
   -2.5321   -0.4853   13.3757 H   0  0  0  0  0  0  0  0  0  0  0  0
   -0.1075   -0.0318   13.6408 H   0  0  0  0  0  0  0  0  0  0  0  0
    1.9791   -1.9422   16.0125 H   0  0  0  0  0  0  0  0  0  0  0  0
    5.1484    1.9765   13.2880 H   0  0  0  0  0  0  0  0  0  0  0  0
    6.8331    0.8820   15.3359 H   0  0  0  0  0  0  0  0  0  0  0  0
    6.2400   -0.7347   17.3354 H   0  0  0  0  0  0  0  0  0  0  0  0
    4.5981    2.3490   11.2292 H   0  0  0  0  0  0  0  0  0  0  0  0
    3.8383    3.8096    9.3966 H   0  0  0  0  0  0  0  0  0  0  0  0
    1.7537    4.9072   10.0402 H   0  0  0  0  0  0  0  0  0  0  0  0
    1.4316    3.4373    9.0593 H   0  0  0  0  0  0  0  0  0  0  0  0
   -3.2586    5.3850   13.3409 H   0  0  0  0  0  0  0  0  0  0  0  0
   -5.5280    5.9962   12.5816 H   0  0  0  0  0  0  0  0  0  0  0  0
   -4.5619    4.6739    8.6295 H   0  0  0  0  0  0  0  0  0  0  0  0
   -2.2926    4.0626    9.3888 H   0  0  0  0  0  0  0  0  0  0  0  0
   -8.1777    6.4171   10.5156 H   0  0  0  0  0  0  0  0  0  0  0  0
    0.6121    2.2342   12.7963 H   0  0  0  0  0  0  0  0  0  0  0  0
    0.2066   -3.2125   16.4877 H   0  0  0  0  0  0  0  0  0  0  0  0
   -2.2073   -3.6587   16.2555 H   0  0  0  0  0  0  0  0  0  0  0  0
  1  2  1  0  0  0  0
  2  3  1  0  0  0  0
  2  4  1  0  0  0  0
  2  5  1  0  0  0  0
  5  6  2  0  0  0  0
  5 38  1  0  0  0  0
  6  7  1  0  0  0  0
  7  8  2  0  0  0  0
  8  9  1  0  0  0  0
  8 37  1  0  0  0  0
  9 10  1  0  0  0  0
 10 11  2  0  0  0  0
 10 18  1  0  0  0  0
 11 12  1  0  0  0  0
 12 13  2  0  0  0  0
 12 19  1  0  0  0  0
 13 14  1  0  0  0  0
 14 15  1  0  0  0  0
 14 18  1  0  0  0  0
 15 16  2  0  0  0  0
 16 17  1  0  0  0  0
 17 18  2  0  0  0  0
 19 20  1  0  0  0  0
 19 36  2  0  0  0  0
 20 21  2  0  0  0  0
 21 22  1  0  0  0  0
 22 23  1  0  0  0  0
 23 24  2  3  0  0  0
 23 36  1  0  0  0  0
 24 25  1  0  0  0  0
 25 26  2  0  0  0  0
 25 27  1  0  0  0  0
 27 28  2  0  0  0  0
 27 32  1  0  0  0  0
 28 29  1  0  0  0  0
 29 30  2  0  0  0  0
 30 31  1  0  0  0  0
 30 33  1  0  0  0  0
 31 32  2  0  0  0  0
 33 34  2  0  0  0  0
 33 35  1  0  0  0  0
 37 38  2  0  0  0  0
  1 39  1  0  0  0  0
  1 40  1  0  0  0  0
  1 41  1  0  0  0  0
  3 42  1  0  0  0  0
  3 43  1  0  0  0  0
  3 44  1  0  0  0  0
  4 45  1  0  0  0  0
  4 46  1  0  0  0  0
  4 47  1  0  0  0  0
  6 48  1  0  0  0  0
  7 49  1  0  0  0  0
  9 50  1  0  0  0  0
 13 51  1  0  0  0  0
 15 52  1  0  0  0  0
 16 53  1  0  0  0  0
 20 54  1  0  0  0  0
 21 55  1  0  0  0  0
 22 56  1  0  0  0  0
 22 57  1  0  0  0  0
 28 58  1  0  0  0  0
 29 59  1  0  0  0  0
 31 60  1  0  0  0  0
 32 61  1  0  0  0  0
 35 62  1  0  0  0  0
 36 63  1  0  0  0  0
 37 64  1  0  0  0  0
 38 65  1  0  0  0  0
M  END
> <IC50[nM]>
65

$$$$
CHEMBL3264994
  -OEChem-05192314333D
 Structure written by MMmdl.
 65 69  0     0  0  0  0  0  0999 V2000
   -4.1531   -3.4266   13.5369 C   0  0  0  0  0  0  0  0  0  0  0  0
   -3.9919   -2.3907   14.6629 C   0  0  0  0  0  0  0  0  0  0  0  0
   -4.6875   -1.0646   14.3101 C   0  0  0  0  0  0  0  0  0  0  0  0
   -4.4873   -2.9438   16.0103 C   0  0  0  0  0  0  0  0  0  0  0  0
   -2.5261   -2.1057   14.8053 C   0  0  0  0  0  0  0  0  0  0  0  0
   -1.9389   -1.0760   14.0580 C   0  0  0  0  0  0  0  0  0  0  0  0
   -0.5664   -0.8256   14.2115 C   0  0  0  0  0  0  0  0  0  0  0  0
    0.2220   -1.5829   15.0890 C   0  0  0  0  0  0  0  0  0  0  0  0
    1.5930   -1.3491   15.3060 N   0  0  0  0  0  0  0  0  0  0  0  0
    2.5452   -0.4689   14.7536 C   0  0  0  0  0  0  0  0  0  0  0  0
    2.2178    0.3551   13.7190 N   0  0  0  0  0  0  0  0  0  0  0  0
    3.1227    1.2406   13.2181 C   0  0  0  0  0  0  0  0  0  0  0  0
    4.4207    1.3039   13.7175 C   0  0  0  0  0  0  0  0  0  0  0  0
    4.7482    0.4921   14.7654 N   0  0  0  0  0  0  0  0  0  0  0  0
    5.8898    0.3836   15.5035 C   0  0  0  0  0  0  0  0  0  0  0  0
    5.5715   -0.5089   16.5177 C   0  0  0  0  0  0  0  0  0  0  0  0
    4.3818   -1.0543   16.3920 N   0  0  0  0  0  0  0  0  0  0  0  0
    3.8330   -0.4170   15.3252 C   0  0  0  0  0  0  0  0  0  0  0  0
    2.6564    2.1560   12.1340 C   0  0  0  0  0  0  0  0  0  0  0  0
    3.5566    2.6280   11.1666 C   0  0  0  0  0  0  0  0  0  0  0  0
    3.1294    3.4499   10.1277 C   0  0  0  0  0  0  0  0  0  0  0  0
    1.7879    3.8078   10.0318 C   0  0  0  0  0  0  0  0  0  0  0  0
    0.8660    3.3707   10.9895 C   0  0  0  0  0  0  0  0  0  0  0  0
   -0.5399    3.7537   10.8977 N   0  0  0  0  0  0  0  0  0  0  0  0
   -1.2550    4.3141   11.8736 C   0  0  0  0  0  0  0  0  0  0  0  0
   -0.8140    4.4931   13.0050 O   0  0  0  0  0  0  0  0  0  0  0  0
   -2.6333    4.6854   11.4124 C   0  0  0  0  0  0  0  0  0  0  0  0
   -3.5436    5.2295   12.3108 C   0  0  0  0  0  0  0  0  0  0  0  0
   -4.8206    5.5735   11.8835 C   0  0  0  0  0  0  0  0  0  0  0  0
   -5.1873    5.3735   10.5579 C   0  0  0  0  0  0  0  0  0  0  0  0
   -4.2770    4.8294    9.6596 C   0  0  0  0  0  0  0  0  0  0  0  0
   -3.0000    4.4854   10.0869 C   0  0  0  0  0  0  0  0  0  0  0  0
   -6.5655    5.7447   10.0968 C   0  0  0  0  0  0  0  0  0  0  0  0
   -6.9139    5.5749    8.9190 O   0  0  0  0  0  0  0  0  0  0  0  0
   -7.3451    6.2270   10.9318 O   0  0  0  0  0  0  0  0  0  0  0  0
    1.3140    2.5576   12.0419 C   0  0  0  0  0  0  0  0  0  0  0  0
   -0.3863   -2.6106   15.8150 C   0  0  0  0  0  0  0  0  0  0  0  0
   -1.7497   -2.8673   15.6804 C   0  0  0  0  0  0  0  0  0  0  0  0
   -3.6454   -4.3600   13.8213 H   0  0  0  0  0  0  0  0  0  0  0  0
   -5.2223   -3.6262   13.3728 H   0  0  0  0  0  0  0  0  0  0  0  0
   -3.7071   -3.0341   12.6111 H   0  0  0  0  0  0  0  0  0  0  0  0
   -4.5529   -0.3487   15.1344 H   0  0  0  0  0  0  0  0  0  0  0  0
   -4.2460   -0.6523   13.3908 H   0  0  0  0  0  0  0  0  0  0  0  0
   -5.7612   -1.2445   14.1525 H   0  0  0  0  0  0  0  0  0  0  0  0
   -4.3579   -2.1796   16.7908 H   0  0  0  0  0  0  0  0  0  0  0  0
   -5.5520   -3.2079   15.9289 H   0  0  0  0  0  0  0  0  0  0  0  0
   -3.9064   -3.8397   16.2746 H   0  0  0  0  0  0  0  0  0  0  0  0
   -2.5321   -0.4853   13.3757 H   0  0  0  0  0  0  0  0  0  0  0  0
   -0.1075   -0.0318   13.6408 H   0  0  0  0  0  0  0  0  0  0  0  0
    1.9791   -1.9422   16.0125 H   0  0  0  0  0  0  0  0  0  0  0  0
    5.1484    1.9765   13.2880 H   0  0  0  0  0  0  0  0  0  0  0  0
    6.8331    0.8820   15.3359 H   0  0  0  0  0  0  0  0  0  0  0  0
    6.2400   -0.7347   17.3354 H   0  0  0  0  0  0  0  0  0  0  0  0
    4.3327    3.1880   11.7090 H   0  0  0  0  0  0  0  0  0  0  0  0
    4.0054    1.7398   10.6978 H   0  0  0  0  0  0  0  0  0  0  0  0
    3.8383    3.8096    9.3966 H   0  0  0  0  0  0  0  0  0  0  0  0
    1.4559    4.4276    9.2120 H   0  0  0  0  0  0  0  0  0  0  0  0
   -3.2586    5.3850   13.3409 H   0  0  0  0  0  0  0  0  0  0  0  0
   -5.5280    5.9962   12.5816 H   0  0  0  0  0  0  0  0  0  0  0  0
   -4.5619    4.6739    8.6295 H   0  0  0  0  0  0  0  0  0  0  0  0
   -2.2926    4.0626    9.3888 H   0  0  0  0  0  0  0  0  0  0  0  0
   -8.1777    6.4171   10.5156 H   0  0  0  0  0  0  0  0  0  0  0  0
    0.6121    2.2342   12.7963 H   0  0  0  0  0  0  0  0  0  0  0  0
    0.2066   -3.2125   16.4877 H   0  0  0  0  0  0  0  0  0  0  0  0
   -2.2073   -3.6587   16.2555 H   0  0  0  0  0  0  0  0  0  0  0  0
  1  2  1  0  0  0  0
  2  3  1  0  0  0  0
  2  4  1  0  0  0  0
  2  5  1  0  0  0  0
  5  6  2  0  0  0  0
  5 38  1  0  0  0  0
  6  7  1  0  0  0  0
  7  8  2  0  0  0  0
  8  9  1  0  0  0  0
  8 37  1  0  0  0  0
  9 10  1  0  0  0  0
 10 11  2  0  0  0  0
 10 18  1  0  0  0  0
 11 12  1  0  0  0  0
 12 13  2  0  0  0  0
 12 19  1  0  0  0  0
 13 14  1  0  0  0  0
 14 15  1  0  0  0  0
 14 18  1  0  0  0  0
 15 16  2  0  0  0  0
 16 17  1  0  0  0  0
 17 18  2  0  0  0  0
 19 20  1  0  0  0  0
 19 36  2  0  0  0  0
 20 21  1  0  0  0  0
 21 22  2  0  0  0  0
 22 23  1  0  0  0  0
 23 24  2  3  0  0  0
 23 36  1  0  0  0  0
 24 25  1  0  0  0  0
 25 26  2  0  0  0  0
 25 27  1  0  0  0  0
 27 28  2  0  0  0  0
 27 32  1  0  0  0  0
 28 29  1  0  0  0  0
 29 30  2  0  0  0  0
 30 31  1  0  0  0  0
 30 33  1  0  0  0  0
 31 32  2  0  0  0  0
 33 34  2  0  0  0  0
 33 35  1  0  0  0  0
 37 38  2  0  0  0  0
  1 39  1  0  0  0  0
  1 40  1  0  0  0  0
  1 41  1  0  0  0  0
  3 42  1  0  0  0  0
  3 43  1  0  0  0  0
  3 44  1  0  0  0  0
  4 45  1  0  0  0  0
  4 46  1  0  0  0  0
  4 47  1  0  0  0  0
  6 48  1  0  0  0  0
  7 49  1  0  0  0  0
  9 50  1  0  0  0  0
 13 51  1  0  0  0  0
 15 52  1  0  0  0  0
 16 53  1  0  0  0  0
 20 54  1  0  0  0  0
 20 55  1  0  0  0  0
 21 56  1  0  0  0  0
 22 57  1  0  0  0  0
 28 58  1  0  0  0  0
 29 59  1  0  0  0  0
 31 60  1  0  0  0  0
 32 61  1  0  0  0  0
 35 62  1  0  0  0  0
 36 63  1  0  0  0  0
 37 64  1  0  0  0  0
 38 65  1  0  0  0  0
M  END
> <IC50[nM]>
65

$$$$
CHEMBL3264994
  -OEChem-05192314333D
 Structure written by MMmdl.
 65 69  0     0  0  0  0  0  0999 V2000
   -4.1531   -3.4266   13.5369 C   0  0  0  0  0  0  0  0  0  0  0  0
   -3.9919   -2.3907   14.6629 C   0  0  0  0  0  0  0  0  0  0  0  0
   -4.6875   -1.0646   14.3101 C   0  0  0  0  0  0  0  0  0  0  0  0
   -4.4873   -2.9438   16.0103 C   0  0  0  0  0  0  0  0  0  0  0  0
   -2.5261   -2.1057   14.8053 C   0  0  0  0  0  0  0  0  0  0  0  0
   -1.9389   -1.0760   14.0580 C   0  0  0  0  0  0  0  0  0  0  0  0
   -0.5664   -0.8256   14.2115 C   0  0  0  0  0  0  0  0  0  0  0  0
    0.2220   -1.5829   15.0890 C   0  0  0  0  0  0  0  0  0  0  0  0
    1.5930   -1.3491   15.3060 N   0  0  0  0  0  0  0  0  0  0  0  0
    2.5452   -0.4689   14.7536 C   0  0  0  0  0  0  0  0  0  0  0  0
    2.2178    0.3551   13.7190 N   0  0  0  0  0  0  0  0  0  0  0  0
    3.1227    1.2406   13.2181 C   0  0  0  0  0  0  0  0  0  0  0  0
    4.4207    1.3039   13.7175 C   0  0  0  0  0  0  0  0  0  0  0  0
    4.7482    0.4921   14.7654 N   0  0  0  0  0  0  0  0  0  0  0  0
    5.8898    0.3836   15.5035 C   0  0  0  0  0  0  0  0  0  0  0  0
    5.5715   -0.5089   16.5177 C   0  0  0  0  0  0  0  0  0  0  0  0
    4.3818   -1.0543   16.3920 N   0  0  0  0  0  0  0  0  0  0  0  0
    3.8330   -0.4170   15.3252 C   0  0  0  0  0  0  0  0  0  0  0  0
    2.6564    2.1560   12.1340 C   0  0  0  0  0  0  0  0  0  0  0  0
    3.5566    2.6280   11.1666 C   0  0  0  0  0  0  0  0  0  0  0  0
    3.1294    3.4499   10.1277 C   0  0  0  0  0  0  0  0  0  0  0  0
    1.7879    3.8078   10.0318 C   0  0  0  0  0  0  0  0  0  0  0  0
    0.8660    3.3707   10.9895 C   0  0  0  0  0  0  0  0  0  0  0  0
   -0.5399    3.7537   10.8977 N   0  0  0  0  0  0  0  0  0  0  0  0
   -1.2550    4.3141   11.8736 C   0  0  0  0  0  0  0  0  0  0  0  0
   -0.8140    4.4931   13.0050 O   0  0  0  0  0  0  0  0  0  0  0  0
   -2.6333    4.6854   11.4124 C   0  0  0  0  0  0  0  0  0  0  0  0
   -3.5436    5.2295   12.3108 C   0  0  0  0  0  0  0  0  0  0  0  0
   -4.8206    5.5735   11.8835 C   0  0  0  0  0  0  0  0  0  0  0  0
   -5.1873    5.3735   10.5579 C   0  0  0  0  0  0  0  0  0  0  0  0
   -4.2770    4.8294    9.6596 C   0  0  0  0  0  0  0  0  0  0  0  0
   -3.0000    4.4854   10.0869 C   0  0  0  0  0  0  0  0  0  0  0  0
   -6.5655    5.7447   10.0968 C   0  0  0  0  0  0  0  0  0  0  0  0
   -6.9139    5.5749    8.9190 O   0  0  0  0  0  0  0  0  0  0  0  0
   -7.3451    6.2270   10.9318 O   0  0  0  0  0  0  0  0  0  0  0  0
    1.3140    2.5576   12.0419 C   0  0  0  0  0  0  0  0  0  0  0  0
   -0.3863   -2.6106   15.8150 C   0  0  0  0  0  0  0  0  0  0  0  0
   -1.7497   -2.8673   15.6804 C   0  0  0  0  0  0  0  0  0  0  0  0
   -3.6454   -4.3600   13.8213 H   0  0  0  0  0  0  0  0  0  0  0  0
   -5.2223   -3.6262   13.3728 H   0  0  0  0  0  0  0  0  0  0  0  0
   -3.7071   -3.0341   12.6111 H   0  0  0  0  0  0  0  0  0  0  0  0
   -4.5529   -0.3487   15.1344 H   0  0  0  0  0  0  0  0  0  0  0  0
   -4.2460   -0.6523   13.3908 H   0  0  0  0  0  0  0  0  0  0  0  0
   -5.7612   -1.2445   14.1525 H   0  0  0  0  0  0  0  0  0  0  0  0
   -4.3579   -2.1796   16.7908 H   0  0  0  0  0  0  0  0  0  0  0  0
   -5.5520   -3.2079   15.9289 H   0  0  0  0  0  0  0  0  0  0  0  0
   -3.9064   -3.8397   16.2746 H   0  0  0  0  0  0  0  0  0  0  0  0
   -2.5321   -0.4853   13.3757 H   0  0  0  0  0  0  0  0  0  0  0  0
   -0.1075   -0.0318   13.6408 H   0  0  0  0  0  0  0  0  0  0  0  0
    1.9791   -1.9422   16.0125 H   0  0  0  0  0  0  0  0  0  0  0  0
    5.1484    1.9765   13.2880 H   0  0  0  0  0  0  0  0  0  0  0  0
    6.8331    0.8820   15.3359 H   0  0  0  0  0  0  0  0  0  0  0  0
    6.2400   -0.7347   17.3354 H   0  0  0  0  0  0  0  0  0  0  0  0
    4.5981    2.3490   11.2292 H   0  0  0  0  0  0  0  0  0  0  0  0
    3.8383    3.8096    9.3966 H   0  0  0  0  0  0  0  0  0  0  0  0
    1.4559    4.4276    9.2120 H   0  0  0  0  0  0  0  0  0  0  0  0
   -3.2586    5.3850   13.3409 H   0  0  0  0  0  0  0  0  0  0  0  0
   -5.5280    5.9962   12.5816 H   0  0  0  0  0  0  0  0  0  0  0  0
   -4.5619    4.6739    8.6295 H   0  0  0  0  0  0  0  0  0  0  0  0
   -2.2926    4.0626    9.3888 H   0  0  0  0  0  0  0  0  0  0  0  0
   -8.1777    6.4171   10.5156 H   0  0  0  0  0  0  0  0  0  0  0  0
    0.7157    1.6356   11.9991 H   0  0  0  0  0  0  0  0  0  0  0  0
    1.0868    3.0993   12.9719 H   0  0  0  0  0  0  0  0  0  0  0  0
    0.2066   -3.2125   16.4877 H   0  0  0  0  0  0  0  0  0  0  0  0
   -2.2073   -3.6587   16.2555 H   0  0  0  0  0  0  0  0  0  0  0  0
  1  2  1  0  0  0  0
  2  3  1  0  0  0  0
  2  4  1  0  0  0  0
  2  5  1  0  0  0  0
  5  6  2  0  0  0  0
  5 38  1  0  0  0  0
  6  7  1  0  0  0  0
  7  8  2  0  0  0  0
  8  9  1  0  0  0  0
  8 37  1  0  0  0  0
  9 10  1  0  0  0  0
 10 11  2  0  0  0  0
 10 18  1  0  0  0  0
 11 12  1  0  0  0  0
 12 13  2  0  0  0  0
 12 19  1  0  0  0  0
 13 14  1  0  0  0  0
 14 15  1  0  0  0  0
 14 18  1  0  0  0  0
 15 16  2  0  0  0  0
 16 17  1  0  0  0  0
 17 18  2  0  0  0  0
 19 20  2  0  0  0  0
 19 36  1  0  0  0  0
 20 21  1  0  0  0  0
 21 22  2  0  0  0  0
 22 23  1  0  0  0  0
 23 24  2  3  0  0  0
 23 36  1  0  0  0  0
 24 25  1  0  0  0  0
 25 26  2  0  0  0  0
 25 27  1  0  0  0  0
 27 28  2  0  0  0  0
 27 32  1  0  0  0  0
 28 29  1  0  0  0  0
 29 30  2  0  0  0  0
 30 31  1  0  0  0  0
 30 33  1  0  0  0  0
 31 32  2  0  0  0  0
 33 34  2  0  0  0  0
 33 35  1  0  0  0  0
 37 38  2  0  0  0  0
  1 39  1  0  0  0  0
  1 40  1  0  0  0  0
  1 41  1  0  0  0  0
  3 42  1  0  0  0  0
  3 43  1  0  0  0  0
  3 44  1  0  0  0  0
  4 45  1  0  0  0  0
  4 46  1  0  0  0  0
  4 47  1  0  0  0  0
  6 48  1  0  0  0  0
  7 49  1  0  0  0  0
  9 50  1  0  0  0  0
 13 51  1  0  0  0  0
 15 52  1  0  0  0  0
 16 53  1  0  0  0  0
 20 54  1  0  0  0  0
 21 55  1  0  0  0  0
 22 56  1  0  0  0  0
 28 57  1  0  0  0  0
 29 58  1  0  0  0  0
 31 59  1  0  0  0  0
 32 60  1  0  0  0  0
 35 61  1  0  0  0  0
 36 62  1  0  0  0  0
 36 63  1  0  0  0  0
 37 64  1  0  0  0  0
 38 65  1  0  0  0  0
M  END
> <IC50[nM]>
65

$$$$
CHEMBL3264994
  -OEChem-05192314333D
 Structure written by MMmdl.
 65 69  0     0  0  0  0  0  0999 V2000
   -4.1531   -3.4266   13.5369 C   0  0  0  0  0  0  0  0  0  0  0  0
   -3.9919   -2.3907   14.6629 C   0  0  0  0  0  0  0  0  0  0  0  0
   -4.6875   -1.0646   14.3101 C   0  0  0  0  0  0  0  0  0  0  0  0
   -4.4873   -2.9438   16.0103 C   0  0  0  0  0  0  0  0  0  0  0  0
   -2.5261   -2.1057   14.8053 C   0  0  0  0  0  0  0  0  0  0  0  0
   -1.9389   -1.0760   14.0580 C   0  0  0  0  0  0  0  0  0  0  0  0
   -0.5664   -0.8256   14.2115 C   0  0  0  0  0  0  0  0  0  0  0  0
    0.2220   -1.5829   15.0890 C   0  0  0  0  0  0  0  0  0  0  0  0
    1.5930   -1.3491   15.3060 N   0  0  0  0  0  0  0  0  0  0  0  0
    2.5452   -0.4689   14.7536 C   0  0  0  0  0  0  0  0  0  0  0  0
    2.2178    0.3551   13.7190 N   0  0  0  0  0  0  0  0  0  0  0  0
    3.1227    1.2406   13.2181 C   0  0  0  0  0  0  0  0  0  0  0  0
    4.4207    1.3039   13.7175 C   0  0  0  0  0  0  0  0  0  0  0  0
    4.7482    0.4921   14.7654 N   0  0  0  0  0  0  0  0  0  0  0  0
    5.8898    0.3836   15.5035 C   0  0  0  0  0  0  0  0  0  0  0  0
    5.5715   -0.5089   16.5177 C   0  0  0  0  0  0  0  0  0  0  0  0
    4.3818   -1.0543   16.3920 N   0  0  0  0  0  0  0  0  0  0  0  0
    3.8330   -0.4170   15.3252 C   0  0  0  0  0  0  0  0  0  0  0  0
    2.6564    2.1560   12.1340 C   0  0  0  0  0  0  0  0  0  0  0  0
    3.5566    2.6280   11.1666 C   0  0  0  0  0  0  0  0  0  0  0  0
    3.1294    3.4499   10.1277 C   0  0  0  0  0  0  0  0  0  0  0  0
    1.7879    3.8078   10.0318 C   0  0  0  0  0  0  0  0  0  0  0  0
    0.8660    3.3707   10.9895 C   0  0  0  0  0  0  0  0  0  0  0  0
   -0.5399    3.7537   10.8977 N   0  0  0  0  0  0  0  0  0  0  0  0
   -1.2550    4.3141   11.8736 C   0  0  0  0  0  0  0  0  0  0  0  0
   -0.8140    4.4931   13.0050 O   0  0  0  0  0  0  0  0  0  0  0  0
   -2.6333    4.6854   11.4124 C   0  0  0  0  0  0  0  0  0  0  0  0
   -3.5436    5.2295   12.3108 C   0  0  0  0  0  0  0  0  0  0  0  0
   -4.8206    5.5735   11.8835 C   0  0  0  0  0  0  0  0  0  0  0  0
   -5.1873    5.3735   10.5579 C   0  0  0  0  0  0  0  0  0  0  0  0
   -4.2770    4.8294    9.6596 C   0  0  0  0  0  0  0  0  0  0  0  0
   -3.0000    4.4854   10.0869 C   0  0  0  0  0  0  0  0  0  0  0  0
   -6.5655    5.7447   10.0968 C   0  0  0  0  0  0  0  0  0  0  0  0
   -6.9139    5.5749    8.9190 O   0  0  0  0  0  0  0  0  0  0  0  0
   -7.3451    6.2270   10.9318 O   0  0  0  0  0  0  0  0  0  0  0  0
    1.3140    2.5576   12.0419 C   0  0  0  0  0  0  0  0  0  0  0  0
   -0.3863   -2.6106   15.8150 C   0  0  0  0  0  0  0  0  0  0  0  0
   -1.7497   -2.8673   15.6804 C   0  0  0  0  0  0  0  0  0  0  0  0
   -3.6454   -4.3600   13.8213 H   0  0  0  0  0  0  0  0  0  0  0  0
   -5.2223   -3.6262   13.3728 H   0  0  0  0  0  0  0  0  0  0  0  0
   -3.7071   -3.0341   12.6111 H   0  0  0  0  0  0  0  0  0  0  0  0
   -4.5529   -0.3487   15.1344 H   0  0  0  0  0  0  0  0  0  0  0  0
   -4.2460   -0.6523   13.3908 H   0  0  0  0  0  0  0  0  0  0  0  0
   -5.7612   -1.2445   14.1525 H   0  0  0  0  0  0  0  0  0  0  0  0
   -4.3579   -2.1796   16.7908 H   0  0  0  0  0  0  0  0  0  0  0  0
   -5.5520   -3.2079   15.9289 H   0  0  0  0  0  0  0  0  0  0  0  0
   -3.9064   -3.8397   16.2746 H   0  0  0  0  0  0  0  0  0  0  0  0
   -2.7428   -1.3944   15.6159 H   0  0  0  0  0  0  0  0  0  0  0  0
   -2.5321   -0.4853   13.3757 H   0  0  0  0  0  0  0  0  0  0  0  0
   -0.1075   -0.0318   13.6408 H   0  0  0  0  0  0  0  0  0  0  0  0
    5.1484    1.9765   13.2880 H   0  0  0  0  0  0  0  0  0  0  0  0
    6.8331    0.8820   15.3359 H   0  0  0  0  0  0  0  0  0  0  0  0
    6.2400   -0.7347   17.3354 H   0  0  0  0  0  0  0  0  0  0  0  0
    4.5981    2.3490   11.2292 H   0  0  0  0  0  0  0  0  0  0  0  0
    3.8383    3.8096    9.3966 H   0  0  0  0  0  0  0  0  0  0  0  0
    1.4559    4.4276    9.2120 H   0  0  0  0  0  0  0  0  0  0  0  0
   -1.4803    4.9031   13.5439 H   0  0  0  0  0  0  0  0  0  0  0  0
   -3.2586    5.3850   13.3409 H   0  0  0  0  0  0  0  0  0  0  0  0
   -5.5280    5.9962   12.5816 H   0  0  0  0  0  0  0  0  0  0  0  0
   -4.5619    4.6739    8.6295 H   0  0  0  0  0  0  0  0  0  0  0  0
   -2.2926    4.0626    9.3888 H   0  0  0  0  0  0  0  0  0  0  0  0
   -8.1777    6.4171   10.5156 H   0  0  0  0  0  0  0  0  0  0  0  0
    0.6121    2.2342   12.7963 H   0  0  0  0  0  0  0  0  0  0  0  0
    0.2066   -3.2125   16.4877 H   0  0  0  0  0  0  0  0  0  0  0  0
   -2.2073   -3.6587   16.2555 H   0  0  0  0  0  0  0  0  0  0  0  0
  1  2  1  0  0  0  0
  2  3  1  0  0  0  0
  2  4  1  0  0  0  0
  2  5  1  0  0  0  0
  5  6  1  0  0  0  0
  5 38  1  0  0  0  0
  6  7  2  0  0  0  0
  7  8  1  0  0  0  0
  8  9  2  0  0  0  0
  8 37  1  0  0  0  0
  9 10  1  0  0  0  0
 10 11  2  0  0  0  0
 10 18  1  0  0  0  0
 11 12  1  0  0  0  0
 12 13  2  0  0  0  0
 12 19  1  0  0  0  0
 13 14  1  0  0  0  0
 14 15  1  0  0  0  0
 14 18  1  0  0  0  0
 15 16  2  0  0  0  0
 16 17  1  0  0  0  0
 17 18  2  0  0  0  0
 19 20  2  0  0  0  0
 19 36  1  0  0  0  0
 20 21  1  0  0  0  0
 21 22  2  0  0  0  0
 22 23  1  0  0  0  0
 23 24  1  0  0  0  0
 23 36  2  0  0  0  0
 24 25  2  0  0  0  0
 25 26  1  0  0  0  0
 25 27  1  0  0  0  0
 27 28  2  0  0  0  0
 27 32  1  0  0  0  0
 28 29  1  0  0  0  0
 29 30  2  0  0  0  0
 30 31  1  0  0  0  0
 30 33  1  0  0  0  0
 31 32  2  0  0  0  0
 33 34  2  0  0  0  0
 33 35  1  0  0  0  0
 37 38  2  0  0  0  0
  1 39  1  0  0  0  0
  1 40  1  0  0  0  0
  1 41  1  0  0  0  0
  3 42  1  0  0  0  0
  3 43  1  0  0  0  0
  3 44  1  0  0  0  0
  4 45  1  0  0  0  0
  4 46  1  0  0  0  0
  4 47  1  0  0  0  0
  5 48  1  0  0  0  0
  6 49  1  0  0  0  0
  7 50  1  0  0  0  0
 13 51  1  0  0  0  0
 15 52  1  0  0  0  0
 16 53  1  0  0  0  0
 20 54  1  0  0  0  0
 21 55  1  0  0  0  0
 22 56  1  0  0  0  0
 26 57  1  0  0  0  0
 28 58  1  0  0  0  0
 29 59  1  0  0  0  0
 31 60  1  0  0  0  0
 32 61  1  0  0  0  0
 35 62  1  0  0  0  0
 36 63  1  0  0  0  0
 37 64  1  0  0  0  0
 38 65  1  0  0  0  0
M  END
> <IC50[nM]>
65

$$$$
CHEMBL3264994
  -OEChem-05192314333D
 Structure written by MMmdl.
 65 69  0     0  0  0  0  0  0999 V2000
   -4.1531   -3.4266   13.5369 C   0  0  0  0  0  0  0  0  0  0  0  0
   -3.9919   -2.3907   14.6629 C   0  0  0  0  0  0  0  0  0  0  0  0
   -4.6875   -1.0646   14.3101 C   0  0  0  0  0  0  0  0  0  0  0  0
   -4.4873   -2.9438   16.0103 C   0  0  0  0  0  0  0  0  0  0  0  0
   -2.5261   -2.1057   14.8053 C   0  0  0  0  0  0  0  0  0  0  0  0
   -1.9389   -1.0760   14.0580 C   0  0  0  0  0  0  0  0  0  0  0  0
   -0.5664   -0.8256   14.2115 C   0  0  0  0  0  0  0  0  0  0  0  0
    0.2220   -1.5829   15.0890 C   0  0  0  0  0  0  0  0  0  0  0  0
    1.5930   -1.3491   15.3060 N   0  0  0  0  0  0  0  0  0  0  0  0
    2.5452   -0.4689   14.7536 C   0  0  0  0  0  0  0  0  0  0  0  0
    2.2178    0.3551   13.7190 N   0  0  0  0  0  0  0  0  0  0  0  0
    3.1227    1.2406   13.2181 C   0  0  0  0  0  0  0  0  0  0  0  0
    4.4207    1.3039   13.7175 C   0  0  0  0  0  0  0  0  0  0  0  0
    4.7482    0.4921   14.7654 N   0  0  0  0  0  0  0  0  0  0  0  0
    5.8898    0.3836   15.5035 C   0  0  0  0  0  0  0  0  0  0  0  0
    5.5715   -0.5089   16.5177 C   0  0  0  0  0  0  0  0  0  0  0  0
    4.3818   -1.0543   16.3920 N   0  0  0  0  0  0  0  0  0  0  0  0
    3.8330   -0.4170   15.3252 C   0  0  0  0  0  0  0  0  0  0  0  0
    2.6564    2.1560   12.1340 C   0  0  0  0  0  0  0  0  0  0  0  0
    3.5566    2.6280   11.1666 C   0  0  0  0  0  0  0  0  0  0  0  0
    3.1294    3.4499   10.1277 C   0  0  0  0  0  0  0  0  0  0  0  0
    1.7879    3.8078   10.0318 C   0  0  0  0  0  0  0  0  0  0  0  0
    0.8660    3.3707   10.9895 C   0  0  0  0  0  0  0  0  0  0  0  0
   -0.5399    3.7537   10.8977 N   0  0  0  0  0  0  0  0  0  0  0  0
   -1.2550    4.3141   11.8736 C   0  0  0  0  0  0  0  0  0  0  0  0
   -0.8140    4.4931   13.0050 O   0  0  0  0  0  0  0  0  0  0  0  0
   -2.6333    4.6854   11.4124 C   0  0  0  0  0  0  0  0  0  0  0  0
   -3.5436    5.2295   12.3108 C   0  0  0  0  0  0  0  0  0  0  0  0
   -4.8206    5.5735   11.8835 C   0  0  0  0  0  0  0  0  0  0  0  0
   -5.1873    5.3735   10.5579 C   0  0  0  0  0  0  0  0  0  0  0  0
   -4.2770    4.8294    9.6596 C   0  0  0  0  0  0  0  0  0  0  0  0
   -3.0000    4.4854   10.0869 C   0  0  0  0  0  0  0  0  0  0  0  0
   -6.5655    5.7447   10.0968 C   0  0  0  0  0  0  0  0  0  0  0  0
   -6.9139    5.5749    8.9190 O   0  0  0  0  0  0  0  0  0  0  0  0
   -7.3451    6.2270   10.9318 O   0  0  0  0  0  0  0  0  0  0  0  0
    1.3140    2.5576   12.0419 C   0  0  0  0  0  0  0  0  0  0  0  0
   -0.3863   -2.6106   15.8150 C   0  0  0  0  0  0  0  0  0  0  0  0
   -1.7497   -2.8673   15.6804 C   0  0  0  0  0  0  0  0  0  0  0  0
   -3.6454   -4.3600   13.8213 H   0  0  0  0  0  0  0  0  0  0  0  0
   -5.2223   -3.6262   13.3728 H   0  0  0  0  0  0  0  0  0  0  0  0
   -3.7071   -3.0341   12.6111 H   0  0  0  0  0  0  0  0  0  0  0  0
   -4.5529   -0.3487   15.1344 H   0  0  0  0  0  0  0  0  0  0  0  0
   -4.2460   -0.6523   13.3908 H   0  0  0  0  0  0  0  0  0  0  0  0
   -5.7612   -1.2445   14.1525 H   0  0  0  0  0  0  0  0  0  0  0  0
   -4.3579   -2.1796   16.7908 H   0  0  0  0  0  0  0  0  0  0  0  0
   -5.5520   -3.2079   15.9289 H   0  0  0  0  0  0  0  0  0  0  0  0
   -3.9064   -3.8397   16.2746 H   0  0  0  0  0  0  0  0  0  0  0  0
   -2.5321   -0.4853   13.3757 H   0  0  0  0  0  0  0  0  0  0  0  0
   -0.1167   -0.9386   13.2140 H   0  0  0  0  0  0  0  0  0  0  0  0
   -0.4764    0.2210   14.5379 H   0  0  0  0  0  0  0  0  0  0  0  0
    5.1484    1.9765   13.2880 H   0  0  0  0  0  0  0  0  0  0  0  0
    6.8331    0.8820   15.3359 H   0  0  0  0  0  0  0  0  0  0  0  0
    6.2400   -0.7347   17.3354 H   0  0  0  0  0  0  0  0  0  0  0  0
    4.5981    2.3490   11.2292 H   0  0  0  0  0  0  0  0  0  0  0  0
    3.8383    3.8096    9.3966 H   0  0  0  0  0  0  0  0  0  0  0  0
    1.4559    4.4276    9.2120 H   0  0  0  0  0  0  0  0  0  0  0  0
   -1.4803    4.9031   13.5439 H   0  0  0  0  0  0  0  0  0  0  0  0
   -3.2586    5.3850   13.3409 H   0  0  0  0  0  0  0  0  0  0  0  0
   -5.5280    5.9962   12.5816 H   0  0  0  0  0  0  0  0  0  0  0  0
   -4.5619    4.6739    8.6295 H   0  0  0  0  0  0  0  0  0  0  0  0
   -2.2926    4.0626    9.3888 H   0  0  0  0  0  0  0  0  0  0  0  0
   -8.1777    6.4171   10.5156 H   0  0  0  0  0  0  0  0  0  0  0  0
    0.6121    2.2342   12.7963 H   0  0  0  0  0  0  0  0  0  0  0  0
    0.2066   -3.2125   16.4877 H   0  0  0  0  0  0  0  0  0  0  0  0
   -2.2073   -3.6587   16.2555 H   0  0  0  0  0  0  0  0  0  0  0  0
  1  2  1  0  0  0  0
  2  3  1  0  0  0  0
  2  4  1  0  0  0  0
  2  5  1  0  0  0  0
  5  6  2  0  0  0  0
  5 38  1  0  0  0  0
  6  7  1  0  0  0  0
  7  8  1  0  0  0  0
  8  9  2  0  0  0  0
  8 37  1  0  0  0  0
  9 10  1  0  0  0  0
 10 11  2  0  0  0  0
 10 18  1  0  0  0  0
 11 12  1  0  0  0  0
 12 13  2  0  0  0  0
 12 19  1  0  0  0  0
 13 14  1  0  0  0  0
 14 15  1  0  0  0  0
 14 18  1  0  0  0  0
 15 16  2  0  0  0  0
 16 17  1  0  0  0  0
 17 18  2  0  0  0  0
 19 20  2  0  0  0  0
 19 36  1  0  0  0  0
 20 21  1  0  0  0  0
 21 22  2  0  0  0  0
 22 23  1  0  0  0  0
 23 24  1  0  0  0  0
 23 36  2  0  0  0  0
 24 25  2  0  0  0  0
 25 26  1  0  0  0  0
 25 27  1  0  0  0  0
 27 28  2  0  0  0  0
 27 32  1  0  0  0  0
 28 29  1  0  0  0  0
 29 30  2  0  0  0  0
 30 31  1  0  0  0  0
 30 33  1  0  0  0  0
 31 32  2  0  0  0  0
 33 34  2  0  0  0  0
 33 35  1  0  0  0  0
 37 38  2  0  0  0  0
  1 39  1  0  0  0  0
  1 40  1  0  0  0  0
  1 41  1  0  0  0  0
  3 42  1  0  0  0  0
  3 43  1  0  0  0  0
  3 44  1  0  0  0  0
  4 45  1  0  0  0  0
  4 46  1  0  0  0  0
  4 47  1  0  0  0  0
  6 48  1  0  0  0  0
  7 49  1  0  0  0  0
  7 50  1  0  0  0  0
 13 51  1  0  0  0  0
 15 52  1  0  0  0  0
 16 53  1  0  0  0  0
 20 54  1  0  0  0  0
 21 55  1  0  0  0  0
 22 56  1  0  0  0  0
 26 57  1  0  0  0  0
 28 58  1  0  0  0  0
 29 59  1  0  0  0  0
 31 60  1  0  0  0  0
 32 61  1  0  0  0  0
 35 62  1  0  0  0  0
 36 63  1  0  0  0  0
 37 64  1  0  0  0  0
 38 65  1  0  0  0  0
M  END
> <IC50[nM]>
65

$$$$
CHEMBL3264994
  -OEChem-05192314333D
 Structure written by MMmdl.
 65 69  0     0  0  0  0  0  0999 V2000
   -4.1531   -3.4266   13.5369 C   0  0  0  0  0  0  0  0  0  0  0  0
   -3.9919   -2.3907   14.6629 C   0  0  0  0  0  0  0  0  0  0  0  0
   -4.6875   -1.0646   14.3101 C   0  0  0  0  0  0  0  0  0  0  0  0
   -4.4873   -2.9438   16.0103 C   0  0  0  0  0  0  0  0  0  0  0  0
   -2.5261   -2.1057   14.8053 C   0  0  0  0  0  0  0  0  0  0  0  0
   -1.9389   -1.0760   14.0580 C   0  0  0  0  0  0  0  0  0  0  0  0
   -0.5664   -0.8256   14.2115 C   0  0  0  0  0  0  0  0  0  0  0  0
    0.2220   -1.5829   15.0890 C   0  0  0  0  0  0  0  0  0  0  0  0
    1.5930   -1.3491   15.3060 N   0  0  0  0  0  0  0  0  0  0  0  0
    2.5452   -0.4689   14.7536 C   0  0  0  0  0  0  0  0  0  0  0  0
    2.2178    0.3551   13.7190 N   0  0  0  0  0  0  0  0  0  0  0  0
    3.1227    1.2406   13.2181 C   0  0  0  0  0  0  0  0  0  0  0  0
    4.4207    1.3039   13.7175 C   0  0  0  0  0  0  0  0  0  0  0  0
    4.7482    0.4921   14.7654 N   0  0  0  0  0  0  0  0  0  0  0  0
    5.8898    0.3836   15.5035 C   0  0  0  0  0  0  0  0  0  0  0  0
    5.5715   -0.5089   16.5177 C   0  0  0  0  0  0  0  0  0  0  0  0
    4.3818   -1.0543   16.3920 N   0  0  0  0  0  0  0  0  0  0  0  0
    3.8330   -0.4170   15.3252 C   0  0  0  0  0  0  0  0  0  0  0  0
    2.6564    2.1560   12.1340 C   0  0  0  0  0  0  0  0  0  0  0  0
    3.5566    2.6280   11.1666 C   0  0  0  0  0  0  0  0  0  0  0  0
    3.1294    3.4499   10.1277 C   0  0  0  0  0  0  0  0  0  0  0  0
    1.7879    3.8078   10.0318 C   0  0  0  0  0  0  0  0  0  0  0  0
    0.8660    3.3707   10.9895 C   0  0  0  0  0  0  0  0  0  0  0  0
   -0.5399    3.7537   10.8977 N   0  0  0  0  0  0  0  0  0  0  0  0
   -1.2550    4.3141   11.8736 C   0  0  0  0  0  0  0  0  0  0  0  0
   -0.8140    4.4931   13.0050 O   0  0  0  0  0  0  0  0  0  0  0  0
   -2.6333    4.6854   11.4124 C   0  0  0  0  0  0  0  0  0  0  0  0
   -3.5436    5.2295   12.3108 C   0  0  0  0  0  0  0  0  0  0  0  0
   -4.8206    5.5735   11.8835 C   0  0  0  0  0  0  0  0  0  0  0  0
   -5.1873    5.3735   10.5579 C   0  0  0  0  0  0  0  0  0  0  0  0
   -4.2770    4.8294    9.6596 C   0  0  0  0  0  0  0  0  0  0  0  0
   -3.0000    4.4854   10.0869 C   0  0  0  0  0  0  0  0  0  0  0  0
   -6.5655    5.7447   10.0968 C   0  0  0  0  0  0  0  0  0  0  0  0
   -6.9139    5.5749    8.9190 O   0  0  0  0  0  0  0  0  0  0  0  0
   -7.3451    6.2270   10.9318 O   0  0  0  0  0  0  0  0  0  0  0  0
    1.3140    2.5576   12.0419 C   0  0  0  0  0  0  0  0  0  0  0  0
   -0.3863   -2.6106   15.8150 C   0  0  0  0  0  0  0  0  0  0  0  0
   -1.7497   -2.8673   15.6804 C   0  0  0  0  0  0  0  0  0  0  0  0
   -3.6454   -4.3600   13.8213 H   0  0  0  0  0  0  0  0  0  0  0  0
   -5.2223   -3.6262   13.3728 H   0  0  0  0  0  0  0  0  0  0  0  0
   -3.7071   -3.0341   12.6111 H   0  0  0  0  0  0  0  0  0  0  0  0
   -4.5529   -0.3487   15.1344 H   0  0  0  0  0  0  0  0  0  0  0  0
   -4.2460   -0.6523   13.3908 H   0  0  0  0  0  0  0  0  0  0  0  0
   -5.7612   -1.2445   14.1525 H   0  0  0  0  0  0  0  0  0  0  0  0
   -4.3579   -2.1796   16.7908 H   0  0  0  0  0  0  0  0  0  0  0  0
   -5.5520   -3.2079   15.9289 H   0  0  0  0  0  0  0  0  0  0  0  0
   -3.9064   -3.8397   16.2746 H   0  0  0  0  0  0  0  0  0  0  0  0
   -2.5321   -0.4853   13.3757 H   0  0  0  0  0  0  0  0  0  0  0  0
   -0.1075   -0.0318   13.6408 H   0  0  0  0  0  0  0  0  0  0  0  0
    1.3010    0.3089   13.3224 H   0  0  0  0  0  0  0  0  0  0  0  0
    5.1484    1.9765   13.2880 H   0  0  0  0  0  0  0  0  0  0  0  0
    6.8331    0.8820   15.3359 H   0  0  0  0  0  0  0  0  0  0  0  0
    6.2400   -0.7347   17.3354 H   0  0  0  0  0  0  0  0  0  0  0  0
    4.5981    2.3490   11.2292 H   0  0  0  0  0  0  0  0  0  0  0  0
    3.8383    3.8096    9.3966 H   0  0  0  0  0  0  0  0  0  0  0  0
    1.7537    4.9072   10.0402 H   0  0  0  0  0  0  0  0  0  0  0  0
    1.4316    3.4373    9.0593 H   0  0  0  0  0  0  0  0  0  0  0  0
   -3.2586    5.3850   13.3409 H   0  0  0  0  0  0  0  0  0  0  0  0
   -5.5280    5.9962   12.5816 H   0  0  0  0  0  0  0  0  0  0  0  0
   -4.5619    4.6739    8.6295 H   0  0  0  0  0  0  0  0  0  0  0  0
   -2.2926    4.0626    9.3888 H   0  0  0  0  0  0  0  0  0  0  0  0
   -8.1777    6.4171   10.5156 H   0  0  0  0  0  0  0  0  0  0  0  0
    0.6121    2.2342   12.7963 H   0  0  0  0  0  0  0  0  0  0  0  0
    0.2066   -3.2125   16.4877 H   0  0  0  0  0  0  0  0  0  0  0  0
   -2.2073   -3.6587   16.2555 H   0  0  0  0  0  0  0  0  0  0  0  0
  1  2  1  0  0  0  0
  2  3  1  0  0  0  0
  2  4  1  0  0  0  0
  2  5  1  0  0  0  0
  5  6  2  0  0  0  0
  5 38  1  0  0  0  0
  6  7  1  0  0  0  0
  7  8  2  0  0  0  0
  8  9  1  0  0  0  0
  8 37  1  0  0  0  0
  9 10  2  0  0  0  0
 10 11  1  0  0  0  0
 10 18  1  0  0  0  0
 11 12  1  0  0  0  0
 12 13  2  0  0  0  0
 12 19  1  0  0  0  0
 13 14  1  0  0  0  0
 14 15  1  0  0  0  0
 14 18  1  0  0  0  0
 15 16  2  0  0  0  0
 16 17  1  0  0  0  0
 17 18  2  0  0  0  0
 19 20  1  0  0  0  0
 19 36  2  0  0  0  0
 20 21  2  0  0  0  0
 21 22  1  0  0  0  0
 22 23  1  0  0  0  0
 23 24  2  3  0  0  0
 23 36  1  0  0  0  0
 24 25  1  0  0  0  0
 25 26  2  0  0  0  0
 25 27  1  0  0  0  0
 27 28  2  0  0  0  0
 27 32  1  0  0  0  0
 28 29  1  0  0  0  0
 29 30  2  0  0  0  0
 30 31  1  0  0  0  0
 30 33  1  0  0  0  0
 31 32  2  0  0  0  0
 33 34  2  0  0  0  0
 33 35  1  0  0  0  0
 37 38  2  0  0  0  0
  1 39  1  0  0  0  0
  1 40  1  0  0  0  0
  1 41  1  0  0  0  0
  3 42  1  0  0  0  0
  3 43  1  0  0  0  0
  3 44  1  0  0  0  0
  4 45  1  0  0  0  0
  4 46  1  0  0  0  0
  4 47  1  0  0  0  0
  6 48  1  0  0  0  0
  7 49  1  0  0  0  0
 11 50  1  0  0  0  0
 13 51  1  0  0  0  0
 15 52  1  0  0  0  0
 16 53  1  0  0  0  0
 20 54  1  0  0  0  0
 21 55  1  0  0  0  0
 22 56  1  0  0  0  0
 22 57  1  0  0  0  0
 28 58  1  0  0  0  0
 29 59  1  0  0  0  0
 31 60  1  0  0  0  0
 32 61  1  0  0  0  0
 35 62  1  0  0  0  0
 36 63  1  0  0  0  0
 37 64  1  0  0  0  0
 38 65  1  0  0  0  0
M  END
> <IC50[nM]>
65

$$$$
CHEMBL3264994
  -OEChem-05192314333D
 Structure written by MMmdl.
 65 69  0     0  0  0  0  0  0999 V2000
   -4.1531   -3.4266   13.5369 C   0  0  0  0  0  0  0  0  0  0  0  0
   -3.9919   -2.3907   14.6629 C   0  0  0  0  0  0  0  0  0  0  0  0
   -4.6875   -1.0646   14.3101 C   0  0  0  0  0  0  0  0  0  0  0  0
   -4.4873   -2.9438   16.0103 C   0  0  0  0  0  0  0  0  0  0  0  0
   -2.5261   -2.1057   14.8053 C   0  0  0  0  0  0  0  0  0  0  0  0
   -1.9389   -1.0760   14.0580 C   0  0  0  0  0  0  0  0  0  0  0  0
   -0.5664   -0.8256   14.2115 C   0  0  0  0  0  0  0  0  0  0  0  0
    0.2220   -1.5829   15.0890 C   0  0  0  0  0  0  0  0  0  0  0  0
    1.5930   -1.3491   15.3060 N   0  0  0  0  0  0  0  0  0  0  0  0
    2.5452   -0.4689   14.7536 C   0  0  0  0  0  0  0  0  0  0  0  0
    2.2178    0.3551   13.7190 N   0  0  0  0  0  0  0  0  0  0  0  0
    3.1227    1.2406   13.2181 C   0  0  0  0  0  0  0  0  0  0  0  0
    4.4207    1.3039   13.7175 C   0  0  0  0  0  0  0  0  0  0  0  0
    4.7482    0.4921   14.7654 N   0  0  0  0  0  0  0  0  0  0  0  0
    5.8898    0.3836   15.5035 C   0  0  0  0  0  0  0  0  0  0  0  0
    5.5715   -0.5089   16.5177 C   0  0  0  0  0  0  0  0  0  0  0  0
    4.3818   -1.0543   16.3920 N   0  0  0  0  0  0  0  0  0  0  0  0
    3.8330   -0.4170   15.3252 C   0  0  0  0  0  0  0  0  0  0  0  0
    2.6564    2.1560   12.1340 C   0  0  0  0  0  0  0  0  0  0  0  0
    3.5566    2.6280   11.1666 C   0  0  0  0  0  0  0  0  0  0  0  0
    3.1294    3.4499   10.1277 C   0  0  0  0  0  0  0  0  0  0  0  0
    1.7879    3.8078   10.0318 C   0  0  0  0  0  0  0  0  0  0  0  0
    0.8660    3.3707   10.9895 C   0  0  0  0  0  0  0  0  0  0  0  0
   -0.5399    3.7537   10.8977 N   0  0  0  0  0  0  0  0  0  0  0  0
   -1.2550    4.3141   11.8736 C   0  0  0  0  0  0  0  0  0  0  0  0
   -0.8140    4.4931   13.0050 O   0  0  0  0  0  0  0  0  0  0  0  0
   -2.6333    4.6854   11.4124 C   0  0  0  0  0  0  0  0  0  0  0  0
   -3.5436    5.2295   12.3108 C   0  0  0  0  0  0  0  0  0  0  0  0
   -4.8206    5.5735   11.8835 C   0  0  0  0  0  0  0  0  0  0  0  0
   -5.1873    5.3735   10.5579 C   0  0  0  0  0  0  0  0  0  0  0  0
   -4.2770    4.8294    9.6596 C   0  0  0  0  0  0  0  0  0  0  0  0
   -3.0000    4.4854   10.0869 C   0  0  0  0  0  0  0  0  0  0  0  0
   -6.5655    5.7447   10.0968 C   0  0  0  0  0  0  0  0  0  0  0  0
   -6.9139    5.5749    8.9190 O   0  0  0  0  0  0  0  0  0  0  0  0
   -7.3451    6.2270   10.9318 O   0  0  0  0  0  0  0  0  0  0  0  0
    1.3140    2.5576   12.0419 C   0  0  0  0  0  0  0  0  0  0  0  0
   -0.3863   -2.6106   15.8150 C   0  0  0  0  0  0  0  0  0  0  0  0
   -1.7497   -2.8673   15.6804 C   0  0  0  0  0  0  0  0  0  0  0  0
   -3.6454   -4.3600   13.8213 H   0  0  0  0  0  0  0  0  0  0  0  0
   -5.2223   -3.6262   13.3728 H   0  0  0  0  0  0  0  0  0  0  0  0
   -3.7071   -3.0341   12.6111 H   0  0  0  0  0  0  0  0  0  0  0  0
   -4.5529   -0.3487   15.1344 H   0  0  0  0  0  0  0  0  0  0  0  0
   -4.2460   -0.6523   13.3908 H   0  0  0  0  0  0  0  0  0  0  0  0
   -5.7612   -1.2445   14.1525 H   0  0  0  0  0  0  0  0  0  0  0  0
   -4.3579   -2.1796   16.7908 H   0  0  0  0  0  0  0  0  0  0  0  0
   -5.5520   -3.2079   15.9289 H   0  0  0  0  0  0  0  0  0  0  0  0
   -3.9064   -3.8397   16.2746 H   0  0  0  0  0  0  0  0  0  0  0  0
   -2.5321   -0.4853   13.3757 H   0  0  0  0  0  0  0  0  0  0  0  0
   -0.1075   -0.0318   13.6408 H   0  0  0  0  0  0  0  0  0  0  0  0
    1.3010    0.3089   13.3224 H   0  0  0  0  0  0  0  0  0  0  0  0
    5.1484    1.9765   13.2880 H   0  0  0  0  0  0  0  0  0  0  0  0
    6.8331    0.8820   15.3359 H   0  0  0  0  0  0  0  0  0  0  0  0
    6.2400   -0.7347   17.3354 H   0  0  0  0  0  0  0  0  0  0  0  0
    4.3327    3.1880   11.7090 H   0  0  0  0  0  0  0  0  0  0  0  0
    4.0054    1.7398   10.6978 H   0  0  0  0  0  0  0  0  0  0  0  0
    3.8383    3.8096    9.3966 H   0  0  0  0  0  0  0  0  0  0  0  0
    1.4559    4.4276    9.2120 H   0  0  0  0  0  0  0  0  0  0  0  0
   -3.2586    5.3850   13.3409 H   0  0  0  0  0  0  0  0  0  0  0  0
   -5.5280    5.9962   12.5816 H   0  0  0  0  0  0  0  0  0  0  0  0
   -4.5619    4.6739    8.6295 H   0  0  0  0  0  0  0  0  0  0  0  0
   -2.2926    4.0626    9.3888 H   0  0  0  0  0  0  0  0  0  0  0  0
   -8.1777    6.4171   10.5156 H   0  0  0  0  0  0  0  0  0  0  0  0
    0.6121    2.2342   12.7963 H   0  0  0  0  0  0  0  0  0  0  0  0
    0.2066   -3.2125   16.4877 H   0  0  0  0  0  0  0  0  0  0  0  0
   -2.2073   -3.6587   16.2555 H   0  0  0  0  0  0  0  0  0  0  0  0
  1  2  1  0  0  0  0
  2  3  1  0  0  0  0
  2  4  1  0  0  0  0
  2  5  1  0  0  0  0
  5  6  2  0  0  0  0
  5 38  1  0  0  0  0
  6  7  1  0  0  0  0
  7  8  2  0  0  0  0
  8  9  1  0  0  0  0
  8 37  1  0  0  0  0
  9 10  2  0  0  0  0
 10 11  1  0  0  0  0
 10 18  1  0  0  0  0
 11 12  1  0  0  0  0
 12 13  2  0  0  0  0
 12 19  1  0  0  0  0
 13 14  1  0  0  0  0
 14 15  1  0  0  0  0
 14 18  1  0  0  0  0
 15 16  2  0  0  0  0
 16 17  1  0  0  0  0
 17 18  2  0  0  0  0
 19 20  1  0  0  0  0
 19 36  2  0  0  0  0
 20 21  1  0  0  0  0
 21 22  2  0  0  0  0
 22 23  1  0  0  0  0
 23 24  2  3  0  0  0
 23 36  1  0  0  0  0
 24 25  1  0  0  0  0
 25 26  2  0  0  0  0
 25 27  1  0  0  0  0
 27 28  2  0  0  0  0
 27 32  1  0  0  0  0
 28 29  1  0  0  0  0
 29 30  2  0  0  0  0
 30 31  1  0  0  0  0
 30 33  1  0  0  0  0
 31 32  2  0  0  0  0
 33 34  2  0  0  0  0
 33 35  1  0  0  0  0
 37 38  2  0  0  0  0
  1 39  1  0  0  0  0
  1 40  1  0  0  0  0
  1 41  1  0  0  0  0
  3 42  1  0  0  0  0
  3 43  1  0  0  0  0
  3 44  1  0  0  0  0
  4 45  1  0  0  0  0
  4 46  1  0  0  0  0
  4 47  1  0  0  0  0
  6 48  1  0  0  0  0
  7 49  1  0  0  0  0
 11 50  1  0  0  0  0
 13 51  1  0  0  0  0
 15 52  1  0  0  0  0
 16 53  1  0  0  0  0
 20 54  1  0  0  0  0
 20 55  1  0  0  0  0
 21 56  1  0  0  0  0
 22 57  1  0  0  0  0
 28 58  1  0  0  0  0
 29 59  1  0  0  0  0
 31 60  1  0  0  0  0
 32 61  1  0  0  0  0
 35 62  1  0  0  0  0
 36 63  1  0  0  0  0
 37 64  1  0  0  0  0
 38 65  1  0  0  0  0
M  END
> <IC50[nM]>
65

$$$$
CHEMBL3264994
  -OEChem-05192314333D
 Structure written by MMmdl.
 65 69  0     0  0  0  0  0  0999 V2000
   -4.1531   -3.4266   13.5369 C   0  0  0  0  0  0  0  0  0  0  0  0
   -3.9919   -2.3907   14.6629 C   0  0  0  0  0  0  0  0  0  0  0  0
   -4.6875   -1.0646   14.3101 C   0  0  0  0  0  0  0  0  0  0  0  0
   -4.4873   -2.9438   16.0103 C   0  0  0  0  0  0  0  0  0  0  0  0
   -2.5261   -2.1057   14.8053 C   0  0  0  0  0  0  0  0  0  0  0  0
   -1.9389   -1.0760   14.0580 C   0  0  0  0  0  0  0  0  0  0  0  0
   -0.5664   -0.8256   14.2115 C   0  0  0  0  0  0  0  0  0  0  0  0
    0.2220   -1.5829   15.0890 C   0  0  0  0  0  0  0  0  0  0  0  0
    1.5930   -1.3491   15.3060 N   0  0  0  0  0  0  0  0  0  0  0  0
    2.5452   -0.4689   14.7536 C   0  0  0  0  0  0  0  0  0  0  0  0
    2.2178    0.3551   13.7190 N   0  0  0  0  0  0  0  0  0  0  0  0
    3.1227    1.2406   13.2181 C   0  0  0  0  0  0  0  0  0  0  0  0
    4.4207    1.3039   13.7175 C   0  0  0  0  0  0  0  0  0  0  0  0
    4.7482    0.4921   14.7654 N   0  0  0  0  0  0  0  0  0  0  0  0
    5.8898    0.3836   15.5035 C   0  0  0  0  0  0  0  0  0  0  0  0
    5.5715   -0.5089   16.5177 C   0  0  0  0  0  0  0  0  0  0  0  0
    4.3818   -1.0543   16.3920 N   0  0  0  0  0  0  0  0  0  0  0  0
    3.8330   -0.4170   15.3252 C   0  0  0  0  0  0  0  0  0  0  0  0
    2.6564    2.1560   12.1340 C   0  0  0  0  0  0  0  0  0  0  0  0
    3.5566    2.6280   11.1666 C   0  0  0  0  0  0  0  0  0  0  0  0
    3.1294    3.4499   10.1277 C   0  0  0  0  0  0  0  0  0  0  0  0
    1.7879    3.8078   10.0318 C   0  0  0  0  0  0  0  0  0  0  0  0
    0.8660    3.3707   10.9895 C   0  0  0  0  0  0  0  0  0  0  0  0
   -0.5399    3.7537   10.8977 N   0  0  0  0  0  0  0  0  0  0  0  0
   -1.2550    4.3141   11.8736 C   0  0  0  0  0  0  0  0  0  0  0  0
   -0.8140    4.4931   13.0050 O   0  0  0  0  0  0  0  0  0  0  0  0
   -2.6333    4.6854   11.4124 C   0  0  0  0  0  0  0  0  0  0  0  0
   -3.5436    5.2295   12.3108 C   0  0  0  0  0  0  0  0  0  0  0  0
   -4.8206    5.5735   11.8835 C   0  0  0  0  0  0  0  0  0  0  0  0
   -5.1873    5.3735   10.5579 C   0  0  0  0  0  0  0  0  0  0  0  0
   -4.2770    4.8294    9.6596 C   0  0  0  0  0  0  0  0  0  0  0  0
   -3.0000    4.4854   10.0869 C   0  0  0  0  0  0  0  0  0  0  0  0
   -6.5655    5.7447   10.0968 C   0  0  0  0  0  0  0  0  0  0  0  0
   -6.9139    5.5749    8.9190 O   0  0  0  0  0  0  0  0  0  0  0  0
   -7.3451    6.2270   10.9318 O   0  0  0  0  0  0  0  0  0  0  0  0
    1.3140    2.5576   12.0419 C   0  0  0  0  0  0  0  0  0  0  0  0
   -0.3863   -2.6106   15.8150 C   0  0  0  0  0  0  0  0  0  0  0  0
   -1.7497   -2.8673   15.6804 C   0  0  0  0  0  0  0  0  0  0  0  0
   -3.6454   -4.3600   13.8213 H   0  0  0  0  0  0  0  0  0  0  0  0
   -5.2223   -3.6262   13.3728 H   0  0  0  0  0  0  0  0  0  0  0  0
   -3.7071   -3.0341   12.6111 H   0  0  0  0  0  0  0  0  0  0  0  0
   -4.5529   -0.3487   15.1344 H   0  0  0  0  0  0  0  0  0  0  0  0
   -4.2460   -0.6523   13.3908 H   0  0  0  0  0  0  0  0  0  0  0  0
   -5.7612   -1.2445   14.1525 H   0  0  0  0  0  0  0  0  0  0  0  0
   -4.3579   -2.1796   16.7908 H   0  0  0  0  0  0  0  0  0  0  0  0
   -5.5520   -3.2079   15.9289 H   0  0  0  0  0  0  0  0  0  0  0  0
   -3.9064   -3.8397   16.2746 H   0  0  0  0  0  0  0  0  0  0  0  0
   -2.5321   -0.4853   13.3757 H   0  0  0  0  0  0  0  0  0  0  0  0
   -0.1075   -0.0318   13.6408 H   0  0  0  0  0  0  0  0  0  0  0  0
    1.3010    0.3089   13.3224 H   0  0  0  0  0  0  0  0  0  0  0  0
    5.1484    1.9765   13.2880 H   0  0  0  0  0  0  0  0  0  0  0  0
    6.8331    0.8820   15.3359 H   0  0  0  0  0  0  0  0  0  0  0  0
    6.2400   -0.7347   17.3354 H   0  0  0  0  0  0  0  0  0  0  0  0
    4.5981    2.3490   11.2292 H   0  0  0  0  0  0  0  0  0  0  0  0
    3.8383    3.8096    9.3966 H   0  0  0  0  0  0  0  0  0  0  0  0
    1.4559    4.4276    9.2120 H   0  0  0  0  0  0  0  0  0  0  0  0
   -3.2586    5.3850   13.3409 H   0  0  0  0  0  0  0  0  0  0  0  0
   -5.5280    5.9962   12.5816 H   0  0  0  0  0  0  0  0  0  0  0  0
   -4.5619    4.6739    8.6295 H   0  0  0  0  0  0  0  0  0  0  0  0
   -2.2926    4.0626    9.3888 H   0  0  0  0  0  0  0  0  0  0  0  0
   -8.1777    6.4171   10.5156 H   0  0  0  0  0  0  0  0  0  0  0  0
    0.7157    1.6356   11.9991 H   0  0  0  0  0  0  0  0  0  0  0  0
    1.0868    3.0993   12.9719 H   0  0  0  0  0  0  0  0  0  0  0  0
    0.2066   -3.2125   16.4877 H   0  0  0  0  0  0  0  0  0  0  0  0
   -2.2073   -3.6587   16.2555 H   0  0  0  0  0  0  0  0  0  0  0  0
  1  2  1  0  0  0  0
  2  3  1  0  0  0  0
  2  4  1  0  0  0  0
  2  5  1  0  0  0  0
  5  6  2  0  0  0  0
  5 38  1  0  0  0  0
  6  7  1  0  0  0  0
  7  8  2  0  0  0  0
  8  9  1  0  0  0  0
  8 37  1  0  0  0  0
  9 10  2  0  0  0  0
 10 11  1  0  0  0  0
 10 18  1  0  0  0  0
 11 12  1  0  0  0  0
 12 13  2  0  0  0  0
 12 19  1  0  0  0  0
 13 14  1  0  0  0  0
 14 15  1  0  0  0  0
 14 18  1  0  0  0  0
 15 16  2  0  0  0  0
 16 17  1  0  0  0  0
 17 18  2  0  0  0  0
 19 20  2  0  0  0  0
 19 36  1  0  0  0  0
 20 21  1  0  0  0  0
 21 22  2  0  0  0  0
 22 23  1  0  0  0  0
 23 24  2  3  0  0  0
 23 36  1  0  0  0  0
 24 25  1  0  0  0  0
 25 26  2  0  0  0  0
 25 27  1  0  0  0  0
 27 28  2  0  0  0  0
 27 32  1  0  0  0  0
 28 29  1  0  0  0  0
 29 30  2  0  0  0  0
 30 31  1  0  0  0  0
 30 33  1  0  0  0  0
 31 32  2  0  0  0  0
 33 34  2  0  0  0  0
 33 35  1  0  0  0  0
 37 38  2  0  0  0  0
  1 39  1  0  0  0  0
  1 40  1  0  0  0  0
  1 41  1  0  0  0  0
  3 42  1  0  0  0  0
  3 43  1  0  0  0  0
  3 44  1  0  0  0  0
  4 45  1  0  0  0  0
  4 46  1  0  0  0  0
  4 47  1  0  0  0  0
  6 48  1  0  0  0  0
  7 49  1  0  0  0  0
 11 50  1  0  0  0  0
 13 51  1  0  0  0  0
 15 52  1  0  0  0  0
 16 53  1  0  0  0  0
 20 54  1  0  0  0  0
 21 55  1  0  0  0  0
 22 56  1  0  0  0  0
 28 57  1  0  0  0  0
 29 58  1  0  0  0  0
 31 59  1  0  0  0  0
 32 60  1  0  0  0  0
 35 61  1  0  0  0  0
 36 62  1  0  0  0  0
 36 63  1  0  0  0  0
 37 64  1  0  0  0  0
 38 65  1  0  0  0  0
M  END
> <IC50[nM]>
65

$$$$
CHEMBL3264994
  -OEChem-05192314333D
 Structure written by MMmdl.
 65 69  0     0  0  0  0  0  0999 V2000
   -4.1531   -3.4266   13.5369 C   0  0  0  0  0  0  0  0  0  0  0  0
   -3.9919   -2.3907   14.6629 C   0  0  0  0  0  0  0  0  0  0  0  0
   -4.6875   -1.0646   14.3101 C   0  0  0  0  0  0  0  0  0  0  0  0
   -4.4873   -2.9438   16.0103 C   0  0  0  0  0  0  0  0  0  0  0  0
   -2.5261   -2.1057   14.8053 C   0  0  0  0  0  0  0  0  0  0  0  0
   -1.9389   -1.0760   14.0580 C   0  0  0  0  0  0  0  0  0  0  0  0
   -0.5664   -0.8256   14.2115 C   0  0  0  0  0  0  0  0  0  0  0  0
    0.2220   -1.5829   15.0890 C   0  0  0  0  0  0  0  0  0  0  0  0
    1.5930   -1.3491   15.3060 N   0  0  0  0  0  0  0  0  0  0  0  0
    2.5452   -0.4689   14.7536 C   0  0  0  0  0  0  0  0  0  0  0  0
    2.2178    0.3551   13.7190 N   0  0  0  0  0  0  0  0  0  0  0  0
    3.1227    1.2406   13.2181 C   0  0  0  0  0  0  0  0  0  0  0  0
    4.4207    1.3039   13.7175 C   0  0  0  0  0  0  0  0  0  0  0  0
    4.7482    0.4921   14.7654 N   0  0  0  0  0  0  0  0  0  0  0  0
    5.8898    0.3836   15.5035 C   0  0  0  0  0  0  0  0  0  0  0  0
    5.5715   -0.5089   16.5177 C   0  0  0  0  0  0  0  0  0  0  0  0
    4.3818   -1.0543   16.3920 N   0  0  0  0  0  0  0  0  0  0  0  0
    3.8330   -0.4170   15.3252 C   0  0  0  0  0  0  0  0  0  0  0  0
    2.6564    2.1560   12.1340 C   0  0  0  0  0  0  0  0  0  0  0  0
    3.5566    2.6280   11.1666 C   0  0  0  0  0  0  0  0  0  0  0  0
    3.1294    3.4499   10.1277 C   0  0  0  0  0  0  0  0  0  0  0  0
    1.7879    3.8078   10.0318 C   0  0  0  0  0  0  0  0  0  0  0  0
    0.8660    3.3707   10.9895 C   0  0  0  0  0  0  0  0  0  0  0  0
   -0.5399    3.7537   10.8977 N   0  0  0  0  0  0  0  0  0  0  0  0
   -1.2550    4.3141   11.8736 C   0  0  0  0  0  0  0  0  0  0  0  0
   -0.8140    4.4931   13.0050 O   0  0  0  0  0  0  0  0  0  0  0  0
   -2.6333    4.6854   11.4124 C   0  0  0  0  0  0  0  0  0  0  0  0
   -3.5436    5.2295   12.3108 C   0  0  0  0  0  0  0  0  0  0  0  0
   -4.8206    5.5735   11.8835 C   0  0  0  0  0  0  0  0  0  0  0  0
   -5.1873    5.3735   10.5579 C   0  0  0  0  0  0  0  0  0  0  0  0
   -4.2770    4.8294    9.6596 C   0  0  0  0  0  0  0  0  0  0  0  0
   -3.0000    4.4854   10.0869 C   0  0  0  0  0  0  0  0  0  0  0  0
   -6.5655    5.7447   10.0968 C   0  0  0  0  0  0  0  0  0  0  0  0
   -6.9139    5.5749    8.9190 O   0  0  0  0  0  0  0  0  0  0  0  0
   -7.3451    6.2270   10.9318 O   0  0  0  0  0  0  0  0  0  0  0  0
    1.3140    2.5576   12.0419 C   0  0  0  0  0  0  0  0  0  0  0  0
   -0.3863   -2.6106   15.8150 C   0  0  0  0  0  0  0  0  0  0  0  0
   -1.7497   -2.8673   15.6804 C   0  0  0  0  0  0  0  0  0  0  0  0
   -3.6454   -4.3600   13.8213 H   0  0  0  0  0  0  0  0  0  0  0  0
   -5.2223   -3.6262   13.3728 H   0  0  0  0  0  0  0  0  0  0  0  0
   -3.7071   -3.0341   12.6111 H   0  0  0  0  0  0  0  0  0  0  0  0
   -4.5529   -0.3487   15.1344 H   0  0  0  0  0  0  0  0  0  0  0  0
   -4.2460   -0.6523   13.3908 H   0  0  0  0  0  0  0  0  0  0  0  0
   -5.7612   -1.2445   14.1525 H   0  0  0  0  0  0  0  0  0  0  0  0
   -4.3579   -2.1796   16.7908 H   0  0  0  0  0  0  0  0  0  0  0  0
   -5.5520   -3.2079   15.9289 H   0  0  0  0  0  0  0  0  0  0  0  0
   -3.9064   -3.8397   16.2746 H   0  0  0  0  0  0  0  0  0  0  0  0
   -2.5321   -0.4853   13.3757 H   0  0  0  0  0  0  0  0  0  0  0  0
   -0.1075   -0.0318   13.6408 H   0  0  0  0  0  0  0  0  0  0  0  0
    5.1014    1.0581   12.8891 H   0  0  0  0  0  0  0  0  0  0  0  0
    4.5958    2.3407   14.0407 H   0  0  0  0  0  0  0  0  0  0  0  0
    6.8331    0.8820   15.3359 H   0  0  0  0  0  0  0  0  0  0  0  0
    6.2400   -0.7347   17.3354 H   0  0  0  0  0  0  0  0  0  0  0  0
    4.5981    2.3490   11.2292 H   0  0  0  0  0  0  0  0  0  0  0  0
    3.8383    3.8096    9.3966 H   0  0  0  0  0  0  0  0  0  0  0  0
    1.7537    4.9072   10.0402 H   0  0  0  0  0  0  0  0  0  0  0  0
    1.4316    3.4373    9.0593 H   0  0  0  0  0  0  0  0  0  0  0  0
   -3.2586    5.3850   13.3409 H   0  0  0  0  0  0  0  0  0  0  0  0
   -5.5280    5.9962   12.5816 H   0  0  0  0  0  0  0  0  0  0  0  0
   -4.5619    4.6739    8.6295 H   0  0  0  0  0  0  0  0  0  0  0  0
   -2.2926    4.0626    9.3888 H   0  0  0  0  0  0  0  0  0  0  0  0
   -8.1777    6.4171   10.5156 H   0  0  0  0  0  0  0  0  0  0  0  0
    0.6121    2.2342   12.7963 H   0  0  0  0  0  0  0  0  0  0  0  0
    0.2066   -3.2125   16.4877 H   0  0  0  0  0  0  0  0  0  0  0  0
   -2.2073   -3.6587   16.2555 H   0  0  0  0  0  0  0  0  0  0  0  0
  1  2  1  0  0  0  0
  2  3  1  0  0  0  0
  2  4  1  0  0  0  0
  2  5  1  0  0  0  0
  5  6  2  0  0  0  0
  5 38  1  0  0  0  0
  6  7  1  0  0  0  0
  7  8  2  0  0  0  0
  8  9  1  0  0  0  0
  8 37  1  0  0  0  0
  9 10  2  0  0  0  0
 10 11  1  0  0  0  0
 10 18  1  0  0  0  0
 11 12  2  0  0  0  0
 12 13  1  0  0  0  0
 12 19  1  0  0  0  0
 13 14  1  0  0  0  0
 14 15  1  0  0  0  0
 14 18  1  0  0  0  0
 15 16  2  0  0  0  0
 16 17  1  0  0  0  0
 17 18  2  0  0  0  0
 19 20  1  0  0  0  0
 19 36  2  0  0  0  0
 20 21  2  0  0  0  0
 21 22  1  0  0  0  0
 22 23  1  0  0  0  0
 23 24  2  3  0  0  0
 23 36  1  0  0  0  0
 24 25  1  0  0  0  0
 25 26  2  0  0  0  0
 25 27  1  0  0  0  0
 27 28  2  0  0  0  0
 27 32  1  0  0  0  0
 28 29  1  0  0  0  0
 29 30  2  0  0  0  0
 30 31  1  0  0  0  0
 30 33  1  0  0  0  0
 31 32  2  0  0  0  0
 33 34  2  0  0  0  0
 33 35  1  0  0  0  0
 37 38  2  0  0  0  0
  1 39  1  0  0  0  0
  1 40  1  0  0  0  0
  1 41  1  0  0  0  0
  3 42  1  0  0  0  0
  3 43  1  0  0  0  0
  3 44  1  0  0  0  0
  4 45  1  0  0  0  0
  4 46  1  0  0  0  0
  4 47  1  0  0  0  0
  6 48  1  0  0  0  0
  7 49  1  0  0  0  0
 13 50  1  0  0  0  0
 13 51  1  0  0  0  0
 15 52  1  0  0  0  0
 16 53  1  0  0  0  0
 20 54  1  0  0  0  0
 21 55  1  0  0  0  0
 22 56  1  0  0  0  0
 22 57  1  0  0  0  0
 28 58  1  0  0  0  0
 29 59  1  0  0  0  0
 31 60  1  0  0  0  0
 32 61  1  0  0  0  0
 35 62  1  0  0  0  0
 36 63  1  0  0  0  0
 37 64  1  0  0  0  0
 38 65  1  0  0  0  0
M  END
> <IC50[nM]>
65

$$$$
CHEMBL3264994
  -OEChem-05192314333D
 Structure written by MMmdl.
 65 69  0     0  0  0  0  0  0999 V2000
   -4.1531   -3.4266   13.5369 C   0  0  0  0  0  0  0  0  0  0  0  0
   -3.9919   -2.3907   14.6629 C   0  0  0  0  0  0  0  0  0  0  0  0
   -4.6875   -1.0646   14.3101 C   0  0  0  0  0  0  0  0  0  0  0  0
   -4.4873   -2.9438   16.0103 C   0  0  0  0  0  0  0  0  0  0  0  0
   -2.5261   -2.1057   14.8053 C   0  0  0  0  0  0  0  0  0  0  0  0
   -1.9389   -1.0760   14.0580 C   0  0  0  0  0  0  0  0  0  0  0  0
   -0.5664   -0.8256   14.2115 C   0  0  0  0  0  0  0  0  0  0  0  0
    0.2220   -1.5829   15.0890 C   0  0  0  0  0  0  0  0  0  0  0  0
    1.5930   -1.3491   15.3060 N   0  0  0  0  0  0  0  0  0  0  0  0
    2.5452   -0.4689   14.7536 C   0  0  0  0  0  0  0  0  0  0  0  0
    2.2178    0.3551   13.7190 N   0  0  0  0  0  0  0  0  0  0  0  0
    3.1227    1.2406   13.2181 C   0  0  0  0  0  0  0  0  0  0  0  0
    4.4207    1.3039   13.7175 C   0  0  0  0  0  0  0  0  0  0  0  0
    4.7482    0.4921   14.7654 N   0  0  0  0  0  0  0  0  0  0  0  0
    5.8898    0.3836   15.5035 C   0  0  0  0  0  0  0  0  0  0  0  0
    5.5715   -0.5089   16.5177 C   0  0  0  0  0  0  0  0  0  0  0  0
    4.3818   -1.0543   16.3920 N   0  0  0  0  0  0  0  0  0  0  0  0
    3.8330   -0.4170   15.3252 C   0  0  0  0  0  0  0  0  0  0  0  0
    2.6564    2.1560   12.1340 C   0  0  0  0  0  0  0  0  0  0  0  0
    3.5566    2.6280   11.1666 C   0  0  0  0  0  0  0  0  0  0  0  0
    3.1294    3.4499   10.1277 C   0  0  0  0  0  0  0  0  0  0  0  0
    1.7879    3.8078   10.0318 C   0  0  0  0  0  0  0  0  0  0  0  0
    0.8660    3.3707   10.9895 C   0  0  0  0  0  0  0  0  0  0  0  0
   -0.5399    3.7537   10.8977 N   0  0  0  0  0  0  0  0  0  0  0  0
   -1.2550    4.3141   11.8736 C   0  0  0  0  0  0  0  0  0  0  0  0
   -0.8140    4.4931   13.0050 O   0  0  0  0  0  0  0  0  0  0  0  0
   -2.6333    4.6854   11.4124 C   0  0  0  0  0  0  0  0  0  0  0  0
   -3.5436    5.2295   12.3108 C   0  0  0  0  0  0  0  0  0  0  0  0
   -4.8206    5.5735   11.8835 C   0  0  0  0  0  0  0  0  0  0  0  0
   -5.1873    5.3735   10.5579 C   0  0  0  0  0  0  0  0  0  0  0  0
   -4.2770    4.8294    9.6596 C   0  0  0  0  0  0  0  0  0  0  0  0
   -3.0000    4.4854   10.0869 C   0  0  0  0  0  0  0  0  0  0  0  0
   -6.5655    5.7447   10.0968 C   0  0  0  0  0  0  0  0  0  0  0  0
   -6.9139    5.5749    8.9190 O   0  0  0  0  0  0  0  0  0  0  0  0
   -7.3451    6.2270   10.9318 O   0  0  0  0  0  0  0  0  0  0  0  0
    1.3140    2.5576   12.0419 C   0  0  0  0  0  0  0  0  0  0  0  0
   -0.3863   -2.6106   15.8150 C   0  0  0  0  0  0  0  0  0  0  0  0
   -1.7497   -2.8673   15.6804 C   0  0  0  0  0  0  0  0  0  0  0  0
   -3.6454   -4.3600   13.8213 H   0  0  0  0  0  0  0  0  0  0  0  0
   -5.2223   -3.6262   13.3728 H   0  0  0  0  0  0  0  0  0  0  0  0
   -3.7071   -3.0341   12.6111 H   0  0  0  0  0  0  0  0  0  0  0  0
   -4.5529   -0.3487   15.1344 H   0  0  0  0  0  0  0  0  0  0  0  0
   -4.2460   -0.6523   13.3908 H   0  0  0  0  0  0  0  0  0  0  0  0
   -5.7612   -1.2445   14.1525 H   0  0  0  0  0  0  0  0  0  0  0  0
   -4.3579   -2.1796   16.7908 H   0  0  0  0  0  0  0  0  0  0  0  0
   -5.5520   -3.2079   15.9289 H   0  0  0  0  0  0  0  0  0  0  0  0
   -3.9064   -3.8397   16.2746 H   0  0  0  0  0  0  0  0  0  0  0  0
   -2.5321   -0.4853   13.3757 H   0  0  0  0  0  0  0  0  0  0  0  0
   -0.1075   -0.0318   13.6408 H   0  0  0  0  0  0  0  0  0  0  0  0
    5.1014    1.0581   12.8891 H   0  0  0  0  0  0  0  0  0  0  0  0
    4.5958    2.3407   14.0407 H   0  0  0  0  0  0  0  0  0  0  0  0
    6.8331    0.8820   15.3359 H   0  0  0  0  0  0  0  0  0  0  0  0
    6.2400   -0.7347   17.3354 H   0  0  0  0  0  0  0  0  0  0  0  0
    4.3327    3.1880   11.7090 H   0  0  0  0  0  0  0  0  0  0  0  0
    4.0054    1.7398   10.6978 H   0  0  0  0  0  0  0  0  0  0  0  0
    3.8383    3.8096    9.3966 H   0  0  0  0  0  0  0  0  0  0  0  0
    1.4559    4.4276    9.2120 H   0  0  0  0  0  0  0  0  0  0  0  0
   -3.2586    5.3850   13.3409 H   0  0  0  0  0  0  0  0  0  0  0  0
   -5.5280    5.9962   12.5816 H   0  0  0  0  0  0  0  0  0  0  0  0
   -4.5619    4.6739    8.6295 H   0  0  0  0  0  0  0  0  0  0  0  0
   -2.2926    4.0626    9.3888 H   0  0  0  0  0  0  0  0  0  0  0  0
   -8.1777    6.4171   10.5156 H   0  0  0  0  0  0  0  0  0  0  0  0
    0.6121    2.2342   12.7963 H   0  0  0  0  0  0  0  0  0  0  0  0
    0.2066   -3.2125   16.4877 H   0  0  0  0  0  0  0  0  0  0  0  0
   -2.2073   -3.6587   16.2555 H   0  0  0  0  0  0  0  0  0  0  0  0
  1  2  1  0  0  0  0
  2  3  1  0  0  0  0
  2  4  1  0  0  0  0
  2  5  1  0  0  0  0
  5  6  2  0  0  0  0
  5 38  1  0  0  0  0
  6  7  1  0  0  0  0
  7  8  2  0  0  0  0
  8  9  1  0  0  0  0
  8 37  1  0  0  0  0
  9 10  2  0  0  0  0
 10 11  1  0  0  0  0
 10 18  1  0  0  0  0
 11 12  2  0  0  0  0
 12 13  1  0  0  0  0
 12 19  1  0  0  0  0
 13 14  1  0  0  0  0
 14 15  1  0  0  0  0
 14 18  1  0  0  0  0
 15 16  2  0  0  0  0
 16 17  1  0  0  0  0
 17 18  2  0  0  0  0
 19 20  1  0  0  0  0
 19 36  2  0  0  0  0
 20 21  1  0  0  0  0
 21 22  2  0  0  0  0
 22 23  1  0  0  0  0
 23 24  2  3  0  0  0
 23 36  1  0  0  0  0
 24 25  1  0  0  0  0
 25 26  2  0  0  0  0
 25 27  1  0  0  0  0
 27 28  2  0  0  0  0
 27 32  1  0  0  0  0
 28 29  1  0  0  0  0
 29 30  2  0  0  0  0
 30 31  1  0  0  0  0
 30 33  1  0  0  0  0
 31 32  2  0  0  0  0
 33 34  2  0  0  0  0
 33 35  1  0  0  0  0
 37 38  2  0  0  0  0
  1 39  1  0  0  0  0
  1 40  1  0  0  0  0
  1 41  1  0  0  0  0
  3 42  1  0  0  0  0
  3 43  1  0  0  0  0
  3 44  1  0  0  0  0
  4 45  1  0  0  0  0
  4 46  1  0  0  0  0
  4 47  1  0  0  0  0
  6 48  1  0  0  0  0
  7 49  1  0  0  0  0
 13 50  1  0  0  0  0
 13 51  1  0  0  0  0
 15 52  1  0  0  0  0
 16 53  1  0  0  0  0
 20 54  1  0  0  0  0
 20 55  1  0  0  0  0
 21 56  1  0  0  0  0
 22 57  1  0  0  0  0
 28 58  1  0  0  0  0
 29 59  1  0  0  0  0
 31 60  1  0  0  0  0
 32 61  1  0  0  0  0
 35 62  1  0  0  0  0
 36 63  1  0  0  0  0
 37 64  1  0  0  0  0
 38 65  1  0  0  0  0
M  END
> <IC50[nM]>
65

$$$$
CHEMBL3264994
  -OEChem-05192314333D
 Structure written by MMmdl.
 65 69  0     0  0  0  0  0  0999 V2000
   -4.1531   -3.4266   13.5369 C   0  0  0  0  0  0  0  0  0  0  0  0
   -3.9919   -2.3907   14.6629 C   0  0  0  0  0  0  0  0  0  0  0  0
   -4.6875   -1.0646   14.3101 C   0  0  0  0  0  0  0  0  0  0  0  0
   -4.4873   -2.9438   16.0103 C   0  0  0  0  0  0  0  0  0  0  0  0
   -2.5261   -2.1057   14.8053 C   0  0  0  0  0  0  0  0  0  0  0  0
   -1.9389   -1.0760   14.0580 C   0  0  0  0  0  0  0  0  0  0  0  0
   -0.5664   -0.8256   14.2115 C   0  0  0  0  0  0  0  0  0  0  0  0
    0.2220   -1.5829   15.0890 C   0  0  0  0  0  0  0  0  0  0  0  0
    1.5930   -1.3491   15.3060 N   0  0  0  0  0  0  0  0  0  0  0  0
    2.5452   -0.4689   14.7536 C   0  0  0  0  0  0  0  0  0  0  0  0
    2.2178    0.3551   13.7190 N   0  0  0  0  0  0  0  0  0  0  0  0
    3.1227    1.2406   13.2181 C   0  0  0  0  0  0  0  0  0  0  0  0
    4.4207    1.3039   13.7175 C   0  0  0  0  0  0  0  0  0  0  0  0
    4.7482    0.4921   14.7654 N   0  0  0  0  0  0  0  0  0  0  0  0
    5.8898    0.3836   15.5035 C   0  0  0  0  0  0  0  0  0  0  0  0
    5.5715   -0.5089   16.5177 C   0  0  0  0  0  0  0  0  0  0  0  0
    4.3818   -1.0543   16.3920 N   0  0  0  0  0  0  0  0  0  0  0  0
    3.8330   -0.4170   15.3252 C   0  0  0  0  0  0  0  0  0  0  0  0
    2.6564    2.1560   12.1340 C   0  0  0  0  0  0  0  0  0  0  0  0
    3.5566    2.6280   11.1666 C   0  0  0  0  0  0  0  0  0  0  0  0
    3.1294    3.4499   10.1277 C   0  0  0  0  0  0  0  0  0  0  0  0
    1.7879    3.8078   10.0318 C   0  0  0  0  0  0  0  0  0  0  0  0
    0.8660    3.3707   10.9895 C   0  0  0  0  0  0  0  0  0  0  0  0
   -0.5399    3.7537   10.8977 N   0  0  0  0  0  0  0  0  0  0  0  0
   -1.2550    4.3141   11.8736 C   0  0  0  0  0  0  0  0  0  0  0  0
   -0.8140    4.4931   13.0050 O   0  0  0  0  0  0  0  0  0  0  0  0
   -2.6333    4.6854   11.4124 C   0  0  0  0  0  0  0  0  0  0  0  0
   -3.5436    5.2295   12.3108 C   0  0  0  0  0  0  0  0  0  0  0  0
   -4.8206    5.5735   11.8835 C   0  0  0  0  0  0  0  0  0  0  0  0
   -5.1873    5.3735   10.5579 C   0  0  0  0  0  0  0  0  0  0  0  0
   -4.2770    4.8294    9.6596 C   0  0  0  0  0  0  0  0  0  0  0  0
   -3.0000    4.4854   10.0869 C   0  0  0  0  0  0  0  0  0  0  0  0
   -6.5655    5.7447   10.0968 C   0  0  0  0  0  0  0  0  0  0  0  0
   -6.9139    5.5749    8.9190 O   0  0  0  0  0  0  0  0  0  0  0  0
   -7.3451    6.2270   10.9318 O   0  0  0  0  0  0  0  0  0  0  0  0
    1.3140    2.5576   12.0419 C   0  0  0  0  0  0  0  0  0  0  0  0
   -0.3863   -2.6106   15.8150 C   0  0  0  0  0  0  0  0  0  0  0  0
   -1.7497   -2.8673   15.6804 C   0  0  0  0  0  0  0  0  0  0  0  0
   -3.6454   -4.3600   13.8213 H   0  0  0  0  0  0  0  0  0  0  0  0
   -5.2223   -3.6262   13.3728 H   0  0  0  0  0  0  0  0  0  0  0  0
   -3.7071   -3.0341   12.6111 H   0  0  0  0  0  0  0  0  0  0  0  0
   -4.5529   -0.3487   15.1344 H   0  0  0  0  0  0  0  0  0  0  0  0
   -4.2460   -0.6523   13.3908 H   0  0  0  0  0  0  0  0  0  0  0  0
   -5.7612   -1.2445   14.1525 H   0  0  0  0  0  0  0  0  0  0  0  0
   -4.3579   -2.1796   16.7908 H   0  0  0  0  0  0  0  0  0  0  0  0
   -5.5520   -3.2079   15.9289 H   0  0  0  0  0  0  0  0  0  0  0  0
   -3.9064   -3.8397   16.2746 H   0  0  0  0  0  0  0  0  0  0  0  0
   -2.5321   -0.4853   13.3757 H   0  0  0  0  0  0  0  0  0  0  0  0
   -0.1075   -0.0318   13.6408 H   0  0  0  0  0  0  0  0  0  0  0  0
    5.1014    1.0581   12.8891 H   0  0  0  0  0  0  0  0  0  0  0  0
    4.5958    2.3407   14.0407 H   0  0  0  0  0  0  0  0  0  0  0  0
    6.8331    0.8820   15.3359 H   0  0  0  0  0  0  0  0  0  0  0  0
    6.2400   -0.7347   17.3354 H   0  0  0  0  0  0  0  0  0  0  0  0
    4.5981    2.3490   11.2292 H   0  0  0  0  0  0  0  0  0  0  0  0
    3.8383    3.8096    9.3966 H   0  0  0  0  0  0  0  0  0  0  0  0
    1.4559    4.4276    9.2120 H   0  0  0  0  0  0  0  0  0  0  0  0
   -3.2586    5.3850   13.3409 H   0  0  0  0  0  0  0  0  0  0  0  0
   -5.5280    5.9962   12.5816 H   0  0  0  0  0  0  0  0  0  0  0  0
   -4.5619    4.6739    8.6295 H   0  0  0  0  0  0  0  0  0  0  0  0
   -2.2926    4.0626    9.3888 H   0  0  0  0  0  0  0  0  0  0  0  0
   -8.1777    6.4171   10.5156 H   0  0  0  0  0  0  0  0  0  0  0  0
    0.7157    1.6356   11.9991 H   0  0  0  0  0  0  0  0  0  0  0  0
    1.0868    3.0993   12.9719 H   0  0  0  0  0  0  0  0  0  0  0  0
    0.2066   -3.2125   16.4877 H   0  0  0  0  0  0  0  0  0  0  0  0
   -2.2073   -3.6587   16.2555 H   0  0  0  0  0  0  0  0  0  0  0  0
  1  2  1  0  0  0  0
  2  3  1  0  0  0  0
  2  4  1  0  0  0  0
  2  5  1  0  0  0  0
  5  6  2  0  0  0  0
  5 38  1  0  0  0  0
  6  7  1  0  0  0  0
  7  8  2  0  0  0  0
  8  9  1  0  0  0  0
  8 37  1  0  0  0  0
  9 10  2  0  0  0  0
 10 11  1  0  0  0  0
 10 18  1  0  0  0  0
 11 12  2  0  0  0  0
 12 13  1  0  0  0  0
 12 19  1  0  0  0  0
 13 14  1  0  0  0  0
 14 15  1  0  0  0  0
 14 18  1  0  0  0  0
 15 16  2  0  0  0  0
 16 17  1  0  0  0  0
 17 18  2  0  0  0  0
 19 20  2  0  0  0  0
 19 36  1  0  0  0  0
 20 21  1  0  0  0  0
 21 22  2  0  0  0  0
 22 23  1  0  0  0  0
 23 24  2  3  0  0  0
 23 36  1  0  0  0  0
 24 25  1  0  0  0  0
 25 26  2  0  0  0  0
 25 27  1  0  0  0  0
 27 28  2  0  0  0  0
 27 32  1  0  0  0  0
 28 29  1  0  0  0  0
 29 30  2  0  0  0  0
 30 31  1  0  0  0  0
 30 33  1  0  0  0  0
 31 32  2  0  0  0  0
 33 34  2  0  0  0  0
 33 35  1  0  0  0  0
 37 38  2  0  0  0  0
  1 39  1  0  0  0  0
  1 40  1  0  0  0  0
  1 41  1  0  0  0  0
  3 42  1  0  0  0  0
  3 43  1  0  0  0  0
  3 44  1  0  0  0  0
  4 45  1  0  0  0  0
  4 46  1  0  0  0  0
  4 47  1  0  0  0  0
  6 48  1  0  0  0  0
  7 49  1  0  0  0  0
 13 50  1  0  0  0  0
 13 51  1  0  0  0  0
 15 52  1  0  0  0  0
 16 53  1  0  0  0  0
 20 54  1  0  0  0  0
 21 55  1  0  0  0  0
 22 56  1  0  0  0  0
 28 57  1  0  0  0  0
 29 58  1  0  0  0  0
 31 59  1  0  0  0  0
 32 60  1  0  0  0  0
 35 61  1  0  0  0  0
 36 62  1  0  0  0  0
 36 63  1  0  0  0  0
 37 64  1  0  0  0  0
 38 65  1  0  0  0  0
M  END
> <IC50[nM]>
65

$$$$
CHEMBL3264994
  -OEChem-05192314333D
 Structure written by MMmdl.
 65 69  0     0  0  0  0  0  0999 V2000
   -4.1531   -3.4266   13.5369 C   0  0  0  0  0  0  0  0  0  0  0  0
   -3.9919   -2.3907   14.6629 C   0  0  0  0  0  0  0  0  0  0  0  0
   -4.6875   -1.0646   14.3101 C   0  0  0  0  0  0  0  0  0  0  0  0
   -4.4873   -2.9438   16.0103 C   0  0  0  0  0  0  0  0  0  0  0  0
   -2.5261   -2.1057   14.8053 C   0  0  0  0  0  0  0  0  0  0  0  0
   -1.9389   -1.0760   14.0580 C   0  0  0  0  0  0  0  0  0  0  0  0
   -0.5664   -0.8256   14.2115 C   0  0  0  0  0  0  0  0  0  0  0  0
    0.2220   -1.5829   15.0890 C   0  0  0  0  0  0  0  0  0  0  0  0
    1.5930   -1.3491   15.3060 N   0  0  0  0  0  0  0  0  0  0  0  0
    2.5452   -0.4689   14.7536 C   0  0  0  0  0  0  0  0  0  0  0  0
    2.2178    0.3551   13.7190 N   0  0  0  0  0  0  0  0  0  0  0  0
    3.1227    1.2406   13.2181 C   0  0  0  0  0  0  0  0  0  0  0  0
    4.4207    1.3039   13.7175 C   0  0  0  0  0  0  0  0  0  0  0  0
    4.7482    0.4921   14.7654 N   0  0  0  0  0  0  0  0  0  0  0  0
    5.8898    0.3836   15.5035 C   0  0  0  0  0  0  0  0  0  0  0  0
    5.5715   -0.5089   16.5177 C   0  0  0  0  0  0  0  0  0  0  0  0
    4.3818   -1.0543   16.3920 N   0  0  0  0  0  0  0  0  0  0  0  0
    3.8330   -0.4170   15.3252 C   0  0  0  0  0  0  0  0  0  0  0  0
    2.6564    2.1560   12.1340 C   0  0  0  0  0  0  0  0  0  0  0  0
    3.5566    2.6280   11.1666 C   0  0  0  0  0  0  0  0  0  0  0  0
    3.1294    3.4499   10.1277 C   0  0  0  0  0  0  0  0  0  0  0  0
    1.7879    3.8078   10.0318 C   0  0  0  0  0  0  0  0  0  0  0  0
    0.8660    3.3707   10.9895 C   0  0  0  0  0  0  0  0  0  0  0  0
   -0.5399    3.7537   10.8977 N   0  0  0  0  0  0  0  0  0  0  0  0
   -1.2550    4.3141   11.8736 C   0  0  0  0  0  0  0  0  0  0  0  0
   -0.8140    4.4931   13.0050 O   0  0  0  0  0  0  0  0  0  0  0  0
   -2.6333    4.6854   11.4124 C   0  0  0  0  0  0  0  0  0  0  0  0
   -3.5436    5.2295   12.3108 C   0  0  0  0  0  0  0  0  0  0  0  0
   -4.8206    5.5735   11.8835 C   0  0  0  0  0  0  0  0  0  0  0  0
   -5.1873    5.3735   10.5579 C   0  0  0  0  0  0  0  0  0  0  0  0
   -4.2770    4.8294    9.6596 C   0  0  0  0  0  0  0  0  0  0  0  0
   -3.0000    4.4854   10.0869 C   0  0  0  0  0  0  0  0  0  0  0  0
   -6.5655    5.7447   10.0968 C   0  0  0  0  0  0  0  0  0  0  0  0
   -6.9139    5.5749    8.9190 O   0  0  0  0  0  0  0  0  0  0  0  0
   -7.3451    6.2270   10.9318 O   0  0  0  0  0  0  0  0  0  0  0  0
    1.3140    2.5576   12.0419 C   0  0  0  0  0  0  0  0  0  0  0  0
   -0.3863   -2.6106   15.8150 C   0  0  0  0  0  0  0  0  0  0  0  0
   -1.7497   -2.8673   15.6804 C   0  0  0  0  0  0  0  0  0  0  0  0
   -3.6454   -4.3600   13.8213 H   0  0  0  0  0  0  0  0  0  0  0  0
   -5.2223   -3.6262   13.3728 H   0  0  0  0  0  0  0  0  0  0  0  0
   -3.7071   -3.0341   12.6111 H   0  0  0  0  0  0  0  0  0  0  0  0
   -4.5529   -0.3487   15.1344 H   0  0  0  0  0  0  0  0  0  0  0  0
   -4.2460   -0.6523   13.3908 H   0  0  0  0  0  0  0  0  0  0  0  0
   -5.7612   -1.2445   14.1525 H   0  0  0  0  0  0  0  0  0  0  0  0
   -4.3579   -2.1796   16.7908 H   0  0  0  0  0  0  0  0  0  0  0  0
   -5.5520   -3.2079   15.9289 H   0  0  0  0  0  0  0  0  0  0  0  0
   -3.9064   -3.8397   16.2746 H   0  0  0  0  0  0  0  0  0  0  0  0
   -2.7428   -1.3944   15.6159 H   0  0  0  0  0  0  0  0  0  0  0  0
   -2.5321   -0.4853   13.3757 H   0  0  0  0  0  0  0  0  0  0  0  0
   -0.1075   -0.0318   13.6408 H   0  0  0  0  0  0  0  0  0  0  0  0
    5.1484    1.9765   13.2880 H   0  0  0  0  0  0  0  0  0  0  0  0
    6.8331    0.8820   15.3359 H   0  0  0  0  0  0  0  0  0  0  0  0
    6.2400   -0.7347   17.3354 H   0  0  0  0  0  0  0  0  0  0  0  0
    4.5981    2.3490   11.2292 H   0  0  0  0  0  0  0  0  0  0  0  0
    3.8383    3.8096    9.3966 H   0  0  0  0  0  0  0  0  0  0  0  0
    1.7537    4.9072   10.0402 H   0  0  0  0  0  0  0  0  0  0  0  0
    1.4316    3.4373    9.0593 H   0  0  0  0  0  0  0  0  0  0  0  0
   -3.2586    5.3850   13.3409 H   0  0  0  0  0  0  0  0  0  0  0  0
   -5.5280    5.9962   12.5816 H   0  0  0  0  0  0  0  0  0  0  0  0
   -4.5619    4.6739    8.6295 H   0  0  0  0  0  0  0  0  0  0  0  0
   -2.2926    4.0626    9.3888 H   0  0  0  0  0  0  0  0  0  0  0  0
   -8.1777    6.4171   10.5156 H   0  0  0  0  0  0  0  0  0  0  0  0
    0.6121    2.2342   12.7963 H   0  0  0  0  0  0  0  0  0  0  0  0
    0.2066   -3.2125   16.4877 H   0  0  0  0  0  0  0  0  0  0  0  0
   -2.2073   -3.6587   16.2555 H   0  0  0  0  0  0  0  0  0  0  0  0
  1  2  1  0  0  0  0
  2  3  1  0  0  0  0
  2  4  1  0  0  0  0
  2  5  1  0  0  0  0
  5  6  1  0  0  0  0
  5 38  1  0  0  0  0
  6  7  2  0  0  0  0
  7  8  1  0  0  0  0
  8  9  2  0  0  0  0
  8 37  1  0  0  0  0
  9 10  1  0  0  0  0
 10 11  2  0  0  0  0
 10 18  1  0  0  0  0
 11 12  1  0  0  0  0
 12 13  2  0  0  0  0
 12 19  1  0  0  0  0
 13 14  1  0  0  0  0
 14 15  1  0  0  0  0
 14 18  1  0  0  0  0
 15 16  2  0  0  0  0
 16 17  1  0  0  0  0
 17 18  2  0  0  0  0
 19 20  1  0  0  0  0
 19 36  2  0  0  0  0
 20 21  2  0  0  0  0
 21 22  1  0  0  0  0
 22 23  1  0  0  0  0
 23 24  2  3  0  0  0
 23 36  1  0  0  0  0
 24 25  1  0  0  0  0
 25 26  2  0  0  0  0
 25 27  1  0  0  0  0
 27 28  2  0  0  0  0
 27 32  1  0  0  0  0
 28 29  1  0  0  0  0
 29 30  2  0  0  0  0
 30 31  1  0  0  0  0
 30 33  1  0  0  0  0
 31 32  2  0  0  0  0
 33 34  2  0  0  0  0
 33 35  1  0  0  0  0
 37 38  2  0  0  0  0
  1 39  1  0  0  0  0
  1 40  1  0  0  0  0
  1 41  1  0  0  0  0
  3 42  1  0  0  0  0
  3 43  1  0  0  0  0
  3 44  1  0  0  0  0
  4 45  1  0  0  0  0
  4 46  1  0  0  0  0
  4 47  1  0  0  0  0
  5 48  1  0  0  0  0
  6 49  1  0  0  0  0
  7 50  1  0  0  0  0
 13 51  1  0  0  0  0
 15 52  1  0  0  0  0
 16 53  1  0  0  0  0
 20 54  1  0  0  0  0
 21 55  1  0  0  0  0
 22 56  1  0  0  0  0
 22 57  1  0  0  0  0
 28 58  1  0  0  0  0
 29 59  1  0  0  0  0
 31 60  1  0  0  0  0
 32 61  1  0  0  0  0
 35 62  1  0  0  0  0
 36 63  1  0  0  0  0
 37 64  1  0  0  0  0
 38 65  1  0  0  0  0
M  END
> <IC50[nM]>
65

$$$$
CHEMBL3264994
  -OEChem-05192314333D
 Structure written by MMmdl.
 65 69  0     0  0  0  0  0  0999 V2000
   -4.1531   -3.4266   13.5369 C   0  0  0  0  0  0  0  0  0  0  0  0
   -3.9919   -2.3907   14.6629 C   0  0  0  0  0  0  0  0  0  0  0  0
   -4.6875   -1.0646   14.3101 C   0  0  0  0  0  0  0  0  0  0  0  0
   -4.4873   -2.9438   16.0103 C   0  0  0  0  0  0  0  0  0  0  0  0
   -2.5261   -2.1057   14.8053 C   0  0  0  0  0  0  0  0  0  0  0  0
   -1.9389   -1.0760   14.0580 C   0  0  0  0  0  0  0  0  0  0  0  0
   -0.5664   -0.8256   14.2115 C   0  0  0  0  0  0  0  0  0  0  0  0
    0.2220   -1.5829   15.0890 C   0  0  0  0  0  0  0  0  0  0  0  0
    1.5930   -1.3491   15.3060 N   0  0  0  0  0  0  0  0  0  0  0  0
    2.5452   -0.4689   14.7536 C   0  0  0  0  0  0  0  0  0  0  0  0
    2.2178    0.3551   13.7190 N   0  0  0  0  0  0  0  0  0  0  0  0
    3.1227    1.2406   13.2181 C   0  0  0  0  0  0  0  0  0  0  0  0
    4.4207    1.3039   13.7175 C   0  0  0  0  0  0  0  0  0  0  0  0
    4.7482    0.4921   14.7654 N   0  0  0  0  0  0  0  0  0  0  0  0
    5.8898    0.3836   15.5035 C   0  0  0  0  0  0  0  0  0  0  0  0
    5.5715   -0.5089   16.5177 C   0  0  0  0  0  0  0  0  0  0  0  0
    4.3818   -1.0543   16.3920 N   0  0  0  0  0  0  0  0  0  0  0  0
    3.8330   -0.4170   15.3252 C   0  0  0  0  0  0  0  0  0  0  0  0
    2.6564    2.1560   12.1340 C   0  0  0  0  0  0  0  0  0  0  0  0
    3.5566    2.6280   11.1666 C   0  0  0  0  0  0  0  0  0  0  0  0
    3.1294    3.4499   10.1277 C   0  0  0  0  0  0  0  0  0  0  0  0
    1.7879    3.8078   10.0318 C   0  0  0  0  0  0  0  0  0  0  0  0
    0.8660    3.3707   10.9895 C   0  0  0  0  0  0  0  0  0  0  0  0
   -0.5399    3.7537   10.8977 N   0  0  0  0  0  0  0  0  0  0  0  0
   -1.2550    4.3141   11.8736 C   0  0  0  0  0  0  0  0  0  0  0  0
   -0.8140    4.4931   13.0050 O   0  0  0  0  0  0  0  0  0  0  0  0
   -2.6333    4.6854   11.4124 C   0  0  0  0  0  0  0  0  0  0  0  0
   -3.5436    5.2295   12.3108 C   0  0  0  0  0  0  0  0  0  0  0  0
   -4.8206    5.5735   11.8835 C   0  0  0  0  0  0  0  0  0  0  0  0
   -5.1873    5.3735   10.5579 C   0  0  0  0  0  0  0  0  0  0  0  0
   -4.2770    4.8294    9.6596 C   0  0  0  0  0  0  0  0  0  0  0  0
   -3.0000    4.4854   10.0869 C   0  0  0  0  0  0  0  0  0  0  0  0
   -6.5655    5.7447   10.0968 C   0  0  0  0  0  0  0  0  0  0  0  0
   -6.9139    5.5749    8.9190 O   0  0  0  0  0  0  0  0  0  0  0  0
   -7.3451    6.2270   10.9318 O   0  0  0  0  0  0  0  0  0  0  0  0
    1.3140    2.5576   12.0419 C   0  0  0  0  0  0  0  0  0  0  0  0
   -0.3863   -2.6106   15.8150 C   0  0  0  0  0  0  0  0  0  0  0  0
   -1.7497   -2.8673   15.6804 C   0  0  0  0  0  0  0  0  0  0  0  0
   -3.6454   -4.3600   13.8213 H   0  0  0  0  0  0  0  0  0  0  0  0
   -5.2223   -3.6262   13.3728 H   0  0  0  0  0  0  0  0  0  0  0  0
   -3.7071   -3.0341   12.6111 H   0  0  0  0  0  0  0  0  0  0  0  0
   -4.5529   -0.3487   15.1344 H   0  0  0  0  0  0  0  0  0  0  0  0
   -4.2460   -0.6523   13.3908 H   0  0  0  0  0  0  0  0  0  0  0  0
   -5.7612   -1.2445   14.1525 H   0  0  0  0  0  0  0  0  0  0  0  0
   -4.3579   -2.1796   16.7908 H   0  0  0  0  0  0  0  0  0  0  0  0
   -5.5520   -3.2079   15.9289 H   0  0  0  0  0  0  0  0  0  0  0  0
   -3.9064   -3.8397   16.2746 H   0  0  0  0  0  0  0  0  0  0  0  0
   -2.5321   -0.4853   13.3757 H   0  0  0  0  0  0  0  0  0  0  0  0
   -0.1167   -0.9386   13.2140 H   0  0  0  0  0  0  0  0  0  0  0  0
   -0.4764    0.2210   14.5379 H   0  0  0  0  0  0  0  0  0  0  0  0
    5.1484    1.9765   13.2880 H   0  0  0  0  0  0  0  0  0  0  0  0
    6.8331    0.8820   15.3359 H   0  0  0  0  0  0  0  0  0  0  0  0
    6.2400   -0.7347   17.3354 H   0  0  0  0  0  0  0  0  0  0  0  0
    4.5981    2.3490   11.2292 H   0  0  0  0  0  0  0  0  0  0  0  0
    3.8383    3.8096    9.3966 H   0  0  0  0  0  0  0  0  0  0  0  0
    1.7537    4.9072   10.0402 H   0  0  0  0  0  0  0  0  0  0  0  0
    1.4316    3.4373    9.0593 H   0  0  0  0  0  0  0  0  0  0  0  0
   -3.2586    5.3850   13.3409 H   0  0  0  0  0  0  0  0  0  0  0  0
   -5.5280    5.9962   12.5816 H   0  0  0  0  0  0  0  0  0  0  0  0
   -4.5619    4.6739    8.6295 H   0  0  0  0  0  0  0  0  0  0  0  0
   -2.2926    4.0626    9.3888 H   0  0  0  0  0  0  0  0  0  0  0  0
   -8.1777    6.4171   10.5156 H   0  0  0  0  0  0  0  0  0  0  0  0
    0.6121    2.2342   12.7963 H   0  0  0  0  0  0  0  0  0  0  0  0
    0.2066   -3.2125   16.4877 H   0  0  0  0  0  0  0  0  0  0  0  0
   -2.2073   -3.6587   16.2555 H   0  0  0  0  0  0  0  0  0  0  0  0
  1  2  1  0  0  0  0
  2  3  1  0  0  0  0
  2  4  1  0  0  0  0
  2  5  1  0  0  0  0
  5  6  2  0  0  0  0
  5 38  1  0  0  0  0
  6  7  1  0  0  0  0
  7  8  1  0  0  0  0
  8  9  2  0  0  0  0
  8 37  1  0  0  0  0
  9 10  1  0  0  0  0
 10 11  2  0  0  0  0
 10 18  1  0  0  0  0
 11 12  1  0  0  0  0
 12 13  2  0  0  0  0
 12 19  1  0  0  0  0
 13 14  1  0  0  0  0
 14 15  1  0  0  0  0
 14 18  1  0  0  0  0
 15 16  2  0  0  0  0
 16 17  1  0  0  0  0
 17 18  2  0  0  0  0
 19 20  1  0  0  0  0
 19 36  2  0  0  0  0
 20 21  2  0  0  0  0
 21 22  1  0  0  0  0
 22 23  1  0  0  0  0
 23 24  2  3  0  0  0
 23 36  1  0  0  0  0
 24 25  1  0  0  0  0
 25 26  2  0  0  0  0
 25 27  1  0  0  0  0
 27 28  2  0  0  0  0
 27 32  1  0  0  0  0
 28 29  1  0  0  0  0
 29 30  2  0  0  0  0
 30 31  1  0  0  0  0
 30 33  1  0  0  0  0
 31 32  2  0  0  0  0
 33 34  2  0  0  0  0
 33 35  1  0  0  0  0
 37 38  2  0  0  0  0
  1 39  1  0  0  0  0
  1 40  1  0  0  0  0
  1 41  1  0  0  0  0
  3 42  1  0  0  0  0
  3 43  1  0  0  0  0
  3 44  1  0  0  0  0
  4 45  1  0  0  0  0
  4 46  1  0  0  0  0
  4 47  1  0  0  0  0
  6 48  1  0  0  0  0
  7 49  1  0  0  0  0
  7 50  1  0  0  0  0
 13 51  1  0  0  0  0
 15 52  1  0  0  0  0
 16 53  1  0  0  0  0
 20 54  1  0  0  0  0
 21 55  1  0  0  0  0
 22 56  1  0  0  0  0
 22 57  1  0  0  0  0
 28 58  1  0  0  0  0
 29 59  1  0  0  0  0
 31 60  1  0  0  0  0
 32 61  1  0  0  0  0
 35 62  1  0  0  0  0
 36 63  1  0  0  0  0
 37 64  1  0  0  0  0
 38 65  1  0  0  0  0
M  END
> <IC50[nM]>
65

$$$$
CHEMBL3264994
  -OEChem-05192314333D
 Structure written by MMmdl.
 65 69  0     0  0  0  0  0  0999 V2000
   -4.1531   -3.4266   13.5369 C   0  0  0  0  0  0  0  0  0  0  0  0
   -3.9919   -2.3907   14.6629 C   0  0  0  0  0  0  0  0  0  0  0  0
   -4.6875   -1.0646   14.3101 C   0  0  0  0  0  0  0  0  0  0  0  0
   -4.4873   -2.9438   16.0103 C   0  0  0  0  0  0  0  0  0  0  0  0
   -2.5261   -2.1057   14.8053 C   0  0  0  0  0  0  0  0  0  0  0  0
   -1.9389   -1.0760   14.0580 C   0  0  0  0  0  0  0  0  0  0  0  0
   -0.5664   -0.8256   14.2115 C   0  0  0  0  0  0  0  0  0  0  0  0
    0.2220   -1.5829   15.0890 C   0  0  0  0  0  0  0  0  0  0  0  0
    1.5930   -1.3491   15.3060 N   0  0  0  0  0  0  0  0  0  0  0  0
    2.5452   -0.4689   14.7536 C   0  0  0  0  0  0  0  0  0  0  0  0
    2.2178    0.3551   13.7190 N   0  0  0  0  0  0  0  0  0  0  0  0
    3.1227    1.2406   13.2181 C   0  0  0  0  0  0  0  0  0  0  0  0
    4.4207    1.3039   13.7175 C   0  0  0  0  0  0  0  0  0  0  0  0
    4.7482    0.4921   14.7654 N   0  0  0  0  0  0  0  0  0  0  0  0
    5.8898    0.3836   15.5035 C   0  0  0  0  0  0  0  0  0  0  0  0
    5.5715   -0.5089   16.5177 C   0  0  0  0  0  0  0  0  0  0  0  0
    4.3818   -1.0543   16.3920 N   0  0  0  0  0  0  0  0  0  0  0  0
    3.8330   -0.4170   15.3252 C   0  0  0  0  0  0  0  0  0  0  0  0
    2.6564    2.1560   12.1340 C   0  0  0  0  0  0  0  0  0  0  0  0
    3.5566    2.6280   11.1666 C   0  0  0  0  0  0  0  0  0  0  0  0
    3.1294    3.4499   10.1277 C   0  0  0  0  0  0  0  0  0  0  0  0
    1.7879    3.8078   10.0318 C   0  0  0  0  0  0  0  0  0  0  0  0
    0.8660    3.3707   10.9895 C   0  0  0  0  0  0  0  0  0  0  0  0
   -0.5399    3.7537   10.8977 N   0  0  0  0  0  0  0  0  0  0  0  0
   -1.2550    4.3141   11.8736 C   0  0  0  0  0  0  0  0  0  0  0  0
   -0.8140    4.4931   13.0050 O   0  0  0  0  0  0  0  0  0  0  0  0
   -2.6333    4.6854   11.4124 C   0  0  0  0  0  0  0  0  0  0  0  0
   -3.5436    5.2295   12.3108 C   0  0  0  0  0  0  0  0  0  0  0  0
   -4.8206    5.5735   11.8835 C   0  0  0  0  0  0  0  0  0  0  0  0
   -5.1873    5.3735   10.5579 C   0  0  0  0  0  0  0  0  0  0  0  0
   -4.2770    4.8294    9.6596 C   0  0  0  0  0  0  0  0  0  0  0  0
   -3.0000    4.4854   10.0869 C   0  0  0  0  0  0  0  0  0  0  0  0
   -6.5655    5.7447   10.0968 C   0  0  0  0  0  0  0  0  0  0  0  0
   -6.9139    5.5749    8.9190 O   0  0  0  0  0  0  0  0  0  0  0  0
   -7.3451    6.2270   10.9318 O   0  0  0  0  0  0  0  0  0  0  0  0
    1.3140    2.5576   12.0419 C   0  0  0  0  0  0  0  0  0  0  0  0
   -0.3863   -2.6106   15.8150 C   0  0  0  0  0  0  0  0  0  0  0  0
   -1.7497   -2.8673   15.6804 C   0  0  0  0  0  0  0  0  0  0  0  0
   -3.6454   -4.3600   13.8213 H   0  0  0  0  0  0  0  0  0  0  0  0
   -5.2223   -3.6262   13.3728 H   0  0  0  0  0  0  0  0  0  0  0  0
   -3.7071   -3.0341   12.6111 H   0  0  0  0  0  0  0  0  0  0  0  0
   -4.5529   -0.3487   15.1344 H   0  0  0  0  0  0  0  0  0  0  0  0
   -4.2460   -0.6523   13.3908 H   0  0  0  0  0  0  0  0  0  0  0  0
   -5.7612   -1.2445   14.1525 H   0  0  0  0  0  0  0  0  0  0  0  0
   -4.3579   -2.1796   16.7908 H   0  0  0  0  0  0  0  0  0  0  0  0
   -5.5520   -3.2079   15.9289 H   0  0  0  0  0  0  0  0  0  0  0  0
   -3.9064   -3.8397   16.2746 H   0  0  0  0  0  0  0  0  0  0  0  0
   -2.7428   -1.3944   15.6159 H   0  0  0  0  0  0  0  0  0  0  0  0
   -2.5321   -0.4853   13.3757 H   0  0  0  0  0  0  0  0  0  0  0  0
   -0.1075   -0.0318   13.6408 H   0  0  0  0  0  0  0  0  0  0  0  0
    5.1484    1.9765   13.2880 H   0  0  0  0  0  0  0  0  0  0  0  0
    6.8331    0.8820   15.3359 H   0  0  0  0  0  0  0  0  0  0  0  0
    6.2400   -0.7347   17.3354 H   0  0  0  0  0  0  0  0  0  0  0  0
    4.3327    3.1880   11.7090 H   0  0  0  0  0  0  0  0  0  0  0  0
    4.0054    1.7398   10.6978 H   0  0  0  0  0  0  0  0  0  0  0  0
    3.8383    3.8096    9.3966 H   0  0  0  0  0  0  0  0  0  0  0  0
    1.4559    4.4276    9.2120 H   0  0  0  0  0  0  0  0  0  0  0  0
   -3.2586    5.3850   13.3409 H   0  0  0  0  0  0  0  0  0  0  0  0
   -5.5280    5.9962   12.5816 H   0  0  0  0  0  0  0  0  0  0  0  0
   -4.5619    4.6739    8.6295 H   0  0  0  0  0  0  0  0  0  0  0  0
   -2.2926    4.0626    9.3888 H   0  0  0  0  0  0  0  0  0  0  0  0
   -8.1777    6.4171   10.5156 H   0  0  0  0  0  0  0  0  0  0  0  0
    0.6121    2.2342   12.7963 H   0  0  0  0  0  0  0  0  0  0  0  0
    0.2066   -3.2125   16.4877 H   0  0  0  0  0  0  0  0  0  0  0  0
   -2.2073   -3.6587   16.2555 H   0  0  0  0  0  0  0  0  0  0  0  0
  1  2  1  0  0  0  0
  2  3  1  0  0  0  0
  2  4  1  0  0  0  0
  2  5  1  0  0  0  0
  5  6  1  0  0  0  0
  5 38  1  0  0  0  0
  6  7  2  0  0  0  0
  7  8  1  0  0  0  0
  8  9  2  0  0  0  0
  8 37  1  0  0  0  0
  9 10  1  0  0  0  0
 10 11  2  0  0  0  0
 10 18  1  0  0  0  0
 11 12  1  0  0  0  0
 12 13  2  0  0  0  0
 12 19  1  0  0  0  0
 13 14  1  0  0  0  0
 14 15  1  0  0  0  0
 14 18  1  0  0  0  0
 15 16  2  0  0  0  0
 16 17  1  0  0  0  0
 17 18  2  0  0  0  0
 19 20  1  0  0  0  0
 19 36  2  0  0  0  0
 20 21  1  0  0  0  0
 21 22  2  0  0  0  0
 22 23  1  0  0  0  0
 23 24  2  3  0  0  0
 23 36  1  0  0  0  0
 24 25  1  0  0  0  0
 25 26  2  0  0  0  0
 25 27  1  0  0  0  0
 27 28  2  0  0  0  0
 27 32  1  0  0  0  0
 28 29  1  0  0  0  0
 29 30  2  0  0  0  0
 30 31  1  0  0  0  0
 30 33  1  0  0  0  0
 31 32  2  0  0  0  0
 33 34  2  0  0  0  0
 33 35  1  0  0  0  0
 37 38  2  0  0  0  0
  1 39  1  0  0  0  0
  1 40  1  0  0  0  0
  1 41  1  0  0  0  0
  3 42  1  0  0  0  0
  3 43  1  0  0  0  0
  3 44  1  0  0  0  0
  4 45  1  0  0  0  0
  4 46  1  0  0  0  0
  4 47  1  0  0  0  0
  5 48  1  0  0  0  0
  6 49  1  0  0  0  0
  7 50  1  0  0  0  0
 13 51  1  0  0  0  0
 15 52  1  0  0  0  0
 16 53  1  0  0  0  0
 20 54  1  0  0  0  0
 20 55  1  0  0  0  0
 21 56  1  0  0  0  0
 22 57  1  0  0  0  0
 28 58  1  0  0  0  0
 29 59  1  0  0  0  0
 31 60  1  0  0  0  0
 32 61  1  0  0  0  0
 35 62  1  0  0  0  0
 36 63  1  0  0  0  0
 37 64  1  0  0  0  0
 38 65  1  0  0  0  0
M  END
> <IC50[nM]>
65

$$$$
CHEMBL3264994
  -OEChem-05192314333D
 Structure written by MMmdl.
 65 69  0     0  0  0  0  0  0999 V2000
   -4.1531   -3.4266   13.5369 C   0  0  0  0  0  0  0  0  0  0  0  0
   -3.9919   -2.3907   14.6629 C   0  0  0  0  0  0  0  0  0  0  0  0
   -4.6875   -1.0646   14.3101 C   0  0  0  0  0  0  0  0  0  0  0  0
   -4.4873   -2.9438   16.0103 C   0  0  0  0  0  0  0  0  0  0  0  0
   -2.5261   -2.1057   14.8053 C   0  0  0  0  0  0  0  0  0  0  0  0
   -1.9389   -1.0760   14.0580 C   0  0  0  0  0  0  0  0  0  0  0  0
   -0.5664   -0.8256   14.2115 C   0  0  0  0  0  0  0  0  0  0  0  0
    0.2220   -1.5829   15.0890 C   0  0  0  0  0  0  0  0  0  0  0  0
    1.5930   -1.3491   15.3060 N   0  0  0  0  0  0  0  0  0  0  0  0
    2.5452   -0.4689   14.7536 C   0  0  0  0  0  0  0  0  0  0  0  0
    2.2178    0.3551   13.7190 N   0  0  0  0  0  0  0  0  0  0  0  0
    3.1227    1.2406   13.2181 C   0  0  0  0  0  0  0  0  0  0  0  0
    4.4207    1.3039   13.7175 C   0  0  0  0  0  0  0  0  0  0  0  0
    4.7482    0.4921   14.7654 N   0  0  0  0  0  0  0  0  0  0  0  0
    5.8898    0.3836   15.5035 C   0  0  0  0  0  0  0  0  0  0  0  0
    5.5715   -0.5089   16.5177 C   0  0  0  0  0  0  0  0  0  0  0  0
    4.3818   -1.0543   16.3920 N   0  0  0  0  0  0  0  0  0  0  0  0
    3.8330   -0.4170   15.3252 C   0  0  0  0  0  0  0  0  0  0  0  0
    2.6564    2.1560   12.1340 C   0  0  0  0  0  0  0  0  0  0  0  0
    3.5566    2.6280   11.1666 C   0  0  0  0  0  0  0  0  0  0  0  0
    3.1294    3.4499   10.1277 C   0  0  0  0  0  0  0  0  0  0  0  0
    1.7879    3.8078   10.0318 C   0  0  0  0  0  0  0  0  0  0  0  0
    0.8660    3.3707   10.9895 C   0  0  0  0  0  0  0  0  0  0  0  0
   -0.5399    3.7537   10.8977 N   0  0  0  0  0  0  0  0  0  0  0  0
   -1.2550    4.3141   11.8736 C   0  0  0  0  0  0  0  0  0  0  0  0
   -0.8140    4.4931   13.0050 O   0  0  0  0  0  0  0  0  0  0  0  0
   -2.6333    4.6854   11.4124 C   0  0  0  0  0  0  0  0  0  0  0  0
   -3.5436    5.2295   12.3108 C   0  0  0  0  0  0  0  0  0  0  0  0
   -4.8206    5.5735   11.8835 C   0  0  0  0  0  0  0  0  0  0  0  0
   -5.1873    5.3735   10.5579 C   0  0  0  0  0  0  0  0  0  0  0  0
   -4.2770    4.8294    9.6596 C   0  0  0  0  0  0  0  0  0  0  0  0
   -3.0000    4.4854   10.0869 C   0  0  0  0  0  0  0  0  0  0  0  0
   -6.5655    5.7447   10.0968 C   0  0  0  0  0  0  0  0  0  0  0  0
   -6.9139    5.5749    8.9190 O   0  0  0  0  0  0  0  0  0  0  0  0
   -7.3451    6.2270   10.9318 O   0  0  0  0  0  0  0  0  0  0  0  0
    1.3140    2.5576   12.0419 C   0  0  0  0  0  0  0  0  0  0  0  0
   -0.3863   -2.6106   15.8150 C   0  0  0  0  0  0  0  0  0  0  0  0
   -1.7497   -2.8673   15.6804 C   0  0  0  0  0  0  0  0  0  0  0  0
   -3.6454   -4.3600   13.8213 H   0  0  0  0  0  0  0  0  0  0  0  0
   -5.2223   -3.6262   13.3728 H   0  0  0  0  0  0  0  0  0  0  0  0
   -3.7071   -3.0341   12.6111 H   0  0  0  0  0  0  0  0  0  0  0  0
   -4.5529   -0.3487   15.1344 H   0  0  0  0  0  0  0  0  0  0  0  0
   -4.2460   -0.6523   13.3908 H   0  0  0  0  0  0  0  0  0  0  0  0
   -5.7612   -1.2445   14.1525 H   0  0  0  0  0  0  0  0  0  0  0  0
   -4.3579   -2.1796   16.7908 H   0  0  0  0  0  0  0  0  0  0  0  0
   -5.5520   -3.2079   15.9289 H   0  0  0  0  0  0  0  0  0  0  0  0
   -3.9064   -3.8397   16.2746 H   0  0  0  0  0  0  0  0  0  0  0  0
   -2.5321   -0.4853   13.3757 H   0  0  0  0  0  0  0  0  0  0  0  0
   -0.1167   -0.9386   13.2140 H   0  0  0  0  0  0  0  0  0  0  0  0
   -0.4764    0.2210   14.5379 H   0  0  0  0  0  0  0  0  0  0  0  0
    5.1484    1.9765   13.2880 H   0  0  0  0  0  0  0  0  0  0  0  0
    6.8331    0.8820   15.3359 H   0  0  0  0  0  0  0  0  0  0  0  0
    6.2400   -0.7347   17.3354 H   0  0  0  0  0  0  0  0  0  0  0  0
    4.3327    3.1880   11.7090 H   0  0  0  0  0  0  0  0  0  0  0  0
    4.0054    1.7398   10.6978 H   0  0  0  0  0  0  0  0  0  0  0  0
    3.8383    3.8096    9.3966 H   0  0  0  0  0  0  0  0  0  0  0  0
    1.4559    4.4276    9.2120 H   0  0  0  0  0  0  0  0  0  0  0  0
   -3.2586    5.3850   13.3409 H   0  0  0  0  0  0  0  0  0  0  0  0
   -5.5280    5.9962   12.5816 H   0  0  0  0  0  0  0  0  0  0  0  0
   -4.5619    4.6739    8.6295 H   0  0  0  0  0  0  0  0  0  0  0  0
   -2.2926    4.0626    9.3888 H   0  0  0  0  0  0  0  0  0  0  0  0
   -8.1777    6.4171   10.5156 H   0  0  0  0  0  0  0  0  0  0  0  0
    0.6121    2.2342   12.7963 H   0  0  0  0  0  0  0  0  0  0  0  0
    0.2066   -3.2125   16.4877 H   0  0  0  0  0  0  0  0  0  0  0  0
   -2.2073   -3.6587   16.2555 H   0  0  0  0  0  0  0  0  0  0  0  0
  1  2  1  0  0  0  0
  2  3  1  0  0  0  0
  2  4  1  0  0  0  0
  2  5  1  0  0  0  0
  5  6  2  0  0  0  0
  5 38  1  0  0  0  0
  6  7  1  0  0  0  0
  7  8  1  0  0  0  0
  8  9  2  0  0  0  0
  8 37  1  0  0  0  0
  9 10  1  0  0  0  0
 10 11  2  0  0  0  0
 10 18  1  0  0  0  0
 11 12  1  0  0  0  0
 12 13  2  0  0  0  0
 12 19  1  0  0  0  0
 13 14  1  0  0  0  0
 14 15  1  0  0  0  0
 14 18  1  0  0  0  0
 15 16  2  0  0  0  0
 16 17  1  0  0  0  0
 17 18  2  0  0  0  0
 19 20  1  0  0  0  0
 19 36  2  0  0  0  0
 20 21  1  0  0  0  0
 21 22  2  0  0  0  0
 22 23  1  0  0  0  0
 23 24  2  3  0  0  0
 23 36  1  0  0  0  0
 24 25  1  0  0  0  0
 25 26  2  0  0  0  0
 25 27  1  0  0  0  0
 27 28  2  0  0  0  0
 27 32  1  0  0  0  0
 28 29  1  0  0  0  0
 29 30  2  0  0  0  0
 30 31  1  0  0  0  0
 30 33  1  0  0  0  0
 31 32  2  0  0  0  0
 33 34  2  0  0  0  0
 33 35  1  0  0  0  0
 37 38  2  0  0  0  0
  1 39  1  0  0  0  0
  1 40  1  0  0  0  0
  1 41  1  0  0  0  0
  3 42  1  0  0  0  0
  3 43  1  0  0  0  0
  3 44  1  0  0  0  0
  4 45  1  0  0  0  0
  4 46  1  0  0  0  0
  4 47  1  0  0  0  0
  6 48  1  0  0  0  0
  7 49  1  0  0  0  0
  7 50  1  0  0  0  0
 13 51  1  0  0  0  0
 15 52  1  0  0  0  0
 16 53  1  0  0  0  0
 20 54  1  0  0  0  0
 20 55  1  0  0  0  0
 21 56  1  0  0  0  0
 22 57  1  0  0  0  0
 28 58  1  0  0  0  0
 29 59  1  0  0  0  0
 31 60  1  0  0  0  0
 32 61  1  0  0  0  0
 35 62  1  0  0  0  0
 36 63  1  0  0  0  0
 37 64  1  0  0  0  0
 38 65  1  0  0  0  0
M  END
> <IC50[nM]>
65

$$$$
CHEMBL3264994
  -OEChem-05192314333D
 Structure written by MMmdl.
 65 69  0     0  0  0  0  0  0999 V2000
   -4.1531   -3.4266   13.5369 C   0  0  0  0  0  0  0  0  0  0  0  0
   -3.9919   -2.3907   14.6629 C   0  0  0  0  0  0  0  0  0  0  0  0
   -4.6875   -1.0646   14.3101 C   0  0  0  0  0  0  0  0  0  0  0  0
   -4.4873   -2.9438   16.0103 C   0  0  0  0  0  0  0  0  0  0  0  0
   -2.5261   -2.1057   14.8053 C   0  0  0  0  0  0  0  0  0  0  0  0
   -1.9389   -1.0760   14.0580 C   0  0  0  0  0  0  0  0  0  0  0  0
   -0.5664   -0.8256   14.2115 C   0  0  0  0  0  0  0  0  0  0  0  0
    0.2220   -1.5829   15.0890 C   0  0  0  0  0  0  0  0  0  0  0  0
    1.5930   -1.3491   15.3060 N   0  0  0  0  0  0  0  0  0  0  0  0
    2.5452   -0.4689   14.7536 C   0  0  0  0  0  0  0  0  0  0  0  0
    2.2178    0.3551   13.7190 N   0  0  0  0  0  0  0  0  0  0  0  0
    3.1227    1.2406   13.2181 C   0  0  0  0  0  0  0  0  0  0  0  0
    4.4207    1.3039   13.7175 C   0  0  0  0  0  0  0  0  0  0  0  0
    4.7482    0.4921   14.7654 N   0  0  0  0  0  0  0  0  0  0  0  0
    5.8898    0.3836   15.5035 C   0  0  0  0  0  0  0  0  0  0  0  0
    5.5715   -0.5089   16.5177 C   0  0  0  0  0  0  0  0  0  0  0  0
    4.3818   -1.0543   16.3920 N   0  0  0  0  0  0  0  0  0  0  0  0
    3.8330   -0.4170   15.3252 C   0  0  0  0  0  0  0  0  0  0  0  0
    2.6564    2.1560   12.1340 C   0  0  0  0  0  0  0  0  0  0  0  0
    3.5566    2.6280   11.1666 C   0  0  0  0  0  0  0  0  0  0  0  0
    3.1294    3.4499   10.1277 C   0  0  0  0  0  0  0  0  0  0  0  0
    1.7879    3.8078   10.0318 C   0  0  0  0  0  0  0  0  0  0  0  0
    0.8660    3.3707   10.9895 C   0  0  0  0  0  0  0  0  0  0  0  0
   -0.5399    3.7537   10.8977 N   0  0  0  0  0  0  0  0  0  0  0  0
   -1.2550    4.3141   11.8736 C   0  0  0  0  0  0  0  0  0  0  0  0
   -0.8140    4.4931   13.0050 O   0  0  0  0  0  0  0  0  0  0  0  0
   -2.6333    4.6854   11.4124 C   0  0  0  0  0  0  0  0  0  0  0  0
   -3.5436    5.2295   12.3108 C   0  0  0  0  0  0  0  0  0  0  0  0
   -4.8206    5.5735   11.8835 C   0  0  0  0  0  0  0  0  0  0  0  0
   -5.1873    5.3735   10.5579 C   0  0  0  0  0  0  0  0  0  0  0  0
   -4.2770    4.8294    9.6596 C   0  0  0  0  0  0  0  0  0  0  0  0
   -3.0000    4.4854   10.0869 C   0  0  0  0  0  0  0  0  0  0  0  0
   -6.5655    5.7447   10.0968 C   0  0  0  0  0  0  0  0  0  0  0  0
   -6.9139    5.5749    8.9190 O   0  0  0  0  0  0  0  0  0  0  0  0
   -7.3451    6.2270   10.9318 O   0  0  0  0  0  0  0  0  0  0  0  0
    1.3140    2.5576   12.0419 C   0  0  0  0  0  0  0  0  0  0  0  0
   -0.3863   -2.6106   15.8150 C   0  0  0  0  0  0  0  0  0  0  0  0
   -1.7497   -2.8673   15.6804 C   0  0  0  0  0  0  0  0  0  0  0  0
   -3.6454   -4.3600   13.8213 H   0  0  0  0  0  0  0  0  0  0  0  0
   -5.2223   -3.6262   13.3728 H   0  0  0  0  0  0  0  0  0  0  0  0
   -3.7071   -3.0341   12.6111 H   0  0  0  0  0  0  0  0  0  0  0  0
   -4.5529   -0.3487   15.1344 H   0  0  0  0  0  0  0  0  0  0  0  0
   -4.2460   -0.6523   13.3908 H   0  0  0  0  0  0  0  0  0  0  0  0
   -5.7612   -1.2445   14.1525 H   0  0  0  0  0  0  0  0  0  0  0  0
   -4.3579   -2.1796   16.7908 H   0  0  0  0  0  0  0  0  0  0  0  0
   -5.5520   -3.2079   15.9289 H   0  0  0  0  0  0  0  0  0  0  0  0
   -3.9064   -3.8397   16.2746 H   0  0  0  0  0  0  0  0  0  0  0  0
   -2.7428   -1.3944   15.6159 H   0  0  0  0  0  0  0  0  0  0  0  0
   -2.5321   -0.4853   13.3757 H   0  0  0  0  0  0  0  0  0  0  0  0
   -0.1075   -0.0318   13.6408 H   0  0  0  0  0  0  0  0  0  0  0  0
    5.1484    1.9765   13.2880 H   0  0  0  0  0  0  0  0  0  0  0  0
    6.8331    0.8820   15.3359 H   0  0  0  0  0  0  0  0  0  0  0  0
    6.2400   -0.7347   17.3354 H   0  0  0  0  0  0  0  0  0  0  0  0
    4.5981    2.3490   11.2292 H   0  0  0  0  0  0  0  0  0  0  0  0
    3.8383    3.8096    9.3966 H   0  0  0  0  0  0  0  0  0  0  0  0
    1.4559    4.4276    9.2120 H   0  0  0  0  0  0  0  0  0  0  0  0
   -3.2586    5.3850   13.3409 H   0  0  0  0  0  0  0  0  0  0  0  0
   -5.5280    5.9962   12.5816 H   0  0  0  0  0  0  0  0  0  0  0  0
   -4.5619    4.6739    8.6295 H   0  0  0  0  0  0  0  0  0  0  0  0
   -2.2926    4.0626    9.3888 H   0  0  0  0  0  0  0  0  0  0  0  0
   -8.1777    6.4171   10.5156 H   0  0  0  0  0  0  0  0  0  0  0  0
    0.7157    1.6356   11.9991 H   0  0  0  0  0  0  0  0  0  0  0  0
    1.0868    3.0993   12.9719 H   0  0  0  0  0  0  0  0  0  0  0  0
    0.2066   -3.2125   16.4877 H   0  0  0  0  0  0  0  0  0  0  0  0
   -2.2073   -3.6587   16.2555 H   0  0  0  0  0  0  0  0  0  0  0  0
  1  2  1  0  0  0  0
  2  3  1  0  0  0  0
  2  4  1  0  0  0  0
  2  5  1  0  0  0  0
  5  6  1  0  0  0  0
  5 38  1  0  0  0  0
  6  7  2  0  0  0  0
  7  8  1  0  0  0  0
  8  9  2  0  0  0  0
  8 37  1  0  0  0  0
  9 10  1  0  0  0  0
 10 11  2  0  0  0  0
 10 18  1  0  0  0  0
 11 12  1  0  0  0  0
 12 13  2  0  0  0  0
 12 19  1  0  0  0  0
 13 14  1  0  0  0  0
 14 15  1  0  0  0  0
 14 18  1  0  0  0  0
 15 16  2  0  0  0  0
 16 17  1  0  0  0  0
 17 18  2  0  0  0  0
 19 20  2  0  0  0  0
 19 36  1  0  0  0  0
 20 21  1  0  0  0  0
 21 22  2  0  0  0  0
 22 23  1  0  0  0  0
 23 24  2  3  0  0  0
 23 36  1  0  0  0  0
 24 25  1  0  0  0  0
 25 26  2  0  0  0  0
 25 27  1  0  0  0  0
 27 28  2  0  0  0  0
 27 32  1  0  0  0  0
 28 29  1  0  0  0  0
 29 30  2  0  0  0  0
 30 31  1  0  0  0  0
 30 33  1  0  0  0  0
 31 32  2  0  0  0  0
 33 34  2  0  0  0  0
 33 35  1  0  0  0  0
 37 38  2  0  0  0  0
  1 39  1  0  0  0  0
  1 40  1  0  0  0  0
  1 41  1  0  0  0  0
  3 42  1  0  0  0  0
  3 43  1  0  0  0  0
  3 44  1  0  0  0  0
  4 45  1  0  0  0  0
  4 46  1  0  0  0  0
  4 47  1  0  0  0  0
  5 48  1  0  0  0  0
  6 49  1  0  0  0  0
  7 50  1  0  0  0  0
 13 51  1  0  0  0  0
 15 52  1  0  0  0  0
 16 53  1  0  0  0  0
 20 54  1  0  0  0  0
 21 55  1  0  0  0  0
 22 56  1  0  0  0  0
 28 57  1  0  0  0  0
 29 58  1  0  0  0  0
 31 59  1  0  0  0  0
 32 60  1  0  0  0  0
 35 61  1  0  0  0  0
 36 62  1  0  0  0  0
 36 63  1  0  0  0  0
 37 64  1  0  0  0  0
 38 65  1  0  0  0  0
M  END
> <IC50[nM]>
65

$$$$
CHEMBL3264994
  -OEChem-05192314333D
 Structure written by MMmdl.
 65 69  0     0  0  0  0  0  0999 V2000
   -4.1531   -3.4266   13.5369 C   0  0  0  0  0  0  0  0  0  0  0  0
   -3.9919   -2.3907   14.6629 C   0  0  0  0  0  0  0  0  0  0  0  0
   -4.6875   -1.0646   14.3101 C   0  0  0  0  0  0  0  0  0  0  0  0
   -4.4873   -2.9438   16.0103 C   0  0  0  0  0  0  0  0  0  0  0  0
   -2.5261   -2.1057   14.8053 C   0  0  0  0  0  0  0  0  0  0  0  0
   -1.9389   -1.0760   14.0580 C   0  0  0  0  0  0  0  0  0  0  0  0
   -0.5664   -0.8256   14.2115 C   0  0  0  0  0  0  0  0  0  0  0  0
    0.2220   -1.5829   15.0890 C   0  0  0  0  0  0  0  0  0  0  0  0
    1.5930   -1.3491   15.3060 N   0  0  0  0  0  0  0  0  0  0  0  0
    2.5452   -0.4689   14.7536 C   0  0  0  0  0  0  0  0  0  0  0  0
    2.2178    0.3551   13.7190 N   0  0  0  0  0  0  0  0  0  0  0  0
    3.1227    1.2406   13.2181 C   0  0  0  0  0  0  0  0  0  0  0  0
    4.4207    1.3039   13.7175 C   0  0  0  0  0  0  0  0  0  0  0  0
    4.7482    0.4921   14.7654 N   0  0  0  0  0  0  0  0  0  0  0  0
    5.8898    0.3836   15.5035 C   0  0  0  0  0  0  0  0  0  0  0  0
    5.5715   -0.5089   16.5177 C   0  0  0  0  0  0  0  0  0  0  0  0
    4.3818   -1.0543   16.3920 N   0  0  0  0  0  0  0  0  0  0  0  0
    3.8330   -0.4170   15.3252 C   0  0  0  0  0  0  0  0  0  0  0  0
    2.6564    2.1560   12.1340 C   0  0  0  0  0  0  0  0  0  0  0  0
    3.5566    2.6280   11.1666 C   0  0  0  0  0  0  0  0  0  0  0  0
    3.1294    3.4499   10.1277 C   0  0  0  0  0  0  0  0  0  0  0  0
    1.7879    3.8078   10.0318 C   0  0  0  0  0  0  0  0  0  0  0  0
    0.8660    3.3707   10.9895 C   0  0  0  0  0  0  0  0  0  0  0  0
   -0.5399    3.7537   10.8977 N   0  0  0  0  0  0  0  0  0  0  0  0
   -1.2550    4.3141   11.8736 C   0  0  0  0  0  0  0  0  0  0  0  0
   -0.8140    4.4931   13.0050 O   0  0  0  0  0  0  0  0  0  0  0  0
   -2.6333    4.6854   11.4124 C   0  0  0  0  0  0  0  0  0  0  0  0
   -3.5436    5.2295   12.3108 C   0  0  0  0  0  0  0  0  0  0  0  0
   -4.8206    5.5735   11.8835 C   0  0  0  0  0  0  0  0  0  0  0  0
   -5.1873    5.3735   10.5579 C   0  0  0  0  0  0  0  0  0  0  0  0
   -4.2770    4.8294    9.6596 C   0  0  0  0  0  0  0  0  0  0  0  0
   -3.0000    4.4854   10.0869 C   0  0  0  0  0  0  0  0  0  0  0  0
   -6.5655    5.7447   10.0968 C   0  0  0  0  0  0  0  0  0  0  0  0
   -6.9139    5.5749    8.9190 O   0  0  0  0  0  0  0  0  0  0  0  0
   -7.3451    6.2270   10.9318 O   0  0  0  0  0  0  0  0  0  0  0  0
    1.3140    2.5576   12.0419 C   0  0  0  0  0  0  0  0  0  0  0  0
   -0.3863   -2.6106   15.8150 C   0  0  0  0  0  0  0  0  0  0  0  0
   -1.7497   -2.8673   15.6804 C   0  0  0  0  0  0  0  0  0  0  0  0
   -3.6454   -4.3600   13.8213 H   0  0  0  0  0  0  0  0  0  0  0  0
   -5.2223   -3.6262   13.3728 H   0  0  0  0  0  0  0  0  0  0  0  0
   -3.7071   -3.0341   12.6111 H   0  0  0  0  0  0  0  0  0  0  0  0
   -4.5529   -0.3487   15.1344 H   0  0  0  0  0  0  0  0  0  0  0  0
   -4.2460   -0.6523   13.3908 H   0  0  0  0  0  0  0  0  0  0  0  0
   -5.7612   -1.2445   14.1525 H   0  0  0  0  0  0  0  0  0  0  0  0
   -4.3579   -2.1796   16.7908 H   0  0  0  0  0  0  0  0  0  0  0  0
   -5.5520   -3.2079   15.9289 H   0  0  0  0  0  0  0  0  0  0  0  0
   -3.9064   -3.8397   16.2746 H   0  0  0  0  0  0  0  0  0  0  0  0
   -2.5321   -0.4853   13.3757 H   0  0  0  0  0  0  0  0  0  0  0  0
   -0.1167   -0.9386   13.2140 H   0  0  0  0  0  0  0  0  0  0  0  0
   -0.4764    0.2210   14.5379 H   0  0  0  0  0  0  0  0  0  0  0  0
    5.1484    1.9765   13.2880 H   0  0  0  0  0  0  0  0  0  0  0  0
    6.8331    0.8820   15.3359 H   0  0  0  0  0  0  0  0  0  0  0  0
    6.2400   -0.7347   17.3354 H   0  0  0  0  0  0  0  0  0  0  0  0
    4.5981    2.3490   11.2292 H   0  0  0  0  0  0  0  0  0  0  0  0
    3.8383    3.8096    9.3966 H   0  0  0  0  0  0  0  0  0  0  0  0
    1.4559    4.4276    9.2120 H   0  0  0  0  0  0  0  0  0  0  0  0
   -3.2586    5.3850   13.3409 H   0  0  0  0  0  0  0  0  0  0  0  0
   -5.5280    5.9962   12.5816 H   0  0  0  0  0  0  0  0  0  0  0  0
   -4.5619    4.6739    8.6295 H   0  0  0  0  0  0  0  0  0  0  0  0
   -2.2926    4.0626    9.3888 H   0  0  0  0  0  0  0  0  0  0  0  0
   -8.1777    6.4171   10.5156 H   0  0  0  0  0  0  0  0  0  0  0  0
    0.7157    1.6356   11.9991 H   0  0  0  0  0  0  0  0  0  0  0  0
    1.0868    3.0993   12.9719 H   0  0  0  0  0  0  0  0  0  0  0  0
    0.2066   -3.2125   16.4877 H   0  0  0  0  0  0  0  0  0  0  0  0
   -2.2073   -3.6587   16.2555 H   0  0  0  0  0  0  0  0  0  0  0  0
  1  2  1  0  0  0  0
  2  3  1  0  0  0  0
  2  4  1  0  0  0  0
  2  5  1  0  0  0  0
  5  6  2  0  0  0  0
  5 38  1  0  0  0  0
  6  7  1  0  0  0  0
  7  8  1  0  0  0  0
  8  9  2  0  0  0  0
  8 37  1  0  0  0  0
  9 10  1  0  0  0  0
 10 11  2  0  0  0  0
 10 18  1  0  0  0  0
 11 12  1  0  0  0  0
 12 13  2  0  0  0  0
 12 19  1  0  0  0  0
 13 14  1  0  0  0  0
 14 15  1  0  0  0  0
 14 18  1  0  0  0  0
 15 16  2  0  0  0  0
 16 17  1  0  0  0  0
 17 18  2  0  0  0  0
 19 20  2  0  0  0  0
 19 36  1  0  0  0  0
 20 21  1  0  0  0  0
 21 22  2  0  0  0  0
 22 23  1  0  0  0  0
 23 24  2  3  0  0  0
 23 36  1  0  0  0  0
 24 25  1  0  0  0  0
 25 26  2  0  0  0  0
 25 27  1  0  0  0  0
 27 28  2  0  0  0  0
 27 32  1  0  0  0  0
 28 29  1  0  0  0  0
 29 30  2  0  0  0  0
 30 31  1  0  0  0  0
 30 33  1  0  0  0  0
 31 32  2  0  0  0  0
 33 34  2  0  0  0  0
 33 35  1  0  0  0  0
 37 38  2  0  0  0  0
  1 39  1  0  0  0  0
  1 40  1  0  0  0  0
  1 41  1  0  0  0  0
  3 42  1  0  0  0  0
  3 43  1  0  0  0  0
  3 44  1  0  0  0  0
  4 45  1  0  0  0  0
  4 46  1  0  0  0  0
  4 47  1  0  0  0  0
  6 48  1  0  0  0  0
  7 49  1  0  0  0  0
  7 50  1  0  0  0  0
 13 51  1  0  0  0  0
 15 52  1  0  0  0  0
 16 53  1  0  0  0  0
 20 54  1  0  0  0  0
 21 55  1  0  0  0  0
 22 56  1  0  0  0  0
 28 57  1  0  0  0  0
 29 58  1  0  0  0  0
 31 59  1  0  0  0  0
 32 60  1  0  0  0  0
 35 61  1  0  0  0  0
 36 62  1  0  0  0  0
 36 63  1  0  0  0  0
 37 64  1  0  0  0  0
 38 65  1  0  0  0  0
M  END
> <IC50[nM]>
65

$$$$
