CHEMBL3265013
  -OEChem-05192314333D
 Structure written by MMmdl.
 51 54  0     0  0  0  0  0  0999 V2000
   -4.2553   -3.1063   13.5659 C   0  0  0  0  0  0  0  0  0  0  0  0
   -3.8742   -2.3531   14.7065 O   0  0  0  0  0  0  0  0  0  0  0  0
   -2.5276   -2.1063   14.8134 C   0  0  0  0  0  0  0  0  0  0  0  0
   -1.7534   -2.8662   15.6836 C   0  0  0  0  0  0  0  0  0  0  0  0
   -0.3974   -2.6067   15.8226 C   0  0  0  0  0  0  0  0  0  0  0  0
    0.2193   -1.5855   15.0957 C   0  0  0  0  0  0  0  0  0  0  0  0
    1.6033   -1.3619   15.3321 N   0  0  0  0  0  0  0  0  0  0  0  0
    2.5310   -0.4394   14.7826 C   0  0  0  0  0  0  0  0  0  0  0  0
    2.1681    0.3851   13.7534 N   0  0  0  0  0  0  0  0  0  0  0  0
    3.1084    1.2291   13.2323 C   0  0  0  0  0  0  0  0  0  0  0  0
    4.4111    1.2775   13.7062 C   0  0  0  0  0  0  0  0  0  0  0  0
    4.7446    0.4849   14.7663 N   0  0  0  0  0  0  0  0  0  0  0  0
    5.8943    0.3819   15.4817 C   0  0  0  0  0  0  0  0  0  0  0  0
    5.5914   -0.5326   16.5146 C   0  0  0  0  0  0  0  0  0  0  0  0
    4.3838   -1.0600   16.3570 N   0  0  0  0  0  0  0  0  0  0  0  0
    3.8360   -0.3910   15.3315 C   0  0  0  0  0  0  0  0  0  0  0  0
    2.6494    2.1359   12.1286 C   0  0  0  0  0  0  0  0  0  0  0  0
    3.5584    2.6335   11.1783 C   0  0  0  0  0  0  0  0  0  0  0  0
    3.1269    3.4578   10.1469 C   0  0  0  0  0  0  0  0  0  0  0  0
    1.7725    3.8115   10.0354 C   0  0  0  0  0  0  0  0  0  0  0  0
    1.3343    4.6941    8.8847 C   0  0  0  0  0  0  0  0  0  0  0  0
    2.0989    5.5193    8.3952 O   0  0  0  0  0  0  0  0  0  0  0  0
    0.0978    4.4815    8.4258 N   0  0  0  0  0  0  0  0  0  0  0  0
    0.8524    3.3384   11.0121 C   0  0  0  0  0  0  0  0  0  0  0  0
   -0.6224    3.7518   10.9890 C   0  0  0  0  0  0  0  0  0  0  0  0
    1.2991    2.5101   12.0360 C   0  0  0  0  0  0  0  0  0  0  0  0
   -0.5507   -0.8158   14.1957 C   0  0  0  0  0  0  0  0  0  0  0  0
   -1.9415   -1.0842   14.0609 C   0  0  0  0  0  0  0  0  0  0  0  0
   -2.7452   -0.3406   13.2070 O   0  0  0  0  0  0  0  0  0  0  0  0
   -2.1924    0.4470   12.1700 C   0  0  0  0  0  0  0  0  0  0  0  0
   -5.3457   -3.2510   13.5690 H   0  0  0  0  0  0  0  0  0  0  0  0
   -3.9598   -2.5660   12.6544 H   0  0  0  0  0  0  0  0  0  0  0  0
   -3.7555   -4.0859   13.5898 H   0  0  0  0  0  0  0  0  0  0  0  0
   -2.2097   -3.6619   16.2538 H   0  0  0  0  0  0  0  0  0  0  0  0
    0.1907   -3.2038   16.5037 H   0  0  0  0  0  0  0  0  0  0  0  0
    1.9994   -1.9725   16.0179 H   0  0  0  0  0  0  0  0  0  0  0  0
    5.1431    1.9260   13.2480 H   0  0  0  0  0  0  0  0  0  0  0  0
    6.8317    0.8869   15.3010 H   0  0  0  0  0  0  0  0  0  0  0  0
    6.2582   -0.7724   17.3296 H   0  0  0  0  0  0  0  0  0  0  0  0
    4.6037    2.3719   11.2511 H   0  0  0  0  0  0  0  0  0  0  0  0
    3.8388    3.8297    9.4249 H   0  0  0  0  0  0  0  0  0  0  0  0
   -0.2439    5.0076    7.6471 H   0  0  0  0  0  0  0  0  0  0  0  0
   -0.4861    3.7962    8.8610 H   0  0  0  0  0  0  0  0  0  0  0  0
   -1.1979    3.0262   10.3955 H   0  0  0  0  0  0  0  0  0  0  0  0
   -1.0125    3.7758   12.0172 H   0  0  0  0  0  0  0  0  0  0  0  0
   -0.7160    4.7507   10.5379 H   0  0  0  0  0  0  0  0  0  0  0  0
    0.5961    2.1488   12.7719 H   0  0  0  0  0  0  0  0  0  0  0  0
   -0.0882   -0.0311   13.6155 H   0  0  0  0  0  0  0  0  0  0  0  0
   -3.0014    0.9488   11.6189 H   0  0  0  0  0  0  0  0  0  0  0  0
   -1.5199    1.2025   12.6023 H   0  0  0  0  0  0  0  0  0  0  0  0
   -1.6256   -0.1979   11.4823 H   0  0  0  0  0  0  0  0  0  0  0  0
  1  2  1  0  0  0  0
  2  3  1  0  0  0  0
  3  4  2  0  0  0  0
  3 28  1  0  0  0  0
  4  5  1  0  0  0  0
  5  6  2  0  0  0  0
  6  7  1  0  0  0  0
  6 27  1  0  0  0  0
  7  8  1  0  0  0  0
  8  9  2  0  0  0  0
  8 16  1  0  0  0  0
  9 10  1  0  0  0  0
 10 11  2  0  0  0  0
 10 17  1  0  0  0  0
 11 12  1  0  0  0  0
 12 13  1  0  0  0  0
 12 16  1  0  0  0  0
 13 14  2  0  0  0  0
 14 15  1  0  0  0  0
 15 16  2  0  0  0  0
 17 18  2  0  0  0  0
 17 26  1  0  0  0  0
 18 19  1  0  0  0  0
 19 20  2  0  0  0  0
 20 21  1  0  0  0  0
 20 24  1  0  0  0  0
 21 22  2  0  0  0  0
 21 23  1  0  0  0  0
 24 25  1  0  0  0  0
 24 26  2  0  0  0  0
 27 28  2  0  0  0  0
 28 29  1  0  0  0  0
 29 30  1  0  0  0  0
  1 31  1  0  0  0  0
  1 32  1  0  0  0  0
  1 33  1  0  0  0  0
  4 34  1  0  0  0  0
  5 35  1  0  0  0  0
  7 36  1  0  0  0  0
 11 37  1  0  0  0  0
 13 38  1  0  0  0  0
 14 39  1  0  0  0  0
 18 40  1  0  0  0  0
 19 41  1  0  0  0  0
 23 42  1  0  0  0  0
 23 43  1  0  0  0  0
 25 44  1  0  0  0  0
 25 45  1  0  0  0  0
 25 46  1  0  0  0  0
 26 47  1  0  0  0  0
 27 48  1  0  0  0  0
 30 49  1  0  0  0  0
 30 50  1  0  0  0  0
 30 51  1  0  0  0  0
M  END
> <IC50[nM]>
64.1

$$$$
CHEMBL3265013
  -OEChem-05192314333D
 Structure written by MMmdl.
 51 54  0     0  0  0  0  0  0999 V2000
   -4.2553   -3.1063   13.5659 C   0  0  0  0  0  0  0  0  0  0  0  0
   -3.8742   -2.3531   14.7065 O   0  0  0  0  0  0  0  0  0  0  0  0
   -2.5276   -2.1063   14.8134 C   0  0  0  0  0  0  0  0  0  0  0  0
   -1.7534   -2.8662   15.6836 C   0  0  0  0  0  0  0  0  0  0  0  0
   -0.3974   -2.6067   15.8226 C   0  0  0  0  0  0  0  0  0  0  0  0
    0.2193   -1.5855   15.0957 C   0  0  0  0  0  0  0  0  0  0  0  0
    1.6033   -1.3619   15.3321 N   0  0  0  0  0  0  0  0  0  0  0  0
    2.5310   -0.4394   14.7826 C   0  0  0  0  0  0  0  0  0  0  0  0
    2.1681    0.3851   13.7534 N   0  0  0  0  0  0  0  0  0  0  0  0
    3.1084    1.2291   13.2323 C   0  0  0  0  0  0  0  0  0  0  0  0
    4.4111    1.2775   13.7062 C   0  0  0  0  0  0  0  0  0  0  0  0
    4.7446    0.4849   14.7663 N   0  0  0  0  0  0  0  0  0  0  0  0
    5.8943    0.3819   15.4817 C   0  0  0  0  0  0  0  0  0  0  0  0
    5.5914   -0.5326   16.5146 C   0  0  0  0  0  0  0  0  0  0  0  0
    4.3838   -1.0600   16.3570 N   0  0  0  0  0  0  0  0  0  0  0  0
    3.8360   -0.3910   15.3315 C   0  0  0  0  0  0  0  0  0  0  0  0
    2.6494    2.1359   12.1286 C   0  0  0  0  0  0  0  0  0  0  0  0
    3.5584    2.6335   11.1783 C   0  0  0  0  0  0  0  0  0  0  0  0
    3.1269    3.4578   10.1469 C   0  0  0  0  0  0  0  0  0  0  0  0
    1.7725    3.8115   10.0354 C   0  0  0  0  0  0  0  0  0  0  0  0
    1.3343    4.6941    8.8847 C   0  0  0  0  0  0  0  0  0  0  0  0
    2.0989    5.5193    8.3952 O   0  0  0  0  0  0  0  0  0  0  0  0
    0.0978    4.4815    8.4258 N   0  0  0  0  0  0  0  0  0  0  0  0
    0.8524    3.3384   11.0121 C   0  0  0  0  0  0  0  0  0  0  0  0
   -0.6224    3.7518   10.9890 C   0  0  0  0  0  0  0  0  0  0  0  0
    1.2991    2.5101   12.0360 C   0  0  0  0  0  0  0  0  0  0  0  0
   -0.5507   -0.8158   14.1957 C   0  0  0  0  0  0  0  0  0  0  0  0
   -1.9415   -1.0842   14.0609 C   0  0  0  0  0  0  0  0  0  0  0  0
   -2.7452   -0.3406   13.2070 O   0  0  0  0  0  0  0  0  0  0  0  0
   -2.1924    0.4470   12.1700 C   0  0  0  0  0  0  0  0  0  0  0  0
   -5.3457   -3.2510   13.5690 H   0  0  0  0  0  0  0  0  0  0  0  0
   -3.9598   -2.5660   12.6544 H   0  0  0  0  0  0  0  0  0  0  0  0
   -3.7555   -4.0859   13.5898 H   0  0  0  0  0  0  0  0  0  0  0  0
   -2.2097   -3.6619   16.2538 H   0  0  0  0  0  0  0  0  0  0  0  0
    0.1907   -3.2038   16.5037 H   0  0  0  0  0  0  0  0  0  0  0  0
    1.9994   -1.9725   16.0179 H   0  0  0  0  0  0  0  0  0  0  0  0
    5.1431    1.9260   13.2480 H   0  0  0  0  0  0  0  0  0  0  0  0
    6.8317    0.8869   15.3010 H   0  0  0  0  0  0  0  0  0  0  0  0
    6.2582   -0.7724   17.3296 H   0  0  0  0  0  0  0  0  0  0  0  0
    4.6037    2.3719   11.2511 H   0  0  0  0  0  0  0  0  0  0  0  0
    3.8388    3.8297    9.4249 H   0  0  0  0  0  0  0  0  0  0  0  0
    1.6594    5.9795    7.6898 H   0  0  0  0  0  0  0  0  0  0  0  0
   -0.1192    5.0704    7.6473 H   0  0  0  0  0  0  0  0  0  0  0  0
   -1.1979    3.0262   10.3955 H   0  0  0  0  0  0  0  0  0  0  0  0
   -1.0125    3.7758   12.0172 H   0  0  0  0  0  0  0  0  0  0  0  0
   -0.7160    4.7507   10.5379 H   0  0  0  0  0  0  0  0  0  0  0  0
    0.5961    2.1488   12.7719 H   0  0  0  0  0  0  0  0  0  0  0  0
   -0.0882   -0.0311   13.6155 H   0  0  0  0  0  0  0  0  0  0  0  0
   -3.0014    0.9488   11.6189 H   0  0  0  0  0  0  0  0  0  0  0  0
   -1.5199    1.2025   12.6023 H   0  0  0  0  0  0  0  0  0  0  0  0
   -1.6256   -0.1979   11.4823 H   0  0  0  0  0  0  0  0  0  0  0  0
  1  2  1  0  0  0  0
  2  3  1  0  0  0  0
  3  4  2  0  0  0  0
  3 28  1  0  0  0  0
  4  5  1  0  0  0  0
  5  6  2  0  0  0  0
  6  7  1  0  0  0  0
  6 27  1  0  0  0  0
  7  8  1  0  0  0  0
  8  9  2  0  0  0  0
  8 16  1  0  0  0  0
  9 10  1  0  0  0  0
 10 11  2  0  0  0  0
 10 17  1  0  0  0  0
 11 12  1  0  0  0  0
 12 13  1  0  0  0  0
 12 16  1  0  0  0  0
 13 14  2  0  0  0  0
 14 15  1  0  0  0  0
 15 16  2  0  0  0  0
 17 18  2  0  0  0  0
 17 26  1  0  0  0  0
 18 19  1  0  0  0  0
 19 20  2  0  0  0  0
 20 21  1  0  0  0  0
 20 24  1  0  0  0  0
 21 22  1  0  0  0  0
 21 23  2  0  0  0  0
 24 25  1  0  0  0  0
 24 26  2  0  0  0  0
 27 28  2  0  0  0  0
 28 29  1  0  0  0  0
 29 30  1  0  0  0  0
  1 31  1  0  0  0  0
  1 32  1  0  0  0  0
  1 33  1  0  0  0  0
  4 34  1  0  0  0  0
  5 35  1  0  0  0  0
  7 36  1  0  0  0  0
 11 37  1  0  0  0  0
 13 38  1  0  0  0  0
 14 39  1  0  0  0  0
 18 40  1  0  0  0  0
 19 41  1  0  0  0  0
 22 42  1  0  0  0  0
 23 43  1  0  0  0  0
 25 44  1  0  0  0  0
 25 45  1  0  0  0  0
 25 46  1  0  0  0  0
 26 47  1  0  0  0  0
 27 48  1  0  0  0  0
 30 49  1  0  0  0  0
 30 50  1  0  0  0  0
 30 51  1  0  0  0  0
M  END
> <IC50[nM]>
64.1

$$$$
CHEMBL3265013
  -OEChem-05192314333D
 Structure written by MMmdl.
 51 54  0     0  0  0  0  0  0999 V2000
   -4.2553   -3.1063   13.5659 C   0  0  0  0  0  0  0  0  0  0  0  0
   -3.8742   -2.3531   14.7065 O   0  0  0  0  0  0  0  0  0  0  0  0
   -2.5276   -2.1063   14.8134 C   0  0  0  0  0  0  0  0  0  0  0  0
   -1.7534   -2.8662   15.6836 C   0  0  0  0  0  0  0  0  0  0  0  0
   -0.3974   -2.6067   15.8226 C   0  0  0  0  0  0  0  0  0  0  0  0
    0.2193   -1.5855   15.0957 C   0  0  0  0  0  0  0  0  0  0  0  0
    1.6033   -1.3619   15.3321 N   0  0  0  0  0  0  0  0  0  0  0  0
    2.5310   -0.4394   14.7826 C   0  0  0  0  0  0  0  0  0  0  0  0
    2.1681    0.3851   13.7534 N   0  0  0  0  0  0  0  0  0  0  0  0
    3.1084    1.2291   13.2323 C   0  0  0  0  0  0  0  0  0  0  0  0
    4.4111    1.2775   13.7062 C   0  0  0  0  0  0  0  0  0  0  0  0
    4.7446    0.4849   14.7663 N   0  0  0  0  0  0  0  0  0  0  0  0
    5.8943    0.3819   15.4817 C   0  0  0  0  0  0  0  0  0  0  0  0
    5.5914   -0.5326   16.5146 C   0  0  0  0  0  0  0  0  0  0  0  0
    4.3838   -1.0600   16.3570 N   0  0  0  0  0  0  0  0  0  0  0  0
    3.8360   -0.3910   15.3315 C   0  0  0  0  0  0  0  0  0  0  0  0
    2.6494    2.1359   12.1286 C   0  0  0  0  0  0  0  0  0  0  0  0
    3.5584    2.6335   11.1783 C   0  0  0  0  0  0  0  0  0  0  0  0
    3.1269    3.4578   10.1469 C   0  0  0  0  0  0  0  0  0  0  0  0
    1.7725    3.8115   10.0354 C   0  0  0  0  0  0  0  0  0  0  0  0
    1.3343    4.6941    8.8847 C   0  0  0  0  0  0  0  0  0  0  0  0
    2.0989    5.5193    8.3952 O   0  0  0  0  0  0  0  0  0  0  0  0
    0.0978    4.4815    8.4258 N   0  0  0  0  0  0  0  0  0  0  0  0
    0.8524    3.3384   11.0121 C   0  0  0  0  0  0  0  0  0  0  0  0
   -0.6224    3.7518   10.9890 C   0  0  0  0  0  0  0  0  0  0  0  0
    1.2991    2.5101   12.0360 C   0  0  0  0  0  0  0  0  0  0  0  0
   -0.5507   -0.8158   14.1957 C   0  0  0  0  0  0  0  0  0  0  0  0
   -1.9415   -1.0842   14.0609 C   0  0  0  0  0  0  0  0  0  0  0  0
   -2.7452   -0.3406   13.2070 O   0  0  0  0  0  0  0  0  0  0  0  0
   -2.1924    0.4470   12.1700 C   0  0  0  0  0  0  0  0  0  0  0  0
   -5.3457   -3.2510   13.5690 H   0  0  0  0  0  0  0  0  0  0  0  0
   -3.9598   -2.5660   12.6544 H   0  0  0  0  0  0  0  0  0  0  0  0
   -3.7555   -4.0859   13.5898 H   0  0  0  0  0  0  0  0  0  0  0  0
   -2.2097   -3.6619   16.2538 H   0  0  0  0  0  0  0  0  0  0  0  0
    0.1907   -3.2038   16.5037 H   0  0  0  0  0  0  0  0  0  0  0  0
    1.2364    0.3707   13.3906 H   0  0  0  0  0  0  0  0  0  0  0  0
    5.1431    1.9260   13.2480 H   0  0  0  0  0  0  0  0  0  0  0  0
    6.8317    0.8869   15.3010 H   0  0  0  0  0  0  0  0  0  0  0  0
    6.2582   -0.7724   17.3296 H   0  0  0  0  0  0  0  0  0  0  0  0
    4.6037    2.3719   11.2511 H   0  0  0  0  0  0  0  0  0  0  0  0
    3.8388    3.8297    9.4249 H   0  0  0  0  0  0  0  0  0  0  0  0
   -0.2439    5.0076    7.6471 H   0  0  0  0  0  0  0  0  0  0  0  0
   -0.4861    3.7962    8.8610 H   0  0  0  0  0  0  0  0  0  0  0  0
   -1.1979    3.0262   10.3955 H   0  0  0  0  0  0  0  0  0  0  0  0
   -1.0125    3.7758   12.0172 H   0  0  0  0  0  0  0  0  0  0  0  0
   -0.7160    4.7507   10.5379 H   0  0  0  0  0  0  0  0  0  0  0  0
    0.5961    2.1488   12.7719 H   0  0  0  0  0  0  0  0  0  0  0  0
   -0.0882   -0.0311   13.6155 H   0  0  0  0  0  0  0  0  0  0  0  0
   -3.0014    0.9488   11.6189 H   0  0  0  0  0  0  0  0  0  0  0  0
   -1.5199    1.2025   12.6023 H   0  0  0  0  0  0  0  0  0  0  0  0
   -1.6256   -0.1979   11.4823 H   0  0  0  0  0  0  0  0  0  0  0  0
  1  2  1  0  0  0  0
  2  3  1  0  0  0  0
  3  4  2  0  0  0  0
  3 28  1  0  0  0  0
  4  5  1  0  0  0  0
  5  6  2  0  0  0  0
  6  7  1  0  0  0  0
  6 27  1  0  0  0  0
  7  8  2  0  0  0  0
  8  9  1  0  0  0  0
  8 16  1  0  0  0  0
  9 10  1  0  0  0  0
 10 11  2  0  0  0  0
 10 17  1  0  0  0  0
 11 12  1  0  0  0  0
 12 13  1  0  0  0  0
 12 16  1  0  0  0  0
 13 14  2  0  0  0  0
 14 15  1  0  0  0  0
 15 16  2  0  0  0  0
 17 18  2  0  0  0  0
 17 26  1  0  0  0  0
 18 19  1  0  0  0  0
 19 20  2  0  0  0  0
 20 21  1  0  0  0  0
 20 24  1  0  0  0  0
 21 22  2  0  0  0  0
 21 23  1  0  0  0  0
 24 25  1  0  0  0  0
 24 26  2  0  0  0  0
 27 28  2  0  0  0  0
 28 29  1  0  0  0  0
 29 30  1  0  0  0  0
  1 31  1  0  0  0  0
  1 32  1  0  0  0  0
  1 33  1  0  0  0  0
  4 34  1  0  0  0  0
  5 35  1  0  0  0  0
  9 36  1  0  0  0  0
 11 37  1  0  0  0  0
 13 38  1  0  0  0  0
 14 39  1  0  0  0  0
 18 40  1  0  0  0  0
 19 41  1  0  0  0  0
 23 42  1  0  0  0  0
 23 43  1  0  0  0  0
 25 44  1  0  0  0  0
 25 45  1  0  0  0  0
 25 46  1  0  0  0  0
 26 47  1  0  0  0  0
 27 48  1  0  0  0  0
 30 49  1  0  0  0  0
 30 50  1  0  0  0  0
 30 51  1  0  0  0  0
M  END
> <IC50[nM]>
64.1

$$$$
CHEMBL3265013
  -OEChem-05192314333D
 Structure written by MMmdl.
 51 54  0     0  0  0  0  0  0999 V2000
   -4.2553   -3.1063   13.5659 C   0  0  0  0  0  0  0  0  0  0  0  0
   -3.8742   -2.3531   14.7065 O   0  0  0  0  0  0  0  0  0  0  0  0
   -2.5276   -2.1063   14.8134 C   0  0  0  0  0  0  0  0  0  0  0  0
   -1.7534   -2.8662   15.6836 C   0  0  0  0  0  0  0  0  0  0  0  0
   -0.3974   -2.6067   15.8226 C   0  0  0  0  0  0  0  0  0  0  0  0
    0.2193   -1.5855   15.0957 C   0  0  0  0  0  0  0  0  0  0  0  0
    1.6033   -1.3619   15.3321 N   0  0  0  0  0  0  0  0  0  0  0  0
    2.5310   -0.4394   14.7826 C   0  0  0  0  0  0  0  0  0  0  0  0
    2.1681    0.3851   13.7534 N   0  0  0  0  0  0  0  0  0  0  0  0
    3.1084    1.2291   13.2323 C   0  0  0  0  0  0  0  0  0  0  0  0
    4.4111    1.2775   13.7062 C   0  0  0  0  0  0  0  0  0  0  0  0
    4.7446    0.4849   14.7663 N   0  0  0  0  0  0  0  0  0  0  0  0
    5.8943    0.3819   15.4817 C   0  0  0  0  0  0  0  0  0  0  0  0
    5.5914   -0.5326   16.5146 C   0  0  0  0  0  0  0  0  0  0  0  0
    4.3838   -1.0600   16.3570 N   0  0  0  0  0  0  0  0  0  0  0  0
    3.8360   -0.3910   15.3315 C   0  0  0  0  0  0  0  0  0  0  0  0
    2.6494    2.1359   12.1286 C   0  0  0  0  0  0  0  0  0  0  0  0
    3.5584    2.6335   11.1783 C   0  0  0  0  0  0  0  0  0  0  0  0
    3.1269    3.4578   10.1469 C   0  0  0  0  0  0  0  0  0  0  0  0
    1.7725    3.8115   10.0354 C   0  0  0  0  0  0  0  0  0  0  0  0
    1.3343    4.6941    8.8847 C   0  0  0  0  0  0  0  0  0  0  0  0
    2.0989    5.5193    8.3952 O   0  0  0  0  0  0  0  0  0  0  0  0
    0.0978    4.4815    8.4258 N   0  0  0  0  0  0  0  0  0  0  0  0
    0.8524    3.3384   11.0121 C   0  0  0  0  0  0  0  0  0  0  0  0
   -0.6224    3.7518   10.9890 C   0  0  0  0  0  0  0  0  0  0  0  0
    1.2991    2.5101   12.0360 C   0  0  0  0  0  0  0  0  0  0  0  0
   -0.5507   -0.8158   14.1957 C   0  0  0  0  0  0  0  0  0  0  0  0
   -1.9415   -1.0842   14.0609 C   0  0  0  0  0  0  0  0  0  0  0  0
   -2.7452   -0.3406   13.2070 O   0  0  0  0  0  0  0  0  0  0  0  0
   -2.1924    0.4470   12.1700 C   0  0  0  0  0  0  0  0  0  0  0  0
   -5.3457   -3.2510   13.5690 H   0  0  0  0  0  0  0  0  0  0  0  0
   -3.9598   -2.5660   12.6544 H   0  0  0  0  0  0  0  0  0  0  0  0
   -3.7555   -4.0859   13.5898 H   0  0  0  0  0  0  0  0  0  0  0  0
   -2.2097   -3.6619   16.2538 H   0  0  0  0  0  0  0  0  0  0  0  0
    0.1907   -3.2038   16.5037 H   0  0  0  0  0  0  0  0  0  0  0  0
    1.2364    0.3707   13.3906 H   0  0  0  0  0  0  0  0  0  0  0  0
    5.1431    1.9260   13.2480 H   0  0  0  0  0  0  0  0  0  0  0  0
    6.8317    0.8869   15.3010 H   0  0  0  0  0  0  0  0  0  0  0  0
    6.2582   -0.7724   17.3296 H   0  0  0  0  0  0  0  0  0  0  0  0
    4.6037    2.3719   11.2511 H   0  0  0  0  0  0  0  0  0  0  0  0
    3.8388    3.8297    9.4249 H   0  0  0  0  0  0  0  0  0  0  0  0
    1.6594    5.9795    7.6898 H   0  0  0  0  0  0  0  0  0  0  0  0
   -0.1192    5.0704    7.6473 H   0  0  0  0  0  0  0  0  0  0  0  0
   -1.1979    3.0262   10.3955 H   0  0  0  0  0  0  0  0  0  0  0  0
   -1.0125    3.7758   12.0172 H   0  0  0  0  0  0  0  0  0  0  0  0
   -0.7160    4.7507   10.5379 H   0  0  0  0  0  0  0  0  0  0  0  0
    0.5961    2.1488   12.7719 H   0  0  0  0  0  0  0  0  0  0  0  0
   -0.0882   -0.0311   13.6155 H   0  0  0  0  0  0  0  0  0  0  0  0
   -3.0014    0.9488   11.6189 H   0  0  0  0  0  0  0  0  0  0  0  0
   -1.5199    1.2025   12.6023 H   0  0  0  0  0  0  0  0  0  0  0  0
   -1.6256   -0.1979   11.4823 H   0  0  0  0  0  0  0  0  0  0  0  0
  1  2  1  0  0  0  0
  2  3  1  0  0  0  0
  3  4  2  0  0  0  0
  3 28  1  0  0  0  0
  4  5  1  0  0  0  0
  5  6  2  0  0  0  0
  6  7  1  0  0  0  0
  6 27  1  0  0  0  0
  7  8  2  0  0  0  0
  8  9  1  0  0  0  0
  8 16  1  0  0  0  0
  9 10  1  0  0  0  0
 10 11  2  0  0  0  0
 10 17  1  0  0  0  0
 11 12  1  0  0  0  0
 12 13  1  0  0  0  0
 12 16  1  0  0  0  0
 13 14  2  0  0  0  0
 14 15  1  0  0  0  0
 15 16  2  0  0  0  0
 17 18  2  0  0  0  0
 17 26  1  0  0  0  0
 18 19  1  0  0  0  0
 19 20  2  0  0  0  0
 20 21  1  0  0  0  0
 20 24  1  0  0  0  0
 21 22  1  0  0  0  0
 21 23  2  0  0  0  0
 24 25  1  0  0  0  0
 24 26  2  0  0  0  0
 27 28  2  0  0  0  0
 28 29  1  0  0  0  0
 29 30  1  0  0  0  0
  1 31  1  0  0  0  0
  1 32  1  0  0  0  0
  1 33  1  0  0  0  0
  4 34  1  0  0  0  0
  5 35  1  0  0  0  0
  9 36  1  0  0  0  0
 11 37  1  0  0  0  0
 13 38  1  0  0  0  0
 14 39  1  0  0  0  0
 18 40  1  0  0  0  0
 19 41  1  0  0  0  0
 22 42  1  0  0  0  0
 23 43  1  0  0  0  0
 25 44  1  0  0  0  0
 25 45  1  0  0  0  0
 25 46  1  0  0  0  0
 26 47  1  0  0  0  0
 27 48  1  0  0  0  0
 30 49  1  0  0  0  0
 30 50  1  0  0  0  0
 30 51  1  0  0  0  0
M  END
> <IC50[nM]>
64.1

$$$$
CHEMBL3265013
  -OEChem-05192314333D
 Structure written by MMmdl.
 51 54  0     0  0  0  0  0  0999 V2000
   -4.2553   -3.1063   13.5659 C   0  0  0  0  0  0  0  0  0  0  0  0
   -3.8742   -2.3531   14.7065 O   0  0  0  0  0  0  0  0  0  0  0  0
   -2.5276   -2.1063   14.8134 C   0  0  0  0  0  0  0  0  0  0  0  0
   -1.7534   -2.8662   15.6836 C   0  0  0  0  0  0  0  0  0  0  0  0
   -0.3974   -2.6067   15.8226 C   0  0  0  0  0  0  0  0  0  0  0  0
    0.2193   -1.5855   15.0957 C   0  0  0  0  0  0  0  0  0  0  0  0
    1.6033   -1.3619   15.3321 N   0  0  0  0  0  0  0  0  0  0  0  0
    2.5310   -0.4394   14.7826 C   0  0  0  0  0  0  0  0  0  0  0  0
    2.1681    0.3851   13.7534 N   0  0  0  0  0  0  0  0  0  0  0  0
    3.1084    1.2291   13.2323 C   0  0  0  0  0  0  0  0  0  0  0  0
    4.4111    1.2775   13.7062 C   0  0  0  0  0  0  0  0  0  0  0  0
    4.7446    0.4849   14.7663 N   0  0  0  0  0  0  0  0  0  0  0  0
    5.8943    0.3819   15.4817 C   0  0  0  0  0  0  0  0  0  0  0  0
    5.5914   -0.5326   16.5146 C   0  0  0  0  0  0  0  0  0  0  0  0
    4.3838   -1.0600   16.3570 N   0  0  0  0  0  0  0  0  0  0  0  0
    3.8360   -0.3910   15.3315 C   0  0  0  0  0  0  0  0  0  0  0  0
    2.6494    2.1359   12.1286 C   0  0  0  0  0  0  0  0  0  0  0  0
    3.5584    2.6335   11.1783 C   0  0  0  0  0  0  0  0  0  0  0  0
    3.1269    3.4578   10.1469 C   0  0  0  0  0  0  0  0  0  0  0  0
    1.7725    3.8115   10.0354 C   0  0  0  0  0  0  0  0  0  0  0  0
    1.3343    4.6941    8.8847 C   0  0  0  0  0  0  0  0  0  0  0  0
    2.0989    5.5193    8.3952 O   0  0  0  0  0  0  0  0  0  0  0  0
    0.0978    4.4815    8.4258 N   0  0  0  0  0  0  0  0  0  0  0  0
    0.8524    3.3384   11.0121 C   0  0  0  0  0  0  0  0  0  0  0  0
   -0.6224    3.7518   10.9890 C   0  0  0  0  0  0  0  0  0  0  0  0
    1.2991    2.5101   12.0360 C   0  0  0  0  0  0  0  0  0  0  0  0
   -0.5507   -0.8158   14.1957 C   0  0  0  0  0  0  0  0  0  0  0  0
   -1.9415   -1.0842   14.0609 C   0  0  0  0  0  0  0  0  0  0  0  0
   -2.7452   -0.3406   13.2070 O   0  0  0  0  0  0  0  0  0  0  0  0
   -2.1924    0.4470   12.1700 C   0  0  0  0  0  0  0  0  0  0  0  0
   -5.3457   -3.2510   13.5690 H   0  0  0  0  0  0  0  0  0  0  0  0
   -3.9598   -2.5660   12.6544 H   0  0  0  0  0  0  0  0  0  0  0  0
   -3.7555   -4.0859   13.5898 H   0  0  0  0  0  0  0  0  0  0  0  0
   -2.2097   -3.6619   16.2538 H   0  0  0  0  0  0  0  0  0  0  0  0
    0.1907   -3.2038   16.5037 H   0  0  0  0  0  0  0  0  0  0  0  0
    5.0716    0.9998   12.8716 H   0  0  0  0  0  0  0  0  0  0  0  0
    4.6115    2.3179   14.0019 H   0  0  0  0  0  0  0  0  0  0  0  0
    6.8317    0.8869   15.3010 H   0  0  0  0  0  0  0  0  0  0  0  0
    6.2582   -0.7724   17.3296 H   0  0  0  0  0  0  0  0  0  0  0  0
    4.6037    2.3719   11.2511 H   0  0  0  0  0  0  0  0  0  0  0  0
    3.8388    3.8297    9.4249 H   0  0  0  0  0  0  0  0  0  0  0  0
   -0.2439    5.0076    7.6471 H   0  0  0  0  0  0  0  0  0  0  0  0
   -0.4861    3.7962    8.8610 H   0  0  0  0  0  0  0  0  0  0  0  0
   -1.1979    3.0262   10.3955 H   0  0  0  0  0  0  0  0  0  0  0  0
   -1.0125    3.7758   12.0172 H   0  0  0  0  0  0  0  0  0  0  0  0
   -0.7160    4.7507   10.5379 H   0  0  0  0  0  0  0  0  0  0  0  0
    0.5961    2.1488   12.7719 H   0  0  0  0  0  0  0  0  0  0  0  0
   -0.0882   -0.0311   13.6155 H   0  0  0  0  0  0  0  0  0  0  0  0
   -3.0014    0.9488   11.6189 H   0  0  0  0  0  0  0  0  0  0  0  0
   -1.5199    1.2025   12.6023 H   0  0  0  0  0  0  0  0  0  0  0  0
   -1.6256   -0.1979   11.4823 H   0  0  0  0  0  0  0  0  0  0  0  0
  1  2  1  0  0  0  0
  2  3  1  0  0  0  0
  3  4  2  0  0  0  0
  3 28  1  0  0  0  0
  4  5  1  0  0  0  0
  5  6  2  0  0  0  0
  6  7  1  0  0  0  0
  6 27  1  0  0  0  0
  7  8  2  0  0  0  0
  8  9  1  0  0  0  0
  8 16  1  0  0  0  0
  9 10  2  0  0  0  0
 10 11  1  0  0  0  0
 10 17  1  0  0  0  0
 11 12  1  0  0  0  0
 12 13  1  0  0  0  0
 12 16  1  0  0  0  0
 13 14  2  0  0  0  0
 14 15  1  0  0  0  0
 15 16  2  0  0  0  0
 17 18  2  0  0  0  0
 17 26  1  0  0  0  0
 18 19  1  0  0  0  0
 19 20  2  0  0  0  0
 20 21  1  0  0  0  0
 20 24  1  0  0  0  0
 21 22  2  0  0  0  0
 21 23  1  0  0  0  0
 24 25  1  0  0  0  0
 24 26  2  0  0  0  0
 27 28  2  0  0  0  0
 28 29  1  0  0  0  0
 29 30  1  0  0  0  0
  1 31  1  0  0  0  0
  1 32  1  0  0  0  0
  1 33  1  0  0  0  0
  4 34  1  0  0  0  0
  5 35  1  0  0  0  0
 11 36  1  0  0  0  0
 11 37  1  0  0  0  0
 13 38  1  0  0  0  0
 14 39  1  0  0  0  0
 18 40  1  0  0  0  0
 19 41  1  0  0  0  0
 23 42  1  0  0  0  0
 23 43  1  0  0  0  0
 25 44  1  0  0  0  0
 25 45  1  0  0  0  0
 25 46  1  0  0  0  0
 26 47  1  0  0  0  0
 27 48  1  0  0  0  0
 30 49  1  0  0  0  0
 30 50  1  0  0  0  0
 30 51  1  0  0  0  0
M  END
> <IC50[nM]>
64.1

$$$$
CHEMBL3265013
  -OEChem-05192314333D
 Structure written by MMmdl.
 51 54  0     0  0  0  0  0  0999 V2000
   -4.2553   -3.1063   13.5659 C   0  0  0  0  0  0  0  0  0  0  0  0
   -3.8742   -2.3531   14.7065 O   0  0  0  0  0  0  0  0  0  0  0  0
   -2.5276   -2.1063   14.8134 C   0  0  0  0  0  0  0  0  0  0  0  0
   -1.7534   -2.8662   15.6836 C   0  0  0  0  0  0  0  0  0  0  0  0
   -0.3974   -2.6067   15.8226 C   0  0  0  0  0  0  0  0  0  0  0  0
    0.2193   -1.5855   15.0957 C   0  0  0  0  0  0  0  0  0  0  0  0
    1.6033   -1.3619   15.3321 N   0  0  0  0  0  0  0  0  0  0  0  0
    2.5310   -0.4394   14.7826 C   0  0  0  0  0  0  0  0  0  0  0  0
    2.1681    0.3851   13.7534 N   0  0  0  0  0  0  0  0  0  0  0  0
    3.1084    1.2291   13.2323 C   0  0  0  0  0  0  0  0  0  0  0  0
    4.4111    1.2775   13.7062 C   0  0  0  0  0  0  0  0  0  0  0  0
    4.7446    0.4849   14.7663 N   0  0  0  0  0  0  0  0  0  0  0  0
    5.8943    0.3819   15.4817 C   0  0  0  0  0  0  0  0  0  0  0  0
    5.5914   -0.5326   16.5146 C   0  0  0  0  0  0  0  0  0  0  0  0
    4.3838   -1.0600   16.3570 N   0  0  0  0  0  0  0  0  0  0  0  0
    3.8360   -0.3910   15.3315 C   0  0  0  0  0  0  0  0  0  0  0  0
    2.6494    2.1359   12.1286 C   0  0  0  0  0  0  0  0  0  0  0  0
    3.5584    2.6335   11.1783 C   0  0  0  0  0  0  0  0  0  0  0  0
    3.1269    3.4578   10.1469 C   0  0  0  0  0  0  0  0  0  0  0  0
    1.7725    3.8115   10.0354 C   0  0  0  0  0  0  0  0  0  0  0  0
    1.3343    4.6941    8.8847 C   0  0  0  0  0  0  0  0  0  0  0  0
    2.0989    5.5193    8.3952 O   0  0  0  0  0  0  0  0  0  0  0  0
    0.0978    4.4815    8.4258 N   0  0  0  0  0  0  0  0  0  0  0  0
    0.8524    3.3384   11.0121 C   0  0  0  0  0  0  0  0  0  0  0  0
   -0.6224    3.7518   10.9890 C   0  0  0  0  0  0  0  0  0  0  0  0
    1.2991    2.5101   12.0360 C   0  0  0  0  0  0  0  0  0  0  0  0
   -0.5507   -0.8158   14.1957 C   0  0  0  0  0  0  0  0  0  0  0  0
   -1.9415   -1.0842   14.0609 C   0  0  0  0  0  0  0  0  0  0  0  0
   -2.7452   -0.3406   13.2070 O   0  0  0  0  0  0  0  0  0  0  0  0
   -2.1924    0.4470   12.1700 C   0  0  0  0  0  0  0  0  0  0  0  0
   -5.3457   -3.2510   13.5690 H   0  0  0  0  0  0  0  0  0  0  0  0
   -3.9598   -2.5660   12.6544 H   0  0  0  0  0  0  0  0  0  0  0  0
   -3.7555   -4.0859   13.5898 H   0  0  0  0  0  0  0  0  0  0  0  0
   -2.2097   -3.6619   16.2538 H   0  0  0  0  0  0  0  0  0  0  0  0
    0.1907   -3.2038   16.5037 H   0  0  0  0  0  0  0  0  0  0  0  0
    5.0716    0.9998   12.8716 H   0  0  0  0  0  0  0  0  0  0  0  0
    4.6115    2.3179   14.0019 H   0  0  0  0  0  0  0  0  0  0  0  0
    6.8317    0.8869   15.3010 H   0  0  0  0  0  0  0  0  0  0  0  0
    6.2582   -0.7724   17.3296 H   0  0  0  0  0  0  0  0  0  0  0  0
    4.6037    2.3719   11.2511 H   0  0  0  0  0  0  0  0  0  0  0  0
    3.8388    3.8297    9.4249 H   0  0  0  0  0  0  0  0  0  0  0  0
    1.6594    5.9795    7.6898 H   0  0  0  0  0  0  0  0  0  0  0  0
   -0.1192    5.0704    7.6473 H   0  0  0  0  0  0  0  0  0  0  0  0
   -1.1979    3.0262   10.3955 H   0  0  0  0  0  0  0  0  0  0  0  0
   -1.0125    3.7758   12.0172 H   0  0  0  0  0  0  0  0  0  0  0  0
   -0.7160    4.7507   10.5379 H   0  0  0  0  0  0  0  0  0  0  0  0
    0.5961    2.1488   12.7719 H   0  0  0  0  0  0  0  0  0  0  0  0
   -0.0882   -0.0311   13.6155 H   0  0  0  0  0  0  0  0  0  0  0  0
   -3.0014    0.9488   11.6189 H   0  0  0  0  0  0  0  0  0  0  0  0
   -1.5199    1.2025   12.6023 H   0  0  0  0  0  0  0  0  0  0  0  0
   -1.6256   -0.1979   11.4823 H   0  0  0  0  0  0  0  0  0  0  0  0
  1  2  1  0  0  0  0
  2  3  1  0  0  0  0
  3  4  2  0  0  0  0
  3 28  1  0  0  0  0
  4  5  1  0  0  0  0
  5  6  2  0  0  0  0
  6  7  1  0  0  0  0
  6 27  1  0  0  0  0
  7  8  2  0  0  0  0
  8  9  1  0  0  0  0
  8 16  1  0  0  0  0
  9 10  2  0  0  0  0
 10 11  1  0  0  0  0
 10 17  1  0  0  0  0
 11 12  1  0  0  0  0
 12 13  1  0  0  0  0
 12 16  1  0  0  0  0
 13 14  2  0  0  0  0
 14 15  1  0  0  0  0
 15 16  2  0  0  0  0
 17 18  2  0  0  0  0
 17 26  1  0  0  0  0
 18 19  1  0  0  0  0
 19 20  2  0  0  0  0
 20 21  1  0  0  0  0
 20 24  1  0  0  0  0
 21 22  1  0  0  0  0
 21 23  2  0  0  0  0
 24 25  1  0  0  0  0
 24 26  2  0  0  0  0
 27 28  2  0  0  0  0
 28 29  1  0  0  0  0
 29 30  1  0  0  0  0
  1 31  1  0  0  0  0
  1 32  1  0  0  0  0
  1 33  1  0  0  0  0
  4 34  1  0  0  0  0
  5 35  1  0  0  0  0
 11 36  1  0  0  0  0
 11 37  1  0  0  0  0
 13 38  1  0  0  0  0
 14 39  1  0  0  0  0
 18 40  1  0  0  0  0
 19 41  1  0  0  0  0
 22 42  1  0  0  0  0
 23 43  1  0  0  0  0
 25 44  1  0  0  0  0
 25 45  1  0  0  0  0
 25 46  1  0  0  0  0
 26 47  1  0  0  0  0
 27 48  1  0  0  0  0
 30 49  1  0  0  0  0
 30 50  1  0  0  0  0
 30 51  1  0  0  0  0
M  END
> <IC50[nM]>
64.1

$$$$
CHEMBL3265013
  -OEChem-05192314333D
 Structure written by MMmdl.
 51 54  0     1  0  0  0  0  0999 V2000
   -4.2553   -3.1063   13.5659 C   0  0  0  0  0  0  0  0  0  0  0  0
   -3.8742   -2.3531   14.7065 O   0  0  0  0  0  0  0  0  0  0  0  0
   -2.5276   -2.1063   14.8134 C   0  0  3  0  0  0  0  0  0  0  0  0
   -1.7534   -2.8662   15.6836 C   0  0  0  0  0  0  0  0  0  0  0  0
   -0.3974   -2.6067   15.8226 C   0  0  0  0  0  0  0  0  0  0  0  0
    0.2193   -1.5855   15.0957 C   0  0  0  0  0  0  0  0  0  0  0  0
    1.6033   -1.3619   15.3321 N   0  0  0  0  0  0  0  0  0  0  0  0
    2.5310   -0.4394   14.7826 C   0  0  0  0  0  0  0  0  0  0  0  0
    2.1681    0.3851   13.7534 N   0  0  0  0  0  0  0  0  0  0  0  0
    3.1084    1.2291   13.2323 C   0  0  0  0  0  0  0  0  0  0  0  0
    4.4111    1.2775   13.7062 C   0  0  0  0  0  0  0  0  0  0  0  0
    4.7446    0.4849   14.7663 N   0  0  0  0  0  0  0  0  0  0  0  0
    5.8943    0.3819   15.4817 C   0  0  0  0  0  0  0  0  0  0  0  0
    5.5914   -0.5326   16.5146 C   0  0  0  0  0  0  0  0  0  0  0  0
    4.3838   -1.0600   16.3570 N   0  0  0  0  0  0  0  0  0  0  0  0
    3.8360   -0.3910   15.3315 C   0  0  0  0  0  0  0  0  0  0  0  0
    2.6494    2.1359   12.1286 C   0  0  0  0  0  0  0  0  0  0  0  0
    3.5584    2.6335   11.1783 C   0  0  0  0  0  0  0  0  0  0  0  0
    3.1269    3.4578   10.1469 C   0  0  0  0  0  0  0  0  0  0  0  0
    1.7725    3.8115   10.0354 C   0  0  0  0  0  0  0  0  0  0  0  0
    1.3343    4.6941    8.8847 C   0  0  0  0  0  0  0  0  0  0  0  0
    2.0989    5.5193    8.3952 O   0  0  0  0  0  0  0  0  0  0  0  0
    0.0978    4.4815    8.4258 N   0  0  0  0  0  0  0  0  0  0  0  0
    0.8524    3.3384   11.0121 C   0  0  0  0  0  0  0  0  0  0  0  0
   -0.6224    3.7518   10.9890 C   0  0  0  0  0  0  0  0  0  0  0  0
    1.2991    2.5101   12.0360 C   0  0  0  0  0  0  0  0  0  0  0  0
   -0.5507   -0.8158   14.1957 C   0  0  0  0  0  0  0  0  0  0  0  0
   -1.9415   -1.0842   14.0609 C   0  0  0  0  0  0  0  0  0  0  0  0
   -2.7452   -0.3406   13.2070 O   0  0  0  0  0  0  0  0  0  0  0  0
   -2.1924    0.4470   12.1700 C   0  0  0  0  0  0  0  0  0  0  0  0
   -5.3457   -3.2510   13.5690 H   0  0  0  0  0  0  0  0  0  0  0  0
   -3.9598   -2.5660   12.6544 H   0  0  0  0  0  0  0  0  0  0  0  0
   -3.7555   -4.0859   13.5898 H   0  0  0  0  0  0  0  0  0  0  0  0
   -2.3277   -2.8230   14.0032 H   0  0  0  0  0  0  0  0  0  0  0  0
   -2.2097   -3.6619   16.2538 H   0  0  0  0  0  0  0  0  0  0  0  0
    0.1907   -3.2038   16.5037 H   0  0  0  0  0  0  0  0  0  0  0  0
    5.1431    1.9260   13.2480 H   0  0  0  0  0  0  0  0  0  0  0  0
    6.8317    0.8869   15.3010 H   0  0  0  0  0  0  0  0  0  0  0  0
    6.2582   -0.7724   17.3296 H   0  0  0  0  0  0  0  0  0  0  0  0
    4.6037    2.3719   11.2511 H   0  0  0  0  0  0  0  0  0  0  0  0
    3.8388    3.8297    9.4249 H   0  0  0  0  0  0  0  0  0  0  0  0
   -0.2439    5.0076    7.6471 H   0  0  0  0  0  0  0  0  0  0  0  0
   -0.4861    3.7962    8.8610 H   0  0  0  0  0  0  0  0  0  0  0  0
   -1.1979    3.0262   10.3955 H   0  0  0  0  0  0  0  0  0  0  0  0
   -1.0125    3.7758   12.0172 H   0  0  0  0  0  0  0  0  0  0  0  0
   -0.7160    4.7507   10.5379 H   0  0  0  0  0  0  0  0  0  0  0  0
    0.5961    2.1488   12.7719 H   0  0  0  0  0  0  0  0  0  0  0  0
   -0.0882   -0.0311   13.6155 H   0  0  0  0  0  0  0  0  0  0  0  0
   -3.0014    0.9488   11.6189 H   0  0  0  0  0  0  0  0  0  0  0  0
   -1.5199    1.2025   12.6023 H   0  0  0  0  0  0  0  0  0  0  0  0
   -1.6256   -0.1979   11.4823 H   0  0  0  0  0  0  0  0  0  0  0  0
  1  2  1  0  0  0  0
  2  3  1  0  0  0  0
  3  4  1  0  0  0  0
  3 28  1  0  0  0  0
  4  5  2  0  0  0  0
  5  6  1  0  0  0  0
  6  7  2  0  0  0  0
  6 27  1  0  0  0  0
  7  8  1  0  0  0  0
  8  9  2  0  0  0  0
  8 16  1  0  0  0  0
  9 10  1  0  0  0  0
 10 11  2  0  0  0  0
 10 17  1  0  0  0  0
 11 12  1  0  0  0  0
 12 13  1  0  0  0  0
 12 16  1  0  0  0  0
 13 14  2  0  0  0  0
 14 15  1  0  0  0  0
 15 16  2  0  0  0  0
 17 18  2  0  0  0  0
 17 26  1  0  0  0  0
 18 19  1  0  0  0  0
 19 20  2  0  0  0  0
 20 21  1  0  0  0  0
 20 24  1  0  0  0  0
 21 22  2  0  0  0  0
 21 23  1  0  0  0  0
 24 25  1  0  0  0  0
 24 26  2  0  0  0  0
 27 28  2  0  0  0  0
 28 29  1  0  0  0  0
 29 30  1  0  0  0  0
  1 31  1  0  0  0  0
  1 32  1  0  0  0  0
  1 33  1  0  0  0  0
  3 34  1  0  0  0  0
  4 35  1  0  0  0  0
  5 36  1  0  0  0  0
 11 37  1  0  0  0  0
 13 38  1  0  0  0  0
 14 39  1  0  0  0  0
 18 40  1  0  0  0  0
 19 41  1  0  0  0  0
 23 42  1  0  0  0  0
 23 43  1  0  0  0  0
 25 44  1  0  0  0  0
 25 45  1  0  0  0  0
 25 46  1  0  0  0  0
 26 47  1  0  0  0  0
 27 48  1  0  0  0  0
 30 49  1  0  0  0  0
 30 50  1  0  0  0  0
 30 51  1  0  0  0  0
M  END
> <IC50[nM]>
64.1

$$$$
CHEMBL3265013
  -OEChem-05192314333D
 Structure written by MMmdl.
 51 54  0     0  0  0  0  0  0999 V2000
   -4.2553   -3.1063   13.5659 C   0  0  0  0  0  0  0  0  0  0  0  0
   -3.8742   -2.3531   14.7065 O   0  0  0  0  0  0  0  0  0  0  0  0
   -2.5276   -2.1063   14.8134 C   0  0  0  0  0  0  0  0  0  0  0  0
   -1.7534   -2.8662   15.6836 C   0  0  0  0  0  0  0  0  0  0  0  0
   -0.3974   -2.6067   15.8226 C   0  0  0  0  0  0  0  0  0  0  0  0
    0.2193   -1.5855   15.0957 C   0  0  0  0  0  0  0  0  0  0  0  0
    1.6033   -1.3619   15.3321 N   0  0  0  0  0  0  0  0  0  0  0  0
    2.5310   -0.4394   14.7826 C   0  0  0  0  0  0  0  0  0  0  0  0
    2.1681    0.3851   13.7534 N   0  0  0  0  0  0  0  0  0  0  0  0
    3.1084    1.2291   13.2323 C   0  0  0  0  0  0  0  0  0  0  0  0
    4.4111    1.2775   13.7062 C   0  0  0  0  0  0  0  0  0  0  0  0
    4.7446    0.4849   14.7663 N   0  0  0  0  0  0  0  0  0  0  0  0
    5.8943    0.3819   15.4817 C   0  0  0  0  0  0  0  0  0  0  0  0
    5.5914   -0.5326   16.5146 C   0  0  0  0  0  0  0  0  0  0  0  0
    4.3838   -1.0600   16.3570 N   0  0  0  0  0  0  0  0  0  0  0  0
    3.8360   -0.3910   15.3315 C   0  0  0  0  0  0  0  0  0  0  0  0
    2.6494    2.1359   12.1286 C   0  0  0  0  0  0  0  0  0  0  0  0
    3.5584    2.6335   11.1783 C   0  0  0  0  0  0  0  0  0  0  0  0
    3.1269    3.4578   10.1469 C   0  0  0  0  0  0  0  0  0  0  0  0
    1.7725    3.8115   10.0354 C   0  0  0  0  0  0  0  0  0  0  0  0
    1.3343    4.6941    8.8847 C   0  0  0  0  0  0  0  0  0  0  0  0
    2.0989    5.5193    8.3952 O   0  0  0  0  0  0  0  0  0  0  0  0
    0.0978    4.4815    8.4258 N   0  0  0  0  0  0  0  0  0  0  0  0
    0.8524    3.3384   11.0121 C   0  0  0  0  0  0  0  0  0  0  0  0
   -0.6224    3.7518   10.9890 C   0  0  0  0  0  0  0  0  0  0  0  0
    1.2991    2.5101   12.0360 C   0  0  0  0  0  0  0  0  0  0  0  0
   -0.5507   -0.8158   14.1957 C   0  0  0  0  0  0  0  0  0  0  0  0
   -1.9415   -1.0842   14.0609 C   0  0  0  0  0  0  0  0  0  0  0  0
   -2.7452   -0.3406   13.2070 O   0  0  0  0  0  0  0  0  0  0  0  0
   -2.1924    0.4470   12.1700 C   0  0  0  0  0  0  0  0  0  0  0  0
   -5.3457   -3.2510   13.5690 H   0  0  0  0  0  0  0  0  0  0  0  0
   -3.9598   -2.5660   12.6544 H   0  0  0  0  0  0  0  0  0  0  0  0
   -3.7555   -4.0859   13.5898 H   0  0  0  0  0  0  0  0  0  0  0  0
   -2.2097   -3.6619   16.2538 H   0  0  0  0  0  0  0  0  0  0  0  0
   -0.2304   -2.3783   16.8856 H   0  0  0  0  0  0  0  0  0  0  0  0
    0.1273   -3.5374   15.5607 H   0  0  0  0  0  0  0  0  0  0  0  0
    5.1431    1.9260   13.2480 H   0  0  0  0  0  0  0  0  0  0  0  0
    6.8317    0.8869   15.3010 H   0  0  0  0  0  0  0  0  0  0  0  0
    6.2582   -0.7724   17.3296 H   0  0  0  0  0  0  0  0  0  0  0  0
    4.6037    2.3719   11.2511 H   0  0  0  0  0  0  0  0  0  0  0  0
    3.8388    3.8297    9.4249 H   0  0  0  0  0  0  0  0  0  0  0  0
   -0.2439    5.0076    7.6471 H   0  0  0  0  0  0  0  0  0  0  0  0
   -0.4861    3.7962    8.8610 H   0  0  0  0  0  0  0  0  0  0  0  0
   -1.1979    3.0262   10.3955 H   0  0  0  0  0  0  0  0  0  0  0  0
   -1.0125    3.7758   12.0172 H   0  0  0  0  0  0  0  0  0  0  0  0
   -0.7160    4.7507   10.5379 H   0  0  0  0  0  0  0  0  0  0  0  0
    0.5961    2.1488   12.7719 H   0  0  0  0  0  0  0  0  0  0  0  0
   -0.0882   -0.0311   13.6155 H   0  0  0  0  0  0  0  0  0  0  0  0
   -3.0014    0.9488   11.6189 H   0  0  0  0  0  0  0  0  0  0  0  0
   -1.5199    1.2025   12.6023 H   0  0  0  0  0  0  0  0  0  0  0  0
   -1.6256   -0.1979   11.4823 H   0  0  0  0  0  0  0  0  0  0  0  0
  1  2  1  0  0  0  0
  2  3  1  0  0  0  0
  3  4  2  0  0  0  0
  3 28  1  0  0  0  0
  4  5  1  0  0  0  0
  5  6  1  0  0  0  0
  6  7  2  0  0  0  0
  6 27  1  0  0  0  0
  7  8  1  0  0  0  0
  8  9  2  0  0  0  0
  8 16  1  0  0  0  0
  9 10  1  0  0  0  0
 10 11  2  0  0  0  0
 10 17  1  0  0  0  0
 11 12  1  0  0  0  0
 12 13  1  0  0  0  0
 12 16  1  0  0  0  0
 13 14  2  0  0  0  0
 14 15  1  0  0  0  0
 15 16  2  0  0  0  0
 17 18  2  0  0  0  0
 17 26  1  0  0  0  0
 18 19  1  0  0  0  0
 19 20  2  0  0  0  0
 20 21  1  0  0  0  0
 20 24  1  0  0  0  0
 21 22  2  0  0  0  0
 21 23  1  0  0  0  0
 24 25  1  0  0  0  0
 24 26  2  0  0  0  0
 27 28  2  0  0  0  0
 28 29  1  0  0  0  0
 29 30  1  0  0  0  0
  1 31  1  0  0  0  0
  1 32  1  0  0  0  0
  1 33  1  0  0  0  0
  4 34  1  0  0  0  0
  5 35  1  0  0  0  0
  5 36  1  0  0  0  0
 11 37  1  0  0  0  0
 13 38  1  0  0  0  0
 14 39  1  0  0  0  0
 18 40  1  0  0  0  0
 19 41  1  0  0  0  0
 23 42  1  0  0  0  0
 23 43  1  0  0  0  0
 25 44  1  0  0  0  0
 25 45  1  0  0  0  0
 25 46  1  0  0  0  0
 26 47  1  0  0  0  0
 27 48  1  0  0  0  0
 30 49  1  0  0  0  0
 30 50  1  0  0  0  0
 30 51  1  0  0  0  0
M  END
> <IC50[nM]>
64.1

$$$$
CHEMBL3265013
  -OEChem-05192314333D
 Structure written by MMmdl.
 51 54  0     0  0  0  0  0  0999 V2000
   -4.2553   -3.1063   13.5659 C   0  0  0  0  0  0  0  0  0  0  0  0
   -3.8742   -2.3531   14.7065 O   0  0  0  0  0  0  0  0  0  0  0  0
   -2.5276   -2.1063   14.8134 C   0  0  0  0  0  0  0  0  0  0  0  0
   -1.7534   -2.8662   15.6836 C   0  0  0  0  0  0  0  0  0  0  0  0
   -0.3974   -2.6067   15.8226 C   0  0  0  0  0  0  0  0  0  0  0  0
    0.2193   -1.5855   15.0957 C   0  0  0  0  0  0  0  0  0  0  0  0
    1.6033   -1.3619   15.3321 N   0  0  0  0  0  0  0  0  0  0  0  0
    2.5310   -0.4394   14.7826 C   0  0  0  0  0  0  0  0  0  0  0  0
    2.1681    0.3851   13.7534 N   0  0  0  0  0  0  0  0  0  0  0  0
    3.1084    1.2291   13.2323 C   0  0  0  0  0  0  0  0  0  0  0  0
    4.4111    1.2775   13.7062 C   0  0  0  0  0  0  0  0  0  0  0  0
    4.7446    0.4849   14.7663 N   0  0  0  0  0  0  0  0  0  0  0  0
    5.8943    0.3819   15.4817 C   0  0  0  0  0  0  0  0  0  0  0  0
    5.5914   -0.5326   16.5146 C   0  0  0  0  0  0  0  0  0  0  0  0
    4.3838   -1.0600   16.3570 N   0  0  0  0  0  0  0  0  0  0  0  0
    3.8360   -0.3910   15.3315 C   0  0  0  0  0  0  0  0  0  0  0  0
    2.6494    2.1359   12.1286 C   0  0  0  0  0  0  0  0  0  0  0  0
    3.5584    2.6335   11.1783 C   0  0  0  0  0  0  0  0  0  0  0  0
    3.1269    3.4578   10.1469 C   0  0  0  0  0  0  0  0  0  0  0  0
    1.7725    3.8115   10.0354 C   0  0  0  0  0  0  0  0  0  0  0  0
    1.3343    4.6941    8.8847 C   0  0  0  0  0  0  0  0  0  0  0  0
    2.0989    5.5193    8.3952 O   0  0  0  0  0  0  0  0  0  0  0  0
    0.0978    4.4815    8.4258 N   0  0  0  0  0  0  0  0  0  0  0  0
    0.8524    3.3384   11.0121 C   0  0  0  0  0  0  0  0  0  0  0  0
   -0.6224    3.7518   10.9890 C   0  0  0  0  0  0  0  0  0  0  0  0
    1.2991    2.5101   12.0360 C   0  0  0  0  0  0  0  0  0  0  0  0
   -0.5507   -0.8158   14.1957 C   0  0  0  0  0  0  0  0  0  0  0  0
   -1.9415   -1.0842   14.0609 C   0  0  0  0  0  0  0  0  0  0  0  0
   -2.7452   -0.3406   13.2070 O   0  0  0  0  0  0  0  0  0  0  0  0
   -2.1924    0.4470   12.1700 C   0  0  0  0  0  0  0  0  0  0  0  0
   -5.3457   -3.2510   13.5690 H   0  0  0  0  0  0  0  0  0  0  0  0
   -3.9598   -2.5660   12.6544 H   0  0  0  0  0  0  0  0  0  0  0  0
   -3.7555   -4.0859   13.5898 H   0  0  0  0  0  0  0  0  0  0  0  0
   -2.2097   -3.6619   16.2538 H   0  0  0  0  0  0  0  0  0  0  0  0
    0.1907   -3.2038   16.5037 H   0  0  0  0  0  0  0  0  0  0  0  0
    5.1431    1.9260   13.2480 H   0  0  0  0  0  0  0  0  0  0  0  0
    6.8317    0.8869   15.3010 H   0  0  0  0  0  0  0  0  0  0  0  0
    6.2582   -0.7724   17.3296 H   0  0  0  0  0  0  0  0  0  0  0  0
    4.6037    2.3719   11.2511 H   0  0  0  0  0  0  0  0  0  0  0  0
    3.8388    3.8297    9.4249 H   0  0  0  0  0  0  0  0  0  0  0  0
   -0.2439    5.0076    7.6471 H   0  0  0  0  0  0  0  0  0  0  0  0
   -0.4861    3.7962    8.8610 H   0  0  0  0  0  0  0  0  0  0  0  0
   -1.1979    3.0262   10.3955 H   0  0  0  0  0  0  0  0  0  0  0  0
   -1.0125    3.7758   12.0172 H   0  0  0  0  0  0  0  0  0  0  0  0
   -0.7160    4.7507   10.5379 H   0  0  0  0  0  0  0  0  0  0  0  0
    0.5961    2.1488   12.7719 H   0  0  0  0  0  0  0  0  0  0  0  0
   -0.4558    0.2342   14.5094 H   0  0  0  0  0  0  0  0  0  0  0  0
   -0.1017   -0.9430   13.1996 H   0  0  0  0  0  0  0  0  0  0  0  0
   -3.0014    0.9488   11.6189 H   0  0  0  0  0  0  0  0  0  0  0  0
   -1.5199    1.2025   12.6023 H   0  0  0  0  0  0  0  0  0  0  0  0
   -1.6256   -0.1979   11.4823 H   0  0  0  0  0  0  0  0  0  0  0  0
  1  2  1  0  0  0  0
  2  3  1  0  0  0  0
  3  4  1  0  0  0  0
  3 28  2  0  0  0  0
  4  5  2  0  0  0  0
  5  6  1  0  0  0  0
  6  7  2  0  0  0  0
  6 27  1  0  0  0  0
  7  8  1  0  0  0  0
  8  9  2  0  0  0  0
  8 16  1  0  0  0  0
  9 10  1  0  0  0  0
 10 11  2  0  0  0  0
 10 17  1  0  0  0  0
 11 12  1  0  0  0  0
 12 13  1  0  0  0  0
 12 16  1  0  0  0  0
 13 14  2  0  0  0  0
 14 15  1  0  0  0  0
 15 16  2  0  0  0  0
 17 18  2  0  0  0  0
 17 26  1  0  0  0  0
 18 19  1  0  0  0  0
 19 20  2  0  0  0  0
 20 21  1  0  0  0  0
 20 24  1  0  0  0  0
 21 22  2  0  0  0  0
 21 23  1  0  0  0  0
 24 25  1  0  0  0  0
 24 26  2  0  0  0  0
 27 28  1  0  0  0  0
 28 29  1  0  0  0  0
 29 30  1  0  0  0  0
  1 31  1  0  0  0  0
  1 32  1  0  0  0  0
  1 33  1  0  0  0  0
  4 34  1  0  0  0  0
  5 35  1  0  0  0  0
 11 36  1  0  0  0  0
 13 37  1  0  0  0  0
 14 38  1  0  0  0  0
 18 39  1  0  0  0  0
 19 40  1  0  0  0  0
 23 41  1  0  0  0  0
 23 42  1  0  0  0  0
 25 43  1  0  0  0  0
 25 44  1  0  0  0  0
 25 45  1  0  0  0  0
 26 46  1  0  0  0  0
 27 47  1  0  0  0  0
 27 48  1  0  0  0  0
 30 49  1  0  0  0  0
 30 50  1  0  0  0  0
 30 51  1  0  0  0  0
M  END
> <IC50[nM]>
64.1

$$$$
CHEMBL3265013
  -OEChem-05192314333D
 Structure written by MMmdl.
 51 54  0     1  0  0  0  0  0999 V2000
   -4.2553   -3.1063   13.5659 C   0  0  0  0  0  0  0  0  0  0  0  0
   -3.8742   -2.3531   14.7065 O   0  0  0  0  0  0  0  0  0  0  0  0
   -2.5276   -2.1063   14.8134 C   0  0  3  0  0  0  0  0  0  0  0  0
   -1.7534   -2.8662   15.6836 C   0  0  0  0  0  0  0  0  0  0  0  0
   -0.3974   -2.6067   15.8226 C   0  0  0  0  0  0  0  0  0  0  0  0
    0.2193   -1.5855   15.0957 C   0  0  0  0  0  0  0  0  0  0  0  0
    1.6033   -1.3619   15.3321 N   0  0  0  0  0  0  0  0  0  0  0  0
    2.5310   -0.4394   14.7826 C   0  0  0  0  0  0  0  0  0  0  0  0
    2.1681    0.3851   13.7534 N   0  0  0  0  0  0  0  0  0  0  0  0
    3.1084    1.2291   13.2323 C   0  0  0  0  0  0  0  0  0  0  0  0
    4.4111    1.2775   13.7062 C   0  0  0  0  0  0  0  0  0  0  0  0
    4.7446    0.4849   14.7663 N   0  0  0  0  0  0  0  0  0  0  0  0
    5.8943    0.3819   15.4817 C   0  0  0  0  0  0  0  0  0  0  0  0
    5.5914   -0.5326   16.5146 C   0  0  0  0  0  0  0  0  0  0  0  0
    4.3838   -1.0600   16.3570 N   0  0  0  0  0  0  0  0  0  0  0  0
    3.8360   -0.3910   15.3315 C   0  0  0  0  0  0  0  0  0  0  0  0
    2.6494    2.1359   12.1286 C   0  0  0  0  0  0  0  0  0  0  0  0
    3.5584    2.6335   11.1783 C   0  0  0  0  0  0  0  0  0  0  0  0
    3.1269    3.4578   10.1469 C   0  0  0  0  0  0  0  0  0  0  0  0
    1.7725    3.8115   10.0354 C   0  0  0  0  0  0  0  0  0  0  0  0
    1.3343    4.6941    8.8847 C   0  0  0  0  0  0  0  0  0  0  0  0
    2.0989    5.5193    8.3952 O   0  0  0  0  0  0  0  0  0  0  0  0
    0.0978    4.4815    8.4258 N   0  0  0  0  0  0  0  0  0  0  0  0
    0.8524    3.3384   11.0121 C   0  0  0  0  0  0  0  0  0  0  0  0
   -0.6224    3.7518   10.9890 C   0  0  0  0  0  0  0  0  0  0  0  0
    1.2991    2.5101   12.0360 C   0  0  0  0  0  0  0  0  0  0  0  0
   -0.5507   -0.8158   14.1957 C   0  0  0  0  0  0  0  0  0  0  0  0
   -1.9415   -1.0842   14.0609 C   0  0  0  0  0  0  0  0  0  0  0  0
   -2.7452   -0.3406   13.2070 O   0  0  0  0  0  0  0  0  0  0  0  0
   -2.1924    0.4470   12.1700 C   0  0  0  0  0  0  0  0  0  0  0  0
   -5.3457   -3.2510   13.5690 H   0  0  0  0  0  0  0  0  0  0  0  0
   -3.9598   -2.5660   12.6544 H   0  0  0  0  0  0  0  0  0  0  0  0
   -3.7555   -4.0859   13.5898 H   0  0  0  0  0  0  0  0  0  0  0  0
   -2.3277   -2.8230   14.0032 H   0  0  0  0  0  0  0  0  0  0  0  0
   -2.2097   -3.6619   16.2538 H   0  0  0  0  0  0  0  0  0  0  0  0
    0.1907   -3.2038   16.5037 H   0  0  0  0  0  0  0  0  0  0  0  0
    5.1431    1.9260   13.2480 H   0  0  0  0  0  0  0  0  0  0  0  0
    6.8317    0.8869   15.3010 H   0  0  0  0  0  0  0  0  0  0  0  0
    6.2582   -0.7724   17.3296 H   0  0  0  0  0  0  0  0  0  0  0  0
    4.6037    2.3719   11.2511 H   0  0  0  0  0  0  0  0  0  0  0  0
    3.8388    3.8297    9.4249 H   0  0  0  0  0  0  0  0  0  0  0  0
    1.6594    5.9795    7.6898 H   0  0  0  0  0  0  0  0  0  0  0  0
   -0.1192    5.0704    7.6473 H   0  0  0  0  0  0  0  0  0  0  0  0
   -1.1979    3.0262   10.3955 H   0  0  0  0  0  0  0  0  0  0  0  0
   -1.0125    3.7758   12.0172 H   0  0  0  0  0  0  0  0  0  0  0  0
   -0.7160    4.7507   10.5379 H   0  0  0  0  0  0  0  0  0  0  0  0
    0.5961    2.1488   12.7719 H   0  0  0  0  0  0  0  0  0  0  0  0
   -0.0882   -0.0311   13.6155 H   0  0  0  0  0  0  0  0  0  0  0  0
   -3.0014    0.9488   11.6189 H   0  0  0  0  0  0  0  0  0  0  0  0
   -1.5199    1.2025   12.6023 H   0  0  0  0  0  0  0  0  0  0  0  0
   -1.6256   -0.1979   11.4823 H   0  0  0  0  0  0  0  0  0  0  0  0
  1  2  1  0  0  0  0
  2  3  1  0  0  0  0
  3  4  1  0  0  0  0
  3 28  1  0  0  0  0
  4  5  2  0  0  0  0
  5  6  1  0  0  0  0
  6  7  2  0  0  0  0
  6 27  1  0  0  0  0
  7  8  1  0  0  0  0
  8  9  2  0  0  0  0
  8 16  1  0  0  0  0
  9 10  1  0  0  0  0
 10 11  2  0  0  0  0
 10 17  1  0  0  0  0
 11 12  1  0  0  0  0
 12 13  1  0  0  0  0
 12 16  1  0  0  0  0
 13 14  2  0  0  0  0
 14 15  1  0  0  0  0
 15 16  2  0  0  0  0
 17 18  2  0  0  0  0
 17 26  1  0  0  0  0
 18 19  1  0  0  0  0
 19 20  2  0  0  0  0
 20 21  1  0  0  0  0
 20 24  1  0  0  0  0
 21 22  1  0  0  0  0
 21 23  2  0  0  0  0
 24 25  1  0  0  0  0
 24 26  2  0  0  0  0
 27 28  2  0  0  0  0
 28 29  1  0  0  0  0
 29 30  1  0  0  0  0
  1 31  1  0  0  0  0
  1 32  1  0  0  0  0
  1 33  1  0  0  0  0
  3 34  1  0  0  0  0
  4 35  1  0  0  0  0
  5 36  1  0  0  0  0
 11 37  1  0  0  0  0
 13 38  1  0  0  0  0
 14 39  1  0  0  0  0
 18 40  1  0  0  0  0
 19 41  1  0  0  0  0
 22 42  1  0  0  0  0
 23 43  1  0  0  0  0
 25 44  1  0  0  0  0
 25 45  1  0  0  0  0
 25 46  1  0  0  0  0
 26 47  1  0  0  0  0
 27 48  1  0  0  0  0
 30 49  1  0  0  0  0
 30 50  1  0  0  0  0
 30 51  1  0  0  0  0
M  END
> <IC50[nM]>
64.1

$$$$
CHEMBL3265013
  -OEChem-05192314333D
 Structure written by MMmdl.
 51 54  0     0  0  0  0  0  0999 V2000
   -4.2553   -3.1063   13.5659 C   0  0  0  0  0  0  0  0  0  0  0  0
   -3.8742   -2.3531   14.7065 O   0  0  0  0  0  0  0  0  0  0  0  0
   -2.5276   -2.1063   14.8134 C   0  0  0  0  0  0  0  0  0  0  0  0
   -1.7534   -2.8662   15.6836 C   0  0  0  0  0  0  0  0  0  0  0  0
   -0.3974   -2.6067   15.8226 C   0  0  0  0  0  0  0  0  0  0  0  0
    0.2193   -1.5855   15.0957 C   0  0  0  0  0  0  0  0  0  0  0  0
    1.6033   -1.3619   15.3321 N   0  0  0  0  0  0  0  0  0  0  0  0
    2.5310   -0.4394   14.7826 C   0  0  0  0  0  0  0  0  0  0  0  0
    2.1681    0.3851   13.7534 N   0  0  0  0  0  0  0  0  0  0  0  0
    3.1084    1.2291   13.2323 C   0  0  0  0  0  0  0  0  0  0  0  0
    4.4111    1.2775   13.7062 C   0  0  0  0  0  0  0  0  0  0  0  0
    4.7446    0.4849   14.7663 N   0  0  0  0  0  0  0  0  0  0  0  0
    5.8943    0.3819   15.4817 C   0  0  0  0  0  0  0  0  0  0  0  0
    5.5914   -0.5326   16.5146 C   0  0  0  0  0  0  0  0  0  0  0  0
    4.3838   -1.0600   16.3570 N   0  0  0  0  0  0  0  0  0  0  0  0
    3.8360   -0.3910   15.3315 C   0  0  0  0  0  0  0  0  0  0  0  0
    2.6494    2.1359   12.1286 C   0  0  0  0  0  0  0  0  0  0  0  0
    3.5584    2.6335   11.1783 C   0  0  0  0  0  0  0  0  0  0  0  0
    3.1269    3.4578   10.1469 C   0  0  0  0  0  0  0  0  0  0  0  0
    1.7725    3.8115   10.0354 C   0  0  0  0  0  0  0  0  0  0  0  0
    1.3343    4.6941    8.8847 C   0  0  0  0  0  0  0  0  0  0  0  0
    2.0989    5.5193    8.3952 O   0  0  0  0  0  0  0  0  0  0  0  0
    0.0978    4.4815    8.4258 N   0  0  0  0  0  0  0  0  0  0  0  0
    0.8524    3.3384   11.0121 C   0  0  0  0  0  0  0  0  0  0  0  0
   -0.6224    3.7518   10.9890 C   0  0  0  0  0  0  0  0  0  0  0  0
    1.2991    2.5101   12.0360 C   0  0  0  0  0  0  0  0  0  0  0  0
   -0.5507   -0.8158   14.1957 C   0  0  0  0  0  0  0  0  0  0  0  0
   -1.9415   -1.0842   14.0609 C   0  0  0  0  0  0  0  0  0  0  0  0
   -2.7452   -0.3406   13.2070 O   0  0  0  0  0  0  0  0  0  0  0  0
   -2.1924    0.4470   12.1700 C   0  0  0  0  0  0  0  0  0  0  0  0
   -5.3457   -3.2510   13.5690 H   0  0  0  0  0  0  0  0  0  0  0  0
   -3.9598   -2.5660   12.6544 H   0  0  0  0  0  0  0  0  0  0  0  0
   -3.7555   -4.0859   13.5898 H   0  0  0  0  0  0  0  0  0  0  0  0
   -2.2097   -3.6619   16.2538 H   0  0  0  0  0  0  0  0  0  0  0  0
   -0.2304   -2.3783   16.8856 H   0  0  0  0  0  0  0  0  0  0  0  0
    0.1273   -3.5374   15.5607 H   0  0  0  0  0  0  0  0  0  0  0  0
    5.1431    1.9260   13.2480 H   0  0  0  0  0  0  0  0  0  0  0  0
    6.8317    0.8869   15.3010 H   0  0  0  0  0  0  0  0  0  0  0  0
    6.2582   -0.7724   17.3296 H   0  0  0  0  0  0  0  0  0  0  0  0
    4.6037    2.3719   11.2511 H   0  0  0  0  0  0  0  0  0  0  0  0
    3.8388    3.8297    9.4249 H   0  0  0  0  0  0  0  0  0  0  0  0
    1.6594    5.9795    7.6898 H   0  0  0  0  0  0  0  0  0  0  0  0
   -0.1192    5.0704    7.6473 H   0  0  0  0  0  0  0  0  0  0  0  0
   -1.1979    3.0262   10.3955 H   0  0  0  0  0  0  0  0  0  0  0  0
   -1.0125    3.7758   12.0172 H   0  0  0  0  0  0  0  0  0  0  0  0
   -0.7160    4.7507   10.5379 H   0  0  0  0  0  0  0  0  0  0  0  0
    0.5961    2.1488   12.7719 H   0  0  0  0  0  0  0  0  0  0  0  0
   -0.0882   -0.0311   13.6155 H   0  0  0  0  0  0  0  0  0  0  0  0
   -3.0014    0.9488   11.6189 H   0  0  0  0  0  0  0  0  0  0  0  0
   -1.5199    1.2025   12.6023 H   0  0  0  0  0  0  0  0  0  0  0  0
   -1.6256   -0.1979   11.4823 H   0  0  0  0  0  0  0  0  0  0  0  0
  1  2  1  0  0  0  0
  2  3  1  0  0  0  0
  3  4  2  0  0  0  0
  3 28  1  0  0  0  0
  4  5  1  0  0  0  0
  5  6  1  0  0  0  0
  6  7  2  0  0  0  0
  6 27  1  0  0  0  0
  7  8  1  0  0  0  0
  8  9  2  0  0  0  0
  8 16  1  0  0  0  0
  9 10  1  0  0  0  0
 10 11  2  0  0  0  0
 10 17  1  0  0  0  0
 11 12  1  0  0  0  0
 12 13  1  0  0  0  0
 12 16  1  0  0  0  0
 13 14  2  0  0  0  0
 14 15  1  0  0  0  0
 15 16  2  0  0  0  0
 17 18  2  0  0  0  0
 17 26  1  0  0  0  0
 18 19  1  0  0  0  0
 19 20  2  0  0  0  0
 20 21  1  0  0  0  0
 20 24  1  0  0  0  0
 21 22  1  0  0  0  0
 21 23  2  0  0  0  0
 24 25  1  0  0  0  0
 24 26  2  0  0  0  0
 27 28  2  0  0  0  0
 28 29  1  0  0  0  0
 29 30  1  0  0  0  0
  1 31  1  0  0  0  0
  1 32  1  0  0  0  0
  1 33  1  0  0  0  0
  4 34  1  0  0  0  0
  5 35  1  0  0  0  0
  5 36  1  0  0  0  0
 11 37  1  0  0  0  0
 13 38  1  0  0  0  0
 14 39  1  0  0  0  0
 18 40  1  0  0  0  0
 19 41  1  0  0  0  0
 22 42  1  0  0  0  0
 23 43  1  0  0  0  0
 25 44  1  0  0  0  0
 25 45  1  0  0  0  0
 25 46  1  0  0  0  0
 26 47  1  0  0  0  0
 27 48  1  0  0  0  0
 30 49  1  0  0  0  0
 30 50  1  0  0  0  0
 30 51  1  0  0  0  0
M  END
> <IC50[nM]>
64.1

$$$$
CHEMBL3265013
  -OEChem-05192314333D
 Structure written by MMmdl.
 51 54  0     0  0  0  0  0  0999 V2000
   -4.2553   -3.1063   13.5659 C   0  0  0  0  0  0  0  0  0  0  0  0
   -3.8742   -2.3531   14.7065 O   0  0  0  0  0  0  0  0  0  0  0  0
   -2.5276   -2.1063   14.8134 C   0  0  0  0  0  0  0  0  0  0  0  0
   -1.7534   -2.8662   15.6836 C   0  0  0  0  0  0  0  0  0  0  0  0
   -0.3974   -2.6067   15.8226 C   0  0  0  0  0  0  0  0  0  0  0  0
    0.2193   -1.5855   15.0957 C   0  0  0  0  0  0  0  0  0  0  0  0
    1.6033   -1.3619   15.3321 N   0  0  0  0  0  0  0  0  0  0  0  0
    2.5310   -0.4394   14.7826 C   0  0  0  0  0  0  0  0  0  0  0  0
    2.1681    0.3851   13.7534 N   0  0  0  0  0  0  0  0  0  0  0  0
    3.1084    1.2291   13.2323 C   0  0  0  0  0  0  0  0  0  0  0  0
    4.4111    1.2775   13.7062 C   0  0  0  0  0  0  0  0  0  0  0  0
    4.7446    0.4849   14.7663 N   0  0  0  0  0  0  0  0  0  0  0  0
    5.8943    0.3819   15.4817 C   0  0  0  0  0  0  0  0  0  0  0  0
    5.5914   -0.5326   16.5146 C   0  0  0  0  0  0  0  0  0  0  0  0
    4.3838   -1.0600   16.3570 N   0  0  0  0  0  0  0  0  0  0  0  0
    3.8360   -0.3910   15.3315 C   0  0  0  0  0  0  0  0  0  0  0  0
    2.6494    2.1359   12.1286 C   0  0  0  0  0  0  0  0  0  0  0  0
    3.5584    2.6335   11.1783 C   0  0  0  0  0  0  0  0  0  0  0  0
    3.1269    3.4578   10.1469 C   0  0  0  0  0  0  0  0  0  0  0  0
    1.7725    3.8115   10.0354 C   0  0  0  0  0  0  0  0  0  0  0  0
    1.3343    4.6941    8.8847 C   0  0  0  0  0  0  0  0  0  0  0  0
    2.0989    5.5193    8.3952 O   0  0  0  0  0  0  0  0  0  0  0  0
    0.0978    4.4815    8.4258 N   0  0  0  0  0  0  0  0  0  0  0  0
    0.8524    3.3384   11.0121 C   0  0  0  0  0  0  0  0  0  0  0  0
   -0.6224    3.7518   10.9890 C   0  0  0  0  0  0  0  0  0  0  0  0
    1.2991    2.5101   12.0360 C   0  0  0  0  0  0  0  0  0  0  0  0
   -0.5507   -0.8158   14.1957 C   0  0  0  0  0  0  0  0  0  0  0  0
   -1.9415   -1.0842   14.0609 C   0  0  0  0  0  0  0  0  0  0  0  0
   -2.7452   -0.3406   13.2070 O   0  0  0  0  0  0  0  0  0  0  0  0
   -2.1924    0.4470   12.1700 C   0  0  0  0  0  0  0  0  0  0  0  0
   -5.3457   -3.2510   13.5690 H   0  0  0  0  0  0  0  0  0  0  0  0
   -3.9598   -2.5660   12.6544 H   0  0  0  0  0  0  0  0  0  0  0  0
   -3.7555   -4.0859   13.5898 H   0  0  0  0  0  0  0  0  0  0  0  0
   -2.2097   -3.6619   16.2538 H   0  0  0  0  0  0  0  0  0  0  0  0
    0.1907   -3.2038   16.5037 H   0  0  0  0  0  0  0  0  0  0  0  0
    5.1431    1.9260   13.2480 H   0  0  0  0  0  0  0  0  0  0  0  0
    6.8317    0.8869   15.3010 H   0  0  0  0  0  0  0  0  0  0  0  0
    6.2582   -0.7724   17.3296 H   0  0  0  0  0  0  0  0  0  0  0  0
    4.6037    2.3719   11.2511 H   0  0  0  0  0  0  0  0  0  0  0  0
    3.8388    3.8297    9.4249 H   0  0  0  0  0  0  0  0  0  0  0  0
    1.6594    5.9795    7.6898 H   0  0  0  0  0  0  0  0  0  0  0  0
   -0.1192    5.0704    7.6473 H   0  0  0  0  0  0  0  0  0  0  0  0
   -1.1979    3.0262   10.3955 H   0  0  0  0  0  0  0  0  0  0  0  0
   -1.0125    3.7758   12.0172 H   0  0  0  0  0  0  0  0  0  0  0  0
   -0.7160    4.7507   10.5379 H   0  0  0  0  0  0  0  0  0  0  0  0
    0.5961    2.1488   12.7719 H   0  0  0  0  0  0  0  0  0  0  0  0
   -0.4558    0.2342   14.5094 H   0  0  0  0  0  0  0  0  0  0  0  0
   -0.1017   -0.9430   13.1996 H   0  0  0  0  0  0  0  0  0  0  0  0
   -3.0014    0.9488   11.6189 H   0  0  0  0  0  0  0  0  0  0  0  0
   -1.5199    1.2025   12.6023 H   0  0  0  0  0  0  0  0  0  0  0  0
   -1.6256   -0.1979   11.4823 H   0  0  0  0  0  0  0  0  0  0  0  0
  1  2  1  0  0  0  0
  2  3  1  0  0  0  0
  3  4  1  0  0  0  0
  3 28  2  0  0  0  0
  4  5  2  0  0  0  0
  5  6  1  0  0  0  0
  6  7  2  0  0  0  0
  6 27  1  0  0  0  0
  7  8  1  0  0  0  0
  8  9  2  0  0  0  0
  8 16  1  0  0  0  0
  9 10  1  0  0  0  0
 10 11  2  0  0  0  0
 10 17  1  0  0  0  0
 11 12  1  0  0  0  0
 12 13  1  0  0  0  0
 12 16  1  0  0  0  0
 13 14  2  0  0  0  0
 14 15  1  0  0  0  0
 15 16  2  0  0  0  0
 17 18  2  0  0  0  0
 17 26  1  0  0  0  0
 18 19  1  0  0  0  0
 19 20  2  0  0  0  0
 20 21  1  0  0  0  0
 20 24  1  0  0  0  0
 21 22  1  0  0  0  0
 21 23  2  0  0  0  0
 24 25  1  0  0  0  0
 24 26  2  0  0  0  0
 27 28  1  0  0  0  0
 28 29  1  0  0  0  0
 29 30  1  0  0  0  0
  1 31  1  0  0  0  0
  1 32  1  0  0  0  0
  1 33  1  0  0  0  0
  4 34  1  0  0  0  0
  5 35  1  0  0  0  0
 11 36  1  0  0  0  0
 13 37  1  0  0  0  0
 14 38  1  0  0  0  0
 18 39  1  0  0  0  0
 19 40  1  0  0  0  0
 22 41  1  0  0  0  0
 23 42  1  0  0  0  0
 25 43  1  0  0  0  0
 25 44  1  0  0  0  0
 25 45  1  0  0  0  0
 26 46  1  0  0  0  0
 27 47  1  0  0  0  0
 27 48  1  0  0  0  0
 30 49  1  0  0  0  0
 30 50  1  0  0  0  0
 30 51  1  0  0  0  0
M  END
> <IC50[nM]>
64.1

$$$$
