CHEMBL3265035
  -OEChem-05192314333D
 Structure written by MMmdl.
 51 55  0     1  0  0  0  0  0999 V2000
   -4.5368   -3.3612   15.6406 C   0  0  0  0  0  0  0  0  0  0  0  0
   -3.9561   -2.3810   14.7221 N   0  0  2  0  0  0  0  0  0  0  0  0
   -4.6759   -2.0519   13.4970 C   0  0  0  0  0  0  0  0  0  0  0  0
   -4.8094   -3.1968   12.4731 C   0  0  0  0  0  0  0  0  0  0  0  0
   -5.3909   -2.7945   11.2538 O   0  0  0  0  0  0  0  0  0  0  0  0
   -2.5380   -2.1167   14.8106 C   0  0  0  0  0  0  0  0  0  0  0  0
   -1.9279   -1.0927   14.0460 C   0  0  0  0  0  0  0  0  0  0  0  0
   -0.5515   -0.8247   14.1929 C   0  0  0  0  0  0  0  0  0  0  0  0
    0.2181   -1.5869   15.0916 C   0  0  0  0  0  0  0  0  0  0  0  0
    1.6005   -1.3598   15.3303 N   0  0  0  0  0  0  0  0  0  0  0  0
    2.5326   -0.4516   14.7667 C   0  0  0  0  0  0  0  0  0  0  0  0
    2.1715    0.3794   13.7341 N   0  0  0  0  0  0  0  0  0  0  0  0
    3.1060    1.2367   13.2184 C   0  0  0  0  0  0  0  0  0  0  0  0
    4.4145    1.2803   13.6968 C   0  0  0  0  0  0  0  0  0  0  0  0
    4.7440    0.4821   14.7570 N   0  0  0  0  0  0  0  0  0  0  0  0
    5.8987    0.3805   15.4839 C   0  0  0  0  0  0  0  0  0  0  0  0
    5.5936   -0.5339   16.5243 C   0  0  0  0  0  0  0  0  0  0  0  0
    4.3807   -1.0510   16.3702 N   0  0  0  0  0  0  0  0  0  0  0  0
    3.8367   -0.4037   15.3198 C   0  0  0  0  0  0  0  0  0  0  0  0
    2.6315    2.1595   12.1222 C   0  0  0  0  0  0  0  0  0  0  0  0
    3.5425    2.6427   11.1618 C   0  0  0  0  0  0  0  0  0  0  0  0
    3.1486    3.4642   10.1071 C   0  0  0  0  0  0  0  0  0  0  0  0
    1.8051    3.8185   10.0149 C   0  0  0  0  0  0  0  0  0  0  0  0
    0.9940    4.5977    9.1169 C   0  0  0  0  0  0  0  0  0  0  0  0
   -0.2465    4.6060    9.5156 N   0  0  0  0  0  0  0  0  0  0  0  0
   -0.3325    3.8910   10.6299 N   0  0  0  0  0  0  0  0  0  0  0  0
    0.8808    3.3589   10.9978 C   0  0  0  0  0  0  0  0  0  0  0  0
    1.2718    2.5352   12.0615 C   0  0  0  0  0  0  0  0  0  0  0  0
   -0.3941   -2.6060   15.8167 C   0  0  0  0  0  0  0  0  0  0  0  0
   -1.7488   -2.8660   15.6892 C   0  0  0  0  0  0  0  0  0  0  0  0
   -3.8716   -3.4917   16.5069 H   0  0  0  0  0  0  0  0  0  0  0  0
   -5.5195   -3.0051   15.9834 H   0  0  0  0  0  0  0  0  0  0  0  0
   -4.6562   -4.3238   15.1218 H   0  0  0  0  0  0  0  0  0  0  0  0
   -5.6894   -1.7286   13.7768 H   0  0  0  0  0  0  0  0  0  0  0  0
   -4.1478   -1.2204   13.0075 H   0  0  0  0  0  0  0  0  0  0  0  0
   -3.8061   -3.5970   12.2653 H   0  0  0  0  0  0  0  0  0  0  0  0
   -5.4353   -3.9869   12.9136 H   0  0  0  0  0  0  0  0  0  0  0  0
   -5.4459   -3.5399   10.6675 H   0  0  0  0  0  0  0  0  0  0  0  0
   -2.5180   -0.5160   13.3491 H   0  0  0  0  0  0  0  0  0  0  0  0
   -0.0889   -0.0366   13.6173 H   0  0  0  0  0  0  0  0  0  0  0  0
    1.9918   -1.9558   16.0315 H   0  0  0  0  0  0  0  0  0  0  0  0
    5.1493    1.9279   13.2417 H   0  0  0  0  0  0  0  0  0  0  0  0
    6.8364    0.8856   15.3048 H   0  0  0  0  0  0  0  0  0  0  0  0
    6.2618   -0.7780   17.3369 H   0  0  0  0  0  0  0  0  0  0  0  0
    4.5832    2.3665   11.2461 H   0  0  0  0  0  0  0  0  0  0  0  0
    3.8661    3.8165    9.3808 H   0  0  0  0  0  0  0  0  0  0  0  0
    1.3617    5.1041    8.2367 H   0  0  0  0  0  0  0  0  0  0  0  0
   -1.1805    3.7550   11.1422 H   0  0  0  0  0  0  0  0  0  0  0  0
    0.5625    2.2014   12.8044 H   0  0  0  0  0  0  0  0  0  0  0  0
    0.1988   -3.2054   16.4917 H   0  0  0  0  0  0  0  0  0  0  0  0
   -2.1996   -3.6545   16.2736 H   0  0  0  0  0  0  0  0  0  0  0  0
  1  2  1  0  0  0  0
  2  3  1  0  0  0  0
  2  6  1  0  0  0  0
  3  4  1  0  0  0  0
  4  5  1  0  0  0  0
  6  7  2  0  0  0  0
  6 30  1  0  0  0  0
  7  8  1  0  0  0  0
  8  9  2  0  0  0  0
  9 10  1  0  0  0  0
  9 29  1  0  0  0  0
 10 11  1  0  0  0  0
 11 12  2  0  0  0  0
 11 19  1  0  0  0  0
 12 13  1  0  0  0  0
 13 14  2  0  0  0  0
 13 20  1  0  0  0  0
 14 15  1  0  0  0  0
 15 16  1  0  0  0  0
 15 19  1  0  0  0  0
 16 17  2  0  0  0  0
 17 18  1  0  0  0  0
 18 19  2  0  0  0  0
 20 21  2  0  0  0  0
 20 28  1  0  0  0  0
 21 22  1  0  0  0  0
 22 23  2  0  0  0  0
 23 24  1  0  0  0  0
 23 27  1  0  0  0  0
 24 25  2  0  0  0  0
 25 26  1  0  0  0  0
 26 27  1  0  0  0  0
 27 28  2  0  0  0  0
 29 30  2  0  0  0  0
  1 31  1  0  0  0  0
  1 32  1  0  0  0  0
  1 33  1  0  0  0  0
  3 34  1  0  0  0  0
  3 35  1  0  0  0  0
  4 36  1  0  0  0  0
  4 37  1  0  0  0  0
  5 38  1  0  0  0  0
  7 39  1  0  0  0  0
  8 40  1  0  0  0  0
 10 41  1  0  0  0  0
 14 42  1  0  0  0  0
 16 43  1  0  0  0  0
 17 44  1  0  0  0  0
 21 45  1  0  0  0  0
 22 46  1  0  0  0  0
 24 47  1  0  0  0  0
 26 48  1  0  0  0  0
 28 49  1  0  0  0  0
 29 50  1  0  0  0  0
 30 51  1  0  0  0  0
M  END
> <IC50[nM]>
7.6

$$$$
CHEMBL3265035
  -OEChem-05192314333D
 Structure written by MMmdl.
 51 55  0     1  0  0  0  0  0999 V2000
   -4.5368   -3.3612   15.6406 C   0  0  0  0  0  0  0  0  0  0  0  0
   -3.9561   -2.3810   14.7221 N   0  0  2  0  0  0  0  0  0  0  0  0
   -4.6759   -2.0519   13.4970 C   0  0  0  0  0  0  0  0  0  0  0  0
   -4.8094   -3.1968   12.4731 C   0  0  0  0  0  0  0  0  0  0  0  0
   -5.3909   -2.7945   11.2538 O   0  0  0  0  0  0  0  0  0  0  0  0
   -2.5380   -2.1167   14.8106 C   0  0  0  0  0  0  0  0  0  0  0  0
   -1.9279   -1.0927   14.0460 C   0  0  0  0  0  0  0  0  0  0  0  0
   -0.5515   -0.8247   14.1929 C   0  0  0  0  0  0  0  0  0  0  0  0
    0.2181   -1.5869   15.0916 C   0  0  0  0  0  0  0  0  0  0  0  0
    1.6005   -1.3598   15.3303 N   0  0  0  0  0  0  0  0  0  0  0  0
    2.5326   -0.4516   14.7667 C   0  0  0  0  0  0  0  0  0  0  0  0
    2.1715    0.3794   13.7341 N   0  0  0  0  0  0  0  0  0  0  0  0
    3.1060    1.2367   13.2184 C   0  0  0  0  0  0  0  0  0  0  0  0
    4.4145    1.2803   13.6968 C   0  0  0  0  0  0  0  0  0  0  0  0
    4.7440    0.4821   14.7570 N   0  0  0  0  0  0  0  0  0  0  0  0
    5.8987    0.3805   15.4839 C   0  0  0  0  0  0  0  0  0  0  0  0
    5.5936   -0.5339   16.5243 C   0  0  0  0  0  0  0  0  0  0  0  0
    4.3807   -1.0510   16.3702 N   0  0  0  0  0  0  0  0  0  0  0  0
    3.8367   -0.4037   15.3198 C   0  0  0  0  0  0  0  0  0  0  0  0
    2.6315    2.1595   12.1222 C   0  0  0  0  0  0  0  0  0  0  0  0
    3.5425    2.6427   11.1618 C   0  0  0  0  0  0  0  0  0  0  0  0
    3.1486    3.4642   10.1071 C   0  0  0  0  0  0  0  0  0  0  0  0
    1.8051    3.8185   10.0149 C   0  0  0  0  0  0  0  0  0  0  0  0
    0.9940    4.5977    9.1169 C   0  0  0  0  0  0  0  0  0  0  0  0
   -0.2465    4.6060    9.5156 N   0  0  0  0  0  0  0  0  0  0  0  0
   -0.3325    3.8910   10.6299 N   0  0  0  0  0  0  0  0  0  0  0  0
    0.8808    3.3589   10.9978 C   0  0  0  0  0  0  0  0  0  0  0  0
    1.2718    2.5352   12.0615 C   0  0  0  0  0  0  0  0  0  0  0  0
   -0.3941   -2.6060   15.8167 C   0  0  0  0  0  0  0  0  0  0  0  0
   -1.7488   -2.8660   15.6892 C   0  0  0  0  0  0  0  0  0  0  0  0
   -3.8716   -3.4917   16.5069 H   0  0  0  0  0  0  0  0  0  0  0  0
   -5.5195   -3.0051   15.9834 H   0  0  0  0  0  0  0  0  0  0  0  0
   -4.6562   -4.3238   15.1218 H   0  0  0  0  0  0  0  0  0  0  0  0
   -5.6894   -1.7286   13.7768 H   0  0  0  0  0  0  0  0  0  0  0  0
   -4.1478   -1.2204   13.0075 H   0  0  0  0  0  0  0  0  0  0  0  0
   -3.8061   -3.5970   12.2653 H   0  0  0  0  0  0  0  0  0  0  0  0
   -5.4353   -3.9869   12.9136 H   0  0  0  0  0  0  0  0  0  0  0  0
   -5.4459   -3.5399   10.6675 H   0  0  0  0  0  0  0  0  0  0  0  0
   -2.5180   -0.5160   13.3491 H   0  0  0  0  0  0  0  0  0  0  0  0
   -0.0889   -0.0366   13.6173 H   0  0  0  0  0  0  0  0  0  0  0  0
    1.9918   -1.9558   16.0315 H   0  0  0  0  0  0  0  0  0  0  0  0
    5.1493    1.9279   13.2417 H   0  0  0  0  0  0  0  0  0  0  0  0
    6.8364    0.8856   15.3048 H   0  0  0  0  0  0  0  0  0  0  0  0
    6.2618   -0.7780   17.3369 H   0  0  0  0  0  0  0  0  0  0  0  0
    4.5832    2.3665   11.2461 H   0  0  0  0  0  0  0  0  0  0  0  0
    3.8661    3.8165    9.3808 H   0  0  0  0  0  0  0  0  0  0  0  0
    1.3617    5.1041    8.2367 H   0  0  0  0  0  0  0  0  0  0  0  0
   -1.0046    5.0720    9.0594 H   0  0  0  0  0  0  0  0  0  0  0  0
    0.5625    2.2014   12.8044 H   0  0  0  0  0  0  0  0  0  0  0  0
    0.1988   -3.2054   16.4917 H   0  0  0  0  0  0  0  0  0  0  0  0
   -2.1996   -3.6545   16.2736 H   0  0  0  0  0  0  0  0  0  0  0  0
  1  2  1  0  0  0  0
  2  3  1  0  0  0  0
  2  6  1  0  0  0  0
  3  4  1  0  0  0  0
  4  5  1  0  0  0  0
  6  7  2  0  0  0  0
  6 30  1  0  0  0  0
  7  8  1  0  0  0  0
  8  9  2  0  0  0  0
  9 10  1  0  0  0  0
  9 29  1  0  0  0  0
 10 11  1  0  0  0  0
 11 12  2  0  0  0  0
 11 19  1  0  0  0  0
 12 13  1  0  0  0  0
 13 14  2  0  0  0  0
 13 20  1  0  0  0  0
 14 15  1  0  0  0  0
 15 16  1  0  0  0  0
 15 19  1  0  0  0  0
 16 17  2  0  0  0  0
 17 18  1  0  0  0  0
 18 19  2  0  0  0  0
 20 21  1  0  0  0  0
 20 28  2  0  0  0  0
 21 22  2  0  0  0  0
 22 23  1  0  0  0  0
 23 24  2  0  0  0  0
 23 27  1  0  0  0  0
 24 25  1  0  0  0  0
 25 26  1  0  0  0  0
 26 27  2  0  0  0  0
 27 28  1  0  0  0  0
 29 30  2  0  0  0  0
  1 31  1  0  0  0  0
  1 32  1  0  0  0  0
  1 33  1  0  0  0  0
  3 34  1  0  0  0  0
  3 35  1  0  0  0  0
  4 36  1  0  0  0  0
  4 37  1  0  0  0  0
  5 38  1  0  0  0  0
  7 39  1  0  0  0  0
  8 40  1  0  0  0  0
 10 41  1  0  0  0  0
 14 42  1  0  0  0  0
 16 43  1  0  0  0  0
 17 44  1  0  0  0  0
 21 45  1  0  0  0  0
 22 46  1  0  0  0  0
 24 47  1  0  0  0  0
 25 48  1  0  0  0  0
 28 49  1  0  0  0  0
 29 50  1  0  0  0  0
 30 51  1  0  0  0  0
M  END
> <IC50[nM]>
7.6

$$$$
CHEMBL3265035
  -OEChem-05192314333D
 Structure written by MMmdl.
 51 55  0     1  0  0  0  0  0999 V2000
   -4.5368   -3.3612   15.6406 C   0  0  0  0  0  0  0  0  0  0  0  0
   -3.9561   -2.3810   14.7221 N   0  0  2  0  0  0  0  0  0  0  0  0
   -4.6759   -2.0519   13.4970 C   0  0  0  0  0  0  0  0  0  0  0  0
   -4.8094   -3.1968   12.4731 C   0  0  0  0  0  0  0  0  0  0  0  0
   -5.3909   -2.7945   11.2538 O   0  0  0  0  0  0  0  0  0  0  0  0
   -2.5380   -2.1167   14.8106 C   0  0  0  0  0  0  0  0  0  0  0  0
   -1.9279   -1.0927   14.0460 C   0  0  0  0  0  0  0  0  0  0  0  0
   -0.5515   -0.8247   14.1929 C   0  0  0  0  0  0  0  0  0  0  0  0
    0.2181   -1.5869   15.0916 C   0  0  0  0  0  0  0  0  0  0  0  0
    1.6005   -1.3598   15.3303 N   0  0  0  0  0  0  0  0  0  0  0  0
    2.5326   -0.4516   14.7667 C   0  0  0  0  0  0  0  0  0  0  0  0
    2.1715    0.3794   13.7341 N   0  0  0  0  0  0  0  0  0  0  0  0
    3.1060    1.2367   13.2184 C   0  0  0  0  0  0  0  0  0  0  0  0
    4.4145    1.2803   13.6968 C   0  0  0  0  0  0  0  0  0  0  0  0
    4.7440    0.4821   14.7570 N   0  0  0  0  0  0  0  0  0  0  0  0
    5.8987    0.3805   15.4839 C   0  0  0  0  0  0  0  0  0  0  0  0
    5.5936   -0.5339   16.5243 C   0  0  0  0  0  0  0  0  0  0  0  0
    4.3807   -1.0510   16.3702 N   0  0  0  0  0  0  0  0  0  0  0  0
    3.8367   -0.4037   15.3198 C   0  0  0  0  0  0  0  0  0  0  0  0
    2.6315    2.1595   12.1222 C   0  0  0  0  0  0  0  0  0  0  0  0
    3.5425    2.6427   11.1618 C   0  0  0  0  0  0  0  0  0  0  0  0
    3.1486    3.4642   10.1071 C   0  0  0  0  0  0  0  0  0  0  0  0
    1.8051    3.8185   10.0149 C   0  0  0  0  0  0  0  0  0  0  0  0
    0.9940    4.5977    9.1169 C   0  0  0  0  0  0  0  0  0  0  0  0
   -0.2465    4.6060    9.5156 N   0  0  0  0  0  0  0  0  0  0  0  0
   -0.3325    3.8910   10.6299 N   0  0  0  0  0  0  0  0  0  0  0  0
    0.8808    3.3589   10.9978 C   0  0  0  0  0  0  0  0  0  0  0  0
    1.2718    2.5352   12.0615 C   0  0  0  0  0  0  0  0  0  0  0  0
   -0.3941   -2.6060   15.8167 C   0  0  0  0  0  0  0  0  0  0  0  0
   -1.7488   -2.8660   15.6892 C   0  0  0  0  0  0  0  0  0  0  0  0
   -3.8716   -3.4917   16.5069 H   0  0  0  0  0  0  0  0  0  0  0  0
   -5.5195   -3.0051   15.9834 H   0  0  0  0  0  0  0  0  0  0  0  0
   -4.6562   -4.3238   15.1218 H   0  0  0  0  0  0  0  0  0  0  0  0
   -5.6894   -1.7286   13.7768 H   0  0  0  0  0  0  0  0  0  0  0  0
   -4.1478   -1.2204   13.0075 H   0  0  0  0  0  0  0  0  0  0  0  0
   -3.8061   -3.5970   12.2653 H   0  0  0  0  0  0  0  0  0  0  0  0
   -5.4353   -3.9869   12.9136 H   0  0  0  0  0  0  0  0  0  0  0  0
   -5.4459   -3.5399   10.6675 H   0  0  0  0  0  0  0  0  0  0  0  0
   -2.5180   -0.5160   13.3491 H   0  0  0  0  0  0  0  0  0  0  0  0
   -0.0889   -0.0366   13.6173 H   0  0  0  0  0  0  0  0  0  0  0  0
    1.2421    0.3585   13.3655 H   0  0  0  0  0  0  0  0  0  0  0  0
    5.1493    1.9279   13.2417 H   0  0  0  0  0  0  0  0  0  0  0  0
    6.8364    0.8856   15.3048 H   0  0  0  0  0  0  0  0  0  0  0  0
    6.2618   -0.7780   17.3369 H   0  0  0  0  0  0  0  0  0  0  0  0
    4.5832    2.3665   11.2461 H   0  0  0  0  0  0  0  0  0  0  0  0
    3.8661    3.8165    9.3808 H   0  0  0  0  0  0  0  0  0  0  0  0
    1.3617    5.1041    8.2367 H   0  0  0  0  0  0  0  0  0  0  0  0
   -1.1805    3.7550   11.1422 H   0  0  0  0  0  0  0  0  0  0  0  0
    0.5625    2.2014   12.8044 H   0  0  0  0  0  0  0  0  0  0  0  0
    0.1988   -3.2054   16.4917 H   0  0  0  0  0  0  0  0  0  0  0  0
   -2.1996   -3.6545   16.2736 H   0  0  0  0  0  0  0  0  0  0  0  0
  1  2  1  0  0  0  0
  2  3  1  0  0  0  0
  2  6  1  0  0  0  0
  3  4  1  0  0  0  0
  4  5  1  0  0  0  0
  6  7  2  0  0  0  0
  6 30  1  0  0  0  0
  7  8  1  0  0  0  0
  8  9  2  0  0  0  0
  9 10  1  0  0  0  0
  9 29  1  0  0  0  0
 10 11  2  0  0  0  0
 11 12  1  0  0  0  0
 11 19  1  0  0  0  0
 12 13  1  0  0  0  0
 13 14  2  0  0  0  0
 13 20  1  0  0  0  0
 14 15  1  0  0  0  0
 15 16  1  0  0  0  0
 15 19  1  0  0  0  0
 16 17  2  0  0  0  0
 17 18  1  0  0  0  0
 18 19  2  0  0  0  0
 20 21  2  0  0  0  0
 20 28  1  0  0  0  0
 21 22  1  0  0  0  0
 22 23  2  0  0  0  0
 23 24  1  0  0  0  0
 23 27  1  0  0  0  0
 24 25  2  0  0  0  0
 25 26  1  0  0  0  0
 26 27  1  0  0  0  0
 27 28  2  0  0  0  0
 29 30  2  0  0  0  0
  1 31  1  0  0  0  0
  1 32  1  0  0  0  0
  1 33  1  0  0  0  0
  3 34  1  0  0  0  0
  3 35  1  0  0  0  0
  4 36  1  0  0  0  0
  4 37  1  0  0  0  0
  5 38  1  0  0  0  0
  7 39  1  0  0  0  0
  8 40  1  0  0  0  0
 12 41  1  0  0  0  0
 14 42  1  0  0  0  0
 16 43  1  0  0  0  0
 17 44  1  0  0  0  0
 21 45  1  0  0  0  0
 22 46  1  0  0  0  0
 24 47  1  0  0  0  0
 26 48  1  0  0  0  0
 28 49  1  0  0  0  0
 29 50  1  0  0  0  0
 30 51  1  0  0  0  0
M  END
> <IC50[nM]>
7.6

$$$$
CHEMBL3265035
  -OEChem-05192314333D
 Structure written by MMmdl.
 51 55  0     1  0  0  0  0  0999 V2000
   -4.5368   -3.3612   15.6406 C   0  0  0  0  0  0  0  0  0  0  0  0
   -3.9561   -2.3810   14.7221 N   0  0  2  0  0  0  0  0  0  0  0  0
   -4.6759   -2.0519   13.4970 C   0  0  0  0  0  0  0  0  0  0  0  0
   -4.8094   -3.1968   12.4731 C   0  0  0  0  0  0  0  0  0  0  0  0
   -5.3909   -2.7945   11.2538 O   0  0  0  0  0  0  0  0  0  0  0  0
   -2.5380   -2.1167   14.8106 C   0  0  0  0  0  0  0  0  0  0  0  0
   -1.9279   -1.0927   14.0460 C   0  0  0  0  0  0  0  0  0  0  0  0
   -0.5515   -0.8247   14.1929 C   0  0  0  0  0  0  0  0  0  0  0  0
    0.2181   -1.5869   15.0916 C   0  0  0  0  0  0  0  0  0  0  0  0
    1.6005   -1.3598   15.3303 N   0  0  0  0  0  0  0  0  0  0  0  0
    2.5326   -0.4516   14.7667 C   0  0  0  0  0  0  0  0  0  0  0  0
    2.1715    0.3794   13.7341 N   0  0  0  0  0  0  0  0  0  0  0  0
    3.1060    1.2367   13.2184 C   0  0  0  0  0  0  0  0  0  0  0  0
    4.4145    1.2803   13.6968 C   0  0  0  0  0  0  0  0  0  0  0  0
    4.7440    0.4821   14.7570 N   0  0  0  0  0  0  0  0  0  0  0  0
    5.8987    0.3805   15.4839 C   0  0  0  0  0  0  0  0  0  0  0  0
    5.5936   -0.5339   16.5243 C   0  0  0  0  0  0  0  0  0  0  0  0
    4.3807   -1.0510   16.3702 N   0  0  0  0  0  0  0  0  0  0  0  0
    3.8367   -0.4037   15.3198 C   0  0  0  0  0  0  0  0  0  0  0  0
    2.6315    2.1595   12.1222 C   0  0  0  0  0  0  0  0  0  0  0  0
    3.5425    2.6427   11.1618 C   0  0  0  0  0  0  0  0  0  0  0  0
    3.1486    3.4642   10.1071 C   0  0  0  0  0  0  0  0  0  0  0  0
    1.8051    3.8185   10.0149 C   0  0  0  0  0  0  0  0  0  0  0  0
    0.9940    4.5977    9.1169 C   0  0  0  0  0  0  0  0  0  0  0  0
   -0.2465    4.6060    9.5156 N   0  0  0  0  0  0  0  0  0  0  0  0
   -0.3325    3.8910   10.6299 N   0  0  0  0  0  0  0  0  0  0  0  0
    0.8808    3.3589   10.9978 C   0  0  0  0  0  0  0  0  0  0  0  0
    1.2718    2.5352   12.0615 C   0  0  0  0  0  0  0  0  0  0  0  0
   -0.3941   -2.6060   15.8167 C   0  0  0  0  0  0  0  0  0  0  0  0
   -1.7488   -2.8660   15.6892 C   0  0  0  0  0  0  0  0  0  0  0  0
   -3.8716   -3.4917   16.5069 H   0  0  0  0  0  0  0  0  0  0  0  0
   -5.5195   -3.0051   15.9834 H   0  0  0  0  0  0  0  0  0  0  0  0
   -4.6562   -4.3238   15.1218 H   0  0  0  0  0  0  0  0  0  0  0  0
   -5.6894   -1.7286   13.7768 H   0  0  0  0  0  0  0  0  0  0  0  0
   -4.1478   -1.2204   13.0075 H   0  0  0  0  0  0  0  0  0  0  0  0
   -3.8061   -3.5970   12.2653 H   0  0  0  0  0  0  0  0  0  0  0  0
   -5.4353   -3.9869   12.9136 H   0  0  0  0  0  0  0  0  0  0  0  0
   -5.4459   -3.5399   10.6675 H   0  0  0  0  0  0  0  0  0  0  0  0
   -2.5180   -0.5160   13.3491 H   0  0  0  0  0  0  0  0  0  0  0  0
   -0.0889   -0.0366   13.6173 H   0  0  0  0  0  0  0  0  0  0  0  0
    1.2421    0.3585   13.3655 H   0  0  0  0  0  0  0  0  0  0  0  0
    5.1493    1.9279   13.2417 H   0  0  0  0  0  0  0  0  0  0  0  0
    6.8364    0.8856   15.3048 H   0  0  0  0  0  0  0  0  0  0  0  0
    6.2618   -0.7780   17.3369 H   0  0  0  0  0  0  0  0  0  0  0  0
    4.5832    2.3665   11.2461 H   0  0  0  0  0  0  0  0  0  0  0  0
    3.8661    3.8165    9.3808 H   0  0  0  0  0  0  0  0  0  0  0  0
    1.3617    5.1041    8.2367 H   0  0  0  0  0  0  0  0  0  0  0  0
   -1.0046    5.0720    9.0594 H   0  0  0  0  0  0  0  0  0  0  0  0
    0.5625    2.2014   12.8044 H   0  0  0  0  0  0  0  0  0  0  0  0
    0.1988   -3.2054   16.4917 H   0  0  0  0  0  0  0  0  0  0  0  0
   -2.1996   -3.6545   16.2736 H   0  0  0  0  0  0  0  0  0  0  0  0
  1  2  1  0  0  0  0
  2  3  1  0  0  0  0
  2  6  1  0  0  0  0
  3  4  1  0  0  0  0
  4  5  1  0  0  0  0
  6  7  2  0  0  0  0
  6 30  1  0  0  0  0
  7  8  1  0  0  0  0
  8  9  2  0  0  0  0
  9 10  1  0  0  0  0
  9 29  1  0  0  0  0
 10 11  2  0  0  0  0
 11 12  1  0  0  0  0
 11 19  1  0  0  0  0
 12 13  1  0  0  0  0
 13 14  2  0  0  0  0
 13 20  1  0  0  0  0
 14 15  1  0  0  0  0
 15 16  1  0  0  0  0
 15 19  1  0  0  0  0
 16 17  2  0  0  0  0
 17 18  1  0  0  0  0
 18 19  2  0  0  0  0
 20 21  1  0  0  0  0
 20 28  2  0  0  0  0
 21 22  2  0  0  0  0
 22 23  1  0  0  0  0
 23 24  2  0  0  0  0
 23 27  1  0  0  0  0
 24 25  1  0  0  0  0
 25 26  1  0  0  0  0
 26 27  2  0  0  0  0
 27 28  1  0  0  0  0
 29 30  2  0  0  0  0
  1 31  1  0  0  0  0
  1 32  1  0  0  0  0
  1 33  1  0  0  0  0
  3 34  1  0  0  0  0
  3 35  1  0  0  0  0
  4 36  1  0  0  0  0
  4 37  1  0  0  0  0
  5 38  1  0  0  0  0
  7 39  1  0  0  0  0
  8 40  1  0  0  0  0
 12 41  1  0  0  0  0
 14 42  1  0  0  0  0
 16 43  1  0  0  0  0
 17 44  1  0  0  0  0
 21 45  1  0  0  0  0
 22 46  1  0  0  0  0
 24 47  1  0  0  0  0
 25 48  1  0  0  0  0
 28 49  1  0  0  0  0
 29 50  1  0  0  0  0
 30 51  1  0  0  0  0
M  END
> <IC50[nM]>
7.6

$$$$
CHEMBL3265035
  -OEChem-05192314333D
 Structure written by MMmdl.
 51 55  0     1  0  0  0  0  0999 V2000
   -4.5368   -3.3612   15.6406 C   0  0  0  0  0  0  0  0  0  0  0  0
   -3.9561   -2.3810   14.7221 N   0  0  2  0  0  0  0  0  0  0  0  0
   -4.6759   -2.0519   13.4970 C   0  0  0  0  0  0  0  0  0  0  0  0
   -4.8094   -3.1968   12.4731 C   0  0  0  0  0  0  0  0  0  0  0  0
   -5.3909   -2.7945   11.2538 O   0  0  0  0  0  0  0  0  0  0  0  0
   -2.5380   -2.1167   14.8106 C   0  0  0  0  0  0  0  0  0  0  0  0
   -1.9279   -1.0927   14.0460 C   0  0  0  0  0  0  0  0  0  0  0  0
   -0.5515   -0.8247   14.1929 C   0  0  0  0  0  0  0  0  0  0  0  0
    0.2181   -1.5869   15.0916 C   0  0  0  0  0  0  0  0  0  0  0  0
    1.6005   -1.3598   15.3303 N   0  0  0  0  0  0  0  0  0  0  0  0
    2.5326   -0.4516   14.7667 C   0  0  0  0  0  0  0  0  0  0  0  0
    2.1715    0.3794   13.7341 N   0  0  0  0  0  0  0  0  0  0  0  0
    3.1060    1.2367   13.2184 C   0  0  0  0  0  0  0  0  0  0  0  0
    4.4145    1.2803   13.6968 C   0  0  0  0  0  0  0  0  0  0  0  0
    4.7440    0.4821   14.7570 N   0  0  0  0  0  0  0  0  0  0  0  0
    5.8987    0.3805   15.4839 C   0  0  0  0  0  0  0  0  0  0  0  0
    5.5936   -0.5339   16.5243 C   0  0  0  0  0  0  0  0  0  0  0  0
    4.3807   -1.0510   16.3702 N   0  0  0  0  0  0  0  0  0  0  0  0
    3.8367   -0.4037   15.3198 C   0  0  0  0  0  0  0  0  0  0  0  0
    2.6315    2.1595   12.1222 C   0  0  0  0  0  0  0  0  0  0  0  0
    3.5425    2.6427   11.1618 C   0  0  0  0  0  0  0  0  0  0  0  0
    3.1486    3.4642   10.1071 C   0  0  0  0  0  0  0  0  0  0  0  0
    1.8051    3.8185   10.0149 C   0  0  0  0  0  0  0  0  0  0  0  0
    0.9940    4.5977    9.1169 C   0  0  0  0  0  0  0  0  0  0  0  0
   -0.2465    4.6060    9.5156 N   0  0  0  0  0  0  0  0  0  0  0  0
   -0.3325    3.8910   10.6299 N   0  0  0  0  0  0  0  0  0  0  0  0
    0.8808    3.3589   10.9978 C   0  0  0  0  0  0  0  0  0  0  0  0
    1.2718    2.5352   12.0615 C   0  0  0  0  0  0  0  0  0  0  0  0
   -0.3941   -2.6060   15.8167 C   0  0  0  0  0  0  0  0  0  0  0  0
   -1.7488   -2.8660   15.6892 C   0  0  0  0  0  0  0  0  0  0  0  0
   -3.8716   -3.4917   16.5069 H   0  0  0  0  0  0  0  0  0  0  0  0
   -5.5195   -3.0051   15.9834 H   0  0  0  0  0  0  0  0  0  0  0  0
   -4.6562   -4.3238   15.1218 H   0  0  0  0  0  0  0  0  0  0  0  0
   -5.6894   -1.7286   13.7768 H   0  0  0  0  0  0  0  0  0  0  0  0
   -4.1478   -1.2204   13.0075 H   0  0  0  0  0  0  0  0  0  0  0  0
   -3.8061   -3.5970   12.2653 H   0  0  0  0  0  0  0  0  0  0  0  0
   -5.4353   -3.9869   12.9136 H   0  0  0  0  0  0  0  0  0  0  0  0
   -5.4459   -3.5399   10.6675 H   0  0  0  0  0  0  0  0  0  0  0  0
   -2.5180   -0.5160   13.3491 H   0  0  0  0  0  0  0  0  0  0  0  0
   -0.0889   -0.0366   13.6173 H   0  0  0  0  0  0  0  0  0  0  0  0
    1.9918   -1.9558   16.0315 H   0  0  0  0  0  0  0  0  0  0  0  0
    5.1493    1.9279   13.2417 H   0  0  0  0  0  0  0  0  0  0  0  0
    6.8364    0.8856   15.3048 H   0  0  0  0  0  0  0  0  0  0  0  0
    6.2618   -0.7780   17.3369 H   0  0  0  0  0  0  0  0  0  0  0  0
    4.5832    2.3665   11.2461 H   0  0  0  0  0  0  0  0  0  0  0  0
    3.8661    3.8165    9.3808 H   0  0  0  0  0  0  0  0  0  0  0  0
    1.3728    5.6301    9.0899 H   0  0  0  0  0  0  0  0  0  0  0  0
    1.0476    4.1609    8.1088 H   0  0  0  0  0  0  0  0  0  0  0  0
    0.5625    2.2014   12.8044 H   0  0  0  0  0  0  0  0  0  0  0  0
    0.1988   -3.2054   16.4917 H   0  0  0  0  0  0  0  0  0  0  0  0
   -2.1996   -3.6545   16.2736 H   0  0  0  0  0  0  0  0  0  0  0  0
  1  2  1  0  0  0  0
  2  3  1  0  0  0  0
  2  6  1  0  0  0  0
  3  4  1  0  0  0  0
  4  5  1  0  0  0  0
  6  7  2  0  0  0  0
  6 30  1  0  0  0  0
  7  8  1  0  0  0  0
  8  9  2  0  0  0  0
  9 10  1  0  0  0  0
  9 29  1  0  0  0  0
 10 11  1  0  0  0  0
 11 12  2  0  0  0  0
 11 19  1  0  0  0  0
 12 13  1  0  0  0  0
 13 14  2  0  0  0  0
 13 20  1  0  0  0  0
 14 15  1  0  0  0  0
 15 16  1  0  0  0  0
 15 19  1  0  0  0  0
 16 17  2  0  0  0  0
 17 18  1  0  0  0  0
 18 19  2  0  0  0  0
 20 21  2  0  0  0  0
 20 28  1  0  0  0  0
 21 22  1  0  0  0  0
 22 23  2  0  0  0  0
 23 24  1  0  0  0  0
 23 27  1  0  0  0  0
 24 25  1  0  0  0  0
 25 26  2  0  0  0  0
 26 27  1  0  0  0  0
 27 28  2  0  0  0  0
 29 30  2  0  0  0  0
  1 31  1  0  0  0  0
  1 32  1  0  0  0  0
  1 33  1  0  0  0  0
  3 34  1  0  0  0  0
  3 35  1  0  0  0  0
  4 36  1  0  0  0  0
  4 37  1  0  0  0  0
  5 38  1  0  0  0  0
  7 39  1  0  0  0  0
  8 40  1  0  0  0  0
 10 41  1  0  0  0  0
 14 42  1  0  0  0  0
 16 43  1  0  0  0  0
 17 44  1  0  0  0  0
 21 45  1  0  0  0  0
 22 46  1  0  0  0  0
 24 47  1  0  0  0  0
 24 48  1  0  0  0  0
 28 49  1  0  0  0  0
 29 50  1  0  0  0  0
 30 51  1  0  0  0  0
M  END
> <IC50[nM]>
7.6

$$$$
CHEMBL3265035
  -OEChem-05192314333D
 Structure written by MMmdl.
 51 55  0     1  0  0  0  0  0999 V2000
   -4.5368   -3.3612   15.6406 C   0  0  0  0  0  0  0  0  0  0  0  0
   -3.9561   -2.3810   14.7221 N   0  0  2  0  0  0  0  0  0  0  0  0
   -4.6759   -2.0519   13.4970 C   0  0  0  0  0  0  0  0  0  0  0  0
   -4.8094   -3.1968   12.4731 C   0  0  0  0  0  0  0  0  0  0  0  0
   -5.3909   -2.7945   11.2538 O   0  0  0  0  0  0  0  0  0  0  0  0
   -2.5380   -2.1167   14.8106 C   0  0  0  0  0  0  0  0  0  0  0  0
   -1.9279   -1.0927   14.0460 C   0  0  0  0  0  0  0  0  0  0  0  0
   -0.5515   -0.8247   14.1929 C   0  0  0  0  0  0  0  0  0  0  0  0
    0.2181   -1.5869   15.0916 C   0  0  0  0  0  0  0  0  0  0  0  0
    1.6005   -1.3598   15.3303 N   0  0  0  0  0  0  0  0  0  0  0  0
    2.5326   -0.4516   14.7667 C   0  0  0  0  0  0  0  0  0  0  0  0
    2.1715    0.3794   13.7341 N   0  0  0  0  0  0  0  0  0  0  0  0
    3.1060    1.2367   13.2184 C   0  0  0  0  0  0  0  0  0  0  0  0
    4.4145    1.2803   13.6968 C   0  0  0  0  0  0  0  0  0  0  0  0
    4.7440    0.4821   14.7570 N   0  0  0  0  0  0  0  0  0  0  0  0
    5.8987    0.3805   15.4839 C   0  0  0  0  0  0  0  0  0  0  0  0
    5.5936   -0.5339   16.5243 C   0  0  0  0  0  0  0  0  0  0  0  0
    4.3807   -1.0510   16.3702 N   0  0  0  0  0  0  0  0  0  0  0  0
    3.8367   -0.4037   15.3198 C   0  0  0  0  0  0  0  0  0  0  0  0
    2.6315    2.1595   12.1222 C   0  0  0  0  0  0  0  0  0  0  0  0
    3.5425    2.6427   11.1618 C   0  0  0  0  0  0  0  0  0  0  0  0
    3.1486    3.4642   10.1071 C   0  0  0  0  0  0  0  0  0  0  0  0
    1.8051    3.8185   10.0149 C   0  0  0  0  0  0  0  0  0  0  0  0
    0.9940    4.5977    9.1169 C   0  0  0  0  0  0  0  0  0  0  0  0
   -0.2465    4.6060    9.5156 N   0  0  0  0  0  0  0  0  0  0  0  0
   -0.3325    3.8910   10.6299 N   0  0  0  0  0  0  0  0  0  0  0  0
    0.8808    3.3589   10.9978 C   0  0  0  0  0  0  0  0  0  0  0  0
    1.2718    2.5352   12.0615 C   0  0  0  0  0  0  0  0  0  0  0  0
   -0.3941   -2.6060   15.8167 C   0  0  0  0  0  0  0  0  0  0  0  0
   -1.7488   -2.8660   15.6892 C   0  0  0  0  0  0  0  0  0  0  0  0
   -3.8716   -3.4917   16.5069 H   0  0  0  0  0  0  0  0  0  0  0  0
   -5.5195   -3.0051   15.9834 H   0  0  0  0  0  0  0  0  0  0  0  0
   -4.6562   -4.3238   15.1218 H   0  0  0  0  0  0  0  0  0  0  0  0
   -5.6894   -1.7286   13.7768 H   0  0  0  0  0  0  0  0  0  0  0  0
   -4.1478   -1.2204   13.0075 H   0  0  0  0  0  0  0  0  0  0  0  0
   -3.8061   -3.5970   12.2653 H   0  0  0  0  0  0  0  0  0  0  0  0
   -5.4353   -3.9869   12.9136 H   0  0  0  0  0  0  0  0  0  0  0  0
   -5.4459   -3.5399   10.6675 H   0  0  0  0  0  0  0  0  0  0  0  0
   -2.5180   -0.5160   13.3491 H   0  0  0  0  0  0  0  0  0  0  0  0
   -0.0889   -0.0366   13.6173 H   0  0  0  0  0  0  0  0  0  0  0  0
    1.2421    0.3585   13.3655 H   0  0  0  0  0  0  0  0  0  0  0  0
    5.1493    1.9279   13.2417 H   0  0  0  0  0  0  0  0  0  0  0  0
    6.8364    0.8856   15.3048 H   0  0  0  0  0  0  0  0  0  0  0  0
    6.2618   -0.7780   17.3369 H   0  0  0  0  0  0  0  0  0  0  0  0
    4.5832    2.3665   11.2461 H   0  0  0  0  0  0  0  0  0  0  0  0
    3.8661    3.8165    9.3808 H   0  0  0  0  0  0  0  0  0  0  0  0
    1.3728    5.6301    9.0899 H   0  0  0  0  0  0  0  0  0  0  0  0
    1.0476    4.1609    8.1088 H   0  0  0  0  0  0  0  0  0  0  0  0
    0.5625    2.2014   12.8044 H   0  0  0  0  0  0  0  0  0  0  0  0
    0.1988   -3.2054   16.4917 H   0  0  0  0  0  0  0  0  0  0  0  0
   -2.1996   -3.6545   16.2736 H   0  0  0  0  0  0  0  0  0  0  0  0
  1  2  1  0  0  0  0
  2  3  1  0  0  0  0
  2  6  1  0  0  0  0
  3  4  1  0  0  0  0
  4  5  1  0  0  0  0
  6  7  2  0  0  0  0
  6 30  1  0  0  0  0
  7  8  1  0  0  0  0
  8  9  2  0  0  0  0
  9 10  1  0  0  0  0
  9 29  1  0  0  0  0
 10 11  2  0  0  0  0
 11 12  1  0  0  0  0
 11 19  1  0  0  0  0
 12 13  1  0  0  0  0
 13 14  2  0  0  0  0
 13 20  1  0  0  0  0
 14 15  1  0  0  0  0
 15 16  1  0  0  0  0
 15 19  1  0  0  0  0
 16 17  2  0  0  0  0
 17 18  1  0  0  0  0
 18 19  2  0  0  0  0
 20 21  2  0  0  0  0
 20 28  1  0  0  0  0
 21 22  1  0  0  0  0
 22 23  2  0  0  0  0
 23 24  1  0  0  0  0
 23 27  1  0  0  0  0
 24 25  1  0  0  0  0
 25 26  2  0  0  0  0
 26 27  1  0  0  0  0
 27 28  2  0  0  0  0
 29 30  2  0  0  0  0
  1 31  1  0  0  0  0
  1 32  1  0  0  0  0
  1 33  1  0  0  0  0
  3 34  1  0  0  0  0
  3 35  1  0  0  0  0
  4 36  1  0  0  0  0
  4 37  1  0  0  0  0
  5 38  1  0  0  0  0
  7 39  1  0  0  0  0
  8 40  1  0  0  0  0
 12 41  1  0  0  0  0
 14 42  1  0  0  0  0
 16 43  1  0  0  0  0
 17 44  1  0  0  0  0
 21 45  1  0  0  0  0
 22 46  1  0  0  0  0
 24 47  1  0  0  0  0
 24 48  1  0  0  0  0
 28 49  1  0  0  0  0
 29 50  1  0  0  0  0
 30 51  1  0  0  0  0
M  END
> <IC50[nM]>
7.6

$$$$
CHEMBL3265035
  -OEChem-05192314333D
 Structure written by MMmdl.
 51 55  0     1  0  0  0  0  0999 V2000
   -4.5368   -3.3612   15.6406 C   0  0  0  0  0  0  0  0  0  0  0  0
   -3.9561   -2.3810   14.7221 N   0  0  2  0  0  0  0  0  0  0  0  0
   -4.6759   -2.0519   13.4970 C   0  0  0  0  0  0  0  0  0  0  0  0
   -4.8094   -3.1968   12.4731 C   0  0  0  0  0  0  0  0  0  0  0  0
   -5.3909   -2.7945   11.2538 O   0  0  0  0  0  0  0  0  0  0  0  0
   -2.5380   -2.1167   14.8106 C   0  0  0  0  0  0  0  0  0  0  0  0
   -1.9279   -1.0927   14.0460 C   0  0  0  0  0  0  0  0  0  0  0  0
   -0.5515   -0.8247   14.1929 C   0  0  0  0  0  0  0  0  0  0  0  0
    0.2181   -1.5869   15.0916 C   0  0  0  0  0  0  0  0  0  0  0  0
    1.6005   -1.3598   15.3303 N   0  0  0  0  0  0  0  0  0  0  0  0
    2.5326   -0.4516   14.7667 C   0  0  0  0  0  0  0  0  0  0  0  0
    2.1715    0.3794   13.7341 N   0  0  0  0  0  0  0  0  0  0  0  0
    3.1060    1.2367   13.2184 C   0  0  0  0  0  0  0  0  0  0  0  0
    4.4145    1.2803   13.6968 C   0  0  0  0  0  0  0  0  0  0  0  0
    4.7440    0.4821   14.7570 N   0  0  0  0  0  0  0  0  0  0  0  0
    5.8987    0.3805   15.4839 C   0  0  0  0  0  0  0  0  0  0  0  0
    5.5936   -0.5339   16.5243 C   0  0  0  0  0  0  0  0  0  0  0  0
    4.3807   -1.0510   16.3702 N   0  0  0  0  0  0  0  0  0  0  0  0
    3.8367   -0.4037   15.3198 C   0  0  0  0  0  0  0  0  0  0  0  0
    2.6315    2.1595   12.1222 C   0  0  0  0  0  0  0  0  0  0  0  0
    3.5425    2.6427   11.1618 C   0  0  0  0  0  0  0  0  0  0  0  0
    3.1486    3.4642   10.1071 C   0  0  0  0  0  0  0  0  0  0  0  0
    1.8051    3.8185   10.0149 C   0  0  0  0  0  0  0  0  0  0  0  0
    0.9940    4.5977    9.1169 C   0  0  0  0  0  0  0  0  0  0  0  0
   -0.2465    4.6060    9.5156 N   0  0  0  0  0  0  0  0  0  0  0  0
   -0.3325    3.8910   10.6299 N   0  0  0  0  0  0  0  0  0  0  0  0
    0.8808    3.3589   10.9978 C   0  0  0  0  0  0  0  0  0  0  0  0
    1.2718    2.5352   12.0615 C   0  0  0  0  0  0  0  0  0  0  0  0
   -0.3941   -2.6060   15.8167 C   0  0  0  0  0  0  0  0  0  0  0  0
   -1.7488   -2.8660   15.6892 C   0  0  0  0  0  0  0  0  0  0  0  0
   -3.8716   -3.4917   16.5069 H   0  0  0  0  0  0  0  0  0  0  0  0
   -5.5195   -3.0051   15.9834 H   0  0  0  0  0  0  0  0  0  0  0  0
   -4.6562   -4.3238   15.1218 H   0  0  0  0  0  0  0  0  0  0  0  0
   -5.6894   -1.7286   13.7768 H   0  0  0  0  0  0  0  0  0  0  0  0
   -4.1478   -1.2204   13.0075 H   0  0  0  0  0  0  0  0  0  0  0  0
   -3.8061   -3.5970   12.2653 H   0  0  0  0  0  0  0  0  0  0  0  0
   -5.4353   -3.9869   12.9136 H   0  0  0  0  0  0  0  0  0  0  0  0
   -5.4459   -3.5399   10.6675 H   0  0  0  0  0  0  0  0  0  0  0  0
   -2.5180   -0.5160   13.3491 H   0  0  0  0  0  0  0  0  0  0  0  0
   -0.0889   -0.0366   13.6173 H   0  0  0  0  0  0  0  0  0  0  0  0
    5.0757    1.0031   12.8625 H   0  0  0  0  0  0  0  0  0  0  0  0
    4.6175    2.3192   13.9959 H   0  0  0  0  0  0  0  0  0  0  0  0
    6.8364    0.8856   15.3048 H   0  0  0  0  0  0  0  0  0  0  0  0
    6.2618   -0.7780   17.3369 H   0  0  0  0  0  0  0  0  0  0  0  0
    4.5832    2.3665   11.2461 H   0  0  0  0  0  0  0  0  0  0  0  0
    3.8661    3.8165    9.3808 H   0  0  0  0  0  0  0  0  0  0  0  0
    1.3617    5.1041    8.2367 H   0  0  0  0  0  0  0  0  0  0  0  0
   -1.1805    3.7550   11.1422 H   0  0  0  0  0  0  0  0  0  0  0  0
    0.5625    2.2014   12.8044 H   0  0  0  0  0  0  0  0  0  0  0  0
    0.1988   -3.2054   16.4917 H   0  0  0  0  0  0  0  0  0  0  0  0
   -2.1996   -3.6545   16.2736 H   0  0  0  0  0  0  0  0  0  0  0  0
  1  2  1  0  0  0  0
  2  3  1  0  0  0  0
  2  6  1  0  0  0  0
  3  4  1  0  0  0  0
  4  5  1  0  0  0  0
  6  7  2  0  0  0  0
  6 30  1  0  0  0  0
  7  8  1  0  0  0  0
  8  9  2  0  0  0  0
  9 10  1  0  0  0  0
  9 29  1  0  0  0  0
 10 11  2  0  0  0  0
 11 12  1  0  0  0  0
 11 19  1  0  0  0  0
 12 13  2  0  0  0  0
 13 14  1  0  0  0  0
 13 20  1  0  0  0  0
 14 15  1  0  0  0  0
 15 16  1  0  0  0  0
 15 19  1  0  0  0  0
 16 17  2  0  0  0  0
 17 18  1  0  0  0  0
 18 19  2  0  0  0  0
 20 21  2  0  0  0  0
 20 28  1  0  0  0  0
 21 22  1  0  0  0  0
 22 23  2  0  0  0  0
 23 24  1  0  0  0  0
 23 27  1  0  0  0  0
 24 25  2  0  0  0  0
 25 26  1  0  0  0  0
 26 27  1  0  0  0  0
 27 28  2  0  0  0  0
 29 30  2  0  0  0  0
  1 31  1  0  0  0  0
  1 32  1  0  0  0  0
  1 33  1  0  0  0  0
  3 34  1  0  0  0  0
  3 35  1  0  0  0  0
  4 36  1  0  0  0  0
  4 37  1  0  0  0  0
  5 38  1  0  0  0  0
  7 39  1  0  0  0  0
  8 40  1  0  0  0  0
 14 41  1  0  0  0  0
 14 42  1  0  0  0  0
 16 43  1  0  0  0  0
 17 44  1  0  0  0  0
 21 45  1  0  0  0  0
 22 46  1  0  0  0  0
 24 47  1  0  0  0  0
 26 48  1  0  0  0  0
 28 49  1  0  0  0  0
 29 50  1  0  0  0  0
 30 51  1  0  0  0  0
M  END
> <IC50[nM]>
7.6

$$$$
CHEMBL3265035
  -OEChem-05192314333D
 Structure written by MMmdl.
 51 55  0     1  0  0  0  0  0999 V2000
   -4.5368   -3.3612   15.6406 C   0  0  0  0  0  0  0  0  0  0  0  0
   -3.9561   -2.3810   14.7221 N   0  0  2  0  0  0  0  0  0  0  0  0
   -4.6759   -2.0519   13.4970 C   0  0  0  0  0  0  0  0  0  0  0  0
   -4.8094   -3.1968   12.4731 C   0  0  0  0  0  0  0  0  0  0  0  0
   -5.3909   -2.7945   11.2538 O   0  0  0  0  0  0  0  0  0  0  0  0
   -2.5380   -2.1167   14.8106 C   0  0  0  0  0  0  0  0  0  0  0  0
   -1.9279   -1.0927   14.0460 C   0  0  0  0  0  0  0  0  0  0  0  0
   -0.5515   -0.8247   14.1929 C   0  0  0  0  0  0  0  0  0  0  0  0
    0.2181   -1.5869   15.0916 C   0  0  0  0  0  0  0  0  0  0  0  0
    1.6005   -1.3598   15.3303 N   0  0  0  0  0  0  0  0  0  0  0  0
    2.5326   -0.4516   14.7667 C   0  0  0  0  0  0  0  0  0  0  0  0
    2.1715    0.3794   13.7341 N   0  0  0  0  0  0  0  0  0  0  0  0
    3.1060    1.2367   13.2184 C   0  0  0  0  0  0  0  0  0  0  0  0
    4.4145    1.2803   13.6968 C   0  0  0  0  0  0  0  0  0  0  0  0
    4.7440    0.4821   14.7570 N   0  0  0  0  0  0  0  0  0  0  0  0
    5.8987    0.3805   15.4839 C   0  0  0  0  0  0  0  0  0  0  0  0
    5.5936   -0.5339   16.5243 C   0  0  0  0  0  0  0  0  0  0  0  0
    4.3807   -1.0510   16.3702 N   0  0  0  0  0  0  0  0  0  0  0  0
    3.8367   -0.4037   15.3198 C   0  0  0  0  0  0  0  0  0  0  0  0
    2.6315    2.1595   12.1222 C   0  0  0  0  0  0  0  0  0  0  0  0
    3.5425    2.6427   11.1618 C   0  0  0  0  0  0  0  0  0  0  0  0
    3.1486    3.4642   10.1071 C   0  0  0  0  0  0  0  0  0  0  0  0
    1.8051    3.8185   10.0149 C   0  0  0  0  0  0  0  0  0  0  0  0
    0.9940    4.5977    9.1169 C   0  0  0  0  0  0  0  0  0  0  0  0
   -0.2465    4.6060    9.5156 N   0  0  0  0  0  0  0  0  0  0  0  0
   -0.3325    3.8910   10.6299 N   0  0  0  0  0  0  0  0  0  0  0  0
    0.8808    3.3589   10.9978 C   0  0  0  0  0  0  0  0  0  0  0  0
    1.2718    2.5352   12.0615 C   0  0  0  0  0  0  0  0  0  0  0  0
   -0.3941   -2.6060   15.8167 C   0  0  0  0  0  0  0  0  0  0  0  0
   -1.7488   -2.8660   15.6892 C   0  0  0  0  0  0  0  0  0  0  0  0
   -3.8716   -3.4917   16.5069 H   0  0  0  0  0  0  0  0  0  0  0  0
   -5.5195   -3.0051   15.9834 H   0  0  0  0  0  0  0  0  0  0  0  0
   -4.6562   -4.3238   15.1218 H   0  0  0  0  0  0  0  0  0  0  0  0
   -5.6894   -1.7286   13.7768 H   0  0  0  0  0  0  0  0  0  0  0  0
   -4.1478   -1.2204   13.0075 H   0  0  0  0  0  0  0  0  0  0  0  0
   -3.8061   -3.5970   12.2653 H   0  0  0  0  0  0  0  0  0  0  0  0
   -5.4353   -3.9869   12.9136 H   0  0  0  0  0  0  0  0  0  0  0  0
   -5.4459   -3.5399   10.6675 H   0  0  0  0  0  0  0  0  0  0  0  0
   -2.5180   -0.5160   13.3491 H   0  0  0  0  0  0  0  0  0  0  0  0
   -0.0889   -0.0366   13.6173 H   0  0  0  0  0  0  0  0  0  0  0  0
    5.0757    1.0031   12.8625 H   0  0  0  0  0  0  0  0  0  0  0  0
    4.6175    2.3192   13.9959 H   0  0  0  0  0  0  0  0  0  0  0  0
    6.8364    0.8856   15.3048 H   0  0  0  0  0  0  0  0  0  0  0  0
    6.2618   -0.7780   17.3369 H   0  0  0  0  0  0  0  0  0  0  0  0
    4.5832    2.3665   11.2461 H   0  0  0  0  0  0  0  0  0  0  0  0
    3.8661    3.8165    9.3808 H   0  0  0  0  0  0  0  0  0  0  0  0
    1.3617    5.1041    8.2367 H   0  0  0  0  0  0  0  0  0  0  0  0
   -1.0046    5.0720    9.0594 H   0  0  0  0  0  0  0  0  0  0  0  0
    0.5625    2.2014   12.8044 H   0  0  0  0  0  0  0  0  0  0  0  0
    0.1988   -3.2054   16.4917 H   0  0  0  0  0  0  0  0  0  0  0  0
   -2.1996   -3.6545   16.2736 H   0  0  0  0  0  0  0  0  0  0  0  0
  1  2  1  0  0  0  0
  2  3  1  0  0  0  0
  2  6  1  0  0  0  0
  3  4  1  0  0  0  0
  4  5  1  0  0  0  0
  6  7  2  0  0  0  0
  6 30  1  0  0  0  0
  7  8  1  0  0  0  0
  8  9  2  0  0  0  0
  9 10  1  0  0  0  0
  9 29  1  0  0  0  0
 10 11  2  0  0  0  0
 11 12  1  0  0  0  0
 11 19  1  0  0  0  0
 12 13  2  0  0  0  0
 13 14  1  0  0  0  0
 13 20  1  0  0  0  0
 14 15  1  0  0  0  0
 15 16  1  0  0  0  0
 15 19  1  0  0  0  0
 16 17  2  0  0  0  0
 17 18  1  0  0  0  0
 18 19  2  0  0  0  0
 20 21  1  0  0  0  0
 20 28  2  0  0  0  0
 21 22  2  0  0  0  0
 22 23  1  0  0  0  0
 23 24  2  0  0  0  0
 23 27  1  0  0  0  0
 24 25  1  0  0  0  0
 25 26  1  0  0  0  0
 26 27  2  0  0  0  0
 27 28  1  0  0  0  0
 29 30  2  0  0  0  0
  1 31  1  0  0  0  0
  1 32  1  0  0  0  0
  1 33  1  0  0  0  0
  3 34  1  0  0  0  0
  3 35  1  0  0  0  0
  4 36  1  0  0  0  0
  4 37  1  0  0  0  0
  5 38  1  0  0  0  0
  7 39  1  0  0  0  0
  8 40  1  0  0  0  0
 14 41  1  0  0  0  0
 14 42  1  0  0  0  0
 16 43  1  0  0  0  0
 17 44  1  0  0  0  0
 21 45  1  0  0  0  0
 22 46  1  0  0  0  0
 24 47  1  0  0  0  0
 25 48  1  0  0  0  0
 28 49  1  0  0  0  0
 29 50  1  0  0  0  0
 30 51  1  0  0  0  0
M  END
> <IC50[nM]>
7.6

$$$$
CHEMBL3265035
  -OEChem-05192314333D
 Structure written by MMmdl.
 51 55  0     1  0  0  0  0  0999 V2000
   -4.5368   -3.3612   15.6406 C   0  0  0  0  0  0  0  0  0  0  0  0
   -3.9561   -2.3810   14.7221 N   0  0  2  0  0  0  0  0  0  0  0  0
   -4.6759   -2.0519   13.4970 C   0  0  0  0  0  0  0  0  0  0  0  0
   -4.8094   -3.1968   12.4731 C   0  0  0  0  0  0  0  0  0  0  0  0
   -5.3909   -2.7945   11.2538 O   0  0  0  0  0  0  0  0  0  0  0  0
   -2.5380   -2.1167   14.8106 C   0  0  0  0  0  0  0  0  0  0  0  0
   -1.9279   -1.0927   14.0460 C   0  0  0  0  0  0  0  0  0  0  0  0
   -0.5515   -0.8247   14.1929 C   0  0  0  0  0  0  0  0  0  0  0  0
    0.2181   -1.5869   15.0916 C   0  0  0  0  0  0  0  0  0  0  0  0
    1.6005   -1.3598   15.3303 N   0  0  0  0  0  0  0  0  0  0  0  0
    2.5326   -0.4516   14.7667 C   0  0  0  0  0  0  0  0  0  0  0  0
    2.1715    0.3794   13.7341 N   0  0  0  0  0  0  0  0  0  0  0  0
    3.1060    1.2367   13.2184 C   0  0  0  0  0  0  0  0  0  0  0  0
    4.4145    1.2803   13.6968 C   0  0  0  0  0  0  0  0  0  0  0  0
    4.7440    0.4821   14.7570 N   0  0  0  0  0  0  0  0  0  0  0  0
    5.8987    0.3805   15.4839 C   0  0  0  0  0  0  0  0  0  0  0  0
    5.5936   -0.5339   16.5243 C   0  0  0  0  0  0  0  0  0  0  0  0
    4.3807   -1.0510   16.3702 N   0  0  0  0  0  0  0  0  0  0  0  0
    3.8367   -0.4037   15.3198 C   0  0  0  0  0  0  0  0  0  0  0  0
    2.6315    2.1595   12.1222 C   0  0  0  0  0  0  0  0  0  0  0  0
    3.5425    2.6427   11.1618 C   0  0  0  0  0  0  0  0  0  0  0  0
    3.1486    3.4642   10.1071 C   0  0  0  0  0  0  0  0  0  0  0  0
    1.8051    3.8185   10.0149 C   0  0  0  0  0  0  0  0  0  0  0  0
    0.9940    4.5977    9.1169 C   0  0  0  0  0  0  0  0  0  0  0  0
   -0.2465    4.6060    9.5156 N   0  0  0  0  0  0  0  0  0  0  0  0
   -0.3325    3.8910   10.6299 N   0  0  0  0  0  0  0  0  0  0  0  0
    0.8808    3.3589   10.9978 C   0  0  0  0  0  0  0  0  0  0  0  0
    1.2718    2.5352   12.0615 C   0  0  0  0  0  0  0  0  0  0  0  0
   -0.3941   -2.6060   15.8167 C   0  0  0  0  0  0  0  0  0  0  0  0
   -1.7488   -2.8660   15.6892 C   0  0  0  0  0  0  0  0  0  0  0  0
   -3.8716   -3.4917   16.5069 H   0  0  0  0  0  0  0  0  0  0  0  0
   -5.5195   -3.0051   15.9834 H   0  0  0  0  0  0  0  0  0  0  0  0
   -4.6562   -4.3238   15.1218 H   0  0  0  0  0  0  0  0  0  0  0  0
   -5.6894   -1.7286   13.7768 H   0  0  0  0  0  0  0  0  0  0  0  0
   -4.1478   -1.2204   13.0075 H   0  0  0  0  0  0  0  0  0  0  0  0
   -3.8061   -3.5970   12.2653 H   0  0  0  0  0  0  0  0  0  0  0  0
   -5.4353   -3.9869   12.9136 H   0  0  0  0  0  0  0  0  0  0  0  0
   -5.4459   -3.5399   10.6675 H   0  0  0  0  0  0  0  0  0  0  0  0
   -2.3452   -2.8422   14.0066 H   0  0  0  0  0  0  0  0  0  0  0  0
   -2.5180   -0.5160   13.3491 H   0  0  0  0  0  0  0  0  0  0  0  0
   -0.0889   -0.0366   13.6173 H   0  0  0  0  0  0  0  0  0  0  0  0
    5.1493    1.9279   13.2417 H   0  0  0  0  0  0  0  0  0  0  0  0
    6.8364    0.8856   15.3048 H   0  0  0  0  0  0  0  0  0  0  0  0
    6.2618   -0.7780   17.3369 H   0  0  0  0  0  0  0  0  0  0  0  0
    4.5832    2.3665   11.2461 H   0  0  0  0  0  0  0  0  0  0  0  0
    3.8661    3.8165    9.3808 H   0  0  0  0  0  0  0  0  0  0  0  0
    1.3617    5.1041    8.2367 H   0  0  0  0  0  0  0  0  0  0  0  0
   -1.1805    3.7550   11.1422 H   0  0  0  0  0  0  0  0  0  0  0  0
    0.5625    2.2014   12.8044 H   0  0  0  0  0  0  0  0  0  0  0  0
    0.1988   -3.2054   16.4917 H   0  0  0  0  0  0  0  0  0  0  0  0
   -2.1996   -3.6545   16.2736 H   0  0  0  0  0  0  0  0  0  0  0  0
  1  2  1  0  0  0  0
  2  3  1  0  0  0  0
  2  6  1  0  0  0  0
  3  4  1  0  0  0  0
  4  5  1  0  0  0  0
  6  7  1  0  0  0  0
  6 30  1  0  0  0  0
  7  8  2  0  0  0  0
  8  9  1  0  0  0  0
  9 10  2  0  0  0  0
  9 29  1  0  0  0  0
 10 11  1  0  0  0  0
 11 12  2  0  0  0  0
 11 19  1  0  0  0  0
 12 13  1  0  0  0  0
 13 14  2  0  0  0  0
 13 20  1  0  0  0  0
 14 15  1  0  0  0  0
 15 16  1  0  0  0  0
 15 19  1  0  0  0  0
 16 17  2  0  0  0  0
 17 18  1  0  0  0  0
 18 19  2  0  0  0  0
 20 21  2  0  0  0  0
 20 28  1  0  0  0  0
 21 22  1  0  0  0  0
 22 23  2  0  0  0  0
 23 24  1  0  0  0  0
 23 27  1  0  0  0  0
 24 25  2  0  0  0  0
 25 26  1  0  0  0  0
 26 27  1  0  0  0  0
 27 28  2  0  0  0  0
 29 30  2  0  0  0  0
  1 31  1  0  0  0  0
  1 32  1  0  0  0  0
  1 33  1  0  0  0  0
  3 34  1  0  0  0  0
  3 35  1  0  0  0  0
  4 36  1  0  0  0  0
  4 37  1  0  0  0  0
  5 38  1  0  0  0  0
  6 39  1  0  0  0  0
  7 40  1  0  0  0  0
  8 41  1  0  0  0  0
 14 42  1  0  0  0  0
 16 43  1  0  0  0  0
 17 44  1  0  0  0  0
 21 45  1  0  0  0  0
 22 46  1  0  0  0  0
 24 47  1  0  0  0  0
 26 48  1  0  0  0  0
 28 49  1  0  0  0  0
 29 50  1  0  0  0  0
 30 51  1  0  0  0  0
M  END
> <IC50[nM]>
7.6

$$$$
CHEMBL3265035
  -OEChem-05192314333D
 Structure written by MMmdl.
 51 55  0     1  0  0  0  0  0999 V2000
   -4.5368   -3.3612   15.6406 C   0  0  0  0  0  0  0  0  0  0  0  0
   -3.9561   -2.3810   14.7221 N   0  0  2  0  0  0  0  0  0  0  0  0
   -4.6759   -2.0519   13.4970 C   0  0  0  0  0  0  0  0  0  0  0  0
   -4.8094   -3.1968   12.4731 C   0  0  0  0  0  0  0  0  0  0  0  0
   -5.3909   -2.7945   11.2538 O   0  0  0  0  0  0  0  0  0  0  0  0
   -2.5380   -2.1167   14.8106 C   0  0  0  0  0  0  0  0  0  0  0  0
   -1.9279   -1.0927   14.0460 C   0  0  0  0  0  0  0  0  0  0  0  0
   -0.5515   -0.8247   14.1929 C   0  0  0  0  0  0  0  0  0  0  0  0
    0.2181   -1.5869   15.0916 C   0  0  0  0  0  0  0  0  0  0  0  0
    1.6005   -1.3598   15.3303 N   0  0  0  0  0  0  0  0  0  0  0  0
    2.5326   -0.4516   14.7667 C   0  0  0  0  0  0  0  0  0  0  0  0
    2.1715    0.3794   13.7341 N   0  0  0  0  0  0  0  0  0  0  0  0
    3.1060    1.2367   13.2184 C   0  0  0  0  0  0  0  0  0  0  0  0
    4.4145    1.2803   13.6968 C   0  0  0  0  0  0  0  0  0  0  0  0
    4.7440    0.4821   14.7570 N   0  0  0  0  0  0  0  0  0  0  0  0
    5.8987    0.3805   15.4839 C   0  0  0  0  0  0  0  0  0  0  0  0
    5.5936   -0.5339   16.5243 C   0  0  0  0  0  0  0  0  0  0  0  0
    4.3807   -1.0510   16.3702 N   0  0  0  0  0  0  0  0  0  0  0  0
    3.8367   -0.4037   15.3198 C   0  0  0  0  0  0  0  0  0  0  0  0
    2.6315    2.1595   12.1222 C   0  0  0  0  0  0  0  0  0  0  0  0
    3.5425    2.6427   11.1618 C   0  0  0  0  0  0  0  0  0  0  0  0
    3.1486    3.4642   10.1071 C   0  0  0  0  0  0  0  0  0  0  0  0
    1.8051    3.8185   10.0149 C   0  0  0  0  0  0  0  0  0  0  0  0
    0.9940    4.5977    9.1169 C   0  0  0  0  0  0  0  0  0  0  0  0
   -0.2465    4.6060    9.5156 N   0  0  0  0  0  0  0  0  0  0  0  0
   -0.3325    3.8910   10.6299 N   0  0  0  0  0  0  0  0  0  0  0  0
    0.8808    3.3589   10.9978 C   0  0  0  0  0  0  0  0  0  0  0  0
    1.2718    2.5352   12.0615 C   0  0  0  0  0  0  0  0  0  0  0  0
   -0.3941   -2.6060   15.8167 C   0  0  0  0  0  0  0  0  0  0  0  0
   -1.7488   -2.8660   15.6892 C   0  0  0  0  0  0  0  0  0  0  0  0
   -3.8716   -3.4917   16.5069 H   0  0  0  0  0  0  0  0  0  0  0  0
   -5.5195   -3.0051   15.9834 H   0  0  0  0  0  0  0  0  0  0  0  0
   -4.6562   -4.3238   15.1218 H   0  0  0  0  0  0  0  0  0  0  0  0
   -5.6894   -1.7286   13.7768 H   0  0  0  0  0  0  0  0  0  0  0  0
   -4.1478   -1.2204   13.0075 H   0  0  0  0  0  0  0  0  0  0  0  0
   -3.8061   -3.5970   12.2653 H   0  0  0  0  0  0  0  0  0  0  0  0
   -5.4353   -3.9869   12.9136 H   0  0  0  0  0  0  0  0  0  0  0  0
   -5.4459   -3.5399   10.6675 H   0  0  0  0  0  0  0  0  0  0  0  0
   -2.3452   -2.8422   14.0066 H   0  0  0  0  0  0  0  0  0  0  0  0
   -2.5180   -0.5160   13.3491 H   0  0  0  0  0  0  0  0  0  0  0  0
   -0.0889   -0.0366   13.6173 H   0  0  0  0  0  0  0  0  0  0  0  0
    5.1493    1.9279   13.2417 H   0  0  0  0  0  0  0  0  0  0  0  0
    6.8364    0.8856   15.3048 H   0  0  0  0  0  0  0  0  0  0  0  0
    6.2618   -0.7780   17.3369 H   0  0  0  0  0  0  0  0  0  0  0  0
    4.5832    2.3665   11.2461 H   0  0  0  0  0  0  0  0  0  0  0  0
    3.8661    3.8165    9.3808 H   0  0  0  0  0  0  0  0  0  0  0  0
    1.3617    5.1041    8.2367 H   0  0  0  0  0  0  0  0  0  0  0  0
   -1.0046    5.0720    9.0594 H   0  0  0  0  0  0  0  0  0  0  0  0
    0.5625    2.2014   12.8044 H   0  0  0  0  0  0  0  0  0  0  0  0
    0.1988   -3.2054   16.4917 H   0  0  0  0  0  0  0  0  0  0  0  0
   -2.1996   -3.6545   16.2736 H   0  0  0  0  0  0  0  0  0  0  0  0
  1  2  1  0  0  0  0
  2  3  1  0  0  0  0
  2  6  1  0  0  0  0
  3  4  1  0  0  0  0
  4  5  1  0  0  0  0
  6  7  1  0  0  0  0
  6 30  1  0  0  0  0
  7  8  2  0  0  0  0
  8  9  1  0  0  0  0
  9 10  2  0  0  0  0
  9 29  1  0  0  0  0
 10 11  1  0  0  0  0
 11 12  2  0  0  0  0
 11 19  1  0  0  0  0
 12 13  1  0  0  0  0
 13 14  2  0  0  0  0
 13 20  1  0  0  0  0
 14 15  1  0  0  0  0
 15 16  1  0  0  0  0
 15 19  1  0  0  0  0
 16 17  2  0  0  0  0
 17 18  1  0  0  0  0
 18 19  2  0  0  0  0
 20 21  1  0  0  0  0
 20 28  2  0  0  0  0
 21 22  2  0  0  0  0
 22 23  1  0  0  0  0
 23 24  2  0  0  0  0
 23 27  1  0  0  0  0
 24 25  1  0  0  0  0
 25 26  1  0  0  0  0
 26 27  2  0  0  0  0
 27 28  1  0  0  0  0
 29 30  2  0  0  0  0
  1 31  1  0  0  0  0
  1 32  1  0  0  0  0
  1 33  1  0  0  0  0
  3 34  1  0  0  0  0
  3 35  1  0  0  0  0
  4 36  1  0  0  0  0
  4 37  1  0  0  0  0
  5 38  1  0  0  0  0
  6 39  1  0  0  0  0
  7 40  1  0  0  0  0
  8 41  1  0  0  0  0
 14 42  1  0  0  0  0
 16 43  1  0  0  0  0
 17 44  1  0  0  0  0
 21 45  1  0  0  0  0
 22 46  1  0  0  0  0
 24 47  1  0  0  0  0
 25 48  1  0  0  0  0
 28 49  1  0  0  0  0
 29 50  1  0  0  0  0
 30 51  1  0  0  0  0
M  END
> <IC50[nM]>
7.6

$$$$
CHEMBL3265035
  -OEChem-05192314333D
 Structure written by MMmdl.
 51 55  0     1  0  0  0  0  0999 V2000
   -4.5368   -3.3612   15.6406 C   0  0  0  0  0  0  0  0  0  0  0  0
   -3.9561   -2.3810   14.7221 N   0  0  2  0  0  0  0  0  0  0  0  0
   -4.6759   -2.0519   13.4970 C   0  0  0  0  0  0  0  0  0  0  0  0
   -4.8094   -3.1968   12.4731 C   0  0  0  0  0  0  0  0  0  0  0  0
   -5.3909   -2.7945   11.2538 O   0  0  0  0  0  0  0  0  0  0  0  0
   -2.5380   -2.1167   14.8106 C   0  0  0  0  0  0  0  0  0  0  0  0
   -1.9279   -1.0927   14.0460 C   0  0  0  0  0  0  0  0  0  0  0  0
   -0.5515   -0.8247   14.1929 C   0  0  0  0  0  0  0  0  0  0  0  0
    0.2181   -1.5869   15.0916 C   0  0  0  0  0  0  0  0  0  0  0  0
    1.6005   -1.3598   15.3303 N   0  0  0  0  0  0  0  0  0  0  0  0
    2.5326   -0.4516   14.7667 C   0  0  0  0  0  0  0  0  0  0  0  0
    2.1715    0.3794   13.7341 N   0  0  0  0  0  0  0  0  0  0  0  0
    3.1060    1.2367   13.2184 C   0  0  0  0  0  0  0  0  0  0  0  0
    4.4145    1.2803   13.6968 C   0  0  0  0  0  0  0  0  0  0  0  0
    4.7440    0.4821   14.7570 N   0  0  0  0  0  0  0  0  0  0  0  0
    5.8987    0.3805   15.4839 C   0  0  0  0  0  0  0  0  0  0  0  0
    5.5936   -0.5339   16.5243 C   0  0  0  0  0  0  0  0  0  0  0  0
    4.3807   -1.0510   16.3702 N   0  0  0  0  0  0  0  0  0  0  0  0
    3.8367   -0.4037   15.3198 C   0  0  0  0  0  0  0  0  0  0  0  0
    2.6315    2.1595   12.1222 C   0  0  0  0  0  0  0  0  0  0  0  0
    3.5425    2.6427   11.1618 C   0  0  0  0  0  0  0  0  0  0  0  0
    3.1486    3.4642   10.1071 C   0  0  0  0  0  0  0  0  0  0  0  0
    1.8051    3.8185   10.0149 C   0  0  0  0  0  0  0  0  0  0  0  0
    0.9940    4.5977    9.1169 C   0  0  0  0  0  0  0  0  0  0  0  0
   -0.2465    4.6060    9.5156 N   0  0  0  0  0  0  0  0  0  0  0  0
   -0.3325    3.8910   10.6299 N   0  0  0  0  0  0  0  0  0  0  0  0
    0.8808    3.3589   10.9978 C   0  0  0  0  0  0  0  0  0  0  0  0
    1.2718    2.5352   12.0615 C   0  0  0  0  0  0  0  0  0  0  0  0
   -0.3941   -2.6060   15.8167 C   0  0  0  0  0  0  0  0  0  0  0  0
   -1.7488   -2.8660   15.6892 C   0  0  0  0  0  0  0  0  0  0  0  0
   -3.8716   -3.4917   16.5069 H   0  0  0  0  0  0  0  0  0  0  0  0
   -5.5195   -3.0051   15.9834 H   0  0  0  0  0  0  0  0  0  0  0  0
   -4.6562   -4.3238   15.1218 H   0  0  0  0  0  0  0  0  0  0  0  0
   -5.6894   -1.7286   13.7768 H   0  0  0  0  0  0  0  0  0  0  0  0
   -4.1478   -1.2204   13.0075 H   0  0  0  0  0  0  0  0  0  0  0  0
   -3.8061   -3.5970   12.2653 H   0  0  0  0  0  0  0  0  0  0  0  0
   -5.4353   -3.9869   12.9136 H   0  0  0  0  0  0  0  0  0  0  0  0
   -5.4459   -3.5399   10.6675 H   0  0  0  0  0  0  0  0  0  0  0  0
   -2.5180   -0.5160   13.3491 H   0  0  0  0  0  0  0  0  0  0  0  0
   -0.0889   -0.0366   13.6173 H   0  0  0  0  0  0  0  0  0  0  0  0
    5.1493    1.9279   13.2417 H   0  0  0  0  0  0  0  0  0  0  0  0
    6.8364    0.8856   15.3048 H   0  0  0  0  0  0  0  0  0  0  0  0
    6.2618   -0.7780   17.3369 H   0  0  0  0  0  0  0  0  0  0  0  0
    4.5832    2.3665   11.2461 H   0  0  0  0  0  0  0  0  0  0  0  0
    3.8661    3.8165    9.3808 H   0  0  0  0  0  0  0  0  0  0  0  0
    1.3617    5.1041    8.2367 H   0  0  0  0  0  0  0  0  0  0  0  0
   -1.1805    3.7550   11.1422 H   0  0  0  0  0  0  0  0  0  0  0  0
    0.5625    2.2014   12.8044 H   0  0  0  0  0  0  0  0  0  0  0  0
    0.1281   -3.5362   15.5482 H   0  0  0  0  0  0  0  0  0  0  0  0
   -0.2189   -2.3808   16.8791 H   0  0  0  0  0  0  0  0  0  0  0  0
   -2.1996   -3.6545   16.2736 H   0  0  0  0  0  0  0  0  0  0  0  0
  1  2  1  0  0  0  0
  2  3  1  0  0  0  0
  2  6  1  0  0  0  0
  3  4  1  0  0  0  0
  4  5  1  0  0  0  0
  6  7  1  0  0  0  0
  6 30  2  0  0  0  0
  7  8  2  0  0  0  0
  8  9  1  0  0  0  0
  9 10  2  0  0  0  0
  9 29  1  0  0  0  0
 10 11  1  0  0  0  0
 11 12  2  0  0  0  0
 11 19  1  0  0  0  0
 12 13  1  0  0  0  0
 13 14  2  0  0  0  0
 13 20  1  0  0  0  0
 14 15  1  0  0  0  0
 15 16  1  0  0  0  0
 15 19  1  0  0  0  0
 16 17  2  0  0  0  0
 17 18  1  0  0  0  0
 18 19  2  0  0  0  0
 20 21  2  0  0  0  0
 20 28  1  0  0  0  0
 21 22  1  0  0  0  0
 22 23  2  0  0  0  0
 23 24  1  0  0  0  0
 23 27  1  0  0  0  0
 24 25  2  0  0  0  0
 25 26  1  0  0  0  0
 26 27  1  0  0  0  0
 27 28  2  0  0  0  0
 29 30  1  0  0  0  0
  1 31  1  0  0  0  0
  1 32  1  0  0  0  0
  1 33  1  0  0  0  0
  3 34  1  0  0  0  0
  3 35  1  0  0  0  0
  4 36  1  0  0  0  0
  4 37  1  0  0  0  0
  5 38  1  0  0  0  0
  7 39  1  0  0  0  0
  8 40  1  0  0  0  0
 14 41  1  0  0  0  0
 16 42  1  0  0  0  0
 17 43  1  0  0  0  0
 21 44  1  0  0  0  0
 22 45  1  0  0  0  0
 24 46  1  0  0  0  0
 26 47  1  0  0  0  0
 28 48  1  0  0  0  0
 29 49  1  0  0  0  0
 29 50  1  0  0  0  0
 30 51  1  0  0  0  0
M  END
> <IC50[nM]>
7.6

$$$$
CHEMBL3265035
  -OEChem-05192314333D
 Structure written by MMmdl.
 51 55  0     1  0  0  0  0  0999 V2000
   -4.5368   -3.3612   15.6406 C   0  0  0  0  0  0  0  0  0  0  0  0
   -3.9561   -2.3810   14.7221 N   0  0  2  0  0  0  0  0  0  0  0  0
   -4.6759   -2.0519   13.4970 C   0  0  0  0  0  0  0  0  0  0  0  0
   -4.8094   -3.1968   12.4731 C   0  0  0  0  0  0  0  0  0  0  0  0
   -5.3909   -2.7945   11.2538 O   0  0  0  0  0  0  0  0  0  0  0  0
   -2.5380   -2.1167   14.8106 C   0  0  0  0  0  0  0  0  0  0  0  0
   -1.9279   -1.0927   14.0460 C   0  0  0  0  0  0  0  0  0  0  0  0
   -0.5515   -0.8247   14.1929 C   0  0  0  0  0  0  0  0  0  0  0  0
    0.2181   -1.5869   15.0916 C   0  0  0  0  0  0  0  0  0  0  0  0
    1.6005   -1.3598   15.3303 N   0  0  0  0  0  0  0  0  0  0  0  0
    2.5326   -0.4516   14.7667 C   0  0  0  0  0  0  0  0  0  0  0  0
    2.1715    0.3794   13.7341 N   0  0  0  0  0  0  0  0  0  0  0  0
    3.1060    1.2367   13.2184 C   0  0  0  0  0  0  0  0  0  0  0  0
    4.4145    1.2803   13.6968 C   0  0  0  0  0  0  0  0  0  0  0  0
    4.7440    0.4821   14.7570 N   0  0  0  0  0  0  0  0  0  0  0  0
    5.8987    0.3805   15.4839 C   0  0  0  0  0  0  0  0  0  0  0  0
    5.5936   -0.5339   16.5243 C   0  0  0  0  0  0  0  0  0  0  0  0
    4.3807   -1.0510   16.3702 N   0  0  0  0  0  0  0  0  0  0  0  0
    3.8367   -0.4037   15.3198 C   0  0  0  0  0  0  0  0  0  0  0  0
    2.6315    2.1595   12.1222 C   0  0  0  0  0  0  0  0  0  0  0  0
    3.5425    2.6427   11.1618 C   0  0  0  0  0  0  0  0  0  0  0  0
    3.1486    3.4642   10.1071 C   0  0  0  0  0  0  0  0  0  0  0  0
    1.8051    3.8185   10.0149 C   0  0  0  0  0  0  0  0  0  0  0  0
    0.9940    4.5977    9.1169 C   0  0  0  0  0  0  0  0  0  0  0  0
   -0.2465    4.6060    9.5156 N   0  0  0  0  0  0  0  0  0  0  0  0
   -0.3325    3.8910   10.6299 N   0  0  0  0  0  0  0  0  0  0  0  0
    0.8808    3.3589   10.9978 C   0  0  0  0  0  0  0  0  0  0  0  0
    1.2718    2.5352   12.0615 C   0  0  0  0  0  0  0  0  0  0  0  0
   -0.3941   -2.6060   15.8167 C   0  0  0  0  0  0  0  0  0  0  0  0
   -1.7488   -2.8660   15.6892 C   0  0  0  0  0  0  0  0  0  0  0  0
   -3.8716   -3.4917   16.5069 H   0  0  0  0  0  0  0  0  0  0  0  0
   -5.5195   -3.0051   15.9834 H   0  0  0  0  0  0  0  0  0  0  0  0
   -4.6562   -4.3238   15.1218 H   0  0  0  0  0  0  0  0  0  0  0  0
   -5.6894   -1.7286   13.7768 H   0  0  0  0  0  0  0  0  0  0  0  0
   -4.1478   -1.2204   13.0075 H   0  0  0  0  0  0  0  0  0  0  0  0
   -3.8061   -3.5970   12.2653 H   0  0  0  0  0  0  0  0  0  0  0  0
   -5.4353   -3.9869   12.9136 H   0  0  0  0  0  0  0  0  0  0  0  0
   -5.4459   -3.5399   10.6675 H   0  0  0  0  0  0  0  0  0  0  0  0
   -2.5180   -0.5160   13.3491 H   0  0  0  0  0  0  0  0  0  0  0  0
   -0.0889   -0.0366   13.6173 H   0  0  0  0  0  0  0  0  0  0  0  0
    5.1493    1.9279   13.2417 H   0  0  0  0  0  0  0  0  0  0  0  0
    6.8364    0.8856   15.3048 H   0  0  0  0  0  0  0  0  0  0  0  0
    6.2618   -0.7780   17.3369 H   0  0  0  0  0  0  0  0  0  0  0  0
    4.5832    2.3665   11.2461 H   0  0  0  0  0  0  0  0  0  0  0  0
    3.8661    3.8165    9.3808 H   0  0  0  0  0  0  0  0  0  0  0  0
    1.3617    5.1041    8.2367 H   0  0  0  0  0  0  0  0  0  0  0  0
   -1.0046    5.0720    9.0594 H   0  0  0  0  0  0  0  0  0  0  0  0
    0.5625    2.2014   12.8044 H   0  0  0  0  0  0  0  0  0  0  0  0
    0.1281   -3.5362   15.5482 H   0  0  0  0  0  0  0  0  0  0  0  0
   -0.2189   -2.3808   16.8791 H   0  0  0  0  0  0  0  0  0  0  0  0
   -2.1996   -3.6545   16.2736 H   0  0  0  0  0  0  0  0  0  0  0  0
  1  2  1  0  0  0  0
  2  3  1  0  0  0  0
  2  6  1  0  0  0  0
  3  4  1  0  0  0  0
  4  5  1  0  0  0  0
  6  7  1  0  0  0  0
  6 30  2  0  0  0  0
  7  8  2  0  0  0  0
  8  9  1  0  0  0  0
  9 10  2  0  0  0  0
  9 29  1  0  0  0  0
 10 11  1  0  0  0  0
 11 12  2  0  0  0  0
 11 19  1  0  0  0  0
 12 13  1  0  0  0  0
 13 14  2  0  0  0  0
 13 20  1  0  0  0  0
 14 15  1  0  0  0  0
 15 16  1  0  0  0  0
 15 19  1  0  0  0  0
 16 17  2  0  0  0  0
 17 18  1  0  0  0  0
 18 19  2  0  0  0  0
 20 21  1  0  0  0  0
 20 28  2  0  0  0  0
 21 22  2  0  0  0  0
 22 23  1  0  0  0  0
 23 24  2  0  0  0  0
 23 27  1  0  0  0  0
 24 25  1  0  0  0  0
 25 26  1  0  0  0  0
 26 27  2  0  0  0  0
 27 28  1  0  0  0  0
 29 30  1  0  0  0  0
  1 31  1  0  0  0  0
  1 32  1  0  0  0  0
  1 33  1  0  0  0  0
  3 34  1  0  0  0  0
  3 35  1  0  0  0  0
  4 36  1  0  0  0  0
  4 37  1  0  0  0  0
  5 38  1  0  0  0  0
  7 39  1  0  0  0  0
  8 40  1  0  0  0  0
 14 41  1  0  0  0  0
 16 42  1  0  0  0  0
 17 43  1  0  0  0  0
 21 44  1  0  0  0  0
 22 45  1  0  0  0  0
 24 46  1  0  0  0  0
 25 47  1  0  0  0  0
 28 48  1  0  0  0  0
 29 49  1  0  0  0  0
 29 50  1  0  0  0  0
 30 51  1  0  0  0  0
M  END
> <IC50[nM]>
7.6

$$$$
CHEMBL3265035
  -OEChem-05192314333D
 Structure written by MMmdl.
 51 55  0     1  0  0  0  0  0999 V2000
   -4.5368   -3.3612   15.6406 C   0  0  0  0  0  0  0  0  0  0  0  0
   -3.9561   -2.3810   14.7221 N   0  0  2  0  0  0  0  0  0  0  0  0
   -4.6759   -2.0519   13.4970 C   0  0  0  0  0  0  0  0  0  0  0  0
   -4.8094   -3.1968   12.4731 C   0  0  0  0  0  0  0  0  0  0  0  0
   -5.3909   -2.7945   11.2538 O   0  0  0  0  0  0  0  0  0  0  0  0
   -2.5380   -2.1167   14.8106 C   0  0  0  0  0  0  0  0  0  0  0  0
   -1.9279   -1.0927   14.0460 C   0  0  0  0  0  0  0  0  0  0  0  0
   -0.5515   -0.8247   14.1929 C   0  0  0  0  0  0  0  0  0  0  0  0
    0.2181   -1.5869   15.0916 C   0  0  0  0  0  0  0  0  0  0  0  0
    1.6005   -1.3598   15.3303 N   0  0  0  0  0  0  0  0  0  0  0  0
    2.5326   -0.4516   14.7667 C   0  0  0  0  0  0  0  0  0  0  0  0
    2.1715    0.3794   13.7341 N   0  0  0  0  0  0  0  0  0  0  0  0
    3.1060    1.2367   13.2184 C   0  0  0  0  0  0  0  0  0  0  0  0
    4.4145    1.2803   13.6968 C   0  0  0  0  0  0  0  0  0  0  0  0
    4.7440    0.4821   14.7570 N   0  0  0  0  0  0  0  0  0  0  0  0
    5.8987    0.3805   15.4839 C   0  0  0  0  0  0  0  0  0  0  0  0
    5.5936   -0.5339   16.5243 C   0  0  0  0  0  0  0  0  0  0  0  0
    4.3807   -1.0510   16.3702 N   0  0  0  0  0  0  0  0  0  0  0  0
    3.8367   -0.4037   15.3198 C   0  0  0  0  0  0  0  0  0  0  0  0
    2.6315    2.1595   12.1222 C   0  0  0  0  0  0  0  0  0  0  0  0
    3.5425    2.6427   11.1618 C   0  0  0  0  0  0  0  0  0  0  0  0
    3.1486    3.4642   10.1071 C   0  0  0  0  0  0  0  0  0  0  0  0
    1.8051    3.8185   10.0149 C   0  0  0  0  0  0  0  0  0  0  0  0
    0.9940    4.5977    9.1169 C   0  0  0  0  0  0  0  0  0  0  0  0
   -0.2465    4.6060    9.5156 N   0  0  0  0  0  0  0  0  0  0  0  0
   -0.3325    3.8910   10.6299 N   0  0  0  0  0  0  0  0  0  0  0  0
    0.8808    3.3589   10.9978 C   0  0  0  0  0  0  0  0  0  0  0  0
    1.2718    2.5352   12.0615 C   0  0  0  0  0  0  0  0  0  0  0  0
   -0.3941   -2.6060   15.8167 C   0  0  0  0  0  0  0  0  0  0  0  0
   -1.7488   -2.8660   15.6892 C   0  0  0  0  0  0  0  0  0  0  0  0
   -3.8716   -3.4917   16.5069 H   0  0  0  0  0  0  0  0  0  0  0  0
   -5.5195   -3.0051   15.9834 H   0  0  0  0  0  0  0  0  0  0  0  0
   -4.6562   -4.3238   15.1218 H   0  0  0  0  0  0  0  0  0  0  0  0
   -5.6894   -1.7286   13.7768 H   0  0  0  0  0  0  0  0  0  0  0  0
   -4.1478   -1.2204   13.0075 H   0  0  0  0  0  0  0  0  0  0  0  0
   -3.8061   -3.5970   12.2653 H   0  0  0  0  0  0  0  0  0  0  0  0
   -5.4353   -3.9869   12.9136 H   0  0  0  0  0  0  0  0  0  0  0  0
   -5.4459   -3.5399   10.6675 H   0  0  0  0  0  0  0  0  0  0  0  0
   -2.5180   -0.5160   13.3491 H   0  0  0  0  0  0  0  0  0  0  0  0
   -0.0889   -0.0366   13.6173 H   0  0  0  0  0  0  0  0  0  0  0  0
    5.0757    1.0031   12.8625 H   0  0  0  0  0  0  0  0  0  0  0  0
    4.6175    2.3192   13.9959 H   0  0  0  0  0  0  0  0  0  0  0  0
    6.8364    0.8856   15.3048 H   0  0  0  0  0  0  0  0  0  0  0  0
    6.2618   -0.7780   17.3369 H   0  0  0  0  0  0  0  0  0  0  0  0
    4.5832    2.3665   11.2461 H   0  0  0  0  0  0  0  0  0  0  0  0
    3.8661    3.8165    9.3808 H   0  0  0  0  0  0  0  0  0  0  0  0
    1.3728    5.6301    9.0899 H   0  0  0  0  0  0  0  0  0  0  0  0
    1.0476    4.1609    8.1088 H   0  0  0  0  0  0  0  0  0  0  0  0
    0.5625    2.2014   12.8044 H   0  0  0  0  0  0  0  0  0  0  0  0
    0.1988   -3.2054   16.4917 H   0  0  0  0  0  0  0  0  0  0  0  0
   -2.1996   -3.6545   16.2736 H   0  0  0  0  0  0  0  0  0  0  0  0
  1  2  1  0  0  0  0
  2  3  1  0  0  0  0
  2  6  1  0  0  0  0
  3  4  1  0  0  0  0
  4  5  1  0  0  0  0
  6  7  2  0  0  0  0
  6 30  1  0  0  0  0
  7  8  1  0  0  0  0
  8  9  2  0  0  0  0
  9 10  1  0  0  0  0
  9 29  1  0  0  0  0
 10 11  2  0  0  0  0
 11 12  1  0  0  0  0
 11 19  1  0  0  0  0
 12 13  2  0  0  0  0
 13 14  1  0  0  0  0
 13 20  1  0  0  0  0
 14 15  1  0  0  0  0
 15 16  1  0  0  0  0
 15 19  1  0  0  0  0
 16 17  2  0  0  0  0
 17 18  1  0  0  0  0
 18 19  2  0  0  0  0
 20 21  2  0  0  0  0
 20 28  1  0  0  0  0
 21 22  1  0  0  0  0
 22 23  2  0  0  0  0
 23 24  1  0  0  0  0
 23 27  1  0  0  0  0
 24 25  1  0  0  0  0
 25 26  2  0  0  0  0
 26 27  1  0  0  0  0
 27 28  2  0  0  0  0
 29 30  2  0  0  0  0
  1 31  1  0  0  0  0
  1 32  1  0  0  0  0
  1 33  1  0  0  0  0
  3 34  1  0  0  0  0
  3 35  1  0  0  0  0
  4 36  1  0  0  0  0
  4 37  1  0  0  0  0
  5 38  1  0  0  0  0
  7 39  1  0  0  0  0
  8 40  1  0  0  0  0
 14 41  1  0  0  0  0
 14 42  1  0  0  0  0
 16 43  1  0  0  0  0
 17 44  1  0  0  0  0
 21 45  1  0  0  0  0
 22 46  1  0  0  0  0
 24 47  1  0  0  0  0
 24 48  1  0  0  0  0
 28 49  1  0  0  0  0
 29 50  1  0  0  0  0
 30 51  1  0  0  0  0
M  END
> <IC50[nM]>
7.6

$$$$
CHEMBL3265035
  -OEChem-05192314333D
 Structure written by MMmdl.
 51 55  0     1  0  0  0  0  0999 V2000
   -4.5368   -3.3612   15.6406 C   0  0  0  0  0  0  0  0  0  0  0  0
   -3.9561   -2.3810   14.7221 N   0  0  2  0  0  0  0  0  0  0  0  0
   -4.6759   -2.0519   13.4970 C   0  0  0  0  0  0  0  0  0  0  0  0
   -4.8094   -3.1968   12.4731 C   0  0  0  0  0  0  0  0  0  0  0  0
   -5.3909   -2.7945   11.2538 O   0  0  0  0  0  0  0  0  0  0  0  0
   -2.5380   -2.1167   14.8106 C   0  0  0  0  0  0  0  0  0  0  0  0
   -1.9279   -1.0927   14.0460 C   0  0  0  0  0  0  0  0  0  0  0  0
   -0.5515   -0.8247   14.1929 C   0  0  0  0  0  0  0  0  0  0  0  0
    0.2181   -1.5869   15.0916 C   0  0  0  0  0  0  0  0  0  0  0  0
    1.6005   -1.3598   15.3303 N   0  0  0  0  0  0  0  0  0  0  0  0
    2.5326   -0.4516   14.7667 C   0  0  0  0  0  0  0  0  0  0  0  0
    2.1715    0.3794   13.7341 N   0  0  0  0  0  0  0  0  0  0  0  0
    3.1060    1.2367   13.2184 C   0  0  0  0  0  0  0  0  0  0  0  0
    4.4145    1.2803   13.6968 C   0  0  0  0  0  0  0  0  0  0  0  0
    4.7440    0.4821   14.7570 N   0  0  0  0  0  0  0  0  0  0  0  0
    5.8987    0.3805   15.4839 C   0  0  0  0  0  0  0  0  0  0  0  0
    5.5936   -0.5339   16.5243 C   0  0  0  0  0  0  0  0  0  0  0  0
    4.3807   -1.0510   16.3702 N   0  0  0  0  0  0  0  0  0  0  0  0
    3.8367   -0.4037   15.3198 C   0  0  0  0  0  0  0  0  0  0  0  0
    2.6315    2.1595   12.1222 C   0  0  0  0  0  0  0  0  0  0  0  0
    3.5425    2.6427   11.1618 C   0  0  0  0  0  0  0  0  0  0  0  0
    3.1486    3.4642   10.1071 C   0  0  0  0  0  0  0  0  0  0  0  0
    1.8051    3.8185   10.0149 C   0  0  0  0  0  0  0  0  0  0  0  0
    0.9940    4.5977    9.1169 C   0  0  0  0  0  0  0  0  0  0  0  0
   -0.2465    4.6060    9.5156 N   0  0  0  0  0  0  0  0  0  0  0  0
   -0.3325    3.8910   10.6299 N   0  0  0  0  0  0  0  0  0  0  0  0
    0.8808    3.3589   10.9978 C   0  0  0  0  0  0  0  0  0  0  0  0
    1.2718    2.5352   12.0615 C   0  0  0  0  0  0  0  0  0  0  0  0
   -0.3941   -2.6060   15.8167 C   0  0  0  0  0  0  0  0  0  0  0  0
   -1.7488   -2.8660   15.6892 C   0  0  0  0  0  0  0  0  0  0  0  0
   -3.8716   -3.4917   16.5069 H   0  0  0  0  0  0  0  0  0  0  0  0
   -5.5195   -3.0051   15.9834 H   0  0  0  0  0  0  0  0  0  0  0  0
   -4.6562   -4.3238   15.1218 H   0  0  0  0  0  0  0  0  0  0  0  0
   -5.6894   -1.7286   13.7768 H   0  0  0  0  0  0  0  0  0  0  0  0
   -4.1478   -1.2204   13.0075 H   0  0  0  0  0  0  0  0  0  0  0  0
   -3.8061   -3.5970   12.2653 H   0  0  0  0  0  0  0  0  0  0  0  0
   -5.4353   -3.9869   12.9136 H   0  0  0  0  0  0  0  0  0  0  0  0
   -5.4459   -3.5399   10.6675 H   0  0  0  0  0  0  0  0  0  0  0  0
   -2.5180   -0.5160   13.3491 H   0  0  0  0  0  0  0  0  0  0  0  0
   -0.0889   -0.0366   13.6173 H   0  0  0  0  0  0  0  0  0  0  0  0
    1.9918   -1.9558   16.0315 H   0  0  0  0  0  0  0  0  0  0  0  0
    5.0757    1.0031   12.8625 H   0  0  0  0  0  0  0  0  0  0  0  0
    4.6175    2.3192   13.9959 H   0  0  0  0  0  0  0  0  0  0  0  0
    6.8364    0.8856   15.3048 H   0  0  0  0  0  0  0  0  0  0  0  0
    6.2618   -0.7780   17.3369 H   0  0  0  0  0  0  0  0  0  0  0  0
    4.5832    2.3665   11.2461 H   0  0  0  0  0  0  0  0  0  0  0  0
    3.8661    3.8165    9.3808 H   0  0  0  0  0  0  0  0  0  0  0  0
    1.3617    5.1041    8.2367 H   0  0  0  0  0  0  0  0  0  0  0  0
    0.5625    2.2014   12.8044 H   0  0  0  0  0  0  0  0  0  0  0  0
    0.1988   -3.2054   16.4917 H   0  0  0  0  0  0  0  0  0  0  0  0
   -2.1996   -3.6545   16.2736 H   0  0  0  0  0  0  0  0  0  0  0  0
  1  2  1  0  0  0  0
  2  3  1  0  0  0  0
  2  6  1  0  0  0  0
  3  4  1  0  0  0  0
  4  5  1  0  0  0  0
  6  7  2  0  0  0  0
  6 30  1  0  0  0  0
  7  8  1  0  0  0  0
  8  9  2  0  0  0  0
  9 10  1  0  0  0  0
  9 29  1  0  0  0  0
 10 11  1  0  0  0  0
 11 12  2  0  0  0  0
 11 19  1  0  0  0  0
 12 13  1  0  0  0  0
 13 14  1  0  0  0  0
 13 20  2  0  0  0  0
 14 15  1  0  0  0  0
 15 16  1  0  0  0  0
 15 19  1  0  0  0  0
 16 17  2  0  0  0  0
 17 18  1  0  0  0  0
 18 19  2  0  0  0  0
 20 21  1  0  0  0  0
 20 28  1  0  0  0  0
 21 22  2  0  0  0  0
 22 23  1  0  0  0  0
 23 24  2  0  0  0  0
 23 27  1  0  0  0  0
 24 25  1  0  0  0  0
 25 26  2  0  0  0  0
 26 27  1  0  0  0  0
 27 28  2  0  0  0  0
 29 30  2  0  0  0  0
  1 31  1  0  0  0  0
  1 32  1  0  0  0  0
  1 33  1  0  0  0  0
  3 34  1  0  0  0  0
  3 35  1  0  0  0  0
  4 36  1  0  0  0  0
  4 37  1  0  0  0  0
  5 38  1  0  0  0  0
  7 39  1  0  0  0  0
  8 40  1  0  0  0  0
 10 41  1  0  0  0  0
 14 42  1  0  0  0  0
 14 43  1  0  0  0  0
 16 44  1  0  0  0  0
 17 45  1  0  0  0  0
 21 46  1  0  0  0  0
 22 47  1  0  0  0  0
 24 48  1  0  0  0  0
 28 49  1  0  0  0  0
 29 50  1  0  0  0  0
 30 51  1  0  0  0  0
M  END
> <IC50[nM]>
7.6

$$$$
CHEMBL3265035
  -OEChem-05192314333D
 Structure written by MMmdl.
 51 55  0     1  0  0  0  0  0999 V2000
   -4.5368   -3.3612   15.6406 C   0  0  0  0  0  0  0  0  0  0  0  0
   -3.9561   -2.3810   14.7221 N   0  0  2  0  0  0  0  0  0  0  0  0
   -4.6759   -2.0519   13.4970 C   0  0  0  0  0  0  0  0  0  0  0  0
   -4.8094   -3.1968   12.4731 C   0  0  0  0  0  0  0  0  0  0  0  0
   -5.3909   -2.7945   11.2538 O   0  0  0  0  0  0  0  0  0  0  0  0
   -2.5380   -2.1167   14.8106 C   0  0  0  0  0  0  0  0  0  0  0  0
   -1.9279   -1.0927   14.0460 C   0  0  0  0  0  0  0  0  0  0  0  0
   -0.5515   -0.8247   14.1929 C   0  0  0  0  0  0  0  0  0  0  0  0
    0.2181   -1.5869   15.0916 C   0  0  0  0  0  0  0  0  0  0  0  0
    1.6005   -1.3598   15.3303 N   0  0  0  0  0  0  0  0  0  0  0  0
    2.5326   -0.4516   14.7667 C   0  0  0  0  0  0  0  0  0  0  0  0
    2.1715    0.3794   13.7341 N   0  0  0  0  0  0  0  0  0  0  0  0
    3.1060    1.2367   13.2184 C   0  0  0  0  0  0  0  0  0  0  0  0
    4.4145    1.2803   13.6968 C   0  0  0  0  0  0  0  0  0  0  0  0
    4.7440    0.4821   14.7570 N   0  0  0  0  0  0  0  0  0  0  0  0
    5.8987    0.3805   15.4839 C   0  0  0  0  0  0  0  0  0  0  0  0
    5.5936   -0.5339   16.5243 C   0  0  0  0  0  0  0  0  0  0  0  0
    4.3807   -1.0510   16.3702 N   0  0  0  0  0  0  0  0  0  0  0  0
    3.8367   -0.4037   15.3198 C   0  0  0  0  0  0  0  0  0  0  0  0
    2.6315    2.1595   12.1222 C   0  0  0  0  0  0  0  0  0  0  0  0
    3.5425    2.6427   11.1618 C   0  0  0  0  0  0  0  0  0  0  0  0
    3.1486    3.4642   10.1071 C   0  0  0  0  0  0  0  0  0  0  0  0
    1.8051    3.8185   10.0149 C   0  0  0  0  0  0  0  0  0  0  0  0
    0.9940    4.5977    9.1169 C   0  0  0  0  0  0  0  0  0  0  0  0
   -0.2465    4.6060    9.5156 N   0  0  0  0  0  0  0  0  0  0  0  0
   -0.3325    3.8910   10.6299 N   0  0  0  0  0  0  0  0  0  0  0  0
    0.8808    3.3589   10.9978 C   0  0  0  0  0  0  0  0  0  0  0  0
    1.2718    2.5352   12.0615 C   0  0  0  0  0  0  0  0  0  0  0  0
   -0.3941   -2.6060   15.8167 C   0  0  0  0  0  0  0  0  0  0  0  0
   -1.7488   -2.8660   15.6892 C   0  0  0  0  0  0  0  0  0  0  0  0
   -3.8716   -3.4917   16.5069 H   0  0  0  0  0  0  0  0  0  0  0  0
   -5.5195   -3.0051   15.9834 H   0  0  0  0  0  0  0  0  0  0  0  0
   -4.6562   -4.3238   15.1218 H   0  0  0  0  0  0  0  0  0  0  0  0
   -5.6894   -1.7286   13.7768 H   0  0  0  0  0  0  0  0  0  0  0  0
   -4.1478   -1.2204   13.0075 H   0  0  0  0  0  0  0  0  0  0  0  0
   -3.8061   -3.5970   12.2653 H   0  0  0  0  0  0  0  0  0  0  0  0
   -5.4353   -3.9869   12.9136 H   0  0  0  0  0  0  0  0  0  0  0  0
   -5.4459   -3.5399   10.6675 H   0  0  0  0  0  0  0  0  0  0  0  0
   -2.5180   -0.5160   13.3491 H   0  0  0  0  0  0  0  0  0  0  0  0
   -0.0889   -0.0366   13.6173 H   0  0  0  0  0  0  0  0  0  0  0  0
    1.2421    0.3585   13.3655 H   0  0  0  0  0  0  0  0  0  0  0  0
    5.0757    1.0031   12.8625 H   0  0  0  0  0  0  0  0  0  0  0  0
    4.6175    2.3192   13.9959 H   0  0  0  0  0  0  0  0  0  0  0  0
    6.8364    0.8856   15.3048 H   0  0  0  0  0  0  0  0  0  0  0  0
    6.2618   -0.7780   17.3369 H   0  0  0  0  0  0  0  0  0  0  0  0
    4.5832    2.3665   11.2461 H   0  0  0  0  0  0  0  0  0  0  0  0
    3.8661    3.8165    9.3808 H   0  0  0  0  0  0  0  0  0  0  0  0
    1.3617    5.1041    8.2367 H   0  0  0  0  0  0  0  0  0  0  0  0
    0.5625    2.2014   12.8044 H   0  0  0  0  0  0  0  0  0  0  0  0
    0.1988   -3.2054   16.4917 H   0  0  0  0  0  0  0  0  0  0  0  0
   -2.1996   -3.6545   16.2736 H   0  0  0  0  0  0  0  0  0  0  0  0
  1  2  1  0  0  0  0
  2  3  1  0  0  0  0
  2  6  1  0  0  0  0
  3  4  1  0  0  0  0
  4  5  1  0  0  0  0
  6  7  2  0  0  0  0
  6 30  1  0  0  0  0
  7  8  1  0  0  0  0
  8  9  2  0  0  0  0
  9 10  1  0  0  0  0
  9 29  1  0  0  0  0
 10 11  2  0  0  0  0
 11 12  1  0  0  0  0
 11 19  1  0  0  0  0
 12 13  1  0  0  0  0
 13 14  1  0  0  0  0
 13 20  2  0  0  0  0
 14 15  1  0  0  0  0
 15 16  1  0  0  0  0
 15 19  1  0  0  0  0
 16 17  2  0  0  0  0
 17 18  1  0  0  0  0
 18 19  2  0  0  0  0
 20 21  1  0  0  0  0
 20 28  1  0  0  0  0
 21 22  2  0  0  0  0
 22 23  1  0  0  0  0
 23 24  2  0  0  0  0
 23 27  1  0  0  0  0
 24 25  1  0  0  0  0
 25 26  2  0  0  0  0
 26 27  1  0  0  0  0
 27 28  2  0  0  0  0
 29 30  2  0  0  0  0
  1 31  1  0  0  0  0
  1 32  1  0  0  0  0
  1 33  1  0  0  0  0
  3 34  1  0  0  0  0
  3 35  1  0  0  0  0
  4 36  1  0  0  0  0
  4 37  1  0  0  0  0
  5 38  1  0  0  0  0
  7 39  1  0  0  0  0
  8 40  1  0  0  0  0
 12 41  1  0  0  0  0
 14 42  1  0  0  0  0
 14 43  1  0  0  0  0
 16 44  1  0  0  0  0
 17 45  1  0  0  0  0
 21 46  1  0  0  0  0
 22 47  1  0  0  0  0
 24 48  1  0  0  0  0
 28 49  1  0  0  0  0
 29 50  1  0  0  0  0
 30 51  1  0  0  0  0
M  END
> <IC50[nM]>
7.6

$$$$
CHEMBL3265035
  -OEChem-05192314333D
 Structure written by MMmdl.
 51 55  0     1  0  0  0  0  0999 V2000
   -4.5368   -3.3612   15.6406 C   0  0  0  0  0  0  0  0  0  0  0  0
   -3.9561   -2.3810   14.7221 N   0  0  2  0  0  0  0  0  0  0  0  0
   -4.6759   -2.0519   13.4970 C   0  0  0  0  0  0  0  0  0  0  0  0
   -4.8094   -3.1968   12.4731 C   0  0  0  0  0  0  0  0  0  0  0  0
   -5.3909   -2.7945   11.2538 O   0  0  0  0  0  0  0  0  0  0  0  0
   -2.5380   -2.1167   14.8106 C   0  0  0  0  0  0  0  0  0  0  0  0
   -1.9279   -1.0927   14.0460 C   0  0  0  0  0  0  0  0  0  0  0  0
   -0.5515   -0.8247   14.1929 C   0  0  0  0  0  0  0  0  0  0  0  0
    0.2181   -1.5869   15.0916 C   0  0  0  0  0  0  0  0  0  0  0  0
    1.6005   -1.3598   15.3303 N   0  0  0  0  0  0  0  0  0  0  0  0
    2.5326   -0.4516   14.7667 C   0  0  0  0  0  0  0  0  0  0  0  0
    2.1715    0.3794   13.7341 N   0  0  0  0  0  0  0  0  0  0  0  0
    3.1060    1.2367   13.2184 C   0  0  0  0  0  0  0  0  0  0  0  0
    4.4145    1.2803   13.6968 C   0  0  0  0  0  0  0  0  0  0  0  0
    4.7440    0.4821   14.7570 N   0  0  0  0  0  0  0  0  0  0  0  0
    5.8987    0.3805   15.4839 C   0  0  0  0  0  0  0  0  0  0  0  0
    5.5936   -0.5339   16.5243 C   0  0  0  0  0  0  0  0  0  0  0  0
    4.3807   -1.0510   16.3702 N   0  0  0  0  0  0  0  0  0  0  0  0
    3.8367   -0.4037   15.3198 C   0  0  0  0  0  0  0  0  0  0  0  0
    2.6315    2.1595   12.1222 C   0  0  0  0  0  0  0  0  0  0  0  0
    3.5425    2.6427   11.1618 C   0  0  0  0  0  0  0  0  0  0  0  0
    3.1486    3.4642   10.1071 C   0  0  0  0  0  0  0  0  0  0  0  0
    1.8051    3.8185   10.0149 C   0  0  0  0  0  0  0  0  0  0  0  0
    0.9940    4.5977    9.1169 C   0  0  0  0  0  0  0  0  0  0  0  0
   -0.2465    4.6060    9.5156 N   0  0  0  0  0  0  0  0  0  0  0  0
   -0.3325    3.8910   10.6299 N   0  0  0  0  0  0  0  0  0  0  0  0
    0.8808    3.3589   10.9978 C   0  0  0  0  0  0  0  0  0  0  0  0
    1.2718    2.5352   12.0615 C   0  0  0  0  0  0  0  0  0  0  0  0
   -0.3941   -2.6060   15.8167 C   0  0  0  0  0  0  0  0  0  0  0  0
   -1.7488   -2.8660   15.6892 C   0  0  0  0  0  0  0  0  0  0  0  0
   -3.8716   -3.4917   16.5069 H   0  0  0  0  0  0  0  0  0  0  0  0
   -5.5195   -3.0051   15.9834 H   0  0  0  0  0  0  0  0  0  0  0  0
   -4.6562   -4.3238   15.1218 H   0  0  0  0  0  0  0  0  0  0  0  0
   -5.6894   -1.7286   13.7768 H   0  0  0  0  0  0  0  0  0  0  0  0
   -4.1478   -1.2204   13.0075 H   0  0  0  0  0  0  0  0  0  0  0  0
   -3.8061   -3.5970   12.2653 H   0  0  0  0  0  0  0  0  0  0  0  0
   -5.4353   -3.9869   12.9136 H   0  0  0  0  0  0  0  0  0  0  0  0
   -5.4459   -3.5399   10.6675 H   0  0  0  0  0  0  0  0  0  0  0  0
   -2.3452   -2.8422   14.0066 H   0  0  0  0  0  0  0  0  0  0  0  0
   -2.5180   -0.5160   13.3491 H   0  0  0  0  0  0  0  0  0  0  0  0
   -0.0889   -0.0366   13.6173 H   0  0  0  0  0  0  0  0  0  0  0  0
    5.1493    1.9279   13.2417 H   0  0  0  0  0  0  0  0  0  0  0  0
    6.8364    0.8856   15.3048 H   0  0  0  0  0  0  0  0  0  0  0  0
    6.2618   -0.7780   17.3369 H   0  0  0  0  0  0  0  0  0  0  0  0
    4.5832    2.3665   11.2461 H   0  0  0  0  0  0  0  0  0  0  0  0
    3.8661    3.8165    9.3808 H   0  0  0  0  0  0  0  0  0  0  0  0
    1.3728    5.6301    9.0899 H   0  0  0  0  0  0  0  0  0  0  0  0
    1.0476    4.1609    8.1088 H   0  0  0  0  0  0  0  0  0  0  0  0
    0.5625    2.2014   12.8044 H   0  0  0  0  0  0  0  0  0  0  0  0
    0.1988   -3.2054   16.4917 H   0  0  0  0  0  0  0  0  0  0  0  0
   -2.1996   -3.6545   16.2736 H   0  0  0  0  0  0  0  0  0  0  0  0
  1  2  1  0  0  0  0
  2  3  1  0  0  0  0
  2  6  1  0  0  0  0
  3  4  1  0  0  0  0
  4  5  1  0  0  0  0
  6  7  1  0  0  0  0
  6 30  1  0  0  0  0
  7  8  2  0  0  0  0
  8  9  1  0  0  0  0
  9 10  2  0  0  0  0
  9 29  1  0  0  0  0
 10 11  1  0  0  0  0
 11 12  2  0  0  0  0
 11 19  1  0  0  0  0
 12 13  1  0  0  0  0
 13 14  2  0  0  0  0
 13 20  1  0  0  0  0
 14 15  1  0  0  0  0
 15 16  1  0  0  0  0
 15 19  1  0  0  0  0
 16 17  2  0  0  0  0
 17 18  1  0  0  0  0
 18 19  2  0  0  0  0
 20 21  2  0  0  0  0
 20 28  1  0  0  0  0
 21 22  1  0  0  0  0
 22 23  2  0  0  0  0
 23 24  1  0  0  0  0
 23 27  1  0  0  0  0
 24 25  1  0  0  0  0
 25 26  2  0  0  0  0
 26 27  1  0  0  0  0
 27 28  2  0  0  0  0
 29 30  2  0  0  0  0
  1 31  1  0  0  0  0
  1 32  1  0  0  0  0
  1 33  1  0  0  0  0
  3 34  1  0  0  0  0
  3 35  1  0  0  0  0
  4 36  1  0  0  0  0
  4 37  1  0  0  0  0
  5 38  1  0  0  0  0
  6 39  1  0  0  0  0
  7 40  1  0  0  0  0
  8 41  1  0  0  0  0
 14 42  1  0  0  0  0
 16 43  1  0  0  0  0
 17 44  1  0  0  0  0
 21 45  1  0  0  0  0
 22 46  1  0  0  0  0
 24 47  1  0  0  0  0
 24 48  1  0  0  0  0
 28 49  1  0  0  0  0
 29 50  1  0  0  0  0
 30 51  1  0  0  0  0
M  END
> <IC50[nM]>
7.6

$$$$
CHEMBL3265035
  -OEChem-05192314333D
 Structure written by MMmdl.
 51 55  0     1  0  0  0  0  0999 V2000
   -4.5368   -3.3612   15.6406 C   0  0  0  0  0  0  0  0  0  0  0  0
   -3.9561   -2.3810   14.7221 N   0  0  2  0  0  0  0  0  0  0  0  0
   -4.6759   -2.0519   13.4970 C   0  0  0  0  0  0  0  0  0  0  0  0
   -4.8094   -3.1968   12.4731 C   0  0  0  0  0  0  0  0  0  0  0  0
   -5.3909   -2.7945   11.2538 O   0  0  0  0  0  0  0  0  0  0  0  0
   -2.5380   -2.1167   14.8106 C   0  0  0  0  0  0  0  0  0  0  0  0
   -1.9279   -1.0927   14.0460 C   0  0  0  0  0  0  0  0  0  0  0  0
   -0.5515   -0.8247   14.1929 C   0  0  0  0  0  0  0  0  0  0  0  0
    0.2181   -1.5869   15.0916 C   0  0  0  0  0  0  0  0  0  0  0  0
    1.6005   -1.3598   15.3303 N   0  0  0  0  0  0  0  0  0  0  0  0
    2.5326   -0.4516   14.7667 C   0  0  0  0  0  0  0  0  0  0  0  0
    2.1715    0.3794   13.7341 N   0  0  0  0  0  0  0  0  0  0  0  0
    3.1060    1.2367   13.2184 C   0  0  0  0  0  0  0  0  0  0  0  0
    4.4145    1.2803   13.6968 C   0  0  0  0  0  0  0  0  0  0  0  0
    4.7440    0.4821   14.7570 N   0  0  0  0  0  0  0  0  0  0  0  0
    5.8987    0.3805   15.4839 C   0  0  0  0  0  0  0  0  0  0  0  0
    5.5936   -0.5339   16.5243 C   0  0  0  0  0  0  0  0  0  0  0  0
    4.3807   -1.0510   16.3702 N   0  0  0  0  0  0  0  0  0  0  0  0
    3.8367   -0.4037   15.3198 C   0  0  0  0  0  0  0  0  0  0  0  0
    2.6315    2.1595   12.1222 C   0  0  0  0  0  0  0  0  0  0  0  0
    3.5425    2.6427   11.1618 C   0  0  0  0  0  0  0  0  0  0  0  0
    3.1486    3.4642   10.1071 C   0  0  0  0  0  0  0  0  0  0  0  0
    1.8051    3.8185   10.0149 C   0  0  0  0  0  0  0  0  0  0  0  0
    0.9940    4.5977    9.1169 C   0  0  0  0  0  0  0  0  0  0  0  0
   -0.2465    4.6060    9.5156 N   0  0  0  0  0  0  0  0  0  0  0  0
   -0.3325    3.8910   10.6299 N   0  0  0  0  0  0  0  0  0  0  0  0
    0.8808    3.3589   10.9978 C   0  0  0  0  0  0  0  0  0  0  0  0
    1.2718    2.5352   12.0615 C   0  0  0  0  0  0  0  0  0  0  0  0
   -0.3941   -2.6060   15.8167 C   0  0  0  0  0  0  0  0  0  0  0  0
   -1.7488   -2.8660   15.6892 C   0  0  0  0  0  0  0  0  0  0  0  0
   -3.8716   -3.4917   16.5069 H   0  0  0  0  0  0  0  0  0  0  0  0
   -5.5195   -3.0051   15.9834 H   0  0  0  0  0  0  0  0  0  0  0  0
   -4.6562   -4.3238   15.1218 H   0  0  0  0  0  0  0  0  0  0  0  0
   -5.6894   -1.7286   13.7768 H   0  0  0  0  0  0  0  0  0  0  0  0
   -4.1478   -1.2204   13.0075 H   0  0  0  0  0  0  0  0  0  0  0  0
   -3.8061   -3.5970   12.2653 H   0  0  0  0  0  0  0  0  0  0  0  0
   -5.4353   -3.9869   12.9136 H   0  0  0  0  0  0  0  0  0  0  0  0
   -5.4459   -3.5399   10.6675 H   0  0  0  0  0  0  0  0  0  0  0  0
   -2.5180   -0.5160   13.3491 H   0  0  0  0  0  0  0  0  0  0  0  0
   -0.0889   -0.0366   13.6173 H   0  0  0  0  0  0  0  0  0  0  0  0
    5.1493    1.9279   13.2417 H   0  0  0  0  0  0  0  0  0  0  0  0
    6.8364    0.8856   15.3048 H   0  0  0  0  0  0  0  0  0  0  0  0
    6.2618   -0.7780   17.3369 H   0  0  0  0  0  0  0  0  0  0  0  0
    4.5832    2.3665   11.2461 H   0  0  0  0  0  0  0  0  0  0  0  0
    3.8661    3.8165    9.3808 H   0  0  0  0  0  0  0  0  0  0  0  0
    1.3728    5.6301    9.0899 H   0  0  0  0  0  0  0  0  0  0  0  0
    1.0476    4.1609    8.1088 H   0  0  0  0  0  0  0  0  0  0  0  0
    0.5625    2.2014   12.8044 H   0  0  0  0  0  0  0  0  0  0  0  0
    0.1281   -3.5362   15.5482 H   0  0  0  0  0  0  0  0  0  0  0  0
   -0.2189   -2.3808   16.8791 H   0  0  0  0  0  0  0  0  0  0  0  0
   -2.1996   -3.6545   16.2736 H   0  0  0  0  0  0  0  0  0  0  0  0
  1  2  1  0  0  0  0
  2  3  1  0  0  0  0
  2  6  1  0  0  0  0
  3  4  1  0  0  0  0
  4  5  1  0  0  0  0
  6  7  1  0  0  0  0
  6 30  2  0  0  0  0
  7  8  2  0  0  0  0
  8  9  1  0  0  0  0
  9 10  2  0  0  0  0
  9 29  1  0  0  0  0
 10 11  1  0  0  0  0
 11 12  2  0  0  0  0
 11 19  1  0  0  0  0
 12 13  1  0  0  0  0
 13 14  2  0  0  0  0
 13 20  1  0  0  0  0
 14 15  1  0  0  0  0
 15 16  1  0  0  0  0
 15 19  1  0  0  0  0
 16 17  2  0  0  0  0
 17 18  1  0  0  0  0
 18 19  2  0  0  0  0
 20 21  2  0  0  0  0
 20 28  1  0  0  0  0
 21 22  1  0  0  0  0
 22 23  2  0  0  0  0
 23 24  1  0  0  0  0
 23 27  1  0  0  0  0
 24 25  1  0  0  0  0
 25 26  2  0  0  0  0
 26 27  1  0  0  0  0
 27 28  2  0  0  0  0
 29 30  1  0  0  0  0
  1 31  1  0  0  0  0
  1 32  1  0  0  0  0
  1 33  1  0  0  0  0
  3 34  1  0  0  0  0
  3 35  1  0  0  0  0
  4 36  1  0  0  0  0
  4 37  1  0  0  0  0
  5 38  1  0  0  0  0
  7 39  1  0  0  0  0
  8 40  1  0  0  0  0
 14 41  1  0  0  0  0
 16 42  1  0  0  0  0
 17 43  1  0  0  0  0
 21 44  1  0  0  0  0
 22 45  1  0  0  0  0
 24 46  1  0  0  0  0
 24 47  1  0  0  0  0
 28 48  1  0  0  0  0
 29 49  1  0  0  0  0
 29 50  1  0  0  0  0
 30 51  1  0  0  0  0
M  END
> <IC50[nM]>
7.6

$$$$
CHEMBL3265035
  -OEChem-05192314333D
 Structure written by MMmdl.
 51 55  0     1  0  0  0  0  0999 V2000
   -4.5368   -3.3612   15.6406 C   0  0  0  0  0  0  0  0  0  0  0  0
   -3.9561   -2.3810   14.7221 N   0  0  2  0  0  0  0  0  0  0  0  0
   -4.6759   -2.0519   13.4970 C   0  0  0  0  0  0  0  0  0  0  0  0
   -4.8094   -3.1968   12.4731 C   0  0  0  0  0  0  0  0  0  0  0  0
   -5.3909   -2.7945   11.2538 O   0  0  0  0  0  0  0  0  0  0  0  0
   -2.5380   -2.1167   14.8106 C   0  0  0  0  0  0  0  0  0  0  0  0
   -1.9279   -1.0927   14.0460 C   0  0  0  0  0  0  0  0  0  0  0  0
   -0.5515   -0.8247   14.1929 C   0  0  0  0  0  0  0  0  0  0  0  0
    0.2181   -1.5869   15.0916 C   0  0  0  0  0  0  0  0  0  0  0  0
    1.6005   -1.3598   15.3303 N   0  0  0  0  0  0  0  0  0  0  0  0
    2.5326   -0.4516   14.7667 C   0  0  0  0  0  0  0  0  0  0  0  0
    2.1715    0.3794   13.7341 N   0  0  0  0  0  0  0  0  0  0  0  0
    3.1060    1.2367   13.2184 C   0  0  0  0  0  0  0  0  0  0  0  0
    4.4145    1.2803   13.6968 C   0  0  0  0  0  0  0  0  0  0  0  0
    4.7440    0.4821   14.7570 N   0  0  0  0  0  0  0  0  0  0  0  0
    5.8987    0.3805   15.4839 C   0  0  0  0  0  0  0  0  0  0  0  0
    5.5936   -0.5339   16.5243 C   0  0  0  0  0  0  0  0  0  0  0  0
    4.3807   -1.0510   16.3702 N   0  0  0  0  0  0  0  0  0  0  0  0
    3.8367   -0.4037   15.3198 C   0  0  0  0  0  0  0  0  0  0  0  0
    2.6315    2.1595   12.1222 C   0  0  0  0  0  0  0  0  0  0  0  0
    3.5425    2.6427   11.1618 C   0  0  0  0  0  0  0  0  0  0  0  0
    3.1486    3.4642   10.1071 C   0  0  0  0  0  0  0  0  0  0  0  0
    1.8051    3.8185   10.0149 C   0  0  3  0  0  0  0  0  0  0  0  0
    0.9940    4.5977    9.1169 C   0  0  0  0  0  0  0  0  0  0  0  0
   -0.2465    4.6060    9.5156 N   0  0  0  0  0  0  0  0  0  0  0  0
   -0.3325    3.8910   10.6299 N   0  0  0  0  0  0  0  0  0  0  0  0
    0.8808    3.3589   10.9978 C   0  0  0  0  0  0  0  0  0  0  0  0
    1.2718    2.5352   12.0615 C   0  0  0  0  0  0  0  0  0  0  0  0
   -0.3941   -2.6060   15.8167 C   0  0  0  0  0  0  0  0  0  0  0  0
   -1.7488   -2.8660   15.6892 C   0  0  0  0  0  0  0  0  0  0  0  0
   -3.8716   -3.4917   16.5069 H   0  0  0  0  0  0  0  0  0  0  0  0
   -5.5195   -3.0051   15.9834 H   0  0  0  0  0  0  0  0  0  0  0  0
   -4.6562   -4.3238   15.1218 H   0  0  0  0  0  0  0  0  0  0  0  0
   -5.6894   -1.7286   13.7768 H   0  0  0  0  0  0  0  0  0  0  0  0
   -4.1478   -1.2204   13.0075 H   0  0  0  0  0  0  0  0  0  0  0  0
   -3.8061   -3.5970   12.2653 H   0  0  0  0  0  0  0  0  0  0  0  0
   -5.4353   -3.9869   12.9136 H   0  0  0  0  0  0  0  0  0  0  0  0
   -5.4459   -3.5399   10.6675 H   0  0  0  0  0  0  0  0  0  0  0  0
   -2.5180   -0.5160   13.3491 H   0  0  0  0  0  0  0  0  0  0  0  0
   -0.0889   -0.0366   13.6173 H   0  0  0  0  0  0  0  0  0  0  0  0
    1.9918   -1.9558   16.0315 H   0  0  0  0  0  0  0  0  0  0  0  0
    5.1493    1.9279   13.2417 H   0  0  0  0  0  0  0  0  0  0  0  0
    6.8364    0.8856   15.3048 H   0  0  0  0  0  0  0  0  0  0  0  0
    6.2618   -0.7780   17.3369 H   0  0  0  0  0  0  0  0  0  0  0  0
    4.5832    2.3665   11.2461 H   0  0  0  0  0  0  0  0  0  0  0  0
    3.8661    3.8165    9.3808 H   0  0  0  0  0  0  0  0  0  0  0  0
    2.0004    4.7171   10.6185 H   0  0  0  0  0  0  0  0  0  0  0  0
    1.3617    5.1041    8.2367 H   0  0  0  0  0  0  0  0  0  0  0  0
    0.5625    2.2014   12.8044 H   0  0  0  0  0  0  0  0  0  0  0  0
    0.1988   -3.2054   16.4917 H   0  0  0  0  0  0  0  0  0  0  0  0
   -2.1996   -3.6545   16.2736 H   0  0  0  0  0  0  0  0  0  0  0  0
  1  2  1  0  0  0  0
  2  3  1  0  0  0  0
  2  6  1  0  0  0  0
  3  4  1  0  0  0  0
  4  5  1  0  0  0  0
  6  7  2  0  0  0  0
  6 30  1  0  0  0  0
  7  8  1  0  0  0  0
  8  9  2  0  0  0  0
  9 10  1  0  0  0  0
  9 29  1  0  0  0  0
 10 11  1  0  0  0  0
 11 12  2  0  0  0  0
 11 19  1  0  0  0  0
 12 13  1  0  0  0  0
 13 14  2  0  0  0  0
 13 20  1  0  0  0  0
 14 15  1  0  0  0  0
 15 16  1  0  0  0  0
 15 19  1  0  0  0  0
 16 17  2  0  0  0  0
 17 18  1  0  0  0  0
 18 19  2  0  0  0  0
 20 21  1  0  0  0  0
 20 28  2  0  0  0  0
 21 22  2  0  0  0  0
 22 23  1  0  0  0  0
 23 24  1  0  0  0  0
 23 27  1  0  0  0  0
 24 25  2  0  0  0  0
 25 26  1  0  0  0  0
 26 27  2  0  0  0  0
 27 28  1  0  0  0  0
 29 30  2  0  0  0  0
  1 31  1  0  0  0  0
  1 32  1  0  0  0  0
  1 33  1  0  0  0  0
  3 34  1  0  0  0  0
  3 35  1  0  0  0  0
  4 36  1  0  0  0  0
  4 37  1  0  0  0  0
  5 38  1  0  0  0  0
  7 39  1  0  0  0  0
  8 40  1  0  0  0  0
 10 41  1  0  0  0  0
 14 42  1  0  0  0  0
 16 43  1  0  0  0  0
 17 44  1  0  0  0  0
 21 45  1  0  0  0  0
 22 46  1  0  0  0  0
 23 47  1  0  0  0  0
 24 48  1  0  0  0  0
 28 49  1  0  0  0  0
 29 50  1  0  0  0  0
 30 51  1  0  0  0  0
M  END
> <IC50[nM]>
7.6

$$$$
CHEMBL3265035
  -OEChem-05192314333D
 Structure written by MMmdl.
 51 55  0     1  0  0  0  0  0999 V2000
   -4.5368   -3.3612   15.6406 C   0  0  0  0  0  0  0  0  0  0  0  0
   -3.9561   -2.3810   14.7221 N   0  0  2  0  0  0  0  0  0  0  0  0
   -4.6759   -2.0519   13.4970 C   0  0  0  0  0  0  0  0  0  0  0  0
   -4.8094   -3.1968   12.4731 C   0  0  0  0  0  0  0  0  0  0  0  0
   -5.3909   -2.7945   11.2538 O   0  0  0  0  0  0  0  0  0  0  0  0
   -2.5380   -2.1167   14.8106 C   0  0  0  0  0  0  0  0  0  0  0  0
   -1.9279   -1.0927   14.0460 C   0  0  0  0  0  0  0  0  0  0  0  0
   -0.5515   -0.8247   14.1929 C   0  0  0  0  0  0  0  0  0  0  0  0
    0.2181   -1.5869   15.0916 C   0  0  0  0  0  0  0  0  0  0  0  0
    1.6005   -1.3598   15.3303 N   0  0  0  0  0  0  0  0  0  0  0  0
    2.5326   -0.4516   14.7667 C   0  0  0  0  0  0  0  0  0  0  0  0
    2.1715    0.3794   13.7341 N   0  0  0  0  0  0  0  0  0  0  0  0
    3.1060    1.2367   13.2184 C   0  0  0  0  0  0  0  0  0  0  0  0
    4.4145    1.2803   13.6968 C   0  0  0  0  0  0  0  0  0  0  0  0
    4.7440    0.4821   14.7570 N   0  0  0  0  0  0  0  0  0  0  0  0
    5.8987    0.3805   15.4839 C   0  0  0  0  0  0  0  0  0  0  0  0
    5.5936   -0.5339   16.5243 C   0  0  0  0  0  0  0  0  0  0  0  0
    4.3807   -1.0510   16.3702 N   0  0  0  0  0  0  0  0  0  0  0  0
    3.8367   -0.4037   15.3198 C   0  0  0  0  0  0  0  0  0  0  0  0
    2.6315    2.1595   12.1222 C   0  0  0  0  0  0  0  0  0  0  0  0
    3.5425    2.6427   11.1618 C   0  0  0  0  0  0  0  0  0  0  0  0
    3.1486    3.4642   10.1071 C   0  0  0  0  0  0  0  0  0  0  0  0
    1.8051    3.8185   10.0149 C   0  0  0  0  0  0  0  0  0  0  0  0
    0.9940    4.5977    9.1169 C   0  0  0  0  0  0  0  0  0  0  0  0
   -0.2465    4.6060    9.5156 N   0  0  0  0  0  0  0  0  0  0  0  0
   -0.3325    3.8910   10.6299 N   0  0  0  0  0  0  0  0  0  0  0  0
    0.8808    3.3589   10.9978 C   0  0  0  0  0  0  0  0  0  0  0  0
    1.2718    2.5352   12.0615 C   0  0  0  0  0  0  0  0  0  0  0  0
   -0.3941   -2.6060   15.8167 C   0  0  0  0  0  0  0  0  0  0  0  0
   -1.7488   -2.8660   15.6892 C   0  0  0  0  0  0  0  0  0  0  0  0
   -3.8716   -3.4917   16.5069 H   0  0  0  0  0  0  0  0  0  0  0  0
   -5.5195   -3.0051   15.9834 H   0  0  0  0  0  0  0  0  0  0  0  0
   -4.6562   -4.3238   15.1218 H   0  0  0  0  0  0  0  0  0  0  0  0
   -5.6894   -1.7286   13.7768 H   0  0  0  0  0  0  0  0  0  0  0  0
   -4.1478   -1.2204   13.0075 H   0  0  0  0  0  0  0  0  0  0  0  0
   -3.8061   -3.5970   12.2653 H   0  0  0  0  0  0  0  0  0  0  0  0
   -5.4353   -3.9869   12.9136 H   0  0  0  0  0  0  0  0  0  0  0  0
   -5.4459   -3.5399   10.6675 H   0  0  0  0  0  0  0  0  0  0  0  0
   -2.5180   -0.5160   13.3491 H   0  0  0  0  0  0  0  0  0  0  0  0
   -0.0889   -0.0366   13.6173 H   0  0  0  0  0  0  0  0  0  0  0  0
    1.9918   -1.9558   16.0315 H   0  0  0  0  0  0  0  0  0  0  0  0
    5.1493    1.9279   13.2417 H   0  0  0  0  0  0  0  0  0  0  0  0
    6.8364    0.8856   15.3048 H   0  0  0  0  0  0  0  0  0  0  0  0
    6.2618   -0.7780   17.3369 H   0  0  0  0  0  0  0  0  0  0  0  0
    4.3057    3.2053   11.7195 H   0  0  0  0  0  0  0  0  0  0  0  0
    4.0033    1.7554   10.7032 H   0  0  0  0  0  0  0  0  0  0  0  0
    3.8661    3.8165    9.3808 H   0  0  0  0  0  0  0  0  0  0  0  0
    1.3617    5.1041    8.2367 H   0  0  0  0  0  0  0  0  0  0  0  0
    0.5625    2.2014   12.8044 H   0  0  0  0  0  0  0  0  0  0  0  0
    0.1988   -3.2054   16.4917 H   0  0  0  0  0  0  0  0  0  0  0  0
   -2.1996   -3.6545   16.2736 H   0  0  0  0  0  0  0  0  0  0  0  0
  1  2  1  0  0  0  0
  2  3  1  0  0  0  0
  2  6  1  0  0  0  0
  3  4  1  0  0  0  0
  4  5  1  0  0  0  0
  6  7  2  0  0  0  0
  6 30  1  0  0  0  0
  7  8  1  0  0  0  0
  8  9  2  0  0  0  0
  9 10  1  0  0  0  0
  9 29  1  0  0  0  0
 10 11  1  0  0  0  0
 11 12  2  0  0  0  0
 11 19  1  0  0  0  0
 12 13  1  0  0  0  0
 13 14  2  0  0  0  0
 13 20  1  0  0  0  0
 14 15  1  0  0  0  0
 15 16  1  0  0  0  0
 15 19  1  0  0  0  0
 16 17  2  0  0  0  0
 17 18  1  0  0  0  0
 18 19  2  0  0  0  0
 20 21  1  0  0  0  0
 20 28  2  0  0  0  0
 21 22  1  0  0  0  0
 22 23  2  0  0  0  0
 23 24  1  0  0  0  0
 23 27  1  0  0  0  0
 24 25  2  0  0  0  0
 25 26  1  0  0  0  0
 26 27  2  0  0  0  0
 27 28  1  0  0  0  0
 29 30  2  0  0  0  0
  1 31  1  0  0  0  0
  1 32  1  0  0  0  0
  1 33  1  0  0  0  0
  3 34  1  0  0  0  0
  3 35  1  0  0  0  0
  4 36  1  0  0  0  0
  4 37  1  0  0  0  0
  5 38  1  0  0  0  0
  7 39  1  0  0  0  0
  8 40  1  0  0  0  0
 10 41  1  0  0  0  0
 14 42  1  0  0  0  0
 16 43  1  0  0  0  0
 17 44  1  0  0  0  0
 21 45  1  0  0  0  0
 21 46  1  0  0  0  0
 22 47  1  0  0  0  0
 24 48  1  0  0  0  0
 28 49  1  0  0  0  0
 29 50  1  0  0  0  0
 30 51  1  0  0  0  0
M  END
> <IC50[nM]>
7.6

$$$$
CHEMBL3265035
  -OEChem-05192314333D
 Structure written by MMmdl.
 51 55  0     1  0  0  0  0  0999 V2000
   -4.5368   -3.3612   15.6406 C   0  0  0  0  0  0  0  0  0  0  0  0
   -3.9561   -2.3810   14.7221 N   0  0  2  0  0  0  0  0  0  0  0  0
   -4.6759   -2.0519   13.4970 C   0  0  0  0  0  0  0  0  0  0  0  0
   -4.8094   -3.1968   12.4731 C   0  0  0  0  0  0  0  0  0  0  0  0
   -5.3909   -2.7945   11.2538 O   0  0  0  0  0  0  0  0  0  0  0  0
   -2.5380   -2.1167   14.8106 C   0  0  0  0  0  0  0  0  0  0  0  0
   -1.9279   -1.0927   14.0460 C   0  0  0  0  0  0  0  0  0  0  0  0
   -0.5515   -0.8247   14.1929 C   0  0  0  0  0  0  0  0  0  0  0  0
    0.2181   -1.5869   15.0916 C   0  0  0  0  0  0  0  0  0  0  0  0
    1.6005   -1.3598   15.3303 N   0  0  0  0  0  0  0  0  0  0  0  0
    2.5326   -0.4516   14.7667 C   0  0  0  0  0  0  0  0  0  0  0  0
    2.1715    0.3794   13.7341 N   0  0  0  0  0  0  0  0  0  0  0  0
    3.1060    1.2367   13.2184 C   0  0  0  0  0  0  0  0  0  0  0  0
    4.4145    1.2803   13.6968 C   0  0  0  0  0  0  0  0  0  0  0  0
    4.7440    0.4821   14.7570 N   0  0  0  0  0  0  0  0  0  0  0  0
    5.8987    0.3805   15.4839 C   0  0  0  0  0  0  0  0  0  0  0  0
    5.5936   -0.5339   16.5243 C   0  0  0  0  0  0  0  0  0  0  0  0
    4.3807   -1.0510   16.3702 N   0  0  0  0  0  0  0  0  0  0  0  0
    3.8367   -0.4037   15.3198 C   0  0  0  0  0  0  0  0  0  0  0  0
    2.6315    2.1595   12.1222 C   0  0  0  0  0  0  0  0  0  0  0  0
    3.5425    2.6427   11.1618 C   0  0  0  0  0  0  0  0  0  0  0  0
    3.1486    3.4642   10.1071 C   0  0  0  0  0  0  0  0  0  0  0  0
    1.8051    3.8185   10.0149 C   0  0  0  0  0  0  0  0  0  0  0  0
    0.9940    4.5977    9.1169 C   0  0  0  0  0  0  0  0  0  0  0  0
   -0.2465    4.6060    9.5156 N   0  0  0  0  0  0  0  0  0  0  0  0
   -0.3325    3.8910   10.6299 N   0  0  0  0  0  0  0  0  0  0  0  0
    0.8808    3.3589   10.9978 C   0  0  0  0  0  0  0  0  0  0  0  0
    1.2718    2.5352   12.0615 C   0  0  0  0  0  0  0  0  0  0  0  0
   -0.3941   -2.6060   15.8167 C   0  0  0  0  0  0  0  0  0  0  0  0
   -1.7488   -2.8660   15.6892 C   0  0  0  0  0  0  0  0  0  0  0  0
   -3.8716   -3.4917   16.5069 H   0  0  0  0  0  0  0  0  0  0  0  0
   -5.5195   -3.0051   15.9834 H   0  0  0  0  0  0  0  0  0  0  0  0
   -4.6562   -4.3238   15.1218 H   0  0  0  0  0  0  0  0  0  0  0  0
   -5.6894   -1.7286   13.7768 H   0  0  0  0  0  0  0  0  0  0  0  0
   -4.1478   -1.2204   13.0075 H   0  0  0  0  0  0  0  0  0  0  0  0
   -3.8061   -3.5970   12.2653 H   0  0  0  0  0  0  0  0  0  0  0  0
   -5.4353   -3.9869   12.9136 H   0  0  0  0  0  0  0  0  0  0  0  0
   -5.4459   -3.5399   10.6675 H   0  0  0  0  0  0  0  0  0  0  0  0
   -2.5180   -0.5160   13.3491 H   0  0  0  0  0  0  0  0  0  0  0  0
   -0.0889   -0.0366   13.6173 H   0  0  0  0  0  0  0  0  0  0  0  0
    1.9918   -1.9558   16.0315 H   0  0  0  0  0  0  0  0  0  0  0  0
    5.1493    1.9279   13.2417 H   0  0  0  0  0  0  0  0  0  0  0  0
    6.8364    0.8856   15.3048 H   0  0  0  0  0  0  0  0  0  0  0  0
    6.2618   -0.7780   17.3369 H   0  0  0  0  0  0  0  0  0  0  0  0
    4.5832    2.3665   11.2461 H   0  0  0  0  0  0  0  0  0  0  0  0
    3.8661    3.8165    9.3808 H   0  0  0  0  0  0  0  0  0  0  0  0
    1.3617    5.1041    8.2367 H   0  0  0  0  0  0  0  0  0  0  0  0
    0.6761    1.6124   12.0014 H   0  0  0  0  0  0  0  0  0  0  0  0
    1.0333    3.0654   12.9953 H   0  0  0  0  0  0  0  0  0  0  0  0
    0.1988   -3.2054   16.4917 H   0  0  0  0  0  0  0  0  0  0  0  0
   -2.1996   -3.6545   16.2736 H   0  0  0  0  0  0  0  0  0  0  0  0
  1  2  1  0  0  0  0
  2  3  1  0  0  0  0
  2  6  1  0  0  0  0
  3  4  1  0  0  0  0
  4  5  1  0  0  0  0
  6  7  2  0  0  0  0
  6 30  1  0  0  0  0
  7  8  1  0  0  0  0
  8  9  2  0  0  0  0
  9 10  1  0  0  0  0
  9 29  1  0  0  0  0
 10 11  1  0  0  0  0
 11 12  2  0  0  0  0
 11 19  1  0  0  0  0
 12 13  1  0  0  0  0
 13 14  2  0  0  0  0
 13 20  1  0  0  0  0
 14 15  1  0  0  0  0
 15 16  1  0  0  0  0
 15 19  1  0  0  0  0
 16 17  2  0  0  0  0
 17 18  1  0  0  0  0
 18 19  2  0  0  0  0
 20 21  2  0  0  0  0
 20 28  1  0  0  0  0
 21 22  1  0  0  0  0
 22 23  2  0  0  0  0
 23 24  1  0  0  0  0
 23 27  1  0  0  0  0
 24 25  2  0  0  0  0
 25 26  1  0  0  0  0
 26 27  2  0  0  0  0
 27 28  1  0  0  0  0
 29 30  2  0  0  0  0
  1 31  1  0  0  0  0
  1 32  1  0  0  0  0
  1 33  1  0  0  0  0
  3 34  1  0  0  0  0
  3 35  1  0  0  0  0
  4 36  1  0  0  0  0
  4 37  1  0  0  0  0
  5 38  1  0  0  0  0
  7 39  1  0  0  0  0
  8 40  1  0  0  0  0
 10 41  1  0  0  0  0
 14 42  1  0  0  0  0
 16 43  1  0  0  0  0
 17 44  1  0  0  0  0
 21 45  1  0  0  0  0
 22 46  1  0  0  0  0
 24 47  1  0  0  0  0
 28 48  1  0  0  0  0
 28 49  1  0  0  0  0
 29 50  1  0  0  0  0
 30 51  1  0  0  0  0
M  END
> <IC50[nM]>
7.6

$$$$
CHEMBL3265035
  -OEChem-05192314333D
 Structure written by MMmdl.
 51 55  0     1  0  0  0  0  0999 V2000
   -4.5368   -3.3612   15.6406 C   0  0  0  0  0  0  0  0  0  0  0  0
   -3.9561   -2.3810   14.7221 N   0  0  2  0  0  0  0  0  0  0  0  0
   -4.6759   -2.0519   13.4970 C   0  0  0  0  0  0  0  0  0  0  0  0
   -4.8094   -3.1968   12.4731 C   0  0  0  0  0  0  0  0  0  0  0  0
   -5.3909   -2.7945   11.2538 O   0  0  0  0  0  0  0  0  0  0  0  0
   -2.5380   -2.1167   14.8106 C   0  0  0  0  0  0  0  0  0  0  0  0
   -1.9279   -1.0927   14.0460 C   0  0  0  0  0  0  0  0  0  0  0  0
   -0.5515   -0.8247   14.1929 C   0  0  0  0  0  0  0  0  0  0  0  0
    0.2181   -1.5869   15.0916 C   0  0  0  0  0  0  0  0  0  0  0  0
    1.6005   -1.3598   15.3303 N   0  0  0  0  0  0  0  0  0  0  0  0
    2.5326   -0.4516   14.7667 C   0  0  0  0  0  0  0  0  0  0  0  0
    2.1715    0.3794   13.7341 N   0  0  0  0  0  0  0  0  0  0  0  0
    3.1060    1.2367   13.2184 C   0  0  0  0  0  0  0  0  0  0  0  0
    4.4145    1.2803   13.6968 C   0  0  0  0  0  0  0  0  0  0  0  0
    4.7440    0.4821   14.7570 N   0  0  0  0  0  0  0  0  0  0  0  0
    5.8987    0.3805   15.4839 C   0  0  0  0  0  0  0  0  0  0  0  0
    5.5936   -0.5339   16.5243 C   0  0  0  0  0  0  0  0  0  0  0  0
    4.3807   -1.0510   16.3702 N   0  0  0  0  0  0  0  0  0  0  0  0
    3.8367   -0.4037   15.3198 C   0  0  0  0  0  0  0  0  0  0  0  0
    2.6315    2.1595   12.1222 C   0  0  3  0  0  0  0  0  0  0  0  0
    3.5425    2.6427   11.1618 C   0  0  0  0  0  0  0  0  0  0  0  0
    3.1486    3.4642   10.1071 C   0  0  0  0  0  0  0  0  0  0  0  0
    1.8051    3.8185   10.0149 C   0  0  0  0  0  0  0  0  0  0  0  0
    0.9940    4.5977    9.1169 C   0  0  0  0  0  0  0  0  0  0  0  0
   -0.2465    4.6060    9.5156 N   0  0  0  0  0  0  0  0  0  0  0  0
   -0.3325    3.8910   10.6299 N   0  0  0  0  0  0  0  0  0  0  0  0
    0.8808    3.3589   10.9978 C   0  0  0  0  0  0  0  0  0  0  0  0
    1.2718    2.5352   12.0615 C   0  0  0  0  0  0  0  0  0  0  0  0
   -0.3941   -2.6060   15.8167 C   0  0  0  0  0  0  0  0  0  0  0  0
   -1.7488   -2.8660   15.6892 C   0  0  0  0  0  0  0  0  0  0  0  0
   -3.8716   -3.4917   16.5069 H   0  0  0  0  0  0  0  0  0  0  0  0
   -5.5195   -3.0051   15.9834 H   0  0  0  0  0  0  0  0  0  0  0  0
   -4.6562   -4.3238   15.1218 H   0  0  0  0  0  0  0  0  0  0  0  0
   -5.6894   -1.7286   13.7768 H   0  0  0  0  0  0  0  0  0  0  0  0
   -4.1478   -1.2204   13.0075 H   0  0  0  0  0  0  0  0  0  0  0  0
   -3.8061   -3.5970   12.2653 H   0  0  0  0  0  0  0  0  0  0  0  0
   -5.4353   -3.9869   12.9136 H   0  0  0  0  0  0  0  0  0  0  0  0
   -5.4459   -3.5399   10.6675 H   0  0  0  0  0  0  0  0  0  0  0  0
   -2.5180   -0.5160   13.3491 H   0  0  0  0  0  0  0  0  0  0  0  0
   -0.0889   -0.0366   13.6173 H   0  0  0  0  0  0  0  0  0  0  0  0
    1.9918   -1.9558   16.0315 H   0  0  0  0  0  0  0  0  0  0  0  0
    5.1493    1.9279   13.2417 H   0  0  0  0  0  0  0  0  0  0  0  0
    6.8364    0.8856   15.3048 H   0  0  0  0  0  0  0  0  0  0  0  0
    6.2618   -0.7780   17.3369 H   0  0  0  0  0  0  0  0  0  0  0  0
    2.8437    3.0290   12.7617 H   0  0  0  0  0  0  0  0  0  0  0  0
    4.5832    2.3665   11.2461 H   0  0  0  0  0  0  0  0  0  0  0  0
    3.8661    3.8165    9.3808 H   0  0  0  0  0  0  0  0  0  0  0  0
    1.3617    5.1041    8.2367 H   0  0  0  0  0  0  0  0  0  0  0  0
    0.5625    2.2014   12.8044 H   0  0  0  0  0  0  0  0  0  0  0  0
    0.1988   -3.2054   16.4917 H   0  0  0  0  0  0  0  0  0  0  0  0
   -2.1996   -3.6545   16.2736 H   0  0  0  0  0  0  0  0  0  0  0  0
  1  2  1  0  0  0  0
  2  3  1  0  0  0  0
  2  6  1  0  0  0  0
  3  4  1  0  0  0  0
  4  5  1  0  0  0  0
  6  7  2  0  0  0  0
  6 30  1  0  0  0  0
  7  8  1  0  0  0  0
  8  9  2  0  0  0  0
  9 10  1  0  0  0  0
  9 29  1  0  0  0  0
 10 11  1  0  0  0  0
 11 12  2  0  0  0  0
 11 19  1  0  0  0  0
 12 13  1  0  0  0  0
 13 14  2  0  0  0  0
 13 20  1  0  0  0  0
 14 15  1  0  0  0  0
 15 16  1  0  0  0  0
 15 19  1  0  0  0  0
 16 17  2  0  0  0  0
 17 18  1  0  0  0  0
 18 19  2  0  0  0  0
 20 21  1  0  0  0  0
 20 28  1  0  0  0  0
 21 22  2  0  0  0  0
 22 23  1  0  0  0  0
 23 24  2  0  0  0  0
 23 27  1  0  0  0  0
 24 25  1  0  0  0  0
 25 26  2  0  0  0  0
 26 27  1  0  0  0  0
 27 28  2  0  0  0  0
 29 30  2  0  0  0  0
  1 31  1  0  0  0  0
  1 32  1  0  0  0  0
  1 33  1  0  0  0  0
  3 34  1  0  0  0  0
  3 35  1  0  0  0  0
  4 36  1  0  0  0  0
  4 37  1  0  0  0  0
  5 38  1  0  0  0  0
  7 39  1  0  0  0  0
  8 40  1  0  0  0  0
 10 41  1  0  0  0  0
 14 42  1  0  0  0  0
 16 43  1  0  0  0  0
 17 44  1  0  0  0  0
 20 45  1  0  0  0  0
 21 46  1  0  0  0  0
 22 47  1  0  0  0  0
 24 48  1  0  0  0  0
 28 49  1  0  0  0  0
 29 50  1  0  0  0  0
 30 51  1  0  0  0  0
M  END
> <IC50[nM]>
7.6

$$$$
CHEMBL3265035
  -OEChem-05192314333D
 Structure written by MMmdl.
 51 55  0     1  0  0  0  0  0999 V2000
   -4.5368   -3.3612   15.6406 C   0  0  0  0  0  0  0  0  0  0  0  0
   -3.9561   -2.3810   14.7221 N   0  0  2  0  0  0  0  0  0  0  0  0
   -4.6759   -2.0519   13.4970 C   0  0  0  0  0  0  0  0  0  0  0  0
   -4.8094   -3.1968   12.4731 C   0  0  0  0  0  0  0  0  0  0  0  0
   -5.3909   -2.7945   11.2538 O   0  0  0  0  0  0  0  0  0  0  0  0
   -2.5380   -2.1167   14.8106 C   0  0  0  0  0  0  0  0  0  0  0  0
   -1.9279   -1.0927   14.0460 C   0  0  0  0  0  0  0  0  0  0  0  0
   -0.5515   -0.8247   14.1929 C   0  0  0  0  0  0  0  0  0  0  0  0
    0.2181   -1.5869   15.0916 C   0  0  0  0  0  0  0  0  0  0  0  0
    1.6005   -1.3598   15.3303 N   0  0  0  0  0  0  0  0  0  0  0  0
    2.5326   -0.4516   14.7667 C   0  0  0  0  0  0  0  0  0  0  0  0
    2.1715    0.3794   13.7341 N   0  0  0  0  0  0  0  0  0  0  0  0
    3.1060    1.2367   13.2184 C   0  0  0  0  0  0  0  0  0  0  0  0
    4.4145    1.2803   13.6968 C   0  0  0  0  0  0  0  0  0  0  0  0
    4.7440    0.4821   14.7570 N   0  0  0  0  0  0  0  0  0  0  0  0
    5.8987    0.3805   15.4839 C   0  0  0  0  0  0  0  0  0  0  0  0
    5.5936   -0.5339   16.5243 C   0  0  0  0  0  0  0  0  0  0  0  0
    4.3807   -1.0510   16.3702 N   0  0  0  0  0  0  0  0  0  0  0  0
    3.8367   -0.4037   15.3198 C   0  0  0  0  0  0  0  0  0  0  0  0
    2.6315    2.1595   12.1222 C   0  0  0  0  0  0  0  0  0  0  0  0
    3.5425    2.6427   11.1618 C   0  0  0  0  0  0  0  0  0  0  0  0
    3.1486    3.4642   10.1071 C   0  0  0  0  0  0  0  0  0  0  0  0
    1.8051    3.8185   10.0149 C   0  0  0  0  0  0  0  0  0  0  0  0
    0.9940    4.5977    9.1169 C   0  0  0  0  0  0  0  0  0  0  0  0
   -0.2465    4.6060    9.5156 N   0  0  0  0  0  0  0  0  0  0  0  0
   -0.3325    3.8910   10.6299 N   0  0  0  0  0  0  0  0  0  0  0  0
    0.8808    3.3589   10.9978 C   0  0  3  0  0  0  0  0  0  0  0  0
    1.2718    2.5352   12.0615 C   0  0  0  0  0  0  0  0  0  0  0  0
   -0.3941   -2.6060   15.8167 C   0  0  0  0  0  0  0  0  0  0  0  0
   -1.7488   -2.8660   15.6892 C   0  0  0  0  0  0  0  0  0  0  0  0
   -3.8716   -3.4917   16.5069 H   0  0  0  0  0  0  0  0  0  0  0  0
   -5.5195   -3.0051   15.9834 H   0  0  0  0  0  0  0  0  0  0  0  0
   -4.6562   -4.3238   15.1218 H   0  0  0  0  0  0  0  0  0  0  0  0
   -5.6894   -1.7286   13.7768 H   0  0  0  0  0  0  0  0  0  0  0  0
   -4.1478   -1.2204   13.0075 H   0  0  0  0  0  0  0  0  0  0  0  0
   -3.8061   -3.5970   12.2653 H   0  0  0  0  0  0  0  0  0  0  0  0
   -5.4353   -3.9869   12.9136 H   0  0  0  0  0  0  0  0  0  0  0  0
   -5.4459   -3.5399   10.6675 H   0  0  0  0  0  0  0  0  0  0  0  0
   -2.5180   -0.5160   13.3491 H   0  0  0  0  0  0  0  0  0  0  0  0
   -0.0889   -0.0366   13.6173 H   0  0  0  0  0  0  0  0  0  0  0  0
    1.9918   -1.9558   16.0315 H   0  0  0  0  0  0  0  0  0  0  0  0
    5.1493    1.9279   13.2417 H   0  0  0  0  0  0  0  0  0  0  0  0
    6.8364    0.8856   15.3048 H   0  0  0  0  0  0  0  0  0  0  0  0
    6.2618   -0.7780   17.3369 H   0  0  0  0  0  0  0  0  0  0  0  0
    4.5832    2.3665   11.2461 H   0  0  0  0  0  0  0  0  0  0  0  0
    3.8661    3.8165    9.3808 H   0  0  0  0  0  0  0  0  0  0  0  0
    1.3617    5.1041    8.2367 H   0  0  0  0  0  0  0  0  0  0  0  0
    1.0871    4.2493   11.6099 H   0  0  0  0  0  0  0  0  0  0  0  0
    0.5625    2.2014   12.8044 H   0  0  0  0  0  0  0  0  0  0  0  0
    0.1988   -3.2054   16.4917 H   0  0  0  0  0  0  0  0  0  0  0  0
   -2.1996   -3.6545   16.2736 H   0  0  0  0  0  0  0  0  0  0  0  0
  1  2  1  0  0  0  0
  2  3  1  0  0  0  0
  2  6  1  0  0  0  0
  3  4  1  0  0  0  0
  4  5  1  0  0  0  0
  6  7  2  0  0  0  0
  6 30  1  0  0  0  0
  7  8  1  0  0  0  0
  8  9  2  0  0  0  0
  9 10  1  0  0  0  0
  9 29  1  0  0  0  0
 10 11  1  0  0  0  0
 11 12  2  0  0  0  0
 11 19  1  0  0  0  0
 12 13  1  0  0  0  0
 13 14  2  0  0  0  0
 13 20  1  0  0  0  0
 14 15  1  0  0  0  0
 15 16  1  0  0  0  0
 15 19  1  0  0  0  0
 16 17  2  0  0  0  0
 17 18  1  0  0  0  0
 18 19  2  0  0  0  0
 20 21  1  0  0  0  0
 20 28  2  0  0  0  0
 21 22  2  0  0  0  0
 22 23  1  0  0  0  0
 23 24  2  0  0  0  0
 23 27  1  0  0  0  0
 24 25  1  0  0  0  0
 25 26  2  0  0  0  0
 26 27  1  0  0  0  0
 27 28  1  0  0  0  0
 29 30  2  0  0  0  0
  1 31  1  0  0  0  0
  1 32  1  0  0  0  0
  1 33  1  0  0  0  0
  3 34  1  0  0  0  0
  3 35  1  0  0  0  0
  4 36  1  0  0  0  0
  4 37  1  0  0  0  0
  5 38  1  0  0  0  0
  7 39  1  0  0  0  0
  8 40  1  0  0  0  0
 10 41  1  0  0  0  0
 14 42  1  0  0  0  0
 16 43  1  0  0  0  0
 17 44  1  0  0  0  0
 21 45  1  0  0  0  0
 22 46  1  0  0  0  0
 24 47  1  0  0  0  0
 27 48  1  0  0  0  0
 28 49  1  0  0  0  0
 29 50  1  0  0  0  0
 30 51  1  0  0  0  0
M  END
> <IC50[nM]>
7.6

$$$$
CHEMBL3265035
  -OEChem-05192314333D
 Structure written by MMmdl.
 51 55  0     1  0  0  0  0  0999 V2000
   -4.5368   -3.3612   15.6406 C   0  0  0  0  0  0  0  0  0  0  0  0
   -3.9561   -2.3810   14.7221 N   0  0  2  0  0  0  0  0  0  0  0  0
   -4.6759   -2.0519   13.4970 C   0  0  0  0  0  0  0  0  0  0  0  0
   -4.8094   -3.1968   12.4731 C   0  0  0  0  0  0  0  0  0  0  0  0
   -5.3909   -2.7945   11.2538 O   0  0  0  0  0  0  0  0  0  0  0  0
   -2.5380   -2.1167   14.8106 C   0  0  0  0  0  0  0  0  0  0  0  0
   -1.9279   -1.0927   14.0460 C   0  0  0  0  0  0  0  0  0  0  0  0
   -0.5515   -0.8247   14.1929 C   0  0  0  0  0  0  0  0  0  0  0  0
    0.2181   -1.5869   15.0916 C   0  0  0  0  0  0  0  0  0  0  0  0
    1.6005   -1.3598   15.3303 N   0  0  0  0  0  0  0  0  0  0  0  0
    2.5326   -0.4516   14.7667 C   0  0  0  0  0  0  0  0  0  0  0  0
    2.1715    0.3794   13.7341 N   0  0  0  0  0  0  0  0  0  0  0  0
    3.1060    1.2367   13.2184 C   0  0  0  0  0  0  0  0  0  0  0  0
    4.4145    1.2803   13.6968 C   0  0  0  0  0  0  0  0  0  0  0  0
    4.7440    0.4821   14.7570 N   0  0  0  0  0  0  0  0  0  0  0  0
    5.8987    0.3805   15.4839 C   0  0  0  0  0  0  0  0  0  0  0  0
    5.5936   -0.5339   16.5243 C   0  0  0  0  0  0  0  0  0  0  0  0
    4.3807   -1.0510   16.3702 N   0  0  0  0  0  0  0  0  0  0  0  0
    3.8367   -0.4037   15.3198 C   0  0  0  0  0  0  0  0  0  0  0  0
    2.6315    2.1595   12.1222 C   0  0  0  0  0  0  0  0  0  0  0  0
    3.5425    2.6427   11.1618 C   0  0  0  0  0  0  0  0  0  0  0  0
    3.1486    3.4642   10.1071 C   0  0  0  0  0  0  0  0  0  0  0  0
    1.8051    3.8185   10.0149 C   0  0  0  0  0  0  0  0  0  0  0  0
    0.9940    4.5977    9.1169 C   0  0  0  0  0  0  0  0  0  0  0  0
   -0.2465    4.6060    9.5156 N   0  0  0  0  0  0  0  0  0  0  0  0
   -0.3325    3.8910   10.6299 N   0  0  0  0  0  0  0  0  0  0  0  0
    0.8808    3.3589   10.9978 C   0  0  0  0  0  0  0  0  0  0  0  0
    1.2718    2.5352   12.0615 C   0  0  0  0  0  0  0  0  0  0  0  0
   -0.3941   -2.6060   15.8167 C   0  0  0  0  0  0  0  0  0  0  0  0
   -1.7488   -2.8660   15.6892 C   0  0  0  0  0  0  0  0  0  0  0  0
   -3.8716   -3.4917   16.5069 H   0  0  0  0  0  0  0  0  0  0  0  0
   -5.5195   -3.0051   15.9834 H   0  0  0  0  0  0  0  0  0  0  0  0
   -4.6562   -4.3238   15.1218 H   0  0  0  0  0  0  0  0  0  0  0  0
   -5.6894   -1.7286   13.7768 H   0  0  0  0  0  0  0  0  0  0  0  0
   -4.1478   -1.2204   13.0075 H   0  0  0  0  0  0  0  0  0  0  0  0
   -3.8061   -3.5970   12.2653 H   0  0  0  0  0  0  0  0  0  0  0  0
   -5.4353   -3.9869   12.9136 H   0  0  0  0  0  0  0  0  0  0  0  0
   -5.4459   -3.5399   10.6675 H   0  0  0  0  0  0  0  0  0  0  0  0
   -2.5180   -0.5160   13.3491 H   0  0  0  0  0  0  0  0  0  0  0  0
   -0.0889   -0.0366   13.6173 H   0  0  0  0  0  0  0  0  0  0  0  0
    1.9918   -1.9558   16.0315 H   0  0  0  0  0  0  0  0  0  0  0  0
    5.1493    1.9279   13.2417 H   0  0  0  0  0  0  0  0  0  0  0  0
    6.8364    0.8856   15.3048 H   0  0  0  0  0  0  0  0  0  0  0  0
    6.2618   -0.7780   17.3369 H   0  0  0  0  0  0  0  0  0  0  0  0
    4.5832    2.3665   11.2461 H   0  0  0  0  0  0  0  0  0  0  0  0
    3.7270    4.3965   10.1864 H   0  0  0  0  0  0  0  0  0  0  0  0
    3.4140    2.9463    9.1737 H   0  0  0  0  0  0  0  0  0  0  0  0
    1.3617    5.1041    8.2367 H   0  0  0  0  0  0  0  0  0  0  0  0
    0.5625    2.2014   12.8044 H   0  0  0  0  0  0  0  0  0  0  0  0
    0.1988   -3.2054   16.4917 H   0  0  0  0  0  0  0  0  0  0  0  0
   -2.1996   -3.6545   16.2736 H   0  0  0  0  0  0  0  0  0  0  0  0
  1  2  1  0  0  0  0
  2  3  1  0  0  0  0
  2  6  1  0  0  0  0
  3  4  1  0  0  0  0
  4  5  1  0  0  0  0
  6  7  2  0  0  0  0
  6 30  1  0  0  0  0
  7  8  1  0  0  0  0
  8  9  2  0  0  0  0
  9 10  1  0  0  0  0
  9 29  1  0  0  0  0
 10 11  1  0  0  0  0
 11 12  2  0  0  0  0
 11 19  1  0  0  0  0
 12 13  1  0  0  0  0
 13 14  2  0  0  0  0
 13 20  1  0  0  0  0
 14 15  1  0  0  0  0
 15 16  1  0  0  0  0
 15 19  1  0  0  0  0
 16 17  2  0  0  0  0
 17 18  1  0  0  0  0
 18 19  2  0  0  0  0
 20 21  2  0  0  0  0
 20 28  1  0  0  0  0
 21 22  1  0  0  0  0
 22 23  1  0  0  0  0
 23 24  2  0  0  0  0
 23 27  1  0  0  0  0
 24 25  1  0  0  0  0
 25 26  2  0  0  0  0
 26 27  1  0  0  0  0
 27 28  2  0  0  0  0
 29 30  2  0  0  0  0
  1 31  1  0  0  0  0
  1 32  1  0  0  0  0
  1 33  1  0  0  0  0
  3 34  1  0  0  0  0
  3 35  1  0  0  0  0
  4 36  1  0  0  0  0
  4 37  1  0  0  0  0
  5 38  1  0  0  0  0
  7 39  1  0  0  0  0
  8 40  1  0  0  0  0
 10 41  1  0  0  0  0
 14 42  1  0  0  0  0
 16 43  1  0  0  0  0
 17 44  1  0  0  0  0
 21 45  1  0  0  0  0
 22 46  1  0  0  0  0
 22 47  1  0  0  0  0
 24 48  1  0  0  0  0
 28 49  1  0  0  0  0
 29 50  1  0  0  0  0
 30 51  1  0  0  0  0
M  END
> <IC50[nM]>
7.6

$$$$
CHEMBL3265035
  -OEChem-05192314333D
 Structure written by MMmdl.
 51 55  0     1  0  0  0  0  0999 V2000
   -4.5368   -3.3612   15.6406 C   0  0  0  0  0  0  0  0  0  0  0  0
   -3.9561   -2.3810   14.7221 N   0  0  2  0  0  0  0  0  0  0  0  0
   -4.6759   -2.0519   13.4970 C   0  0  0  0  0  0  0  0  0  0  0  0
   -4.8094   -3.1968   12.4731 C   0  0  0  0  0  0  0  0  0  0  0  0
   -5.3909   -2.7945   11.2538 O   0  0  0  0  0  0  0  0  0  0  0  0
   -2.5380   -2.1167   14.8106 C   0  0  0  0  0  0  0  0  0  0  0  0
   -1.9279   -1.0927   14.0460 C   0  0  0  0  0  0  0  0  0  0  0  0
   -0.5515   -0.8247   14.1929 C   0  0  0  0  0  0  0  0  0  0  0  0
    0.2181   -1.5869   15.0916 C   0  0  0  0  0  0  0  0  0  0  0  0
    1.6005   -1.3598   15.3303 N   0  0  0  0  0  0  0  0  0  0  0  0
    2.5326   -0.4516   14.7667 C   0  0  0  0  0  0  0  0  0  0  0  0
    2.1715    0.3794   13.7341 N   0  0  0  0  0  0  0  0  0  0  0  0
    3.1060    1.2367   13.2184 C   0  0  0  0  0  0  0  0  0  0  0  0
    4.4145    1.2803   13.6968 C   0  0  0  0  0  0  0  0  0  0  0  0
    4.7440    0.4821   14.7570 N   0  0  0  0  0  0  0  0  0  0  0  0
    5.8987    0.3805   15.4839 C   0  0  0  0  0  0  0  0  0  0  0  0
    5.5936   -0.5339   16.5243 C   0  0  0  0  0  0  0  0  0  0  0  0
    4.3807   -1.0510   16.3702 N   0  0  0  0  0  0  0  0  0  0  0  0
    3.8367   -0.4037   15.3198 C   0  0  0  0  0  0  0  0  0  0  0  0
    2.6315    2.1595   12.1222 C   0  0  0  0  0  0  0  0  0  0  0  0
    3.5425    2.6427   11.1618 C   0  0  0  0  0  0  0  0  0  0  0  0
    3.1486    3.4642   10.1071 C   0  0  0  0  0  0  0  0  0  0  0  0
    1.8051    3.8185   10.0149 C   0  0  3  0  0  0  0  0  0  0  0  0
    0.9940    4.5977    9.1169 C   0  0  0  0  0  0  0  0  0  0  0  0
   -0.2465    4.6060    9.5156 N   0  0  0  0  0  0  0  0  0  0  0  0
   -0.3325    3.8910   10.6299 N   0  0  0  0  0  0  0  0  0  0  0  0
    0.8808    3.3589   10.9978 C   0  0  0  0  0  0  0  0  0  0  0  0
    1.2718    2.5352   12.0615 C   0  0  0  0  0  0  0  0  0  0  0  0
   -0.3941   -2.6060   15.8167 C   0  0  0  0  0  0  0  0  0  0  0  0
   -1.7488   -2.8660   15.6892 C   0  0  0  0  0  0  0  0  0  0  0  0
   -3.8716   -3.4917   16.5069 H   0  0  0  0  0  0  0  0  0  0  0  0
   -5.5195   -3.0051   15.9834 H   0  0  0  0  0  0  0  0  0  0  0  0
   -4.6562   -4.3238   15.1218 H   0  0  0  0  0  0  0  0  0  0  0  0
   -5.6894   -1.7286   13.7768 H   0  0  0  0  0  0  0  0  0  0  0  0
   -4.1478   -1.2204   13.0075 H   0  0  0  0  0  0  0  0  0  0  0  0
   -3.8061   -3.5970   12.2653 H   0  0  0  0  0  0  0  0  0  0  0  0
   -5.4353   -3.9869   12.9136 H   0  0  0  0  0  0  0  0  0  0  0  0
   -5.4459   -3.5399   10.6675 H   0  0  0  0  0  0  0  0  0  0  0  0
   -2.5180   -0.5160   13.3491 H   0  0  0  0  0  0  0  0  0  0  0  0
   -0.0889   -0.0366   13.6173 H   0  0  0  0  0  0  0  0  0  0  0  0
    1.2421    0.3585   13.3655 H   0  0  0  0  0  0  0  0  0  0  0  0
    5.1493    1.9279   13.2417 H   0  0  0  0  0  0  0  0  0  0  0  0
    6.8364    0.8856   15.3048 H   0  0  0  0  0  0  0  0  0  0  0  0
    6.2618   -0.7780   17.3369 H   0  0  0  0  0  0  0  0  0  0  0  0
    4.5832    2.3665   11.2461 H   0  0  0  0  0  0  0  0  0  0  0  0
    3.8661    3.8165    9.3808 H   0  0  0  0  0  0  0  0  0  0  0  0
    2.0004    4.7171   10.6185 H   0  0  0  0  0  0  0  0  0  0  0  0
    1.3617    5.1041    8.2367 H   0  0  0  0  0  0  0  0  0  0  0  0
    0.5625    2.2014   12.8044 H   0  0  0  0  0  0  0  0  0  0  0  0
    0.1988   -3.2054   16.4917 H   0  0  0  0  0  0  0  0  0  0  0  0
   -2.1996   -3.6545   16.2736 H   0  0  0  0  0  0  0  0  0  0  0  0
  1  2  1  0  0  0  0
  2  3  1  0  0  0  0
  2  6  1  0  0  0  0
  3  4  1  0  0  0  0
  4  5  1  0  0  0  0
  6  7  2  0  0  0  0
  6 30  1  0  0  0  0
  7  8  1  0  0  0  0
  8  9  2  0  0  0  0
  9 10  1  0  0  0  0
  9 29  1  0  0  0  0
 10 11  2  0  0  0  0
 11 12  1  0  0  0  0
 11 19  1  0  0  0  0
 12 13  1  0  0  0  0
 13 14  2  0  0  0  0
 13 20  1  0  0  0  0
 14 15  1  0  0  0  0
 15 16  1  0  0  0  0
 15 19  1  0  0  0  0
 16 17  2  0  0  0  0
 17 18  1  0  0  0  0
 18 19  2  0  0  0  0
 20 21  1  0  0  0  0
 20 28  2  0  0  0  0
 21 22  2  0  0  0  0
 22 23  1  0  0  0  0
 23 24  1  0  0  0  0
 23 27  1  0  0  0  0
 24 25  2  0  0  0  0
 25 26  1  0  0  0  0
 26 27  2  0  0  0  0
 27 28  1  0  0  0  0
 29 30  2  0  0  0  0
  1 31  1  0  0  0  0
  1 32  1  0  0  0  0
  1 33  1  0  0  0  0
  3 34  1  0  0  0  0
  3 35  1  0  0  0  0
  4 36  1  0  0  0  0
  4 37  1  0  0  0  0
  5 38  1  0  0  0  0
  7 39  1  0  0  0  0
  8 40  1  0  0  0  0
 12 41  1  0  0  0  0
 14 42  1  0  0  0  0
 16 43  1  0  0  0  0
 17 44  1  0  0  0  0
 21 45  1  0  0  0  0
 22 46  1  0  0  0  0
 23 47  1  0  0  0  0
 24 48  1  0  0  0  0
 28 49  1  0  0  0  0
 29 50  1  0  0  0  0
 30 51  1  0  0  0  0
M  END
> <IC50[nM]>
7.6

$$$$
CHEMBL3265035
  -OEChem-05192314333D
 Structure written by MMmdl.
 51 55  0     1  0  0  0  0  0999 V2000
   -4.5368   -3.3612   15.6406 C   0  0  0  0  0  0  0  0  0  0  0  0
   -3.9561   -2.3810   14.7221 N   0  0  2  0  0  0  0  0  0  0  0  0
   -4.6759   -2.0519   13.4970 C   0  0  0  0  0  0  0  0  0  0  0  0
   -4.8094   -3.1968   12.4731 C   0  0  0  0  0  0  0  0  0  0  0  0
   -5.3909   -2.7945   11.2538 O   0  0  0  0  0  0  0  0  0  0  0  0
   -2.5380   -2.1167   14.8106 C   0  0  0  0  0  0  0  0  0  0  0  0
   -1.9279   -1.0927   14.0460 C   0  0  0  0  0  0  0  0  0  0  0  0
   -0.5515   -0.8247   14.1929 C   0  0  0  0  0  0  0  0  0  0  0  0
    0.2181   -1.5869   15.0916 C   0  0  0  0  0  0  0  0  0  0  0  0
    1.6005   -1.3598   15.3303 N   0  0  0  0  0  0  0  0  0  0  0  0
    2.5326   -0.4516   14.7667 C   0  0  0  0  0  0  0  0  0  0  0  0
    2.1715    0.3794   13.7341 N   0  0  0  0  0  0  0  0  0  0  0  0
    3.1060    1.2367   13.2184 C   0  0  0  0  0  0  0  0  0  0  0  0
    4.4145    1.2803   13.6968 C   0  0  0  0  0  0  0  0  0  0  0  0
    4.7440    0.4821   14.7570 N   0  0  0  0  0  0  0  0  0  0  0  0
    5.8987    0.3805   15.4839 C   0  0  0  0  0  0  0  0  0  0  0  0
    5.5936   -0.5339   16.5243 C   0  0  0  0  0  0  0  0  0  0  0  0
    4.3807   -1.0510   16.3702 N   0  0  0  0  0  0  0  0  0  0  0  0
    3.8367   -0.4037   15.3198 C   0  0  0  0  0  0  0  0  0  0  0  0
    2.6315    2.1595   12.1222 C   0  0  0  0  0  0  0  0  0  0  0  0
    3.5425    2.6427   11.1618 C   0  0  0  0  0  0  0  0  0  0  0  0
    3.1486    3.4642   10.1071 C   0  0  0  0  0  0  0  0  0  0  0  0
    1.8051    3.8185   10.0149 C   0  0  0  0  0  0  0  0  0  0  0  0
    0.9940    4.5977    9.1169 C   0  0  0  0  0  0  0  0  0  0  0  0
   -0.2465    4.6060    9.5156 N   0  0  0  0  0  0  0  0  0  0  0  0
   -0.3325    3.8910   10.6299 N   0  0  0  0  0  0  0  0  0  0  0  0
    0.8808    3.3589   10.9978 C   0  0  0  0  0  0  0  0  0  0  0  0
    1.2718    2.5352   12.0615 C   0  0  0  0  0  0  0  0  0  0  0  0
   -0.3941   -2.6060   15.8167 C   0  0  0  0  0  0  0  0  0  0  0  0
   -1.7488   -2.8660   15.6892 C   0  0  0  0  0  0  0  0  0  0  0  0
   -3.8716   -3.4917   16.5069 H   0  0  0  0  0  0  0  0  0  0  0  0
   -5.5195   -3.0051   15.9834 H   0  0  0  0  0  0  0  0  0  0  0  0
   -4.6562   -4.3238   15.1218 H   0  0  0  0  0  0  0  0  0  0  0  0
   -5.6894   -1.7286   13.7768 H   0  0  0  0  0  0  0  0  0  0  0  0
   -4.1478   -1.2204   13.0075 H   0  0  0  0  0  0  0  0  0  0  0  0
   -3.8061   -3.5970   12.2653 H   0  0  0  0  0  0  0  0  0  0  0  0
   -5.4353   -3.9869   12.9136 H   0  0  0  0  0  0  0  0  0  0  0  0
   -5.4459   -3.5399   10.6675 H   0  0  0  0  0  0  0  0  0  0  0  0
   -2.5180   -0.5160   13.3491 H   0  0  0  0  0  0  0  0  0  0  0  0
   -0.0889   -0.0366   13.6173 H   0  0  0  0  0  0  0  0  0  0  0  0
    1.2421    0.3585   13.3655 H   0  0  0  0  0  0  0  0  0  0  0  0
    5.1493    1.9279   13.2417 H   0  0  0  0  0  0  0  0  0  0  0  0
    6.8364    0.8856   15.3048 H   0  0  0  0  0  0  0  0  0  0  0  0
    6.2618   -0.7780   17.3369 H   0  0  0  0  0  0  0  0  0  0  0  0
    4.3057    3.2053   11.7195 H   0  0  0  0  0  0  0  0  0  0  0  0
    4.0033    1.7554   10.7032 H   0  0  0  0  0  0  0  0  0  0  0  0
    3.8661    3.8165    9.3808 H   0  0  0  0  0  0  0  0  0  0  0  0
    1.3617    5.1041    8.2367 H   0  0  0  0  0  0  0  0  0  0  0  0
    0.5625    2.2014   12.8044 H   0  0  0  0  0  0  0  0  0  0  0  0
    0.1988   -3.2054   16.4917 H   0  0  0  0  0  0  0  0  0  0  0  0
   -2.1996   -3.6545   16.2736 H   0  0  0  0  0  0  0  0  0  0  0  0
  1  2  1  0  0  0  0
  2  3  1  0  0  0  0
  2  6  1  0  0  0  0
  3  4  1  0  0  0  0
  4  5  1  0  0  0  0
  6  7  2  0  0  0  0
  6 30  1  0  0  0  0
  7  8  1  0  0  0  0
  8  9  2  0  0  0  0
  9 10  1  0  0  0  0
  9 29  1  0  0  0  0
 10 11  2  0  0  0  0
 11 12  1  0  0  0  0
 11 19  1  0  0  0  0
 12 13  1  0  0  0  0
 13 14  2  0  0  0  0
 13 20  1  0  0  0  0
 14 15  1  0  0  0  0
 15 16  1  0  0  0  0
 15 19  1  0  0  0  0
 16 17  2  0  0  0  0
 17 18  1  0  0  0  0
 18 19  2  0  0  0  0
 20 21  1  0  0  0  0
 20 28  2  0  0  0  0
 21 22  1  0  0  0  0
 22 23  2  0  0  0  0
 23 24  1  0  0  0  0
 23 27  1  0  0  0  0
 24 25  2  0  0  0  0
 25 26  1  0  0  0  0
 26 27  2  0  0  0  0
 27 28  1  0  0  0  0
 29 30  2  0  0  0  0
  1 31  1  0  0  0  0
  1 32  1  0  0  0  0
  1 33  1  0  0  0  0
  3 34  1  0  0  0  0
  3 35  1  0  0  0  0
  4 36  1  0  0  0  0
  4 37  1  0  0  0  0
  5 38  1  0  0  0  0
  7 39  1  0  0  0  0
  8 40  1  0  0  0  0
 12 41  1  0  0  0  0
 14 42  1  0  0  0  0
 16 43  1  0  0  0  0
 17 44  1  0  0  0  0
 21 45  1  0  0  0  0
 21 46  1  0  0  0  0
 22 47  1  0  0  0  0
 24 48  1  0  0  0  0
 28 49  1  0  0  0  0
 29 50  1  0  0  0  0
 30 51  1  0  0  0  0
M  END
> <IC50[nM]>
7.6

$$$$
CHEMBL3265035
  -OEChem-05192314333D
 Structure written by MMmdl.
 51 55  0     1  0  0  0  0  0999 V2000
   -4.5368   -3.3612   15.6406 C   0  0  0  0  0  0  0  0  0  0  0  0
   -3.9561   -2.3810   14.7221 N   0  0  2  0  0  0  0  0  0  0  0  0
   -4.6759   -2.0519   13.4970 C   0  0  0  0  0  0  0  0  0  0  0  0
   -4.8094   -3.1968   12.4731 C   0  0  0  0  0  0  0  0  0  0  0  0
   -5.3909   -2.7945   11.2538 O   0  0  0  0  0  0  0  0  0  0  0  0
   -2.5380   -2.1167   14.8106 C   0  0  0  0  0  0  0  0  0  0  0  0
   -1.9279   -1.0927   14.0460 C   0  0  0  0  0  0  0  0  0  0  0  0
   -0.5515   -0.8247   14.1929 C   0  0  0  0  0  0  0  0  0  0  0  0
    0.2181   -1.5869   15.0916 C   0  0  0  0  0  0  0  0  0  0  0  0
    1.6005   -1.3598   15.3303 N   0  0  0  0  0  0  0  0  0  0  0  0
    2.5326   -0.4516   14.7667 C   0  0  0  0  0  0  0  0  0  0  0  0
    2.1715    0.3794   13.7341 N   0  0  0  0  0  0  0  0  0  0  0  0
    3.1060    1.2367   13.2184 C   0  0  0  0  0  0  0  0  0  0  0  0
    4.4145    1.2803   13.6968 C   0  0  0  0  0  0  0  0  0  0  0  0
    4.7440    0.4821   14.7570 N   0  0  0  0  0  0  0  0  0  0  0  0
    5.8987    0.3805   15.4839 C   0  0  0  0  0  0  0  0  0  0  0  0
    5.5936   -0.5339   16.5243 C   0  0  0  0  0  0  0  0  0  0  0  0
    4.3807   -1.0510   16.3702 N   0  0  0  0  0  0  0  0  0  0  0  0
    3.8367   -0.4037   15.3198 C   0  0  0  0  0  0  0  0  0  0  0  0
    2.6315    2.1595   12.1222 C   0  0  0  0  0  0  0  0  0  0  0  0
    3.5425    2.6427   11.1618 C   0  0  0  0  0  0  0  0  0  0  0  0
    3.1486    3.4642   10.1071 C   0  0  0  0  0  0  0  0  0  0  0  0
    1.8051    3.8185   10.0149 C   0  0  0  0  0  0  0  0  0  0  0  0
    0.9940    4.5977    9.1169 C   0  0  0  0  0  0  0  0  0  0  0  0
   -0.2465    4.6060    9.5156 N   0  0  0  0  0  0  0  0  0  0  0  0
   -0.3325    3.8910   10.6299 N   0  0  0  0  0  0  0  0  0  0  0  0
    0.8808    3.3589   10.9978 C   0  0  0  0  0  0  0  0  0  0  0  0
    1.2718    2.5352   12.0615 C   0  0  0  0  0  0  0  0  0  0  0  0
   -0.3941   -2.6060   15.8167 C   0  0  0  0  0  0  0  0  0  0  0  0
   -1.7488   -2.8660   15.6892 C   0  0  0  0  0  0  0  0  0  0  0  0
   -3.8716   -3.4917   16.5069 H   0  0  0  0  0  0  0  0  0  0  0  0
   -5.5195   -3.0051   15.9834 H   0  0  0  0  0  0  0  0  0  0  0  0
   -4.6562   -4.3238   15.1218 H   0  0  0  0  0  0  0  0  0  0  0  0
   -5.6894   -1.7286   13.7768 H   0  0  0  0  0  0  0  0  0  0  0  0
   -4.1478   -1.2204   13.0075 H   0  0  0  0  0  0  0  0  0  0  0  0
   -3.8061   -3.5970   12.2653 H   0  0  0  0  0  0  0  0  0  0  0  0
   -5.4353   -3.9869   12.9136 H   0  0  0  0  0  0  0  0  0  0  0  0
   -5.4459   -3.5399   10.6675 H   0  0  0  0  0  0  0  0  0  0  0  0
   -2.5180   -0.5160   13.3491 H   0  0  0  0  0  0  0  0  0  0  0  0
   -0.0889   -0.0366   13.6173 H   0  0  0  0  0  0  0  0  0  0  0  0
    1.2421    0.3585   13.3655 H   0  0  0  0  0  0  0  0  0  0  0  0
    5.1493    1.9279   13.2417 H   0  0  0  0  0  0  0  0  0  0  0  0
    6.8364    0.8856   15.3048 H   0  0  0  0  0  0  0  0  0  0  0  0
    6.2618   -0.7780   17.3369 H   0  0  0  0  0  0  0  0  0  0  0  0
    4.5832    2.3665   11.2461 H   0  0  0  0  0  0  0  0  0  0  0  0
    3.8661    3.8165    9.3808 H   0  0  0  0  0  0  0  0  0  0  0  0
    1.3617    5.1041    8.2367 H   0  0  0  0  0  0  0  0  0  0  0  0
    0.6761    1.6124   12.0014 H   0  0  0  0  0  0  0  0  0  0  0  0
    1.0333    3.0654   12.9953 H   0  0  0  0  0  0  0  0  0  0  0  0
    0.1988   -3.2054   16.4917 H   0  0  0  0  0  0  0  0  0  0  0  0
   -2.1996   -3.6545   16.2736 H   0  0  0  0  0  0  0  0  0  0  0  0
  1  2  1  0  0  0  0
  2  3  1  0  0  0  0
  2  6  1  0  0  0  0
  3  4  1  0  0  0  0
  4  5  1  0  0  0  0
  6  7  2  0  0  0  0
  6 30  1  0  0  0  0
  7  8  1  0  0  0  0
  8  9  2  0  0  0  0
  9 10  1  0  0  0  0
  9 29  1  0  0  0  0
 10 11  2  0  0  0  0
 11 12  1  0  0  0  0
 11 19  1  0  0  0  0
 12 13  1  0  0  0  0
 13 14  2  0  0  0  0
 13 20  1  0  0  0  0
 14 15  1  0  0  0  0
 15 16  1  0  0  0  0
 15 19  1  0  0  0  0
 16 17  2  0  0  0  0
 17 18  1  0  0  0  0
 18 19  2  0  0  0  0
 20 21  2  0  0  0  0
 20 28  1  0  0  0  0
 21 22  1  0  0  0  0
 22 23  2  0  0  0  0
 23 24  1  0  0  0  0
 23 27  1  0  0  0  0
 24 25  2  0  0  0  0
 25 26  1  0  0  0  0
 26 27  2  0  0  0  0
 27 28  1  0  0  0  0
 29 30  2  0  0  0  0
  1 31  1  0  0  0  0
  1 32  1  0  0  0  0
  1 33  1  0  0  0  0
  3 34  1  0  0  0  0
  3 35  1  0  0  0  0
  4 36  1  0  0  0  0
  4 37  1  0  0  0  0
  5 38  1  0  0  0  0
  7 39  1  0  0  0  0
  8 40  1  0  0  0  0
 12 41  1  0  0  0  0
 14 42  1  0  0  0  0
 16 43  1  0  0  0  0
 17 44  1  0  0  0  0
 21 45  1  0  0  0  0
 22 46  1  0  0  0  0
 24 47  1  0  0  0  0
 28 48  1  0  0  0  0
 28 49  1  0  0  0  0
 29 50  1  0  0  0  0
 30 51  1  0  0  0  0
M  END
> <IC50[nM]>
7.6

$$$$
CHEMBL3265035
  -OEChem-05192314333D
 Structure written by MMmdl.
 51 55  0     1  0  0  0  0  0999 V2000
   -4.5368   -3.3612   15.6406 C   0  0  0  0  0  0  0  0  0  0  0  0
   -3.9561   -2.3810   14.7221 N   0  0  2  0  0  0  0  0  0  0  0  0
   -4.6759   -2.0519   13.4970 C   0  0  0  0  0  0  0  0  0  0  0  0
   -4.8094   -3.1968   12.4731 C   0  0  0  0  0  0  0  0  0  0  0  0
   -5.3909   -2.7945   11.2538 O   0  0  0  0  0  0  0  0  0  0  0  0
   -2.5380   -2.1167   14.8106 C   0  0  0  0  0  0  0  0  0  0  0  0
   -1.9279   -1.0927   14.0460 C   0  0  0  0  0  0  0  0  0  0  0  0
   -0.5515   -0.8247   14.1929 C   0  0  0  0  0  0  0  0  0  0  0  0
    0.2181   -1.5869   15.0916 C   0  0  0  0  0  0  0  0  0  0  0  0
    1.6005   -1.3598   15.3303 N   0  0  0  0  0  0  0  0  0  0  0  0
    2.5326   -0.4516   14.7667 C   0  0  0  0  0  0  0  0  0  0  0  0
    2.1715    0.3794   13.7341 N   0  0  0  0  0  0  0  0  0  0  0  0
    3.1060    1.2367   13.2184 C   0  0  0  0  0  0  0  0  0  0  0  0
    4.4145    1.2803   13.6968 C   0  0  0  0  0  0  0  0  0  0  0  0
    4.7440    0.4821   14.7570 N   0  0  0  0  0  0  0  0  0  0  0  0
    5.8987    0.3805   15.4839 C   0  0  0  0  0  0  0  0  0  0  0  0
    5.5936   -0.5339   16.5243 C   0  0  0  0  0  0  0  0  0  0  0  0
    4.3807   -1.0510   16.3702 N   0  0  0  0  0  0  0  0  0  0  0  0
    3.8367   -0.4037   15.3198 C   0  0  0  0  0  0  0  0  0  0  0  0
    2.6315    2.1595   12.1222 C   0  0  3  0  0  0  0  0  0  0  0  0
    3.5425    2.6427   11.1618 C   0  0  0  0  0  0  0  0  0  0  0  0
    3.1486    3.4642   10.1071 C   0  0  0  0  0  0  0  0  0  0  0  0
    1.8051    3.8185   10.0149 C   0  0  0  0  0  0  0  0  0  0  0  0
    0.9940    4.5977    9.1169 C   0  0  0  0  0  0  0  0  0  0  0  0
   -0.2465    4.6060    9.5156 N   0  0  0  0  0  0  0  0  0  0  0  0
   -0.3325    3.8910   10.6299 N   0  0  0  0  0  0  0  0  0  0  0  0
    0.8808    3.3589   10.9978 C   0  0  0  0  0  0  0  0  0  0  0  0
    1.2718    2.5352   12.0615 C   0  0  0  0  0  0  0  0  0  0  0  0
   -0.3941   -2.6060   15.8167 C   0  0  0  0  0  0  0  0  0  0  0  0
   -1.7488   -2.8660   15.6892 C   0  0  0  0  0  0  0  0  0  0  0  0
   -3.8716   -3.4917   16.5069 H   0  0  0  0  0  0  0  0  0  0  0  0
   -5.5195   -3.0051   15.9834 H   0  0  0  0  0  0  0  0  0  0  0  0
   -4.6562   -4.3238   15.1218 H   0  0  0  0  0  0  0  0  0  0  0  0
   -5.6894   -1.7286   13.7768 H   0  0  0  0  0  0  0  0  0  0  0  0
   -4.1478   -1.2204   13.0075 H   0  0  0  0  0  0  0  0  0  0  0  0
   -3.8061   -3.5970   12.2653 H   0  0  0  0  0  0  0  0  0  0  0  0
   -5.4353   -3.9869   12.9136 H   0  0  0  0  0  0  0  0  0  0  0  0
   -5.4459   -3.5399   10.6675 H   0  0  0  0  0  0  0  0  0  0  0  0
   -2.5180   -0.5160   13.3491 H   0  0  0  0  0  0  0  0  0  0  0  0
   -0.0889   -0.0366   13.6173 H   0  0  0  0  0  0  0  0  0  0  0  0
    1.2421    0.3585   13.3655 H   0  0  0  0  0  0  0  0  0  0  0  0
    5.1493    1.9279   13.2417 H   0  0  0  0  0  0  0  0  0  0  0  0
    6.8364    0.8856   15.3048 H   0  0  0  0  0  0  0  0  0  0  0  0
    6.2618   -0.7780   17.3369 H   0  0  0  0  0  0  0  0  0  0  0  0
    2.8437    3.0290   12.7617 H   0  0  0  0  0  0  0  0  0  0  0  0
    4.5832    2.3665   11.2461 H   0  0  0  0  0  0  0  0  0  0  0  0
    3.8661    3.8165    9.3808 H   0  0  0  0  0  0  0  0  0  0  0  0
    1.3617    5.1041    8.2367 H   0  0  0  0  0  0  0  0  0  0  0  0
    0.5625    2.2014   12.8044 H   0  0  0  0  0  0  0  0  0  0  0  0
    0.1988   -3.2054   16.4917 H   0  0  0  0  0  0  0  0  0  0  0  0
   -2.1996   -3.6545   16.2736 H   0  0  0  0  0  0  0  0  0  0  0  0
  1  2  1  0  0  0  0
  2  3  1  0  0  0  0
  2  6  1  0  0  0  0
  3  4  1  0  0  0  0
  4  5  1  0  0  0  0
  6  7  2  0  0  0  0
  6 30  1  0  0  0  0
  7  8  1  0  0  0  0
  8  9  2  0  0  0  0
  9 10  1  0  0  0  0
  9 29  1  0  0  0  0
 10 11  2  0  0  0  0
 11 12  1  0  0  0  0
 11 19  1  0  0  0  0
 12 13  1  0  0  0  0
 13 14  2  0  0  0  0
 13 20  1  0  0  0  0
 14 15  1  0  0  0  0
 15 16  1  0  0  0  0
 15 19  1  0  0  0  0
 16 17  2  0  0  0  0
 17 18  1  0  0  0  0
 18 19  2  0  0  0  0
 20 21  1  0  0  0  0
 20 28  1  0  0  0  0
 21 22  2  0  0  0  0
 22 23  1  0  0  0  0
 23 24  2  0  0  0  0
 23 27  1  0  0  0  0
 24 25  1  0  0  0  0
 25 26  2  0  0  0  0
 26 27  1  0  0  0  0
 27 28  2  0  0  0  0
 29 30  2  0  0  0  0
  1 31  1  0  0  0  0
  1 32  1  0  0  0  0
  1 33  1  0  0  0  0
  3 34  1  0  0  0  0
  3 35  1  0  0  0  0
  4 36  1  0  0  0  0
  4 37  1  0  0  0  0
  5 38  1  0  0  0  0
  7 39  1  0  0  0  0
  8 40  1  0  0  0  0
 12 41  1  0  0  0  0
 14 42  1  0  0  0  0
 16 43  1  0  0  0  0
 17 44  1  0  0  0  0
 20 45  1  0  0  0  0
 21 46  1  0  0  0  0
 22 47  1  0  0  0  0
 24 48  1  0  0  0  0
 28 49  1  0  0  0  0
 29 50  1  0  0  0  0
 30 51  1  0  0  0  0
M  END
> <IC50[nM]>
7.6

$$$$
CHEMBL3265035
  -OEChem-05192314333D
 Structure written by MMmdl.
 51 55  0     1  0  0  0  0  0999 V2000
   -4.5368   -3.3612   15.6406 C   0  0  0  0  0  0  0  0  0  0  0  0
   -3.9561   -2.3810   14.7221 N   0  0  2  0  0  0  0  0  0  0  0  0
   -4.6759   -2.0519   13.4970 C   0  0  0  0  0  0  0  0  0  0  0  0
   -4.8094   -3.1968   12.4731 C   0  0  0  0  0  0  0  0  0  0  0  0
   -5.3909   -2.7945   11.2538 O   0  0  0  0  0  0  0  0  0  0  0  0
   -2.5380   -2.1167   14.8106 C   0  0  0  0  0  0  0  0  0  0  0  0
   -1.9279   -1.0927   14.0460 C   0  0  0  0  0  0  0  0  0  0  0  0
   -0.5515   -0.8247   14.1929 C   0  0  0  0  0  0  0  0  0  0  0  0
    0.2181   -1.5869   15.0916 C   0  0  0  0  0  0  0  0  0  0  0  0
    1.6005   -1.3598   15.3303 N   0  0  0  0  0  0  0  0  0  0  0  0
    2.5326   -0.4516   14.7667 C   0  0  0  0  0  0  0  0  0  0  0  0
    2.1715    0.3794   13.7341 N   0  0  0  0  0  0  0  0  0  0  0  0
    3.1060    1.2367   13.2184 C   0  0  0  0  0  0  0  0  0  0  0  0
    4.4145    1.2803   13.6968 C   0  0  0  0  0  0  0  0  0  0  0  0
    4.7440    0.4821   14.7570 N   0  0  0  0  0  0  0  0  0  0  0  0
    5.8987    0.3805   15.4839 C   0  0  0  0  0  0  0  0  0  0  0  0
    5.5936   -0.5339   16.5243 C   0  0  0  0  0  0  0  0  0  0  0  0
    4.3807   -1.0510   16.3702 N   0  0  0  0  0  0  0  0  0  0  0  0
    3.8367   -0.4037   15.3198 C   0  0  0  0  0  0  0  0  0  0  0  0
    2.6315    2.1595   12.1222 C   0  0  0  0  0  0  0  0  0  0  0  0
    3.5425    2.6427   11.1618 C   0  0  0  0  0  0  0  0  0  0  0  0
    3.1486    3.4642   10.1071 C   0  0  0  0  0  0  0  0  0  0  0  0
    1.8051    3.8185   10.0149 C   0  0  0  0  0  0  0  0  0  0  0  0
    0.9940    4.5977    9.1169 C   0  0  0  0  0  0  0  0  0  0  0  0
   -0.2465    4.6060    9.5156 N   0  0  0  0  0  0  0  0  0  0  0  0
   -0.3325    3.8910   10.6299 N   0  0  0  0  0  0  0  0  0  0  0  0
    0.8808    3.3589   10.9978 C   0  0  3  0  0  0  0  0  0  0  0  0
    1.2718    2.5352   12.0615 C   0  0  0  0  0  0  0  0  0  0  0  0
   -0.3941   -2.6060   15.8167 C   0  0  0  0  0  0  0  0  0  0  0  0
   -1.7488   -2.8660   15.6892 C   0  0  0  0  0  0  0  0  0  0  0  0
   -3.8716   -3.4917   16.5069 H   0  0  0  0  0  0  0  0  0  0  0  0
   -5.5195   -3.0051   15.9834 H   0  0  0  0  0  0  0  0  0  0  0  0
   -4.6562   -4.3238   15.1218 H   0  0  0  0  0  0  0  0  0  0  0  0
   -5.6894   -1.7286   13.7768 H   0  0  0  0  0  0  0  0  0  0  0  0
   -4.1478   -1.2204   13.0075 H   0  0  0  0  0  0  0  0  0  0  0  0
   -3.8061   -3.5970   12.2653 H   0  0  0  0  0  0  0  0  0  0  0  0
   -5.4353   -3.9869   12.9136 H   0  0  0  0  0  0  0  0  0  0  0  0
   -5.4459   -3.5399   10.6675 H   0  0  0  0  0  0  0  0  0  0  0  0
   -2.5180   -0.5160   13.3491 H   0  0  0  0  0  0  0  0  0  0  0  0
   -0.0889   -0.0366   13.6173 H   0  0  0  0  0  0  0  0  0  0  0  0
    1.2421    0.3585   13.3655 H   0  0  0  0  0  0  0  0  0  0  0  0
    5.1493    1.9279   13.2417 H   0  0  0  0  0  0  0  0  0  0  0  0
    6.8364    0.8856   15.3048 H   0  0  0  0  0  0  0  0  0  0  0  0
    6.2618   -0.7780   17.3369 H   0  0  0  0  0  0  0  0  0  0  0  0
    4.5832    2.3665   11.2461 H   0  0  0  0  0  0  0  0  0  0  0  0
    3.8661    3.8165    9.3808 H   0  0  0  0  0  0  0  0  0  0  0  0
    1.3617    5.1041    8.2367 H   0  0  0  0  0  0  0  0  0  0  0  0
    1.0871    4.2493   11.6099 H   0  0  0  0  0  0  0  0  0  0  0  0
    0.5625    2.2014   12.8044 H   0  0  0  0  0  0  0  0  0  0  0  0
    0.1988   -3.2054   16.4917 H   0  0  0  0  0  0  0  0  0  0  0  0
   -2.1996   -3.6545   16.2736 H   0  0  0  0  0  0  0  0  0  0  0  0
  1  2  1  0  0  0  0
  2  3  1  0  0  0  0
  2  6  1  0  0  0  0
  3  4  1  0  0  0  0
  4  5  1  0  0  0  0
  6  7  2  0  0  0  0
  6 30  1  0  0  0  0
  7  8  1  0  0  0  0
  8  9  2  0  0  0  0
  9 10  1  0  0  0  0
  9 29  1  0  0  0  0
 10 11  2  0  0  0  0
 11 12  1  0  0  0  0
 11 19  1  0  0  0  0
 12 13  1  0  0  0  0
 13 14  2  0  0  0  0
 13 20  1  0  0  0  0
 14 15  1  0  0  0  0
 15 16  1  0  0  0  0
 15 19  1  0  0  0  0
 16 17  2  0  0  0  0
 17 18  1  0  0  0  0
 18 19  2  0  0  0  0
 20 21  1  0  0  0  0
 20 28  2  0  0  0  0
 21 22  2  0  0  0  0
 22 23  1  0  0  0  0
 23 24  2  0  0  0  0
 23 27  1  0  0  0  0
 24 25  1  0  0  0  0
 25 26  2  0  0  0  0
 26 27  1  0  0  0  0
 27 28  1  0  0  0  0
 29 30  2  0  0  0  0
  1 31  1  0  0  0  0
  1 32  1  0  0  0  0
  1 33  1  0  0  0  0
  3 34  1  0  0  0  0
  3 35  1  0  0  0  0
  4 36  1  0  0  0  0
  4 37  1  0  0  0  0
  5 38  1  0  0  0  0
  7 39  1  0  0  0  0
  8 40  1  0  0  0  0
 12 41  1  0  0  0  0
 14 42  1  0  0  0  0
 16 43  1  0  0  0  0
 17 44  1  0  0  0  0
 21 45  1  0  0  0  0
 22 46  1  0  0  0  0
 24 47  1  0  0  0  0
 27 48  1  0  0  0  0
 28 49  1  0  0  0  0
 29 50  1  0  0  0  0
 30 51  1  0  0  0  0
M  END
> <IC50[nM]>
7.6

$$$$
CHEMBL3265035
  -OEChem-05192314333D
 Structure written by MMmdl.
 51 55  0     1  0  0  0  0  0999 V2000
   -4.5368   -3.3612   15.6406 C   0  0  0  0  0  0  0  0  0  0  0  0
   -3.9561   -2.3810   14.7221 N   0  0  2  0  0  0  0  0  0  0  0  0
   -4.6759   -2.0519   13.4970 C   0  0  0  0  0  0  0  0  0  0  0  0
   -4.8094   -3.1968   12.4731 C   0  0  0  0  0  0  0  0  0  0  0  0
   -5.3909   -2.7945   11.2538 O   0  0  0  0  0  0  0  0  0  0  0  0
   -2.5380   -2.1167   14.8106 C   0  0  0  0  0  0  0  0  0  0  0  0
   -1.9279   -1.0927   14.0460 C   0  0  0  0  0  0  0  0  0  0  0  0
   -0.5515   -0.8247   14.1929 C   0  0  0  0  0  0  0  0  0  0  0  0
    0.2181   -1.5869   15.0916 C   0  0  0  0  0  0  0  0  0  0  0  0
    1.6005   -1.3598   15.3303 N   0  0  0  0  0  0  0  0  0  0  0  0
    2.5326   -0.4516   14.7667 C   0  0  0  0  0  0  0  0  0  0  0  0
    2.1715    0.3794   13.7341 N   0  0  0  0  0  0  0  0  0  0  0  0
    3.1060    1.2367   13.2184 C   0  0  0  0  0  0  0  0  0  0  0  0
    4.4145    1.2803   13.6968 C   0  0  0  0  0  0  0  0  0  0  0  0
    4.7440    0.4821   14.7570 N   0  0  0  0  0  0  0  0  0  0  0  0
    5.8987    0.3805   15.4839 C   0  0  0  0  0  0  0  0  0  0  0  0
    5.5936   -0.5339   16.5243 C   0  0  0  0  0  0  0  0  0  0  0  0
    4.3807   -1.0510   16.3702 N   0  0  0  0  0  0  0  0  0  0  0  0
    3.8367   -0.4037   15.3198 C   0  0  0  0  0  0  0  0  0  0  0  0
    2.6315    2.1595   12.1222 C   0  0  0  0  0  0  0  0  0  0  0  0
    3.5425    2.6427   11.1618 C   0  0  0  0  0  0  0  0  0  0  0  0
    3.1486    3.4642   10.1071 C   0  0  0  0  0  0  0  0  0  0  0  0
    1.8051    3.8185   10.0149 C   0  0  0  0  0  0  0  0  0  0  0  0
    0.9940    4.5977    9.1169 C   0  0  0  0  0  0  0  0  0  0  0  0
   -0.2465    4.6060    9.5156 N   0  0  0  0  0  0  0  0  0  0  0  0
   -0.3325    3.8910   10.6299 N   0  0  0  0  0  0  0  0  0  0  0  0
    0.8808    3.3589   10.9978 C   0  0  0  0  0  0  0  0  0  0  0  0
    1.2718    2.5352   12.0615 C   0  0  0  0  0  0  0  0  0  0  0  0
   -0.3941   -2.6060   15.8167 C   0  0  0  0  0  0  0  0  0  0  0  0
   -1.7488   -2.8660   15.6892 C   0  0  0  0  0  0  0  0  0  0  0  0
   -3.8716   -3.4917   16.5069 H   0  0  0  0  0  0  0  0  0  0  0  0
   -5.5195   -3.0051   15.9834 H   0  0  0  0  0  0  0  0  0  0  0  0
   -4.6562   -4.3238   15.1218 H   0  0  0  0  0  0  0  0  0  0  0  0
   -5.6894   -1.7286   13.7768 H   0  0  0  0  0  0  0  0  0  0  0  0
   -4.1478   -1.2204   13.0075 H   0  0  0  0  0  0  0  0  0  0  0  0
   -3.8061   -3.5970   12.2653 H   0  0  0  0  0  0  0  0  0  0  0  0
   -5.4353   -3.9869   12.9136 H   0  0  0  0  0  0  0  0  0  0  0  0
   -5.4459   -3.5399   10.6675 H   0  0  0  0  0  0  0  0  0  0  0  0
   -2.5180   -0.5160   13.3491 H   0  0  0  0  0  0  0  0  0  0  0  0
   -0.0889   -0.0366   13.6173 H   0  0  0  0  0  0  0  0  0  0  0  0
    1.2421    0.3585   13.3655 H   0  0  0  0  0  0  0  0  0  0  0  0
    5.1493    1.9279   13.2417 H   0  0  0  0  0  0  0  0  0  0  0  0
    6.8364    0.8856   15.3048 H   0  0  0  0  0  0  0  0  0  0  0  0
    6.2618   -0.7780   17.3369 H   0  0  0  0  0  0  0  0  0  0  0  0
    4.5832    2.3665   11.2461 H   0  0  0  0  0  0  0  0  0  0  0  0
    3.7270    4.3965   10.1864 H   0  0  0  0  0  0  0  0  0  0  0  0
    3.4140    2.9463    9.1737 H   0  0  0  0  0  0  0  0  0  0  0  0
    1.3617    5.1041    8.2367 H   0  0  0  0  0  0  0  0  0  0  0  0
    0.5625    2.2014   12.8044 H   0  0  0  0  0  0  0  0  0  0  0  0
    0.1988   -3.2054   16.4917 H   0  0  0  0  0  0  0  0  0  0  0  0
   -2.1996   -3.6545   16.2736 H   0  0  0  0  0  0  0  0  0  0  0  0
  1  2  1  0  0  0  0
  2  3  1  0  0  0  0
  2  6  1  0  0  0  0
  3  4  1  0  0  0  0
  4  5  1  0  0  0  0
  6  7  2  0  0  0  0
  6 30  1  0  0  0  0
  7  8  1  0  0  0  0
  8  9  2  0  0  0  0
  9 10  1  0  0  0  0
  9 29  1  0  0  0  0
 10 11  2  0  0  0  0
 11 12  1  0  0  0  0
 11 19  1  0  0  0  0
 12 13  1  0  0  0  0
 13 14  2  0  0  0  0
 13 20  1  0  0  0  0
 14 15  1  0  0  0  0
 15 16  1  0  0  0  0
 15 19  1  0  0  0  0
 16 17  2  0  0  0  0
 17 18  1  0  0  0  0
 18 19  2  0  0  0  0
 20 21  2  0  0  0  0
 20 28  1  0  0  0  0
 21 22  1  0  0  0  0
 22 23  1  0  0  0  0
 23 24  2  0  0  0  0
 23 27  1  0  0  0  0
 24 25  1  0  0  0  0
 25 26  2  0  0  0  0
 26 27  1  0  0  0  0
 27 28  2  0  0  0  0
 29 30  2  0  0  0  0
  1 31  1  0  0  0  0
  1 32  1  0  0  0  0
  1 33  1  0  0  0  0
  3 34  1  0  0  0  0
  3 35  1  0  0  0  0
  4 36  1  0  0  0  0
  4 37  1  0  0  0  0
  5 38  1  0  0  0  0
  7 39  1  0  0  0  0
  8 40  1  0  0  0  0
 12 41  1  0  0  0  0
 14 42  1  0  0  0  0
 16 43  1  0  0  0  0
 17 44  1  0  0  0  0
 21 45  1  0  0  0  0
 22 46  1  0  0  0  0
 22 47  1  0  0  0  0
 24 48  1  0  0  0  0
 28 49  1  0  0  0  0
 29 50  1  0  0  0  0
 30 51  1  0  0  0  0
M  END
> <IC50[nM]>
7.6

$$$$
CHEMBL3265035
  -OEChem-05192314333D
 Structure written by MMmdl.
 51 55  0     1  0  0  0  0  0999 V2000
   -4.5368   -3.3612   15.6406 C   0  0  0  0  0  0  0  0  0  0  0  0
   -3.9561   -2.3810   14.7221 N   0  0  2  0  0  0  0  0  0  0  0  0
   -4.6759   -2.0519   13.4970 C   0  0  0  0  0  0  0  0  0  0  0  0
   -4.8094   -3.1968   12.4731 C   0  0  0  0  0  0  0  0  0  0  0  0
   -5.3909   -2.7945   11.2538 O   0  0  0  0  0  0  0  0  0  0  0  0
   -2.5380   -2.1167   14.8106 C   0  0  0  0  0  0  0  0  0  0  0  0
   -1.9279   -1.0927   14.0460 C   0  0  0  0  0  0  0  0  0  0  0  0
   -0.5515   -0.8247   14.1929 C   0  0  0  0  0  0  0  0  0  0  0  0
    0.2181   -1.5869   15.0916 C   0  0  0  0  0  0  0  0  0  0  0  0
    1.6005   -1.3598   15.3303 N   0  0  0  0  0  0  0  0  0  0  0  0
    2.5326   -0.4516   14.7667 C   0  0  0  0  0  0  0  0  0  0  0  0
    2.1715    0.3794   13.7341 N   0  0  0  0  0  0  0  0  0  0  0  0
    3.1060    1.2367   13.2184 C   0  0  0  0  0  0  0  0  0  0  0  0
    4.4145    1.2803   13.6968 C   0  0  0  0  0  0  0  0  0  0  0  0
    4.7440    0.4821   14.7570 N   0  0  0  0  0  0  0  0  0  0  0  0
    5.8987    0.3805   15.4839 C   0  0  0  0  0  0  0  0  0  0  0  0
    5.5936   -0.5339   16.5243 C   0  0  0  0  0  0  0  0  0  0  0  0
    4.3807   -1.0510   16.3702 N   0  0  0  0  0  0  0  0  0  0  0  0
    3.8367   -0.4037   15.3198 C   0  0  0  0  0  0  0  0  0  0  0  0
    2.6315    2.1595   12.1222 C   0  0  0  0  0  0  0  0  0  0  0  0
    3.5425    2.6427   11.1618 C   0  0  0  0  0  0  0  0  0  0  0  0
    3.1486    3.4642   10.1071 C   0  0  0  0  0  0  0  0  0  0  0  0
    1.8051    3.8185   10.0149 C   0  0  3  0  0  0  0  0  0  0  0  0
    0.9940    4.5977    9.1169 C   0  0  0  0  0  0  0  0  0  0  0  0
   -0.2465    4.6060    9.5156 N   0  0  0  0  0  0  0  0  0  0  0  0
   -0.3325    3.8910   10.6299 N   0  0  0  0  0  0  0  0  0  0  0  0
    0.8808    3.3589   10.9978 C   0  0  0  0  0  0  0  0  0  0  0  0
    1.2718    2.5352   12.0615 C   0  0  0  0  0  0  0  0  0  0  0  0
   -0.3941   -2.6060   15.8167 C   0  0  0  0  0  0  0  0  0  0  0  0
   -1.7488   -2.8660   15.6892 C   0  0  0  0  0  0  0  0  0  0  0  0
   -3.8716   -3.4917   16.5069 H   0  0  0  0  0  0  0  0  0  0  0  0
   -5.5195   -3.0051   15.9834 H   0  0  0  0  0  0  0  0  0  0  0  0
   -4.6562   -4.3238   15.1218 H   0  0  0  0  0  0  0  0  0  0  0  0
   -5.6894   -1.7286   13.7768 H   0  0  0  0  0  0  0  0  0  0  0  0
   -4.1478   -1.2204   13.0075 H   0  0  0  0  0  0  0  0  0  0  0  0
   -3.8061   -3.5970   12.2653 H   0  0  0  0  0  0  0  0  0  0  0  0
   -5.4353   -3.9869   12.9136 H   0  0  0  0  0  0  0  0  0  0  0  0
   -5.4459   -3.5399   10.6675 H   0  0  0  0  0  0  0  0  0  0  0  0
   -2.5180   -0.5160   13.3491 H   0  0  0  0  0  0  0  0  0  0  0  0
   -0.0889   -0.0366   13.6173 H   0  0  0  0  0  0  0  0  0  0  0  0
    5.0757    1.0031   12.8625 H   0  0  0  0  0  0  0  0  0  0  0  0
    4.6175    2.3192   13.9959 H   0  0  0  0  0  0  0  0  0  0  0  0
    6.8364    0.8856   15.3048 H   0  0  0  0  0  0  0  0  0  0  0  0
    6.2618   -0.7780   17.3369 H   0  0  0  0  0  0  0  0  0  0  0  0
    4.5832    2.3665   11.2461 H   0  0  0  0  0  0  0  0  0  0  0  0
    3.8661    3.8165    9.3808 H   0  0  0  0  0  0  0  0  0  0  0  0
    2.0004    4.7171   10.6185 H   0  0  0  0  0  0  0  0  0  0  0  0
    1.3617    5.1041    8.2367 H   0  0  0  0  0  0  0  0  0  0  0  0
    0.5625    2.2014   12.8044 H   0  0  0  0  0  0  0  0  0  0  0  0
    0.1988   -3.2054   16.4917 H   0  0  0  0  0  0  0  0  0  0  0  0
   -2.1996   -3.6545   16.2736 H   0  0  0  0  0  0  0  0  0  0  0  0
  1  2  1  0  0  0  0
  2  3  1  0  0  0  0
  2  6  1  0  0  0  0
  3  4  1  0  0  0  0
  4  5  1  0  0  0  0
  6  7  2  0  0  0  0
  6 30  1  0  0  0  0
  7  8  1  0  0  0  0
  8  9  2  0  0  0  0
  9 10  1  0  0  0  0
  9 29  1  0  0  0  0
 10 11  2  0  0  0  0
 11 12  1  0  0  0  0
 11 19  1  0  0  0  0
 12 13  2  0  0  0  0
 13 14  1  0  0  0  0
 13 20  1  0  0  0  0
 14 15  1  0  0  0  0
 15 16  1  0  0  0  0
 15 19  1  0  0  0  0
 16 17  2  0  0  0  0
 17 18  1  0  0  0  0
 18 19  2  0  0  0  0
 20 21  1  0  0  0  0
 20 28  2  0  0  0  0
 21 22  2  0  0  0  0
 22 23  1  0  0  0  0
 23 24  1  0  0  0  0
 23 27  1  0  0  0  0
 24 25  2  0  0  0  0
 25 26  1  0  0  0  0
 26 27  2  0  0  0  0
 27 28  1  0  0  0  0
 29 30  2  0  0  0  0
  1 31  1  0  0  0  0
  1 32  1  0  0  0  0
  1 33  1  0  0  0  0
  3 34  1  0  0  0  0
  3 35  1  0  0  0  0
  4 36  1  0  0  0  0
  4 37  1  0  0  0  0
  5 38  1  0  0  0  0
  7 39  1  0  0  0  0
  8 40  1  0  0  0  0
 14 41  1  0  0  0  0
 14 42  1  0  0  0  0
 16 43  1  0  0  0  0
 17 44  1  0  0  0  0
 21 45  1  0  0  0  0
 22 46  1  0  0  0  0
 23 47  1  0  0  0  0
 24 48  1  0  0  0  0
 28 49  1  0  0  0  0
 29 50  1  0  0  0  0
 30 51  1  0  0  0  0
M  END
> <IC50[nM]>
7.6

$$$$
CHEMBL3265035
  -OEChem-05192314333D
 Structure written by MMmdl.
 51 55  0     1  0  0  0  0  0999 V2000
   -4.5368   -3.3612   15.6406 C   0  0  0  0  0  0  0  0  0  0  0  0
   -3.9561   -2.3810   14.7221 N   0  0  2  0  0  0  0  0  0  0  0  0
   -4.6759   -2.0519   13.4970 C   0  0  0  0  0  0  0  0  0  0  0  0
   -4.8094   -3.1968   12.4731 C   0  0  0  0  0  0  0  0  0  0  0  0
   -5.3909   -2.7945   11.2538 O   0  0  0  0  0  0  0  0  0  0  0  0
   -2.5380   -2.1167   14.8106 C   0  0  0  0  0  0  0  0  0  0  0  0
   -1.9279   -1.0927   14.0460 C   0  0  0  0  0  0  0  0  0  0  0  0
   -0.5515   -0.8247   14.1929 C   0  0  0  0  0  0  0  0  0  0  0  0
    0.2181   -1.5869   15.0916 C   0  0  0  0  0  0  0  0  0  0  0  0
    1.6005   -1.3598   15.3303 N   0  0  0  0  0  0  0  0  0  0  0  0
    2.5326   -0.4516   14.7667 C   0  0  0  0  0  0  0  0  0  0  0  0
    2.1715    0.3794   13.7341 N   0  0  0  0  0  0  0  0  0  0  0  0
    3.1060    1.2367   13.2184 C   0  0  0  0  0  0  0  0  0  0  0  0
    4.4145    1.2803   13.6968 C   0  0  0  0  0  0  0  0  0  0  0  0
    4.7440    0.4821   14.7570 N   0  0  0  0  0  0  0  0  0  0  0  0
    5.8987    0.3805   15.4839 C   0  0  0  0  0  0  0  0  0  0  0  0
    5.5936   -0.5339   16.5243 C   0  0  0  0  0  0  0  0  0  0  0  0
    4.3807   -1.0510   16.3702 N   0  0  0  0  0  0  0  0  0  0  0  0
    3.8367   -0.4037   15.3198 C   0  0  0  0  0  0  0  0  0  0  0  0
    2.6315    2.1595   12.1222 C   0  0  0  0  0  0  0  0  0  0  0  0
    3.5425    2.6427   11.1618 C   0  0  0  0  0  0  0  0  0  0  0  0
    3.1486    3.4642   10.1071 C   0  0  0  0  0  0  0  0  0  0  0  0
    1.8051    3.8185   10.0149 C   0  0  0  0  0  0  0  0  0  0  0  0
    0.9940    4.5977    9.1169 C   0  0  0  0  0  0  0  0  0  0  0  0
   -0.2465    4.6060    9.5156 N   0  0  0  0  0  0  0  0  0  0  0  0
   -0.3325    3.8910   10.6299 N   0  0  0  0  0  0  0  0  0  0  0  0
    0.8808    3.3589   10.9978 C   0  0  0  0  0  0  0  0  0  0  0  0
    1.2718    2.5352   12.0615 C   0  0  0  0  0  0  0  0  0  0  0  0
   -0.3941   -2.6060   15.8167 C   0  0  0  0  0  0  0  0  0  0  0  0
   -1.7488   -2.8660   15.6892 C   0  0  0  0  0  0  0  0  0  0  0  0
   -3.8716   -3.4917   16.5069 H   0  0  0  0  0  0  0  0  0  0  0  0
   -5.5195   -3.0051   15.9834 H   0  0  0  0  0  0  0  0  0  0  0  0
   -4.6562   -4.3238   15.1218 H   0  0  0  0  0  0  0  0  0  0  0  0
   -5.6894   -1.7286   13.7768 H   0  0  0  0  0  0  0  0  0  0  0  0
   -4.1478   -1.2204   13.0075 H   0  0  0  0  0  0  0  0  0  0  0  0
   -3.8061   -3.5970   12.2653 H   0  0  0  0  0  0  0  0  0  0  0  0
   -5.4353   -3.9869   12.9136 H   0  0  0  0  0  0  0  0  0  0  0  0
   -5.4459   -3.5399   10.6675 H   0  0  0  0  0  0  0  0  0  0  0  0
   -2.5180   -0.5160   13.3491 H   0  0  0  0  0  0  0  0  0  0  0  0
   -0.0889   -0.0366   13.6173 H   0  0  0  0  0  0  0  0  0  0  0  0
    5.0757    1.0031   12.8625 H   0  0  0  0  0  0  0  0  0  0  0  0
    4.6175    2.3192   13.9959 H   0  0  0  0  0  0  0  0  0  0  0  0
    6.8364    0.8856   15.3048 H   0  0  0  0  0  0  0  0  0  0  0  0
    6.2618   -0.7780   17.3369 H   0  0  0  0  0  0  0  0  0  0  0  0
    4.3057    3.2053   11.7195 H   0  0  0  0  0  0  0  0  0  0  0  0
    4.0033    1.7554   10.7032 H   0  0  0  0  0  0  0  0  0  0  0  0
    3.8661    3.8165    9.3808 H   0  0  0  0  0  0  0  0  0  0  0  0
    1.3617    5.1041    8.2367 H   0  0  0  0  0  0  0  0  0  0  0  0
    0.5625    2.2014   12.8044 H   0  0  0  0  0  0  0  0  0  0  0  0
    0.1988   -3.2054   16.4917 H   0  0  0  0  0  0  0  0  0  0  0  0
   -2.1996   -3.6545   16.2736 H   0  0  0  0  0  0  0  0  0  0  0  0
  1  2  1  0  0  0  0
  2  3  1  0  0  0  0
  2  6  1  0  0  0  0
  3  4  1  0  0  0  0
  4  5  1  0  0  0  0
  6  7  2  0  0  0  0
  6 30  1  0  0  0  0
  7  8  1  0  0  0  0
  8  9  2  0  0  0  0
  9 10  1  0  0  0  0
  9 29  1  0  0  0  0
 10 11  2  0  0  0  0
 11 12  1  0  0  0  0
 11 19  1  0  0  0  0
 12 13  2  0  0  0  0
 13 14  1  0  0  0  0
 13 20  1  0  0  0  0
 14 15  1  0  0  0  0
 15 16  1  0  0  0  0
 15 19  1  0  0  0  0
 16 17  2  0  0  0  0
 17 18  1  0  0  0  0
 18 19  2  0  0  0  0
 20 21  1  0  0  0  0
 20 28  2  0  0  0  0
 21 22  1  0  0  0  0
 22 23  2  0  0  0  0
 23 24  1  0  0  0  0
 23 27  1  0  0  0  0
 24 25  2  0  0  0  0
 25 26  1  0  0  0  0
 26 27  2  0  0  0  0
 27 28  1  0  0  0  0
 29 30  2  0  0  0  0
  1 31  1  0  0  0  0
  1 32  1  0  0  0  0
  1 33  1  0  0  0  0
  3 34  1  0  0  0  0
  3 35  1  0  0  0  0
  4 36  1  0  0  0  0
  4 37  1  0  0  0  0
  5 38  1  0  0  0  0
  7 39  1  0  0  0  0
  8 40  1  0  0  0  0
 14 41  1  0  0  0  0
 14 42  1  0  0  0  0
 16 43  1  0  0  0  0
 17 44  1  0  0  0  0
 21 45  1  0  0  0  0
 21 46  1  0  0  0  0
 22 47  1  0  0  0  0
 24 48  1  0  0  0  0
 28 49  1  0  0  0  0
 29 50  1  0  0  0  0
 30 51  1  0  0  0  0
M  END
> <IC50[nM]>
7.6

$$$$
CHEMBL3265035
  -OEChem-05192314333D
 Structure written by MMmdl.
 51 55  0     1  0  0  0  0  0999 V2000
   -4.5368   -3.3612   15.6406 C   0  0  0  0  0  0  0  0  0  0  0  0
   -3.9561   -2.3810   14.7221 N   0  0  2  0  0  0  0  0  0  0  0  0
   -4.6759   -2.0519   13.4970 C   0  0  0  0  0  0  0  0  0  0  0  0
   -4.8094   -3.1968   12.4731 C   0  0  0  0  0  0  0  0  0  0  0  0
   -5.3909   -2.7945   11.2538 O   0  0  0  0  0  0  0  0  0  0  0  0
   -2.5380   -2.1167   14.8106 C   0  0  0  0  0  0  0  0  0  0  0  0
   -1.9279   -1.0927   14.0460 C   0  0  0  0  0  0  0  0  0  0  0  0
   -0.5515   -0.8247   14.1929 C   0  0  0  0  0  0  0  0  0  0  0  0
    0.2181   -1.5869   15.0916 C   0  0  0  0  0  0  0  0  0  0  0  0
    1.6005   -1.3598   15.3303 N   0  0  0  0  0  0  0  0  0  0  0  0
    2.5326   -0.4516   14.7667 C   0  0  0  0  0  0  0  0  0  0  0  0
    2.1715    0.3794   13.7341 N   0  0  0  0  0  0  0  0  0  0  0  0
    3.1060    1.2367   13.2184 C   0  0  0  0  0  0  0  0  0  0  0  0
    4.4145    1.2803   13.6968 C   0  0  0  0  0  0  0  0  0  0  0  0
    4.7440    0.4821   14.7570 N   0  0  0  0  0  0  0  0  0  0  0  0
    5.8987    0.3805   15.4839 C   0  0  0  0  0  0  0  0  0  0  0  0
    5.5936   -0.5339   16.5243 C   0  0  0  0  0  0  0  0  0  0  0  0
    4.3807   -1.0510   16.3702 N   0  0  0  0  0  0  0  0  0  0  0  0
    3.8367   -0.4037   15.3198 C   0  0  0  0  0  0  0  0  0  0  0  0
    2.6315    2.1595   12.1222 C   0  0  0  0  0  0  0  0  0  0  0  0
    3.5425    2.6427   11.1618 C   0  0  0  0  0  0  0  0  0  0  0  0
    3.1486    3.4642   10.1071 C   0  0  0  0  0  0  0  0  0  0  0  0
    1.8051    3.8185   10.0149 C   0  0  0  0  0  0  0  0  0  0  0  0
    0.9940    4.5977    9.1169 C   0  0  0  0  0  0  0  0  0  0  0  0
   -0.2465    4.6060    9.5156 N   0  0  0  0  0  0  0  0  0  0  0  0
   -0.3325    3.8910   10.6299 N   0  0  0  0  0  0  0  0  0  0  0  0
    0.8808    3.3589   10.9978 C   0  0  0  0  0  0  0  0  0  0  0  0
    1.2718    2.5352   12.0615 C   0  0  0  0  0  0  0  0  0  0  0  0
   -0.3941   -2.6060   15.8167 C   0  0  0  0  0  0  0  0  0  0  0  0
   -1.7488   -2.8660   15.6892 C   0  0  0  0  0  0  0  0  0  0  0  0
   -3.8716   -3.4917   16.5069 H   0  0  0  0  0  0  0  0  0  0  0  0
   -5.5195   -3.0051   15.9834 H   0  0  0  0  0  0  0  0  0  0  0  0
   -4.6562   -4.3238   15.1218 H   0  0  0  0  0  0  0  0  0  0  0  0
   -5.6894   -1.7286   13.7768 H   0  0  0  0  0  0  0  0  0  0  0  0
   -4.1478   -1.2204   13.0075 H   0  0  0  0  0  0  0  0  0  0  0  0
   -3.8061   -3.5970   12.2653 H   0  0  0  0  0  0  0  0  0  0  0  0
   -5.4353   -3.9869   12.9136 H   0  0  0  0  0  0  0  0  0  0  0  0
   -5.4459   -3.5399   10.6675 H   0  0  0  0  0  0  0  0  0  0  0  0
   -2.5180   -0.5160   13.3491 H   0  0  0  0  0  0  0  0  0  0  0  0
   -0.0889   -0.0366   13.6173 H   0  0  0  0  0  0  0  0  0  0  0  0
    5.0757    1.0031   12.8625 H   0  0  0  0  0  0  0  0  0  0  0  0
    4.6175    2.3192   13.9959 H   0  0  0  0  0  0  0  0  0  0  0  0
    6.8364    0.8856   15.3048 H   0  0  0  0  0  0  0  0  0  0  0  0
    6.2618   -0.7780   17.3369 H   0  0  0  0  0  0  0  0  0  0  0  0
    4.5832    2.3665   11.2461 H   0  0  0  0  0  0  0  0  0  0  0  0
    3.8661    3.8165    9.3808 H   0  0  0  0  0  0  0  0  0  0  0  0
    1.3617    5.1041    8.2367 H   0  0  0  0  0  0  0  0  0  0  0  0
    0.6761    1.6124   12.0014 H   0  0  0  0  0  0  0  0  0  0  0  0
    1.0333    3.0654   12.9953 H   0  0  0  0  0  0  0  0  0  0  0  0
    0.1988   -3.2054   16.4917 H   0  0  0  0  0  0  0  0  0  0  0  0
   -2.1996   -3.6545   16.2736 H   0  0  0  0  0  0  0  0  0  0  0  0
  1  2  1  0  0  0  0
  2  3  1  0  0  0  0
  2  6  1  0  0  0  0
  3  4  1  0  0  0  0
  4  5  1  0  0  0  0
  6  7  2  0  0  0  0
  6 30  1  0  0  0  0
  7  8  1  0  0  0  0
  8  9  2  0  0  0  0
  9 10  1  0  0  0  0
  9 29  1  0  0  0  0
 10 11  2  0  0  0  0
 11 12  1  0  0  0  0
 11 19  1  0  0  0  0
 12 13  2  0  0  0  0
 13 14  1  0  0  0  0
 13 20  1  0  0  0  0
 14 15  1  0  0  0  0
 15 16  1  0  0  0  0
 15 19  1  0  0  0  0
 16 17  2  0  0  0  0
 17 18  1  0  0  0  0
 18 19  2  0  0  0  0
 20 21  2  0  0  0  0
 20 28  1  0  0  0  0
 21 22  1  0  0  0  0
 22 23  2  0  0  0  0
 23 24  1  0  0  0  0
 23 27  1  0  0  0  0
 24 25  2  0  0  0  0
 25 26  1  0  0  0  0
 26 27  2  0  0  0  0
 27 28  1  0  0  0  0
 29 30  2  0  0  0  0
  1 31  1  0  0  0  0
  1 32  1  0  0  0  0
  1 33  1  0  0  0  0
  3 34  1  0  0  0  0
  3 35  1  0  0  0  0
  4 36  1  0  0  0  0
  4 37  1  0  0  0  0
  5 38  1  0  0  0  0
  7 39  1  0  0  0  0
  8 40  1  0  0  0  0
 14 41  1  0  0  0  0
 14 42  1  0  0  0  0
 16 43  1  0  0  0  0
 17 44  1  0  0  0  0
 21 45  1  0  0  0  0
 22 46  1  0  0  0  0
 24 47  1  0  0  0  0
 28 48  1  0  0  0  0
 28 49  1  0  0  0  0
 29 50  1  0  0  0  0
 30 51  1  0  0  0  0
M  END
> <IC50[nM]>
7.6

$$$$
CHEMBL3265035
  -OEChem-05192314333D
 Structure written by MMmdl.
 51 55  0     1  0  0  0  0  0999 V2000
   -4.5368   -3.3612   15.6406 C   0  0  0  0  0  0  0  0  0  0  0  0
   -3.9561   -2.3810   14.7221 N   0  0  2  0  0  0  0  0  0  0  0  0
   -4.6759   -2.0519   13.4970 C   0  0  0  0  0  0  0  0  0  0  0  0
   -4.8094   -3.1968   12.4731 C   0  0  0  0  0  0  0  0  0  0  0  0
   -5.3909   -2.7945   11.2538 O   0  0  0  0  0  0  0  0  0  0  0  0
   -2.5380   -2.1167   14.8106 C   0  0  0  0  0  0  0  0  0  0  0  0
   -1.9279   -1.0927   14.0460 C   0  0  0  0  0  0  0  0  0  0  0  0
   -0.5515   -0.8247   14.1929 C   0  0  0  0  0  0  0  0  0  0  0  0
    0.2181   -1.5869   15.0916 C   0  0  0  0  0  0  0  0  0  0  0  0
    1.6005   -1.3598   15.3303 N   0  0  0  0  0  0  0  0  0  0  0  0
    2.5326   -0.4516   14.7667 C   0  0  0  0  0  0  0  0  0  0  0  0
    2.1715    0.3794   13.7341 N   0  0  0  0  0  0  0  0  0  0  0  0
    3.1060    1.2367   13.2184 C   0  0  0  0  0  0  0  0  0  0  0  0
    4.4145    1.2803   13.6968 C   0  0  0  0  0  0  0  0  0  0  0  0
    4.7440    0.4821   14.7570 N   0  0  0  0  0  0  0  0  0  0  0  0
    5.8987    0.3805   15.4839 C   0  0  0  0  0  0  0  0  0  0  0  0
    5.5936   -0.5339   16.5243 C   0  0  0  0  0  0  0  0  0  0  0  0
    4.3807   -1.0510   16.3702 N   0  0  0  0  0  0  0  0  0  0  0  0
    3.8367   -0.4037   15.3198 C   0  0  0  0  0  0  0  0  0  0  0  0
    2.6315    2.1595   12.1222 C   0  0  3  0  0  0  0  0  0  0  0  0
    3.5425    2.6427   11.1618 C   0  0  0  0  0  0  0  0  0  0  0  0
    3.1486    3.4642   10.1071 C   0  0  0  0  0  0  0  0  0  0  0  0
    1.8051    3.8185   10.0149 C   0  0  0  0  0  0  0  0  0  0  0  0
    0.9940    4.5977    9.1169 C   0  0  0  0  0  0  0  0  0  0  0  0
   -0.2465    4.6060    9.5156 N   0  0  0  0  0  0  0  0  0  0  0  0
   -0.3325    3.8910   10.6299 N   0  0  0  0  0  0  0  0  0  0  0  0
    0.8808    3.3589   10.9978 C   0  0  0  0  0  0  0  0  0  0  0  0
    1.2718    2.5352   12.0615 C   0  0  0  0  0  0  0  0  0  0  0  0
   -0.3941   -2.6060   15.8167 C   0  0  0  0  0  0  0  0  0  0  0  0
   -1.7488   -2.8660   15.6892 C   0  0  0  0  0  0  0  0  0  0  0  0
   -3.8716   -3.4917   16.5069 H   0  0  0  0  0  0  0  0  0  0  0  0
   -5.5195   -3.0051   15.9834 H   0  0  0  0  0  0  0  0  0  0  0  0
   -4.6562   -4.3238   15.1218 H   0  0  0  0  0  0  0  0  0  0  0  0
   -5.6894   -1.7286   13.7768 H   0  0  0  0  0  0  0  0  0  0  0  0
   -4.1478   -1.2204   13.0075 H   0  0  0  0  0  0  0  0  0  0  0  0
   -3.8061   -3.5970   12.2653 H   0  0  0  0  0  0  0  0  0  0  0  0
   -5.4353   -3.9869   12.9136 H   0  0  0  0  0  0  0  0  0  0  0  0
   -5.4459   -3.5399   10.6675 H   0  0  0  0  0  0  0  0  0  0  0  0
   -2.5180   -0.5160   13.3491 H   0  0  0  0  0  0  0  0  0  0  0  0
   -0.0889   -0.0366   13.6173 H   0  0  0  0  0  0  0  0  0  0  0  0
    5.0757    1.0031   12.8625 H   0  0  0  0  0  0  0  0  0  0  0  0
    4.6175    2.3192   13.9959 H   0  0  0  0  0  0  0  0  0  0  0  0
    6.8364    0.8856   15.3048 H   0  0  0  0  0  0  0  0  0  0  0  0
    6.2618   -0.7780   17.3369 H   0  0  0  0  0  0  0  0  0  0  0  0
    2.8437    3.0290   12.7617 H   0  0  0  0  0  0  0  0  0  0  0  0
    4.5832    2.3665   11.2461 H   0  0  0  0  0  0  0  0  0  0  0  0
    3.8661    3.8165    9.3808 H   0  0  0  0  0  0  0  0  0  0  0  0
    1.3617    5.1041    8.2367 H   0  0  0  0  0  0  0  0  0  0  0  0
    0.5625    2.2014   12.8044 H   0  0  0  0  0  0  0  0  0  0  0  0
    0.1988   -3.2054   16.4917 H   0  0  0  0  0  0  0  0  0  0  0  0
   -2.1996   -3.6545   16.2736 H   0  0  0  0  0  0  0  0  0  0  0  0
  1  2  1  0  0  0  0
  2  3  1  0  0  0  0
  2  6  1  0  0  0  0
  3  4  1  0  0  0  0
  4  5  1  0  0  0  0
  6  7  2  0  0  0  0
  6 30  1  0  0  0  0
  7  8  1  0  0  0  0
  8  9  2  0  0  0  0
  9 10  1  0  0  0  0
  9 29  1  0  0  0  0
 10 11  2  0  0  0  0
 11 12  1  0  0  0  0
 11 19  1  0  0  0  0
 12 13  2  0  0  0  0
 13 14  1  0  0  0  0
 13 20  1  0  0  0  0
 14 15  1  0  0  0  0
 15 16  1  0  0  0  0
 15 19  1  0  0  0  0
 16 17  2  0  0  0  0
 17 18  1  0  0  0  0
 18 19  2  0  0  0  0
 20 21  1  0  0  0  0
 20 28  1  0  0  0  0
 21 22  2  0  0  0  0
 22 23  1  0  0  0  0
 23 24  2  0  0  0  0
 23 27  1  0  0  0  0
 24 25  1  0  0  0  0
 25 26  2  0  0  0  0
 26 27  1  0  0  0  0
 27 28  2  0  0  0  0
 29 30  2  0  0  0  0
  1 31  1  0  0  0  0
  1 32  1  0  0  0  0
  1 33  1  0  0  0  0
  3 34  1  0  0  0  0
  3 35  1  0  0  0  0
  4 36  1  0  0  0  0
  4 37  1  0  0  0  0
  5 38  1  0  0  0  0
  7 39  1  0  0  0  0
  8 40  1  0  0  0  0
 14 41  1  0  0  0  0
 14 42  1  0  0  0  0
 16 43  1  0  0  0  0
 17 44  1  0  0  0  0
 20 45  1  0  0  0  0
 21 46  1  0  0  0  0
 22 47  1  0  0  0  0
 24 48  1  0  0  0  0
 28 49  1  0  0  0  0
 29 50  1  0  0  0  0
 30 51  1  0  0  0  0
M  END
> <IC50[nM]>
7.6

$$$$
CHEMBL3265035
  -OEChem-05192314333D
 Structure written by MMmdl.
 51 55  0     1  0  0  0  0  0999 V2000
   -4.5368   -3.3612   15.6406 C   0  0  0  0  0  0  0  0  0  0  0  0
   -3.9561   -2.3810   14.7221 N   0  0  2  0  0  0  0  0  0  0  0  0
   -4.6759   -2.0519   13.4970 C   0  0  0  0  0  0  0  0  0  0  0  0
   -4.8094   -3.1968   12.4731 C   0  0  0  0  0  0  0  0  0  0  0  0
   -5.3909   -2.7945   11.2538 O   0  0  0  0  0  0  0  0  0  0  0  0
   -2.5380   -2.1167   14.8106 C   0  0  0  0  0  0  0  0  0  0  0  0
   -1.9279   -1.0927   14.0460 C   0  0  0  0  0  0  0  0  0  0  0  0
   -0.5515   -0.8247   14.1929 C   0  0  0  0  0  0  0  0  0  0  0  0
    0.2181   -1.5869   15.0916 C   0  0  0  0  0  0  0  0  0  0  0  0
    1.6005   -1.3598   15.3303 N   0  0  0  0  0  0  0  0  0  0  0  0
    2.5326   -0.4516   14.7667 C   0  0  0  0  0  0  0  0  0  0  0  0
    2.1715    0.3794   13.7341 N   0  0  0  0  0  0  0  0  0  0  0  0
    3.1060    1.2367   13.2184 C   0  0  0  0  0  0  0  0  0  0  0  0
    4.4145    1.2803   13.6968 C   0  0  0  0  0  0  0  0  0  0  0  0
    4.7440    0.4821   14.7570 N   0  0  0  0  0  0  0  0  0  0  0  0
    5.8987    0.3805   15.4839 C   0  0  0  0  0  0  0  0  0  0  0  0
    5.5936   -0.5339   16.5243 C   0  0  0  0  0  0  0  0  0  0  0  0
    4.3807   -1.0510   16.3702 N   0  0  0  0  0  0  0  0  0  0  0  0
    3.8367   -0.4037   15.3198 C   0  0  0  0  0  0  0  0  0  0  0  0
    2.6315    2.1595   12.1222 C   0  0  0  0  0  0  0  0  0  0  0  0
    3.5425    2.6427   11.1618 C   0  0  0  0  0  0  0  0  0  0  0  0
    3.1486    3.4642   10.1071 C   0  0  0  0  0  0  0  0  0  0  0  0
    1.8051    3.8185   10.0149 C   0  0  0  0  0  0  0  0  0  0  0  0
    0.9940    4.5977    9.1169 C   0  0  0  0  0  0  0  0  0  0  0  0
   -0.2465    4.6060    9.5156 N   0  0  0  0  0  0  0  0  0  0  0  0
   -0.3325    3.8910   10.6299 N   0  0  0  0  0  0  0  0  0  0  0  0
    0.8808    3.3589   10.9978 C   0  0  3  0  0  0  0  0  0  0  0  0
    1.2718    2.5352   12.0615 C   0  0  0  0  0  0  0  0  0  0  0  0
   -0.3941   -2.6060   15.8167 C   0  0  0  0  0  0  0  0  0  0  0  0
   -1.7488   -2.8660   15.6892 C   0  0  0  0  0  0  0  0  0  0  0  0
   -3.8716   -3.4917   16.5069 H   0  0  0  0  0  0  0  0  0  0  0  0
   -5.5195   -3.0051   15.9834 H   0  0  0  0  0  0  0  0  0  0  0  0
   -4.6562   -4.3238   15.1218 H   0  0  0  0  0  0  0  0  0  0  0  0
   -5.6894   -1.7286   13.7768 H   0  0  0  0  0  0  0  0  0  0  0  0
   -4.1478   -1.2204   13.0075 H   0  0  0  0  0  0  0  0  0  0  0  0
   -3.8061   -3.5970   12.2653 H   0  0  0  0  0  0  0  0  0  0  0  0
   -5.4353   -3.9869   12.9136 H   0  0  0  0  0  0  0  0  0  0  0  0
   -5.4459   -3.5399   10.6675 H   0  0  0  0  0  0  0  0  0  0  0  0
   -2.5180   -0.5160   13.3491 H   0  0  0  0  0  0  0  0  0  0  0  0
   -0.0889   -0.0366   13.6173 H   0  0  0  0  0  0  0  0  0  0  0  0
    5.0757    1.0031   12.8625 H   0  0  0  0  0  0  0  0  0  0  0  0
    4.6175    2.3192   13.9959 H   0  0  0  0  0  0  0  0  0  0  0  0
    6.8364    0.8856   15.3048 H   0  0  0  0  0  0  0  0  0  0  0  0
    6.2618   -0.7780   17.3369 H   0  0  0  0  0  0  0  0  0  0  0  0
    4.5832    2.3665   11.2461 H   0  0  0  0  0  0  0  0  0  0  0  0
    3.8661    3.8165    9.3808 H   0  0  0  0  0  0  0  0  0  0  0  0
    1.3617    5.1041    8.2367 H   0  0  0  0  0  0  0  0  0  0  0  0
    1.0871    4.2493   11.6099 H   0  0  0  0  0  0  0  0  0  0  0  0
    0.5625    2.2014   12.8044 H   0  0  0  0  0  0  0  0  0  0  0  0
    0.1988   -3.2054   16.4917 H   0  0  0  0  0  0  0  0  0  0  0  0
   -2.1996   -3.6545   16.2736 H   0  0  0  0  0  0  0  0  0  0  0  0
  1  2  1  0  0  0  0
  2  3  1  0  0  0  0
  2  6  1  0  0  0  0
  3  4  1  0  0  0  0
  4  5  1  0  0  0  0
  6  7  2  0  0  0  0
  6 30  1  0  0  0  0
  7  8  1  0  0  0  0
  8  9  2  0  0  0  0
  9 10  1  0  0  0  0
  9 29  1  0  0  0  0
 10 11  2  0  0  0  0
 11 12  1  0  0  0  0
 11 19  1  0  0  0  0
 12 13  2  0  0  0  0
 13 14  1  0  0  0  0
 13 20  1  0  0  0  0
 14 15  1  0  0  0  0
 15 16  1  0  0  0  0
 15 19  1  0  0  0  0
 16 17  2  0  0  0  0
 17 18  1  0  0  0  0
 18 19  2  0  0  0  0
 20 21  1  0  0  0  0
 20 28  2  0  0  0  0
 21 22  2  0  0  0  0
 22 23  1  0  0  0  0
 23 24  2  0  0  0  0
 23 27  1  0  0  0  0
 24 25  1  0  0  0  0
 25 26  2  0  0  0  0
 26 27  1  0  0  0  0
 27 28  1  0  0  0  0
 29 30  2  0  0  0  0
  1 31  1  0  0  0  0
  1 32  1  0  0  0  0
  1 33  1  0  0  0  0
  3 34  1  0  0  0  0
  3 35  1  0  0  0  0
  4 36  1  0  0  0  0
  4 37  1  0  0  0  0
  5 38  1  0  0  0  0
  7 39  1  0  0  0  0
  8 40  1  0  0  0  0
 14 41  1  0  0  0  0
 14 42  1  0  0  0  0
 16 43  1  0  0  0  0
 17 44  1  0  0  0  0
 21 45  1  0  0  0  0
 22 46  1  0  0  0  0
 24 47  1  0  0  0  0
 27 48  1  0  0  0  0
 28 49  1  0  0  0  0
 29 50  1  0  0  0  0
 30 51  1  0  0  0  0
M  END
> <IC50[nM]>
7.6

$$$$
CHEMBL3265035
  -OEChem-05192314333D
 Structure written by MMmdl.
 51 55  0     1  0  0  0  0  0999 V2000
   -4.5368   -3.3612   15.6406 C   0  0  0  0  0  0  0  0  0  0  0  0
   -3.9561   -2.3810   14.7221 N   0  0  2  0  0  0  0  0  0  0  0  0
   -4.6759   -2.0519   13.4970 C   0  0  0  0  0  0  0  0  0  0  0  0
   -4.8094   -3.1968   12.4731 C   0  0  0  0  0  0  0  0  0  0  0  0
   -5.3909   -2.7945   11.2538 O   0  0  0  0  0  0  0  0  0  0  0  0
   -2.5380   -2.1167   14.8106 C   0  0  0  0  0  0  0  0  0  0  0  0
   -1.9279   -1.0927   14.0460 C   0  0  0  0  0  0  0  0  0  0  0  0
   -0.5515   -0.8247   14.1929 C   0  0  0  0  0  0  0  0  0  0  0  0
    0.2181   -1.5869   15.0916 C   0  0  0  0  0  0  0  0  0  0  0  0
    1.6005   -1.3598   15.3303 N   0  0  0  0  0  0  0  0  0  0  0  0
    2.5326   -0.4516   14.7667 C   0  0  0  0  0  0  0  0  0  0  0  0
    2.1715    0.3794   13.7341 N   0  0  0  0  0  0  0  0  0  0  0  0
    3.1060    1.2367   13.2184 C   0  0  0  0  0  0  0  0  0  0  0  0
    4.4145    1.2803   13.6968 C   0  0  0  0  0  0  0  0  0  0  0  0
    4.7440    0.4821   14.7570 N   0  0  0  0  0  0  0  0  0  0  0  0
    5.8987    0.3805   15.4839 C   0  0  0  0  0  0  0  0  0  0  0  0
    5.5936   -0.5339   16.5243 C   0  0  0  0  0  0  0  0  0  0  0  0
    4.3807   -1.0510   16.3702 N   0  0  0  0  0  0  0  0  0  0  0  0
    3.8367   -0.4037   15.3198 C   0  0  0  0  0  0  0  0  0  0  0  0
    2.6315    2.1595   12.1222 C   0  0  0  0  0  0  0  0  0  0  0  0
    3.5425    2.6427   11.1618 C   0  0  0  0  0  0  0  0  0  0  0  0
    3.1486    3.4642   10.1071 C   0  0  0  0  0  0  0  0  0  0  0  0
    1.8051    3.8185   10.0149 C   0  0  0  0  0  0  0  0  0  0  0  0
    0.9940    4.5977    9.1169 C   0  0  0  0  0  0  0  0  0  0  0  0
   -0.2465    4.6060    9.5156 N   0  0  0  0  0  0  0  0  0  0  0  0
   -0.3325    3.8910   10.6299 N   0  0  0  0  0  0  0  0  0  0  0  0
    0.8808    3.3589   10.9978 C   0  0  0  0  0  0  0  0  0  0  0  0
    1.2718    2.5352   12.0615 C   0  0  0  0  0  0  0  0  0  0  0  0
   -0.3941   -2.6060   15.8167 C   0  0  0  0  0  0  0  0  0  0  0  0
   -1.7488   -2.8660   15.6892 C   0  0  0  0  0  0  0  0  0  0  0  0
   -3.8716   -3.4917   16.5069 H   0  0  0  0  0  0  0  0  0  0  0  0
   -5.5195   -3.0051   15.9834 H   0  0  0  0  0  0  0  0  0  0  0  0
   -4.6562   -4.3238   15.1218 H   0  0  0  0  0  0  0  0  0  0  0  0
   -5.6894   -1.7286   13.7768 H   0  0  0  0  0  0  0  0  0  0  0  0
   -4.1478   -1.2204   13.0075 H   0  0  0  0  0  0  0  0  0  0  0  0
   -3.8061   -3.5970   12.2653 H   0  0  0  0  0  0  0  0  0  0  0  0
   -5.4353   -3.9869   12.9136 H   0  0  0  0  0  0  0  0  0  0  0  0
   -5.4459   -3.5399   10.6675 H   0  0  0  0  0  0  0  0  0  0  0  0
   -2.5180   -0.5160   13.3491 H   0  0  0  0  0  0  0  0  0  0  0  0
   -0.0889   -0.0366   13.6173 H   0  0  0  0  0  0  0  0  0  0  0  0
    5.0757    1.0031   12.8625 H   0  0  0  0  0  0  0  0  0  0  0  0
    4.6175    2.3192   13.9959 H   0  0  0  0  0  0  0  0  0  0  0  0
    6.8364    0.8856   15.3048 H   0  0  0  0  0  0  0  0  0  0  0  0
    6.2618   -0.7780   17.3369 H   0  0  0  0  0  0  0  0  0  0  0  0
    4.5832    2.3665   11.2461 H   0  0  0  0  0  0  0  0  0  0  0  0
    3.7270    4.3965   10.1864 H   0  0  0  0  0  0  0  0  0  0  0  0
    3.4140    2.9463    9.1737 H   0  0  0  0  0  0  0  0  0  0  0  0
    1.3617    5.1041    8.2367 H   0  0  0  0  0  0  0  0  0  0  0  0
    0.5625    2.2014   12.8044 H   0  0  0  0  0  0  0  0  0  0  0  0
    0.1988   -3.2054   16.4917 H   0  0  0  0  0  0  0  0  0  0  0  0
   -2.1996   -3.6545   16.2736 H   0  0  0  0  0  0  0  0  0  0  0  0
  1  2  1  0  0  0  0
  2  3  1  0  0  0  0
  2  6  1  0  0  0  0
  3  4  1  0  0  0  0
  4  5  1  0  0  0  0
  6  7  2  0  0  0  0
  6 30  1  0  0  0  0
  7  8  1  0  0  0  0
  8  9  2  0  0  0  0
  9 10  1  0  0  0  0
  9 29  1  0  0  0  0
 10 11  2  0  0  0  0
 11 12  1  0  0  0  0
 11 19  1  0  0  0  0
 12 13  2  0  0  0  0
 13 14  1  0  0  0  0
 13 20  1  0  0  0  0
 14 15  1  0  0  0  0
 15 16  1  0  0  0  0
 15 19  1  0  0  0  0
 16 17  2  0  0  0  0
 17 18  1  0  0  0  0
 18 19  2  0  0  0  0
 20 21  2  0  0  0  0
 20 28  1  0  0  0  0
 21 22  1  0  0  0  0
 22 23  1  0  0  0  0
 23 24  2  0  0  0  0
 23 27  1  0  0  0  0
 24 25  1  0  0  0  0
 25 26  2  0  0  0  0
 26 27  1  0  0  0  0
 27 28  2  0  0  0  0
 29 30  2  0  0  0  0
  1 31  1  0  0  0  0
  1 32  1  0  0  0  0
  1 33  1  0  0  0  0
  3 34  1  0  0  0  0
  3 35  1  0  0  0  0
  4 36  1  0  0  0  0
  4 37  1  0  0  0  0
  5 38  1  0  0  0  0
  7 39  1  0  0  0  0
  8 40  1  0  0  0  0
 14 41  1  0  0  0  0
 14 42  1  0  0  0  0
 16 43  1  0  0  0  0
 17 44  1  0  0  0  0
 21 45  1  0  0  0  0
 22 46  1  0  0  0  0
 22 47  1  0  0  0  0
 24 48  1  0  0  0  0
 28 49  1  0  0  0  0
 29 50  1  0  0  0  0
 30 51  1  0  0  0  0
M  END
> <IC50[nM]>
7.6

$$$$
CHEMBL3265035
  -OEChem-05192314333D
 Structure written by MMmdl.
 51 55  0     1  0  0  0  0  0999 V2000
   -4.5368   -3.3612   15.6406 C   0  0  0  0  0  0  0  0  0  0  0  0
   -3.9561   -2.3810   14.7221 N   0  0  2  0  0  0  0  0  0  0  0  0
   -4.6759   -2.0519   13.4970 C   0  0  0  0  0  0  0  0  0  0  0  0
   -4.8094   -3.1968   12.4731 C   0  0  0  0  0  0  0  0  0  0  0  0
   -5.3909   -2.7945   11.2538 O   0  0  0  0  0  0  0  0  0  0  0  0
   -2.5380   -2.1167   14.8106 C   0  0  0  0  0  0  0  0  0  0  0  0
   -1.9279   -1.0927   14.0460 C   0  0  0  0  0  0  0  0  0  0  0  0
   -0.5515   -0.8247   14.1929 C   0  0  0  0  0  0  0  0  0  0  0  0
    0.2181   -1.5869   15.0916 C   0  0  0  0  0  0  0  0  0  0  0  0
    1.6005   -1.3598   15.3303 N   0  0  0  0  0  0  0  0  0  0  0  0
    2.5326   -0.4516   14.7667 C   0  0  0  0  0  0  0  0  0  0  0  0
    2.1715    0.3794   13.7341 N   0  0  0  0  0  0  0  0  0  0  0  0
    3.1060    1.2367   13.2184 C   0  0  0  0  0  0  0  0  0  0  0  0
    4.4145    1.2803   13.6968 C   0  0  0  0  0  0  0  0  0  0  0  0
    4.7440    0.4821   14.7570 N   0  0  0  0  0  0  0  0  0  0  0  0
    5.8987    0.3805   15.4839 C   0  0  0  0  0  0  0  0  0  0  0  0
    5.5936   -0.5339   16.5243 C   0  0  0  0  0  0  0  0  0  0  0  0
    4.3807   -1.0510   16.3702 N   0  0  0  0  0  0  0  0  0  0  0  0
    3.8367   -0.4037   15.3198 C   0  0  0  0  0  0  0  0  0  0  0  0
    2.6315    2.1595   12.1222 C   0  0  0  0  0  0  0  0  0  0  0  0
    3.5425    2.6427   11.1618 C   0  0  0  0  0  0  0  0  0  0  0  0
    3.1486    3.4642   10.1071 C   0  0  0  0  0  0  0  0  0  0  0  0
    1.8051    3.8185   10.0149 C   0  0  0  0  0  0  0  0  0  0  0  0
    0.9940    4.5977    9.1169 C   0  0  0  0  0  0  0  0  0  0  0  0
   -0.2465    4.6060    9.5156 N   0  0  0  0  0  0  0  0  0  0  0  0
   -0.3325    3.8910   10.6299 N   0  0  0  0  0  0  0  0  0  0  0  0
    0.8808    3.3589   10.9978 C   0  0  0  0  0  0  0  0  0  0  0  0
    1.2718    2.5352   12.0615 C   0  0  0  0  0  0  0  0  0  0  0  0
   -0.3941   -2.6060   15.8167 C   0  0  0  0  0  0  0  0  0  0  0  0
   -1.7488   -2.8660   15.6892 C   0  0  0  0  0  0  0  0  0  0  0  0
   -3.8716   -3.4917   16.5069 H   0  0  0  0  0  0  0  0  0  0  0  0
   -5.5195   -3.0051   15.9834 H   0  0  0  0  0  0  0  0  0  0  0  0
   -4.6562   -4.3238   15.1218 H   0  0  0  0  0  0  0  0  0  0  0  0
   -5.6894   -1.7286   13.7768 H   0  0  0  0  0  0  0  0  0  0  0  0
   -4.1478   -1.2204   13.0075 H   0  0  0  0  0  0  0  0  0  0  0  0
   -3.8061   -3.5970   12.2653 H   0  0  0  0  0  0  0  0  0  0  0  0
   -5.4353   -3.9869   12.9136 H   0  0  0  0  0  0  0  0  0  0  0  0
   -5.4459   -3.5399   10.6675 H   0  0  0  0  0  0  0  0  0  0  0  0
   -2.3452   -2.8422   14.0066 H   0  0  0  0  0  0  0  0  0  0  0  0
   -2.5180   -0.5160   13.3491 H   0  0  0  0  0  0  0  0  0  0  0  0
   -0.0889   -0.0366   13.6173 H   0  0  0  0  0  0  0  0  0  0  0  0
    5.0757    1.0031   12.8625 H   0  0  0  0  0  0  0  0  0  0  0  0
    4.6175    2.3192   13.9959 H   0  0  0  0  0  0  0  0  0  0  0  0
    6.8364    0.8856   15.3048 H   0  0  0  0  0  0  0  0  0  0  0  0
    6.2618   -0.7780   17.3369 H   0  0  0  0  0  0  0  0  0  0  0  0
    4.5832    2.3665   11.2461 H   0  0  0  0  0  0  0  0  0  0  0  0
    3.8661    3.8165    9.3808 H   0  0  0  0  0  0  0  0  0  0  0  0
    1.3617    5.1041    8.2367 H   0  0  0  0  0  0  0  0  0  0  0  0
    0.5625    2.2014   12.8044 H   0  0  0  0  0  0  0  0  0  0  0  0
    0.1988   -3.2054   16.4917 H   0  0  0  0  0  0  0  0  0  0  0  0
   -2.1996   -3.6545   16.2736 H   0  0  0  0  0  0  0  0  0  0  0  0
  1  2  1  0  0  0  0
  2  3  1  0  0  0  0
  2  6  1  0  0  0  0
  3  4  1  0  0  0  0
  4  5  1  0  0  0  0
  6  7  1  0  0  0  0
  6 30  1  0  0  0  0
  7  8  2  0  0  0  0
  8  9  1  0  0  0  0
  9 10  2  0  0  0  0
  9 29  1  0  0  0  0
 10 11  1  0  0  0  0
 11 12  2  0  0  0  0
 11 19  1  0  0  0  0
 12 13  1  0  0  0  0
 13 14  1  0  0  0  0
 13 20  2  0  0  0  0
 14 15  1  0  0  0  0
 15 16  1  0  0  0  0
 15 19  1  0  0  0  0
 16 17  2  0  0  0  0
 17 18  1  0  0  0  0
 18 19  2  0  0  0  0
 20 21  1  0  0  0  0
 20 28  1  0  0  0  0
 21 22  2  0  0  0  0
 22 23  1  0  0  0  0
 23 24  2  0  0  0  0
 23 27  1  0  0  0  0
 24 25  1  0  0  0  0
 25 26  2  0  0  0  0
 26 27  1  0  0  0  0
 27 28  2  0  0  0  0
 29 30  2  0  0  0  0
  1 31  1  0  0  0  0
  1 32  1  0  0  0  0
  1 33  1  0  0  0  0
  3 34  1  0  0  0  0
  3 35  1  0  0  0  0
  4 36  1  0  0  0  0
  4 37  1  0  0  0  0
  5 38  1  0  0  0  0
  6 39  1  0  0  0  0
  7 40  1  0  0  0  0
  8 41  1  0  0  0  0
 14 42  1  0  0  0  0
 14 43  1  0  0  0  0
 16 44  1  0  0  0  0
 17 45  1  0  0  0  0
 21 46  1  0  0  0  0
 22 47  1  0  0  0  0
 24 48  1  0  0  0  0
 28 49  1  0  0  0  0
 29 50  1  0  0  0  0
 30 51  1  0  0  0  0
M  END
> <IC50[nM]>
7.6

$$$$
CHEMBL3265035
  -OEChem-05192314333D
 Structure written by MMmdl.
 51 55  0     1  0  0  0  0  0999 V2000
   -4.5368   -3.3612   15.6406 C   0  0  0  0  0  0  0  0  0  0  0  0
   -3.9561   -2.3810   14.7221 N   0  0  2  0  0  0  0  0  0  0  0  0
   -4.6759   -2.0519   13.4970 C   0  0  0  0  0  0  0  0  0  0  0  0
   -4.8094   -3.1968   12.4731 C   0  0  0  0  0  0  0  0  0  0  0  0
   -5.3909   -2.7945   11.2538 O   0  0  0  0  0  0  0  0  0  0  0  0
   -2.5380   -2.1167   14.8106 C   0  0  0  0  0  0  0  0  0  0  0  0
   -1.9279   -1.0927   14.0460 C   0  0  0  0  0  0  0  0  0  0  0  0
   -0.5515   -0.8247   14.1929 C   0  0  0  0  0  0  0  0  0  0  0  0
    0.2181   -1.5869   15.0916 C   0  0  0  0  0  0  0  0  0  0  0  0
    1.6005   -1.3598   15.3303 N   0  0  0  0  0  0  0  0  0  0  0  0
    2.5326   -0.4516   14.7667 C   0  0  0  0  0  0  0  0  0  0  0  0
    2.1715    0.3794   13.7341 N   0  0  0  0  0  0  0  0  0  0  0  0
    3.1060    1.2367   13.2184 C   0  0  0  0  0  0  0  0  0  0  0  0
    4.4145    1.2803   13.6968 C   0  0  0  0  0  0  0  0  0  0  0  0
    4.7440    0.4821   14.7570 N   0  0  0  0  0  0  0  0  0  0  0  0
    5.8987    0.3805   15.4839 C   0  0  0  0  0  0  0  0  0  0  0  0
    5.5936   -0.5339   16.5243 C   0  0  0  0  0  0  0  0  0  0  0  0
    4.3807   -1.0510   16.3702 N   0  0  0  0  0  0  0  0  0  0  0  0
    3.8367   -0.4037   15.3198 C   0  0  0  0  0  0  0  0  0  0  0  0
    2.6315    2.1595   12.1222 C   0  0  0  0  0  0  0  0  0  0  0  0
    3.5425    2.6427   11.1618 C   0  0  0  0  0  0  0  0  0  0  0  0
    3.1486    3.4642   10.1071 C   0  0  0  0  0  0  0  0  0  0  0  0
    1.8051    3.8185   10.0149 C   0  0  0  0  0  0  0  0  0  0  0  0
    0.9940    4.5977    9.1169 C   0  0  0  0  0  0  0  0  0  0  0  0
   -0.2465    4.6060    9.5156 N   0  0  0  0  0  0  0  0  0  0  0  0
   -0.3325    3.8910   10.6299 N   0  0  0  0  0  0  0  0  0  0  0  0
    0.8808    3.3589   10.9978 C   0  0  0  0  0  0  0  0  0  0  0  0
    1.2718    2.5352   12.0615 C   0  0  0  0  0  0  0  0  0  0  0  0
   -0.3941   -2.6060   15.8167 C   0  0  0  0  0  0  0  0  0  0  0  0
   -1.7488   -2.8660   15.6892 C   0  0  0  0  0  0  0  0  0  0  0  0
   -3.8716   -3.4917   16.5069 H   0  0  0  0  0  0  0  0  0  0  0  0
   -5.5195   -3.0051   15.9834 H   0  0  0  0  0  0  0  0  0  0  0  0
   -4.6562   -4.3238   15.1218 H   0  0  0  0  0  0  0  0  0  0  0  0
   -5.6894   -1.7286   13.7768 H   0  0  0  0  0  0  0  0  0  0  0  0
   -4.1478   -1.2204   13.0075 H   0  0  0  0  0  0  0  0  0  0  0  0
   -3.8061   -3.5970   12.2653 H   0  0  0  0  0  0  0  0  0  0  0  0
   -5.4353   -3.9869   12.9136 H   0  0  0  0  0  0  0  0  0  0  0  0
   -5.4459   -3.5399   10.6675 H   0  0  0  0  0  0  0  0  0  0  0  0
   -2.5180   -0.5160   13.3491 H   0  0  0  0  0  0  0  0  0  0  0  0
   -0.0889   -0.0366   13.6173 H   0  0  0  0  0  0  0  0  0  0  0  0
    5.0757    1.0031   12.8625 H   0  0  0  0  0  0  0  0  0  0  0  0
    4.6175    2.3192   13.9959 H   0  0  0  0  0  0  0  0  0  0  0  0
    6.8364    0.8856   15.3048 H   0  0  0  0  0  0  0  0  0  0  0  0
    6.2618   -0.7780   17.3369 H   0  0  0  0  0  0  0  0  0  0  0  0
    4.5832    2.3665   11.2461 H   0  0  0  0  0  0  0  0  0  0  0  0
    3.8661    3.8165    9.3808 H   0  0  0  0  0  0  0  0  0  0  0  0
    1.3617    5.1041    8.2367 H   0  0  0  0  0  0  0  0  0  0  0  0
    0.5625    2.2014   12.8044 H   0  0  0  0  0  0  0  0  0  0  0  0
    0.1281   -3.5362   15.5482 H   0  0  0  0  0  0  0  0  0  0  0  0
   -0.2189   -2.3808   16.8791 H   0  0  0  0  0  0  0  0  0  0  0  0
   -2.1996   -3.6545   16.2736 H   0  0  0  0  0  0  0  0  0  0  0  0
  1  2  1  0  0  0  0
  2  3  1  0  0  0  0
  2  6  1  0  0  0  0
  3  4  1  0  0  0  0
  4  5  1  0  0  0  0
  6  7  1  0  0  0  0
  6 30  2  0  0  0  0
  7  8  2  0  0  0  0
  8  9  1  0  0  0  0
  9 10  2  0  0  0  0
  9 29  1  0  0  0  0
 10 11  1  0  0  0  0
 11 12  2  0  0  0  0
 11 19  1  0  0  0  0
 12 13  1  0  0  0  0
 13 14  1  0  0  0  0
 13 20  2  0  0  0  0
 14 15  1  0  0  0  0
 15 16  1  0  0  0  0
 15 19  1  0  0  0  0
 16 17  2  0  0  0  0
 17 18  1  0  0  0  0
 18 19  2  0  0  0  0
 20 21  1  0  0  0  0
 20 28  1  0  0  0  0
 21 22  2  0  0  0  0
 22 23  1  0  0  0  0
 23 24  2  0  0  0  0
 23 27  1  0  0  0  0
 24 25  1  0  0  0  0
 25 26  2  0  0  0  0
 26 27  1  0  0  0  0
 27 28  2  0  0  0  0
 29 30  1  0  0  0  0
  1 31  1  0  0  0  0
  1 32  1  0  0  0  0
  1 33  1  0  0  0  0
  3 34  1  0  0  0  0
  3 35  1  0  0  0  0
  4 36  1  0  0  0  0
  4 37  1  0  0  0  0
  5 38  1  0  0  0  0
  7 39  1  0  0  0  0
  8 40  1  0  0  0  0
 14 41  1  0  0  0  0
 14 42  1  0  0  0  0
 16 43  1  0  0  0  0
 17 44  1  0  0  0  0
 21 45  1  0  0  0  0
 22 46  1  0  0  0  0
 24 47  1  0  0  0  0
 28 48  1  0  0  0  0
 29 49  1  0  0  0  0
 29 50  1  0  0  0  0
 30 51  1  0  0  0  0
M  END
> <IC50[nM]>
7.6

$$$$
CHEMBL3265035
  -OEChem-05192314333D
 Structure written by MMmdl.
 51 55  0     1  0  0  0  0  0999 V2000
   -4.5368   -3.3612   15.6406 C   0  0  0  0  0  0  0  0  0  0  0  0
   -3.9561   -2.3810   14.7221 N   0  0  2  0  0  0  0  0  0  0  0  0
   -4.6759   -2.0519   13.4970 C   0  0  0  0  0  0  0  0  0  0  0  0
   -4.8094   -3.1968   12.4731 C   0  0  0  0  0  0  0  0  0  0  0  0
   -5.3909   -2.7945   11.2538 O   0  0  0  0  0  0  0  0  0  0  0  0
   -2.5380   -2.1167   14.8106 C   0  0  0  0  0  0  0  0  0  0  0  0
   -1.9279   -1.0927   14.0460 C   0  0  0  0  0  0  0  0  0  0  0  0
   -0.5515   -0.8247   14.1929 C   0  0  0  0  0  0  0  0  0  0  0  0
    0.2181   -1.5869   15.0916 C   0  0  0  0  0  0  0  0  0  0  0  0
    1.6005   -1.3598   15.3303 N   0  0  0  0  0  0  0  0  0  0  0  0
    2.5326   -0.4516   14.7667 C   0  0  0  0  0  0  0  0  0  0  0  0
    2.1715    0.3794   13.7341 N   0  0  0  0  0  0  0  0  0  0  0  0
    3.1060    1.2367   13.2184 C   0  0  0  0  0  0  0  0  0  0  0  0
    4.4145    1.2803   13.6968 C   0  0  0  0  0  0  0  0  0  0  0  0
    4.7440    0.4821   14.7570 N   0  0  0  0  0  0  0  0  0  0  0  0
    5.8987    0.3805   15.4839 C   0  0  0  0  0  0  0  0  0  0  0  0
    5.5936   -0.5339   16.5243 C   0  0  0  0  0  0  0  0  0  0  0  0
    4.3807   -1.0510   16.3702 N   0  0  0  0  0  0  0  0  0  0  0  0
    3.8367   -0.4037   15.3198 C   0  0  0  0  0  0  0  0  0  0  0  0
    2.6315    2.1595   12.1222 C   0  0  0  0  0  0  0  0  0  0  0  0
    3.5425    2.6427   11.1618 C   0  0  0  0  0  0  0  0  0  0  0  0
    3.1486    3.4642   10.1071 C   0  0  0  0  0  0  0  0  0  0  0  0
    1.8051    3.8185   10.0149 C   0  0  3  0  0  0  0  0  0  0  0  0
    0.9940    4.5977    9.1169 C   0  0  0  0  0  0  0  0  0  0  0  0
   -0.2465    4.6060    9.5156 N   0  0  0  0  0  0  0  0  0  0  0  0
   -0.3325    3.8910   10.6299 N   0  0  0  0  0  0  0  0  0  0  0  0
    0.8808    3.3589   10.9978 C   0  0  0  0  0  0  0  0  0  0  0  0
    1.2718    2.5352   12.0615 C   0  0  0  0  0  0  0  0  0  0  0  0
   -0.3941   -2.6060   15.8167 C   0  0  0  0  0  0  0  0  0  0  0  0
   -1.7488   -2.8660   15.6892 C   0  0  0  0  0  0  0  0  0  0  0  0
   -3.8716   -3.4917   16.5069 H   0  0  0  0  0  0  0  0  0  0  0  0
   -5.5195   -3.0051   15.9834 H   0  0  0  0  0  0  0  0  0  0  0  0
   -4.6562   -4.3238   15.1218 H   0  0  0  0  0  0  0  0  0  0  0  0
   -5.6894   -1.7286   13.7768 H   0  0  0  0  0  0  0  0  0  0  0  0
   -4.1478   -1.2204   13.0075 H   0  0  0  0  0  0  0  0  0  0  0  0
   -3.8061   -3.5970   12.2653 H   0  0  0  0  0  0  0  0  0  0  0  0
   -5.4353   -3.9869   12.9136 H   0  0  0  0  0  0  0  0  0  0  0  0
   -5.4459   -3.5399   10.6675 H   0  0  0  0  0  0  0  0  0  0  0  0
   -2.3452   -2.8422   14.0066 H   0  0  0  0  0  0  0  0  0  0  0  0
   -2.5180   -0.5160   13.3491 H   0  0  0  0  0  0  0  0  0  0  0  0
   -0.0889   -0.0366   13.6173 H   0  0  0  0  0  0  0  0  0  0  0  0
    5.1493    1.9279   13.2417 H   0  0  0  0  0  0  0  0  0  0  0  0
    6.8364    0.8856   15.3048 H   0  0  0  0  0  0  0  0  0  0  0  0
    6.2618   -0.7780   17.3369 H   0  0  0  0  0  0  0  0  0  0  0  0
    4.5832    2.3665   11.2461 H   0  0  0  0  0  0  0  0  0  0  0  0
    3.8661    3.8165    9.3808 H   0  0  0  0  0  0  0  0  0  0  0  0
    2.0004    4.7171   10.6185 H   0  0  0  0  0  0  0  0  0  0  0  0
    1.3617    5.1041    8.2367 H   0  0  0  0  0  0  0  0  0  0  0  0
    0.5625    2.2014   12.8044 H   0  0  0  0  0  0  0  0  0  0  0  0
    0.1988   -3.2054   16.4917 H   0  0  0  0  0  0  0  0  0  0  0  0
   -2.1996   -3.6545   16.2736 H   0  0  0  0  0  0  0  0  0  0  0  0
  1  2  1  0  0  0  0
  2  3  1  0  0  0  0
  2  6  1  0  0  0  0
  3  4  1  0  0  0  0
  4  5  1  0  0  0  0
  6  7  1  0  0  0  0
  6 30  1  0  0  0  0
  7  8  2  0  0  0  0
  8  9  1  0  0  0  0
  9 10  2  0  0  0  0
  9 29  1  0  0  0  0
 10 11  1  0  0  0  0
 11 12  2  0  0  0  0
 11 19  1  0  0  0  0
 12 13  1  0  0  0  0
 13 14  2  0  0  0  0
 13 20  1  0  0  0  0
 14 15  1  0  0  0  0
 15 16  1  0  0  0  0
 15 19  1  0  0  0  0
 16 17  2  0  0  0  0
 17 18  1  0  0  0  0
 18 19  2  0  0  0  0
 20 21  1  0  0  0  0
 20 28  2  0  0  0  0
 21 22  2  0  0  0  0
 22 23  1  0  0  0  0
 23 24  1  0  0  0  0
 23 27  1  0  0  0  0
 24 25  2  0  0  0  0
 25 26  1  0  0  0  0
 26 27  2  0  0  0  0
 27 28  1  0  0  0  0
 29 30  2  0  0  0  0
  1 31  1  0  0  0  0
  1 32  1  0  0  0  0
  1 33  1  0  0  0  0
  3 34  1  0  0  0  0
  3 35  1  0  0  0  0
  4 36  1  0  0  0  0
  4 37  1  0  0  0  0
  5 38  1  0  0  0  0
  6 39  1  0  0  0  0
  7 40  1  0  0  0  0
  8 41  1  0  0  0  0
 14 42  1  0  0  0  0
 16 43  1  0  0  0  0
 17 44  1  0  0  0  0
 21 45  1  0  0  0  0
 22 46  1  0  0  0  0
 23 47  1  0  0  0  0
 24 48  1  0  0  0  0
 28 49  1  0  0  0  0
 29 50  1  0  0  0  0
 30 51  1  0  0  0  0
M  END
> <IC50[nM]>
7.6

$$$$
CHEMBL3265035
  -OEChem-05192314333D
 Structure written by MMmdl.
 51 55  0     1  0  0  0  0  0999 V2000
   -4.5368   -3.3612   15.6406 C   0  0  0  0  0  0  0  0  0  0  0  0
   -3.9561   -2.3810   14.7221 N   0  0  2  0  0  0  0  0  0  0  0  0
   -4.6759   -2.0519   13.4970 C   0  0  0  0  0  0  0  0  0  0  0  0
   -4.8094   -3.1968   12.4731 C   0  0  0  0  0  0  0  0  0  0  0  0
   -5.3909   -2.7945   11.2538 O   0  0  0  0  0  0  0  0  0  0  0  0
   -2.5380   -2.1167   14.8106 C   0  0  0  0  0  0  0  0  0  0  0  0
   -1.9279   -1.0927   14.0460 C   0  0  0  0  0  0  0  0  0  0  0  0
   -0.5515   -0.8247   14.1929 C   0  0  0  0  0  0  0  0  0  0  0  0
    0.2181   -1.5869   15.0916 C   0  0  0  0  0  0  0  0  0  0  0  0
    1.6005   -1.3598   15.3303 N   0  0  0  0  0  0  0  0  0  0  0  0
    2.5326   -0.4516   14.7667 C   0  0  0  0  0  0  0  0  0  0  0  0
    2.1715    0.3794   13.7341 N   0  0  0  0  0  0  0  0  0  0  0  0
    3.1060    1.2367   13.2184 C   0  0  0  0  0  0  0  0  0  0  0  0
    4.4145    1.2803   13.6968 C   0  0  0  0  0  0  0  0  0  0  0  0
    4.7440    0.4821   14.7570 N   0  0  0  0  0  0  0  0  0  0  0  0
    5.8987    0.3805   15.4839 C   0  0  0  0  0  0  0  0  0  0  0  0
    5.5936   -0.5339   16.5243 C   0  0  0  0  0  0  0  0  0  0  0  0
    4.3807   -1.0510   16.3702 N   0  0  0  0  0  0  0  0  0  0  0  0
    3.8367   -0.4037   15.3198 C   0  0  0  0  0  0  0  0  0  0  0  0
    2.6315    2.1595   12.1222 C   0  0  0  0  0  0  0  0  0  0  0  0
    3.5425    2.6427   11.1618 C   0  0  0  0  0  0  0  0  0  0  0  0
    3.1486    3.4642   10.1071 C   0  0  0  0  0  0  0  0  0  0  0  0
    1.8051    3.8185   10.0149 C   0  0  3  0  0  0  0  0  0  0  0  0
    0.9940    4.5977    9.1169 C   0  0  0  0  0  0  0  0  0  0  0  0
   -0.2465    4.6060    9.5156 N   0  0  0  0  0  0  0  0  0  0  0  0
   -0.3325    3.8910   10.6299 N   0  0  0  0  0  0  0  0  0  0  0  0
    0.8808    3.3589   10.9978 C   0  0  0  0  0  0  0  0  0  0  0  0
    1.2718    2.5352   12.0615 C   0  0  0  0  0  0  0  0  0  0  0  0
   -0.3941   -2.6060   15.8167 C   0  0  0  0  0  0  0  0  0  0  0  0
   -1.7488   -2.8660   15.6892 C   0  0  0  0  0  0  0  0  0  0  0  0
   -3.8716   -3.4917   16.5069 H   0  0  0  0  0  0  0  0  0  0  0  0
   -5.5195   -3.0051   15.9834 H   0  0  0  0  0  0  0  0  0  0  0  0
   -4.6562   -4.3238   15.1218 H   0  0  0  0  0  0  0  0  0  0  0  0
   -5.6894   -1.7286   13.7768 H   0  0  0  0  0  0  0  0  0  0  0  0
   -4.1478   -1.2204   13.0075 H   0  0  0  0  0  0  0  0  0  0  0  0
   -3.8061   -3.5970   12.2653 H   0  0  0  0  0  0  0  0  0  0  0  0
   -5.4353   -3.9869   12.9136 H   0  0  0  0  0  0  0  0  0  0  0  0
   -5.4459   -3.5399   10.6675 H   0  0  0  0  0  0  0  0  0  0  0  0
   -2.5180   -0.5160   13.3491 H   0  0  0  0  0  0  0  0  0  0  0  0
   -0.0889   -0.0366   13.6173 H   0  0  0  0  0  0  0  0  0  0  0  0
    5.1493    1.9279   13.2417 H   0  0  0  0  0  0  0  0  0  0  0  0
    6.8364    0.8856   15.3048 H   0  0  0  0  0  0  0  0  0  0  0  0
    6.2618   -0.7780   17.3369 H   0  0  0  0  0  0  0  0  0  0  0  0
    4.5832    2.3665   11.2461 H   0  0  0  0  0  0  0  0  0  0  0  0
    3.8661    3.8165    9.3808 H   0  0  0  0  0  0  0  0  0  0  0  0
    2.0004    4.7171   10.6185 H   0  0  0  0  0  0  0  0  0  0  0  0
    1.3617    5.1041    8.2367 H   0  0  0  0  0  0  0  0  0  0  0  0
    0.5625    2.2014   12.8044 H   0  0  0  0  0  0  0  0  0  0  0  0
    0.1281   -3.5362   15.5482 H   0  0  0  0  0  0  0  0  0  0  0  0
   -0.2189   -2.3808   16.8791 H   0  0  0  0  0  0  0  0  0  0  0  0
   -2.1996   -3.6545   16.2736 H   0  0  0  0  0  0  0  0  0  0  0  0
  1  2  1  0  0  0  0
  2  3  1  0  0  0  0
  2  6  1  0  0  0  0
  3  4  1  0  0  0  0
  4  5  1  0  0  0  0
  6  7  1  0  0  0  0
  6 30  2  0  0  0  0
  7  8  2  0  0  0  0
  8  9  1  0  0  0  0
  9 10  2  0  0  0  0
  9 29  1  0  0  0  0
 10 11  1  0  0  0  0
 11 12  2  0  0  0  0
 11 19  1  0  0  0  0
 12 13  1  0  0  0  0
 13 14  2  0  0  0  0
 13 20  1  0  0  0  0
 14 15  1  0  0  0  0
 15 16  1  0  0  0  0
 15 19  1  0  0  0  0
 16 17  2  0  0  0  0
 17 18  1  0  0  0  0
 18 19  2  0  0  0  0
 20 21  1  0  0  0  0
 20 28  2  0  0  0  0
 21 22  2  0  0  0  0
 22 23  1  0  0  0  0
 23 24  1  0  0  0  0
 23 27  1  0  0  0  0
 24 25  2  0  0  0  0
 25 26  1  0  0  0  0
 26 27  2  0  0  0  0
 27 28  1  0  0  0  0
 29 30  1  0  0  0  0
  1 31  1  0  0  0  0
  1 32  1  0  0  0  0
  1 33  1  0  0  0  0
  3 34  1  0  0  0  0
  3 35  1  0  0  0  0
  4 36  1  0  0  0  0
  4 37  1  0  0  0  0
  5 38  1  0  0  0  0
  7 39  1  0  0  0  0
  8 40  1  0  0  0  0
 14 41  1  0  0  0  0
 16 42  1  0  0  0  0
 17 43  1  0  0  0  0
 21 44  1  0  0  0  0
 22 45  1  0  0  0  0
 23 46  1  0  0  0  0
 24 47  1  0  0  0  0
 28 48  1  0  0  0  0
 29 49  1  0  0  0  0
 29 50  1  0  0  0  0
 30 51  1  0  0  0  0
M  END
> <IC50[nM]>
7.6

$$$$
CHEMBL3265035
  -OEChem-05192314333D
 Structure written by MMmdl.
 51 55  0     1  0  0  0  0  0999 V2000
   -4.5368   -3.3612   15.6406 C   0  0  0  0  0  0  0  0  0  0  0  0
   -3.9561   -2.3810   14.7221 N   0  0  2  0  0  0  0  0  0  0  0  0
   -4.6759   -2.0519   13.4970 C   0  0  0  0  0  0  0  0  0  0  0  0
   -4.8094   -3.1968   12.4731 C   0  0  0  0  0  0  0  0  0  0  0  0
   -5.3909   -2.7945   11.2538 O   0  0  0  0  0  0  0  0  0  0  0  0
   -2.5380   -2.1167   14.8106 C   0  0  0  0  0  0  0  0  0  0  0  0
   -1.9279   -1.0927   14.0460 C   0  0  0  0  0  0  0  0  0  0  0  0
   -0.5515   -0.8247   14.1929 C   0  0  0  0  0  0  0  0  0  0  0  0
    0.2181   -1.5869   15.0916 C   0  0  0  0  0  0  0  0  0  0  0  0
    1.6005   -1.3598   15.3303 N   0  0  0  0  0  0  0  0  0  0  0  0
    2.5326   -0.4516   14.7667 C   0  0  0  0  0  0  0  0  0  0  0  0
    2.1715    0.3794   13.7341 N   0  0  0  0  0  0  0  0  0  0  0  0
    3.1060    1.2367   13.2184 C   0  0  0  0  0  0  0  0  0  0  0  0
    4.4145    1.2803   13.6968 C   0  0  0  0  0  0  0  0  0  0  0  0
    4.7440    0.4821   14.7570 N   0  0  0  0  0  0  0  0  0  0  0  0
    5.8987    0.3805   15.4839 C   0  0  0  0  0  0  0  0  0  0  0  0
    5.5936   -0.5339   16.5243 C   0  0  0  0  0  0  0  0  0  0  0  0
    4.3807   -1.0510   16.3702 N   0  0  0  0  0  0  0  0  0  0  0  0
    3.8367   -0.4037   15.3198 C   0  0  0  0  0  0  0  0  0  0  0  0
    2.6315    2.1595   12.1222 C   0  0  0  0  0  0  0  0  0  0  0  0
    3.5425    2.6427   11.1618 C   0  0  0  0  0  0  0  0  0  0  0  0
    3.1486    3.4642   10.1071 C   0  0  0  0  0  0  0  0  0  0  0  0
    1.8051    3.8185   10.0149 C   0  0  0  0  0  0  0  0  0  0  0  0
    0.9940    4.5977    9.1169 C   0  0  0  0  0  0  0  0  0  0  0  0
   -0.2465    4.6060    9.5156 N   0  0  0  0  0  0  0  0  0  0  0  0
   -0.3325    3.8910   10.6299 N   0  0  0  0  0  0  0  0  0  0  0  0
    0.8808    3.3589   10.9978 C   0  0  0  0  0  0  0  0  0  0  0  0
    1.2718    2.5352   12.0615 C   0  0  0  0  0  0  0  0  0  0  0  0
   -0.3941   -2.6060   15.8167 C   0  0  0  0  0  0  0  0  0  0  0  0
   -1.7488   -2.8660   15.6892 C   0  0  0  0  0  0  0  0  0  0  0  0
   -3.8716   -3.4917   16.5069 H   0  0  0  0  0  0  0  0  0  0  0  0
   -5.5195   -3.0051   15.9834 H   0  0  0  0  0  0  0  0  0  0  0  0
   -4.6562   -4.3238   15.1218 H   0  0  0  0  0  0  0  0  0  0  0  0
   -5.6894   -1.7286   13.7768 H   0  0  0  0  0  0  0  0  0  0  0  0
   -4.1478   -1.2204   13.0075 H   0  0  0  0  0  0  0  0  0  0  0  0
   -3.8061   -3.5970   12.2653 H   0  0  0  0  0  0  0  0  0  0  0  0
   -5.4353   -3.9869   12.9136 H   0  0  0  0  0  0  0  0  0  0  0  0
   -5.4459   -3.5399   10.6675 H   0  0  0  0  0  0  0  0  0  0  0  0
   -2.3452   -2.8422   14.0066 H   0  0  0  0  0  0  0  0  0  0  0  0
   -2.5180   -0.5160   13.3491 H   0  0  0  0  0  0  0  0  0  0  0  0
   -0.0889   -0.0366   13.6173 H   0  0  0  0  0  0  0  0  0  0  0  0
    5.1493    1.9279   13.2417 H   0  0  0  0  0  0  0  0  0  0  0  0
    6.8364    0.8856   15.3048 H   0  0  0  0  0  0  0  0  0  0  0  0
    6.2618   -0.7780   17.3369 H   0  0  0  0  0  0  0  0  0  0  0  0
    4.3057    3.2053   11.7195 H   0  0  0  0  0  0  0  0  0  0  0  0
    4.0033    1.7554   10.7032 H   0  0  0  0  0  0  0  0  0  0  0  0
    3.8661    3.8165    9.3808 H   0  0  0  0  0  0  0  0  0  0  0  0
    1.3617    5.1041    8.2367 H   0  0  0  0  0  0  0  0  0  0  0  0
    0.5625    2.2014   12.8044 H   0  0  0  0  0  0  0  0  0  0  0  0
    0.1988   -3.2054   16.4917 H   0  0  0  0  0  0  0  0  0  0  0  0
   -2.1996   -3.6545   16.2736 H   0  0  0  0  0  0  0  0  0  0  0  0
  1  2  1  0  0  0  0
  2  3  1  0  0  0  0
  2  6  1  0  0  0  0
  3  4  1  0  0  0  0
  4  5  1  0  0  0  0
  6  7  1  0  0  0  0
  6 30  1  0  0  0  0
  7  8  2  0  0  0  0
  8  9  1  0  0  0  0
  9 10  2  0  0  0  0
  9 29  1  0  0  0  0
 10 11  1  0  0  0  0
 11 12  2  0  0  0  0
 11 19  1  0  0  0  0
 12 13  1  0  0  0  0
 13 14  2  0  0  0  0
 13 20  1  0  0  0  0
 14 15  1  0  0  0  0
 15 16  1  0  0  0  0
 15 19  1  0  0  0  0
 16 17  2  0  0  0  0
 17 18  1  0  0  0  0
 18 19  2  0  0  0  0
 20 21  1  0  0  0  0
 20 28  2  0  0  0  0
 21 22  1  0  0  0  0
 22 23  2  0  0  0  0
 23 24  1  0  0  0  0
 23 27  1  0  0  0  0
 24 25  2  0  0  0  0
 25 26  1  0  0  0  0
 26 27  2  0  0  0  0
 27 28  1  0  0  0  0
 29 30  2  0  0  0  0
  1 31  1  0  0  0  0
  1 32  1  0  0  0  0
  1 33  1  0  0  0  0
  3 34  1  0  0  0  0
  3 35  1  0  0  0  0
  4 36  1  0  0  0  0
  4 37  1  0  0  0  0
  5 38  1  0  0  0  0
  6 39  1  0  0  0  0
  7 40  1  0  0  0  0
  8 41  1  0  0  0  0
 14 42  1  0  0  0  0
 16 43  1  0  0  0  0
 17 44  1  0  0  0  0
 21 45  1  0  0  0  0
 21 46  1  0  0  0  0
 22 47  1  0  0  0  0
 24 48  1  0  0  0  0
 28 49  1  0  0  0  0
 29 50  1  0  0  0  0
 30 51  1  0  0  0  0
M  END
> <IC50[nM]>
7.6

$$$$
CHEMBL3265035
  -OEChem-05192314333D
 Structure written by MMmdl.
 51 55  0     1  0  0  0  0  0999 V2000
   -4.5368   -3.3612   15.6406 C   0  0  0  0  0  0  0  0  0  0  0  0
   -3.9561   -2.3810   14.7221 N   0  0  2  0  0  0  0  0  0  0  0  0
   -4.6759   -2.0519   13.4970 C   0  0  0  0  0  0  0  0  0  0  0  0
   -4.8094   -3.1968   12.4731 C   0  0  0  0  0  0  0  0  0  0  0  0
   -5.3909   -2.7945   11.2538 O   0  0  0  0  0  0  0  0  0  0  0  0
   -2.5380   -2.1167   14.8106 C   0  0  0  0  0  0  0  0  0  0  0  0
   -1.9279   -1.0927   14.0460 C   0  0  0  0  0  0  0  0  0  0  0  0
   -0.5515   -0.8247   14.1929 C   0  0  0  0  0  0  0  0  0  0  0  0
    0.2181   -1.5869   15.0916 C   0  0  0  0  0  0  0  0  0  0  0  0
    1.6005   -1.3598   15.3303 N   0  0  0  0  0  0  0  0  0  0  0  0
    2.5326   -0.4516   14.7667 C   0  0  0  0  0  0  0  0  0  0  0  0
    2.1715    0.3794   13.7341 N   0  0  0  0  0  0  0  0  0  0  0  0
    3.1060    1.2367   13.2184 C   0  0  0  0  0  0  0  0  0  0  0  0
    4.4145    1.2803   13.6968 C   0  0  0  0  0  0  0  0  0  0  0  0
    4.7440    0.4821   14.7570 N   0  0  0  0  0  0  0  0  0  0  0  0
    5.8987    0.3805   15.4839 C   0  0  0  0  0  0  0  0  0  0  0  0
    5.5936   -0.5339   16.5243 C   0  0  0  0  0  0  0  0  0  0  0  0
    4.3807   -1.0510   16.3702 N   0  0  0  0  0  0  0  0  0  0  0  0
    3.8367   -0.4037   15.3198 C   0  0  0  0  0  0  0  0  0  0  0  0
    2.6315    2.1595   12.1222 C   0  0  0  0  0  0  0  0  0  0  0  0
    3.5425    2.6427   11.1618 C   0  0  0  0  0  0  0  0  0  0  0  0
    3.1486    3.4642   10.1071 C   0  0  0  0  0  0  0  0  0  0  0  0
    1.8051    3.8185   10.0149 C   0  0  0  0  0  0  0  0  0  0  0  0
    0.9940    4.5977    9.1169 C   0  0  0  0  0  0  0  0  0  0  0  0
   -0.2465    4.6060    9.5156 N   0  0  0  0  0  0  0  0  0  0  0  0
   -0.3325    3.8910   10.6299 N   0  0  0  0  0  0  0  0  0  0  0  0
    0.8808    3.3589   10.9978 C   0  0  0  0  0  0  0  0  0  0  0  0
    1.2718    2.5352   12.0615 C   0  0  0  0  0  0  0  0  0  0  0  0
   -0.3941   -2.6060   15.8167 C   0  0  0  0  0  0  0  0  0  0  0  0
   -1.7488   -2.8660   15.6892 C   0  0  0  0  0  0  0  0  0  0  0  0
   -3.8716   -3.4917   16.5069 H   0  0  0  0  0  0  0  0  0  0  0  0
   -5.5195   -3.0051   15.9834 H   0  0  0  0  0  0  0  0  0  0  0  0
   -4.6562   -4.3238   15.1218 H   0  0  0  0  0  0  0  0  0  0  0  0
   -5.6894   -1.7286   13.7768 H   0  0  0  0  0  0  0  0  0  0  0  0
   -4.1478   -1.2204   13.0075 H   0  0  0  0  0  0  0  0  0  0  0  0
   -3.8061   -3.5970   12.2653 H   0  0  0  0  0  0  0  0  0  0  0  0
   -5.4353   -3.9869   12.9136 H   0  0  0  0  0  0  0  0  0  0  0  0
   -5.4459   -3.5399   10.6675 H   0  0  0  0  0  0  0  0  0  0  0  0
   -2.5180   -0.5160   13.3491 H   0  0  0  0  0  0  0  0  0  0  0  0
   -0.0889   -0.0366   13.6173 H   0  0  0  0  0  0  0  0  0  0  0  0
    5.1493    1.9279   13.2417 H   0  0  0  0  0  0  0  0  0  0  0  0
    6.8364    0.8856   15.3048 H   0  0  0  0  0  0  0  0  0  0  0  0
    6.2618   -0.7780   17.3369 H   0  0  0  0  0  0  0  0  0  0  0  0
    4.3057    3.2053   11.7195 H   0  0  0  0  0  0  0  0  0  0  0  0
    4.0033    1.7554   10.7032 H   0  0  0  0  0  0  0  0  0  0  0  0
    3.8661    3.8165    9.3808 H   0  0  0  0  0  0  0  0  0  0  0  0
    1.3617    5.1041    8.2367 H   0  0  0  0  0  0  0  0  0  0  0  0
    0.5625    2.2014   12.8044 H   0  0  0  0  0  0  0  0  0  0  0  0
    0.1281   -3.5362   15.5482 H   0  0  0  0  0  0  0  0  0  0  0  0
   -0.2189   -2.3808   16.8791 H   0  0  0  0  0  0  0  0  0  0  0  0
   -2.1996   -3.6545   16.2736 H   0  0  0  0  0  0  0  0  0  0  0  0
  1  2  1  0  0  0  0
  2  3  1  0  0  0  0
  2  6  1  0  0  0  0
  3  4  1  0  0  0  0
  4  5  1  0  0  0  0
  6  7  1  0  0  0  0
  6 30  2  0  0  0  0
  7  8  2  0  0  0  0
  8  9  1  0  0  0  0
  9 10  2  0  0  0  0
  9 29  1  0  0  0  0
 10 11  1  0  0  0  0
 11 12  2  0  0  0  0
 11 19  1  0  0  0  0
 12 13  1  0  0  0  0
 13 14  2  0  0  0  0
 13 20  1  0  0  0  0
 14 15  1  0  0  0  0
 15 16  1  0  0  0  0
 15 19  1  0  0  0  0
 16 17  2  0  0  0  0
 17 18  1  0  0  0  0
 18 19  2  0  0  0  0
 20 21  1  0  0  0  0
 20 28  2  0  0  0  0
 21 22  1  0  0  0  0
 22 23  2  0  0  0  0
 23 24  1  0  0  0  0
 23 27  1  0  0  0  0
 24 25  2  0  0  0  0
 25 26  1  0  0  0  0
 26 27  2  0  0  0  0
 27 28  1  0  0  0  0
 29 30  1  0  0  0  0
  1 31  1  0  0  0  0
  1 32  1  0  0  0  0
  1 33  1  0  0  0  0
  3 34  1  0  0  0  0
  3 35  1  0  0  0  0
  4 36  1  0  0  0  0
  4 37  1  0  0  0  0
  5 38  1  0  0  0  0
  7 39  1  0  0  0  0
  8 40  1  0  0  0  0
 14 41  1  0  0  0  0
 16 42  1  0  0  0  0
 17 43  1  0  0  0  0
 21 44  1  0  0  0  0
 21 45  1  0  0  0  0
 22 46  1  0  0  0  0
 24 47  1  0  0  0  0
 28 48  1  0  0  0  0
 29 49  1  0  0  0  0
 29 50  1  0  0  0  0
 30 51  1  0  0  0  0
M  END
> <IC50[nM]>
7.6

$$$$
CHEMBL3265035
  -OEChem-05192314333D
 Structure written by MMmdl.
 51 55  0     1  0  0  0  0  0999 V2000
   -4.5368   -3.3612   15.6406 C   0  0  0  0  0  0  0  0  0  0  0  0
   -3.9561   -2.3810   14.7221 N   0  0  2  0  0  0  0  0  0  0  0  0
   -4.6759   -2.0519   13.4970 C   0  0  0  0  0  0  0  0  0  0  0  0
   -4.8094   -3.1968   12.4731 C   0  0  0  0  0  0  0  0  0  0  0  0
   -5.3909   -2.7945   11.2538 O   0  0  0  0  0  0  0  0  0  0  0  0
   -2.5380   -2.1167   14.8106 C   0  0  0  0  0  0  0  0  0  0  0  0
   -1.9279   -1.0927   14.0460 C   0  0  0  0  0  0  0  0  0  0  0  0
   -0.5515   -0.8247   14.1929 C   0  0  0  0  0  0  0  0  0  0  0  0
    0.2181   -1.5869   15.0916 C   0  0  0  0  0  0  0  0  0  0  0  0
    1.6005   -1.3598   15.3303 N   0  0  0  0  0  0  0  0  0  0  0  0
    2.5326   -0.4516   14.7667 C   0  0  0  0  0  0  0  0  0  0  0  0
    2.1715    0.3794   13.7341 N   0  0  0  0  0  0  0  0  0  0  0  0
    3.1060    1.2367   13.2184 C   0  0  0  0  0  0  0  0  0  0  0  0
    4.4145    1.2803   13.6968 C   0  0  0  0  0  0  0  0  0  0  0  0
    4.7440    0.4821   14.7570 N   0  0  0  0  0  0  0  0  0  0  0  0
    5.8987    0.3805   15.4839 C   0  0  0  0  0  0  0  0  0  0  0  0
    5.5936   -0.5339   16.5243 C   0  0  0  0  0  0  0  0  0  0  0  0
    4.3807   -1.0510   16.3702 N   0  0  0  0  0  0  0  0  0  0  0  0
    3.8367   -0.4037   15.3198 C   0  0  0  0  0  0  0  0  0  0  0  0
    2.6315    2.1595   12.1222 C   0  0  0  0  0  0  0  0  0  0  0  0
    3.5425    2.6427   11.1618 C   0  0  0  0  0  0  0  0  0  0  0  0
    3.1486    3.4642   10.1071 C   0  0  0  0  0  0  0  0  0  0  0  0
    1.8051    3.8185   10.0149 C   0  0  0  0  0  0  0  0  0  0  0  0
    0.9940    4.5977    9.1169 C   0  0  0  0  0  0  0  0  0  0  0  0
   -0.2465    4.6060    9.5156 N   0  0  0  0  0  0  0  0  0  0  0  0
   -0.3325    3.8910   10.6299 N   0  0  0  0  0  0  0  0  0  0  0  0
    0.8808    3.3589   10.9978 C   0  0  0  0  0  0  0  0  0  0  0  0
    1.2718    2.5352   12.0615 C   0  0  0  0  0  0  0  0  0  0  0  0
   -0.3941   -2.6060   15.8167 C   0  0  0  0  0  0  0  0  0  0  0  0
   -1.7488   -2.8660   15.6892 C   0  0  0  0  0  0  0  0  0  0  0  0
   -3.8716   -3.4917   16.5069 H   0  0  0  0  0  0  0  0  0  0  0  0
   -5.5195   -3.0051   15.9834 H   0  0  0  0  0  0  0  0  0  0  0  0
   -4.6562   -4.3238   15.1218 H   0  0  0  0  0  0  0  0  0  0  0  0
   -5.6894   -1.7286   13.7768 H   0  0  0  0  0  0  0  0  0  0  0  0
   -4.1478   -1.2204   13.0075 H   0  0  0  0  0  0  0  0  0  0  0  0
   -3.8061   -3.5970   12.2653 H   0  0  0  0  0  0  0  0  0  0  0  0
   -5.4353   -3.9869   12.9136 H   0  0  0  0  0  0  0  0  0  0  0  0
   -5.4459   -3.5399   10.6675 H   0  0  0  0  0  0  0  0  0  0  0  0
   -2.3452   -2.8422   14.0066 H   0  0  0  0  0  0  0  0  0  0  0  0
   -2.5180   -0.5160   13.3491 H   0  0  0  0  0  0  0  0  0  0  0  0
   -0.0889   -0.0366   13.6173 H   0  0  0  0  0  0  0  0  0  0  0  0
    5.1493    1.9279   13.2417 H   0  0  0  0  0  0  0  0  0  0  0  0
    6.8364    0.8856   15.3048 H   0  0  0  0  0  0  0  0  0  0  0  0
    6.2618   -0.7780   17.3369 H   0  0  0  0  0  0  0  0  0  0  0  0
    4.5832    2.3665   11.2461 H   0  0  0  0  0  0  0  0  0  0  0  0
    3.8661    3.8165    9.3808 H   0  0  0  0  0  0  0  0  0  0  0  0
    1.3617    5.1041    8.2367 H   0  0  0  0  0  0  0  0  0  0  0  0
    0.6761    1.6124   12.0014 H   0  0  0  0  0  0  0  0  0  0  0  0
    1.0333    3.0654   12.9953 H   0  0  0  0  0  0  0  0  0  0  0  0
    0.1988   -3.2054   16.4917 H   0  0  0  0  0  0  0  0  0  0  0  0
   -2.1996   -3.6545   16.2736 H   0  0  0  0  0  0  0  0  0  0  0  0
  1  2  1  0  0  0  0
  2  3  1  0  0  0  0
  2  6  1  0  0  0  0
  3  4  1  0  0  0  0
  4  5  1  0  0  0  0
  6  7  1  0  0  0  0
  6 30  1  0  0  0  0
  7  8  2  0  0  0  0
  8  9  1  0  0  0  0
  9 10  2  0  0  0  0
  9 29  1  0  0  0  0
 10 11  1  0  0  0  0
 11 12  2  0  0  0  0
 11 19  1  0  0  0  0
 12 13  1  0  0  0  0
 13 14  2  0  0  0  0
 13 20  1  0  0  0  0
 14 15  1  0  0  0  0
 15 16  1  0  0  0  0
 15 19  1  0  0  0  0
 16 17  2  0  0  0  0
 17 18  1  0  0  0  0
 18 19  2  0  0  0  0
 20 21  2  0  0  0  0
 20 28  1  0  0  0  0
 21 22  1  0  0  0  0
 22 23  2  0  0  0  0
 23 24  1  0  0  0  0
 23 27  1  0  0  0  0
 24 25  2  0  0  0  0
 25 26  1  0  0  0  0
 26 27  2  0  0  0  0
 27 28  1  0  0  0  0
 29 30  2  0  0  0  0
  1 31  1  0  0  0  0
  1 32  1  0  0  0  0
  1 33  1  0  0  0  0
  3 34  1  0  0  0  0
  3 35  1  0  0  0  0
  4 36  1  0  0  0  0
  4 37  1  0  0  0  0
  5 38  1  0  0  0  0
  6 39  1  0  0  0  0
  7 40  1  0  0  0  0
  8 41  1  0  0  0  0
 14 42  1  0  0  0  0
 16 43  1  0  0  0  0
 17 44  1  0  0  0  0
 21 45  1  0  0  0  0
 22 46  1  0  0  0  0
 24 47  1  0  0  0  0
 28 48  1  0  0  0  0
 28 49  1  0  0  0  0
 29 50  1  0  0  0  0
 30 51  1  0  0  0  0
M  END
> <IC50[nM]>
7.6

$$$$
CHEMBL3265035
  -OEChem-05192314333D
 Structure written by MMmdl.
 51 55  0     1  0  0  0  0  0999 V2000
   -4.5368   -3.3612   15.6406 C   0  0  0  0  0  0  0  0  0  0  0  0
   -3.9561   -2.3810   14.7221 N   0  0  2  0  0  0  0  0  0  0  0  0
   -4.6759   -2.0519   13.4970 C   0  0  0  0  0  0  0  0  0  0  0  0
   -4.8094   -3.1968   12.4731 C   0  0  0  0  0  0  0  0  0  0  0  0
   -5.3909   -2.7945   11.2538 O   0  0  0  0  0  0  0  0  0  0  0  0
   -2.5380   -2.1167   14.8106 C   0  0  0  0  0  0  0  0  0  0  0  0
   -1.9279   -1.0927   14.0460 C   0  0  0  0  0  0  0  0  0  0  0  0
   -0.5515   -0.8247   14.1929 C   0  0  0  0  0  0  0  0  0  0  0  0
    0.2181   -1.5869   15.0916 C   0  0  0  0  0  0  0  0  0  0  0  0
    1.6005   -1.3598   15.3303 N   0  0  0  0  0  0  0  0  0  0  0  0
    2.5326   -0.4516   14.7667 C   0  0  0  0  0  0  0  0  0  0  0  0
    2.1715    0.3794   13.7341 N   0  0  0  0  0  0  0  0  0  0  0  0
    3.1060    1.2367   13.2184 C   0  0  0  0  0  0  0  0  0  0  0  0
    4.4145    1.2803   13.6968 C   0  0  0  0  0  0  0  0  0  0  0  0
    4.7440    0.4821   14.7570 N   0  0  0  0  0  0  0  0  0  0  0  0
    5.8987    0.3805   15.4839 C   0  0  0  0  0  0  0  0  0  0  0  0
    5.5936   -0.5339   16.5243 C   0  0  0  0  0  0  0  0  0  0  0  0
    4.3807   -1.0510   16.3702 N   0  0  0  0  0  0  0  0  0  0  0  0
    3.8367   -0.4037   15.3198 C   0  0  0  0  0  0  0  0  0  0  0  0
    2.6315    2.1595   12.1222 C   0  0  0  0  0  0  0  0  0  0  0  0
    3.5425    2.6427   11.1618 C   0  0  0  0  0  0  0  0  0  0  0  0
    3.1486    3.4642   10.1071 C   0  0  0  0  0  0  0  0  0  0  0  0
    1.8051    3.8185   10.0149 C   0  0  0  0  0  0  0  0  0  0  0  0
    0.9940    4.5977    9.1169 C   0  0  0  0  0  0  0  0  0  0  0  0
   -0.2465    4.6060    9.5156 N   0  0  0  0  0  0  0  0  0  0  0  0
   -0.3325    3.8910   10.6299 N   0  0  0  0  0  0  0  0  0  0  0  0
    0.8808    3.3589   10.9978 C   0  0  0  0  0  0  0  0  0  0  0  0
    1.2718    2.5352   12.0615 C   0  0  0  0  0  0  0  0  0  0  0  0
   -0.3941   -2.6060   15.8167 C   0  0  0  0  0  0  0  0  0  0  0  0
   -1.7488   -2.8660   15.6892 C   0  0  0  0  0  0  0  0  0  0  0  0
   -3.8716   -3.4917   16.5069 H   0  0  0  0  0  0  0  0  0  0  0  0
   -5.5195   -3.0051   15.9834 H   0  0  0  0  0  0  0  0  0  0  0  0
   -4.6562   -4.3238   15.1218 H   0  0  0  0  0  0  0  0  0  0  0  0
   -5.6894   -1.7286   13.7768 H   0  0  0  0  0  0  0  0  0  0  0  0
   -4.1478   -1.2204   13.0075 H   0  0  0  0  0  0  0  0  0  0  0  0
   -3.8061   -3.5970   12.2653 H   0  0  0  0  0  0  0  0  0  0  0  0
   -5.4353   -3.9869   12.9136 H   0  0  0  0  0  0  0  0  0  0  0  0
   -5.4459   -3.5399   10.6675 H   0  0  0  0  0  0  0  0  0  0  0  0
   -2.5180   -0.5160   13.3491 H   0  0  0  0  0  0  0  0  0  0  0  0
   -0.0889   -0.0366   13.6173 H   0  0  0  0  0  0  0  0  0  0  0  0
    5.1493    1.9279   13.2417 H   0  0  0  0  0  0  0  0  0  0  0  0
    6.8364    0.8856   15.3048 H   0  0  0  0  0  0  0  0  0  0  0  0
    6.2618   -0.7780   17.3369 H   0  0  0  0  0  0  0  0  0  0  0  0
    4.5832    2.3665   11.2461 H   0  0  0  0  0  0  0  0  0  0  0  0
    3.8661    3.8165    9.3808 H   0  0  0  0  0  0  0  0  0  0  0  0
    1.3617    5.1041    8.2367 H   0  0  0  0  0  0  0  0  0  0  0  0
    0.6761    1.6124   12.0014 H   0  0  0  0  0  0  0  0  0  0  0  0
    1.0333    3.0654   12.9953 H   0  0  0  0  0  0  0  0  0  0  0  0
    0.1281   -3.5362   15.5482 H   0  0  0  0  0  0  0  0  0  0  0  0
   -0.2189   -2.3808   16.8791 H   0  0  0  0  0  0  0  0  0  0  0  0
   -2.1996   -3.6545   16.2736 H   0  0  0  0  0  0  0  0  0  0  0  0
  1  2  1  0  0  0  0
  2  3  1  0  0  0  0
  2  6  1  0  0  0  0
  3  4  1  0  0  0  0
  4  5  1  0  0  0  0
  6  7  1  0  0  0  0
  6 30  2  0  0  0  0
  7  8  2  0  0  0  0
  8  9  1  0  0  0  0
  9 10  2  0  0  0  0
  9 29  1  0  0  0  0
 10 11  1  0  0  0  0
 11 12  2  0  0  0  0
 11 19  1  0  0  0  0
 12 13  1  0  0  0  0
 13 14  2  0  0  0  0
 13 20  1  0  0  0  0
 14 15  1  0  0  0  0
 15 16  1  0  0  0  0
 15 19  1  0  0  0  0
 16 17  2  0  0  0  0
 17 18  1  0  0  0  0
 18 19  2  0  0  0  0
 20 21  2  0  0  0  0
 20 28  1  0  0  0  0
 21 22  1  0  0  0  0
 22 23  2  0  0  0  0
 23 24  1  0  0  0  0
 23 27  1  0  0  0  0
 24 25  2  0  0  0  0
 25 26  1  0  0  0  0
 26 27  2  0  0  0  0
 27 28  1  0  0  0  0
 29 30  1  0  0  0  0
  1 31  1  0  0  0  0
  1 32  1  0  0  0  0
  1 33  1  0  0  0  0
  3 34  1  0  0  0  0
  3 35  1  0  0  0  0
  4 36  1  0  0  0  0
  4 37  1  0  0  0  0
  5 38  1  0  0  0  0
  7 39  1  0  0  0  0
  8 40  1  0  0  0  0
 14 41  1  0  0  0  0
 16 42  1  0  0  0  0
 17 43  1  0  0  0  0
 21 44  1  0  0  0  0
 22 45  1  0  0  0  0
 24 46  1  0  0  0  0
 28 47  1  0  0  0  0
 28 48  1  0  0  0  0
 29 49  1  0  0  0  0
 29 50  1  0  0  0  0
 30 51  1  0  0  0  0
M  END
> <IC50[nM]>
7.6

$$$$
CHEMBL3265035
  -OEChem-05192314333D
 Structure written by MMmdl.
 51 55  0     1  0  0  0  0  0999 V2000
   -4.5368   -3.3612   15.6406 C   0  0  0  0  0  0  0  0  0  0  0  0
   -3.9561   -2.3810   14.7221 N   0  0  2  0  0  0  0  0  0  0  0  0
   -4.6759   -2.0519   13.4970 C   0  0  0  0  0  0  0  0  0  0  0  0
   -4.8094   -3.1968   12.4731 C   0  0  0  0  0  0  0  0  0  0  0  0
   -5.3909   -2.7945   11.2538 O   0  0  0  0  0  0  0  0  0  0  0  0
   -2.5380   -2.1167   14.8106 C   0  0  0  0  0  0  0  0  0  0  0  0
   -1.9279   -1.0927   14.0460 C   0  0  0  0  0  0  0  0  0  0  0  0
   -0.5515   -0.8247   14.1929 C   0  0  0  0  0  0  0  0  0  0  0  0
    0.2181   -1.5869   15.0916 C   0  0  0  0  0  0  0  0  0  0  0  0
    1.6005   -1.3598   15.3303 N   0  0  0  0  0  0  0  0  0  0  0  0
    2.5326   -0.4516   14.7667 C   0  0  0  0  0  0  0  0  0  0  0  0
    2.1715    0.3794   13.7341 N   0  0  0  0  0  0  0  0  0  0  0  0
    3.1060    1.2367   13.2184 C   0  0  0  0  0  0  0  0  0  0  0  0
    4.4145    1.2803   13.6968 C   0  0  0  0  0  0  0  0  0  0  0  0
    4.7440    0.4821   14.7570 N   0  0  0  0  0  0  0  0  0  0  0  0
    5.8987    0.3805   15.4839 C   0  0  0  0  0  0  0  0  0  0  0  0
    5.5936   -0.5339   16.5243 C   0  0  0  0  0  0  0  0  0  0  0  0
    4.3807   -1.0510   16.3702 N   0  0  0  0  0  0  0  0  0  0  0  0
    3.8367   -0.4037   15.3198 C   0  0  0  0  0  0  0  0  0  0  0  0
    2.6315    2.1595   12.1222 C   0  0  3  0  0  0  0  0  0  0  0  0
    3.5425    2.6427   11.1618 C   0  0  0  0  0  0  0  0  0  0  0  0
    3.1486    3.4642   10.1071 C   0  0  0  0  0  0  0  0  0  0  0  0
    1.8051    3.8185   10.0149 C   0  0  0  0  0  0  0  0  0  0  0  0
    0.9940    4.5977    9.1169 C   0  0  0  0  0  0  0  0  0  0  0  0
   -0.2465    4.6060    9.5156 N   0  0  0  0  0  0  0  0  0  0  0  0
   -0.3325    3.8910   10.6299 N   0  0  0  0  0  0  0  0  0  0  0  0
    0.8808    3.3589   10.9978 C   0  0  0  0  0  0  0  0  0  0  0  0
    1.2718    2.5352   12.0615 C   0  0  0  0  0  0  0  0  0  0  0  0
   -0.3941   -2.6060   15.8167 C   0  0  0  0  0  0  0  0  0  0  0  0
   -1.7488   -2.8660   15.6892 C   0  0  0  0  0  0  0  0  0  0  0  0
   -3.8716   -3.4917   16.5069 H   0  0  0  0  0  0  0  0  0  0  0  0
   -5.5195   -3.0051   15.9834 H   0  0  0  0  0  0  0  0  0  0  0  0
   -4.6562   -4.3238   15.1218 H   0  0  0  0  0  0  0  0  0  0  0  0
   -5.6894   -1.7286   13.7768 H   0  0  0  0  0  0  0  0  0  0  0  0
   -4.1478   -1.2204   13.0075 H   0  0  0  0  0  0  0  0  0  0  0  0
   -3.8061   -3.5970   12.2653 H   0  0  0  0  0  0  0  0  0  0  0  0
   -5.4353   -3.9869   12.9136 H   0  0  0  0  0  0  0  0  0  0  0  0
   -5.4459   -3.5399   10.6675 H   0  0  0  0  0  0  0  0  0  0  0  0
   -2.3452   -2.8422   14.0066 H   0  0  0  0  0  0  0  0  0  0  0  0
   -2.5180   -0.5160   13.3491 H   0  0  0  0  0  0  0  0  0  0  0  0
   -0.0889   -0.0366   13.6173 H   0  0  0  0  0  0  0  0  0  0  0  0
    5.1493    1.9279   13.2417 H   0  0  0  0  0  0  0  0  0  0  0  0
    6.8364    0.8856   15.3048 H   0  0  0  0  0  0  0  0  0  0  0  0
    6.2618   -0.7780   17.3369 H   0  0  0  0  0  0  0  0  0  0  0  0
    2.8437    3.0290   12.7617 H   0  0  0  0  0  0  0  0  0  0  0  0
    4.5832    2.3665   11.2461 H   0  0  0  0  0  0  0  0  0  0  0  0
    3.8661    3.8165    9.3808 H   0  0  0  0  0  0  0  0  0  0  0  0
    1.3617    5.1041    8.2367 H   0  0  0  0  0  0  0  0  0  0  0  0
    0.5625    2.2014   12.8044 H   0  0  0  0  0  0  0  0  0  0  0  0
    0.1988   -3.2054   16.4917 H   0  0  0  0  0  0  0  0  0  0  0  0
   -2.1996   -3.6545   16.2736 H   0  0  0  0  0  0  0  0  0  0  0  0
  1  2  1  0  0  0  0
  2  3  1  0  0  0  0
  2  6  1  0  0  0  0
  3  4  1  0  0  0  0
  4  5  1  0  0  0  0
  6  7  1  0  0  0  0
  6 30  1  0  0  0  0
  7  8  2  0  0  0  0
  8  9  1  0  0  0  0
  9 10  2  0  0  0  0
  9 29  1  0  0  0  0
 10 11  1  0  0  0  0
 11 12  2  0  0  0  0
 11 19  1  0  0  0  0
 12 13  1  0  0  0  0
 13 14  2  0  0  0  0
 13 20  1  0  0  0  0
 14 15  1  0  0  0  0
 15 16  1  0  0  0  0
 15 19  1  0  0  0  0
 16 17  2  0  0  0  0
 17 18  1  0  0  0  0
 18 19  2  0  0  0  0
 20 21  1  0  0  0  0
 20 28  1  0  0  0  0
 21 22  2  0  0  0  0
 22 23  1  0  0  0  0
 23 24  2  0  0  0  0
 23 27  1  0  0  0  0
 24 25  1  0  0  0  0
 25 26  2  0  0  0  0
 26 27  1  0  0  0  0
 27 28  2  0  0  0  0
 29 30  2  0  0  0  0
  1 31  1  0  0  0  0
  1 32  1  0  0  0  0
  1 33  1  0  0  0  0
  3 34  1  0  0  0  0
  3 35  1  0  0  0  0
  4 36  1  0  0  0  0
  4 37  1  0  0  0  0
  5 38  1  0  0  0  0
  6 39  1  0  0  0  0
  7 40  1  0  0  0  0
  8 41  1  0  0  0  0
 14 42  1  0  0  0  0
 16 43  1  0  0  0  0
 17 44  1  0  0  0  0
 20 45  1  0  0  0  0
 21 46  1  0  0  0  0
 22 47  1  0  0  0  0
 24 48  1  0  0  0  0
 28 49  1  0  0  0  0
 29 50  1  0  0  0  0
 30 51  1  0  0  0  0
M  END
> <IC50[nM]>
7.6

$$$$
CHEMBL3265035
  -OEChem-05192314333D
 Structure written by MMmdl.
 51 55  0     1  0  0  0  0  0999 V2000
   -4.5368   -3.3612   15.6406 C   0  0  0  0  0  0  0  0  0  0  0  0
   -3.9561   -2.3810   14.7221 N   0  0  2  0  0  0  0  0  0  0  0  0
   -4.6759   -2.0519   13.4970 C   0  0  0  0  0  0  0  0  0  0  0  0
   -4.8094   -3.1968   12.4731 C   0  0  0  0  0  0  0  0  0  0  0  0
   -5.3909   -2.7945   11.2538 O   0  0  0  0  0  0  0  0  0  0  0  0
   -2.5380   -2.1167   14.8106 C   0  0  0  0  0  0  0  0  0  0  0  0
   -1.9279   -1.0927   14.0460 C   0  0  0  0  0  0  0  0  0  0  0  0
   -0.5515   -0.8247   14.1929 C   0  0  0  0  0  0  0  0  0  0  0  0
    0.2181   -1.5869   15.0916 C   0  0  0  0  0  0  0  0  0  0  0  0
    1.6005   -1.3598   15.3303 N   0  0  0  0  0  0  0  0  0  0  0  0
    2.5326   -0.4516   14.7667 C   0  0  0  0  0  0  0  0  0  0  0  0
    2.1715    0.3794   13.7341 N   0  0  0  0  0  0  0  0  0  0  0  0
    3.1060    1.2367   13.2184 C   0  0  0  0  0  0  0  0  0  0  0  0
    4.4145    1.2803   13.6968 C   0  0  0  0  0  0  0  0  0  0  0  0
    4.7440    0.4821   14.7570 N   0  0  0  0  0  0  0  0  0  0  0  0
    5.8987    0.3805   15.4839 C   0  0  0  0  0  0  0  0  0  0  0  0
    5.5936   -0.5339   16.5243 C   0  0  0  0  0  0  0  0  0  0  0  0
    4.3807   -1.0510   16.3702 N   0  0  0  0  0  0  0  0  0  0  0  0
    3.8367   -0.4037   15.3198 C   0  0  0  0  0  0  0  0  0  0  0  0
    2.6315    2.1595   12.1222 C   0  0  0  0  0  0  0  0  0  0  0  0
    3.5425    2.6427   11.1618 C   0  0  0  0  0  0  0  0  0  0  0  0
    3.1486    3.4642   10.1071 C   0  0  0  0  0  0  0  0  0  0  0  0
    1.8051    3.8185   10.0149 C   0  0  0  0  0  0  0  0  0  0  0  0
    0.9940    4.5977    9.1169 C   0  0  0  0  0  0  0  0  0  0  0  0
   -0.2465    4.6060    9.5156 N   0  0  0  0  0  0  0  0  0  0  0  0
   -0.3325    3.8910   10.6299 N   0  0  0  0  0  0  0  0  0  0  0  0
    0.8808    3.3589   10.9978 C   0  0  3  0  0  0  0  0  0  0  0  0
    1.2718    2.5352   12.0615 C   0  0  0  0  0  0  0  0  0  0  0  0
   -0.3941   -2.6060   15.8167 C   0  0  0  0  0  0  0  0  0  0  0  0
   -1.7488   -2.8660   15.6892 C   0  0  0  0  0  0  0  0  0  0  0  0
   -3.8716   -3.4917   16.5069 H   0  0  0  0  0  0  0  0  0  0  0  0
   -5.5195   -3.0051   15.9834 H   0  0  0  0  0  0  0  0  0  0  0  0
   -4.6562   -4.3238   15.1218 H   0  0  0  0  0  0  0  0  0  0  0  0
   -5.6894   -1.7286   13.7768 H   0  0  0  0  0  0  0  0  0  0  0  0
   -4.1478   -1.2204   13.0075 H   0  0  0  0  0  0  0  0  0  0  0  0
   -3.8061   -3.5970   12.2653 H   0  0  0  0  0  0  0  0  0  0  0  0
   -5.4353   -3.9869   12.9136 H   0  0  0  0  0  0  0  0  0  0  0  0
   -5.4459   -3.5399   10.6675 H   0  0  0  0  0  0  0  0  0  0  0  0
   -2.3452   -2.8422   14.0066 H   0  0  0  0  0  0  0  0  0  0  0  0
   -2.5180   -0.5160   13.3491 H   0  0  0  0  0  0  0  0  0  0  0  0
   -0.0889   -0.0366   13.6173 H   0  0  0  0  0  0  0  0  0  0  0  0
    5.1493    1.9279   13.2417 H   0  0  0  0  0  0  0  0  0  0  0  0
    6.8364    0.8856   15.3048 H   0  0  0  0  0  0  0  0  0  0  0  0
    6.2618   -0.7780   17.3369 H   0  0  0  0  0  0  0  0  0  0  0  0
    4.5832    2.3665   11.2461 H   0  0  0  0  0  0  0  0  0  0  0  0
    3.8661    3.8165    9.3808 H   0  0  0  0  0  0  0  0  0  0  0  0
    1.3617    5.1041    8.2367 H   0  0  0  0  0  0  0  0  0  0  0  0
    1.0871    4.2493   11.6099 H   0  0  0  0  0  0  0  0  0  0  0  0
    0.5625    2.2014   12.8044 H   0  0  0  0  0  0  0  0  0  0  0  0
    0.1988   -3.2054   16.4917 H   0  0  0  0  0  0  0  0  0  0  0  0
   -2.1996   -3.6545   16.2736 H   0  0  0  0  0  0  0  0  0  0  0  0
  1  2  1  0  0  0  0
  2  3  1  0  0  0  0
  2  6  1  0  0  0  0
  3  4  1  0  0  0  0
  4  5  1  0  0  0  0
  6  7  1  0  0  0  0
  6 30  1  0  0  0  0
  7  8  2  0  0  0  0
  8  9  1  0  0  0  0
  9 10  2  0  0  0  0
  9 29  1  0  0  0  0
 10 11  1  0  0  0  0
 11 12  2  0  0  0  0
 11 19  1  0  0  0  0
 12 13  1  0  0  0  0
 13 14  2  0  0  0  0
 13 20  1  0  0  0  0
 14 15  1  0  0  0  0
 15 16  1  0  0  0  0
 15 19  1  0  0  0  0
 16 17  2  0  0  0  0
 17 18  1  0  0  0  0
 18 19  2  0  0  0  0
 20 21  1  0  0  0  0
 20 28  2  0  0  0  0
 21 22  2  0  0  0  0
 22 23  1  0  0  0  0
 23 24  2  0  0  0  0
 23 27  1  0  0  0  0
 24 25  1  0  0  0  0
 25 26  2  0  0  0  0
 26 27  1  0  0  0  0
 27 28  1  0  0  0  0
 29 30  2  0  0  0  0
  1 31  1  0  0  0  0
  1 32  1  0  0  0  0
  1 33  1  0  0  0  0
  3 34  1  0  0  0  0
  3 35  1  0  0  0  0
  4 36  1  0  0  0  0
  4 37  1  0  0  0  0
  5 38  1  0  0  0  0
  6 39  1  0  0  0  0
  7 40  1  0  0  0  0
  8 41  1  0  0  0  0
 14 42  1  0  0  0  0
 16 43  1  0  0  0  0
 17 44  1  0  0  0  0
 21 45  1  0  0  0  0
 22 46  1  0  0  0  0
 24 47  1  0  0  0  0
 27 48  1  0  0  0  0
 28 49  1  0  0  0  0
 29 50  1  0  0  0  0
 30 51  1  0  0  0  0
M  END
> <IC50[nM]>
7.6

$$$$
CHEMBL3265035
  -OEChem-05192314333D
 Structure written by MMmdl.
 51 55  0     1  0  0  0  0  0999 V2000
   -4.5368   -3.3612   15.6406 C   0  0  0  0  0  0  0  0  0  0  0  0
   -3.9561   -2.3810   14.7221 N   0  0  2  0  0  0  0  0  0  0  0  0
   -4.6759   -2.0519   13.4970 C   0  0  0  0  0  0  0  0  0  0  0  0
   -4.8094   -3.1968   12.4731 C   0  0  0  0  0  0  0  0  0  0  0  0
   -5.3909   -2.7945   11.2538 O   0  0  0  0  0  0  0  0  0  0  0  0
   -2.5380   -2.1167   14.8106 C   0  0  0  0  0  0  0  0  0  0  0  0
   -1.9279   -1.0927   14.0460 C   0  0  0  0  0  0  0  0  0  0  0  0
   -0.5515   -0.8247   14.1929 C   0  0  0  0  0  0  0  0  0  0  0  0
    0.2181   -1.5869   15.0916 C   0  0  0  0  0  0  0  0  0  0  0  0
    1.6005   -1.3598   15.3303 N   0  0  0  0  0  0  0  0  0  0  0  0
    2.5326   -0.4516   14.7667 C   0  0  0  0  0  0  0  0  0  0  0  0
    2.1715    0.3794   13.7341 N   0  0  0  0  0  0  0  0  0  0  0  0
    3.1060    1.2367   13.2184 C   0  0  0  0  0  0  0  0  0  0  0  0
    4.4145    1.2803   13.6968 C   0  0  0  0  0  0  0  0  0  0  0  0
    4.7440    0.4821   14.7570 N   0  0  0  0  0  0  0  0  0  0  0  0
    5.8987    0.3805   15.4839 C   0  0  0  0  0  0  0  0  0  0  0  0
    5.5936   -0.5339   16.5243 C   0  0  0  0  0  0  0  0  0  0  0  0
    4.3807   -1.0510   16.3702 N   0  0  0  0  0  0  0  0  0  0  0  0
    3.8367   -0.4037   15.3198 C   0  0  0  0  0  0  0  0  0  0  0  0
    2.6315    2.1595   12.1222 C   0  0  3  0  0  0  0  0  0  0  0  0
    3.5425    2.6427   11.1618 C   0  0  0  0  0  0  0  0  0  0  0  0
    3.1486    3.4642   10.1071 C   0  0  0  0  0  0  0  0  0  0  0  0
    1.8051    3.8185   10.0149 C   0  0  0  0  0  0  0  0  0  0  0  0
    0.9940    4.5977    9.1169 C   0  0  0  0  0  0  0  0  0  0  0  0
   -0.2465    4.6060    9.5156 N   0  0  0  0  0  0  0  0  0  0  0  0
   -0.3325    3.8910   10.6299 N   0  0  0  0  0  0  0  0  0  0  0  0
    0.8808    3.3589   10.9978 C   0  0  0  0  0  0  0  0  0  0  0  0
    1.2718    2.5352   12.0615 C   0  0  0  0  0  0  0  0  0  0  0  0
   -0.3941   -2.6060   15.8167 C   0  0  0  0  0  0  0  0  0  0  0  0
   -1.7488   -2.8660   15.6892 C   0  0  0  0  0  0  0  0  0  0  0  0
   -3.8716   -3.4917   16.5069 H   0  0  0  0  0  0  0  0  0  0  0  0
   -5.5195   -3.0051   15.9834 H   0  0  0  0  0  0  0  0  0  0  0  0
   -4.6562   -4.3238   15.1218 H   0  0  0  0  0  0  0  0  0  0  0  0
   -5.6894   -1.7286   13.7768 H   0  0  0  0  0  0  0  0  0  0  0  0
   -4.1478   -1.2204   13.0075 H   0  0  0  0  0  0  0  0  0  0  0  0
   -3.8061   -3.5970   12.2653 H   0  0  0  0  0  0  0  0  0  0  0  0
   -5.4353   -3.9869   12.9136 H   0  0  0  0  0  0  0  0  0  0  0  0
   -5.4459   -3.5399   10.6675 H   0  0  0  0  0  0  0  0  0  0  0  0
   -2.5180   -0.5160   13.3491 H   0  0  0  0  0  0  0  0  0  0  0  0
   -0.0889   -0.0366   13.6173 H   0  0  0  0  0  0  0  0  0  0  0  0
    5.1493    1.9279   13.2417 H   0  0  0  0  0  0  0  0  0  0  0  0
    6.8364    0.8856   15.3048 H   0  0  0  0  0  0  0  0  0  0  0  0
    6.2618   -0.7780   17.3369 H   0  0  0  0  0  0  0  0  0  0  0  0
    2.8437    3.0290   12.7617 H   0  0  0  0  0  0  0  0  0  0  0  0
    4.5832    2.3665   11.2461 H   0  0  0  0  0  0  0  0  0  0  0  0
    3.8661    3.8165    9.3808 H   0  0  0  0  0  0  0  0  0  0  0  0
    1.3617    5.1041    8.2367 H   0  0  0  0  0  0  0  0  0  0  0  0
    0.5625    2.2014   12.8044 H   0  0  0  0  0  0  0  0  0  0  0  0
    0.1281   -3.5362   15.5482 H   0  0  0  0  0  0  0  0  0  0  0  0
   -0.2189   -2.3808   16.8791 H   0  0  0  0  0  0  0  0  0  0  0  0
   -2.1996   -3.6545   16.2736 H   0  0  0  0  0  0  0  0  0  0  0  0
  1  2  1  0  0  0  0
  2  3  1  0  0  0  0
  2  6  1  0  0  0  0
  3  4  1  0  0  0  0
  4  5  1  0  0  0  0
  6  7  1  0  0  0  0
  6 30  2  0  0  0  0
  7  8  2  0  0  0  0
  8  9  1  0  0  0  0
  9 10  2  0  0  0  0
  9 29  1  0  0  0  0
 10 11  1  0  0  0  0
 11 12  2  0  0  0  0
 11 19  1  0  0  0  0
 12 13  1  0  0  0  0
 13 14  2  0  0  0  0
 13 20  1  0  0  0  0
 14 15  1  0  0  0  0
 15 16  1  0  0  0  0
 15 19  1  0  0  0  0
 16 17  2  0  0  0  0
 17 18  1  0  0  0  0
 18 19  2  0  0  0  0
 20 21  1  0  0  0  0
 20 28  1  0  0  0  0
 21 22  2  0  0  0  0
 22 23  1  0  0  0  0
 23 24  2  0  0  0  0
 23 27  1  0  0  0  0
 24 25  1  0  0  0  0
 25 26  2  0  0  0  0
 26 27  1  0  0  0  0
 27 28  2  0  0  0  0
 29 30  1  0  0  0  0
  1 31  1  0  0  0  0
  1 32  1  0  0  0  0
  1 33  1  0  0  0  0
  3 34  1  0  0  0  0
  3 35  1  0  0  0  0
  4 36  1  0  0  0  0
  4 37  1  0  0  0  0
  5 38  1  0  0  0  0
  7 39  1  0  0  0  0
  8 40  1  0  0  0  0
 14 41  1  0  0  0  0
 16 42  1  0  0  0  0
 17 43  1  0  0  0  0
 20 44  1  0  0  0  0
 21 45  1  0  0  0  0
 22 46  1  0  0  0  0
 24 47  1  0  0  0  0
 28 48  1  0  0  0  0
 29 49  1  0  0  0  0
 29 50  1  0  0  0  0
 30 51  1  0  0  0  0
M  END
> <IC50[nM]>
7.6

$$$$
CHEMBL3265035
  -OEChem-05192314333D
 Structure written by MMmdl.
 51 55  0     1  0  0  0  0  0999 V2000
   -4.5368   -3.3612   15.6406 C   0  0  0  0  0  0  0  0  0  0  0  0
   -3.9561   -2.3810   14.7221 N   0  0  2  0  0  0  0  0  0  0  0  0
   -4.6759   -2.0519   13.4970 C   0  0  0  0  0  0  0  0  0  0  0  0
   -4.8094   -3.1968   12.4731 C   0  0  0  0  0  0  0  0  0  0  0  0
   -5.3909   -2.7945   11.2538 O   0  0  0  0  0  0  0  0  0  0  0  0
   -2.5380   -2.1167   14.8106 C   0  0  0  0  0  0  0  0  0  0  0  0
   -1.9279   -1.0927   14.0460 C   0  0  0  0  0  0  0  0  0  0  0  0
   -0.5515   -0.8247   14.1929 C   0  0  0  0  0  0  0  0  0  0  0  0
    0.2181   -1.5869   15.0916 C   0  0  0  0  0  0  0  0  0  0  0  0
    1.6005   -1.3598   15.3303 N   0  0  0  0  0  0  0  0  0  0  0  0
    2.5326   -0.4516   14.7667 C   0  0  0  0  0  0  0  0  0  0  0  0
    2.1715    0.3794   13.7341 N   0  0  0  0  0  0  0  0  0  0  0  0
    3.1060    1.2367   13.2184 C   0  0  0  0  0  0  0  0  0  0  0  0
    4.4145    1.2803   13.6968 C   0  0  0  0  0  0  0  0  0  0  0  0
    4.7440    0.4821   14.7570 N   0  0  0  0  0  0  0  0  0  0  0  0
    5.8987    0.3805   15.4839 C   0  0  0  0  0  0  0  0  0  0  0  0
    5.5936   -0.5339   16.5243 C   0  0  0  0  0  0  0  0  0  0  0  0
    4.3807   -1.0510   16.3702 N   0  0  0  0  0  0  0  0  0  0  0  0
    3.8367   -0.4037   15.3198 C   0  0  0  0  0  0  0  0  0  0  0  0
    2.6315    2.1595   12.1222 C   0  0  0  0  0  0  0  0  0  0  0  0
    3.5425    2.6427   11.1618 C   0  0  0  0  0  0  0  0  0  0  0  0
    3.1486    3.4642   10.1071 C   0  0  0  0  0  0  0  0  0  0  0  0
    1.8051    3.8185   10.0149 C   0  0  0  0  0  0  0  0  0  0  0  0
    0.9940    4.5977    9.1169 C   0  0  0  0  0  0  0  0  0  0  0  0
   -0.2465    4.6060    9.5156 N   0  0  0  0  0  0  0  0  0  0  0  0
   -0.3325    3.8910   10.6299 N   0  0  0  0  0  0  0  0  0  0  0  0
    0.8808    3.3589   10.9978 C   0  0  3  0  0  0  0  0  0  0  0  0
    1.2718    2.5352   12.0615 C   0  0  0  0  0  0  0  0  0  0  0  0
   -0.3941   -2.6060   15.8167 C   0  0  0  0  0  0  0  0  0  0  0  0
   -1.7488   -2.8660   15.6892 C   0  0  0  0  0  0  0  0  0  0  0  0
   -3.8716   -3.4917   16.5069 H   0  0  0  0  0  0  0  0  0  0  0  0
   -5.5195   -3.0051   15.9834 H   0  0  0  0  0  0  0  0  0  0  0  0
   -4.6562   -4.3238   15.1218 H   0  0  0  0  0  0  0  0  0  0  0  0
   -5.6894   -1.7286   13.7768 H   0  0  0  0  0  0  0  0  0  0  0  0
   -4.1478   -1.2204   13.0075 H   0  0  0  0  0  0  0  0  0  0  0  0
   -3.8061   -3.5970   12.2653 H   0  0  0  0  0  0  0  0  0  0  0  0
   -5.4353   -3.9869   12.9136 H   0  0  0  0  0  0  0  0  0  0  0  0
   -5.4459   -3.5399   10.6675 H   0  0  0  0  0  0  0  0  0  0  0  0
   -2.5180   -0.5160   13.3491 H   0  0  0  0  0  0  0  0  0  0  0  0
   -0.0889   -0.0366   13.6173 H   0  0  0  0  0  0  0  0  0  0  0  0
    5.1493    1.9279   13.2417 H   0  0  0  0  0  0  0  0  0  0  0  0
    6.8364    0.8856   15.3048 H   0  0  0  0  0  0  0  0  0  0  0  0
    6.2618   -0.7780   17.3369 H   0  0  0  0  0  0  0  0  0  0  0  0
    4.5832    2.3665   11.2461 H   0  0  0  0  0  0  0  0  0  0  0  0
    3.8661    3.8165    9.3808 H   0  0  0  0  0  0  0  0  0  0  0  0
    1.3617    5.1041    8.2367 H   0  0  0  0  0  0  0  0  0  0  0  0
    1.0871    4.2493   11.6099 H   0  0  0  0  0  0  0  0  0  0  0  0
    0.5625    2.2014   12.8044 H   0  0  0  0  0  0  0  0  0  0  0  0
    0.1281   -3.5362   15.5482 H   0  0  0  0  0  0  0  0  0  0  0  0
   -0.2189   -2.3808   16.8791 H   0  0  0  0  0  0  0  0  0  0  0  0
   -2.1996   -3.6545   16.2736 H   0  0  0  0  0  0  0  0  0  0  0  0
  1  2  1  0  0  0  0
  2  3  1  0  0  0  0
  2  6  1  0  0  0  0
  3  4  1  0  0  0  0
  4  5  1  0  0  0  0
  6  7  1  0  0  0  0
  6 30  2  0  0  0  0
  7  8  2  0  0  0  0
  8  9  1  0  0  0  0
  9 10  2  0  0  0  0
  9 29  1  0  0  0  0
 10 11  1  0  0  0  0
 11 12  2  0  0  0  0
 11 19  1  0  0  0  0
 12 13  1  0  0  0  0
 13 14  2  0  0  0  0
 13 20  1  0  0  0  0
 14 15  1  0  0  0  0
 15 16  1  0  0  0  0
 15 19  1  0  0  0  0
 16 17  2  0  0  0  0
 17 18  1  0  0  0  0
 18 19  2  0  0  0  0
 20 21  1  0  0  0  0
 20 28  2  0  0  0  0
 21 22  2  0  0  0  0
 22 23  1  0  0  0  0
 23 24  2  0  0  0  0
 23 27  1  0  0  0  0
 24 25  1  0  0  0  0
 25 26  2  0  0  0  0
 26 27  1  0  0  0  0
 27 28  1  0  0  0  0
 29 30  1  0  0  0  0
  1 31  1  0  0  0  0
  1 32  1  0  0  0  0
  1 33  1  0  0  0  0
  3 34  1  0  0  0  0
  3 35  1  0  0  0  0
  4 36  1  0  0  0  0
  4 37  1  0  0  0  0
  5 38  1  0  0  0  0
  7 39  1  0  0  0  0
  8 40  1  0  0  0  0
 14 41  1  0  0  0  0
 16 42  1  0  0  0  0
 17 43  1  0  0  0  0
 21 44  1  0  0  0  0
 22 45  1  0  0  0  0
 24 46  1  0  0  0  0
 27 47  1  0  0  0  0
 28 48  1  0  0  0  0
 29 49  1  0  0  0  0
 29 50  1  0  0  0  0
 30 51  1  0  0  0  0
M  END
> <IC50[nM]>
7.6

$$$$
CHEMBL3265035
  -OEChem-05192314333D
 Structure written by MMmdl.
 51 55  0     1  0  0  0  0  0999 V2000
   -4.5368   -3.3612   15.6406 C   0  0  0  0  0  0  0  0  0  0  0  0
   -3.9561   -2.3810   14.7221 N   0  0  2  0  0  0  0  0  0  0  0  0
   -4.6759   -2.0519   13.4970 C   0  0  0  0  0  0  0  0  0  0  0  0
   -4.8094   -3.1968   12.4731 C   0  0  0  0  0  0  0  0  0  0  0  0
   -5.3909   -2.7945   11.2538 O   0  0  0  0  0  0  0  0  0  0  0  0
   -2.5380   -2.1167   14.8106 C   0  0  0  0  0  0  0  0  0  0  0  0
   -1.9279   -1.0927   14.0460 C   0  0  0  0  0  0  0  0  0  0  0  0
   -0.5515   -0.8247   14.1929 C   0  0  0  0  0  0  0  0  0  0  0  0
    0.2181   -1.5869   15.0916 C   0  0  0  0  0  0  0  0  0  0  0  0
    1.6005   -1.3598   15.3303 N   0  0  0  0  0  0  0  0  0  0  0  0
    2.5326   -0.4516   14.7667 C   0  0  0  0  0  0  0  0  0  0  0  0
    2.1715    0.3794   13.7341 N   0  0  0  0  0  0  0  0  0  0  0  0
    3.1060    1.2367   13.2184 C   0  0  0  0  0  0  0  0  0  0  0  0
    4.4145    1.2803   13.6968 C   0  0  0  0  0  0  0  0  0  0  0  0
    4.7440    0.4821   14.7570 N   0  0  0  0  0  0  0  0  0  0  0  0
    5.8987    0.3805   15.4839 C   0  0  0  0  0  0  0  0  0  0  0  0
    5.5936   -0.5339   16.5243 C   0  0  0  0  0  0  0  0  0  0  0  0
    4.3807   -1.0510   16.3702 N   0  0  0  0  0  0  0  0  0  0  0  0
    3.8367   -0.4037   15.3198 C   0  0  0  0  0  0  0  0  0  0  0  0
    2.6315    2.1595   12.1222 C   0  0  0  0  0  0  0  0  0  0  0  0
    3.5425    2.6427   11.1618 C   0  0  0  0  0  0  0  0  0  0  0  0
    3.1486    3.4642   10.1071 C   0  0  0  0  0  0  0  0  0  0  0  0
    1.8051    3.8185   10.0149 C   0  0  0  0  0  0  0  0  0  0  0  0
    0.9940    4.5977    9.1169 C   0  0  0  0  0  0  0  0  0  0  0  0
   -0.2465    4.6060    9.5156 N   0  0  0  0  0  0  0  0  0  0  0  0
   -0.3325    3.8910   10.6299 N   0  0  0  0  0  0  0  0  0  0  0  0
    0.8808    3.3589   10.9978 C   0  0  0  0  0  0  0  0  0  0  0  0
    1.2718    2.5352   12.0615 C   0  0  0  0  0  0  0  0  0  0  0  0
   -0.3941   -2.6060   15.8167 C   0  0  0  0  0  0  0  0  0  0  0  0
   -1.7488   -2.8660   15.6892 C   0  0  0  0  0  0  0  0  0  0  0  0
   -3.8716   -3.4917   16.5069 H   0  0  0  0  0  0  0  0  0  0  0  0
   -5.5195   -3.0051   15.9834 H   0  0  0  0  0  0  0  0  0  0  0  0
   -4.6562   -4.3238   15.1218 H   0  0  0  0  0  0  0  0  0  0  0  0
   -5.6894   -1.7286   13.7768 H   0  0  0  0  0  0  0  0  0  0  0  0
   -4.1478   -1.2204   13.0075 H   0  0  0  0  0  0  0  0  0  0  0  0
   -3.8061   -3.5970   12.2653 H   0  0  0  0  0  0  0  0  0  0  0  0
   -5.4353   -3.9869   12.9136 H   0  0  0  0  0  0  0  0  0  0  0  0
   -5.4459   -3.5399   10.6675 H   0  0  0  0  0  0  0  0  0  0  0  0
   -2.3452   -2.8422   14.0066 H   0  0  0  0  0  0  0  0  0  0  0  0
   -2.5180   -0.5160   13.3491 H   0  0  0  0  0  0  0  0  0  0  0  0
   -0.0889   -0.0366   13.6173 H   0  0  0  0  0  0  0  0  0  0  0  0
    5.1493    1.9279   13.2417 H   0  0  0  0  0  0  0  0  0  0  0  0
    6.8364    0.8856   15.3048 H   0  0  0  0  0  0  0  0  0  0  0  0
    6.2618   -0.7780   17.3369 H   0  0  0  0  0  0  0  0  0  0  0  0
    4.5832    2.3665   11.2461 H   0  0  0  0  0  0  0  0  0  0  0  0
    3.7270    4.3965   10.1864 H   0  0  0  0  0  0  0  0  0  0  0  0
    3.4140    2.9463    9.1737 H   0  0  0  0  0  0  0  0  0  0  0  0
    1.3617    5.1041    8.2367 H   0  0  0  0  0  0  0  0  0  0  0  0
    0.5625    2.2014   12.8044 H   0  0  0  0  0  0  0  0  0  0  0  0
    0.1988   -3.2054   16.4917 H   0  0  0  0  0  0  0  0  0  0  0  0
   -2.1996   -3.6545   16.2736 H   0  0  0  0  0  0  0  0  0  0  0  0
  1  2  1  0  0  0  0
  2  3  1  0  0  0  0
  2  6  1  0  0  0  0
  3  4  1  0  0  0  0
  4  5  1  0  0  0  0
  6  7  1  0  0  0  0
  6 30  1  0  0  0  0
  7  8  2  0  0  0  0
  8  9  1  0  0  0  0
  9 10  2  0  0  0  0
  9 29  1  0  0  0  0
 10 11  1  0  0  0  0
 11 12  2  0  0  0  0
 11 19  1  0  0  0  0
 12 13  1  0  0  0  0
 13 14  2  0  0  0  0
 13 20  1  0  0  0  0
 14 15  1  0  0  0  0
 15 16  1  0  0  0  0
 15 19  1  0  0  0  0
 16 17  2  0  0  0  0
 17 18  1  0  0  0  0
 18 19  2  0  0  0  0
 20 21  2  0  0  0  0
 20 28  1  0  0  0  0
 21 22  1  0  0  0  0
 22 23  1  0  0  0  0
 23 24  2  0  0  0  0
 23 27  1  0  0  0  0
 24 25  1  0  0  0  0
 25 26  2  0  0  0  0
 26 27  1  0  0  0  0
 27 28  2  0  0  0  0
 29 30  2  0  0  0  0
  1 31  1  0  0  0  0
  1 32  1  0  0  0  0
  1 33  1  0  0  0  0
  3 34  1  0  0  0  0
  3 35  1  0  0  0  0
  4 36  1  0  0  0  0
  4 37  1  0  0  0  0
  5 38  1  0  0  0  0
  6 39  1  0  0  0  0
  7 40  1  0  0  0  0
  8 41  1  0  0  0  0
 14 42  1  0  0  0  0
 16 43  1  0  0  0  0
 17 44  1  0  0  0  0
 21 45  1  0  0  0  0
 22 46  1  0  0  0  0
 22 47  1  0  0  0  0
 24 48  1  0  0  0  0
 28 49  1  0  0  0  0
 29 50  1  0  0  0  0
 30 51  1  0  0  0  0
M  END
> <IC50[nM]>
7.6

$$$$
CHEMBL3265035
  -OEChem-05192314333D
 Structure written by MMmdl.
 51 55  0     1  0  0  0  0  0999 V2000
   -4.5368   -3.3612   15.6406 C   0  0  0  0  0  0  0  0  0  0  0  0
   -3.9561   -2.3810   14.7221 N   0  0  2  0  0  0  0  0  0  0  0  0
   -4.6759   -2.0519   13.4970 C   0  0  0  0  0  0  0  0  0  0  0  0
   -4.8094   -3.1968   12.4731 C   0  0  0  0  0  0  0  0  0  0  0  0
   -5.3909   -2.7945   11.2538 O   0  0  0  0  0  0  0  0  0  0  0  0
   -2.5380   -2.1167   14.8106 C   0  0  0  0  0  0  0  0  0  0  0  0
   -1.9279   -1.0927   14.0460 C   0  0  0  0  0  0  0  0  0  0  0  0
   -0.5515   -0.8247   14.1929 C   0  0  0  0  0  0  0  0  0  0  0  0
    0.2181   -1.5869   15.0916 C   0  0  0  0  0  0  0  0  0  0  0  0
    1.6005   -1.3598   15.3303 N   0  0  0  0  0  0  0  0  0  0  0  0
    2.5326   -0.4516   14.7667 C   0  0  0  0  0  0  0  0  0  0  0  0
    2.1715    0.3794   13.7341 N   0  0  0  0  0  0  0  0  0  0  0  0
    3.1060    1.2367   13.2184 C   0  0  0  0  0  0  0  0  0  0  0  0
    4.4145    1.2803   13.6968 C   0  0  0  0  0  0  0  0  0  0  0  0
    4.7440    0.4821   14.7570 N   0  0  0  0  0  0  0  0  0  0  0  0
    5.8987    0.3805   15.4839 C   0  0  0  0  0  0  0  0  0  0  0  0
    5.5936   -0.5339   16.5243 C   0  0  0  0  0  0  0  0  0  0  0  0
    4.3807   -1.0510   16.3702 N   0  0  0  0  0  0  0  0  0  0  0  0
    3.8367   -0.4037   15.3198 C   0  0  0  0  0  0  0  0  0  0  0  0
    2.6315    2.1595   12.1222 C   0  0  0  0  0  0  0  0  0  0  0  0
    3.5425    2.6427   11.1618 C   0  0  0  0  0  0  0  0  0  0  0  0
    3.1486    3.4642   10.1071 C   0  0  0  0  0  0  0  0  0  0  0  0
    1.8051    3.8185   10.0149 C   0  0  0  0  0  0  0  0  0  0  0  0
    0.9940    4.5977    9.1169 C   0  0  0  0  0  0  0  0  0  0  0  0
   -0.2465    4.6060    9.5156 N   0  0  0  0  0  0  0  0  0  0  0  0
   -0.3325    3.8910   10.6299 N   0  0  0  0  0  0  0  0  0  0  0  0
    0.8808    3.3589   10.9978 C   0  0  0  0  0  0  0  0  0  0  0  0
    1.2718    2.5352   12.0615 C   0  0  0  0  0  0  0  0  0  0  0  0
   -0.3941   -2.6060   15.8167 C   0  0  0  0  0  0  0  0  0  0  0  0
   -1.7488   -2.8660   15.6892 C   0  0  0  0  0  0  0  0  0  0  0  0
   -3.8716   -3.4917   16.5069 H   0  0  0  0  0  0  0  0  0  0  0  0
   -5.5195   -3.0051   15.9834 H   0  0  0  0  0  0  0  0  0  0  0  0
   -4.6562   -4.3238   15.1218 H   0  0  0  0  0  0  0  0  0  0  0  0
   -5.6894   -1.7286   13.7768 H   0  0  0  0  0  0  0  0  0  0  0  0
   -4.1478   -1.2204   13.0075 H   0  0  0  0  0  0  0  0  0  0  0  0
   -3.8061   -3.5970   12.2653 H   0  0  0  0  0  0  0  0  0  0  0  0
   -5.4353   -3.9869   12.9136 H   0  0  0  0  0  0  0  0  0  0  0  0
   -5.4459   -3.5399   10.6675 H   0  0  0  0  0  0  0  0  0  0  0  0
   -2.5180   -0.5160   13.3491 H   0  0  0  0  0  0  0  0  0  0  0  0
   -0.0889   -0.0366   13.6173 H   0  0  0  0  0  0  0  0  0  0  0  0
    5.1493    1.9279   13.2417 H   0  0  0  0  0  0  0  0  0  0  0  0
    6.8364    0.8856   15.3048 H   0  0  0  0  0  0  0  0  0  0  0  0
    6.2618   -0.7780   17.3369 H   0  0  0  0  0  0  0  0  0  0  0  0
    4.5832    2.3665   11.2461 H   0  0  0  0  0  0  0  0  0  0  0  0
    3.7270    4.3965   10.1864 H   0  0  0  0  0  0  0  0  0  0  0  0
    3.4140    2.9463    9.1737 H   0  0  0  0  0  0  0  0  0  0  0  0
    1.3617    5.1041    8.2367 H   0  0  0  0  0  0  0  0  0  0  0  0
    0.5625    2.2014   12.8044 H   0  0  0  0  0  0  0  0  0  0  0  0
    0.1281   -3.5362   15.5482 H   0  0  0  0  0  0  0  0  0  0  0  0
   -0.2189   -2.3808   16.8791 H   0  0  0  0  0  0  0  0  0  0  0  0
   -2.1996   -3.6545   16.2736 H   0  0  0  0  0  0  0  0  0  0  0  0
  1  2  1  0  0  0  0
  2  3  1  0  0  0  0
  2  6  1  0  0  0  0
  3  4  1  0  0  0  0
  4  5  1  0  0  0  0
  6  7  1  0  0  0  0
  6 30  2  0  0  0  0
  7  8  2  0  0  0  0
  8  9  1  0  0  0  0
  9 10  2  0  0  0  0
  9 29  1  0  0  0  0
 10 11  1  0  0  0  0
 11 12  2  0  0  0  0
 11 19  1  0  0  0  0
 12 13  1  0  0  0  0
 13 14  2  0  0  0  0
 13 20  1  0  0  0  0
 14 15  1  0  0  0  0
 15 16  1  0  0  0  0
 15 19  1  0  0  0  0
 16 17  2  0  0  0  0
 17 18  1  0  0  0  0
 18 19  2  0  0  0  0
 20 21  2  0  0  0  0
 20 28  1  0  0  0  0
 21 22  1  0  0  0  0
 22 23  1  0  0  0  0
 23 24  2  0  0  0  0
 23 27  1  0  0  0  0
 24 25  1  0  0  0  0
 25 26  2  0  0  0  0
 26 27  1  0  0  0  0
 27 28  2  0  0  0  0
 29 30  1  0  0  0  0
  1 31  1  0  0  0  0
  1 32  1  0  0  0  0
  1 33  1  0  0  0  0
  3 34  1  0  0  0  0
  3 35  1  0  0  0  0
  4 36  1  0  0  0  0
  4 37  1  0  0  0  0
  5 38  1  0  0  0  0
  7 39  1  0  0  0  0
  8 40  1  0  0  0  0
 14 41  1  0  0  0  0
 16 42  1  0  0  0  0
 17 43  1  0  0  0  0
 21 44  1  0  0  0  0
 22 45  1  0  0  0  0
 22 46  1  0  0  0  0
 24 47  1  0  0  0  0
 28 48  1  0  0  0  0
 29 49  1  0  0  0  0
 29 50  1  0  0  0  0
 30 51  1  0  0  0  0
M  END
> <IC50[nM]>
7.6

$$$$
