CHEMBL3265015
  -OEChem-05192314333D
 Structure written by MMmdl.
 51 54  0     0  0  0  0  0  0999 V2000
   -4.2658   -3.1175   13.5713 C   0  0  0  0  0  0  0  0  0  0  0  0
   -3.8897   -2.4164   14.7436 O   0  0  0  0  0  0  0  0  0  0  0  0
   -2.5439   -2.1718   14.8418 C   0  0  0  0  0  0  0  0  0  0  0  0
   -1.7693   -2.9126   15.7244 C   0  0  0  0  0  0  0  0  0  0  0  0
   -0.4086   -2.6509   15.8610 C   0  0  0  0  0  0  0  0  0  0  0  0
    0.2048   -1.6479   15.1096 C   0  0  0  0  0  0  0  0  0  0  0  0
    1.6017   -1.4006   15.3489 N   0  0  0  0  0  0  0  0  0  0  0  0
    2.5425   -0.4814   14.7772 C   0  0  0  0  0  0  0  0  0  0  0  0
    2.1966    0.3306   13.7372 N   0  0  0  0  0  0  0  0  0  0  0  0
    3.1151    1.2253   13.2359 C   0  0  0  0  0  0  0  0  0  0  0  0
    4.4125    1.2753   13.7158 C   0  0  0  0  0  0  0  0  0  0  0  0
    4.7468    0.4823   14.7726 N   0  0  0  0  0  0  0  0  0  0  0  0
    5.9017    0.3875   15.4968 C   0  0  0  0  0  0  0  0  0  0  0  0
    5.6113   -0.5378   16.5263 C   0  0  0  0  0  0  0  0  0  0  0  0
    4.3968   -1.0589   16.3854 N   0  0  0  0  0  0  0  0  0  0  0  0
    3.8461   -0.4133   15.3411 C   0  0  0  0  0  0  0  0  0  0  0  0
    2.6468    2.1713   12.1254 C   0  0  0  0  0  0  0  0  0  0  0  0
    1.2968    2.6023   12.0851 C   0  0  0  0  0  0  0  0  0  0  0  0
    0.8699    3.4876   11.0892 C   0  0  0  0  0  0  0  0  0  0  0  0
    1.7721    3.9706   10.1365 C   0  0  0  0  0  0  0  0  0  0  0  0
    3.0808    3.5379   10.1569 C   0  0  0  0  0  0  0  0  0  0  0  0
    3.5135    2.6334   11.0944 C   0  0  0  0  0  0  0  0  0  0  0  0
    4.9035    2.1468   10.9601 C   0  0  0  0  0  0  0  0  0  0  0  0
    1.3475    4.9212    9.0657 C   0  0  0  0  0  0  0  0  0  0  0  0
    0.1679    5.0957    8.8335 O   0  0  0  0  0  0  0  0  0  0  0  0
    2.3260    5.5415    8.3940 N   0  0  0  0  0  0  0  0  0  0  0  0
   -0.5697   -0.9333   14.1871 C   0  0  0  0  0  0  0  0  0  0  0  0
   -1.9604   -1.1834   14.0595 C   0  0  0  0  0  0  0  0  0  0  0  0
   -2.7686   -0.4755   13.1689 O   0  0  0  0  0  0  0  0  0  0  0  0
   -2.2961    0.5699   12.3655 C   0  0  0  0  0  0  0  0  0  0  0  0
   -5.3548   -3.2725   13.5696 H   0  0  0  0  0  0  0  0  0  0  0  0
   -3.9775   -2.5321   12.6857 H   0  0  0  0  0  0  0  0  0  0  0  0
   -3.7568   -4.0924   13.5481 H   0  0  0  0  0  0  0  0  0  0  0  0
   -2.2256   -3.6976   16.3093 H   0  0  0  0  0  0  0  0  0  0  0  0
    0.1791   -3.2312   16.5569 H   0  0  0  0  0  0  0  0  0  0  0  0
    1.9959   -1.9876   16.0560 H   0  0  0  0  0  0  0  0  0  0  0  0
    5.1437    1.9283   13.2628 H   0  0  0  0  0  0  0  0  0  0  0  0
    6.8328    0.9059   15.3214 H   0  0  0  0  0  0  0  0  0  0  0  0
    6.2913   -0.7894   17.3267 H   0  0  0  0  0  0  0  0  0  0  0  0
    0.5957    2.2462   12.8254 H   0  0  0  0  0  0  0  0  0  0  0  0
   -0.1634    3.7999   11.0562 H   0  0  0  0  0  0  0  0  0  0  0  0
    3.7770    3.9167    9.4233 H   0  0  0  0  0  0  0  0  0  0  0  0
    4.9193    1.2531   10.3190 H   0  0  0  0  0  0  0  0  0  0  0  0
    5.5251    2.9335   10.5076 H   0  0  0  0  0  0  0  0  0  0  0  0
    5.3003    1.8921   11.9539 H   0  0  0  0  0  0  0  0  0  0  0  0
    2.1003    6.1839    7.6616 H   0  0  0  0  0  0  0  0  0  0  0  0
    3.2824    5.3623    8.6248 H   0  0  0  0  0  0  0  0  0  0  0  0
   -0.1030   -0.1833   13.5658 H   0  0  0  0  0  0  0  0  0  0  0  0
   -3.1208    0.9646   11.7540 H   0  0  0  0  0  0  0  0  0  0  0  0
   -1.8972    1.3716   13.0043 H   0  0  0  0  0  0  0  0  0  0  0  0
   -1.4987    0.1946   11.7072 H   0  0  0  0  0  0  0  0  0  0  0  0
  1  2  1  0  0  0  0
  2  3  1  0  0  0  0
  3  4  2  0  0  0  0
  3 28  1  0  0  0  0
  4  5  1  0  0  0  0
  5  6  2  0  0  0  0
  6  7  1  0  0  0  0
  6 27  1  0  0  0  0
  7  8  1  0  0  0  0
  8  9  2  0  0  0  0
  8 16  1  0  0  0  0
  9 10  1  0  0  0  0
 10 11  2  0  0  0  0
 10 17  1  0  0  0  0
 11 12  1  0  0  0  0
 12 13  1  0  0  0  0
 12 16  1  0  0  0  0
 13 14  2  0  0  0  0
 14 15  1  0  0  0  0
 15 16  2  0  0  0  0
 17 18  2  0  0  0  0
 17 22  1  0  0  0  0
 18 19  1  0  0  0  0
 19 20  2  0  0  0  0
 20 21  1  0  0  0  0
 20 24  1  0  0  0  0
 21 22  2  0  0  0  0
 22 23  1  0  0  0  0
 24 25  2  0  0  0  0
 24 26  1  0  0  0  0
 27 28  2  0  0  0  0
 28 29  1  0  0  0  0
 29 30  1  0  0  0  0
  1 31  1  0  0  0  0
  1 32  1  0  0  0  0
  1 33  1  0  0  0  0
  4 34  1  0  0  0  0
  5 35  1  0  0  0  0
  7 36  1  0  0  0  0
 11 37  1  0  0  0  0
 13 38  1  0  0  0  0
 14 39  1  0  0  0  0
 18 40  1  0  0  0  0
 19 41  1  0  0  0  0
 21 42  1  0  0  0  0
 23 43  1  0  0  0  0
 23 44  1  0  0  0  0
 23 45  1  0  0  0  0
 26 46  1  0  0  0  0
 26 47  1  0  0  0  0
 27 48  1  0  0  0  0
 30 49  1  0  0  0  0
 30 50  1  0  0  0  0
 30 51  1  0  0  0  0
M  END
> <IC50[nM]>
113

$$$$
CHEMBL3265015
  -OEChem-05192314333D
 Structure written by MMmdl.
 51 54  0     0  0  0  0  0  0999 V2000
   -4.2658   -3.1175   13.5713 C   0  0  0  0  0  0  0  0  0  0  0  0
   -3.8897   -2.4164   14.7436 O   0  0  0  0  0  0  0  0  0  0  0  0
   -2.5439   -2.1718   14.8418 C   0  0  0  0  0  0  0  0  0  0  0  0
   -1.7693   -2.9126   15.7244 C   0  0  0  0  0  0  0  0  0  0  0  0
   -0.4086   -2.6509   15.8610 C   0  0  0  0  0  0  0  0  0  0  0  0
    0.2048   -1.6479   15.1096 C   0  0  0  0  0  0  0  0  0  0  0  0
    1.6017   -1.4006   15.3489 N   0  0  0  0  0  0  0  0  0  0  0  0
    2.5425   -0.4814   14.7772 C   0  0  0  0  0  0  0  0  0  0  0  0
    2.1966    0.3306   13.7372 N   0  0  0  0  0  0  0  0  0  0  0  0
    3.1151    1.2253   13.2359 C   0  0  0  0  0  0  0  0  0  0  0  0
    4.4125    1.2753   13.7158 C   0  0  0  0  0  0  0  0  0  0  0  0
    4.7468    0.4823   14.7726 N   0  0  0  0  0  0  0  0  0  0  0  0
    5.9017    0.3875   15.4968 C   0  0  0  0  0  0  0  0  0  0  0  0
    5.6113   -0.5378   16.5263 C   0  0  0  0  0  0  0  0  0  0  0  0
    4.3968   -1.0589   16.3854 N   0  0  0  0  0  0  0  0  0  0  0  0
    3.8461   -0.4133   15.3411 C   0  0  0  0  0  0  0  0  0  0  0  0
    2.6468    2.1713   12.1254 C   0  0  0  0  0  0  0  0  0  0  0  0
    1.2968    2.6023   12.0851 C   0  0  0  0  0  0  0  0  0  0  0  0
    0.8699    3.4876   11.0892 C   0  0  0  0  0  0  0  0  0  0  0  0
    1.7721    3.9706   10.1365 C   0  0  0  0  0  0  0  0  0  0  0  0
    3.0808    3.5379   10.1569 C   0  0  0  0  0  0  0  0  0  0  0  0
    3.5135    2.6334   11.0944 C   0  0  0  0  0  0  0  0  0  0  0  0
    4.9035    2.1468   10.9601 C   0  0  0  0  0  0  0  0  0  0  0  0
    1.3475    4.9212    9.0657 C   0  0  0  0  0  0  0  0  0  0  0  0
    0.1679    5.0957    8.8335 O   0  0  0  0  0  0  0  0  0  0  0  0
    2.3260    5.5415    8.3940 N   0  0  0  0  0  0  0  0  0  0  0  0
   -0.5697   -0.9333   14.1871 C   0  0  0  0  0  0  0  0  0  0  0  0
   -1.9604   -1.1834   14.0595 C   0  0  0  0  0  0  0  0  0  0  0  0
   -2.7686   -0.4755   13.1689 O   0  0  0  0  0  0  0  0  0  0  0  0
   -2.2961    0.5699   12.3655 C   0  0  0  0  0  0  0  0  0  0  0  0
   -5.3548   -3.2725   13.5696 H   0  0  0  0  0  0  0  0  0  0  0  0
   -3.9775   -2.5321   12.6857 H   0  0  0  0  0  0  0  0  0  0  0  0
   -3.7568   -4.0924   13.5481 H   0  0  0  0  0  0  0  0  0  0  0  0
   -2.2256   -3.6976   16.3093 H   0  0  0  0  0  0  0  0  0  0  0  0
    0.1791   -3.2312   16.5569 H   0  0  0  0  0  0  0  0  0  0  0  0
    1.9959   -1.9876   16.0560 H   0  0  0  0  0  0  0  0  0  0  0  0
    5.1437    1.9283   13.2628 H   0  0  0  0  0  0  0  0  0  0  0  0
    6.8328    0.9059   15.3214 H   0  0  0  0  0  0  0  0  0  0  0  0
    6.2913   -0.7894   17.3267 H   0  0  0  0  0  0  0  0  0  0  0  0
    0.5957    2.2462   12.8254 H   0  0  0  0  0  0  0  0  0  0  0  0
   -0.1634    3.7999   11.0562 H   0  0  0  0  0  0  0  0  0  0  0  0
    3.7770    3.9167    9.4233 H   0  0  0  0  0  0  0  0  0  0  0  0
    4.9193    1.2531   10.3190 H   0  0  0  0  0  0  0  0  0  0  0  0
    5.5251    2.9335   10.5076 H   0  0  0  0  0  0  0  0  0  0  0  0
    5.3003    1.8921   11.9539 H   0  0  0  0  0  0  0  0  0  0  0  0
    0.0732    5.7262    8.1293 H   0  0  0  0  0  0  0  0  0  0  0  0
    1.9670    6.1548    7.6905 H   0  0  0  0  0  0  0  0  0  0  0  0
   -0.1030   -0.1833   13.5658 H   0  0  0  0  0  0  0  0  0  0  0  0
   -3.1208    0.9646   11.7540 H   0  0  0  0  0  0  0  0  0  0  0  0
   -1.8972    1.3716   13.0043 H   0  0  0  0  0  0  0  0  0  0  0  0
   -1.4987    0.1946   11.7072 H   0  0  0  0  0  0  0  0  0  0  0  0
  1  2  1  0  0  0  0
  2  3  1  0  0  0  0
  3  4  2  0  0  0  0
  3 28  1  0  0  0  0
  4  5  1  0  0  0  0
  5  6  2  0  0  0  0
  6  7  1  0  0  0  0
  6 27  1  0  0  0  0
  7  8  1  0  0  0  0
  8  9  2  0  0  0  0
  8 16  1  0  0  0  0
  9 10  1  0  0  0  0
 10 11  2  0  0  0  0
 10 17  1  0  0  0  0
 11 12  1  0  0  0  0
 12 13  1  0  0  0  0
 12 16  1  0  0  0  0
 13 14  2  0  0  0  0
 14 15  1  0  0  0  0
 15 16  2  0  0  0  0
 17 18  2  0  0  0  0
 17 22  1  0  0  0  0
 18 19  1  0  0  0  0
 19 20  2  0  0  0  0
 20 21  1  0  0  0  0
 20 24  1  0  0  0  0
 21 22  2  0  0  0  0
 22 23  1  0  0  0  0
 24 25  1  0  0  0  0
 24 26  2  0  0  0  0
 27 28  2  0  0  0  0
 28 29  1  0  0  0  0
 29 30  1  0  0  0  0
  1 31  1  0  0  0  0
  1 32  1  0  0  0  0
  1 33  1  0  0  0  0
  4 34  1  0  0  0  0
  5 35  1  0  0  0  0
  7 36  1  0  0  0  0
 11 37  1  0  0  0  0
 13 38  1  0  0  0  0
 14 39  1  0  0  0  0
 18 40  1  0  0  0  0
 19 41  1  0  0  0  0
 21 42  1  0  0  0  0
 23 43  1  0  0  0  0
 23 44  1  0  0  0  0
 23 45  1  0  0  0  0
 25 46  1  0  0  0  0
 26 47  1  0  0  0  0
 27 48  1  0  0  0  0
 30 49  1  0  0  0  0
 30 50  1  0  0  0  0
 30 51  1  0  0  0  0
M  END
> <IC50[nM]>
113

$$$$
CHEMBL3265015
  -OEChem-05192314333D
 Structure written by MMmdl.
 51 54  0     0  0  0  0  0  0999 V2000
   -4.2658   -3.1175   13.5713 C   0  0  0  0  0  0  0  0  0  0  0  0
   -3.8897   -2.4164   14.7436 O   0  0  0  0  0  0  0  0  0  0  0  0
   -2.5439   -2.1718   14.8418 C   0  0  0  0  0  0  0  0  0  0  0  0
   -1.7693   -2.9126   15.7244 C   0  0  0  0  0  0  0  0  0  0  0  0
   -0.4086   -2.6509   15.8610 C   0  0  0  0  0  0  0  0  0  0  0  0
    0.2048   -1.6479   15.1096 C   0  0  0  0  0  0  0  0  0  0  0  0
    1.6017   -1.4006   15.3489 N   0  0  0  0  0  0  0  0  0  0  0  0
    2.5425   -0.4814   14.7772 C   0  0  0  0  0  0  0  0  0  0  0  0
    2.1966    0.3306   13.7372 N   0  0  0  0  0  0  0  0  0  0  0  0
    3.1151    1.2253   13.2359 C   0  0  0  0  0  0  0  0  0  0  0  0
    4.4125    1.2753   13.7158 C   0  0  0  0  0  0  0  0  0  0  0  0
    4.7468    0.4823   14.7726 N   0  0  0  0  0  0  0  0  0  0  0  0
    5.9017    0.3875   15.4968 C   0  0  0  0  0  0  0  0  0  0  0  0
    5.6113   -0.5378   16.5263 C   0  0  0  0  0  0  0  0  0  0  0  0
    4.3968   -1.0589   16.3854 N   0  0  0  0  0  0  0  0  0  0  0  0
    3.8461   -0.4133   15.3411 C   0  0  0  0  0  0  0  0  0  0  0  0
    2.6468    2.1713   12.1254 C   0  0  0  0  0  0  0  0  0  0  0  0
    1.2968    2.6023   12.0851 C   0  0  0  0  0  0  0  0  0  0  0  0
    0.8699    3.4876   11.0892 C   0  0  0  0  0  0  0  0  0  0  0  0
    1.7721    3.9706   10.1365 C   0  0  0  0  0  0  0  0  0  0  0  0
    3.0808    3.5379   10.1569 C   0  0  0  0  0  0  0  0  0  0  0  0
    3.5135    2.6334   11.0944 C   0  0  0  0  0  0  0  0  0  0  0  0
    4.9035    2.1468   10.9601 C   0  0  0  0  0  0  0  0  0  0  0  0
    1.3475    4.9212    9.0657 C   0  0  0  0  0  0  0  0  0  0  0  0
    0.1679    5.0957    8.8335 O   0  0  0  0  0  0  0  0  0  0  0  0
    2.3260    5.5415    8.3940 N   0  0  0  0  0  0  0  0  0  0  0  0
   -0.5697   -0.9333   14.1871 C   0  0  0  0  0  0  0  0  0  0  0  0
   -1.9604   -1.1834   14.0595 C   0  0  0  0  0  0  0  0  0  0  0  0
   -2.7686   -0.4755   13.1689 O   0  0  0  0  0  0  0  0  0  0  0  0
   -2.2961    0.5699   12.3655 C   0  0  0  0  0  0  0  0  0  0  0  0
   -5.3548   -3.2725   13.5696 H   0  0  0  0  0  0  0  0  0  0  0  0
   -3.9775   -2.5321   12.6857 H   0  0  0  0  0  0  0  0  0  0  0  0
   -3.7568   -4.0924   13.5481 H   0  0  0  0  0  0  0  0  0  0  0  0
   -2.2256   -3.6976   16.3093 H   0  0  0  0  0  0  0  0  0  0  0  0
    0.1791   -3.2312   16.5569 H   0  0  0  0  0  0  0  0  0  0  0  0
    1.2802    0.2763   13.3407 H   0  0  0  0  0  0  0  0  0  0  0  0
    5.1437    1.9283   13.2628 H   0  0  0  0  0  0  0  0  0  0  0  0
    6.8328    0.9059   15.3214 H   0  0  0  0  0  0  0  0  0  0  0  0
    6.2913   -0.7894   17.3267 H   0  0  0  0  0  0  0  0  0  0  0  0
    0.5957    2.2462   12.8254 H   0  0  0  0  0  0  0  0  0  0  0  0
   -0.1634    3.7999   11.0562 H   0  0  0  0  0  0  0  0  0  0  0  0
    3.7770    3.9167    9.4233 H   0  0  0  0  0  0  0  0  0  0  0  0
    4.9193    1.2531   10.3190 H   0  0  0  0  0  0  0  0  0  0  0  0
    5.5251    2.9335   10.5076 H   0  0  0  0  0  0  0  0  0  0  0  0
    5.3003    1.8921   11.9539 H   0  0  0  0  0  0  0  0  0  0  0  0
    2.1003    6.1839    7.6616 H   0  0  0  0  0  0  0  0  0  0  0  0
    3.2824    5.3623    8.6248 H   0  0  0  0  0  0  0  0  0  0  0  0
   -0.1030   -0.1833   13.5658 H   0  0  0  0  0  0  0  0  0  0  0  0
   -3.1208    0.9646   11.7540 H   0  0  0  0  0  0  0  0  0  0  0  0
   -1.8972    1.3716   13.0043 H   0  0  0  0  0  0  0  0  0  0  0  0
   -1.4987    0.1946   11.7072 H   0  0  0  0  0  0  0  0  0  0  0  0
  1  2  1  0  0  0  0
  2  3  1  0  0  0  0
  3  4  2  0  0  0  0
  3 28  1  0  0  0  0
  4  5  1  0  0  0  0
  5  6  2  0  0  0  0
  6  7  1  0  0  0  0
  6 27  1  0  0  0  0
  7  8  2  0  0  0  0
  8  9  1  0  0  0  0
  8 16  1  0  0  0  0
  9 10  1  0  0  0  0
 10 11  2  0  0  0  0
 10 17  1  0  0  0  0
 11 12  1  0  0  0  0
 12 13  1  0  0  0  0
 12 16  1  0  0  0  0
 13 14  2  0  0  0  0
 14 15  1  0  0  0  0
 15 16  2  0  0  0  0
 17 18  2  0  0  0  0
 17 22  1  0  0  0  0
 18 19  1  0  0  0  0
 19 20  2  0  0  0  0
 20 21  1  0  0  0  0
 20 24  1  0  0  0  0
 21 22  2  0  0  0  0
 22 23  1  0  0  0  0
 24 25  2  0  0  0  0
 24 26  1  0  0  0  0
 27 28  2  0  0  0  0
 28 29  1  0  0  0  0
 29 30  1  0  0  0  0
  1 31  1  0  0  0  0
  1 32  1  0  0  0  0
  1 33  1  0  0  0  0
  4 34  1  0  0  0  0
  5 35  1  0  0  0  0
  9 36  1  0  0  0  0
 11 37  1  0  0  0  0
 13 38  1  0  0  0  0
 14 39  1  0  0  0  0
 18 40  1  0  0  0  0
 19 41  1  0  0  0  0
 21 42  1  0  0  0  0
 23 43  1  0  0  0  0
 23 44  1  0  0  0  0
 23 45  1  0  0  0  0
 26 46  1  0  0  0  0
 26 47  1  0  0  0  0
 27 48  1  0  0  0  0
 30 49  1  0  0  0  0
 30 50  1  0  0  0  0
 30 51  1  0  0  0  0
M  END
> <IC50[nM]>
113

$$$$
CHEMBL3265015
  -OEChem-05192314333D
 Structure written by MMmdl.
 51 54  0     0  0  0  0  0  0999 V2000
   -4.2658   -3.1175   13.5713 C   0  0  0  0  0  0  0  0  0  0  0  0
   -3.8897   -2.4164   14.7436 O   0  0  0  0  0  0  0  0  0  0  0  0
   -2.5439   -2.1718   14.8418 C   0  0  0  0  0  0  0  0  0  0  0  0
   -1.7693   -2.9126   15.7244 C   0  0  0  0  0  0  0  0  0  0  0  0
   -0.4086   -2.6509   15.8610 C   0  0  0  0  0  0  0  0  0  0  0  0
    0.2048   -1.6479   15.1096 C   0  0  0  0  0  0  0  0  0  0  0  0
    1.6017   -1.4006   15.3489 N   0  0  0  0  0  0  0  0  0  0  0  0
    2.5425   -0.4814   14.7772 C   0  0  0  0  0  0  0  0  0  0  0  0
    2.1966    0.3306   13.7372 N   0  0  0  0  0  0  0  0  0  0  0  0
    3.1151    1.2253   13.2359 C   0  0  0  0  0  0  0  0  0  0  0  0
    4.4125    1.2753   13.7158 C   0  0  0  0  0  0  0  0  0  0  0  0
    4.7468    0.4823   14.7726 N   0  0  0  0  0  0  0  0  0  0  0  0
    5.9017    0.3875   15.4968 C   0  0  0  0  0  0  0  0  0  0  0  0
    5.6113   -0.5378   16.5263 C   0  0  0  0  0  0  0  0  0  0  0  0
    4.3968   -1.0589   16.3854 N   0  0  0  0  0  0  0  0  0  0  0  0
    3.8461   -0.4133   15.3411 C   0  0  0  0  0  0  0  0  0  0  0  0
    2.6468    2.1713   12.1254 C   0  0  0  0  0  0  0  0  0  0  0  0
    1.2968    2.6023   12.0851 C   0  0  0  0  0  0  0  0  0  0  0  0
    0.8699    3.4876   11.0892 C   0  0  0  0  0  0  0  0  0  0  0  0
    1.7721    3.9706   10.1365 C   0  0  0  0  0  0  0  0  0  0  0  0
    3.0808    3.5379   10.1569 C   0  0  0  0  0  0  0  0  0  0  0  0
    3.5135    2.6334   11.0944 C   0  0  0  0  0  0  0  0  0  0  0  0
    4.9035    2.1468   10.9601 C   0  0  0  0  0  0  0  0  0  0  0  0
    1.3475    4.9212    9.0657 C   0  0  0  0  0  0  0  0  0  0  0  0
    0.1679    5.0957    8.8335 O   0  0  0  0  0  0  0  0  0  0  0  0
    2.3260    5.5415    8.3940 N   0  0  0  0  0  0  0  0  0  0  0  0
   -0.5697   -0.9333   14.1871 C   0  0  0  0  0  0  0  0  0  0  0  0
   -1.9604   -1.1834   14.0595 C   0  0  0  0  0  0  0  0  0  0  0  0
   -2.7686   -0.4755   13.1689 O   0  0  0  0  0  0  0  0  0  0  0  0
   -2.2961    0.5699   12.3655 C   0  0  0  0  0  0  0  0  0  0  0  0
   -5.3548   -3.2725   13.5696 H   0  0  0  0  0  0  0  0  0  0  0  0
   -3.9775   -2.5321   12.6857 H   0  0  0  0  0  0  0  0  0  0  0  0
   -3.7568   -4.0924   13.5481 H   0  0  0  0  0  0  0  0  0  0  0  0
   -2.2256   -3.6976   16.3093 H   0  0  0  0  0  0  0  0  0  0  0  0
    0.1791   -3.2312   16.5569 H   0  0  0  0  0  0  0  0  0  0  0  0
    1.2802    0.2763   13.3407 H   0  0  0  0  0  0  0  0  0  0  0  0
    5.1437    1.9283   13.2628 H   0  0  0  0  0  0  0  0  0  0  0  0
    6.8328    0.9059   15.3214 H   0  0  0  0  0  0  0  0  0  0  0  0
    6.2913   -0.7894   17.3267 H   0  0  0  0  0  0  0  0  0  0  0  0
    0.5957    2.2462   12.8254 H   0  0  0  0  0  0  0  0  0  0  0  0
   -0.1634    3.7999   11.0562 H   0  0  0  0  0  0  0  0  0  0  0  0
    3.7770    3.9167    9.4233 H   0  0  0  0  0  0  0  0  0  0  0  0
    4.9193    1.2531   10.3190 H   0  0  0  0  0  0  0  0  0  0  0  0
    5.5251    2.9335   10.5076 H   0  0  0  0  0  0  0  0  0  0  0  0
    5.3003    1.8921   11.9539 H   0  0  0  0  0  0  0  0  0  0  0  0
    0.0732    5.7262    8.1293 H   0  0  0  0  0  0  0  0  0  0  0  0
    1.9670    6.1548    7.6905 H   0  0  0  0  0  0  0  0  0  0  0  0
   -0.1030   -0.1833   13.5658 H   0  0  0  0  0  0  0  0  0  0  0  0
   -3.1208    0.9646   11.7540 H   0  0  0  0  0  0  0  0  0  0  0  0
   -1.8972    1.3716   13.0043 H   0  0  0  0  0  0  0  0  0  0  0  0
   -1.4987    0.1946   11.7072 H   0  0  0  0  0  0  0  0  0  0  0  0
  1  2  1  0  0  0  0
  2  3  1  0  0  0  0
  3  4  2  0  0  0  0
  3 28  1  0  0  0  0
  4  5  1  0  0  0  0
  5  6  2  0  0  0  0
  6  7  1  0  0  0  0
  6 27  1  0  0  0  0
  7  8  2  0  0  0  0
  8  9  1  0  0  0  0
  8 16  1  0  0  0  0
  9 10  1  0  0  0  0
 10 11  2  0  0  0  0
 10 17  1  0  0  0  0
 11 12  1  0  0  0  0
 12 13  1  0  0  0  0
 12 16  1  0  0  0  0
 13 14  2  0  0  0  0
 14 15  1  0  0  0  0
 15 16  2  0  0  0  0
 17 18  2  0  0  0  0
 17 22  1  0  0  0  0
 18 19  1  0  0  0  0
 19 20  2  0  0  0  0
 20 21  1  0  0  0  0
 20 24  1  0  0  0  0
 21 22  2  0  0  0  0
 22 23  1  0  0  0  0
 24 25  1  0  0  0  0
 24 26  2  0  0  0  0
 27 28  2  0  0  0  0
 28 29  1  0  0  0  0
 29 30  1  0  0  0  0
  1 31  1  0  0  0  0
  1 32  1  0  0  0  0
  1 33  1  0  0  0  0
  4 34  1  0  0  0  0
  5 35  1  0  0  0  0
  9 36  1  0  0  0  0
 11 37  1  0  0  0  0
 13 38  1  0  0  0  0
 14 39  1  0  0  0  0
 18 40  1  0  0  0  0
 19 41  1  0  0  0  0
 21 42  1  0  0  0  0
 23 43  1  0  0  0  0
 23 44  1  0  0  0  0
 23 45  1  0  0  0  0
 25 46  1  0  0  0  0
 26 47  1  0  0  0  0
 27 48  1  0  0  0  0
 30 49  1  0  0  0  0
 30 50  1  0  0  0  0
 30 51  1  0  0  0  0
M  END
> <IC50[nM]>
113

$$$$
CHEMBL3265015
  -OEChem-05192314333D
 Structure written by MMmdl.
 51 54  0     0  0  0  0  0  0999 V2000
   -4.2658   -3.1175   13.5713 C   0  0  0  0  0  0  0  0  0  0  0  0
   -3.8897   -2.4164   14.7436 O   0  0  0  0  0  0  0  0  0  0  0  0
   -2.5439   -2.1718   14.8418 C   0  0  0  0  0  0  0  0  0  0  0  0
   -1.7693   -2.9126   15.7244 C   0  0  0  0  0  0  0  0  0  0  0  0
   -0.4086   -2.6509   15.8610 C   0  0  0  0  0  0  0  0  0  0  0  0
    0.2048   -1.6479   15.1096 C   0  0  0  0  0  0  0  0  0  0  0  0
    1.6017   -1.4006   15.3489 N   0  0  0  0  0  0  0  0  0  0  0  0
    2.5425   -0.4814   14.7772 C   0  0  0  0  0  0  0  0  0  0  0  0
    2.1966    0.3306   13.7372 N   0  0  0  0  0  0  0  0  0  0  0  0
    3.1151    1.2253   13.2359 C   0  0  0  0  0  0  0  0  0  0  0  0
    4.4125    1.2753   13.7158 C   0  0  0  0  0  0  0  0  0  0  0  0
    4.7468    0.4823   14.7726 N   0  0  0  0  0  0  0  0  0  0  0  0
    5.9017    0.3875   15.4968 C   0  0  0  0  0  0  0  0  0  0  0  0
    5.6113   -0.5378   16.5263 C   0  0  0  0  0  0  0  0  0  0  0  0
    4.3968   -1.0589   16.3854 N   0  0  0  0  0  0  0  0  0  0  0  0
    3.8461   -0.4133   15.3411 C   0  0  0  0  0  0  0  0  0  0  0  0
    2.6468    2.1713   12.1254 C   0  0  0  0  0  0  0  0  0  0  0  0
    1.2968    2.6023   12.0851 C   0  0  0  0  0  0  0  0  0  0  0  0
    0.8699    3.4876   11.0892 C   0  0  0  0  0  0  0  0  0  0  0  0
    1.7721    3.9706   10.1365 C   0  0  0  0  0  0  0  0  0  0  0  0
    3.0808    3.5379   10.1569 C   0  0  0  0  0  0  0  0  0  0  0  0
    3.5135    2.6334   11.0944 C   0  0  0  0  0  0  0  0  0  0  0  0
    4.9035    2.1468   10.9601 C   0  0  0  0  0  0  0  0  0  0  0  0
    1.3475    4.9212    9.0657 C   0  0  0  0  0  0  0  0  0  0  0  0
    0.1679    5.0957    8.8335 O   0  0  0  0  0  0  0  0  0  0  0  0
    2.3260    5.5415    8.3940 N   0  0  0  0  0  0  0  0  0  0  0  0
   -0.5697   -0.9333   14.1871 C   0  0  0  0  0  0  0  0  0  0  0  0
   -1.9604   -1.1834   14.0595 C   0  0  0  0  0  0  0  0  0  0  0  0
   -2.7686   -0.4755   13.1689 O   0  0  0  0  0  0  0  0  0  0  0  0
   -2.2961    0.5699   12.3655 C   0  0  0  0  0  0  0  0  0  0  0  0
   -5.3548   -3.2725   13.5696 H   0  0  0  0  0  0  0  0  0  0  0  0
   -3.9775   -2.5321   12.6857 H   0  0  0  0  0  0  0  0  0  0  0  0
   -3.7568   -4.0924   13.5481 H   0  0  0  0  0  0  0  0  0  0  0  0
   -2.2256   -3.6976   16.3093 H   0  0  0  0  0  0  0  0  0  0  0  0
    0.1791   -3.2312   16.5569 H   0  0  0  0  0  0  0  0  0  0  0  0
    5.0774    1.0032   12.8828 H   0  0  0  0  0  0  0  0  0  0  0  0
    4.6076    2.3154   14.0160 H   0  0  0  0  0  0  0  0  0  0  0  0
    6.8328    0.9059   15.3214 H   0  0  0  0  0  0  0  0  0  0  0  0
    6.2913   -0.7894   17.3267 H   0  0  0  0  0  0  0  0  0  0  0  0
    0.5957    2.2462   12.8254 H   0  0  0  0  0  0  0  0  0  0  0  0
   -0.1634    3.7999   11.0562 H   0  0  0  0  0  0  0  0  0  0  0  0
    3.7770    3.9167    9.4233 H   0  0  0  0  0  0  0  0  0  0  0  0
    4.9193    1.2531   10.3190 H   0  0  0  0  0  0  0  0  0  0  0  0
    5.5251    2.9335   10.5076 H   0  0  0  0  0  0  0  0  0  0  0  0
    5.3003    1.8921   11.9539 H   0  0  0  0  0  0  0  0  0  0  0  0
    2.1003    6.1839    7.6616 H   0  0  0  0  0  0  0  0  0  0  0  0
    3.2824    5.3623    8.6248 H   0  0  0  0  0  0  0  0  0  0  0  0
   -0.1030   -0.1833   13.5658 H   0  0  0  0  0  0  0  0  0  0  0  0
   -3.1208    0.9646   11.7540 H   0  0  0  0  0  0  0  0  0  0  0  0
   -1.8972    1.3716   13.0043 H   0  0  0  0  0  0  0  0  0  0  0  0
   -1.4987    0.1946   11.7072 H   0  0  0  0  0  0  0  0  0  0  0  0
  1  2  1  0  0  0  0
  2  3  1  0  0  0  0
  3  4  2  0  0  0  0
  3 28  1  0  0  0  0
  4  5  1  0  0  0  0
  5  6  2  0  0  0  0
  6  7  1  0  0  0  0
  6 27  1  0  0  0  0
  7  8  2  0  0  0  0
  8  9  1  0  0  0  0
  8 16  1  0  0  0  0
  9 10  2  0  0  0  0
 10 11  1  0  0  0  0
 10 17  1  0  0  0  0
 11 12  1  0  0  0  0
 12 13  1  0  0  0  0
 12 16  1  0  0  0  0
 13 14  2  0  0  0  0
 14 15  1  0  0  0  0
 15 16  2  0  0  0  0
 17 18  2  0  0  0  0
 17 22  1  0  0  0  0
 18 19  1  0  0  0  0
 19 20  2  0  0  0  0
 20 21  1  0  0  0  0
 20 24  1  0  0  0  0
 21 22  2  0  0  0  0
 22 23  1  0  0  0  0
 24 25  2  0  0  0  0
 24 26  1  0  0  0  0
 27 28  2  0  0  0  0
 28 29  1  0  0  0  0
 29 30  1  0  0  0  0
  1 31  1  0  0  0  0
  1 32  1  0  0  0  0
  1 33  1  0  0  0  0
  4 34  1  0  0  0  0
  5 35  1  0  0  0  0
 11 36  1  0  0  0  0
 11 37  1  0  0  0  0
 13 38  1  0  0  0  0
 14 39  1  0  0  0  0
 18 40  1  0  0  0  0
 19 41  1  0  0  0  0
 21 42  1  0  0  0  0
 23 43  1  0  0  0  0
 23 44  1  0  0  0  0
 23 45  1  0  0  0  0
 26 46  1  0  0  0  0
 26 47  1  0  0  0  0
 27 48  1  0  0  0  0
 30 49  1  0  0  0  0
 30 50  1  0  0  0  0
 30 51  1  0  0  0  0
M  END
> <IC50[nM]>
113

$$$$
CHEMBL3265015
  -OEChem-05192314333D
 Structure written by MMmdl.
 51 54  0     0  0  0  0  0  0999 V2000
   -4.2658   -3.1175   13.5713 C   0  0  0  0  0  0  0  0  0  0  0  0
   -3.8897   -2.4164   14.7436 O   0  0  0  0  0  0  0  0  0  0  0  0
   -2.5439   -2.1718   14.8418 C   0  0  0  0  0  0  0  0  0  0  0  0
   -1.7693   -2.9126   15.7244 C   0  0  0  0  0  0  0  0  0  0  0  0
   -0.4086   -2.6509   15.8610 C   0  0  0  0  0  0  0  0  0  0  0  0
    0.2048   -1.6479   15.1096 C   0  0  0  0  0  0  0  0  0  0  0  0
    1.6017   -1.4006   15.3489 N   0  0  0  0  0  0  0  0  0  0  0  0
    2.5425   -0.4814   14.7772 C   0  0  0  0  0  0  0  0  0  0  0  0
    2.1966    0.3306   13.7372 N   0  0  0  0  0  0  0  0  0  0  0  0
    3.1151    1.2253   13.2359 C   0  0  0  0  0  0  0  0  0  0  0  0
    4.4125    1.2753   13.7158 C   0  0  0  0  0  0  0  0  0  0  0  0
    4.7468    0.4823   14.7726 N   0  0  0  0  0  0  0  0  0  0  0  0
    5.9017    0.3875   15.4968 C   0  0  0  0  0  0  0  0  0  0  0  0
    5.6113   -0.5378   16.5263 C   0  0  0  0  0  0  0  0  0  0  0  0
    4.3968   -1.0589   16.3854 N   0  0  0  0  0  0  0  0  0  0  0  0
    3.8461   -0.4133   15.3411 C   0  0  0  0  0  0  0  0  0  0  0  0
    2.6468    2.1713   12.1254 C   0  0  0  0  0  0  0  0  0  0  0  0
    1.2968    2.6023   12.0851 C   0  0  0  0  0  0  0  0  0  0  0  0
    0.8699    3.4876   11.0892 C   0  0  0  0  0  0  0  0  0  0  0  0
    1.7721    3.9706   10.1365 C   0  0  0  0  0  0  0  0  0  0  0  0
    3.0808    3.5379   10.1569 C   0  0  0  0  0  0  0  0  0  0  0  0
    3.5135    2.6334   11.0944 C   0  0  0  0  0  0  0  0  0  0  0  0
    4.9035    2.1468   10.9601 C   0  0  0  0  0  0  0  0  0  0  0  0
    1.3475    4.9212    9.0657 C   0  0  0  0  0  0  0  0  0  0  0  0
    0.1679    5.0957    8.8335 O   0  0  0  0  0  0  0  0  0  0  0  0
    2.3260    5.5415    8.3940 N   0  0  0  0  0  0  0  0  0  0  0  0
   -0.5697   -0.9333   14.1871 C   0  0  0  0  0  0  0  0  0  0  0  0
   -1.9604   -1.1834   14.0595 C   0  0  0  0  0  0  0  0  0  0  0  0
   -2.7686   -0.4755   13.1689 O   0  0  0  0  0  0  0  0  0  0  0  0
   -2.2961    0.5699   12.3655 C   0  0  0  0  0  0  0  0  0  0  0  0
   -5.3548   -3.2725   13.5696 H   0  0  0  0  0  0  0  0  0  0  0  0
   -3.9775   -2.5321   12.6857 H   0  0  0  0  0  0  0  0  0  0  0  0
   -3.7568   -4.0924   13.5481 H   0  0  0  0  0  0  0  0  0  0  0  0
   -2.2256   -3.6976   16.3093 H   0  0  0  0  0  0  0  0  0  0  0  0
    0.1791   -3.2312   16.5569 H   0  0  0  0  0  0  0  0  0  0  0  0
    5.0774    1.0032   12.8828 H   0  0  0  0  0  0  0  0  0  0  0  0
    4.6076    2.3154   14.0160 H   0  0  0  0  0  0  0  0  0  0  0  0
    6.8328    0.9059   15.3214 H   0  0  0  0  0  0  0  0  0  0  0  0
    6.2913   -0.7894   17.3267 H   0  0  0  0  0  0  0  0  0  0  0  0
    0.5957    2.2462   12.8254 H   0  0  0  0  0  0  0  0  0  0  0  0
   -0.1634    3.7999   11.0562 H   0  0  0  0  0  0  0  0  0  0  0  0
    3.7770    3.9167    9.4233 H   0  0  0  0  0  0  0  0  0  0  0  0
    4.9193    1.2531   10.3190 H   0  0  0  0  0  0  0  0  0  0  0  0
    5.5251    2.9335   10.5076 H   0  0  0  0  0  0  0  0  0  0  0  0
    5.3003    1.8921   11.9539 H   0  0  0  0  0  0  0  0  0  0  0  0
    0.0732    5.7262    8.1293 H   0  0  0  0  0  0  0  0  0  0  0  0
    1.9670    6.1548    7.6905 H   0  0  0  0  0  0  0  0  0  0  0  0
   -0.1030   -0.1833   13.5658 H   0  0  0  0  0  0  0  0  0  0  0  0
   -3.1208    0.9646   11.7540 H   0  0  0  0  0  0  0  0  0  0  0  0
   -1.8972    1.3716   13.0043 H   0  0  0  0  0  0  0  0  0  0  0  0
   -1.4987    0.1946   11.7072 H   0  0  0  0  0  0  0  0  0  0  0  0
  1  2  1  0  0  0  0
  2  3  1  0  0  0  0
  3  4  2  0  0  0  0
  3 28  1  0  0  0  0
  4  5  1  0  0  0  0
  5  6  2  0  0  0  0
  6  7  1  0  0  0  0
  6 27  1  0  0  0  0
  7  8  2  0  0  0  0
  8  9  1  0  0  0  0
  8 16  1  0  0  0  0
  9 10  2  0  0  0  0
 10 11  1  0  0  0  0
 10 17  1  0  0  0  0
 11 12  1  0  0  0  0
 12 13  1  0  0  0  0
 12 16  1  0  0  0  0
 13 14  2  0  0  0  0
 14 15  1  0  0  0  0
 15 16  2  0  0  0  0
 17 18  2  0  0  0  0
 17 22  1  0  0  0  0
 18 19  1  0  0  0  0
 19 20  2  0  0  0  0
 20 21  1  0  0  0  0
 20 24  1  0  0  0  0
 21 22  2  0  0  0  0
 22 23  1  0  0  0  0
 24 25  1  0  0  0  0
 24 26  2  0  0  0  0
 27 28  2  0  0  0  0
 28 29  1  0  0  0  0
 29 30  1  0  0  0  0
  1 31  1  0  0  0  0
  1 32  1  0  0  0  0
  1 33  1  0  0  0  0
  4 34  1  0  0  0  0
  5 35  1  0  0  0  0
 11 36  1  0  0  0  0
 11 37  1  0  0  0  0
 13 38  1  0  0  0  0
 14 39  1  0  0  0  0
 18 40  1  0  0  0  0
 19 41  1  0  0  0  0
 21 42  1  0  0  0  0
 23 43  1  0  0  0  0
 23 44  1  0  0  0  0
 23 45  1  0  0  0  0
 25 46  1  0  0  0  0
 26 47  1  0  0  0  0
 27 48  1  0  0  0  0
 30 49  1  0  0  0  0
 30 50  1  0  0  0  0
 30 51  1  0  0  0  0
M  END
> <IC50[nM]>
113

$$$$
CHEMBL3265015
  -OEChem-05192314333D
 Structure written by MMmdl.
 51 54  0     1  0  0  0  0  0999 V2000
   -4.2658   -3.1175   13.5713 C   0  0  0  0  0  0  0  0  0  0  0  0
   -3.8897   -2.4164   14.7436 O   0  0  0  0  0  0  0  0  0  0  0  0
   -2.5439   -2.1718   14.8418 C   0  0  3  0  0  0  0  0  0  0  0  0
   -1.7693   -2.9126   15.7244 C   0  0  0  0  0  0  0  0  0  0  0  0
   -0.4086   -2.6509   15.8610 C   0  0  0  0  0  0  0  0  0  0  0  0
    0.2048   -1.6479   15.1096 C   0  0  0  0  0  0  0  0  0  0  0  0
    1.6017   -1.4006   15.3489 N   0  0  0  0  0  0  0  0  0  0  0  0
    2.5425   -0.4814   14.7772 C   0  0  0  0  0  0  0  0  0  0  0  0
    2.1966    0.3306   13.7372 N   0  0  0  0  0  0  0  0  0  0  0  0
    3.1151    1.2253   13.2359 C   0  0  0  0  0  0  0  0  0  0  0  0
    4.4125    1.2753   13.7158 C   0  0  0  0  0  0  0  0  0  0  0  0
    4.7468    0.4823   14.7726 N   0  0  0  0  0  0  0  0  0  0  0  0
    5.9017    0.3875   15.4968 C   0  0  0  0  0  0  0  0  0  0  0  0
    5.6113   -0.5378   16.5263 C   0  0  0  0  0  0  0  0  0  0  0  0
    4.3968   -1.0589   16.3854 N   0  0  0  0  0  0  0  0  0  0  0  0
    3.8461   -0.4133   15.3411 C   0  0  0  0  0  0  0  0  0  0  0  0
    2.6468    2.1713   12.1254 C   0  0  0  0  0  0  0  0  0  0  0  0
    1.2968    2.6023   12.0851 C   0  0  0  0  0  0  0  0  0  0  0  0
    0.8699    3.4876   11.0892 C   0  0  0  0  0  0  0  0  0  0  0  0
    1.7721    3.9706   10.1365 C   0  0  0  0  0  0  0  0  0  0  0  0
    3.0808    3.5379   10.1569 C   0  0  0  0  0  0  0  0  0  0  0  0
    3.5135    2.6334   11.0944 C   0  0  0  0  0  0  0  0  0  0  0  0
    4.9035    2.1468   10.9601 C   0  0  0  0  0  0  0  0  0  0  0  0
    1.3475    4.9212    9.0657 C   0  0  0  0  0  0  0  0  0  0  0  0
    0.1679    5.0957    8.8335 O   0  0  0  0  0  0  0  0  0  0  0  0
    2.3260    5.5415    8.3940 N   0  0  0  0  0  0  0  0  0  0  0  0
   -0.5697   -0.9333   14.1871 C   0  0  0  0  0  0  0  0  0  0  0  0
   -1.9604   -1.1834   14.0595 C   0  0  0  0  0  0  0  0  0  0  0  0
   -2.7686   -0.4755   13.1689 O   0  0  0  0  0  0  0  0  0  0  0  0
   -2.2961    0.5699   12.3655 C   0  0  0  0  0  0  0  0  0  0  0  0
   -5.3548   -3.2725   13.5696 H   0  0  0  0  0  0  0  0  0  0  0  0
   -3.9775   -2.5321   12.6857 H   0  0  0  0  0  0  0  0  0  0  0  0
   -3.7568   -4.0924   13.5481 H   0  0  0  0  0  0  0  0  0  0  0  0
   -2.3513   -2.9118   14.0511 H   0  0  0  0  0  0  0  0  0  0  0  0
   -2.2256   -3.6976   16.3093 H   0  0  0  0  0  0  0  0  0  0  0  0
    0.1791   -3.2312   16.5569 H   0  0  0  0  0  0  0  0  0  0  0  0
    5.1437    1.9283   13.2628 H   0  0  0  0  0  0  0  0  0  0  0  0
    6.8328    0.9059   15.3214 H   0  0  0  0  0  0  0  0  0  0  0  0
    6.2913   -0.7894   17.3267 H   0  0  0  0  0  0  0  0  0  0  0  0
    0.5957    2.2462   12.8254 H   0  0  0  0  0  0  0  0  0  0  0  0
   -0.1634    3.7999   11.0562 H   0  0  0  0  0  0  0  0  0  0  0  0
    3.7770    3.9167    9.4233 H   0  0  0  0  0  0  0  0  0  0  0  0
    4.9193    1.2531   10.3190 H   0  0  0  0  0  0  0  0  0  0  0  0
    5.5251    2.9335   10.5076 H   0  0  0  0  0  0  0  0  0  0  0  0
    5.3003    1.8921   11.9539 H   0  0  0  0  0  0  0  0  0  0  0  0
    2.1003    6.1839    7.6616 H   0  0  0  0  0  0  0  0  0  0  0  0
    3.2824    5.3623    8.6248 H   0  0  0  0  0  0  0  0  0  0  0  0
   -0.1030   -0.1833   13.5658 H   0  0  0  0  0  0  0  0  0  0  0  0
   -3.1208    0.9646   11.7540 H   0  0  0  0  0  0  0  0  0  0  0  0
   -1.8972    1.3716   13.0043 H   0  0  0  0  0  0  0  0  0  0  0  0
   -1.4987    0.1946   11.7072 H   0  0  0  0  0  0  0  0  0  0  0  0
  1  2  1  0  0  0  0
  2  3  1  0  0  0  0
  3  4  1  0  0  0  0
  3 28  1  0  0  0  0
  4  5  2  0  0  0  0
  5  6  1  0  0  0  0
  6  7  2  0  0  0  0
  6 27  1  0  0  0  0
  7  8  1  0  0  0  0
  8  9  2  0  0  0  0
  8 16  1  0  0  0  0
  9 10  1  0  0  0  0
 10 11  2  0  0  0  0
 10 17  1  0  0  0  0
 11 12  1  0  0  0  0
 12 13  1  0  0  0  0
 12 16  1  0  0  0  0
 13 14  2  0  0  0  0
 14 15  1  0  0  0  0
 15 16  2  0  0  0  0
 17 18  2  0  0  0  0
 17 22  1  0  0  0  0
 18 19  1  0  0  0  0
 19 20  2  0  0  0  0
 20 21  1  0  0  0  0
 20 24  1  0  0  0  0
 21 22  2  0  0  0  0
 22 23  1  0  0  0  0
 24 25  2  0  0  0  0
 24 26  1  0  0  0  0
 27 28  2  0  0  0  0
 28 29  1  0  0  0  0
 29 30  1  0  0  0  0
  1 31  1  0  0  0  0
  1 32  1  0  0  0  0
  1 33  1  0  0  0  0
  3 34  1  0  0  0  0
  4 35  1  0  0  0  0
  5 36  1  0  0  0  0
 11 37  1  0  0  0  0
 13 38  1  0  0  0  0
 14 39  1  0  0  0  0
 18 40  1  0  0  0  0
 19 41  1  0  0  0  0
 21 42  1  0  0  0  0
 23 43  1  0  0  0  0
 23 44  1  0  0  0  0
 23 45  1  0  0  0  0
 26 46  1  0  0  0  0
 26 47  1  0  0  0  0
 27 48  1  0  0  0  0
 30 49  1  0  0  0  0
 30 50  1  0  0  0  0
 30 51  1  0  0  0  0
M  END
> <IC50[nM]>
113

$$$$
CHEMBL3265015
  -OEChem-05192314333D
 Structure written by MMmdl.
 51 54  0     0  0  0  0  0  0999 V2000
   -4.2658   -3.1175   13.5713 C   0  0  0  0  0  0  0  0  0  0  0  0
   -3.8897   -2.4164   14.7436 O   0  0  0  0  0  0  0  0  0  0  0  0
   -2.5439   -2.1718   14.8418 C   0  0  0  0  0  0  0  0  0  0  0  0
   -1.7693   -2.9126   15.7244 C   0  0  0  0  0  0  0  0  0  0  0  0
   -0.4086   -2.6509   15.8610 C   0  0  0  0  0  0  0  0  0  0  0  0
    0.2048   -1.6479   15.1096 C   0  0  0  0  0  0  0  0  0  0  0  0
    1.6017   -1.4006   15.3489 N   0  0  0  0  0  0  0  0  0  0  0  0
    2.5425   -0.4814   14.7772 C   0  0  0  0  0  0  0  0  0  0  0  0
    2.1966    0.3306   13.7372 N   0  0  0  0  0  0  0  0  0  0  0  0
    3.1151    1.2253   13.2359 C   0  0  0  0  0  0  0  0  0  0  0  0
    4.4125    1.2753   13.7158 C   0  0  0  0  0  0  0  0  0  0  0  0
    4.7468    0.4823   14.7726 N   0  0  0  0  0  0  0  0  0  0  0  0
    5.9017    0.3875   15.4968 C   0  0  0  0  0  0  0  0  0  0  0  0
    5.6113   -0.5378   16.5263 C   0  0  0  0  0  0  0  0  0  0  0  0
    4.3968   -1.0589   16.3854 N   0  0  0  0  0  0  0  0  0  0  0  0
    3.8461   -0.4133   15.3411 C   0  0  0  0  0  0  0  0  0  0  0  0
    2.6468    2.1713   12.1254 C   0  0  0  0  0  0  0  0  0  0  0  0
    1.2968    2.6023   12.0851 C   0  0  0  0  0  0  0  0  0  0  0  0
    0.8699    3.4876   11.0892 C   0  0  0  0  0  0  0  0  0  0  0  0
    1.7721    3.9706   10.1365 C   0  0  0  0  0  0  0  0  0  0  0  0
    3.0808    3.5379   10.1569 C   0  0  0  0  0  0  0  0  0  0  0  0
    3.5135    2.6334   11.0944 C   0  0  0  0  0  0  0  0  0  0  0  0
    4.9035    2.1468   10.9601 C   0  0  0  0  0  0  0  0  0  0  0  0
    1.3475    4.9212    9.0657 C   0  0  0  0  0  0  0  0  0  0  0  0
    0.1679    5.0957    8.8335 O   0  0  0  0  0  0  0  0  0  0  0  0
    2.3260    5.5415    8.3940 N   0  0  0  0  0  0  0  0  0  0  0  0
   -0.5697   -0.9333   14.1871 C   0  0  0  0  0  0  0  0  0  0  0  0
   -1.9604   -1.1834   14.0595 C   0  0  0  0  0  0  0  0  0  0  0  0
   -2.7686   -0.4755   13.1689 O   0  0  0  0  0  0  0  0  0  0  0  0
   -2.2961    0.5699   12.3655 C   0  0  0  0  0  0  0  0  0  0  0  0
   -5.3548   -3.2725   13.5696 H   0  0  0  0  0  0  0  0  0  0  0  0
   -3.9775   -2.5321   12.6857 H   0  0  0  0  0  0  0  0  0  0  0  0
   -3.7568   -4.0924   13.5481 H   0  0  0  0  0  0  0  0  0  0  0  0
   -2.2256   -3.6976   16.3093 H   0  0  0  0  0  0  0  0  0  0  0  0
   -0.2426   -2.3968   16.9183 H   0  0  0  0  0  0  0  0  0  0  0  0
    0.1165   -3.5875   15.6221 H   0  0  0  0  0  0  0  0  0  0  0  0
    5.1437    1.9283   13.2628 H   0  0  0  0  0  0  0  0  0  0  0  0
    6.8328    0.9059   15.3214 H   0  0  0  0  0  0  0  0  0  0  0  0
    6.2913   -0.7894   17.3267 H   0  0  0  0  0  0  0  0  0  0  0  0
    0.5957    2.2462   12.8254 H   0  0  0  0  0  0  0  0  0  0  0  0
   -0.1634    3.7999   11.0562 H   0  0  0  0  0  0  0  0  0  0  0  0
    3.7770    3.9167    9.4233 H   0  0  0  0  0  0  0  0  0  0  0  0
    4.9193    1.2531   10.3190 H   0  0  0  0  0  0  0  0  0  0  0  0
    5.5251    2.9335   10.5076 H   0  0  0  0  0  0  0  0  0  0  0  0
    5.3003    1.8921   11.9539 H   0  0  0  0  0  0  0  0  0  0  0  0
    2.1003    6.1839    7.6616 H   0  0  0  0  0  0  0  0  0  0  0  0
    3.2824    5.3623    8.6248 H   0  0  0  0  0  0  0  0  0  0  0  0
   -0.1030   -0.1833   13.5658 H   0  0  0  0  0  0  0  0  0  0  0  0
   -3.1208    0.9646   11.7540 H   0  0  0  0  0  0  0  0  0  0  0  0
   -1.8972    1.3716   13.0043 H   0  0  0  0  0  0  0  0  0  0  0  0
   -1.4987    0.1946   11.7072 H   0  0  0  0  0  0  0  0  0  0  0  0
  1  2  1  0  0  0  0
  2  3  1  0  0  0  0
  3  4  2  0  0  0  0
  3 28  1  0  0  0  0
  4  5  1  0  0  0  0
  5  6  1  0  0  0  0
  6  7  2  0  0  0  0
  6 27  1  0  0  0  0
  7  8  1  0  0  0  0
  8  9  2  0  0  0  0
  8 16  1  0  0  0  0
  9 10  1  0  0  0  0
 10 11  2  0  0  0  0
 10 17  1  0  0  0  0
 11 12  1  0  0  0  0
 12 13  1  0  0  0  0
 12 16  1  0  0  0  0
 13 14  2  0  0  0  0
 14 15  1  0  0  0  0
 15 16  2  0  0  0  0
 17 18  2  0  0  0  0
 17 22  1  0  0  0  0
 18 19  1  0  0  0  0
 19 20  2  0  0  0  0
 20 21  1  0  0  0  0
 20 24  1  0  0  0  0
 21 22  2  0  0  0  0
 22 23  1  0  0  0  0
 24 25  2  0  0  0  0
 24 26  1  0  0  0  0
 27 28  2  0  0  0  0
 28 29  1  0  0  0  0
 29 30  1  0  0  0  0
  1 31  1  0  0  0  0
  1 32  1  0  0  0  0
  1 33  1  0  0  0  0
  4 34  1  0  0  0  0
  5 35  1  0  0  0  0
  5 36  1  0  0  0  0
 11 37  1  0  0  0  0
 13 38  1  0  0  0  0
 14 39  1  0  0  0  0
 18 40  1  0  0  0  0
 19 41  1  0  0  0  0
 21 42  1  0  0  0  0
 23 43  1  0  0  0  0
 23 44  1  0  0  0  0
 23 45  1  0  0  0  0
 26 46  1  0  0  0  0
 26 47  1  0  0  0  0
 27 48  1  0  0  0  0
 30 49  1  0  0  0  0
 30 50  1  0  0  0  0
 30 51  1  0  0  0  0
M  END
> <IC50[nM]>
113

$$$$
CHEMBL3265015
  -OEChem-05192314333D
 Structure written by MMmdl.
 51 54  0     0  0  0  0  0  0999 V2000
   -4.2658   -3.1175   13.5713 C   0  0  0  0  0  0  0  0  0  0  0  0
   -3.8897   -2.4164   14.7436 O   0  0  0  0  0  0  0  0  0  0  0  0
   -2.5439   -2.1718   14.8418 C   0  0  0  0  0  0  0  0  0  0  0  0
   -1.7693   -2.9126   15.7244 C   0  0  0  0  0  0  0  0  0  0  0  0
   -0.4086   -2.6509   15.8610 C   0  0  0  0  0  0  0  0  0  0  0  0
    0.2048   -1.6479   15.1096 C   0  0  0  0  0  0  0  0  0  0  0  0
    1.6017   -1.4006   15.3489 N   0  0  0  0  0  0  0  0  0  0  0  0
    2.5425   -0.4814   14.7772 C   0  0  0  0  0  0  0  0  0  0  0  0
    2.1966    0.3306   13.7372 N   0  0  0  0  0  0  0  0  0  0  0  0
    3.1151    1.2253   13.2359 C   0  0  0  0  0  0  0  0  0  0  0  0
    4.4125    1.2753   13.7158 C   0  0  0  0  0  0  0  0  0  0  0  0
    4.7468    0.4823   14.7726 N   0  0  0  0  0  0  0  0  0  0  0  0
    5.9017    0.3875   15.4968 C   0  0  0  0  0  0  0  0  0  0  0  0
    5.6113   -0.5378   16.5263 C   0  0  0  0  0  0  0  0  0  0  0  0
    4.3968   -1.0589   16.3854 N   0  0  0  0  0  0  0  0  0  0  0  0
    3.8461   -0.4133   15.3411 C   0  0  0  0  0  0  0  0  0  0  0  0
    2.6468    2.1713   12.1254 C   0  0  0  0  0  0  0  0  0  0  0  0
    1.2968    2.6023   12.0851 C   0  0  0  0  0  0  0  0  0  0  0  0
    0.8699    3.4876   11.0892 C   0  0  0  0  0  0  0  0  0  0  0  0
    1.7721    3.9706   10.1365 C   0  0  0  0  0  0  0  0  0  0  0  0
    3.0808    3.5379   10.1569 C   0  0  0  0  0  0  0  0  0  0  0  0
    3.5135    2.6334   11.0944 C   0  0  0  0  0  0  0  0  0  0  0  0
    4.9035    2.1468   10.9601 C   0  0  0  0  0  0  0  0  0  0  0  0
    1.3475    4.9212    9.0657 C   0  0  0  0  0  0  0  0  0  0  0  0
    0.1679    5.0957    8.8335 O   0  0  0  0  0  0  0  0  0  0  0  0
    2.3260    5.5415    8.3940 N   0  0  0  0  0  0  0  0  0  0  0  0
   -0.5697   -0.9333   14.1871 C   0  0  0  0  0  0  0  0  0  0  0  0
   -1.9604   -1.1834   14.0595 C   0  0  0  0  0  0  0  0  0  0  0  0
   -2.7686   -0.4755   13.1689 O   0  0  0  0  0  0  0  0  0  0  0  0
   -2.2961    0.5699   12.3655 C   0  0  0  0  0  0  0  0  0  0  0  0
   -5.3548   -3.2725   13.5696 H   0  0  0  0  0  0  0  0  0  0  0  0
   -3.9775   -2.5321   12.6857 H   0  0  0  0  0  0  0  0  0  0  0  0
   -3.7568   -4.0924   13.5481 H   0  0  0  0  0  0  0  0  0  0  0  0
   -2.2256   -3.6976   16.3093 H   0  0  0  0  0  0  0  0  0  0  0  0
    0.1791   -3.2312   16.5569 H   0  0  0  0  0  0  0  0  0  0  0  0
    5.1437    1.9283   13.2628 H   0  0  0  0  0  0  0  0  0  0  0  0
    6.8328    0.9059   15.3214 H   0  0  0  0  0  0  0  0  0  0  0  0
    6.2913   -0.7894   17.3267 H   0  0  0  0  0  0  0  0  0  0  0  0
    0.5957    2.2462   12.8254 H   0  0  0  0  0  0  0  0  0  0  0  0
   -0.1634    3.7999   11.0562 H   0  0  0  0  0  0  0  0  0  0  0  0
    3.7770    3.9167    9.4233 H   0  0  0  0  0  0  0  0  0  0  0  0
    4.9193    1.2531   10.3190 H   0  0  0  0  0  0  0  0  0  0  0  0
    5.5251    2.9335   10.5076 H   0  0  0  0  0  0  0  0  0  0  0  0
    5.3003    1.8921   11.9539 H   0  0  0  0  0  0  0  0  0  0  0  0
    2.1003    6.1839    7.6616 H   0  0  0  0  0  0  0  0  0  0  0  0
    3.2824    5.3623    8.6248 H   0  0  0  0  0  0  0  0  0  0  0  0
   -0.4646    0.1305   14.4463 H   0  0  0  0  0  0  0  0  0  0  0  0
   -0.1259   -1.1151   13.1971 H   0  0  0  0  0  0  0  0  0  0  0  0
   -3.1208    0.9646   11.7540 H   0  0  0  0  0  0  0  0  0  0  0  0
   -1.8972    1.3716   13.0043 H   0  0  0  0  0  0  0  0  0  0  0  0
   -1.4987    0.1946   11.7072 H   0  0  0  0  0  0  0  0  0  0  0  0
  1  2  1  0  0  0  0
  2  3  1  0  0  0  0
  3  4  1  0  0  0  0
  3 28  2  0  0  0  0
  4  5  2  0  0  0  0
  5  6  1  0  0  0  0
  6  7  2  0  0  0  0
  6 27  1  0  0  0  0
  7  8  1  0  0  0  0
  8  9  2  0  0  0  0
  8 16  1  0  0  0  0
  9 10  1  0  0  0  0
 10 11  2  0  0  0  0
 10 17  1  0  0  0  0
 11 12  1  0  0  0  0
 12 13  1  0  0  0  0
 12 16  1  0  0  0  0
 13 14  2  0  0  0  0
 14 15  1  0  0  0  0
 15 16  2  0  0  0  0
 17 18  2  0  0  0  0
 17 22  1  0  0  0  0
 18 19  1  0  0  0  0
 19 20  2  0  0  0  0
 20 21  1  0  0  0  0
 20 24  1  0  0  0  0
 21 22  2  0  0  0  0
 22 23  1  0  0  0  0
 24 25  2  0  0  0  0
 24 26  1  0  0  0  0
 27 28  1  0  0  0  0
 28 29  1  0  0  0  0
 29 30  1  0  0  0  0
  1 31  1  0  0  0  0
  1 32  1  0  0  0  0
  1 33  1  0  0  0  0
  4 34  1  0  0  0  0
  5 35  1  0  0  0  0
 11 36  1  0  0  0  0
 13 37  1  0  0  0  0
 14 38  1  0  0  0  0
 18 39  1  0  0  0  0
 19 40  1  0  0  0  0
 21 41  1  0  0  0  0
 23 42  1  0  0  0  0
 23 43  1  0  0  0  0
 23 44  1  0  0  0  0
 26 45  1  0  0  0  0
 26 46  1  0  0  0  0
 27 47  1  0  0  0  0
 27 48  1  0  0  0  0
 30 49  1  0  0  0  0
 30 50  1  0  0  0  0
 30 51  1  0  0  0  0
M  END
> <IC50[nM]>
113

$$$$
CHEMBL3265015
  -OEChem-05192314333D
 Structure written by MMmdl.
 51 54  0     1  0  0  0  0  0999 V2000
   -4.2658   -3.1175   13.5713 C   0  0  0  0  0  0  0  0  0  0  0  0
   -3.8897   -2.4164   14.7436 O   0  0  0  0  0  0  0  0  0  0  0  0
   -2.5439   -2.1718   14.8418 C   0  0  3  0  0  0  0  0  0  0  0  0
   -1.7693   -2.9126   15.7244 C   0  0  0  0  0  0  0  0  0  0  0  0
   -0.4086   -2.6509   15.8610 C   0  0  0  0  0  0  0  0  0  0  0  0
    0.2048   -1.6479   15.1096 C   0  0  0  0  0  0  0  0  0  0  0  0
    1.6017   -1.4006   15.3489 N   0  0  0  0  0  0  0  0  0  0  0  0
    2.5425   -0.4814   14.7772 C   0  0  0  0  0  0  0  0  0  0  0  0
    2.1966    0.3306   13.7372 N   0  0  0  0  0  0  0  0  0  0  0  0
    3.1151    1.2253   13.2359 C   0  0  0  0  0  0  0  0  0  0  0  0
    4.4125    1.2753   13.7158 C   0  0  0  0  0  0  0  0  0  0  0  0
    4.7468    0.4823   14.7726 N   0  0  0  0  0  0  0  0  0  0  0  0
    5.9017    0.3875   15.4968 C   0  0  0  0  0  0  0  0  0  0  0  0
    5.6113   -0.5378   16.5263 C   0  0  0  0  0  0  0  0  0  0  0  0
    4.3968   -1.0589   16.3854 N   0  0  0  0  0  0  0  0  0  0  0  0
    3.8461   -0.4133   15.3411 C   0  0  0  0  0  0  0  0  0  0  0  0
    2.6468    2.1713   12.1254 C   0  0  0  0  0  0  0  0  0  0  0  0
    1.2968    2.6023   12.0851 C   0  0  0  0  0  0  0  0  0  0  0  0
    0.8699    3.4876   11.0892 C   0  0  0  0  0  0  0  0  0  0  0  0
    1.7721    3.9706   10.1365 C   0  0  0  0  0  0  0  0  0  0  0  0
    3.0808    3.5379   10.1569 C   0  0  0  0  0  0  0  0  0  0  0  0
    3.5135    2.6334   11.0944 C   0  0  0  0  0  0  0  0  0  0  0  0
    4.9035    2.1468   10.9601 C   0  0  0  0  0  0  0  0  0  0  0  0
    1.3475    4.9212    9.0657 C   0  0  0  0  0  0  0  0  0  0  0  0
    0.1679    5.0957    8.8335 O   0  0  0  0  0  0  0  0  0  0  0  0
    2.3260    5.5415    8.3940 N   0  0  0  0  0  0  0  0  0  0  0  0
   -0.5697   -0.9333   14.1871 C   0  0  0  0  0  0  0  0  0  0  0  0
   -1.9604   -1.1834   14.0595 C   0  0  0  0  0  0  0  0  0  0  0  0
   -2.7686   -0.4755   13.1689 O   0  0  0  0  0  0  0  0  0  0  0  0
   -2.2961    0.5699   12.3655 C   0  0  0  0  0  0  0  0  0  0  0  0
   -5.3548   -3.2725   13.5696 H   0  0  0  0  0  0  0  0  0  0  0  0
   -3.9775   -2.5321   12.6857 H   0  0  0  0  0  0  0  0  0  0  0  0
   -3.7568   -4.0924   13.5481 H   0  0  0  0  0  0  0  0  0  0  0  0
   -2.3513   -2.9118   14.0511 H   0  0  0  0  0  0  0  0  0  0  0  0
   -2.2256   -3.6976   16.3093 H   0  0  0  0  0  0  0  0  0  0  0  0
    0.1791   -3.2312   16.5569 H   0  0  0  0  0  0  0  0  0  0  0  0
    5.1437    1.9283   13.2628 H   0  0  0  0  0  0  0  0  0  0  0  0
    6.8328    0.9059   15.3214 H   0  0  0  0  0  0  0  0  0  0  0  0
    6.2913   -0.7894   17.3267 H   0  0  0  0  0  0  0  0  0  0  0  0
    0.5957    2.2462   12.8254 H   0  0  0  0  0  0  0  0  0  0  0  0
   -0.1634    3.7999   11.0562 H   0  0  0  0  0  0  0  0  0  0  0  0
    3.7770    3.9167    9.4233 H   0  0  0  0  0  0  0  0  0  0  0  0
    4.9193    1.2531   10.3190 H   0  0  0  0  0  0  0  0  0  0  0  0
    5.5251    2.9335   10.5076 H   0  0  0  0  0  0  0  0  0  0  0  0
    5.3003    1.8921   11.9539 H   0  0  0  0  0  0  0  0  0  0  0  0
    0.0732    5.7262    8.1293 H   0  0  0  0  0  0  0  0  0  0  0  0
    1.9670    6.1548    7.6905 H   0  0  0  0  0  0  0  0  0  0  0  0
   -0.1030   -0.1833   13.5658 H   0  0  0  0  0  0  0  0  0  0  0  0
   -3.1208    0.9646   11.7540 H   0  0  0  0  0  0  0  0  0  0  0  0
   -1.8972    1.3716   13.0043 H   0  0  0  0  0  0  0  0  0  0  0  0
   -1.4987    0.1946   11.7072 H   0  0  0  0  0  0  0  0  0  0  0  0
  1  2  1  0  0  0  0
  2  3  1  0  0  0  0
  3  4  1  0  0  0  0
  3 28  1  0  0  0  0
  4  5  2  0  0  0  0
  5  6  1  0  0  0  0
  6  7  2  0  0  0  0
  6 27  1  0  0  0  0
  7  8  1  0  0  0  0
  8  9  2  0  0  0  0
  8 16  1  0  0  0  0
  9 10  1  0  0  0  0
 10 11  2  0  0  0  0
 10 17  1  0  0  0  0
 11 12  1  0  0  0  0
 12 13  1  0  0  0  0
 12 16  1  0  0  0  0
 13 14  2  0  0  0  0
 14 15  1  0  0  0  0
 15 16  2  0  0  0  0
 17 18  2  0  0  0  0
 17 22  1  0  0  0  0
 18 19  1  0  0  0  0
 19 20  2  0  0  0  0
 20 21  1  0  0  0  0
 20 24  1  0  0  0  0
 21 22  2  0  0  0  0
 22 23  1  0  0  0  0
 24 25  1  0  0  0  0
 24 26  2  0  0  0  0
 27 28  2  0  0  0  0
 28 29  1  0  0  0  0
 29 30  1  0  0  0  0
  1 31  1  0  0  0  0
  1 32  1  0  0  0  0
  1 33  1  0  0  0  0
  3 34  1  0  0  0  0
  4 35  1  0  0  0  0
  5 36  1  0  0  0  0
 11 37  1  0  0  0  0
 13 38  1  0  0  0  0
 14 39  1  0  0  0  0
 18 40  1  0  0  0  0
 19 41  1  0  0  0  0
 21 42  1  0  0  0  0
 23 43  1  0  0  0  0
 23 44  1  0  0  0  0
 23 45  1  0  0  0  0
 25 46  1  0  0  0  0
 26 47  1  0  0  0  0
 27 48  1  0  0  0  0
 30 49  1  0  0  0  0
 30 50  1  0  0  0  0
 30 51  1  0  0  0  0
M  END
> <IC50[nM]>
113

$$$$
CHEMBL3265015
  -OEChem-05192314333D
 Structure written by MMmdl.
 51 54  0     0  0  0  0  0  0999 V2000
   -4.2658   -3.1175   13.5713 C   0  0  0  0  0  0  0  0  0  0  0  0
   -3.8897   -2.4164   14.7436 O   0  0  0  0  0  0  0  0  0  0  0  0
   -2.5439   -2.1718   14.8418 C   0  0  0  0  0  0  0  0  0  0  0  0
   -1.7693   -2.9126   15.7244 C   0  0  0  0  0  0  0  0  0  0  0  0
   -0.4086   -2.6509   15.8610 C   0  0  0  0  0  0  0  0  0  0  0  0
    0.2048   -1.6479   15.1096 C   0  0  0  0  0  0  0  0  0  0  0  0
    1.6017   -1.4006   15.3489 N   0  0  0  0  0  0  0  0  0  0  0  0
    2.5425   -0.4814   14.7772 C   0  0  0  0  0  0  0  0  0  0  0  0
    2.1966    0.3306   13.7372 N   0  0  0  0  0  0  0  0  0  0  0  0
    3.1151    1.2253   13.2359 C   0  0  0  0  0  0  0  0  0  0  0  0
    4.4125    1.2753   13.7158 C   0  0  0  0  0  0  0  0  0  0  0  0
    4.7468    0.4823   14.7726 N   0  0  0  0  0  0  0  0  0  0  0  0
    5.9017    0.3875   15.4968 C   0  0  0  0  0  0  0  0  0  0  0  0
    5.6113   -0.5378   16.5263 C   0  0  0  0  0  0  0  0  0  0  0  0
    4.3968   -1.0589   16.3854 N   0  0  0  0  0  0  0  0  0  0  0  0
    3.8461   -0.4133   15.3411 C   0  0  0  0  0  0  0  0  0  0  0  0
    2.6468    2.1713   12.1254 C   0  0  0  0  0  0  0  0  0  0  0  0
    1.2968    2.6023   12.0851 C   0  0  0  0  0  0  0  0  0  0  0  0
    0.8699    3.4876   11.0892 C   0  0  0  0  0  0  0  0  0  0  0  0
    1.7721    3.9706   10.1365 C   0  0  0  0  0  0  0  0  0  0  0  0
    3.0808    3.5379   10.1569 C   0  0  0  0  0  0  0  0  0  0  0  0
    3.5135    2.6334   11.0944 C   0  0  0  0  0  0  0  0  0  0  0  0
    4.9035    2.1468   10.9601 C   0  0  0  0  0  0  0  0  0  0  0  0
    1.3475    4.9212    9.0657 C   0  0  0  0  0  0  0  0  0  0  0  0
    0.1679    5.0957    8.8335 O   0  0  0  0  0  0  0  0  0  0  0  0
    2.3260    5.5415    8.3940 N   0  0  0  0  0  0  0  0  0  0  0  0
   -0.5697   -0.9333   14.1871 C   0  0  0  0  0  0  0  0  0  0  0  0
   -1.9604   -1.1834   14.0595 C   0  0  0  0  0  0  0  0  0  0  0  0
   -2.7686   -0.4755   13.1689 O   0  0  0  0  0  0  0  0  0  0  0  0
   -2.2961    0.5699   12.3655 C   0  0  0  0  0  0  0  0  0  0  0  0
   -5.3548   -3.2725   13.5696 H   0  0  0  0  0  0  0  0  0  0  0  0
   -3.9775   -2.5321   12.6857 H   0  0  0  0  0  0  0  0  0  0  0  0
   -3.7568   -4.0924   13.5481 H   0  0  0  0  0  0  0  0  0  0  0  0
   -2.2256   -3.6976   16.3093 H   0  0  0  0  0  0  0  0  0  0  0  0
   -0.2426   -2.3968   16.9183 H   0  0  0  0  0  0  0  0  0  0  0  0
    0.1165   -3.5875   15.6221 H   0  0  0  0  0  0  0  0  0  0  0  0
    5.1437    1.9283   13.2628 H   0  0  0  0  0  0  0  0  0  0  0  0
    6.8328    0.9059   15.3214 H   0  0  0  0  0  0  0  0  0  0  0  0
    6.2913   -0.7894   17.3267 H   0  0  0  0  0  0  0  0  0  0  0  0
    0.5957    2.2462   12.8254 H   0  0  0  0  0  0  0  0  0  0  0  0
   -0.1634    3.7999   11.0562 H   0  0  0  0  0  0  0  0  0  0  0  0
    3.7770    3.9167    9.4233 H   0  0  0  0  0  0  0  0  0  0  0  0
    4.9193    1.2531   10.3190 H   0  0  0  0  0  0  0  0  0  0  0  0
    5.5251    2.9335   10.5076 H   0  0  0  0  0  0  0  0  0  0  0  0
    5.3003    1.8921   11.9539 H   0  0  0  0  0  0  0  0  0  0  0  0
    0.0732    5.7262    8.1293 H   0  0  0  0  0  0  0  0  0  0  0  0
    1.9670    6.1548    7.6905 H   0  0  0  0  0  0  0  0  0  0  0  0
   -0.1030   -0.1833   13.5658 H   0  0  0  0  0  0  0  0  0  0  0  0
   -3.1208    0.9646   11.7540 H   0  0  0  0  0  0  0  0  0  0  0  0
   -1.8972    1.3716   13.0043 H   0  0  0  0  0  0  0  0  0  0  0  0
   -1.4987    0.1946   11.7072 H   0  0  0  0  0  0  0  0  0  0  0  0
  1  2  1  0  0  0  0
  2  3  1  0  0  0  0
  3  4  2  0  0  0  0
  3 28  1  0  0  0  0
  4  5  1  0  0  0  0
  5  6  1  0  0  0  0
  6  7  2  0  0  0  0
  6 27  1  0  0  0  0
  7  8  1  0  0  0  0
  8  9  2  0  0  0  0
  8 16  1  0  0  0  0
  9 10  1  0  0  0  0
 10 11  2  0  0  0  0
 10 17  1  0  0  0  0
 11 12  1  0  0  0  0
 12 13  1  0  0  0  0
 12 16  1  0  0  0  0
 13 14  2  0  0  0  0
 14 15  1  0  0  0  0
 15 16  2  0  0  0  0
 17 18  2  0  0  0  0
 17 22  1  0  0  0  0
 18 19  1  0  0  0  0
 19 20  2  0  0  0  0
 20 21  1  0  0  0  0
 20 24  1  0  0  0  0
 21 22  2  0  0  0  0
 22 23  1  0  0  0  0
 24 25  1  0  0  0  0
 24 26  2  0  0  0  0
 27 28  2  0  0  0  0
 28 29  1  0  0  0  0
 29 30  1  0  0  0  0
  1 31  1  0  0  0  0
  1 32  1  0  0  0  0
  1 33  1  0  0  0  0
  4 34  1  0  0  0  0
  5 35  1  0  0  0  0
  5 36  1  0  0  0  0
 11 37  1  0  0  0  0
 13 38  1  0  0  0  0
 14 39  1  0  0  0  0
 18 40  1  0  0  0  0
 19 41  1  0  0  0  0
 21 42  1  0  0  0  0
 23 43  1  0  0  0  0
 23 44  1  0  0  0  0
 23 45  1  0  0  0  0
 25 46  1  0  0  0  0
 26 47  1  0  0  0  0
 27 48  1  0  0  0  0
 30 49  1  0  0  0  0
 30 50  1  0  0  0  0
 30 51  1  0  0  0  0
M  END
> <IC50[nM]>
113

$$$$
CHEMBL3265015
  -OEChem-05192314333D
 Structure written by MMmdl.
 51 54  0     0  0  0  0  0  0999 V2000
   -4.2658   -3.1175   13.5713 C   0  0  0  0  0  0  0  0  0  0  0  0
   -3.8897   -2.4164   14.7436 O   0  0  0  0  0  0  0  0  0  0  0  0
   -2.5439   -2.1718   14.8418 C   0  0  0  0  0  0  0  0  0  0  0  0
   -1.7693   -2.9126   15.7244 C   0  0  0  0  0  0  0  0  0  0  0  0
   -0.4086   -2.6509   15.8610 C   0  0  0  0  0  0  0  0  0  0  0  0
    0.2048   -1.6479   15.1096 C   0  0  0  0  0  0  0  0  0  0  0  0
    1.6017   -1.4006   15.3489 N   0  0  0  0  0  0  0  0  0  0  0  0
    2.5425   -0.4814   14.7772 C   0  0  0  0  0  0  0  0  0  0  0  0
    2.1966    0.3306   13.7372 N   0  0  0  0  0  0  0  0  0  0  0  0
    3.1151    1.2253   13.2359 C   0  0  0  0  0  0  0  0  0  0  0  0
    4.4125    1.2753   13.7158 C   0  0  0  0  0  0  0  0  0  0  0  0
    4.7468    0.4823   14.7726 N   0  0  0  0  0  0  0  0  0  0  0  0
    5.9017    0.3875   15.4968 C   0  0  0  0  0  0  0  0  0  0  0  0
    5.6113   -0.5378   16.5263 C   0  0  0  0  0  0  0  0  0  0  0  0
    4.3968   -1.0589   16.3854 N   0  0  0  0  0  0  0  0  0  0  0  0
    3.8461   -0.4133   15.3411 C   0  0  0  0  0  0  0  0  0  0  0  0
    2.6468    2.1713   12.1254 C   0  0  0  0  0  0  0  0  0  0  0  0
    1.2968    2.6023   12.0851 C   0  0  0  0  0  0  0  0  0  0  0  0
    0.8699    3.4876   11.0892 C   0  0  0  0  0  0  0  0  0  0  0  0
    1.7721    3.9706   10.1365 C   0  0  0  0  0  0  0  0  0  0  0  0
    3.0808    3.5379   10.1569 C   0  0  0  0  0  0  0  0  0  0  0  0
    3.5135    2.6334   11.0944 C   0  0  0  0  0  0  0  0  0  0  0  0
    4.9035    2.1468   10.9601 C   0  0  0  0  0  0  0  0  0  0  0  0
    1.3475    4.9212    9.0657 C   0  0  0  0  0  0  0  0  0  0  0  0
    0.1679    5.0957    8.8335 O   0  0  0  0  0  0  0  0  0  0  0  0
    2.3260    5.5415    8.3940 N   0  0  0  0  0  0  0  0  0  0  0  0
   -0.5697   -0.9333   14.1871 C   0  0  0  0  0  0  0  0  0  0  0  0
   -1.9604   -1.1834   14.0595 C   0  0  0  0  0  0  0  0  0  0  0  0
   -2.7686   -0.4755   13.1689 O   0  0  0  0  0  0  0  0  0  0  0  0
   -2.2961    0.5699   12.3655 C   0  0  0  0  0  0  0  0  0  0  0  0
   -5.3548   -3.2725   13.5696 H   0  0  0  0  0  0  0  0  0  0  0  0
   -3.9775   -2.5321   12.6857 H   0  0  0  0  0  0  0  0  0  0  0  0
   -3.7568   -4.0924   13.5481 H   0  0  0  0  0  0  0  0  0  0  0  0
   -2.2256   -3.6976   16.3093 H   0  0  0  0  0  0  0  0  0  0  0  0
    0.1791   -3.2312   16.5569 H   0  0  0  0  0  0  0  0  0  0  0  0
    5.1437    1.9283   13.2628 H   0  0  0  0  0  0  0  0  0  0  0  0
    6.8328    0.9059   15.3214 H   0  0  0  0  0  0  0  0  0  0  0  0
    6.2913   -0.7894   17.3267 H   0  0  0  0  0  0  0  0  0  0  0  0
    0.5957    2.2462   12.8254 H   0  0  0  0  0  0  0  0  0  0  0  0
   -0.1634    3.7999   11.0562 H   0  0  0  0  0  0  0  0  0  0  0  0
    3.7770    3.9167    9.4233 H   0  0  0  0  0  0  0  0  0  0  0  0
    4.9193    1.2531   10.3190 H   0  0  0  0  0  0  0  0  0  0  0  0
    5.5251    2.9335   10.5076 H   0  0  0  0  0  0  0  0  0  0  0  0
    5.3003    1.8921   11.9539 H   0  0  0  0  0  0  0  0  0  0  0  0
    0.0732    5.7262    8.1293 H   0  0  0  0  0  0  0  0  0  0  0  0
    1.9670    6.1548    7.6905 H   0  0  0  0  0  0  0  0  0  0  0  0
   -0.4646    0.1305   14.4463 H   0  0  0  0  0  0  0  0  0  0  0  0
   -0.1259   -1.1151   13.1971 H   0  0  0  0  0  0  0  0  0  0  0  0
   -3.1208    0.9646   11.7540 H   0  0  0  0  0  0  0  0  0  0  0  0
   -1.8972    1.3716   13.0043 H   0  0  0  0  0  0  0  0  0  0  0  0
   -1.4987    0.1946   11.7072 H   0  0  0  0  0  0  0  0  0  0  0  0
  1  2  1  0  0  0  0
  2  3  1  0  0  0  0
  3  4  1  0  0  0  0
  3 28  2  0  0  0  0
  4  5  2  0  0  0  0
  5  6  1  0  0  0  0
  6  7  2  0  0  0  0
  6 27  1  0  0  0  0
  7  8  1  0  0  0  0
  8  9  2  0  0  0  0
  8 16  1  0  0  0  0
  9 10  1  0  0  0  0
 10 11  2  0  0  0  0
 10 17  1  0  0  0  0
 11 12  1  0  0  0  0
 12 13  1  0  0  0  0
 12 16  1  0  0  0  0
 13 14  2  0  0  0  0
 14 15  1  0  0  0  0
 15 16  2  0  0  0  0
 17 18  2  0  0  0  0
 17 22  1  0  0  0  0
 18 19  1  0  0  0  0
 19 20  2  0  0  0  0
 20 21  1  0  0  0  0
 20 24  1  0  0  0  0
 21 22  2  0  0  0  0
 22 23  1  0  0  0  0
 24 25  1  0  0  0  0
 24 26  2  0  0  0  0
 27 28  1  0  0  0  0
 28 29  1  0  0  0  0
 29 30  1  0  0  0  0
  1 31  1  0  0  0  0
  1 32  1  0  0  0  0
  1 33  1  0  0  0  0
  4 34  1  0  0  0  0
  5 35  1  0  0  0  0
 11 36  1  0  0  0  0
 13 37  1  0  0  0  0
 14 38  1  0  0  0  0
 18 39  1  0  0  0  0
 19 40  1  0  0  0  0
 21 41  1  0  0  0  0
 23 42  1  0  0  0  0
 23 43  1  0  0  0  0
 23 44  1  0  0  0  0
 25 45  1  0  0  0  0
 26 46  1  0  0  0  0
 27 47  1  0  0  0  0
 27 48  1  0  0  0  0
 30 49  1  0  0  0  0
 30 50  1  0  0  0  0
 30 51  1  0  0  0  0
M  END
> <IC50[nM]>
113

$$$$
