CHEMBL3265021
  -OEChem-05192314333D
 Structure written by MMmdl.
 47 51  0     0  0  0  0  0  0999 V2000
   -4.2567   -3.1041   13.5694 C   0  0  0  0  0  0  0  0  0  0  0  0
   -3.8737   -2.3599   14.7156 O   0  0  0  0  0  0  0  0  0  0  0  0
   -2.5258   -2.1107   14.8171 C   0  0  0  0  0  0  0  0  0  0  0  0
   -1.7454   -2.8698   15.6820 C   0  0  0  0  0  0  0  0  0  0  0  0
   -0.3904   -2.6103   15.8138 C   0  0  0  0  0  0  0  0  0  0  0  0
    0.2204   -1.5845   15.0865 C   0  0  0  0  0  0  0  0  0  0  0  0
    1.6042   -1.3599   15.3206 N   0  0  0  0  0  0  0  0  0  0  0  0
    2.5373   -0.4464   14.7592 C   0  0  0  0  0  0  0  0  0  0  0  0
    2.1833    0.3714   13.7220 N   0  0  0  0  0  0  0  0  0  0  0  0
    3.1157    1.2390   13.2179 C   0  0  0  0  0  0  0  0  0  0  0  0
    4.4197    1.2848   13.7036 C   0  0  0  0  0  0  0  0  0  0  0  0
    4.7466    0.4890   14.7613 N   0  0  0  0  0  0  0  0  0  0  0  0
    5.8976    0.3767   15.4867 C   0  0  0  0  0  0  0  0  0  0  0  0
    5.5868   -0.5220   16.5302 C   0  0  0  0  0  0  0  0  0  0  0  0
    4.3755   -1.0422   16.3738 N   0  0  0  0  0  0  0  0  0  0  0  0
    3.8369   -0.3923   15.3263 C   0  0  0  0  0  0  0  0  0  0  0  0
    2.6420    2.1628   12.1182 C   0  0  0  0  0  0  0  0  0  0  0  0
    3.5476    2.6405   11.1603 C   0  0  0  0  0  0  0  0  0  0  0  0
    3.1538    3.4680   10.0985 C   0  0  0  0  0  0  0  0  0  0  0  0
    1.8053    3.8044   10.0318 C   0  0  0  0  0  0  0  0  0  0  0  0
    1.0883    4.5643    9.1320 N   0  0  0  0  0  0  0  0  0  0  0  0
   -0.2025    4.6328    9.4561 N   0  0  0  0  0  0  0  0  0  0  0  0
   -0.3779    3.9489   10.5598 C   0  0  0  0  0  0  0  0  0  0  0  0
    0.8670    3.3654   10.9941 C   0  0  0  0  0  0  0  0  0  0  0  0
    1.2880    2.5471   12.0527 C   0  0  0  0  0  0  0  0  0  0  0  0
   -0.5552   -0.8189   14.1923 C   0  0  0  0  0  0  0  0  0  0  0  0
   -1.9451   -1.0886   14.0616 C   0  0  0  0  0  0  0  0  0  0  0  0
   -2.7540   -0.3570   13.2047 O   0  0  0  0  0  0  0  0  0  0  0  0
   -2.2335    0.6444   12.3522 C   0  0  0  0  0  0  0  0  0  0  0  0
   -5.3466   -3.2526   13.5753 H   0  0  0  0  0  0  0  0  0  0  0  0
   -3.9666   -2.5545   12.6618 H   0  0  0  0  0  0  0  0  0  0  0  0
   -3.7535   -4.0822   13.5824 H   0  0  0  0  0  0  0  0  0  0  0  0
   -2.1977   -3.6662   16.2544 H   0  0  0  0  0  0  0  0  0  0  0  0
    0.2027   -3.2097   16.4886 H   0  0  0  0  0  0  0  0  0  0  0  0
    1.9979   -1.9617   16.0155 H   0  0  0  0  0  0  0  0  0  0  0  0
    5.1548    1.9353   13.2532 H   0  0  0  0  0  0  0  0  0  0  0  0
    6.8412    0.8686   15.3023 H   0  0  0  0  0  0  0  0  0  0  0  0
    6.2493   -0.7562   17.3503 H   0  0  0  0  0  0  0  0  0  0  0  0
    4.5874    2.3608   11.2432 H   0  0  0  0  0  0  0  0  0  0  0  0
    3.8633    3.8269    9.3676 H   0  0  0  0  0  0  0  0  0  0  0  0
    1.4890    5.0107    8.3319 H   0  0  0  0  0  0  0  0  0  0  0  0
   -1.3221    3.8379   11.0722 H   0  0  0  0  0  0  0  0  0  0  0  0
    0.5864    2.2173   12.8046 H   0  0  0  0  0  0  0  0  0  0  0  0
   -0.0968   -0.0329   13.6105 H   0  0  0  0  0  0  0  0  0  0  0  0
   -3.0514    1.0896   11.7666 H   0  0  0  0  0  0  0  0  0  0  0  0
   -1.7486    1.4249   12.9569 H   0  0  0  0  0  0  0  0  0  0  0  0
   -1.4953    0.1976   11.6700 H   0  0  0  0  0  0  0  0  0  0  0  0
  1  2  1  0  0  0  0
  2  3  1  0  0  0  0
  3  4  2  0  0  0  0
  3 27  1  0  0  0  0
  4  5  1  0  0  0  0
  5  6  2  0  0  0  0
  6  7  1  0  0  0  0
  6 26  1  0  0  0  0
  7  8  1  0  0  0  0
  8  9  2  0  0  0  0
  8 16  1  0  0  0  0
  9 10  1  0  0  0  0
 10 11  2  0  0  0  0
 10 17  1  0  0  0  0
 11 12  1  0  0  0  0
 12 13  1  0  0  0  0
 12 16  1  0  0  0  0
 13 14  2  0  0  0  0
 14 15  1  0  0  0  0
 15 16  2  0  0  0  0
 17 18  2  0  0  0  0
 17 25  1  0  0  0  0
 18 19  1  0  0  0  0
 19 20  2  0  0  0  0
 20 21  1  0  0  0  0
 20 24  1  0  0  0  0
 21 22  1  0  0  0  0
 22 23  2  0  0  0  0
 23 24  1  0  0  0  0
 24 25  2  0  0  0  0
 26 27  2  0  0  0  0
 27 28  1  0  0  0  0
 28 29  1  0  0  0  0
  1 30  1  0  0  0  0
  1 31  1  0  0  0  0
  1 32  1  0  0  0  0
  4 33  1  0  0  0  0
  5 34  1  0  0  0  0
  7 35  1  0  0  0  0
 11 36  1  0  0  0  0
 13 37  1  0  0  0  0
 14 38  1  0  0  0  0
 18 39  1  0  0  0  0
 19 40  1  0  0  0  0
 21 41  1  0  0  0  0
 23 42  1  0  0  0  0
 25 43  1  0  0  0  0
 26 44  1  0  0  0  0
 29 45  1  0  0  0  0
 29 46  1  0  0  0  0
 29 47  1  0  0  0  0
M  END
> <IC50[nM]>
10.4

$$$$
CHEMBL3265021
  -OEChem-05192314333D
 Structure written by MMmdl.
 47 51  0     0  0  0  0  0  0999 V2000
   -4.2567   -3.1041   13.5694 C   0  0  0  0  0  0  0  0  0  0  0  0
   -3.8737   -2.3599   14.7156 O   0  0  0  0  0  0  0  0  0  0  0  0
   -2.5258   -2.1107   14.8171 C   0  0  0  0  0  0  0  0  0  0  0  0
   -1.7454   -2.8698   15.6820 C   0  0  0  0  0  0  0  0  0  0  0  0
   -0.3904   -2.6103   15.8138 C   0  0  0  0  0  0  0  0  0  0  0  0
    0.2204   -1.5845   15.0865 C   0  0  0  0  0  0  0  0  0  0  0  0
    1.6042   -1.3599   15.3206 N   0  0  0  0  0  0  0  0  0  0  0  0
    2.5373   -0.4464   14.7592 C   0  0  0  0  0  0  0  0  0  0  0  0
    2.1833    0.3714   13.7220 N   0  0  0  0  0  0  0  0  0  0  0  0
    3.1157    1.2390   13.2179 C   0  0  0  0  0  0  0  0  0  0  0  0
    4.4197    1.2848   13.7036 C   0  0  0  0  0  0  0  0  0  0  0  0
    4.7466    0.4890   14.7613 N   0  0  0  0  0  0  0  0  0  0  0  0
    5.8976    0.3767   15.4867 C   0  0  0  0  0  0  0  0  0  0  0  0
    5.5868   -0.5220   16.5302 C   0  0  0  0  0  0  0  0  0  0  0  0
    4.3755   -1.0422   16.3738 N   0  0  0  0  0  0  0  0  0  0  0  0
    3.8369   -0.3923   15.3263 C   0  0  0  0  0  0  0  0  0  0  0  0
    2.6420    2.1628   12.1182 C   0  0  0  0  0  0  0  0  0  0  0  0
    3.5476    2.6405   11.1603 C   0  0  0  0  0  0  0  0  0  0  0  0
    3.1538    3.4680   10.0985 C   0  0  0  0  0  0  0  0  0  0  0  0
    1.8053    3.8044   10.0318 C   0  0  0  0  0  0  0  0  0  0  0  0
    1.0883    4.5643    9.1320 N   0  0  0  0  0  0  0  0  0  0  0  0
   -0.2025    4.6328    9.4561 N   0  0  0  0  0  0  0  0  0  0  0  0
   -0.3779    3.9489   10.5598 C   0  0  0  0  0  0  0  0  0  0  0  0
    0.8670    3.3654   10.9941 C   0  0  0  0  0  0  0  0  0  0  0  0
    1.2880    2.5471   12.0527 C   0  0  0  0  0  0  0  0  0  0  0  0
   -0.5552   -0.8189   14.1923 C   0  0  0  0  0  0  0  0  0  0  0  0
   -1.9451   -1.0886   14.0616 C   0  0  0  0  0  0  0  0  0  0  0  0
   -2.7540   -0.3570   13.2047 O   0  0  0  0  0  0  0  0  0  0  0  0
   -2.2335    0.6444   12.3522 C   0  0  0  0  0  0  0  0  0  0  0  0
   -5.3466   -3.2526   13.5753 H   0  0  0  0  0  0  0  0  0  0  0  0
   -3.9666   -2.5545   12.6618 H   0  0  0  0  0  0  0  0  0  0  0  0
   -3.7535   -4.0822   13.5824 H   0  0  0  0  0  0  0  0  0  0  0  0
   -2.1977   -3.6662   16.2544 H   0  0  0  0  0  0  0  0  0  0  0  0
    0.2027   -3.2097   16.4886 H   0  0  0  0  0  0  0  0  0  0  0  0
    1.9979   -1.9617   16.0155 H   0  0  0  0  0  0  0  0  0  0  0  0
    5.1548    1.9353   13.2532 H   0  0  0  0  0  0  0  0  0  0  0  0
    6.8412    0.8686   15.3023 H   0  0  0  0  0  0  0  0  0  0  0  0
    6.2493   -0.7562   17.3503 H   0  0  0  0  0  0  0  0  0  0  0  0
    4.5874    2.3608   11.2432 H   0  0  0  0  0  0  0  0  0  0  0  0
    3.8633    3.8269    9.3676 H   0  0  0  0  0  0  0  0  0  0  0  0
   -0.9119    5.1201    8.9469 H   0  0  0  0  0  0  0  0  0  0  0  0
   -1.3221    3.8379   11.0722 H   0  0  0  0  0  0  0  0  0  0  0  0
    0.5864    2.2173   12.8046 H   0  0  0  0  0  0  0  0  0  0  0  0
   -0.0968   -0.0329   13.6105 H   0  0  0  0  0  0  0  0  0  0  0  0
   -3.0514    1.0896   11.7666 H   0  0  0  0  0  0  0  0  0  0  0  0
   -1.7486    1.4249   12.9569 H   0  0  0  0  0  0  0  0  0  0  0  0
   -1.4953    0.1976   11.6700 H   0  0  0  0  0  0  0  0  0  0  0  0
  1  2  1  0  0  0  0
  2  3  1  0  0  0  0
  3  4  2  0  0  0  0
  3 27  1  0  0  0  0
  4  5  1  0  0  0  0
  5  6  2  0  0  0  0
  6  7  1  0  0  0  0
  6 26  1  0  0  0  0
  7  8  1  0  0  0  0
  8  9  2  0  0  0  0
  8 16  1  0  0  0  0
  9 10  1  0  0  0  0
 10 11  2  0  0  0  0
 10 17  1  0  0  0  0
 11 12  1  0  0  0  0
 12 13  1  0  0  0  0
 12 16  1  0  0  0  0
 13 14  2  0  0  0  0
 14 15  1  0  0  0  0
 15 16  2  0  0  0  0
 17 18  1  0  0  0  0
 17 25  2  0  0  0  0
 18 19  2  0  0  0  0
 19 20  1  0  0  0  0
 20 21  2  0  0  0  0
 20 24  1  0  0  0  0
 21 22  1  0  0  0  0
 22 23  1  0  0  0  0
 23 24  2  0  0  0  0
 24 25  1  0  0  0  0
 26 27  2  0  0  0  0
 27 28  1  0  0  0  0
 28 29  1  0  0  0  0
  1 30  1  0  0  0  0
  1 31  1  0  0  0  0
  1 32  1  0  0  0  0
  4 33  1  0  0  0  0
  5 34  1  0  0  0  0
  7 35  1  0  0  0  0
 11 36  1  0  0  0  0
 13 37  1  0  0  0  0
 14 38  1  0  0  0  0
 18 39  1  0  0  0  0
 19 40  1  0  0  0  0
 22 41  1  0  0  0  0
 23 42  1  0  0  0  0
 25 43  1  0  0  0  0
 26 44  1  0  0  0  0
 29 45  1  0  0  0  0
 29 46  1  0  0  0  0
 29 47  1  0  0  0  0
M  END
> <IC50[nM]>
10.4

$$$$
CHEMBL3265021
  -OEChem-05192314333D
 Structure written by MMmdl.
 47 51  0     0  0  0  0  0  0999 V2000
   -4.2567   -3.1041   13.5694 C   0  0  0  0  0  0  0  0  0  0  0  0
   -3.8737   -2.3599   14.7156 O   0  0  0  0  0  0  0  0  0  0  0  0
   -2.5258   -2.1107   14.8171 C   0  0  0  0  0  0  0  0  0  0  0  0
   -1.7454   -2.8698   15.6820 C   0  0  0  0  0  0  0  0  0  0  0  0
   -0.3904   -2.6103   15.8138 C   0  0  0  0  0  0  0  0  0  0  0  0
    0.2204   -1.5845   15.0865 C   0  0  0  0  0  0  0  0  0  0  0  0
    1.6042   -1.3599   15.3206 N   0  0  0  0  0  0  0  0  0  0  0  0
    2.5373   -0.4464   14.7592 C   0  0  0  0  0  0  0  0  0  0  0  0
    2.1833    0.3714   13.7220 N   0  0  0  0  0  0  0  0  0  0  0  0
    3.1157    1.2390   13.2179 C   0  0  0  0  0  0  0  0  0  0  0  0
    4.4197    1.2848   13.7036 C   0  0  0  0  0  0  0  0  0  0  0  0
    4.7466    0.4890   14.7613 N   0  0  0  0  0  0  0  0  0  0  0  0
    5.8976    0.3767   15.4867 C   0  0  0  0  0  0  0  0  0  0  0  0
    5.5868   -0.5220   16.5302 C   0  0  0  0  0  0  0  0  0  0  0  0
    4.3755   -1.0422   16.3738 N   0  0  0  0  0  0  0  0  0  0  0  0
    3.8369   -0.3923   15.3263 C   0  0  0  0  0  0  0  0  0  0  0  0
    2.6420    2.1628   12.1182 C   0  0  0  0  0  0  0  0  0  0  0  0
    3.5476    2.6405   11.1603 C   0  0  0  0  0  0  0  0  0  0  0  0
    3.1538    3.4680   10.0985 C   0  0  0  0  0  0  0  0  0  0  0  0
    1.8053    3.8044   10.0318 C   0  0  0  0  0  0  0  0  0  0  0  0
    1.0883    4.5643    9.1320 N   0  0  0  0  0  0  0  0  0  0  0  0
   -0.2025    4.6328    9.4561 N   0  0  0  0  0  0  0  0  0  0  0  0
   -0.3779    3.9489   10.5598 C   0  0  0  0  0  0  0  0  0  0  0  0
    0.8670    3.3654   10.9941 C   0  0  0  0  0  0  0  0  0  0  0  0
    1.2880    2.5471   12.0527 C   0  0  0  0  0  0  0  0  0  0  0  0
   -0.5552   -0.8189   14.1923 C   0  0  0  0  0  0  0  0  0  0  0  0
   -1.9451   -1.0886   14.0616 C   0  0  0  0  0  0  0  0  0  0  0  0
   -2.7540   -0.3570   13.2047 O   0  0  0  0  0  0  0  0  0  0  0  0
   -2.2335    0.6444   12.3522 C   0  0  0  0  0  0  0  0  0  0  0  0
   -5.3466   -3.2526   13.5753 H   0  0  0  0  0  0  0  0  0  0  0  0
   -3.9666   -2.5545   12.6618 H   0  0  0  0  0  0  0  0  0  0  0  0
   -3.7535   -4.0822   13.5824 H   0  0  0  0  0  0  0  0  0  0  0  0
   -2.1977   -3.6662   16.2544 H   0  0  0  0  0  0  0  0  0  0  0  0
    0.2027   -3.2097   16.4886 H   0  0  0  0  0  0  0  0  0  0  0  0
    1.2604    0.3367   13.3385 H   0  0  0  0  0  0  0  0  0  0  0  0
    5.1548    1.9353   13.2532 H   0  0  0  0  0  0  0  0  0  0  0  0
    6.8412    0.8686   15.3023 H   0  0  0  0  0  0  0  0  0  0  0  0
    6.2493   -0.7562   17.3503 H   0  0  0  0  0  0  0  0  0  0  0  0
    4.5874    2.3608   11.2432 H   0  0  0  0  0  0  0  0  0  0  0  0
    3.8633    3.8269    9.3676 H   0  0  0  0  0  0  0  0  0  0  0  0
    1.4890    5.0107    8.3319 H   0  0  0  0  0  0  0  0  0  0  0  0
   -1.3221    3.8379   11.0722 H   0  0  0  0  0  0  0  0  0  0  0  0
    0.5864    2.2173   12.8046 H   0  0  0  0  0  0  0  0  0  0  0  0
   -0.0968   -0.0329   13.6105 H   0  0  0  0  0  0  0  0  0  0  0  0
   -3.0514    1.0896   11.7666 H   0  0  0  0  0  0  0  0  0  0  0  0
   -1.7486    1.4249   12.9569 H   0  0  0  0  0  0  0  0  0  0  0  0
   -1.4953    0.1976   11.6700 H   0  0  0  0  0  0  0  0  0  0  0  0
  1  2  1  0  0  0  0
  2  3  1  0  0  0  0
  3  4  2  0  0  0  0
  3 27  1  0  0  0  0
  4  5  1  0  0  0  0
  5  6  2  0  0  0  0
  6  7  1  0  0  0  0
  6 26  1  0  0  0  0
  7  8  2  0  0  0  0
  8  9  1  0  0  0  0
  8 16  1  0  0  0  0
  9 10  1  0  0  0  0
 10 11  2  0  0  0  0
 10 17  1  0  0  0  0
 11 12  1  0  0  0  0
 12 13  1  0  0  0  0
 12 16  1  0  0  0  0
 13 14  2  0  0  0  0
 14 15  1  0  0  0  0
 15 16  2  0  0  0  0
 17 18  2  0  0  0  0
 17 25  1  0  0  0  0
 18 19  1  0  0  0  0
 19 20  2  0  0  0  0
 20 21  1  0  0  0  0
 20 24  1  0  0  0  0
 21 22  1  0  0  0  0
 22 23  2  0  0  0  0
 23 24  1  0  0  0  0
 24 25  2  0  0  0  0
 26 27  2  0  0  0  0
 27 28  1  0  0  0  0
 28 29  1  0  0  0  0
  1 30  1  0  0  0  0
  1 31  1  0  0  0  0
  1 32  1  0  0  0  0
  4 33  1  0  0  0  0
  5 34  1  0  0  0  0
  9 35  1  0  0  0  0
 11 36  1  0  0  0  0
 13 37  1  0  0  0  0
 14 38  1  0  0  0  0
 18 39  1  0  0  0  0
 19 40  1  0  0  0  0
 21 41  1  0  0  0  0
 23 42  1  0  0  0  0
 25 43  1  0  0  0  0
 26 44  1  0  0  0  0
 29 45  1  0  0  0  0
 29 46  1  0  0  0  0
 29 47  1  0  0  0  0
M  END
> <IC50[nM]>
10.4

$$$$
CHEMBL3265021
  -OEChem-05192314333D
 Structure written by MMmdl.
 47 51  0     0  0  0  0  0  0999 V2000
   -4.2567   -3.1041   13.5694 C   0  0  0  0  0  0  0  0  0  0  0  0
   -3.8737   -2.3599   14.7156 O   0  0  0  0  0  0  0  0  0  0  0  0
   -2.5258   -2.1107   14.8171 C   0  0  0  0  0  0  0  0  0  0  0  0
   -1.7454   -2.8698   15.6820 C   0  0  0  0  0  0  0  0  0  0  0  0
   -0.3904   -2.6103   15.8138 C   0  0  0  0  0  0  0  0  0  0  0  0
    0.2204   -1.5845   15.0865 C   0  0  0  0  0  0  0  0  0  0  0  0
    1.6042   -1.3599   15.3206 N   0  0  0  0  0  0  0  0  0  0  0  0
    2.5373   -0.4464   14.7592 C   0  0  0  0  0  0  0  0  0  0  0  0
    2.1833    0.3714   13.7220 N   0  0  0  0  0  0  0  0  0  0  0  0
    3.1157    1.2390   13.2179 C   0  0  0  0  0  0  0  0  0  0  0  0
    4.4197    1.2848   13.7036 C   0  0  0  0  0  0  0  0  0  0  0  0
    4.7466    0.4890   14.7613 N   0  0  0  0  0  0  0  0  0  0  0  0
    5.8976    0.3767   15.4867 C   0  0  0  0  0  0  0  0  0  0  0  0
    5.5868   -0.5220   16.5302 C   0  0  0  0  0  0  0  0  0  0  0  0
    4.3755   -1.0422   16.3738 N   0  0  0  0  0  0  0  0  0  0  0  0
    3.8369   -0.3923   15.3263 C   0  0  0  0  0  0  0  0  0  0  0  0
    2.6420    2.1628   12.1182 C   0  0  0  0  0  0  0  0  0  0  0  0
    3.5476    2.6405   11.1603 C   0  0  0  0  0  0  0  0  0  0  0  0
    3.1538    3.4680   10.0985 C   0  0  0  0  0  0  0  0  0  0  0  0
    1.8053    3.8044   10.0318 C   0  0  0  0  0  0  0  0  0  0  0  0
    1.0883    4.5643    9.1320 N   0  0  0  0  0  0  0  0  0  0  0  0
   -0.2025    4.6328    9.4561 N   0  0  0  0  0  0  0  0  0  0  0  0
   -0.3779    3.9489   10.5598 C   0  0  0  0  0  0  0  0  0  0  0  0
    0.8670    3.3654   10.9941 C   0  0  0  0  0  0  0  0  0  0  0  0
    1.2880    2.5471   12.0527 C   0  0  0  0  0  0  0  0  0  0  0  0
   -0.5552   -0.8189   14.1923 C   0  0  0  0  0  0  0  0  0  0  0  0
   -1.9451   -1.0886   14.0616 C   0  0  0  0  0  0  0  0  0  0  0  0
   -2.7540   -0.3570   13.2047 O   0  0  0  0  0  0  0  0  0  0  0  0
   -2.2335    0.6444   12.3522 C   0  0  0  0  0  0  0  0  0  0  0  0
   -5.3466   -3.2526   13.5753 H   0  0  0  0  0  0  0  0  0  0  0  0
   -3.9666   -2.5545   12.6618 H   0  0  0  0  0  0  0  0  0  0  0  0
   -3.7535   -4.0822   13.5824 H   0  0  0  0  0  0  0  0  0  0  0  0
   -2.1977   -3.6662   16.2544 H   0  0  0  0  0  0  0  0  0  0  0  0
    0.2027   -3.2097   16.4886 H   0  0  0  0  0  0  0  0  0  0  0  0
    1.2604    0.3367   13.3385 H   0  0  0  0  0  0  0  0  0  0  0  0
    5.1548    1.9353   13.2532 H   0  0  0  0  0  0  0  0  0  0  0  0
    6.8412    0.8686   15.3023 H   0  0  0  0  0  0  0  0  0  0  0  0
    6.2493   -0.7562   17.3503 H   0  0  0  0  0  0  0  0  0  0  0  0
    4.5874    2.3608   11.2432 H   0  0  0  0  0  0  0  0  0  0  0  0
    3.8633    3.8269    9.3676 H   0  0  0  0  0  0  0  0  0  0  0  0
   -0.9119    5.1201    8.9469 H   0  0  0  0  0  0  0  0  0  0  0  0
   -1.3221    3.8379   11.0722 H   0  0  0  0  0  0  0  0  0  0  0  0
    0.5864    2.2173   12.8046 H   0  0  0  0  0  0  0  0  0  0  0  0
   -0.0968   -0.0329   13.6105 H   0  0  0  0  0  0  0  0  0  0  0  0
   -3.0514    1.0896   11.7666 H   0  0  0  0  0  0  0  0  0  0  0  0
   -1.7486    1.4249   12.9569 H   0  0  0  0  0  0  0  0  0  0  0  0
   -1.4953    0.1976   11.6700 H   0  0  0  0  0  0  0  0  0  0  0  0
  1  2  1  0  0  0  0
  2  3  1  0  0  0  0
  3  4  2  0  0  0  0
  3 27  1  0  0  0  0
  4  5  1  0  0  0  0
  5  6  2  0  0  0  0
  6  7  1  0  0  0  0
  6 26  1  0  0  0  0
  7  8  2  0  0  0  0
  8  9  1  0  0  0  0
  8 16  1  0  0  0  0
  9 10  1  0  0  0  0
 10 11  2  0  0  0  0
 10 17  1  0  0  0  0
 11 12  1  0  0  0  0
 12 13  1  0  0  0  0
 12 16  1  0  0  0  0
 13 14  2  0  0  0  0
 14 15  1  0  0  0  0
 15 16  2  0  0  0  0
 17 18  1  0  0  0  0
 17 25  2  0  0  0  0
 18 19  2  0  0  0  0
 19 20  1  0  0  0  0
 20 21  2  0  0  0  0
 20 24  1  0  0  0  0
 21 22  1  0  0  0  0
 22 23  1  0  0  0  0
 23 24  2  0  0  0  0
 24 25  1  0  0  0  0
 26 27  2  0  0  0  0
 27 28  1  0  0  0  0
 28 29  1  0  0  0  0
  1 30  1  0  0  0  0
  1 31  1  0  0  0  0
  1 32  1  0  0  0  0
  4 33  1  0  0  0  0
  5 34  1  0  0  0  0
  9 35  1  0  0  0  0
 11 36  1  0  0  0  0
 13 37  1  0  0  0  0
 14 38  1  0  0  0  0
 18 39  1  0  0  0  0
 19 40  1  0  0  0  0
 22 41  1  0  0  0  0
 23 42  1  0  0  0  0
 25 43  1  0  0  0  0
 26 44  1  0  0  0  0
 29 45  1  0  0  0  0
 29 46  1  0  0  0  0
 29 47  1  0  0  0  0
M  END
> <IC50[nM]>
10.4

$$$$
CHEMBL3265021
  -OEChem-05192314333D
 Structure written by MMmdl.
 47 51  0     0  0  0  0  0  0999 V2000
   -4.2567   -3.1041   13.5694 C   0  0  0  0  0  0  0  0  0  0  0  0
   -3.8737   -2.3599   14.7156 O   0  0  0  0  0  0  0  0  0  0  0  0
   -2.5258   -2.1107   14.8171 C   0  0  0  0  0  0  0  0  0  0  0  0
   -1.7454   -2.8698   15.6820 C   0  0  0  0  0  0  0  0  0  0  0  0
   -0.3904   -2.6103   15.8138 C   0  0  0  0  0  0  0  0  0  0  0  0
    0.2204   -1.5845   15.0865 C   0  0  0  0  0  0  0  0  0  0  0  0
    1.6042   -1.3599   15.3206 N   0  0  0  0  0  0  0  0  0  0  0  0
    2.5373   -0.4464   14.7592 C   0  0  0  0  0  0  0  0  0  0  0  0
    2.1833    0.3714   13.7220 N   0  0  0  0  0  0  0  0  0  0  0  0
    3.1157    1.2390   13.2179 C   0  0  0  0  0  0  0  0  0  0  0  0
    4.4197    1.2848   13.7036 C   0  0  0  0  0  0  0  0  0  0  0  0
    4.7466    0.4890   14.7613 N   0  0  0  0  0  0  0  0  0  0  0  0
    5.8976    0.3767   15.4867 C   0  0  0  0  0  0  0  0  0  0  0  0
    5.5868   -0.5220   16.5302 C   0  0  0  0  0  0  0  0  0  0  0  0
    4.3755   -1.0422   16.3738 N   0  0  0  0  0  0  0  0  0  0  0  0
    3.8369   -0.3923   15.3263 C   0  0  0  0  0  0  0  0  0  0  0  0
    2.6420    2.1628   12.1182 C   0  0  0  0  0  0  0  0  0  0  0  0
    3.5476    2.6405   11.1603 C   0  0  0  0  0  0  0  0  0  0  0  0
    3.1538    3.4680   10.0985 C   0  0  0  0  0  0  0  0  0  0  0  0
    1.8053    3.8044   10.0318 C   0  0  0  0  0  0  0  0  0  0  0  0
    1.0883    4.5643    9.1320 N   0  0  0  0  0  0  0  0  0  0  0  0
   -0.2025    4.6328    9.4561 N   0  0  0  0  0  0  0  0  0  0  0  0
   -0.3779    3.9489   10.5598 C   0  0  0  0  0  0  0  0  0  0  0  0
    0.8670    3.3654   10.9941 C   0  0  0  0  0  0  0  0  0  0  0  0
    1.2880    2.5471   12.0527 C   0  0  0  0  0  0  0  0  0  0  0  0
   -0.5552   -0.8189   14.1923 C   0  0  0  0  0  0  0  0  0  0  0  0
   -1.9451   -1.0886   14.0616 C   0  0  0  0  0  0  0  0  0  0  0  0
   -2.7540   -0.3570   13.2047 O   0  0  0  0  0  0  0  0  0  0  0  0
   -2.2335    0.6444   12.3522 C   0  0  0  0  0  0  0  0  0  0  0  0
   -5.3466   -3.2526   13.5753 H   0  0  0  0  0  0  0  0  0  0  0  0
   -3.9666   -2.5545   12.6618 H   0  0  0  0  0  0  0  0  0  0  0  0
   -3.7535   -4.0822   13.5824 H   0  0  0  0  0  0  0  0  0  0  0  0
   -2.1977   -3.6662   16.2544 H   0  0  0  0  0  0  0  0  0  0  0  0
    0.2027   -3.2097   16.4886 H   0  0  0  0  0  0  0  0  0  0  0  0
    1.9979   -1.9617   16.0155 H   0  0  0  0  0  0  0  0  0  0  0  0
    5.1548    1.9353   13.2532 H   0  0  0  0  0  0  0  0  0  0  0  0
    6.8412    0.8686   15.3023 H   0  0  0  0  0  0  0  0  0  0  0  0
    6.2493   -0.7562   17.3503 H   0  0  0  0  0  0  0  0  0  0  0  0
    4.5874    2.3608   11.2432 H   0  0  0  0  0  0  0  0  0  0  0  0
    3.8633    3.8269    9.3676 H   0  0  0  0  0  0  0  0  0  0  0  0
   -0.7571    4.6194   11.3450 H   0  0  0  0  0  0  0  0  0  0  0  0
   -1.1092    3.1478   10.3772 H   0  0  0  0  0  0  0  0  0  0  0  0
    0.5864    2.2173   12.8046 H   0  0  0  0  0  0  0  0  0  0  0  0
   -0.0968   -0.0329   13.6105 H   0  0  0  0  0  0  0  0  0  0  0  0
   -3.0514    1.0896   11.7666 H   0  0  0  0  0  0  0  0  0  0  0  0
   -1.7486    1.4249   12.9569 H   0  0  0  0  0  0  0  0  0  0  0  0
   -1.4953    0.1976   11.6700 H   0  0  0  0  0  0  0  0  0  0  0  0
  1  2  1  0  0  0  0
  2  3  1  0  0  0  0
  3  4  2  0  0  0  0
  3 27  1  0  0  0  0
  4  5  1  0  0  0  0
  5  6  2  0  0  0  0
  6  7  1  0  0  0  0
  6 26  1  0  0  0  0
  7  8  1  0  0  0  0
  8  9  2  0  0  0  0
  8 16  1  0  0  0  0
  9 10  1  0  0  0  0
 10 11  2  0  0  0  0
 10 17  1  0  0  0  0
 11 12  1  0  0  0  0
 12 13  1  0  0  0  0
 12 16  1  0  0  0  0
 13 14  2  0  0  0  0
 14 15  1  0  0  0  0
 15 16  2  0  0  0  0
 17 18  2  0  0  0  0
 17 25  1  0  0  0  0
 18 19  1  0  0  0  0
 19 20  2  0  0  0  0
 20 21  1  0  0  0  0
 20 24  1  0  0  0  0
 21 22  2  0  0  0  0
 22 23  1  0  0  0  0
 23 24  1  0  0  0  0
 24 25  2  0  0  0  0
 26 27  2  0  0  0  0
 27 28  1  0  0  0  0
 28 29  1  0  0  0  0
  1 30  1  0  0  0  0
  1 31  1  0  0  0  0
  1 32  1  0  0  0  0
  4 33  1  0  0  0  0
  5 34  1  0  0  0  0
  7 35  1  0  0  0  0
 11 36  1  0  0  0  0
 13 37  1  0  0  0  0
 14 38  1  0  0  0  0
 18 39  1  0  0  0  0
 19 40  1  0  0  0  0
 23 41  1  0  0  0  0
 23 42  1  0  0  0  0
 25 43  1  0  0  0  0
 26 44  1  0  0  0  0
 29 45  1  0  0  0  0
 29 46  1  0  0  0  0
 29 47  1  0  0  0  0
M  END
> <IC50[nM]>
10.4

$$$$
CHEMBL3265021
  -OEChem-05192314333D
 Structure written by MMmdl.
 47 51  0     0  0  0  0  0  0999 V2000
   -4.2567   -3.1041   13.5694 C   0  0  0  0  0  0  0  0  0  0  0  0
   -3.8737   -2.3599   14.7156 O   0  0  0  0  0  0  0  0  0  0  0  0
   -2.5258   -2.1107   14.8171 C   0  0  0  0  0  0  0  0  0  0  0  0
   -1.7454   -2.8698   15.6820 C   0  0  0  0  0  0  0  0  0  0  0  0
   -0.3904   -2.6103   15.8138 C   0  0  0  0  0  0  0  0  0  0  0  0
    0.2204   -1.5845   15.0865 C   0  0  0  0  0  0  0  0  0  0  0  0
    1.6042   -1.3599   15.3206 N   0  0  0  0  0  0  0  0  0  0  0  0
    2.5373   -0.4464   14.7592 C   0  0  0  0  0  0  0  0  0  0  0  0
    2.1833    0.3714   13.7220 N   0  0  0  0  0  0  0  0  0  0  0  0
    3.1157    1.2390   13.2179 C   0  0  0  0  0  0  0  0  0  0  0  0
    4.4197    1.2848   13.7036 C   0  0  0  0  0  0  0  0  0  0  0  0
    4.7466    0.4890   14.7613 N   0  0  0  0  0  0  0  0  0  0  0  0
    5.8976    0.3767   15.4867 C   0  0  0  0  0  0  0  0  0  0  0  0
    5.5868   -0.5220   16.5302 C   0  0  0  0  0  0  0  0  0  0  0  0
    4.3755   -1.0422   16.3738 N   0  0  0  0  0  0  0  0  0  0  0  0
    3.8369   -0.3923   15.3263 C   0  0  0  0  0  0  0  0  0  0  0  0
    2.6420    2.1628   12.1182 C   0  0  0  0  0  0  0  0  0  0  0  0
    3.5476    2.6405   11.1603 C   0  0  0  0  0  0  0  0  0  0  0  0
    3.1538    3.4680   10.0985 C   0  0  0  0  0  0  0  0  0  0  0  0
    1.8053    3.8044   10.0318 C   0  0  0  0  0  0  0  0  0  0  0  0
    1.0883    4.5643    9.1320 N   0  0  0  0  0  0  0  0  0  0  0  0
   -0.2025    4.6328    9.4561 N   0  0  0  0  0  0  0  0  0  0  0  0
   -0.3779    3.9489   10.5598 C   0  0  0  0  0  0  0  0  0  0  0  0
    0.8670    3.3654   10.9941 C   0  0  0  0  0  0  0  0  0  0  0  0
    1.2880    2.5471   12.0527 C   0  0  0  0  0  0  0  0  0  0  0  0
   -0.5552   -0.8189   14.1923 C   0  0  0  0  0  0  0  0  0  0  0  0
   -1.9451   -1.0886   14.0616 C   0  0  0  0  0  0  0  0  0  0  0  0
   -2.7540   -0.3570   13.2047 O   0  0  0  0  0  0  0  0  0  0  0  0
   -2.2335    0.6444   12.3522 C   0  0  0  0  0  0  0  0  0  0  0  0
   -5.3466   -3.2526   13.5753 H   0  0  0  0  0  0  0  0  0  0  0  0
   -3.9666   -2.5545   12.6618 H   0  0  0  0  0  0  0  0  0  0  0  0
   -3.7535   -4.0822   13.5824 H   0  0  0  0  0  0  0  0  0  0  0  0
   -2.1977   -3.6662   16.2544 H   0  0  0  0  0  0  0  0  0  0  0  0
    0.2027   -3.2097   16.4886 H   0  0  0  0  0  0  0  0  0  0  0  0
    1.2604    0.3367   13.3385 H   0  0  0  0  0  0  0  0  0  0  0  0
    5.1548    1.9353   13.2532 H   0  0  0  0  0  0  0  0  0  0  0  0
    6.8412    0.8686   15.3023 H   0  0  0  0  0  0  0  0  0  0  0  0
    6.2493   -0.7562   17.3503 H   0  0  0  0  0  0  0  0  0  0  0  0
    4.5874    2.3608   11.2432 H   0  0  0  0  0  0  0  0  0  0  0  0
    3.8633    3.8269    9.3676 H   0  0  0  0  0  0  0  0  0  0  0  0
   -0.7571    4.6194   11.3450 H   0  0  0  0  0  0  0  0  0  0  0  0
   -1.1092    3.1478   10.3772 H   0  0  0  0  0  0  0  0  0  0  0  0
    0.5864    2.2173   12.8046 H   0  0  0  0  0  0  0  0  0  0  0  0
   -0.0968   -0.0329   13.6105 H   0  0  0  0  0  0  0  0  0  0  0  0
   -3.0514    1.0896   11.7666 H   0  0  0  0  0  0  0  0  0  0  0  0
   -1.7486    1.4249   12.9569 H   0  0  0  0  0  0  0  0  0  0  0  0
   -1.4953    0.1976   11.6700 H   0  0  0  0  0  0  0  0  0  0  0  0
  1  2  1  0  0  0  0
  2  3  1  0  0  0  0
  3  4  2  0  0  0  0
  3 27  1  0  0  0  0
  4  5  1  0  0  0  0
  5  6  2  0  0  0  0
  6  7  1  0  0  0  0
  6 26  1  0  0  0  0
  7  8  2  0  0  0  0
  8  9  1  0  0  0  0
  8 16  1  0  0  0  0
  9 10  1  0  0  0  0
 10 11  2  0  0  0  0
 10 17  1  0  0  0  0
 11 12  1  0  0  0  0
 12 13  1  0  0  0  0
 12 16  1  0  0  0  0
 13 14  2  0  0  0  0
 14 15  1  0  0  0  0
 15 16  2  0  0  0  0
 17 18  2  0  0  0  0
 17 25  1  0  0  0  0
 18 19  1  0  0  0  0
 19 20  2  0  0  0  0
 20 21  1  0  0  0  0
 20 24  1  0  0  0  0
 21 22  2  0  0  0  0
 22 23  1  0  0  0  0
 23 24  1  0  0  0  0
 24 25  2  0  0  0  0
 26 27  2  0  0  0  0
 27 28  1  0  0  0  0
 28 29  1  0  0  0  0
  1 30  1  0  0  0  0
  1 31  1  0  0  0  0
  1 32  1  0  0  0  0
  4 33  1  0  0  0  0
  5 34  1  0  0  0  0
  9 35  1  0  0  0  0
 11 36  1  0  0  0  0
 13 37  1  0  0  0  0
 14 38  1  0  0  0  0
 18 39  1  0  0  0  0
 19 40  1  0  0  0  0
 23 41  1  0  0  0  0
 23 42  1  0  0  0  0
 25 43  1  0  0  0  0
 26 44  1  0  0  0  0
 29 45  1  0  0  0  0
 29 46  1  0  0  0  0
 29 47  1  0  0  0  0
M  END
> <IC50[nM]>
10.4

$$$$
CHEMBL3265021
  -OEChem-05192314333D
 Structure written by MMmdl.
 47 51  0     0  0  0  0  0  0999 V2000
   -4.2567   -3.1041   13.5694 C   0  0  0  0  0  0  0  0  0  0  0  0
   -3.8737   -2.3599   14.7156 O   0  0  0  0  0  0  0  0  0  0  0  0
   -2.5258   -2.1107   14.8171 C   0  0  0  0  0  0  0  0  0  0  0  0
   -1.7454   -2.8698   15.6820 C   0  0  0  0  0  0  0  0  0  0  0  0
   -0.3904   -2.6103   15.8138 C   0  0  0  0  0  0  0  0  0  0  0  0
    0.2204   -1.5845   15.0865 C   0  0  0  0  0  0  0  0  0  0  0  0
    1.6042   -1.3599   15.3206 N   0  0  0  0  0  0  0  0  0  0  0  0
    2.5373   -0.4464   14.7592 C   0  0  0  0  0  0  0  0  0  0  0  0
    2.1833    0.3714   13.7220 N   0  0  0  0  0  0  0  0  0  0  0  0
    3.1157    1.2390   13.2179 C   0  0  0  0  0  0  0  0  0  0  0  0
    4.4197    1.2848   13.7036 C   0  0  0  0  0  0  0  0  0  0  0  0
    4.7466    0.4890   14.7613 N   0  0  0  0  0  0  0  0  0  0  0  0
    5.8976    0.3767   15.4867 C   0  0  0  0  0  0  0  0  0  0  0  0
    5.5868   -0.5220   16.5302 C   0  0  0  0  0  0  0  0  0  0  0  0
    4.3755   -1.0422   16.3738 N   0  0  0  0  0  0  0  0  0  0  0  0
    3.8369   -0.3923   15.3263 C   0  0  0  0  0  0  0  0  0  0  0  0
    2.6420    2.1628   12.1182 C   0  0  0  0  0  0  0  0  0  0  0  0
    3.5476    2.6405   11.1603 C   0  0  0  0  0  0  0  0  0  0  0  0
    3.1538    3.4680   10.0985 C   0  0  0  0  0  0  0  0  0  0  0  0
    1.8053    3.8044   10.0318 C   0  0  0  0  0  0  0  0  0  0  0  0
    1.0883    4.5643    9.1320 N   0  0  0  0  0  0  0  0  0  0  0  0
   -0.2025    4.6328    9.4561 N   0  0  0  0  0  0  0  0  0  0  0  0
   -0.3779    3.9489   10.5598 C   0  0  0  0  0  0  0  0  0  0  0  0
    0.8670    3.3654   10.9941 C   0  0  0  0  0  0  0  0  0  0  0  0
    1.2880    2.5471   12.0527 C   0  0  0  0  0  0  0  0  0  0  0  0
   -0.5552   -0.8189   14.1923 C   0  0  0  0  0  0  0  0  0  0  0  0
   -1.9451   -1.0886   14.0616 C   0  0  0  0  0  0  0  0  0  0  0  0
   -2.7540   -0.3570   13.2047 O   0  0  0  0  0  0  0  0  0  0  0  0
   -2.2335    0.6444   12.3522 C   0  0  0  0  0  0  0  0  0  0  0  0
   -5.3466   -3.2526   13.5753 H   0  0  0  0  0  0  0  0  0  0  0  0
   -3.9666   -2.5545   12.6618 H   0  0  0  0  0  0  0  0  0  0  0  0
   -3.7535   -4.0822   13.5824 H   0  0  0  0  0  0  0  0  0  0  0  0
   -2.1977   -3.6662   16.2544 H   0  0  0  0  0  0  0  0  0  0  0  0
    0.2027   -3.2097   16.4886 H   0  0  0  0  0  0  0  0  0  0  0  0
    5.0860    1.0107   12.8724 H   0  0  0  0  0  0  0  0  0  0  0  0
    4.6180    2.3239   14.0051 H   0  0  0  0  0  0  0  0  0  0  0  0
    6.8412    0.8686   15.3023 H   0  0  0  0  0  0  0  0  0  0  0  0
    6.2493   -0.7562   17.3503 H   0  0  0  0  0  0  0  0  0  0  0  0
    4.5874    2.3608   11.2432 H   0  0  0  0  0  0  0  0  0  0  0  0
    3.8633    3.8269    9.3676 H   0  0  0  0  0  0  0  0  0  0  0  0
    1.4890    5.0107    8.3319 H   0  0  0  0  0  0  0  0  0  0  0  0
   -1.3221    3.8379   11.0722 H   0  0  0  0  0  0  0  0  0  0  0  0
    0.5864    2.2173   12.8046 H   0  0  0  0  0  0  0  0  0  0  0  0
   -0.0968   -0.0329   13.6105 H   0  0  0  0  0  0  0  0  0  0  0  0
   -3.0514    1.0896   11.7666 H   0  0  0  0  0  0  0  0  0  0  0  0
   -1.7486    1.4249   12.9569 H   0  0  0  0  0  0  0  0  0  0  0  0
   -1.4953    0.1976   11.6700 H   0  0  0  0  0  0  0  0  0  0  0  0
  1  2  1  0  0  0  0
  2  3  1  0  0  0  0
  3  4  2  0  0  0  0
  3 27  1  0  0  0  0
  4  5  1  0  0  0  0
  5  6  2  0  0  0  0
  6  7  1  0  0  0  0
  6 26  1  0  0  0  0
  7  8  2  0  0  0  0
  8  9  1  0  0  0  0
  8 16  1  0  0  0  0
  9 10  2  0  0  0  0
 10 11  1  0  0  0  0
 10 17  1  0  0  0  0
 11 12  1  0  0  0  0
 12 13  1  0  0  0  0
 12 16  1  0  0  0  0
 13 14  2  0  0  0  0
 14 15  1  0  0  0  0
 15 16  2  0  0  0  0
 17 18  2  0  0  0  0
 17 25  1  0  0  0  0
 18 19  1  0  0  0  0
 19 20  2  0  0  0  0
 20 21  1  0  0  0  0
 20 24  1  0  0  0  0
 21 22  1  0  0  0  0
 22 23  2  0  0  0  0
 23 24  1  0  0  0  0
 24 25  2  0  0  0  0
 26 27  2  0  0  0  0
 27 28  1  0  0  0  0
 28 29  1  0  0  0  0
  1 30  1  0  0  0  0
  1 31  1  0  0  0  0
  1 32  1  0  0  0  0
  4 33  1  0  0  0  0
  5 34  1  0  0  0  0
 11 35  1  0  0  0  0
 11 36  1  0  0  0  0
 13 37  1  0  0  0  0
 14 38  1  0  0  0  0
 18 39  1  0  0  0  0
 19 40  1  0  0  0  0
 21 41  1  0  0  0  0
 23 42  1  0  0  0  0
 25 43  1  0  0  0  0
 26 44  1  0  0  0  0
 29 45  1  0  0  0  0
 29 46  1  0  0  0  0
 29 47  1  0  0  0  0
M  END
> <IC50[nM]>
10.4

$$$$
CHEMBL3265021
  -OEChem-05192314333D
 Structure written by MMmdl.
 47 51  0     0  0  0  0  0  0999 V2000
   -4.2567   -3.1041   13.5694 C   0  0  0  0  0  0  0  0  0  0  0  0
   -3.8737   -2.3599   14.7156 O   0  0  0  0  0  0  0  0  0  0  0  0
   -2.5258   -2.1107   14.8171 C   0  0  0  0  0  0  0  0  0  0  0  0
   -1.7454   -2.8698   15.6820 C   0  0  0  0  0  0  0  0  0  0  0  0
   -0.3904   -2.6103   15.8138 C   0  0  0  0  0  0  0  0  0  0  0  0
    0.2204   -1.5845   15.0865 C   0  0  0  0  0  0  0  0  0  0  0  0
    1.6042   -1.3599   15.3206 N   0  0  0  0  0  0  0  0  0  0  0  0
    2.5373   -0.4464   14.7592 C   0  0  0  0  0  0  0  0  0  0  0  0
    2.1833    0.3714   13.7220 N   0  0  0  0  0  0  0  0  0  0  0  0
    3.1157    1.2390   13.2179 C   0  0  0  0  0  0  0  0  0  0  0  0
    4.4197    1.2848   13.7036 C   0  0  0  0  0  0  0  0  0  0  0  0
    4.7466    0.4890   14.7613 N   0  0  0  0  0  0  0  0  0  0  0  0
    5.8976    0.3767   15.4867 C   0  0  0  0  0  0  0  0  0  0  0  0
    5.5868   -0.5220   16.5302 C   0  0  0  0  0  0  0  0  0  0  0  0
    4.3755   -1.0422   16.3738 N   0  0  0  0  0  0  0  0  0  0  0  0
    3.8369   -0.3923   15.3263 C   0  0  0  0  0  0  0  0  0  0  0  0
    2.6420    2.1628   12.1182 C   0  0  0  0  0  0  0  0  0  0  0  0
    3.5476    2.6405   11.1603 C   0  0  0  0  0  0  0  0  0  0  0  0
    3.1538    3.4680   10.0985 C   0  0  0  0  0  0  0  0  0  0  0  0
    1.8053    3.8044   10.0318 C   0  0  0  0  0  0  0  0  0  0  0  0
    1.0883    4.5643    9.1320 N   0  0  0  0  0  0  0  0  0  0  0  0
   -0.2025    4.6328    9.4561 N   0  0  0  0  0  0  0  0  0  0  0  0
   -0.3779    3.9489   10.5598 C   0  0  0  0  0  0  0  0  0  0  0  0
    0.8670    3.3654   10.9941 C   0  0  0  0  0  0  0  0  0  0  0  0
    1.2880    2.5471   12.0527 C   0  0  0  0  0  0  0  0  0  0  0  0
   -0.5552   -0.8189   14.1923 C   0  0  0  0  0  0  0  0  0  0  0  0
   -1.9451   -1.0886   14.0616 C   0  0  0  0  0  0  0  0  0  0  0  0
   -2.7540   -0.3570   13.2047 O   0  0  0  0  0  0  0  0  0  0  0  0
   -2.2335    0.6444   12.3522 C   0  0  0  0  0  0  0  0  0  0  0  0
   -5.3466   -3.2526   13.5753 H   0  0  0  0  0  0  0  0  0  0  0  0
   -3.9666   -2.5545   12.6618 H   0  0  0  0  0  0  0  0  0  0  0  0
   -3.7535   -4.0822   13.5824 H   0  0  0  0  0  0  0  0  0  0  0  0
   -2.1977   -3.6662   16.2544 H   0  0  0  0  0  0  0  0  0  0  0  0
    0.2027   -3.2097   16.4886 H   0  0  0  0  0  0  0  0  0  0  0  0
    5.0860    1.0107   12.8724 H   0  0  0  0  0  0  0  0  0  0  0  0
    4.6180    2.3239   14.0051 H   0  0  0  0  0  0  0  0  0  0  0  0
    6.8412    0.8686   15.3023 H   0  0  0  0  0  0  0  0  0  0  0  0
    6.2493   -0.7562   17.3503 H   0  0  0  0  0  0  0  0  0  0  0  0
    4.5874    2.3608   11.2432 H   0  0  0  0  0  0  0  0  0  0  0  0
    3.8633    3.8269    9.3676 H   0  0  0  0  0  0  0  0  0  0  0  0
   -0.9119    5.1201    8.9469 H   0  0  0  0  0  0  0  0  0  0  0  0
   -1.3221    3.8379   11.0722 H   0  0  0  0  0  0  0  0  0  0  0  0
    0.5864    2.2173   12.8046 H   0  0  0  0  0  0  0  0  0  0  0  0
   -0.0968   -0.0329   13.6105 H   0  0  0  0  0  0  0  0  0  0  0  0
   -3.0514    1.0896   11.7666 H   0  0  0  0  0  0  0  0  0  0  0  0
   -1.7486    1.4249   12.9569 H   0  0  0  0  0  0  0  0  0  0  0  0
   -1.4953    0.1976   11.6700 H   0  0  0  0  0  0  0  0  0  0  0  0
  1  2  1  0  0  0  0
  2  3  1  0  0  0  0
  3  4  2  0  0  0  0
  3 27  1  0  0  0  0
  4  5  1  0  0  0  0
  5  6  2  0  0  0  0
  6  7  1  0  0  0  0
  6 26  1  0  0  0  0
  7  8  2  0  0  0  0
  8  9  1  0  0  0  0
  8 16  1  0  0  0  0
  9 10  2  0  0  0  0
 10 11  1  0  0  0  0
 10 17  1  0  0  0  0
 11 12  1  0  0  0  0
 12 13  1  0  0  0  0
 12 16  1  0  0  0  0
 13 14  2  0  0  0  0
 14 15  1  0  0  0  0
 15 16  2  0  0  0  0
 17 18  1  0  0  0  0
 17 25  2  0  0  0  0
 18 19  2  0  0  0  0
 19 20  1  0  0  0  0
 20 21  2  0  0  0  0
 20 24  1  0  0  0  0
 21 22  1  0  0  0  0
 22 23  1  0  0  0  0
 23 24  2  0  0  0  0
 24 25  1  0  0  0  0
 26 27  2  0  0  0  0
 27 28  1  0  0  0  0
 28 29  1  0  0  0  0
  1 30  1  0  0  0  0
  1 31  1  0  0  0  0
  1 32  1  0  0  0  0
  4 33  1  0  0  0  0
  5 34  1  0  0  0  0
 11 35  1  0  0  0  0
 11 36  1  0  0  0  0
 13 37  1  0  0  0  0
 14 38  1  0  0  0  0
 18 39  1  0  0  0  0
 19 40  1  0  0  0  0
 22 41  1  0  0  0  0
 23 42  1  0  0  0  0
 25 43  1  0  0  0  0
 26 44  1  0  0  0  0
 29 45  1  0  0  0  0
 29 46  1  0  0  0  0
 29 47  1  0  0  0  0
M  END
> <IC50[nM]>
10.4

$$$$
CHEMBL3265021
  -OEChem-05192314333D
 Structure written by MMmdl.
 47 51  0     1  0  0  0  0  0999 V2000
   -4.2567   -3.1041   13.5694 C   0  0  0  0  0  0  0  0  0  0  0  0
   -3.8737   -2.3599   14.7156 O   0  0  0  0  0  0  0  0  0  0  0  0
   -2.5258   -2.1107   14.8171 C   0  0  3  0  0  0  0  0  0  0  0  0
   -1.7454   -2.8698   15.6820 C   0  0  0  0  0  0  0  0  0  0  0  0
   -0.3904   -2.6103   15.8138 C   0  0  0  0  0  0  0  0  0  0  0  0
    0.2204   -1.5845   15.0865 C   0  0  0  0  0  0  0  0  0  0  0  0
    1.6042   -1.3599   15.3206 N   0  0  0  0  0  0  0  0  0  0  0  0
    2.5373   -0.4464   14.7592 C   0  0  0  0  0  0  0  0  0  0  0  0
    2.1833    0.3714   13.7220 N   0  0  0  0  0  0  0  0  0  0  0  0
    3.1157    1.2390   13.2179 C   0  0  0  0  0  0  0  0  0  0  0  0
    4.4197    1.2848   13.7036 C   0  0  0  0  0  0  0  0  0  0  0  0
    4.7466    0.4890   14.7613 N   0  0  0  0  0  0  0  0  0  0  0  0
    5.8976    0.3767   15.4867 C   0  0  0  0  0  0  0  0  0  0  0  0
    5.5868   -0.5220   16.5302 C   0  0  0  0  0  0  0  0  0  0  0  0
    4.3755   -1.0422   16.3738 N   0  0  0  0  0  0  0  0  0  0  0  0
    3.8369   -0.3923   15.3263 C   0  0  0  0  0  0  0  0  0  0  0  0
    2.6420    2.1628   12.1182 C   0  0  0  0  0  0  0  0  0  0  0  0
    3.5476    2.6405   11.1603 C   0  0  0  0  0  0  0  0  0  0  0  0
    3.1538    3.4680   10.0985 C   0  0  0  0  0  0  0  0  0  0  0  0
    1.8053    3.8044   10.0318 C   0  0  0  0  0  0  0  0  0  0  0  0
    1.0883    4.5643    9.1320 N   0  0  0  0  0  0  0  0  0  0  0  0
   -0.2025    4.6328    9.4561 N   0  0  0  0  0  0  0  0  0  0  0  0
   -0.3779    3.9489   10.5598 C   0  0  0  0  0  0  0  0  0  0  0  0
    0.8670    3.3654   10.9941 C   0  0  0  0  0  0  0  0  0  0  0  0
    1.2880    2.5471   12.0527 C   0  0  0  0  0  0  0  0  0  0  0  0
   -0.5552   -0.8189   14.1923 C   0  0  0  0  0  0  0  0  0  0  0  0
   -1.9451   -1.0886   14.0616 C   0  0  0  0  0  0  0  0  0  0  0  0
   -2.7540   -0.3570   13.2047 O   0  0  0  0  0  0  0  0  0  0  0  0
   -2.2335    0.6444   12.3522 C   0  0  0  0  0  0  0  0  0  0  0  0
   -5.3466   -3.2526   13.5753 H   0  0  0  0  0  0  0  0  0  0  0  0
   -3.9666   -2.5545   12.6618 H   0  0  0  0  0  0  0  0  0  0  0  0
   -3.7535   -4.0822   13.5824 H   0  0  0  0  0  0  0  0  0  0  0  0
   -2.3289   -2.8268   14.0057 H   0  0  0  0  0  0  0  0  0  0  0  0
   -2.1977   -3.6662   16.2544 H   0  0  0  0  0  0  0  0  0  0  0  0
    0.2027   -3.2097   16.4886 H   0  0  0  0  0  0  0  0  0  0  0  0
    5.1548    1.9353   13.2532 H   0  0  0  0  0  0  0  0  0  0  0  0
    6.8412    0.8686   15.3023 H   0  0  0  0  0  0  0  0  0  0  0  0
    6.2493   -0.7562   17.3503 H   0  0  0  0  0  0  0  0  0  0  0  0
    4.5874    2.3608   11.2432 H   0  0  0  0  0  0  0  0  0  0  0  0
    3.8633    3.8269    9.3676 H   0  0  0  0  0  0  0  0  0  0  0  0
    1.4890    5.0107    8.3319 H   0  0  0  0  0  0  0  0  0  0  0  0
   -1.3221    3.8379   11.0722 H   0  0  0  0  0  0  0  0  0  0  0  0
    0.5864    2.2173   12.8046 H   0  0  0  0  0  0  0  0  0  0  0  0
   -0.0968   -0.0329   13.6105 H   0  0  0  0  0  0  0  0  0  0  0  0
   -3.0514    1.0896   11.7666 H   0  0  0  0  0  0  0  0  0  0  0  0
   -1.7486    1.4249   12.9569 H   0  0  0  0  0  0  0  0  0  0  0  0
   -1.4953    0.1976   11.6700 H   0  0  0  0  0  0  0  0  0  0  0  0
  1  2  1  0  0  0  0
  2  3  1  0  0  0  0
  3  4  1  0  0  0  0
  3 27  1  0  0  0  0
  4  5  2  0  0  0  0
  5  6  1  0  0  0  0
  6  7  2  0  0  0  0
  6 26  1  0  0  0  0
  7  8  1  0  0  0  0
  8  9  2  0  0  0  0
  8 16  1  0  0  0  0
  9 10  1  0  0  0  0
 10 11  2  0  0  0  0
 10 17  1  0  0  0  0
 11 12  1  0  0  0  0
 12 13  1  0  0  0  0
 12 16  1  0  0  0  0
 13 14  2  0  0  0  0
 14 15  1  0  0  0  0
 15 16  2  0  0  0  0
 17 18  2  0  0  0  0
 17 25  1  0  0  0  0
 18 19  1  0  0  0  0
 19 20  2  0  0  0  0
 20 21  1  0  0  0  0
 20 24  1  0  0  0  0
 21 22  1  0  0  0  0
 22 23  2  0  0  0  0
 23 24  1  0  0  0  0
 24 25  2  0  0  0  0
 26 27  2  0  0  0  0
 27 28  1  0  0  0  0
 28 29  1  0  0  0  0
  1 30  1  0  0  0  0
  1 31  1  0  0  0  0
  1 32  1  0  0  0  0
  3 33  1  0  0  0  0
  4 34  1  0  0  0  0
  5 35  1  0  0  0  0
 11 36  1  0  0  0  0
 13 37  1  0  0  0  0
 14 38  1  0  0  0  0
 18 39  1  0  0  0  0
 19 40  1  0  0  0  0
 21 41  1  0  0  0  0
 23 42  1  0  0  0  0
 25 43  1  0  0  0  0
 26 44  1  0  0  0  0
 29 45  1  0  0  0  0
 29 46  1  0  0  0  0
 29 47  1  0  0  0  0
M  END
> <IC50[nM]>
10.4

$$$$
CHEMBL3265021
  -OEChem-05192314333D
 Structure written by MMmdl.
 47 51  0     1  0  0  0  0  0999 V2000
   -4.2567   -3.1041   13.5694 C   0  0  0  0  0  0  0  0  0  0  0  0
   -3.8737   -2.3599   14.7156 O   0  0  0  0  0  0  0  0  0  0  0  0
   -2.5258   -2.1107   14.8171 C   0  0  3  0  0  0  0  0  0  0  0  0
   -1.7454   -2.8698   15.6820 C   0  0  0  0  0  0  0  0  0  0  0  0
   -0.3904   -2.6103   15.8138 C   0  0  0  0  0  0  0  0  0  0  0  0
    0.2204   -1.5845   15.0865 C   0  0  0  0  0  0  0  0  0  0  0  0
    1.6042   -1.3599   15.3206 N   0  0  0  0  0  0  0  0  0  0  0  0
    2.5373   -0.4464   14.7592 C   0  0  0  0  0  0  0  0  0  0  0  0
    2.1833    0.3714   13.7220 N   0  0  0  0  0  0  0  0  0  0  0  0
    3.1157    1.2390   13.2179 C   0  0  0  0  0  0  0  0  0  0  0  0
    4.4197    1.2848   13.7036 C   0  0  0  0  0  0  0  0  0  0  0  0
    4.7466    0.4890   14.7613 N   0  0  0  0  0  0  0  0  0  0  0  0
    5.8976    0.3767   15.4867 C   0  0  0  0  0  0  0  0  0  0  0  0
    5.5868   -0.5220   16.5302 C   0  0  0  0  0  0  0  0  0  0  0  0
    4.3755   -1.0422   16.3738 N   0  0  0  0  0  0  0  0  0  0  0  0
    3.8369   -0.3923   15.3263 C   0  0  0  0  0  0  0  0  0  0  0  0
    2.6420    2.1628   12.1182 C   0  0  0  0  0  0  0  0  0  0  0  0
    3.5476    2.6405   11.1603 C   0  0  0  0  0  0  0  0  0  0  0  0
    3.1538    3.4680   10.0985 C   0  0  0  0  0  0  0  0  0  0  0  0
    1.8053    3.8044   10.0318 C   0  0  0  0  0  0  0  0  0  0  0  0
    1.0883    4.5643    9.1320 N   0  0  0  0  0  0  0  0  0  0  0  0
   -0.2025    4.6328    9.4561 N   0  0  0  0  0  0  0  0  0  0  0  0
   -0.3779    3.9489   10.5598 C   0  0  0  0  0  0  0  0  0  0  0  0
    0.8670    3.3654   10.9941 C   0  0  0  0  0  0  0  0  0  0  0  0
    1.2880    2.5471   12.0527 C   0  0  0  0  0  0  0  0  0  0  0  0
   -0.5552   -0.8189   14.1923 C   0  0  0  0  0  0  0  0  0  0  0  0
   -1.9451   -1.0886   14.0616 C   0  0  0  0  0  0  0  0  0  0  0  0
   -2.7540   -0.3570   13.2047 O   0  0  0  0  0  0  0  0  0  0  0  0
   -2.2335    0.6444   12.3522 C   0  0  0  0  0  0  0  0  0  0  0  0
   -5.3466   -3.2526   13.5753 H   0  0  0  0  0  0  0  0  0  0  0  0
   -3.9666   -2.5545   12.6618 H   0  0  0  0  0  0  0  0  0  0  0  0
   -3.7535   -4.0822   13.5824 H   0  0  0  0  0  0  0  0  0  0  0  0
   -2.3289   -2.8268   14.0057 H   0  0  0  0  0  0  0  0  0  0  0  0
   -2.1977   -3.6662   16.2544 H   0  0  0  0  0  0  0  0  0  0  0  0
    0.2027   -3.2097   16.4886 H   0  0  0  0  0  0  0  0  0  0  0  0
    5.1548    1.9353   13.2532 H   0  0  0  0  0  0  0  0  0  0  0  0
    6.8412    0.8686   15.3023 H   0  0  0  0  0  0  0  0  0  0  0  0
    6.2493   -0.7562   17.3503 H   0  0  0  0  0  0  0  0  0  0  0  0
    4.5874    2.3608   11.2432 H   0  0  0  0  0  0  0  0  0  0  0  0
    3.8633    3.8269    9.3676 H   0  0  0  0  0  0  0  0  0  0  0  0
   -0.9119    5.1201    8.9469 H   0  0  0  0  0  0  0  0  0  0  0  0
   -1.3221    3.8379   11.0722 H   0  0  0  0  0  0  0  0  0  0  0  0
    0.5864    2.2173   12.8046 H   0  0  0  0  0  0  0  0  0  0  0  0
   -0.0968   -0.0329   13.6105 H   0  0  0  0  0  0  0  0  0  0  0  0
   -3.0514    1.0896   11.7666 H   0  0  0  0  0  0  0  0  0  0  0  0
   -1.7486    1.4249   12.9569 H   0  0  0  0  0  0  0  0  0  0  0  0
   -1.4953    0.1976   11.6700 H   0  0  0  0  0  0  0  0  0  0  0  0
  1  2  1  0  0  0  0
  2  3  1  0  0  0  0
  3  4  1  0  0  0  0
  3 27  1  0  0  0  0
  4  5  2  0  0  0  0
  5  6  1  0  0  0  0
  6  7  2  0  0  0  0
  6 26  1  0  0  0  0
  7  8  1  0  0  0  0
  8  9  2  0  0  0  0
  8 16  1  0  0  0  0
  9 10  1  0  0  0  0
 10 11  2  0  0  0  0
 10 17  1  0  0  0  0
 11 12  1  0  0  0  0
 12 13  1  0  0  0  0
 12 16  1  0  0  0  0
 13 14  2  0  0  0  0
 14 15  1  0  0  0  0
 15 16  2  0  0  0  0
 17 18  1  0  0  0  0
 17 25  2  0  0  0  0
 18 19  2  0  0  0  0
 19 20  1  0  0  0  0
 20 21  2  0  0  0  0
 20 24  1  0  0  0  0
 21 22  1  0  0  0  0
 22 23  1  0  0  0  0
 23 24  2  0  0  0  0
 24 25  1  0  0  0  0
 26 27  2  0  0  0  0
 27 28  1  0  0  0  0
 28 29  1  0  0  0  0
  1 30  1  0  0  0  0
  1 31  1  0  0  0  0
  1 32  1  0  0  0  0
  3 33  1  0  0  0  0
  4 34  1  0  0  0  0
  5 35  1  0  0  0  0
 11 36  1  0  0  0  0
 13 37  1  0  0  0  0
 14 38  1  0  0  0  0
 18 39  1  0  0  0  0
 19 40  1  0  0  0  0
 22 41  1  0  0  0  0
 23 42  1  0  0  0  0
 25 43  1  0  0  0  0
 26 44  1  0  0  0  0
 29 45  1  0  0  0  0
 29 46  1  0  0  0  0
 29 47  1  0  0  0  0
M  END
> <IC50[nM]>
10.4

$$$$
CHEMBL3265021
  -OEChem-05192314333D
 Structure written by MMmdl.
 47 51  0     0  0  0  0  0  0999 V2000
   -4.2567   -3.1041   13.5694 C   0  0  0  0  0  0  0  0  0  0  0  0
   -3.8737   -2.3599   14.7156 O   0  0  0  0  0  0  0  0  0  0  0  0
   -2.5258   -2.1107   14.8171 C   0  0  0  0  0  0  0  0  0  0  0  0
   -1.7454   -2.8698   15.6820 C   0  0  0  0  0  0  0  0  0  0  0  0
   -0.3904   -2.6103   15.8138 C   0  0  0  0  0  0  0  0  0  0  0  0
    0.2204   -1.5845   15.0865 C   0  0  0  0  0  0  0  0  0  0  0  0
    1.6042   -1.3599   15.3206 N   0  0  0  0  0  0  0  0  0  0  0  0
    2.5373   -0.4464   14.7592 C   0  0  0  0  0  0  0  0  0  0  0  0
    2.1833    0.3714   13.7220 N   0  0  0  0  0  0  0  0  0  0  0  0
    3.1157    1.2390   13.2179 C   0  0  0  0  0  0  0  0  0  0  0  0
    4.4197    1.2848   13.7036 C   0  0  0  0  0  0  0  0  0  0  0  0
    4.7466    0.4890   14.7613 N   0  0  0  0  0  0  0  0  0  0  0  0
    5.8976    0.3767   15.4867 C   0  0  0  0  0  0  0  0  0  0  0  0
    5.5868   -0.5220   16.5302 C   0  0  0  0  0  0  0  0  0  0  0  0
    4.3755   -1.0422   16.3738 N   0  0  0  0  0  0  0  0  0  0  0  0
    3.8369   -0.3923   15.3263 C   0  0  0  0  0  0  0  0  0  0  0  0
    2.6420    2.1628   12.1182 C   0  0  0  0  0  0  0  0  0  0  0  0
    3.5476    2.6405   11.1603 C   0  0  0  0  0  0  0  0  0  0  0  0
    3.1538    3.4680   10.0985 C   0  0  0  0  0  0  0  0  0  0  0  0
    1.8053    3.8044   10.0318 C   0  0  0  0  0  0  0  0  0  0  0  0
    1.0883    4.5643    9.1320 N   0  0  0  0  0  0  0  0  0  0  0  0
   -0.2025    4.6328    9.4561 N   0  0  0  0  0  0  0  0  0  0  0  0
   -0.3779    3.9489   10.5598 C   0  0  0  0  0  0  0  0  0  0  0  0
    0.8670    3.3654   10.9941 C   0  0  0  0  0  0  0  0  0  0  0  0
    1.2880    2.5471   12.0527 C   0  0  0  0  0  0  0  0  0  0  0  0
   -0.5552   -0.8189   14.1923 C   0  0  0  0  0  0  0  0  0  0  0  0
   -1.9451   -1.0886   14.0616 C   0  0  0  0  0  0  0  0  0  0  0  0
   -2.7540   -0.3570   13.2047 O   0  0  0  0  0  0  0  0  0  0  0  0
   -2.2335    0.6444   12.3522 C   0  0  0  0  0  0  0  0  0  0  0  0
   -5.3466   -3.2526   13.5753 H   0  0  0  0  0  0  0  0  0  0  0  0
   -3.9666   -2.5545   12.6618 H   0  0  0  0  0  0  0  0  0  0  0  0
   -3.7535   -4.0822   13.5824 H   0  0  0  0  0  0  0  0  0  0  0  0
   -2.1977   -3.6662   16.2544 H   0  0  0  0  0  0  0  0  0  0  0  0
   -0.2169   -2.3862   16.8767 H   0  0  0  0  0  0  0  0  0  0  0  0
    0.1335   -3.5393   15.5446 H   0  0  0  0  0  0  0  0  0  0  0  0
    5.1548    1.9353   13.2532 H   0  0  0  0  0  0  0  0  0  0  0  0
    6.8412    0.8686   15.3023 H   0  0  0  0  0  0  0  0  0  0  0  0
    6.2493   -0.7562   17.3503 H   0  0  0  0  0  0  0  0  0  0  0  0
    4.5874    2.3608   11.2432 H   0  0  0  0  0  0  0  0  0  0  0  0
    3.8633    3.8269    9.3676 H   0  0  0  0  0  0  0  0  0  0  0  0
    1.4890    5.0107    8.3319 H   0  0  0  0  0  0  0  0  0  0  0  0
   -1.3221    3.8379   11.0722 H   0  0  0  0  0  0  0  0  0  0  0  0
    0.5864    2.2173   12.8046 H   0  0  0  0  0  0  0  0  0  0  0  0
   -0.0968   -0.0329   13.6105 H   0  0  0  0  0  0  0  0  0  0  0  0
   -3.0514    1.0896   11.7666 H   0  0  0  0  0  0  0  0  0  0  0  0
   -1.7486    1.4249   12.9569 H   0  0  0  0  0  0  0  0  0  0  0  0
   -1.4953    0.1976   11.6700 H   0  0  0  0  0  0  0  0  0  0  0  0
  1  2  1  0  0  0  0
  2  3  1  0  0  0  0
  3  4  2  0  0  0  0
  3 27  1  0  0  0  0
  4  5  1  0  0  0  0
  5  6  1  0  0  0  0
  6  7  2  0  0  0  0
  6 26  1  0  0  0  0
  7  8  1  0  0  0  0
  8  9  2  0  0  0  0
  8 16  1  0  0  0  0
  9 10  1  0  0  0  0
 10 11  2  0  0  0  0
 10 17  1  0  0  0  0
 11 12  1  0  0  0  0
 12 13  1  0  0  0  0
 12 16  1  0  0  0  0
 13 14  2  0  0  0  0
 14 15  1  0  0  0  0
 15 16  2  0  0  0  0
 17 18  2  0  0  0  0
 17 25  1  0  0  0  0
 18 19  1  0  0  0  0
 19 20  2  0  0  0  0
 20 21  1  0  0  0  0
 20 24  1  0  0  0  0
 21 22  1  0  0  0  0
 22 23  2  0  0  0  0
 23 24  1  0  0  0  0
 24 25  2  0  0  0  0
 26 27  2  0  0  0  0
 27 28  1  0  0  0  0
 28 29  1  0  0  0  0
  1 30  1  0  0  0  0
  1 31  1  0  0  0  0
  1 32  1  0  0  0  0
  4 33  1  0  0  0  0
  5 34  1  0  0  0  0
  5 35  1  0  0  0  0
 11 36  1  0  0  0  0
 13 37  1  0  0  0  0
 14 38  1  0  0  0  0
 18 39  1  0  0  0  0
 19 40  1  0  0  0  0
 21 41  1  0  0  0  0
 23 42  1  0  0  0  0
 25 43  1  0  0  0  0
 26 44  1  0  0  0  0
 29 45  1  0  0  0  0
 29 46  1  0  0  0  0
 29 47  1  0  0  0  0
M  END
> <IC50[nM]>
10.4

$$$$
CHEMBL3265021
  -OEChem-05192314333D
 Structure written by MMmdl.
 47 51  0     0  0  0  0  0  0999 V2000
   -4.2567   -3.1041   13.5694 C   0  0  0  0  0  0  0  0  0  0  0  0
   -3.8737   -2.3599   14.7156 O   0  0  0  0  0  0  0  0  0  0  0  0
   -2.5258   -2.1107   14.8171 C   0  0  0  0  0  0  0  0  0  0  0  0
   -1.7454   -2.8698   15.6820 C   0  0  0  0  0  0  0  0  0  0  0  0
   -0.3904   -2.6103   15.8138 C   0  0  0  0  0  0  0  0  0  0  0  0
    0.2204   -1.5845   15.0865 C   0  0  0  0  0  0  0  0  0  0  0  0
    1.6042   -1.3599   15.3206 N   0  0  0  0  0  0  0  0  0  0  0  0
    2.5373   -0.4464   14.7592 C   0  0  0  0  0  0  0  0  0  0  0  0
    2.1833    0.3714   13.7220 N   0  0  0  0  0  0  0  0  0  0  0  0
    3.1157    1.2390   13.2179 C   0  0  0  0  0  0  0  0  0  0  0  0
    4.4197    1.2848   13.7036 C   0  0  0  0  0  0  0  0  0  0  0  0
    4.7466    0.4890   14.7613 N   0  0  0  0  0  0  0  0  0  0  0  0
    5.8976    0.3767   15.4867 C   0  0  0  0  0  0  0  0  0  0  0  0
    5.5868   -0.5220   16.5302 C   0  0  0  0  0  0  0  0  0  0  0  0
    4.3755   -1.0422   16.3738 N   0  0  0  0  0  0  0  0  0  0  0  0
    3.8369   -0.3923   15.3263 C   0  0  0  0  0  0  0  0  0  0  0  0
    2.6420    2.1628   12.1182 C   0  0  0  0  0  0  0  0  0  0  0  0
    3.5476    2.6405   11.1603 C   0  0  0  0  0  0  0  0  0  0  0  0
    3.1538    3.4680   10.0985 C   0  0  0  0  0  0  0  0  0  0  0  0
    1.8053    3.8044   10.0318 C   0  0  0  0  0  0  0  0  0  0  0  0
    1.0883    4.5643    9.1320 N   0  0  0  0  0  0  0  0  0  0  0  0
   -0.2025    4.6328    9.4561 N   0  0  0  0  0  0  0  0  0  0  0  0
   -0.3779    3.9489   10.5598 C   0  0  0  0  0  0  0  0  0  0  0  0
    0.8670    3.3654   10.9941 C   0  0  0  0  0  0  0  0  0  0  0  0
    1.2880    2.5471   12.0527 C   0  0  0  0  0  0  0  0  0  0  0  0
   -0.5552   -0.8189   14.1923 C   0  0  0  0  0  0  0  0  0  0  0  0
   -1.9451   -1.0886   14.0616 C   0  0  0  0  0  0  0  0  0  0  0  0
   -2.7540   -0.3570   13.2047 O   0  0  0  0  0  0  0  0  0  0  0  0
   -2.2335    0.6444   12.3522 C   0  0  0  0  0  0  0  0  0  0  0  0
   -5.3466   -3.2526   13.5753 H   0  0  0  0  0  0  0  0  0  0  0  0
   -3.9666   -2.5545   12.6618 H   0  0  0  0  0  0  0  0  0  0  0  0
   -3.7535   -4.0822   13.5824 H   0  0  0  0  0  0  0  0  0  0  0  0
   -2.1977   -3.6662   16.2544 H   0  0  0  0  0  0  0  0  0  0  0  0
   -0.2169   -2.3862   16.8767 H   0  0  0  0  0  0  0  0  0  0  0  0
    0.1335   -3.5393   15.5446 H   0  0  0  0  0  0  0  0  0  0  0  0
    5.1548    1.9353   13.2532 H   0  0  0  0  0  0  0  0  0  0  0  0
    6.8412    0.8686   15.3023 H   0  0  0  0  0  0  0  0  0  0  0  0
    6.2493   -0.7562   17.3503 H   0  0  0  0  0  0  0  0  0  0  0  0
    4.5874    2.3608   11.2432 H   0  0  0  0  0  0  0  0  0  0  0  0
    3.8633    3.8269    9.3676 H   0  0  0  0  0  0  0  0  0  0  0  0
   -0.9119    5.1201    8.9469 H   0  0  0  0  0  0  0  0  0  0  0  0
   -1.3221    3.8379   11.0722 H   0  0  0  0  0  0  0  0  0  0  0  0
    0.5864    2.2173   12.8046 H   0  0  0  0  0  0  0  0  0  0  0  0
   -0.0968   -0.0329   13.6105 H   0  0  0  0  0  0  0  0  0  0  0  0
   -3.0514    1.0896   11.7666 H   0  0  0  0  0  0  0  0  0  0  0  0
   -1.7486    1.4249   12.9569 H   0  0  0  0  0  0  0  0  0  0  0  0
   -1.4953    0.1976   11.6700 H   0  0  0  0  0  0  0  0  0  0  0  0
  1  2  1  0  0  0  0
  2  3  1  0  0  0  0
  3  4  2  0  0  0  0
  3 27  1  0  0  0  0
  4  5  1  0  0  0  0
  5  6  1  0  0  0  0
  6  7  2  0  0  0  0
  6 26  1  0  0  0  0
  7  8  1  0  0  0  0
  8  9  2  0  0  0  0
  8 16  1  0  0  0  0
  9 10  1  0  0  0  0
 10 11  2  0  0  0  0
 10 17  1  0  0  0  0
 11 12  1  0  0  0  0
 12 13  1  0  0  0  0
 12 16  1  0  0  0  0
 13 14  2  0  0  0  0
 14 15  1  0  0  0  0
 15 16  2  0  0  0  0
 17 18  1  0  0  0  0
 17 25  2  0  0  0  0
 18 19  2  0  0  0  0
 19 20  1  0  0  0  0
 20 21  2  0  0  0  0
 20 24  1  0  0  0  0
 21 22  1  0  0  0  0
 22 23  1  0  0  0  0
 23 24  2  0  0  0  0
 24 25  1  0  0  0  0
 26 27  2  0  0  0  0
 27 28  1  0  0  0  0
 28 29  1  0  0  0  0
  1 30  1  0  0  0  0
  1 31  1  0  0  0  0
  1 32  1  0  0  0  0
  4 33  1  0  0  0  0
  5 34  1  0  0  0  0
  5 35  1  0  0  0  0
 11 36  1  0  0  0  0
 13 37  1  0  0  0  0
 14 38  1  0  0  0  0
 18 39  1  0  0  0  0
 19 40  1  0  0  0  0
 22 41  1  0  0  0  0
 23 42  1  0  0  0  0
 25 43  1  0  0  0  0
 26 44  1  0  0  0  0
 29 45  1  0  0  0  0
 29 46  1  0  0  0  0
 29 47  1  0  0  0  0
M  END
> <IC50[nM]>
10.4

$$$$
CHEMBL3265021
  -OEChem-05192314333D
 Structure written by MMmdl.
 47 51  0     0  0  0  0  0  0999 V2000
   -4.2567   -3.1041   13.5694 C   0  0  0  0  0  0  0  0  0  0  0  0
   -3.8737   -2.3599   14.7156 O   0  0  0  0  0  0  0  0  0  0  0  0
   -2.5258   -2.1107   14.8171 C   0  0  0  0  0  0  0  0  0  0  0  0
   -1.7454   -2.8698   15.6820 C   0  0  0  0  0  0  0  0  0  0  0  0
   -0.3904   -2.6103   15.8138 C   0  0  0  0  0  0  0  0  0  0  0  0
    0.2204   -1.5845   15.0865 C   0  0  0  0  0  0  0  0  0  0  0  0
    1.6042   -1.3599   15.3206 N   0  0  0  0  0  0  0  0  0  0  0  0
    2.5373   -0.4464   14.7592 C   0  0  0  0  0  0  0  0  0  0  0  0
    2.1833    0.3714   13.7220 N   0  0  0  0  0  0  0  0  0  0  0  0
    3.1157    1.2390   13.2179 C   0  0  0  0  0  0  0  0  0  0  0  0
    4.4197    1.2848   13.7036 C   0  0  0  0  0  0  0  0  0  0  0  0
    4.7466    0.4890   14.7613 N   0  0  0  0  0  0  0  0  0  0  0  0
    5.8976    0.3767   15.4867 C   0  0  0  0  0  0  0  0  0  0  0  0
    5.5868   -0.5220   16.5302 C   0  0  0  0  0  0  0  0  0  0  0  0
    4.3755   -1.0422   16.3738 N   0  0  0  0  0  0  0  0  0  0  0  0
    3.8369   -0.3923   15.3263 C   0  0  0  0  0  0  0  0  0  0  0  0
    2.6420    2.1628   12.1182 C   0  0  0  0  0  0  0  0  0  0  0  0
    3.5476    2.6405   11.1603 C   0  0  0  0  0  0  0  0  0  0  0  0
    3.1538    3.4680   10.0985 C   0  0  0  0  0  0  0  0  0  0  0  0
    1.8053    3.8044   10.0318 C   0  0  0  0  0  0  0  0  0  0  0  0
    1.0883    4.5643    9.1320 N   0  0  0  0  0  0  0  0  0  0  0  0
   -0.2025    4.6328    9.4561 N   0  0  0  0  0  0  0  0  0  0  0  0
   -0.3779    3.9489   10.5598 C   0  0  0  0  0  0  0  0  0  0  0  0
    0.8670    3.3654   10.9941 C   0  0  0  0  0  0  0  0  0  0  0  0
    1.2880    2.5471   12.0527 C   0  0  0  0  0  0  0  0  0  0  0  0
   -0.5552   -0.8189   14.1923 C   0  0  0  0  0  0  0  0  0  0  0  0
   -1.9451   -1.0886   14.0616 C   0  0  0  0  0  0  0  0  0  0  0  0
   -2.7540   -0.3570   13.2047 O   0  0  0  0  0  0  0  0  0  0  0  0
   -2.2335    0.6444   12.3522 C   0  0  0  0  0  0  0  0  0  0  0  0
   -5.3466   -3.2526   13.5753 H   0  0  0  0  0  0  0  0  0  0  0  0
   -3.9666   -2.5545   12.6618 H   0  0  0  0  0  0  0  0  0  0  0  0
   -3.7535   -4.0822   13.5824 H   0  0  0  0  0  0  0  0  0  0  0  0
   -2.1977   -3.6662   16.2544 H   0  0  0  0  0  0  0  0  0  0  0  0
    0.2027   -3.2097   16.4886 H   0  0  0  0  0  0  0  0  0  0  0  0
    5.1548    1.9353   13.2532 H   0  0  0  0  0  0  0  0  0  0  0  0
    6.8412    0.8686   15.3023 H   0  0  0  0  0  0  0  0  0  0  0  0
    6.2493   -0.7562   17.3503 H   0  0  0  0  0  0  0  0  0  0  0  0
    4.5874    2.3608   11.2432 H   0  0  0  0  0  0  0  0  0  0  0  0
    3.8633    3.8269    9.3676 H   0  0  0  0  0  0  0  0  0  0  0  0
    1.4890    5.0107    8.3319 H   0  0  0  0  0  0  0  0  0  0  0  0
   -1.3221    3.8379   11.0722 H   0  0  0  0  0  0  0  0  0  0  0  0
    0.5864    2.2173   12.8046 H   0  0  0  0  0  0  0  0  0  0  0  0
   -0.4614    0.2312   14.5060 H   0  0  0  0  0  0  0  0  0  0  0  0
   -0.1099   -0.9446   13.1944 H   0  0  0  0  0  0  0  0  0  0  0  0
   -3.0514    1.0896   11.7666 H   0  0  0  0  0  0  0  0  0  0  0  0
   -1.7486    1.4249   12.9569 H   0  0  0  0  0  0  0  0  0  0  0  0
   -1.4953    0.1976   11.6700 H   0  0  0  0  0  0  0  0  0  0  0  0
  1  2  1  0  0  0  0
  2  3  1  0  0  0  0
  3  4  1  0  0  0  0
  3 27  2  0  0  0  0
  4  5  2  0  0  0  0
  5  6  1  0  0  0  0
  6  7  2  0  0  0  0
  6 26  1  0  0  0  0
  7  8  1  0  0  0  0
  8  9  2  0  0  0  0
  8 16  1  0  0  0  0
  9 10  1  0  0  0  0
 10 11  2  0  0  0  0
 10 17  1  0  0  0  0
 11 12  1  0  0  0  0
 12 13  1  0  0  0  0
 12 16  1  0  0  0  0
 13 14  2  0  0  0  0
 14 15  1  0  0  0  0
 15 16  2  0  0  0  0
 17 18  2  0  0  0  0
 17 25  1  0  0  0  0
 18 19  1  0  0  0  0
 19 20  2  0  0  0  0
 20 21  1  0  0  0  0
 20 24  1  0  0  0  0
 21 22  1  0  0  0  0
 22 23  2  0  0  0  0
 23 24  1  0  0  0  0
 24 25  2  0  0  0  0
 26 27  1  0  0  0  0
 27 28  1  0  0  0  0
 28 29  1  0  0  0  0
  1 30  1  0  0  0  0
  1 31  1  0  0  0  0
  1 32  1  0  0  0  0
  4 33  1  0  0  0  0
  5 34  1  0  0  0  0
 11 35  1  0  0  0  0
 13 36  1  0  0  0  0
 14 37  1  0  0  0  0
 18 38  1  0  0  0  0
 19 39  1  0  0  0  0
 21 40  1  0  0  0  0
 23 41  1  0  0  0  0
 25 42  1  0  0  0  0
 26 43  1  0  0  0  0
 26 44  1  0  0  0  0
 29 45  1  0  0  0  0
 29 46  1  0  0  0  0
 29 47  1  0  0  0  0
M  END
> <IC50[nM]>
10.4

$$$$
CHEMBL3265021
  -OEChem-05192314333D
 Structure written by MMmdl.
 47 51  0     0  0  0  0  0  0999 V2000
   -4.2567   -3.1041   13.5694 C   0  0  0  0  0  0  0  0  0  0  0  0
   -3.8737   -2.3599   14.7156 O   0  0  0  0  0  0  0  0  0  0  0  0
   -2.5258   -2.1107   14.8171 C   0  0  0  0  0  0  0  0  0  0  0  0
   -1.7454   -2.8698   15.6820 C   0  0  0  0  0  0  0  0  0  0  0  0
   -0.3904   -2.6103   15.8138 C   0  0  0  0  0  0  0  0  0  0  0  0
    0.2204   -1.5845   15.0865 C   0  0  0  0  0  0  0  0  0  0  0  0
    1.6042   -1.3599   15.3206 N   0  0  0  0  0  0  0  0  0  0  0  0
    2.5373   -0.4464   14.7592 C   0  0  0  0  0  0  0  0  0  0  0  0
    2.1833    0.3714   13.7220 N   0  0  0  0  0  0  0  0  0  0  0  0
    3.1157    1.2390   13.2179 C   0  0  0  0  0  0  0  0  0  0  0  0
    4.4197    1.2848   13.7036 C   0  0  0  0  0  0  0  0  0  0  0  0
    4.7466    0.4890   14.7613 N   0  0  0  0  0  0  0  0  0  0  0  0
    5.8976    0.3767   15.4867 C   0  0  0  0  0  0  0  0  0  0  0  0
    5.5868   -0.5220   16.5302 C   0  0  0  0  0  0  0  0  0  0  0  0
    4.3755   -1.0422   16.3738 N   0  0  0  0  0  0  0  0  0  0  0  0
    3.8369   -0.3923   15.3263 C   0  0  0  0  0  0  0  0  0  0  0  0
    2.6420    2.1628   12.1182 C   0  0  0  0  0  0  0  0  0  0  0  0
    3.5476    2.6405   11.1603 C   0  0  0  0  0  0  0  0  0  0  0  0
    3.1538    3.4680   10.0985 C   0  0  0  0  0  0  0  0  0  0  0  0
    1.8053    3.8044   10.0318 C   0  0  0  0  0  0  0  0  0  0  0  0
    1.0883    4.5643    9.1320 N   0  0  0  0  0  0  0  0  0  0  0  0
   -0.2025    4.6328    9.4561 N   0  0  0  0  0  0  0  0  0  0  0  0
   -0.3779    3.9489   10.5598 C   0  0  0  0  0  0  0  0  0  0  0  0
    0.8670    3.3654   10.9941 C   0  0  0  0  0  0  0  0  0  0  0  0
    1.2880    2.5471   12.0527 C   0  0  0  0  0  0  0  0  0  0  0  0
   -0.5552   -0.8189   14.1923 C   0  0  0  0  0  0  0  0  0  0  0  0
   -1.9451   -1.0886   14.0616 C   0  0  0  0  0  0  0  0  0  0  0  0
   -2.7540   -0.3570   13.2047 O   0  0  0  0  0  0  0  0  0  0  0  0
   -2.2335    0.6444   12.3522 C   0  0  0  0  0  0  0  0  0  0  0  0
   -5.3466   -3.2526   13.5753 H   0  0  0  0  0  0  0  0  0  0  0  0
   -3.9666   -2.5545   12.6618 H   0  0  0  0  0  0  0  0  0  0  0  0
   -3.7535   -4.0822   13.5824 H   0  0  0  0  0  0  0  0  0  0  0  0
   -2.1977   -3.6662   16.2544 H   0  0  0  0  0  0  0  0  0  0  0  0
    0.2027   -3.2097   16.4886 H   0  0  0  0  0  0  0  0  0  0  0  0
    5.1548    1.9353   13.2532 H   0  0  0  0  0  0  0  0  0  0  0  0
    6.8412    0.8686   15.3023 H   0  0  0  0  0  0  0  0  0  0  0  0
    6.2493   -0.7562   17.3503 H   0  0  0  0  0  0  0  0  0  0  0  0
    4.5874    2.3608   11.2432 H   0  0  0  0  0  0  0  0  0  0  0  0
    3.8633    3.8269    9.3676 H   0  0  0  0  0  0  0  0  0  0  0  0
   -0.9119    5.1201    8.9469 H   0  0  0  0  0  0  0  0  0  0  0  0
   -1.3221    3.8379   11.0722 H   0  0  0  0  0  0  0  0  0  0  0  0
    0.5864    2.2173   12.8046 H   0  0  0  0  0  0  0  0  0  0  0  0
   -0.4614    0.2312   14.5060 H   0  0  0  0  0  0  0  0  0  0  0  0
   -0.1099   -0.9446   13.1944 H   0  0  0  0  0  0  0  0  0  0  0  0
   -3.0514    1.0896   11.7666 H   0  0  0  0  0  0  0  0  0  0  0  0
   -1.7486    1.4249   12.9569 H   0  0  0  0  0  0  0  0  0  0  0  0
   -1.4953    0.1976   11.6700 H   0  0  0  0  0  0  0  0  0  0  0  0
  1  2  1  0  0  0  0
  2  3  1  0  0  0  0
  3  4  1  0  0  0  0
  3 27  2  0  0  0  0
  4  5  2  0  0  0  0
  5  6  1  0  0  0  0
  6  7  2  0  0  0  0
  6 26  1  0  0  0  0
  7  8  1  0  0  0  0
  8  9  2  0  0  0  0
  8 16  1  0  0  0  0
  9 10  1  0  0  0  0
 10 11  2  0  0  0  0
 10 17  1  0  0  0  0
 11 12  1  0  0  0  0
 12 13  1  0  0  0  0
 12 16  1  0  0  0  0
 13 14  2  0  0  0  0
 14 15  1  0  0  0  0
 15 16  2  0  0  0  0
 17 18  1  0  0  0  0
 17 25  2  0  0  0  0
 18 19  2  0  0  0  0
 19 20  1  0  0  0  0
 20 21  2  0  0  0  0
 20 24  1  0  0  0  0
 21 22  1  0  0  0  0
 22 23  1  0  0  0  0
 23 24  2  0  0  0  0
 24 25  1  0  0  0  0
 26 27  1  0  0  0  0
 27 28  1  0  0  0  0
 28 29  1  0  0  0  0
  1 30  1  0  0  0  0
  1 31  1  0  0  0  0
  1 32  1  0  0  0  0
  4 33  1  0  0  0  0
  5 34  1  0  0  0  0
 11 35  1  0  0  0  0
 13 36  1  0  0  0  0
 14 37  1  0  0  0  0
 18 38  1  0  0  0  0
 19 39  1  0  0  0  0
 22 40  1  0  0  0  0
 23 41  1  0  0  0  0
 25 42  1  0  0  0  0
 26 43  1  0  0  0  0
 26 44  1  0  0  0  0
 29 45  1  0  0  0  0
 29 46  1  0  0  0  0
 29 47  1  0  0  0  0
M  END
> <IC50[nM]>
10.4

$$$$
CHEMBL3265021
  -OEChem-05192314333D
 Structure written by MMmdl.
 47 51  0     0  0  0  0  0  0999 V2000
   -4.2567   -3.1041   13.5694 C   0  0  0  0  0  0  0  0  0  0  0  0
   -3.8737   -2.3599   14.7156 O   0  0  0  0  0  0  0  0  0  0  0  0
   -2.5258   -2.1107   14.8171 C   0  0  0  0  0  0  0  0  0  0  0  0
   -1.7454   -2.8698   15.6820 C   0  0  0  0  0  0  0  0  0  0  0  0
   -0.3904   -2.6103   15.8138 C   0  0  0  0  0  0  0  0  0  0  0  0
    0.2204   -1.5845   15.0865 C   0  0  0  0  0  0  0  0  0  0  0  0
    1.6042   -1.3599   15.3206 N   0  0  0  0  0  0  0  0  0  0  0  0
    2.5373   -0.4464   14.7592 C   0  0  0  0  0  0  0  0  0  0  0  0
    2.1833    0.3714   13.7220 N   0  0  0  0  0  0  0  0  0  0  0  0
    3.1157    1.2390   13.2179 C   0  0  0  0  0  0  0  0  0  0  0  0
    4.4197    1.2848   13.7036 C   0  0  0  0  0  0  0  0  0  0  0  0
    4.7466    0.4890   14.7613 N   0  0  0  0  0  0  0  0  0  0  0  0
    5.8976    0.3767   15.4867 C   0  0  0  0  0  0  0  0  0  0  0  0
    5.5868   -0.5220   16.5302 C   0  0  0  0  0  0  0  0  0  0  0  0
    4.3755   -1.0422   16.3738 N   0  0  0  0  0  0  0  0  0  0  0  0
    3.8369   -0.3923   15.3263 C   0  0  0  0  0  0  0  0  0  0  0  0
    2.6420    2.1628   12.1182 C   0  0  0  0  0  0  0  0  0  0  0  0
    3.5476    2.6405   11.1603 C   0  0  0  0  0  0  0  0  0  0  0  0
    3.1538    3.4680   10.0985 C   0  0  0  0  0  0  0  0  0  0  0  0
    1.8053    3.8044   10.0318 C   0  0  0  0  0  0  0  0  0  0  0  0
    1.0883    4.5643    9.1320 N   0  0  0  0  0  0  0  0  0  0  0  0
   -0.2025    4.6328    9.4561 N   0  0  0  0  0  0  0  0  0  0  0  0
   -0.3779    3.9489   10.5598 C   0  0  0  0  0  0  0  0  0  0  0  0
    0.8670    3.3654   10.9941 C   0  0  0  0  0  0  0  0  0  0  0  0
    1.2880    2.5471   12.0527 C   0  0  0  0  0  0  0  0  0  0  0  0
   -0.5552   -0.8189   14.1923 C   0  0  0  0  0  0  0  0  0  0  0  0
   -1.9451   -1.0886   14.0616 C   0  0  0  0  0  0  0  0  0  0  0  0
   -2.7540   -0.3570   13.2047 O   0  0  0  0  0  0  0  0  0  0  0  0
   -2.2335    0.6444   12.3522 C   0  0  0  0  0  0  0  0  0  0  0  0
   -5.3466   -3.2526   13.5753 H   0  0  0  0  0  0  0  0  0  0  0  0
   -3.9666   -2.5545   12.6618 H   0  0  0  0  0  0  0  0  0  0  0  0
   -3.7535   -4.0822   13.5824 H   0  0  0  0  0  0  0  0  0  0  0  0
   -2.1977   -3.6662   16.2544 H   0  0  0  0  0  0  0  0  0  0  0  0
    0.2027   -3.2097   16.4886 H   0  0  0  0  0  0  0  0  0  0  0  0
    5.0860    1.0107   12.8724 H   0  0  0  0  0  0  0  0  0  0  0  0
    4.6180    2.3239   14.0051 H   0  0  0  0  0  0  0  0  0  0  0  0
    6.8412    0.8686   15.3023 H   0  0  0  0  0  0  0  0  0  0  0  0
    6.2493   -0.7562   17.3503 H   0  0  0  0  0  0  0  0  0  0  0  0
    4.5874    2.3608   11.2432 H   0  0  0  0  0  0  0  0  0  0  0  0
    3.8633    3.8269    9.3676 H   0  0  0  0  0  0  0  0  0  0  0  0
   -0.7571    4.6194   11.3450 H   0  0  0  0  0  0  0  0  0  0  0  0
   -1.1092    3.1478   10.3772 H   0  0  0  0  0  0  0  0  0  0  0  0
    0.5864    2.2173   12.8046 H   0  0  0  0  0  0  0  0  0  0  0  0
   -0.0968   -0.0329   13.6105 H   0  0  0  0  0  0  0  0  0  0  0  0
   -3.0514    1.0896   11.7666 H   0  0  0  0  0  0  0  0  0  0  0  0
   -1.7486    1.4249   12.9569 H   0  0  0  0  0  0  0  0  0  0  0  0
   -1.4953    0.1976   11.6700 H   0  0  0  0  0  0  0  0  0  0  0  0
  1  2  1  0  0  0  0
  2  3  1  0  0  0  0
  3  4  2  0  0  0  0
  3 27  1  0  0  0  0
  4  5  1  0  0  0  0
  5  6  2  0  0  0  0
  6  7  1  0  0  0  0
  6 26  1  0  0  0  0
  7  8  2  0  0  0  0
  8  9  1  0  0  0  0
  8 16  1  0  0  0  0
  9 10  2  0  0  0  0
 10 11  1  0  0  0  0
 10 17  1  0  0  0  0
 11 12  1  0  0  0  0
 12 13  1  0  0  0  0
 12 16  1  0  0  0  0
 13 14  2  0  0  0  0
 14 15  1  0  0  0  0
 15 16  2  0  0  0  0
 17 18  2  0  0  0  0
 17 25  1  0  0  0  0
 18 19  1  0  0  0  0
 19 20  2  0  0  0  0
 20 21  1  0  0  0  0
 20 24  1  0  0  0  0
 21 22  2  0  0  0  0
 22 23  1  0  0  0  0
 23 24  1  0  0  0  0
 24 25  2  0  0  0  0
 26 27  2  0  0  0  0
 27 28  1  0  0  0  0
 28 29  1  0  0  0  0
  1 30  1  0  0  0  0
  1 31  1  0  0  0  0
  1 32  1  0  0  0  0
  4 33  1  0  0  0  0
  5 34  1  0  0  0  0
 11 35  1  0  0  0  0
 11 36  1  0  0  0  0
 13 37  1  0  0  0  0
 14 38  1  0  0  0  0
 18 39  1  0  0  0  0
 19 40  1  0  0  0  0
 23 41  1  0  0  0  0
 23 42  1  0  0  0  0
 25 43  1  0  0  0  0
 26 44  1  0  0  0  0
 29 45  1  0  0  0  0
 29 46  1  0  0  0  0
 29 47  1  0  0  0  0
M  END
> <IC50[nM]>
10.4

$$$$
CHEMBL3265021
  -OEChem-05192314333D
 Structure written by MMmdl.
 47 51  0     0  0  0  0  0  0999 V2000
   -4.2567   -3.1041   13.5694 C   0  0  0  0  0  0  0  0  0  0  0  0
   -3.8737   -2.3599   14.7156 O   0  0  0  0  0  0  0  0  0  0  0  0
   -2.5258   -2.1107   14.8171 C   0  0  0  0  0  0  0  0  0  0  0  0
   -1.7454   -2.8698   15.6820 C   0  0  0  0  0  0  0  0  0  0  0  0
   -0.3904   -2.6103   15.8138 C   0  0  0  0  0  0  0  0  0  0  0  0
    0.2204   -1.5845   15.0865 C   0  0  0  0  0  0  0  0  0  0  0  0
    1.6042   -1.3599   15.3206 N   0  0  0  0  0  0  0  0  0  0  0  0
    2.5373   -0.4464   14.7592 C   0  0  0  0  0  0  0  0  0  0  0  0
    2.1833    0.3714   13.7220 N   0  0  0  0  0  0  0  0  0  0  0  0
    3.1157    1.2390   13.2179 C   0  0  0  0  0  0  0  0  0  0  0  0
    4.4197    1.2848   13.7036 C   0  0  0  0  0  0  0  0  0  0  0  0
    4.7466    0.4890   14.7613 N   0  0  0  0  0  0  0  0  0  0  0  0
    5.8976    0.3767   15.4867 C   0  0  0  0  0  0  0  0  0  0  0  0
    5.5868   -0.5220   16.5302 C   0  0  0  0  0  0  0  0  0  0  0  0
    4.3755   -1.0422   16.3738 N   0  0  0  0  0  0  0  0  0  0  0  0
    3.8369   -0.3923   15.3263 C   0  0  0  0  0  0  0  0  0  0  0  0
    2.6420    2.1628   12.1182 C   0  0  0  0  0  0  0  0  0  0  0  0
    3.5476    2.6405   11.1603 C   0  0  0  0  0  0  0  0  0  0  0  0
    3.1538    3.4680   10.0985 C   0  0  0  0  0  0  0  0  0  0  0  0
    1.8053    3.8044   10.0318 C   0  0  0  0  0  0  0  0  0  0  0  0
    1.0883    4.5643    9.1320 N   0  0  0  0  0  0  0  0  0  0  0  0
   -0.2025    4.6328    9.4561 N   0  0  0  0  0  0  0  0  0  0  0  0
   -0.3779    3.9489   10.5598 C   0  0  0  0  0  0  0  0  0  0  0  0
    0.8670    3.3654   10.9941 C   0  0  0  0  0  0  0  0  0  0  0  0
    1.2880    2.5471   12.0527 C   0  0  0  0  0  0  0  0  0  0  0  0
   -0.5552   -0.8189   14.1923 C   0  0  0  0  0  0  0  0  0  0  0  0
   -1.9451   -1.0886   14.0616 C   0  0  0  0  0  0  0  0  0  0  0  0
   -2.7540   -0.3570   13.2047 O   0  0  0  0  0  0  0  0  0  0  0  0
   -2.2335    0.6444   12.3522 C   0  0  0  0  0  0  0  0  0  0  0  0
   -5.3466   -3.2526   13.5753 H   0  0  0  0  0  0  0  0  0  0  0  0
   -3.9666   -2.5545   12.6618 H   0  0  0  0  0  0  0  0  0  0  0  0
   -3.7535   -4.0822   13.5824 H   0  0  0  0  0  0  0  0  0  0  0  0
   -2.1977   -3.6662   16.2544 H   0  0  0  0  0  0  0  0  0  0  0  0
    0.2027   -3.2097   16.4886 H   0  0  0  0  0  0  0  0  0  0  0  0
    1.9979   -1.9617   16.0155 H   0  0  0  0  0  0  0  0  0  0  0  0
    5.0860    1.0107   12.8724 H   0  0  0  0  0  0  0  0  0  0  0  0
    4.6180    2.3239   14.0051 H   0  0  0  0  0  0  0  0  0  0  0  0
    6.8412    0.8686   15.3023 H   0  0  0  0  0  0  0  0  0  0  0  0
    6.2493   -0.7562   17.3503 H   0  0  0  0  0  0  0  0  0  0  0  0
    4.5874    2.3608   11.2432 H   0  0  0  0  0  0  0  0  0  0  0  0
    3.8633    3.8269    9.3676 H   0  0  0  0  0  0  0  0  0  0  0  0
   -1.3221    3.8379   11.0722 H   0  0  0  0  0  0  0  0  0  0  0  0
    0.5864    2.2173   12.8046 H   0  0  0  0  0  0  0  0  0  0  0  0
   -0.0968   -0.0329   13.6105 H   0  0  0  0  0  0  0  0  0  0  0  0
   -3.0514    1.0896   11.7666 H   0  0  0  0  0  0  0  0  0  0  0  0
   -1.7486    1.4249   12.9569 H   0  0  0  0  0  0  0  0  0  0  0  0
   -1.4953    0.1976   11.6700 H   0  0  0  0  0  0  0  0  0  0  0  0
  1  2  1  0  0  0  0
  2  3  1  0  0  0  0
  3  4  2  0  0  0  0
  3 27  1  0  0  0  0
  4  5  1  0  0  0  0
  5  6  2  0  0  0  0
  6  7  1  0  0  0  0
  6 26  1  0  0  0  0
  7  8  1  0  0  0  0
  8  9  2  0  0  0  0
  8 16  1  0  0  0  0
  9 10  1  0  0  0  0
 10 11  1  0  0  0  0
 10 17  2  0  0  0  0
 11 12  1  0  0  0  0
 12 13  1  0  0  0  0
 12 16  1  0  0  0  0
 13 14  2  0  0  0  0
 14 15  1  0  0  0  0
 15 16  2  0  0  0  0
 17 18  1  0  0  0  0
 17 25  1  0  0  0  0
 18 19  2  0  0  0  0
 19 20  1  0  0  0  0
 20 21  2  0  0  0  0
 20 24  1  0  0  0  0
 21 22  1  0  0  0  0
 22 23  2  0  0  0  0
 23 24  1  0  0  0  0
 24 25  2  0  0  0  0
 26 27  2  0  0  0  0
 27 28  1  0  0  0  0
 28 29  1  0  0  0  0
  1 30  1  0  0  0  0
  1 31  1  0  0  0  0
  1 32  1  0  0  0  0
  4 33  1  0  0  0  0
  5 34  1  0  0  0  0
  7 35  1  0  0  0  0
 11 36  1  0  0  0  0
 11 37  1  0  0  0  0
 13 38  1  0  0  0  0
 14 39  1  0  0  0  0
 18 40  1  0  0  0  0
 19 41  1  0  0  0  0
 23 42  1  0  0  0  0
 25 43  1  0  0  0  0
 26 44  1  0  0  0  0
 29 45  1  0  0  0  0
 29 46  1  0  0  0  0
 29 47  1  0  0  0  0
M  END
> <IC50[nM]>
10.4

$$$$
CHEMBL3265021
  -OEChem-05192314333D
 Structure written by MMmdl.
 47 51  0     0  0  0  0  0  0999 V2000
   -4.2567   -3.1041   13.5694 C   0  0  0  0  0  0  0  0  0  0  0  0
   -3.8737   -2.3599   14.7156 O   0  0  0  0  0  0  0  0  0  0  0  0
   -2.5258   -2.1107   14.8171 C   0  0  0  0  0  0  0  0  0  0  0  0
   -1.7454   -2.8698   15.6820 C   0  0  0  0  0  0  0  0  0  0  0  0
   -0.3904   -2.6103   15.8138 C   0  0  0  0  0  0  0  0  0  0  0  0
    0.2204   -1.5845   15.0865 C   0  0  0  0  0  0  0  0  0  0  0  0
    1.6042   -1.3599   15.3206 N   0  0  0  0  0  0  0  0  0  0  0  0
    2.5373   -0.4464   14.7592 C   0  0  0  0  0  0  0  0  0  0  0  0
    2.1833    0.3714   13.7220 N   0  0  0  0  0  0  0  0  0  0  0  0
    3.1157    1.2390   13.2179 C   0  0  0  0  0  0  0  0  0  0  0  0
    4.4197    1.2848   13.7036 C   0  0  0  0  0  0  0  0  0  0  0  0
    4.7466    0.4890   14.7613 N   0  0  0  0  0  0  0  0  0  0  0  0
    5.8976    0.3767   15.4867 C   0  0  0  0  0  0  0  0  0  0  0  0
    5.5868   -0.5220   16.5302 C   0  0  0  0  0  0  0  0  0  0  0  0
    4.3755   -1.0422   16.3738 N   0  0  0  0  0  0  0  0  0  0  0  0
    3.8369   -0.3923   15.3263 C   0  0  0  0  0  0  0  0  0  0  0  0
    2.6420    2.1628   12.1182 C   0  0  0  0  0  0  0  0  0  0  0  0
    3.5476    2.6405   11.1603 C   0  0  0  0  0  0  0  0  0  0  0  0
    3.1538    3.4680   10.0985 C   0  0  0  0  0  0  0  0  0  0  0  0
    1.8053    3.8044   10.0318 C   0  0  0  0  0  0  0  0  0  0  0  0
    1.0883    4.5643    9.1320 N   0  0  0  0  0  0  0  0  0  0  0  0
   -0.2025    4.6328    9.4561 N   0  0  0  0  0  0  0  0  0  0  0  0
   -0.3779    3.9489   10.5598 C   0  0  0  0  0  0  0  0  0  0  0  0
    0.8670    3.3654   10.9941 C   0  0  0  0  0  0  0  0  0  0  0  0
    1.2880    2.5471   12.0527 C   0  0  0  0  0  0  0  0  0  0  0  0
   -0.5552   -0.8189   14.1923 C   0  0  0  0  0  0  0  0  0  0  0  0
   -1.9451   -1.0886   14.0616 C   0  0  0  0  0  0  0  0  0  0  0  0
   -2.7540   -0.3570   13.2047 O   0  0  0  0  0  0  0  0  0  0  0  0
   -2.2335    0.6444   12.3522 C   0  0  0  0  0  0  0  0  0  0  0  0
   -5.3466   -3.2526   13.5753 H   0  0  0  0  0  0  0  0  0  0  0  0
   -3.9666   -2.5545   12.6618 H   0  0  0  0  0  0  0  0  0  0  0  0
   -3.7535   -4.0822   13.5824 H   0  0  0  0  0  0  0  0  0  0  0  0
   -2.1977   -3.6662   16.2544 H   0  0  0  0  0  0  0  0  0  0  0  0
    0.2027   -3.2097   16.4886 H   0  0  0  0  0  0  0  0  0  0  0  0
    1.2604    0.3367   13.3385 H   0  0  0  0  0  0  0  0  0  0  0  0
    5.0860    1.0107   12.8724 H   0  0  0  0  0  0  0  0  0  0  0  0
    4.6180    2.3239   14.0051 H   0  0  0  0  0  0  0  0  0  0  0  0
    6.8412    0.8686   15.3023 H   0  0  0  0  0  0  0  0  0  0  0  0
    6.2493   -0.7562   17.3503 H   0  0  0  0  0  0  0  0  0  0  0  0
    4.5874    2.3608   11.2432 H   0  0  0  0  0  0  0  0  0  0  0  0
    3.8633    3.8269    9.3676 H   0  0  0  0  0  0  0  0  0  0  0  0
   -1.3221    3.8379   11.0722 H   0  0  0  0  0  0  0  0  0  0  0  0
    0.5864    2.2173   12.8046 H   0  0  0  0  0  0  0  0  0  0  0  0
   -0.0968   -0.0329   13.6105 H   0  0  0  0  0  0  0  0  0  0  0  0
   -3.0514    1.0896   11.7666 H   0  0  0  0  0  0  0  0  0  0  0  0
   -1.7486    1.4249   12.9569 H   0  0  0  0  0  0  0  0  0  0  0  0
   -1.4953    0.1976   11.6700 H   0  0  0  0  0  0  0  0  0  0  0  0
  1  2  1  0  0  0  0
  2  3  1  0  0  0  0
  3  4  2  0  0  0  0
  3 27  1  0  0  0  0
  4  5  1  0  0  0  0
  5  6  2  0  0  0  0
  6  7  1  0  0  0  0
  6 26  1  0  0  0  0
  7  8  2  0  0  0  0
  8  9  1  0  0  0  0
  8 16  1  0  0  0  0
  9 10  1  0  0  0  0
 10 11  1  0  0  0  0
 10 17  2  0  0  0  0
 11 12  1  0  0  0  0
 12 13  1  0  0  0  0
 12 16  1  0  0  0  0
 13 14  2  0  0  0  0
 14 15  1  0  0  0  0
 15 16  2  0  0  0  0
 17 18  1  0  0  0  0
 17 25  1  0  0  0  0
 18 19  2  0  0  0  0
 19 20  1  0  0  0  0
 20 21  2  0  0  0  0
 20 24  1  0  0  0  0
 21 22  1  0  0  0  0
 22 23  2  0  0  0  0
 23 24  1  0  0  0  0
 24 25  2  0  0  0  0
 26 27  2  0  0  0  0
 27 28  1  0  0  0  0
 28 29  1  0  0  0  0
  1 30  1  0  0  0  0
  1 31  1  0  0  0  0
  1 32  1  0  0  0  0
  4 33  1  0  0  0  0
  5 34  1  0  0  0  0
  9 35  1  0  0  0  0
 11 36  1  0  0  0  0
 11 37  1  0  0  0  0
 13 38  1  0  0  0  0
 14 39  1  0  0  0  0
 18 40  1  0  0  0  0
 19 41  1  0  0  0  0
 23 42  1  0  0  0  0
 25 43  1  0  0  0  0
 26 44  1  0  0  0  0
 29 45  1  0  0  0  0
 29 46  1  0  0  0  0
 29 47  1  0  0  0  0
M  END
> <IC50[nM]>
10.4

$$$$
CHEMBL3265021
  -OEChem-05192314333D
 Structure written by MMmdl.
 47 51  0     1  0  0  0  0  0999 V2000
   -4.2567   -3.1041   13.5694 C   0  0  0  0  0  0  0  0  0  0  0  0
   -3.8737   -2.3599   14.7156 O   0  0  0  0  0  0  0  0  0  0  0  0
   -2.5258   -2.1107   14.8171 C   0  0  3  0  0  0  0  0  0  0  0  0
   -1.7454   -2.8698   15.6820 C   0  0  0  0  0  0  0  0  0  0  0  0
   -0.3904   -2.6103   15.8138 C   0  0  0  0  0  0  0  0  0  0  0  0
    0.2204   -1.5845   15.0865 C   0  0  0  0  0  0  0  0  0  0  0  0
    1.6042   -1.3599   15.3206 N   0  0  0  0  0  0  0  0  0  0  0  0
    2.5373   -0.4464   14.7592 C   0  0  0  0  0  0  0  0  0  0  0  0
    2.1833    0.3714   13.7220 N   0  0  0  0  0  0  0  0  0  0  0  0
    3.1157    1.2390   13.2179 C   0  0  0  0  0  0  0  0  0  0  0  0
    4.4197    1.2848   13.7036 C   0  0  0  0  0  0  0  0  0  0  0  0
    4.7466    0.4890   14.7613 N   0  0  0  0  0  0  0  0  0  0  0  0
    5.8976    0.3767   15.4867 C   0  0  0  0  0  0  0  0  0  0  0  0
    5.5868   -0.5220   16.5302 C   0  0  0  0  0  0  0  0  0  0  0  0
    4.3755   -1.0422   16.3738 N   0  0  0  0  0  0  0  0  0  0  0  0
    3.8369   -0.3923   15.3263 C   0  0  0  0  0  0  0  0  0  0  0  0
    2.6420    2.1628   12.1182 C   0  0  0  0  0  0  0  0  0  0  0  0
    3.5476    2.6405   11.1603 C   0  0  0  0  0  0  0  0  0  0  0  0
    3.1538    3.4680   10.0985 C   0  0  0  0  0  0  0  0  0  0  0  0
    1.8053    3.8044   10.0318 C   0  0  0  0  0  0  0  0  0  0  0  0
    1.0883    4.5643    9.1320 N   0  0  0  0  0  0  0  0  0  0  0  0
   -0.2025    4.6328    9.4561 N   0  0  0  0  0  0  0  0  0  0  0  0
   -0.3779    3.9489   10.5598 C   0  0  0  0  0  0  0  0  0  0  0  0
    0.8670    3.3654   10.9941 C   0  0  0  0  0  0  0  0  0  0  0  0
    1.2880    2.5471   12.0527 C   0  0  0  0  0  0  0  0  0  0  0  0
   -0.5552   -0.8189   14.1923 C   0  0  0  0  0  0  0  0  0  0  0  0
   -1.9451   -1.0886   14.0616 C   0  0  0  0  0  0  0  0  0  0  0  0
   -2.7540   -0.3570   13.2047 O   0  0  0  0  0  0  0  0  0  0  0  0
   -2.2335    0.6444   12.3522 C   0  0  0  0  0  0  0  0  0  0  0  0
   -5.3466   -3.2526   13.5753 H   0  0  0  0  0  0  0  0  0  0  0  0
   -3.9666   -2.5545   12.6618 H   0  0  0  0  0  0  0  0  0  0  0  0
   -3.7535   -4.0822   13.5824 H   0  0  0  0  0  0  0  0  0  0  0  0
   -2.3289   -2.8268   14.0057 H   0  0  0  0  0  0  0  0  0  0  0  0
   -2.1977   -3.6662   16.2544 H   0  0  0  0  0  0  0  0  0  0  0  0
    0.2027   -3.2097   16.4886 H   0  0  0  0  0  0  0  0  0  0  0  0
    5.1548    1.9353   13.2532 H   0  0  0  0  0  0  0  0  0  0  0  0
    6.8412    0.8686   15.3023 H   0  0  0  0  0  0  0  0  0  0  0  0
    6.2493   -0.7562   17.3503 H   0  0  0  0  0  0  0  0  0  0  0  0
    4.5874    2.3608   11.2432 H   0  0  0  0  0  0  0  0  0  0  0  0
    3.8633    3.8269    9.3676 H   0  0  0  0  0  0  0  0  0  0  0  0
   -0.7571    4.6194   11.3450 H   0  0  0  0  0  0  0  0  0  0  0  0
   -1.1092    3.1478   10.3772 H   0  0  0  0  0  0  0  0  0  0  0  0
    0.5864    2.2173   12.8046 H   0  0  0  0  0  0  0  0  0  0  0  0
   -0.0968   -0.0329   13.6105 H   0  0  0  0  0  0  0  0  0  0  0  0
   -3.0514    1.0896   11.7666 H   0  0  0  0  0  0  0  0  0  0  0  0
   -1.7486    1.4249   12.9569 H   0  0  0  0  0  0  0  0  0  0  0  0
   -1.4953    0.1976   11.6700 H   0  0  0  0  0  0  0  0  0  0  0  0
  1  2  1  0  0  0  0
  2  3  1  0  0  0  0
  3  4  1  0  0  0  0
  3 27  1  0  0  0  0
  4  5  2  0  0  0  0
  5  6  1  0  0  0  0
  6  7  2  0  0  0  0
  6 26  1  0  0  0  0
  7  8  1  0  0  0  0
  8  9  2  0  0  0  0
  8 16  1  0  0  0  0
  9 10  1  0  0  0  0
 10 11  2  0  0  0  0
 10 17  1  0  0  0  0
 11 12  1  0  0  0  0
 12 13  1  0  0  0  0
 12 16  1  0  0  0  0
 13 14  2  0  0  0  0
 14 15  1  0  0  0  0
 15 16  2  0  0  0  0
 17 18  2  0  0  0  0
 17 25  1  0  0  0  0
 18 19  1  0  0  0  0
 19 20  2  0  0  0  0
 20 21  1  0  0  0  0
 20 24  1  0  0  0  0
 21 22  2  0  0  0  0
 22 23  1  0  0  0  0
 23 24  1  0  0  0  0
 24 25  2  0  0  0  0
 26 27  2  0  0  0  0
 27 28  1  0  0  0  0
 28 29  1  0  0  0  0
  1 30  1  0  0  0  0
  1 31  1  0  0  0  0
  1 32  1  0  0  0  0
  3 33  1  0  0  0  0
  4 34  1  0  0  0  0
  5 35  1  0  0  0  0
 11 36  1  0  0  0  0
 13 37  1  0  0  0  0
 14 38  1  0  0  0  0
 18 39  1  0  0  0  0
 19 40  1  0  0  0  0
 23 41  1  0  0  0  0
 23 42  1  0  0  0  0
 25 43  1  0  0  0  0
 26 44  1  0  0  0  0
 29 45  1  0  0  0  0
 29 46  1  0  0  0  0
 29 47  1  0  0  0  0
M  END
> <IC50[nM]>
10.4

$$$$
CHEMBL3265021
  -OEChem-05192314333D
 Structure written by MMmdl.
 47 51  0     0  0  0  0  0  0999 V2000
   -4.2567   -3.1041   13.5694 C   0  0  0  0  0  0  0  0  0  0  0  0
   -3.8737   -2.3599   14.7156 O   0  0  0  0  0  0  0  0  0  0  0  0
   -2.5258   -2.1107   14.8171 C   0  0  0  0  0  0  0  0  0  0  0  0
   -1.7454   -2.8698   15.6820 C   0  0  0  0  0  0  0  0  0  0  0  0
   -0.3904   -2.6103   15.8138 C   0  0  0  0  0  0  0  0  0  0  0  0
    0.2204   -1.5845   15.0865 C   0  0  0  0  0  0  0  0  0  0  0  0
    1.6042   -1.3599   15.3206 N   0  0  0  0  0  0  0  0  0  0  0  0
    2.5373   -0.4464   14.7592 C   0  0  0  0  0  0  0  0  0  0  0  0
    2.1833    0.3714   13.7220 N   0  0  0  0  0  0  0  0  0  0  0  0
    3.1157    1.2390   13.2179 C   0  0  0  0  0  0  0  0  0  0  0  0
    4.4197    1.2848   13.7036 C   0  0  0  0  0  0  0  0  0  0  0  0
    4.7466    0.4890   14.7613 N   0  0  0  0  0  0  0  0  0  0  0  0
    5.8976    0.3767   15.4867 C   0  0  0  0  0  0  0  0  0  0  0  0
    5.5868   -0.5220   16.5302 C   0  0  0  0  0  0  0  0  0  0  0  0
    4.3755   -1.0422   16.3738 N   0  0  0  0  0  0  0  0  0  0  0  0
    3.8369   -0.3923   15.3263 C   0  0  0  0  0  0  0  0  0  0  0  0
    2.6420    2.1628   12.1182 C   0  0  0  0  0  0  0  0  0  0  0  0
    3.5476    2.6405   11.1603 C   0  0  0  0  0  0  0  0  0  0  0  0
    3.1538    3.4680   10.0985 C   0  0  0  0  0  0  0  0  0  0  0  0
    1.8053    3.8044   10.0318 C   0  0  0  0  0  0  0  0  0  0  0  0
    1.0883    4.5643    9.1320 N   0  0  0  0  0  0  0  0  0  0  0  0
   -0.2025    4.6328    9.4561 N   0  0  0  0  0  0  0  0  0  0  0  0
   -0.3779    3.9489   10.5598 C   0  0  0  0  0  0  0  0  0  0  0  0
    0.8670    3.3654   10.9941 C   0  0  0  0  0  0  0  0  0  0  0  0
    1.2880    2.5471   12.0527 C   0  0  0  0  0  0  0  0  0  0  0  0
   -0.5552   -0.8189   14.1923 C   0  0  0  0  0  0  0  0  0  0  0  0
   -1.9451   -1.0886   14.0616 C   0  0  0  0  0  0  0  0  0  0  0  0
   -2.7540   -0.3570   13.2047 O   0  0  0  0  0  0  0  0  0  0  0  0
   -2.2335    0.6444   12.3522 C   0  0  0  0  0  0  0  0  0  0  0  0
   -5.3466   -3.2526   13.5753 H   0  0  0  0  0  0  0  0  0  0  0  0
   -3.9666   -2.5545   12.6618 H   0  0  0  0  0  0  0  0  0  0  0  0
   -3.7535   -4.0822   13.5824 H   0  0  0  0  0  0  0  0  0  0  0  0
   -2.1977   -3.6662   16.2544 H   0  0  0  0  0  0  0  0  0  0  0  0
   -0.2169   -2.3862   16.8767 H   0  0  0  0  0  0  0  0  0  0  0  0
    0.1335   -3.5393   15.5446 H   0  0  0  0  0  0  0  0  0  0  0  0
    5.1548    1.9353   13.2532 H   0  0  0  0  0  0  0  0  0  0  0  0
    6.8412    0.8686   15.3023 H   0  0  0  0  0  0  0  0  0  0  0  0
    6.2493   -0.7562   17.3503 H   0  0  0  0  0  0  0  0  0  0  0  0
    4.5874    2.3608   11.2432 H   0  0  0  0  0  0  0  0  0  0  0  0
    3.8633    3.8269    9.3676 H   0  0  0  0  0  0  0  0  0  0  0  0
   -0.7571    4.6194   11.3450 H   0  0  0  0  0  0  0  0  0  0  0  0
   -1.1092    3.1478   10.3772 H   0  0  0  0  0  0  0  0  0  0  0  0
    0.5864    2.2173   12.8046 H   0  0  0  0  0  0  0  0  0  0  0  0
   -0.0968   -0.0329   13.6105 H   0  0  0  0  0  0  0  0  0  0  0  0
   -3.0514    1.0896   11.7666 H   0  0  0  0  0  0  0  0  0  0  0  0
   -1.7486    1.4249   12.9569 H   0  0  0  0  0  0  0  0  0  0  0  0
   -1.4953    0.1976   11.6700 H   0  0  0  0  0  0  0  0  0  0  0  0
  1  2  1  0  0  0  0
  2  3  1  0  0  0  0
  3  4  2  0  0  0  0
  3 27  1  0  0  0  0
  4  5  1  0  0  0  0
  5  6  1  0  0  0  0
  6  7  2  0  0  0  0
  6 26  1  0  0  0  0
  7  8  1  0  0  0  0
  8  9  2  0  0  0  0
  8 16  1  0  0  0  0
  9 10  1  0  0  0  0
 10 11  2  0  0  0  0
 10 17  1  0  0  0  0
 11 12  1  0  0  0  0
 12 13  1  0  0  0  0
 12 16  1  0  0  0  0
 13 14  2  0  0  0  0
 14 15  1  0  0  0  0
 15 16  2  0  0  0  0
 17 18  2  0  0  0  0
 17 25  1  0  0  0  0
 18 19  1  0  0  0  0
 19 20  2  0  0  0  0
 20 21  1  0  0  0  0
 20 24  1  0  0  0  0
 21 22  2  0  0  0  0
 22 23  1  0  0  0  0
 23 24  1  0  0  0  0
 24 25  2  0  0  0  0
 26 27  2  0  0  0  0
 27 28  1  0  0  0  0
 28 29  1  0  0  0  0
  1 30  1  0  0  0  0
  1 31  1  0  0  0  0
  1 32  1  0  0  0  0
  4 33  1  0  0  0  0
  5 34  1  0  0  0  0
  5 35  1  0  0  0  0
 11 36  1  0  0  0  0
 13 37  1  0  0  0  0
 14 38  1  0  0  0  0
 18 39  1  0  0  0  0
 19 40  1  0  0  0  0
 23 41  1  0  0  0  0
 23 42  1  0  0  0  0
 25 43  1  0  0  0  0
 26 44  1  0  0  0  0
 29 45  1  0  0  0  0
 29 46  1  0  0  0  0
 29 47  1  0  0  0  0
M  END
> <IC50[nM]>
10.4

$$$$
CHEMBL3265021
  -OEChem-05192314333D
 Structure written by MMmdl.
 47 51  0     0  0  0  0  0  0999 V2000
   -4.2567   -3.1041   13.5694 C   0  0  0  0  0  0  0  0  0  0  0  0
   -3.8737   -2.3599   14.7156 O   0  0  0  0  0  0  0  0  0  0  0  0
   -2.5258   -2.1107   14.8171 C   0  0  0  0  0  0  0  0  0  0  0  0
   -1.7454   -2.8698   15.6820 C   0  0  0  0  0  0  0  0  0  0  0  0
   -0.3904   -2.6103   15.8138 C   0  0  0  0  0  0  0  0  0  0  0  0
    0.2204   -1.5845   15.0865 C   0  0  0  0  0  0  0  0  0  0  0  0
    1.6042   -1.3599   15.3206 N   0  0  0  0  0  0  0  0  0  0  0  0
    2.5373   -0.4464   14.7592 C   0  0  0  0  0  0  0  0  0  0  0  0
    2.1833    0.3714   13.7220 N   0  0  0  0  0  0  0  0  0  0  0  0
    3.1157    1.2390   13.2179 C   0  0  0  0  0  0  0  0  0  0  0  0
    4.4197    1.2848   13.7036 C   0  0  0  0  0  0  0  0  0  0  0  0
    4.7466    0.4890   14.7613 N   0  0  0  0  0  0  0  0  0  0  0  0
    5.8976    0.3767   15.4867 C   0  0  0  0  0  0  0  0  0  0  0  0
    5.5868   -0.5220   16.5302 C   0  0  0  0  0  0  0  0  0  0  0  0
    4.3755   -1.0422   16.3738 N   0  0  0  0  0  0  0  0  0  0  0  0
    3.8369   -0.3923   15.3263 C   0  0  0  0  0  0  0  0  0  0  0  0
    2.6420    2.1628   12.1182 C   0  0  0  0  0  0  0  0  0  0  0  0
    3.5476    2.6405   11.1603 C   0  0  0  0  0  0  0  0  0  0  0  0
    3.1538    3.4680   10.0985 C   0  0  0  0  0  0  0  0  0  0  0  0
    1.8053    3.8044   10.0318 C   0  0  0  0  0  0  0  0  0  0  0  0
    1.0883    4.5643    9.1320 N   0  0  0  0  0  0  0  0  0  0  0  0
   -0.2025    4.6328    9.4561 N   0  0  0  0  0  0  0  0  0  0  0  0
   -0.3779    3.9489   10.5598 C   0  0  0  0  0  0  0  0  0  0  0  0
    0.8670    3.3654   10.9941 C   0  0  0  0  0  0  0  0  0  0  0  0
    1.2880    2.5471   12.0527 C   0  0  0  0  0  0  0  0  0  0  0  0
   -0.5552   -0.8189   14.1923 C   0  0  0  0  0  0  0  0  0  0  0  0
   -1.9451   -1.0886   14.0616 C   0  0  0  0  0  0  0  0  0  0  0  0
   -2.7540   -0.3570   13.2047 O   0  0  0  0  0  0  0  0  0  0  0  0
   -2.2335    0.6444   12.3522 C   0  0  0  0  0  0  0  0  0  0  0  0
   -5.3466   -3.2526   13.5753 H   0  0  0  0  0  0  0  0  0  0  0  0
   -3.9666   -2.5545   12.6618 H   0  0  0  0  0  0  0  0  0  0  0  0
   -3.7535   -4.0822   13.5824 H   0  0  0  0  0  0  0  0  0  0  0  0
   -2.1977   -3.6662   16.2544 H   0  0  0  0  0  0  0  0  0  0  0  0
    0.2027   -3.2097   16.4886 H   0  0  0  0  0  0  0  0  0  0  0  0
    5.1548    1.9353   13.2532 H   0  0  0  0  0  0  0  0  0  0  0  0
    6.8412    0.8686   15.3023 H   0  0  0  0  0  0  0  0  0  0  0  0
    6.2493   -0.7562   17.3503 H   0  0  0  0  0  0  0  0  0  0  0  0
    4.5874    2.3608   11.2432 H   0  0  0  0  0  0  0  0  0  0  0  0
    3.8633    3.8269    9.3676 H   0  0  0  0  0  0  0  0  0  0  0  0
   -0.7571    4.6194   11.3450 H   0  0  0  0  0  0  0  0  0  0  0  0
   -1.1092    3.1478   10.3772 H   0  0  0  0  0  0  0  0  0  0  0  0
    0.5864    2.2173   12.8046 H   0  0  0  0  0  0  0  0  0  0  0  0
   -0.4614    0.2312   14.5060 H   0  0  0  0  0  0  0  0  0  0  0  0
   -0.1099   -0.9446   13.1944 H   0  0  0  0  0  0  0  0  0  0  0  0
   -3.0514    1.0896   11.7666 H   0  0  0  0  0  0  0  0  0  0  0  0
   -1.7486    1.4249   12.9569 H   0  0  0  0  0  0  0  0  0  0  0  0
   -1.4953    0.1976   11.6700 H   0  0  0  0  0  0  0  0  0  0  0  0
  1  2  1  0  0  0  0
  2  3  1  0  0  0  0
  3  4  1  0  0  0  0
  3 27  2  0  0  0  0
  4  5  2  0  0  0  0
  5  6  1  0  0  0  0
  6  7  2  0  0  0  0
  6 26  1  0  0  0  0
  7  8  1  0  0  0  0
  8  9  2  0  0  0  0
  8 16  1  0  0  0  0
  9 10  1  0  0  0  0
 10 11  2  0  0  0  0
 10 17  1  0  0  0  0
 11 12  1  0  0  0  0
 12 13  1  0  0  0  0
 12 16  1  0  0  0  0
 13 14  2  0  0  0  0
 14 15  1  0  0  0  0
 15 16  2  0  0  0  0
 17 18  2  0  0  0  0
 17 25  1  0  0  0  0
 18 19  1  0  0  0  0
 19 20  2  0  0  0  0
 20 21  1  0  0  0  0
 20 24  1  0  0  0  0
 21 22  2  0  0  0  0
 22 23  1  0  0  0  0
 23 24  1  0  0  0  0
 24 25  2  0  0  0  0
 26 27  1  0  0  0  0
 27 28  1  0  0  0  0
 28 29  1  0  0  0  0
  1 30  1  0  0  0  0
  1 31  1  0  0  0  0
  1 32  1  0  0  0  0
  4 33  1  0  0  0  0
  5 34  1  0  0  0  0
 11 35  1  0  0  0  0
 13 36  1  0  0  0  0
 14 37  1  0  0  0  0
 18 38  1  0  0  0  0
 19 39  1  0  0  0  0
 23 40  1  0  0  0  0
 23 41  1  0  0  0  0
 25 42  1  0  0  0  0
 26 43  1  0  0  0  0
 26 44  1  0  0  0  0
 29 45  1  0  0  0  0
 29 46  1  0  0  0  0
 29 47  1  0  0  0  0
M  END
> <IC50[nM]>
10.4

$$$$
CHEMBL3265021
  -OEChem-05192314333D
 Structure written by MMmdl.
 47 51  0     1  0  0  0  0  0999 V2000
   -4.2567   -3.1041   13.5694 C   0  0  0  0  0  0  0  0  0  0  0  0
   -3.8737   -2.3599   14.7156 O   0  0  0  0  0  0  0  0  0  0  0  0
   -2.5258   -2.1107   14.8171 C   0  0  0  0  0  0  0  0  0  0  0  0
   -1.7454   -2.8698   15.6820 C   0  0  0  0  0  0  0  0  0  0  0  0
   -0.3904   -2.6103   15.8138 C   0  0  0  0  0  0  0  0  0  0  0  0
    0.2204   -1.5845   15.0865 C   0  0  0  0  0  0  0  0  0  0  0  0
    1.6042   -1.3599   15.3206 N   0  0  0  0  0  0  0  0  0  0  0  0
    2.5373   -0.4464   14.7592 C   0  0  0  0  0  0  0  0  0  0  0  0
    2.1833    0.3714   13.7220 N   0  0  0  0  0  0  0  0  0  0  0  0
    3.1157    1.2390   13.2179 C   0  0  0  0  0  0  0  0  0  0  0  0
    4.4197    1.2848   13.7036 C   0  0  0  0  0  0  0  0  0  0  0  0
    4.7466    0.4890   14.7613 N   0  0  0  0  0  0  0  0  0  0  0  0
    5.8976    0.3767   15.4867 C   0  0  0  0  0  0  0  0  0  0  0  0
    5.5868   -0.5220   16.5302 C   0  0  0  0  0  0  0  0  0  0  0  0
    4.3755   -1.0422   16.3738 N   0  0  0  0  0  0  0  0  0  0  0  0
    3.8369   -0.3923   15.3263 C   0  0  0  0  0  0  0  0  0  0  0  0
    2.6420    2.1628   12.1182 C   0  0  0  0  0  0  0  0  0  0  0  0
    3.5476    2.6405   11.1603 C   0  0  0  0  0  0  0  0  0  0  0  0
    3.1538    3.4680   10.0985 C   0  0  0  0  0  0  0  0  0  0  0  0
    1.8053    3.8044   10.0318 C   0  0  0  0  0  0  0  0  0  0  0  0
    1.0883    4.5643    9.1320 N   0  0  0  0  0  0  0  0  0  0  0  0
   -0.2025    4.6328    9.4561 N   0  0  0  0  0  0  0  0  0  0  0  0
   -0.3779    3.9489   10.5598 C   0  0  0  0  0  0  0  0  0  0  0  0
    0.8670    3.3654   10.9941 C   0  0  3  0  0  0  0  0  0  0  0  0
    1.2880    2.5471   12.0527 C   0  0  0  0  0  0  0  0  0  0  0  0
   -0.5552   -0.8189   14.1923 C   0  0  0  0  0  0  0  0  0  0  0  0
   -1.9451   -1.0886   14.0616 C   0  0  0  0  0  0  0  0  0  0  0  0
   -2.7540   -0.3570   13.2047 O   0  0  0  0  0  0  0  0  0  0  0  0
   -2.2335    0.6444   12.3522 C   0  0  0  0  0  0  0  0  0  0  0  0
   -5.3466   -3.2526   13.5753 H   0  0  0  0  0  0  0  0  0  0  0  0
   -3.9666   -2.5545   12.6618 H   0  0  0  0  0  0  0  0  0  0  0  0
   -3.7535   -4.0822   13.5824 H   0  0  0  0  0  0  0  0  0  0  0  0
   -2.1977   -3.6662   16.2544 H   0  0  0  0  0  0  0  0  0  0  0  0
    0.2027   -3.2097   16.4886 H   0  0  0  0  0  0  0  0  0  0  0  0
    1.9979   -1.9617   16.0155 H   0  0  0  0  0  0  0  0  0  0  0  0
    5.1548    1.9353   13.2532 H   0  0  0  0  0  0  0  0  0  0  0  0
    6.8412    0.8686   15.3023 H   0  0  0  0  0  0  0  0  0  0  0  0
    6.2493   -0.7562   17.3503 H   0  0  0  0  0  0  0  0  0  0  0  0
    4.5874    2.3608   11.2432 H   0  0  0  0  0  0  0  0  0  0  0  0
    3.8633    3.8269    9.3676 H   0  0  0  0  0  0  0  0  0  0  0  0
   -1.3221    3.8379   11.0722 H   0  0  0  0  0  0  0  0  0  0  0  0
    0.6608    2.4724   10.3858 H   0  0  0  0  0  0  0  0  0  0  0  0
    0.5864    2.2173   12.8046 H   0  0  0  0  0  0  0  0  0  0  0  0
   -0.0968   -0.0329   13.6105 H   0  0  0  0  0  0  0  0  0  0  0  0
   -3.0514    1.0896   11.7666 H   0  0  0  0  0  0  0  0  0  0  0  0
   -1.7486    1.4249   12.9569 H   0  0  0  0  0  0  0  0  0  0  0  0
   -1.4953    0.1976   11.6700 H   0  0  0  0  0  0  0  0  0  0  0  0
  1  2  1  0  0  0  0
  2  3  1  0  0  0  0
  3  4  2  0  0  0  0
  3 27  1  0  0  0  0
  4  5  1  0  0  0  0
  5  6  2  0  0  0  0
  6  7  1  0  0  0  0
  6 26  1  0  0  0  0
  7  8  1  0  0  0  0
  8  9  2  0  0  0  0
  8 16  1  0  0  0  0
  9 10  1  0  0  0  0
 10 11  2  0  0  0  0
 10 17  1  0  0  0  0
 11 12  1  0  0  0  0
 12 13  1  0  0  0  0
 12 16  1  0  0  0  0
 13 14  2  0  0  0  0
 14 15  1  0  0  0  0
 15 16  2  0  0  0  0
 17 18  1  0  0  0  0
 17 25  2  0  0  0  0
 18 19  2  0  0  0  0
 19 20  1  0  0  0  0
 20 21  2  0  0  0  0
 20 24  1  0  0  0  0
 21 22  1  0  0  0  0
 22 23  2  0  0  0  0
 23 24  1  0  0  0  0
 24 25  1  0  0  0  0
 26 27  2  0  0  0  0
 27 28  1  0  0  0  0
 28 29  1  0  0  0  0
  1 30  1  0  0  0  0
  1 31  1  0  0  0  0
  1 32  1  0  0  0  0
  4 33  1  0  0  0  0
  5 34  1  0  0  0  0
  7 35  1  0  0  0  0
 11 36  1  0  0  0  0
 13 37  1  0  0  0  0
 14 38  1  0  0  0  0
 18 39  1  0  0  0  0
 19 40  1  0  0  0  0
 23 41  1  0  0  0  0
 24 42  1  0  0  0  0
 25 43  1  0  0  0  0
 26 44  1  0  0  0  0
 29 45  1  0  0  0  0
 29 46  1  0  0  0  0
 29 47  1  0  0  0  0
M  END
> <IC50[nM]>
10.4

$$$$
CHEMBL3265021
  -OEChem-05192314333D
 Structure written by MMmdl.
 47 51  0     1  0  0  0  0  0999 V2000
   -4.2567   -3.1041   13.5694 C   0  0  0  0  0  0  0  0  0  0  0  0
   -3.8737   -2.3599   14.7156 O   0  0  0  0  0  0  0  0  0  0  0  0
   -2.5258   -2.1107   14.8171 C   0  0  0  0  0  0  0  0  0  0  0  0
   -1.7454   -2.8698   15.6820 C   0  0  0  0  0  0  0  0  0  0  0  0
   -0.3904   -2.6103   15.8138 C   0  0  0  0  0  0  0  0  0  0  0  0
    0.2204   -1.5845   15.0865 C   0  0  0  0  0  0  0  0  0  0  0  0
    1.6042   -1.3599   15.3206 N   0  0  0  0  0  0  0  0  0  0  0  0
    2.5373   -0.4464   14.7592 C   0  0  0  0  0  0  0  0  0  0  0  0
    2.1833    0.3714   13.7220 N   0  0  0  0  0  0  0  0  0  0  0  0
    3.1157    1.2390   13.2179 C   0  0  0  0  0  0  0  0  0  0  0  0
    4.4197    1.2848   13.7036 C   0  0  0  0  0  0  0  0  0  0  0  0
    4.7466    0.4890   14.7613 N   0  0  0  0  0  0  0  0  0  0  0  0
    5.8976    0.3767   15.4867 C   0  0  0  0  0  0  0  0  0  0  0  0
    5.5868   -0.5220   16.5302 C   0  0  0  0  0  0  0  0  0  0  0  0
    4.3755   -1.0422   16.3738 N   0  0  0  0  0  0  0  0  0  0  0  0
    3.8369   -0.3923   15.3263 C   0  0  0  0  0  0  0  0  0  0  0  0
    2.6420    2.1628   12.1182 C   0  0  3  0  0  0  0  0  0  0  0  0
    3.5476    2.6405   11.1603 C   0  0  0  0  0  0  0  0  0  0  0  0
    3.1538    3.4680   10.0985 C   0  0  0  0  0  0  0  0  0  0  0  0
    1.8053    3.8044   10.0318 C   0  0  0  0  0  0  0  0  0  0  0  0
    1.0883    4.5643    9.1320 N   0  0  0  0  0  0  0  0  0  0  0  0
   -0.2025    4.6328    9.4561 N   0  0  0  0  0  0  0  0  0  0  0  0
   -0.3779    3.9489   10.5598 C   0  0  0  0  0  0  0  0  0  0  0  0
    0.8670    3.3654   10.9941 C   0  0  0  0  0  0  0  0  0  0  0  0
    1.2880    2.5471   12.0527 C   0  0  0  0  0  0  0  0  0  0  0  0
   -0.5552   -0.8189   14.1923 C   0  0  0  0  0  0  0  0  0  0  0  0
   -1.9451   -1.0886   14.0616 C   0  0  0  0  0  0  0  0  0  0  0  0
   -2.7540   -0.3570   13.2047 O   0  0  0  0  0  0  0  0  0  0  0  0
   -2.2335    0.6444   12.3522 C   0  0  0  0  0  0  0  0  0  0  0  0
   -5.3466   -3.2526   13.5753 H   0  0  0  0  0  0  0  0  0  0  0  0
   -3.9666   -2.5545   12.6618 H   0  0  0  0  0  0  0  0  0  0  0  0
   -3.7535   -4.0822   13.5824 H   0  0  0  0  0  0  0  0  0  0  0  0
   -2.1977   -3.6662   16.2544 H   0  0  0  0  0  0  0  0  0  0  0  0
    0.2027   -3.2097   16.4886 H   0  0  0  0  0  0  0  0  0  0  0  0
    1.9979   -1.9617   16.0155 H   0  0  0  0  0  0  0  0  0  0  0  0
    5.1548    1.9353   13.2532 H   0  0  0  0  0  0  0  0  0  0  0  0
    6.8412    0.8686   15.3023 H   0  0  0  0  0  0  0  0  0  0  0  0
    6.2493   -0.7562   17.3503 H   0  0  0  0  0  0  0  0  0  0  0  0
    2.4261    1.2930   11.4804 H   0  0  0  0  0  0  0  0  0  0  0  0
    4.5874    2.3608   11.2432 H   0  0  0  0  0  0  0  0  0  0  0  0
    3.8633    3.8269    9.3676 H   0  0  0  0  0  0  0  0  0  0  0  0
   -1.3221    3.8379   11.0722 H   0  0  0  0  0  0  0  0  0  0  0  0
    0.5864    2.2173   12.8046 H   0  0  0  0  0  0  0  0  0  0  0  0
   -0.0968   -0.0329   13.6105 H   0  0  0  0  0  0  0  0  0  0  0  0
   -3.0514    1.0896   11.7666 H   0  0  0  0  0  0  0  0  0  0  0  0
   -1.7486    1.4249   12.9569 H   0  0  0  0  0  0  0  0  0  0  0  0
   -1.4953    0.1976   11.6700 H   0  0  0  0  0  0  0  0  0  0  0  0
  1  2  1  0  0  0  0
  2  3  1  0  0  0  0
  3  4  2  0  0  0  0
  3 27  1  0  0  0  0
  4  5  1  0  0  0  0
  5  6  2  0  0  0  0
  6  7  1  0  0  0  0
  6 26  1  0  0  0  0
  7  8  1  0  0  0  0
  8  9  2  0  0  0  0
  8 16  1  0  0  0  0
  9 10  1  0  0  0  0
 10 11  2  0  0  0  0
 10 17  1  0  0  0  0
 11 12  1  0  0  0  0
 12 13  1  0  0  0  0
 12 16  1  0  0  0  0
 13 14  2  0  0  0  0
 14 15  1  0  0  0  0
 15 16  2  0  0  0  0
 17 18  1  0  0  0  0
 17 25  1  0  0  0  0
 18 19  2  0  0  0  0
 19 20  1  0  0  0  0
 20 21  2  0  0  0  0
 20 24  1  0  0  0  0
 21 22  1  0  0  0  0
 22 23  2  0  0  0  0
 23 24  1  0  0  0  0
 24 25  2  0  0  0  0
 26 27  2  0  0  0  0
 27 28  1  0  0  0  0
 28 29  1  0  0  0  0
  1 30  1  0  0  0  0
  1 31  1  0  0  0  0
  1 32  1  0  0  0  0
  4 33  1  0  0  0  0
  5 34  1  0  0  0  0
  7 35  1  0  0  0  0
 11 36  1  0  0  0  0
 13 37  1  0  0  0  0
 14 38  1  0  0  0  0
 17 39  1  0  0  0  0
 18 40  1  0  0  0  0
 19 41  1  0  0  0  0
 23 42  1  0  0  0  0
 25 43  1  0  0  0  0
 26 44  1  0  0  0  0
 29 45  1  0  0  0  0
 29 46  1  0  0  0  0
 29 47  1  0  0  0  0
M  END
> <IC50[nM]>
10.4

$$$$
CHEMBL3265021
  -OEChem-05192314333D
 Structure written by MMmdl.
 47 51  0     0  0  0  0  0  0999 V2000
   -4.2567   -3.1041   13.5694 C   0  0  0  0  0  0  0  0  0  0  0  0
   -3.8737   -2.3599   14.7156 O   0  0  0  0  0  0  0  0  0  0  0  0
   -2.5258   -2.1107   14.8171 C   0  0  0  0  0  0  0  0  0  0  0  0
   -1.7454   -2.8698   15.6820 C   0  0  0  0  0  0  0  0  0  0  0  0
   -0.3904   -2.6103   15.8138 C   0  0  0  0  0  0  0  0  0  0  0  0
    0.2204   -1.5845   15.0865 C   0  0  0  0  0  0  0  0  0  0  0  0
    1.6042   -1.3599   15.3206 N   0  0  0  0  0  0  0  0  0  0  0  0
    2.5373   -0.4464   14.7592 C   0  0  0  0  0  0  0  0  0  0  0  0
    2.1833    0.3714   13.7220 N   0  0  0  0  0  0  0  0  0  0  0  0
    3.1157    1.2390   13.2179 C   0  0  0  0  0  0  0  0  0  0  0  0
    4.4197    1.2848   13.7036 C   0  0  0  0  0  0  0  0  0  0  0  0
    4.7466    0.4890   14.7613 N   0  0  0  0  0  0  0  0  0  0  0  0
    5.8976    0.3767   15.4867 C   0  0  0  0  0  0  0  0  0  0  0  0
    5.5868   -0.5220   16.5302 C   0  0  0  0  0  0  0  0  0  0  0  0
    4.3755   -1.0422   16.3738 N   0  0  0  0  0  0  0  0  0  0  0  0
    3.8369   -0.3923   15.3263 C   0  0  0  0  0  0  0  0  0  0  0  0
    2.6420    2.1628   12.1182 C   0  0  0  0  0  0  0  0  0  0  0  0
    3.5476    2.6405   11.1603 C   0  0  0  0  0  0  0  0  0  0  0  0
    3.1538    3.4680   10.0985 C   0  0  0  0  0  0  0  0  0  0  0  0
    1.8053    3.8044   10.0318 C   0  0  0  0  0  0  0  0  0  0  0  0
    1.0883    4.5643    9.1320 N   0  0  0  0  0  0  0  0  0  0  0  0
   -0.2025    4.6328    9.4561 N   0  0  0  0  0  0  0  0  0  0  0  0
   -0.3779    3.9489   10.5598 C   0  0  0  0  0  0  0  0  0  0  0  0
    0.8670    3.3654   10.9941 C   0  0  0  0  0  0  0  0  0  0  0  0
    1.2880    2.5471   12.0527 C   0  0  0  0  0  0  0  0  0  0  0  0
   -0.5552   -0.8189   14.1923 C   0  0  0  0  0  0  0  0  0  0  0  0
   -1.9451   -1.0886   14.0616 C   0  0  0  0  0  0  0  0  0  0  0  0
   -2.7540   -0.3570   13.2047 O   0  0  0  0  0  0  0  0  0  0  0  0
   -2.2335    0.6444   12.3522 C   0  0  0  0  0  0  0  0  0  0  0  0
   -5.3466   -3.2526   13.5753 H   0  0  0  0  0  0  0  0  0  0  0  0
   -3.9666   -2.5545   12.6618 H   0  0  0  0  0  0  0  0  0  0  0  0
   -3.7535   -4.0822   13.5824 H   0  0  0  0  0  0  0  0  0  0  0  0
   -2.1977   -3.6662   16.2544 H   0  0  0  0  0  0  0  0  0  0  0  0
    0.2027   -3.2097   16.4886 H   0  0  0  0  0  0  0  0  0  0  0  0
    1.9979   -1.9617   16.0155 H   0  0  0  0  0  0  0  0  0  0  0  0
    5.1548    1.9353   13.2532 H   0  0  0  0  0  0  0  0  0  0  0  0
    6.8412    0.8686   15.3023 H   0  0  0  0  0  0  0  0  0  0  0  0
    6.2493   -0.7562   17.3503 H   0  0  0  0  0  0  0  0  0  0  0  0
    4.5874    2.3608   11.2432 H   0  0  0  0  0  0  0  0  0  0  0  0
    3.7267    4.4038   10.1758 H   0  0  0  0  0  0  0  0  0  0  0  0
    3.4153    2.9543    9.1616 H   0  0  0  0  0  0  0  0  0  0  0  0
   -1.3221    3.8379   11.0722 H   0  0  0  0  0  0  0  0  0  0  0  0
    0.5864    2.2173   12.8046 H   0  0  0  0  0  0  0  0  0  0  0  0
   -0.0968   -0.0329   13.6105 H   0  0  0  0  0  0  0  0  0  0  0  0
   -3.0514    1.0896   11.7666 H   0  0  0  0  0  0  0  0  0  0  0  0
   -1.7486    1.4249   12.9569 H   0  0  0  0  0  0  0  0  0  0  0  0
   -1.4953    0.1976   11.6700 H   0  0  0  0  0  0  0  0  0  0  0  0
  1  2  1  0  0  0  0
  2  3  1  0  0  0  0
  3  4  2  0  0  0  0
  3 27  1  0  0  0  0
  4  5  1  0  0  0  0
  5  6  2  0  0  0  0
  6  7  1  0  0  0  0
  6 26  1  0  0  0  0
  7  8  1  0  0  0  0
  8  9  2  0  0  0  0
  8 16  1  0  0  0  0
  9 10  1  0  0  0  0
 10 11  2  0  0  0  0
 10 17  1  0  0  0  0
 11 12  1  0  0  0  0
 12 13  1  0  0  0  0
 12 16  1  0  0  0  0
 13 14  2  0  0  0  0
 14 15  1  0  0  0  0
 15 16  2  0  0  0  0
 17 18  2  0  0  0  0
 17 25  1  0  0  0  0
 18 19  1  0  0  0  0
 19 20  1  0  0  0  0
 20 21  2  0  0  0  0
 20 24  1  0  0  0  0
 21 22  1  0  0  0  0
 22 23  2  0  0  0  0
 23 24  1  0  0  0  0
 24 25  2  0  0  0  0
 26 27  2  0  0  0  0
 27 28  1  0  0  0  0
 28 29  1  0  0  0  0
  1 30  1  0  0  0  0
  1 31  1  0  0  0  0
  1 32  1  0  0  0  0
  4 33  1  0  0  0  0
  5 34  1  0  0  0  0
  7 35  1  0  0  0  0
 11 36  1  0  0  0  0
 13 37  1  0  0  0  0
 14 38  1  0  0  0  0
 18 39  1  0  0  0  0
 19 40  1  0  0  0  0
 19 41  1  0  0  0  0
 23 42  1  0  0  0  0
 25 43  1  0  0  0  0
 26 44  1  0  0  0  0
 29 45  1  0  0  0  0
 29 46  1  0  0  0  0
 29 47  1  0  0  0  0
M  END
> <IC50[nM]>
10.4

$$$$
CHEMBL3265021
  -OEChem-05192314333D
 Structure written by MMmdl.
 47 51  0     1  0  0  0  0  0999 V2000
   -4.2567   -3.1041   13.5694 C   0  0  0  0  0  0  0  0  0  0  0  0
   -3.8737   -2.3599   14.7156 O   0  0  0  0  0  0  0  0  0  0  0  0
   -2.5258   -2.1107   14.8171 C   0  0  0  0  0  0  0  0  0  0  0  0
   -1.7454   -2.8698   15.6820 C   0  0  0  0  0  0  0  0  0  0  0  0
   -0.3904   -2.6103   15.8138 C   0  0  0  0  0  0  0  0  0  0  0  0
    0.2204   -1.5845   15.0865 C   0  0  0  0  0  0  0  0  0  0  0  0
    1.6042   -1.3599   15.3206 N   0  0  0  0  0  0  0  0  0  0  0  0
    2.5373   -0.4464   14.7592 C   0  0  0  0  0  0  0  0  0  0  0  0
    2.1833    0.3714   13.7220 N   0  0  0  0  0  0  0  0  0  0  0  0
    3.1157    1.2390   13.2179 C   0  0  0  0  0  0  0  0  0  0  0  0
    4.4197    1.2848   13.7036 C   0  0  0  0  0  0  0  0  0  0  0  0
    4.7466    0.4890   14.7613 N   0  0  0  0  0  0  0  0  0  0  0  0
    5.8976    0.3767   15.4867 C   0  0  0  0  0  0  0  0  0  0  0  0
    5.5868   -0.5220   16.5302 C   0  0  0  0  0  0  0  0  0  0  0  0
    4.3755   -1.0422   16.3738 N   0  0  0  0  0  0  0  0  0  0  0  0
    3.8369   -0.3923   15.3263 C   0  0  0  0  0  0  0  0  0  0  0  0
    2.6420    2.1628   12.1182 C   0  0  0  0  0  0  0  0  0  0  0  0
    3.5476    2.6405   11.1603 C   0  0  0  0  0  0  0  0  0  0  0  0
    3.1538    3.4680   10.0985 C   0  0  0  0  0  0  0  0  0  0  0  0
    1.8053    3.8044   10.0318 C   0  0  3  0  0  0  0  0  0  0  0  0
    1.0883    4.5643    9.1320 N   0  0  0  0  0  0  0  0  0  0  0  0
   -0.2025    4.6328    9.4561 N   0  0  0  0  0  0  0  0  0  0  0  0
   -0.3779    3.9489   10.5598 C   0  0  0  0  0  0  0  0  0  0  0  0
    0.8670    3.3654   10.9941 C   0  0  0  0  0  0  0  0  0  0  0  0
    1.2880    2.5471   12.0527 C   0  0  0  0  0  0  0  0  0  0  0  0
   -0.5552   -0.8189   14.1923 C   0  0  0  0  0  0  0  0  0  0  0  0
   -1.9451   -1.0886   14.0616 C   0  0  0  0  0  0  0  0  0  0  0  0
   -2.7540   -0.3570   13.2047 O   0  0  0  0  0  0  0  0  0  0  0  0
   -2.2335    0.6444   12.3522 C   0  0  0  0  0  0  0  0  0  0  0  0
   -5.3466   -3.2526   13.5753 H   0  0  0  0  0  0  0  0  0  0  0  0
   -3.9666   -2.5545   12.6618 H   0  0  0  0  0  0  0  0  0  0  0  0
   -3.7535   -4.0822   13.5824 H   0  0  0  0  0  0  0  0  0  0  0  0
   -2.1977   -3.6662   16.2544 H   0  0  0  0  0  0  0  0  0  0  0  0
    0.2027   -3.2097   16.4886 H   0  0  0  0  0  0  0  0  0  0  0  0
    1.9979   -1.9617   16.0155 H   0  0  0  0  0  0  0  0  0  0  0  0
    5.1548    1.9353   13.2532 H   0  0  0  0  0  0  0  0  0  0  0  0
    6.8412    0.8686   15.3023 H   0  0  0  0  0  0  0  0  0  0  0  0
    6.2493   -0.7562   17.3503 H   0  0  0  0  0  0  0  0  0  0  0  0
    4.5874    2.3608   11.2432 H   0  0  0  0  0  0  0  0  0  0  0  0
    3.8633    3.8269    9.3676 H   0  0  0  0  0  0  0  0  0  0  0  0
    1.6098    2.9050    9.4295 H   0  0  0  0  0  0  0  0  0  0  0  0
   -1.3221    3.8379   11.0722 H   0  0  0  0  0  0  0  0  0  0  0  0
    0.5864    2.2173   12.8046 H   0  0  0  0  0  0  0  0  0  0  0  0
   -0.0968   -0.0329   13.6105 H   0  0  0  0  0  0  0  0  0  0  0  0
   -3.0514    1.0896   11.7666 H   0  0  0  0  0  0  0  0  0  0  0  0
   -1.7486    1.4249   12.9569 H   0  0  0  0  0  0  0  0  0  0  0  0
   -1.4953    0.1976   11.6700 H   0  0  0  0  0  0  0  0  0  0  0  0
  1  2  1  0  0  0  0
  2  3  1  0  0  0  0
  3  4  2  0  0  0  0
  3 27  1  0  0  0  0
  4  5  1  0  0  0  0
  5  6  2  0  0  0  0
  6  7  1  0  0  0  0
  6 26  1  0  0  0  0
  7  8  1  0  0  0  0
  8  9  2  0  0  0  0
  8 16  1  0  0  0  0
  9 10  1  0  0  0  0
 10 11  2  0  0  0  0
 10 17  1  0  0  0  0
 11 12  1  0  0  0  0
 12 13  1  0  0  0  0
 12 16  1  0  0  0  0
 13 14  2  0  0  0  0
 14 15  1  0  0  0  0
 15 16  2  0  0  0  0
 17 18  1  0  0  0  0
 17 25  2  0  0  0  0
 18 19  2  0  0  0  0
 19 20  1  0  0  0  0
 20 21  1  0  0  0  0
 20 24  1  0  0  0  0
 21 22  2  0  0  0  0
 22 23  1  0  0  0  0
 23 24  2  0  0  0  0
 24 25  1  0  0  0  0
 26 27  2  0  0  0  0
 27 28  1  0  0  0  0
 28 29  1  0  0  0  0
  1 30  1  0  0  0  0
  1 31  1  0  0  0  0
  1 32  1  0  0  0  0
  4 33  1  0  0  0  0
  5 34  1  0  0  0  0
  7 35  1  0  0  0  0
 11 36  1  0  0  0  0
 13 37  1  0  0  0  0
 14 38  1  0  0  0  0
 18 39  1  0  0  0  0
 19 40  1  0  0  0  0
 20 41  1  0  0  0  0
 23 42  1  0  0  0  0
 25 43  1  0  0  0  0
 26 44  1  0  0  0  0
 29 45  1  0  0  0  0
 29 46  1  0  0  0  0
 29 47  1  0  0  0  0
M  END
> <IC50[nM]>
10.4

$$$$
CHEMBL3265021
  -OEChem-05192314333D
 Structure written by MMmdl.
 47 51  0     0  0  0  0  0  0999 V2000
   -4.2567   -3.1041   13.5694 C   0  0  0  0  0  0  0  0  0  0  0  0
   -3.8737   -2.3599   14.7156 O   0  0  0  0  0  0  0  0  0  0  0  0
   -2.5258   -2.1107   14.8171 C   0  0  0  0  0  0  0  0  0  0  0  0
   -1.7454   -2.8698   15.6820 C   0  0  0  0  0  0  0  0  0  0  0  0
   -0.3904   -2.6103   15.8138 C   0  0  0  0  0  0  0  0  0  0  0  0
    0.2204   -1.5845   15.0865 C   0  0  0  0  0  0  0  0  0  0  0  0
    1.6042   -1.3599   15.3206 N   0  0  0  0  0  0  0  0  0  0  0  0
    2.5373   -0.4464   14.7592 C   0  0  0  0  0  0  0  0  0  0  0  0
    2.1833    0.3714   13.7220 N   0  0  0  0  0  0  0  0  0  0  0  0
    3.1157    1.2390   13.2179 C   0  0  0  0  0  0  0  0  0  0  0  0
    4.4197    1.2848   13.7036 C   0  0  0  0  0  0  0  0  0  0  0  0
    4.7466    0.4890   14.7613 N   0  0  0  0  0  0  0  0  0  0  0  0
    5.8976    0.3767   15.4867 C   0  0  0  0  0  0  0  0  0  0  0  0
    5.5868   -0.5220   16.5302 C   0  0  0  0  0  0  0  0  0  0  0  0
    4.3755   -1.0422   16.3738 N   0  0  0  0  0  0  0  0  0  0  0  0
    3.8369   -0.3923   15.3263 C   0  0  0  0  0  0  0  0  0  0  0  0
    2.6420    2.1628   12.1182 C   0  0  0  0  0  0  0  0  0  0  0  0
    3.5476    2.6405   11.1603 C   0  0  0  0  0  0  0  0  0  0  0  0
    3.1538    3.4680   10.0985 C   0  0  0  0  0  0  0  0  0  0  0  0
    1.8053    3.8044   10.0318 C   0  0  0  0  0  0  0  0  0  0  0  0
    1.0883    4.5643    9.1320 N   0  0  0  0  0  0  0  0  0  0  0  0
   -0.2025    4.6328    9.4561 N   0  0  0  0  0  0  0  0  0  0  0  0
   -0.3779    3.9489   10.5598 C   0  0  0  0  0  0  0  0  0  0  0  0
    0.8670    3.3654   10.9941 C   0  0  0  0  0  0  0  0  0  0  0  0
    1.2880    2.5471   12.0527 C   0  0  0  0  0  0  0  0  0  0  0  0
   -0.5552   -0.8189   14.1923 C   0  0  0  0  0  0  0  0  0  0  0  0
   -1.9451   -1.0886   14.0616 C   0  0  0  0  0  0  0  0  0  0  0  0
   -2.7540   -0.3570   13.2047 O   0  0  0  0  0  0  0  0  0  0  0  0
   -2.2335    0.6444   12.3522 C   0  0  0  0  0  0  0  0  0  0  0  0
   -5.3466   -3.2526   13.5753 H   0  0  0  0  0  0  0  0  0  0  0  0
   -3.9666   -2.5545   12.6618 H   0  0  0  0  0  0  0  0  0  0  0  0
   -3.7535   -4.0822   13.5824 H   0  0  0  0  0  0  0  0  0  0  0  0
   -2.1977   -3.6662   16.2544 H   0  0  0  0  0  0  0  0  0  0  0  0
    0.2027   -3.2097   16.4886 H   0  0  0  0  0  0  0  0  0  0  0  0
    1.9979   -1.9617   16.0155 H   0  0  0  0  0  0  0  0  0  0  0  0
    5.1548    1.9353   13.2532 H   0  0  0  0  0  0  0  0  0  0  0  0
    6.8412    0.8686   15.3023 H   0  0  0  0  0  0  0  0  0  0  0  0
    6.2493   -0.7562   17.3503 H   0  0  0  0  0  0  0  0  0  0  0  0
    4.3136    3.2007   11.7165 H   0  0  0  0  0  0  0  0  0  0  0  0
    4.0046    1.7513   10.7015 H   0  0  0  0  0  0  0  0  0  0  0  0
    3.8633    3.8269    9.3676 H   0  0  0  0  0  0  0  0  0  0  0  0
   -1.3221    3.8379   11.0722 H   0  0  0  0  0  0  0  0  0  0  0  0
    0.5864    2.2173   12.8046 H   0  0  0  0  0  0  0  0  0  0  0  0
   -0.0968   -0.0329   13.6105 H   0  0  0  0  0  0  0  0  0  0  0  0
   -3.0514    1.0896   11.7666 H   0  0  0  0  0  0  0  0  0  0  0  0
   -1.7486    1.4249   12.9569 H   0  0  0  0  0  0  0  0  0  0  0  0
   -1.4953    0.1976   11.6700 H   0  0  0  0  0  0  0  0  0  0  0  0
  1  2  1  0  0  0  0
  2  3  1  0  0  0  0
  3  4  2  0  0  0  0
  3 27  1  0  0  0  0
  4  5  1  0  0  0  0
  5  6  2  0  0  0  0
  6  7  1  0  0  0  0
  6 26  1  0  0  0  0
  7  8  1  0  0  0  0
  8  9  2  0  0  0  0
  8 16  1  0  0  0  0
  9 10  1  0  0  0  0
 10 11  2  0  0  0  0
 10 17  1  0  0  0  0
 11 12  1  0  0  0  0
 12 13  1  0  0  0  0
 12 16  1  0  0  0  0
 13 14  2  0  0  0  0
 14 15  1  0  0  0  0
 15 16  2  0  0  0  0
 17 18  1  0  0  0  0
 17 25  2  0  0  0  0
 18 19  1  0  0  0  0
 19 20  2  0  0  0  0
 20 21  1  0  0  0  0
 20 24  1  0  0  0  0
 21 22  2  0  0  0  0
 22 23  1  0  0  0  0
 23 24  2  0  0  0  0
 24 25  1  0  0  0  0
 26 27  2  0  0  0  0
 27 28  1  0  0  0  0
 28 29  1  0  0  0  0
  1 30  1  0  0  0  0
  1 31  1  0  0  0  0
  1 32  1  0  0  0  0
  4 33  1  0  0  0  0
  5 34  1  0  0  0  0
  7 35  1  0  0  0  0
 11 36  1  0  0  0  0
 13 37  1  0  0  0  0
 14 38  1  0  0  0  0
 18 39  1  0  0  0  0
 18 40  1  0  0  0  0
 19 41  1  0  0  0  0
 23 42  1  0  0  0  0
 25 43  1  0  0  0  0
 26 44  1  0  0  0  0
 29 45  1  0  0  0  0
 29 46  1  0  0  0  0
 29 47  1  0  0  0  0
M  END
> <IC50[nM]>
10.4

$$$$
CHEMBL3265021
  -OEChem-05192314333D
 Structure written by MMmdl.
 47 51  0     0  0  0  0  0  0999 V2000
   -4.2567   -3.1041   13.5694 C   0  0  0  0  0  0  0  0  0  0  0  0
   -3.8737   -2.3599   14.7156 O   0  0  0  0  0  0  0  0  0  0  0  0
   -2.5258   -2.1107   14.8171 C   0  0  0  0  0  0  0  0  0  0  0  0
   -1.7454   -2.8698   15.6820 C   0  0  0  0  0  0  0  0  0  0  0  0
   -0.3904   -2.6103   15.8138 C   0  0  0  0  0  0  0  0  0  0  0  0
    0.2204   -1.5845   15.0865 C   0  0  0  0  0  0  0  0  0  0  0  0
    1.6042   -1.3599   15.3206 N   0  0  0  0  0  0  0  0  0  0  0  0
    2.5373   -0.4464   14.7592 C   0  0  0  0  0  0  0  0  0  0  0  0
    2.1833    0.3714   13.7220 N   0  0  0  0  0  0  0  0  0  0  0  0
    3.1157    1.2390   13.2179 C   0  0  0  0  0  0  0  0  0  0  0  0
    4.4197    1.2848   13.7036 C   0  0  0  0  0  0  0  0  0  0  0  0
    4.7466    0.4890   14.7613 N   0  0  0  0  0  0  0  0  0  0  0  0
    5.8976    0.3767   15.4867 C   0  0  0  0  0  0  0  0  0  0  0  0
    5.5868   -0.5220   16.5302 C   0  0  0  0  0  0  0  0  0  0  0  0
    4.3755   -1.0422   16.3738 N   0  0  0  0  0  0  0  0  0  0  0  0
    3.8369   -0.3923   15.3263 C   0  0  0  0  0  0  0  0  0  0  0  0
    2.6420    2.1628   12.1182 C   0  0  0  0  0  0  0  0  0  0  0  0
    3.5476    2.6405   11.1603 C   0  0  0  0  0  0  0  0  0  0  0  0
    3.1538    3.4680   10.0985 C   0  0  0  0  0  0  0  0  0  0  0  0
    1.8053    3.8044   10.0318 C   0  0  0  0  0  0  0  0  0  0  0  0
    1.0883    4.5643    9.1320 N   0  0  0  0  0  0  0  0  0  0  0  0
   -0.2025    4.6328    9.4561 N   0  0  0  0  0  0  0  0  0  0  0  0
   -0.3779    3.9489   10.5598 C   0  0  0  0  0  0  0  0  0  0  0  0
    0.8670    3.3654   10.9941 C   0  0  0  0  0  0  0  0  0  0  0  0
    1.2880    2.5471   12.0527 C   0  0  0  0  0  0  0  0  0  0  0  0
   -0.5552   -0.8189   14.1923 C   0  0  0  0  0  0  0  0  0  0  0  0
   -1.9451   -1.0886   14.0616 C   0  0  0  0  0  0  0  0  0  0  0  0
   -2.7540   -0.3570   13.2047 O   0  0  0  0  0  0  0  0  0  0  0  0
   -2.2335    0.6444   12.3522 C   0  0  0  0  0  0  0  0  0  0  0  0
   -5.3466   -3.2526   13.5753 H   0  0  0  0  0  0  0  0  0  0  0  0
   -3.9666   -2.5545   12.6618 H   0  0  0  0  0  0  0  0  0  0  0  0
   -3.7535   -4.0822   13.5824 H   0  0  0  0  0  0  0  0  0  0  0  0
   -2.1977   -3.6662   16.2544 H   0  0  0  0  0  0  0  0  0  0  0  0
    0.2027   -3.2097   16.4886 H   0  0  0  0  0  0  0  0  0  0  0  0
    1.9979   -1.9617   16.0155 H   0  0  0  0  0  0  0  0  0  0  0  0
    5.1548    1.9353   13.2532 H   0  0  0  0  0  0  0  0  0  0  0  0
    6.8412    0.8686   15.3023 H   0  0  0  0  0  0  0  0  0  0  0  0
    6.2493   -0.7562   17.3503 H   0  0  0  0  0  0  0  0  0  0  0  0
    4.5874    2.3608   11.2432 H   0  0  0  0  0  0  0  0  0  0  0  0
    3.8633    3.8269    9.3676 H   0  0  0  0  0  0  0  0  0  0  0  0
   -1.3221    3.8379   11.0722 H   0  0  0  0  0  0  0  0  0  0  0  0
    0.6922    1.6237   12.0039 H   0  0  0  0  0  0  0  0  0  0  0  0
    1.0587    3.0826   12.9858 H   0  0  0  0  0  0  0  0  0  0  0  0
   -0.0968   -0.0329   13.6105 H   0  0  0  0  0  0  0  0  0  0  0  0
   -3.0514    1.0896   11.7666 H   0  0  0  0  0  0  0  0  0  0  0  0
   -1.7486    1.4249   12.9569 H   0  0  0  0  0  0  0  0  0  0  0  0
   -1.4953    0.1976   11.6700 H   0  0  0  0  0  0  0  0  0  0  0  0
  1  2  1  0  0  0  0
  2  3  1  0  0  0  0
  3  4  2  0  0  0  0
  3 27  1  0  0  0  0
  4  5  1  0  0  0  0
  5  6  2  0  0  0  0
  6  7  1  0  0  0  0
  6 26  1  0  0  0  0
  7  8  1  0  0  0  0
  8  9  2  0  0  0  0
  8 16  1  0  0  0  0
  9 10  1  0  0  0  0
 10 11  2  0  0  0  0
 10 17  1  0  0  0  0
 11 12  1  0  0  0  0
 12 13  1  0  0  0  0
 12 16  1  0  0  0  0
 13 14  2  0  0  0  0
 14 15  1  0  0  0  0
 15 16  2  0  0  0  0
 17 18  2  0  0  0  0
 17 25  1  0  0  0  0
 18 19  1  0  0  0  0
 19 20  2  0  0  0  0
 20 21  1  0  0  0  0
 20 24  1  0  0  0  0
 21 22  2  0  0  0  0
 22 23  1  0  0  0  0
 23 24  2  0  0  0  0
 24 25  1  0  0  0  0
 26 27  2  0  0  0  0
 27 28  1  0  0  0  0
 28 29  1  0  0  0  0
  1 30  1  0  0  0  0
  1 31  1  0  0  0  0
  1 32  1  0  0  0  0
  4 33  1  0  0  0  0
  5 34  1  0  0  0  0
  7 35  1  0  0  0  0
 11 36  1  0  0  0  0
 13 37  1  0  0  0  0
 14 38  1  0  0  0  0
 18 39  1  0  0  0  0
 19 40  1  0  0  0  0
 23 41  1  0  0  0  0
 25 42  1  0  0  0  0
 25 43  1  0  0  0  0
 26 44  1  0  0  0  0
 29 45  1  0  0  0  0
 29 46  1  0  0  0  0
 29 47  1  0  0  0  0
M  END
> <IC50[nM]>
10.4

$$$$
CHEMBL3265021
  -OEChem-05192314333D
 Structure written by MMmdl.
 47 51  0     1  0  0  0  0  0999 V2000
   -4.2567   -3.1041   13.5694 C   0  0  0  0  0  0  0  0  0  0  0  0
   -3.8737   -2.3599   14.7156 O   0  0  0  0  0  0  0  0  0  0  0  0
   -2.5258   -2.1107   14.8171 C   0  0  0  0  0  0  0  0  0  0  0  0
   -1.7454   -2.8698   15.6820 C   0  0  0  0  0  0  0  0  0  0  0  0
   -0.3904   -2.6103   15.8138 C   0  0  0  0  0  0  0  0  0  0  0  0
    0.2204   -1.5845   15.0865 C   0  0  0  0  0  0  0  0  0  0  0  0
    1.6042   -1.3599   15.3206 N   0  0  0  0  0  0  0  0  0  0  0  0
    2.5373   -0.4464   14.7592 C   0  0  0  0  0  0  0  0  0  0  0  0
    2.1833    0.3714   13.7220 N   0  0  0  0  0  0  0  0  0  0  0  0
    3.1157    1.2390   13.2179 C   0  0  0  0  0  0  0  0  0  0  0  0
    4.4197    1.2848   13.7036 C   0  0  0  0  0  0  0  0  0  0  0  0
    4.7466    0.4890   14.7613 N   0  0  0  0  0  0  0  0  0  0  0  0
    5.8976    0.3767   15.4867 C   0  0  0  0  0  0  0  0  0  0  0  0
    5.5868   -0.5220   16.5302 C   0  0  0  0  0  0  0  0  0  0  0  0
    4.3755   -1.0422   16.3738 N   0  0  0  0  0  0  0  0  0  0  0  0
    3.8369   -0.3923   15.3263 C   0  0  0  0  0  0  0  0  0  0  0  0
    2.6420    2.1628   12.1182 C   0  0  0  0  0  0  0  0  0  0  0  0
    3.5476    2.6405   11.1603 C   0  0  0  0  0  0  0  0  0  0  0  0
    3.1538    3.4680   10.0985 C   0  0  0  0  0  0  0  0  0  0  0  0
    1.8053    3.8044   10.0318 C   0  0  0  0  0  0  0  0  0  0  0  0
    1.0883    4.5643    9.1320 N   0  0  0  0  0  0  0  0  0  0  0  0
   -0.2025    4.6328    9.4561 N   0  0  0  0  0  0  0  0  0  0  0  0
   -0.3779    3.9489   10.5598 C   0  0  0  0  0  0  0  0  0  0  0  0
    0.8670    3.3654   10.9941 C   0  0  3  0  0  0  0  0  0  0  0  0
    1.2880    2.5471   12.0527 C   0  0  0  0  0  0  0  0  0  0  0  0
   -0.5552   -0.8189   14.1923 C   0  0  0  0  0  0  0  0  0  0  0  0
   -1.9451   -1.0886   14.0616 C   0  0  0  0  0  0  0  0  0  0  0  0
   -2.7540   -0.3570   13.2047 O   0  0  0  0  0  0  0  0  0  0  0  0
   -2.2335    0.6444   12.3522 C   0  0  0  0  0  0  0  0  0  0  0  0
   -5.3466   -3.2526   13.5753 H   0  0  0  0  0  0  0  0  0  0  0  0
   -3.9666   -2.5545   12.6618 H   0  0  0  0  0  0  0  0  0  0  0  0
   -3.7535   -4.0822   13.5824 H   0  0  0  0  0  0  0  0  0  0  0  0
   -2.1977   -3.6662   16.2544 H   0  0  0  0  0  0  0  0  0  0  0  0
    0.2027   -3.2097   16.4886 H   0  0  0  0  0  0  0  0  0  0  0  0
    1.2604    0.3367   13.3385 H   0  0  0  0  0  0  0  0  0  0  0  0
    5.1548    1.9353   13.2532 H   0  0  0  0  0  0  0  0  0  0  0  0
    6.8412    0.8686   15.3023 H   0  0  0  0  0  0  0  0  0  0  0  0
    6.2493   -0.7562   17.3503 H   0  0  0  0  0  0  0  0  0  0  0  0
    4.5874    2.3608   11.2432 H   0  0  0  0  0  0  0  0  0  0  0  0
    3.8633    3.8269    9.3676 H   0  0  0  0  0  0  0  0  0  0  0  0
   -1.3221    3.8379   11.0722 H   0  0  0  0  0  0  0  0  0  0  0  0
    0.6608    2.4724   10.3858 H   0  0  0  0  0  0  0  0  0  0  0  0
    0.5864    2.2173   12.8046 H   0  0  0  0  0  0  0  0  0  0  0  0
   -0.0968   -0.0329   13.6105 H   0  0  0  0  0  0  0  0  0  0  0  0
   -3.0514    1.0896   11.7666 H   0  0  0  0  0  0  0  0  0  0  0  0
   -1.7486    1.4249   12.9569 H   0  0  0  0  0  0  0  0  0  0  0  0
   -1.4953    0.1976   11.6700 H   0  0  0  0  0  0  0  0  0  0  0  0
  1  2  1  0  0  0  0
  2  3  1  0  0  0  0
  3  4  2  0  0  0  0
  3 27  1  0  0  0  0
  4  5  1  0  0  0  0
  5  6  2  0  0  0  0
  6  7  1  0  0  0  0
  6 26  1  0  0  0  0
  7  8  2  0  0  0  0
  8  9  1  0  0  0  0
  8 16  1  0  0  0  0
  9 10  1  0  0  0  0
 10 11  2  0  0  0  0
 10 17  1  0  0  0  0
 11 12  1  0  0  0  0
 12 13  1  0  0  0  0
 12 16  1  0  0  0  0
 13 14  2  0  0  0  0
 14 15  1  0  0  0  0
 15 16  2  0  0  0  0
 17 18  1  0  0  0  0
 17 25  2  0  0  0  0
 18 19  2  0  0  0  0
 19 20  1  0  0  0  0
 20 21  2  0  0  0  0
 20 24  1  0  0  0  0
 21 22  1  0  0  0  0
 22 23  2  0  0  0  0
 23 24  1  0  0  0  0
 24 25  1  0  0  0  0
 26 27  2  0  0  0  0
 27 28  1  0  0  0  0
 28 29  1  0  0  0  0
  1 30  1  0  0  0  0
  1 31  1  0  0  0  0
  1 32  1  0  0  0  0
  4 33  1  0  0  0  0
  5 34  1  0  0  0  0
  9 35  1  0  0  0  0
 11 36  1  0  0  0  0
 13 37  1  0  0  0  0
 14 38  1  0  0  0  0
 18 39  1  0  0  0  0
 19 40  1  0  0  0  0
 23 41  1  0  0  0  0
 24 42  1  0  0  0  0
 25 43  1  0  0  0  0
 26 44  1  0  0  0  0
 29 45  1  0  0  0  0
 29 46  1  0  0  0  0
 29 47  1  0  0  0  0
M  END
> <IC50[nM]>
10.4

$$$$
CHEMBL3265021
  -OEChem-05192314333D
 Structure written by MMmdl.
 47 51  0     1  0  0  0  0  0999 V2000
   -4.2567   -3.1041   13.5694 C   0  0  0  0  0  0  0  0  0  0  0  0
   -3.8737   -2.3599   14.7156 O   0  0  0  0  0  0  0  0  0  0  0  0
   -2.5258   -2.1107   14.8171 C   0  0  0  0  0  0  0  0  0  0  0  0
   -1.7454   -2.8698   15.6820 C   0  0  0  0  0  0  0  0  0  0  0  0
   -0.3904   -2.6103   15.8138 C   0  0  0  0  0  0  0  0  0  0  0  0
    0.2204   -1.5845   15.0865 C   0  0  0  0  0  0  0  0  0  0  0  0
    1.6042   -1.3599   15.3206 N   0  0  0  0  0  0  0  0  0  0  0  0
    2.5373   -0.4464   14.7592 C   0  0  0  0  0  0  0  0  0  0  0  0
    2.1833    0.3714   13.7220 N   0  0  0  0  0  0  0  0  0  0  0  0
    3.1157    1.2390   13.2179 C   0  0  0  0  0  0  0  0  0  0  0  0
    4.4197    1.2848   13.7036 C   0  0  0  0  0  0  0  0  0  0  0  0
    4.7466    0.4890   14.7613 N   0  0  0  0  0  0  0  0  0  0  0  0
    5.8976    0.3767   15.4867 C   0  0  0  0  0  0  0  0  0  0  0  0
    5.5868   -0.5220   16.5302 C   0  0  0  0  0  0  0  0  0  0  0  0
    4.3755   -1.0422   16.3738 N   0  0  0  0  0  0  0  0  0  0  0  0
    3.8369   -0.3923   15.3263 C   0  0  0  0  0  0  0  0  0  0  0  0
    2.6420    2.1628   12.1182 C   0  0  3  0  0  0  0  0  0  0  0  0
    3.5476    2.6405   11.1603 C   0  0  0  0  0  0  0  0  0  0  0  0
    3.1538    3.4680   10.0985 C   0  0  0  0  0  0  0  0  0  0  0  0
    1.8053    3.8044   10.0318 C   0  0  0  0  0  0  0  0  0  0  0  0
    1.0883    4.5643    9.1320 N   0  0  0  0  0  0  0  0  0  0  0  0
   -0.2025    4.6328    9.4561 N   0  0  0  0  0  0  0  0  0  0  0  0
   -0.3779    3.9489   10.5598 C   0  0  0  0  0  0  0  0  0  0  0  0
    0.8670    3.3654   10.9941 C   0  0  0  0  0  0  0  0  0  0  0  0
    1.2880    2.5471   12.0527 C   0  0  0  0  0  0  0  0  0  0  0  0
   -0.5552   -0.8189   14.1923 C   0  0  0  0  0  0  0  0  0  0  0  0
   -1.9451   -1.0886   14.0616 C   0  0  0  0  0  0  0  0  0  0  0  0
   -2.7540   -0.3570   13.2047 O   0  0  0  0  0  0  0  0  0  0  0  0
   -2.2335    0.6444   12.3522 C   0  0  0  0  0  0  0  0  0  0  0  0
   -5.3466   -3.2526   13.5753 H   0  0  0  0  0  0  0  0  0  0  0  0
   -3.9666   -2.5545   12.6618 H   0  0  0  0  0  0  0  0  0  0  0  0
   -3.7535   -4.0822   13.5824 H   0  0  0  0  0  0  0  0  0  0  0  0
   -2.1977   -3.6662   16.2544 H   0  0  0  0  0  0  0  0  0  0  0  0
    0.2027   -3.2097   16.4886 H   0  0  0  0  0  0  0  0  0  0  0  0
    1.2604    0.3367   13.3385 H   0  0  0  0  0  0  0  0  0  0  0  0
    5.1548    1.9353   13.2532 H   0  0  0  0  0  0  0  0  0  0  0  0
    6.8412    0.8686   15.3023 H   0  0  0  0  0  0  0  0  0  0  0  0
    6.2493   -0.7562   17.3503 H   0  0  0  0  0  0  0  0  0  0  0  0
    2.4261    1.2930   11.4804 H   0  0  0  0  0  0  0  0  0  0  0  0
    4.5874    2.3608   11.2432 H   0  0  0  0  0  0  0  0  0  0  0  0
    3.8633    3.8269    9.3676 H   0  0  0  0  0  0  0  0  0  0  0  0
   -1.3221    3.8379   11.0722 H   0  0  0  0  0  0  0  0  0  0  0  0
    0.5864    2.2173   12.8046 H   0  0  0  0  0  0  0  0  0  0  0  0
   -0.0968   -0.0329   13.6105 H   0  0  0  0  0  0  0  0  0  0  0  0
   -3.0514    1.0896   11.7666 H   0  0  0  0  0  0  0  0  0  0  0  0
   -1.7486    1.4249   12.9569 H   0  0  0  0  0  0  0  0  0  0  0  0
   -1.4953    0.1976   11.6700 H   0  0  0  0  0  0  0  0  0  0  0  0
  1  2  1  0  0  0  0
  2  3  1  0  0  0  0
  3  4  2  0  0  0  0
  3 27  1  0  0  0  0
  4  5  1  0  0  0  0
  5  6  2  0  0  0  0
  6  7  1  0  0  0  0
  6 26  1  0  0  0  0
  7  8  2  0  0  0  0
  8  9  1  0  0  0  0
  8 16  1  0  0  0  0
  9 10  1  0  0  0  0
 10 11  2  0  0  0  0
 10 17  1  0  0  0  0
 11 12  1  0  0  0  0
 12 13  1  0  0  0  0
 12 16  1  0  0  0  0
 13 14  2  0  0  0  0
 14 15  1  0  0  0  0
 15 16  2  0  0  0  0
 17 18  1  0  0  0  0
 17 25  1  0  0  0  0
 18 19  2  0  0  0  0
 19 20  1  0  0  0  0
 20 21  2  0  0  0  0
 20 24  1  0  0  0  0
 21 22  1  0  0  0  0
 22 23  2  0  0  0  0
 23 24  1  0  0  0  0
 24 25  2  0  0  0  0
 26 27  2  0  0  0  0
 27 28  1  0  0  0  0
 28 29  1  0  0  0  0
  1 30  1  0  0  0  0
  1 31  1  0  0  0  0
  1 32  1  0  0  0  0
  4 33  1  0  0  0  0
  5 34  1  0  0  0  0
  9 35  1  0  0  0  0
 11 36  1  0  0  0  0
 13 37  1  0  0  0  0
 14 38  1  0  0  0  0
 17 39  1  0  0  0  0
 18 40  1  0  0  0  0
 19 41  1  0  0  0  0
 23 42  1  0  0  0  0
 25 43  1  0  0  0  0
 26 44  1  0  0  0  0
 29 45  1  0  0  0  0
 29 46  1  0  0  0  0
 29 47  1  0  0  0  0
M  END
> <IC50[nM]>
10.4

$$$$
CHEMBL3265021
  -OEChem-05192314333D
 Structure written by MMmdl.
 47 51  0     0  0  0  0  0  0999 V2000
   -4.2567   -3.1041   13.5694 C   0  0  0  0  0  0  0  0  0  0  0  0
   -3.8737   -2.3599   14.7156 O   0  0  0  0  0  0  0  0  0  0  0  0
   -2.5258   -2.1107   14.8171 C   0  0  0  0  0  0  0  0  0  0  0  0
   -1.7454   -2.8698   15.6820 C   0  0  0  0  0  0  0  0  0  0  0  0
   -0.3904   -2.6103   15.8138 C   0  0  0  0  0  0  0  0  0  0  0  0
    0.2204   -1.5845   15.0865 C   0  0  0  0  0  0  0  0  0  0  0  0
    1.6042   -1.3599   15.3206 N   0  0  0  0  0  0  0  0  0  0  0  0
    2.5373   -0.4464   14.7592 C   0  0  0  0  0  0  0  0  0  0  0  0
    2.1833    0.3714   13.7220 N   0  0  0  0  0  0  0  0  0  0  0  0
    3.1157    1.2390   13.2179 C   0  0  0  0  0  0  0  0  0  0  0  0
    4.4197    1.2848   13.7036 C   0  0  0  0  0  0  0  0  0  0  0  0
    4.7466    0.4890   14.7613 N   0  0  0  0  0  0  0  0  0  0  0  0
    5.8976    0.3767   15.4867 C   0  0  0  0  0  0  0  0  0  0  0  0
    5.5868   -0.5220   16.5302 C   0  0  0  0  0  0  0  0  0  0  0  0
    4.3755   -1.0422   16.3738 N   0  0  0  0  0  0  0  0  0  0  0  0
    3.8369   -0.3923   15.3263 C   0  0  0  0  0  0  0  0  0  0  0  0
    2.6420    2.1628   12.1182 C   0  0  0  0  0  0  0  0  0  0  0  0
    3.5476    2.6405   11.1603 C   0  0  0  0  0  0  0  0  0  0  0  0
    3.1538    3.4680   10.0985 C   0  0  0  0  0  0  0  0  0  0  0  0
    1.8053    3.8044   10.0318 C   0  0  0  0  0  0  0  0  0  0  0  0
    1.0883    4.5643    9.1320 N   0  0  0  0  0  0  0  0  0  0  0  0
   -0.2025    4.6328    9.4561 N   0  0  0  0  0  0  0  0  0  0  0  0
   -0.3779    3.9489   10.5598 C   0  0  0  0  0  0  0  0  0  0  0  0
    0.8670    3.3654   10.9941 C   0  0  0  0  0  0  0  0  0  0  0  0
    1.2880    2.5471   12.0527 C   0  0  0  0  0  0  0  0  0  0  0  0
   -0.5552   -0.8189   14.1923 C   0  0  0  0  0  0  0  0  0  0  0  0
   -1.9451   -1.0886   14.0616 C   0  0  0  0  0  0  0  0  0  0  0  0
   -2.7540   -0.3570   13.2047 O   0  0  0  0  0  0  0  0  0  0  0  0
   -2.2335    0.6444   12.3522 C   0  0  0  0  0  0  0  0  0  0  0  0
   -5.3466   -3.2526   13.5753 H   0  0  0  0  0  0  0  0  0  0  0  0
   -3.9666   -2.5545   12.6618 H   0  0  0  0  0  0  0  0  0  0  0  0
   -3.7535   -4.0822   13.5824 H   0  0  0  0  0  0  0  0  0  0  0  0
   -2.1977   -3.6662   16.2544 H   0  0  0  0  0  0  0  0  0  0  0  0
    0.2027   -3.2097   16.4886 H   0  0  0  0  0  0  0  0  0  0  0  0
    1.2604    0.3367   13.3385 H   0  0  0  0  0  0  0  0  0  0  0  0
    5.1548    1.9353   13.2532 H   0  0  0  0  0  0  0  0  0  0  0  0
    6.8412    0.8686   15.3023 H   0  0  0  0  0  0  0  0  0  0  0  0
    6.2493   -0.7562   17.3503 H   0  0  0  0  0  0  0  0  0  0  0  0
    4.5874    2.3608   11.2432 H   0  0  0  0  0  0  0  0  0  0  0  0
    3.7267    4.4038   10.1758 H   0  0  0  0  0  0  0  0  0  0  0  0
    3.4153    2.9543    9.1616 H   0  0  0  0  0  0  0  0  0  0  0  0
   -1.3221    3.8379   11.0722 H   0  0  0  0  0  0  0  0  0  0  0  0
    0.5864    2.2173   12.8046 H   0  0  0  0  0  0  0  0  0  0  0  0
   -0.0968   -0.0329   13.6105 H   0  0  0  0  0  0  0  0  0  0  0  0
   -3.0514    1.0896   11.7666 H   0  0  0  0  0  0  0  0  0  0  0  0
   -1.7486    1.4249   12.9569 H   0  0  0  0  0  0  0  0  0  0  0  0
   -1.4953    0.1976   11.6700 H   0  0  0  0  0  0  0  0  0  0  0  0
  1  2  1  0  0  0  0
  2  3  1  0  0  0  0
  3  4  2  0  0  0  0
  3 27  1  0  0  0  0
  4  5  1  0  0  0  0
  5  6  2  0  0  0  0
  6  7  1  0  0  0  0
  6 26  1  0  0  0  0
  7  8  2  0  0  0  0
  8  9  1  0  0  0  0
  8 16  1  0  0  0  0
  9 10  1  0  0  0  0
 10 11  2  0  0  0  0
 10 17  1  0  0  0  0
 11 12  1  0  0  0  0
 12 13  1  0  0  0  0
 12 16  1  0  0  0  0
 13 14  2  0  0  0  0
 14 15  1  0  0  0  0
 15 16  2  0  0  0  0
 17 18  2  0  0  0  0
 17 25  1  0  0  0  0
 18 19  1  0  0  0  0
 19 20  1  0  0  0  0
 20 21  2  0  0  0  0
 20 24  1  0  0  0  0
 21 22  1  0  0  0  0
 22 23  2  0  0  0  0
 23 24  1  0  0  0  0
 24 25  2  0  0  0  0
 26 27  2  0  0  0  0
 27 28  1  0  0  0  0
 28 29  1  0  0  0  0
  1 30  1  0  0  0  0
  1 31  1  0  0  0  0
  1 32  1  0  0  0  0
  4 33  1  0  0  0  0
  5 34  1  0  0  0  0
  9 35  1  0  0  0  0
 11 36  1  0  0  0  0
 13 37  1  0  0  0  0
 14 38  1  0  0  0  0
 18 39  1  0  0  0  0
 19 40  1  0  0  0  0
 19 41  1  0  0  0  0
 23 42  1  0  0  0  0
 25 43  1  0  0  0  0
 26 44  1  0  0  0  0
 29 45  1  0  0  0  0
 29 46  1  0  0  0  0
 29 47  1  0  0  0  0
M  END
> <IC50[nM]>
10.4

$$$$
CHEMBL3265021
  -OEChem-05192314333D
 Structure written by MMmdl.
 47 51  0     1  0  0  0  0  0999 V2000
   -4.2567   -3.1041   13.5694 C   0  0  0  0  0  0  0  0  0  0  0  0
   -3.8737   -2.3599   14.7156 O   0  0  0  0  0  0  0  0  0  0  0  0
   -2.5258   -2.1107   14.8171 C   0  0  0  0  0  0  0  0  0  0  0  0
   -1.7454   -2.8698   15.6820 C   0  0  0  0  0  0  0  0  0  0  0  0
   -0.3904   -2.6103   15.8138 C   0  0  0  0  0  0  0  0  0  0  0  0
    0.2204   -1.5845   15.0865 C   0  0  0  0  0  0  0  0  0  0  0  0
    1.6042   -1.3599   15.3206 N   0  0  0  0  0  0  0  0  0  0  0  0
    2.5373   -0.4464   14.7592 C   0  0  0  0  0  0  0  0  0  0  0  0
    2.1833    0.3714   13.7220 N   0  0  0  0  0  0  0  0  0  0  0  0
    3.1157    1.2390   13.2179 C   0  0  0  0  0  0  0  0  0  0  0  0
    4.4197    1.2848   13.7036 C   0  0  0  0  0  0  0  0  0  0  0  0
    4.7466    0.4890   14.7613 N   0  0  0  0  0  0  0  0  0  0  0  0
    5.8976    0.3767   15.4867 C   0  0  0  0  0  0  0  0  0  0  0  0
    5.5868   -0.5220   16.5302 C   0  0  0  0  0  0  0  0  0  0  0  0
    4.3755   -1.0422   16.3738 N   0  0  0  0  0  0  0  0  0  0  0  0
    3.8369   -0.3923   15.3263 C   0  0  0  0  0  0  0  0  0  0  0  0
    2.6420    2.1628   12.1182 C   0  0  0  0  0  0  0  0  0  0  0  0
    3.5476    2.6405   11.1603 C   0  0  0  0  0  0  0  0  0  0  0  0
    3.1538    3.4680   10.0985 C   0  0  0  0  0  0  0  0  0  0  0  0
    1.8053    3.8044   10.0318 C   0  0  3  0  0  0  0  0  0  0  0  0
    1.0883    4.5643    9.1320 N   0  0  0  0  0  0  0  0  0  0  0  0
   -0.2025    4.6328    9.4561 N   0  0  0  0  0  0  0  0  0  0  0  0
   -0.3779    3.9489   10.5598 C   0  0  0  0  0  0  0  0  0  0  0  0
    0.8670    3.3654   10.9941 C   0  0  0  0  0  0  0  0  0  0  0  0
    1.2880    2.5471   12.0527 C   0  0  0  0  0  0  0  0  0  0  0  0
   -0.5552   -0.8189   14.1923 C   0  0  0  0  0  0  0  0  0  0  0  0
   -1.9451   -1.0886   14.0616 C   0  0  0  0  0  0  0  0  0  0  0  0
   -2.7540   -0.3570   13.2047 O   0  0  0  0  0  0  0  0  0  0  0  0
   -2.2335    0.6444   12.3522 C   0  0  0  0  0  0  0  0  0  0  0  0
   -5.3466   -3.2526   13.5753 H   0  0  0  0  0  0  0  0  0  0  0  0
   -3.9666   -2.5545   12.6618 H   0  0  0  0  0  0  0  0  0  0  0  0
   -3.7535   -4.0822   13.5824 H   0  0  0  0  0  0  0  0  0  0  0  0
   -2.1977   -3.6662   16.2544 H   0  0  0  0  0  0  0  0  0  0  0  0
    0.2027   -3.2097   16.4886 H   0  0  0  0  0  0  0  0  0  0  0  0
    1.2604    0.3367   13.3385 H   0  0  0  0  0  0  0  0  0  0  0  0
    5.1548    1.9353   13.2532 H   0  0  0  0  0  0  0  0  0  0  0  0
    6.8412    0.8686   15.3023 H   0  0  0  0  0  0  0  0  0  0  0  0
    6.2493   -0.7562   17.3503 H   0  0  0  0  0  0  0  0  0  0  0  0
    4.5874    2.3608   11.2432 H   0  0  0  0  0  0  0  0  0  0  0  0
    3.8633    3.8269    9.3676 H   0  0  0  0  0  0  0  0  0  0  0  0
    1.6098    2.9050    9.4295 H   0  0  0  0  0  0  0  0  0  0  0  0
   -1.3221    3.8379   11.0722 H   0  0  0  0  0  0  0  0  0  0  0  0
    0.5864    2.2173   12.8046 H   0  0  0  0  0  0  0  0  0  0  0  0
   -0.0968   -0.0329   13.6105 H   0  0  0  0  0  0  0  0  0  0  0  0
   -3.0514    1.0896   11.7666 H   0  0  0  0  0  0  0  0  0  0  0  0
   -1.7486    1.4249   12.9569 H   0  0  0  0  0  0  0  0  0  0  0  0
   -1.4953    0.1976   11.6700 H   0  0  0  0  0  0  0  0  0  0  0  0
  1  2  1  0  0  0  0
  2  3  1  0  0  0  0
  3  4  2  0  0  0  0
  3 27  1  0  0  0  0
  4  5  1  0  0  0  0
  5  6  2  0  0  0  0
  6  7  1  0  0  0  0
  6 26  1  0  0  0  0
  7  8  2  0  0  0  0
  8  9  1  0  0  0  0
  8 16  1  0  0  0  0
  9 10  1  0  0  0  0
 10 11  2  0  0  0  0
 10 17  1  0  0  0  0
 11 12  1  0  0  0  0
 12 13  1  0  0  0  0
 12 16  1  0  0  0  0
 13 14  2  0  0  0  0
 14 15  1  0  0  0  0
 15 16  2  0  0  0  0
 17 18  1  0  0  0  0
 17 25  2  0  0  0  0
 18 19  2  0  0  0  0
 19 20  1  0  0  0  0
 20 21  1  0  0  0  0
 20 24  1  0  0  0  0
 21 22  2  0  0  0  0
 22 23  1  0  0  0  0
 23 24  2  0  0  0  0
 24 25  1  0  0  0  0
 26 27  2  0  0  0  0
 27 28  1  0  0  0  0
 28 29  1  0  0  0  0
  1 30  1  0  0  0  0
  1 31  1  0  0  0  0
  1 32  1  0  0  0  0
  4 33  1  0  0  0  0
  5 34  1  0  0  0  0
  9 35  1  0  0  0  0
 11 36  1  0  0  0  0
 13 37  1  0  0  0  0
 14 38  1  0  0  0  0
 18 39  1  0  0  0  0
 19 40  1  0  0  0  0
 20 41  1  0  0  0  0
 23 42  1  0  0  0  0
 25 43  1  0  0  0  0
 26 44  1  0  0  0  0
 29 45  1  0  0  0  0
 29 46  1  0  0  0  0
 29 47  1  0  0  0  0
M  END
> <IC50[nM]>
10.4

$$$$
CHEMBL3265021
  -OEChem-05192314333D
 Structure written by MMmdl.
 47 51  0     0  0  0  0  0  0999 V2000
   -4.2567   -3.1041   13.5694 C   0  0  0  0  0  0  0  0  0  0  0  0
   -3.8737   -2.3599   14.7156 O   0  0  0  0  0  0  0  0  0  0  0  0
   -2.5258   -2.1107   14.8171 C   0  0  0  0  0  0  0  0  0  0  0  0
   -1.7454   -2.8698   15.6820 C   0  0  0  0  0  0  0  0  0  0  0  0
   -0.3904   -2.6103   15.8138 C   0  0  0  0  0  0  0  0  0  0  0  0
    0.2204   -1.5845   15.0865 C   0  0  0  0  0  0  0  0  0  0  0  0
    1.6042   -1.3599   15.3206 N   0  0  0  0  0  0  0  0  0  0  0  0
    2.5373   -0.4464   14.7592 C   0  0  0  0  0  0  0  0  0  0  0  0
    2.1833    0.3714   13.7220 N   0  0  0  0  0  0  0  0  0  0  0  0
    3.1157    1.2390   13.2179 C   0  0  0  0  0  0  0  0  0  0  0  0
    4.4197    1.2848   13.7036 C   0  0  0  0  0  0  0  0  0  0  0  0
    4.7466    0.4890   14.7613 N   0  0  0  0  0  0  0  0  0  0  0  0
    5.8976    0.3767   15.4867 C   0  0  0  0  0  0  0  0  0  0  0  0
    5.5868   -0.5220   16.5302 C   0  0  0  0  0  0  0  0  0  0  0  0
    4.3755   -1.0422   16.3738 N   0  0  0  0  0  0  0  0  0  0  0  0
    3.8369   -0.3923   15.3263 C   0  0  0  0  0  0  0  0  0  0  0  0
    2.6420    2.1628   12.1182 C   0  0  0  0  0  0  0  0  0  0  0  0
    3.5476    2.6405   11.1603 C   0  0  0  0  0  0  0  0  0  0  0  0
    3.1538    3.4680   10.0985 C   0  0  0  0  0  0  0  0  0  0  0  0
    1.8053    3.8044   10.0318 C   0  0  0  0  0  0  0  0  0  0  0  0
    1.0883    4.5643    9.1320 N   0  0  0  0  0  0  0  0  0  0  0  0
   -0.2025    4.6328    9.4561 N   0  0  0  0  0  0  0  0  0  0  0  0
   -0.3779    3.9489   10.5598 C   0  0  0  0  0  0  0  0  0  0  0  0
    0.8670    3.3654   10.9941 C   0  0  0  0  0  0  0  0  0  0  0  0
    1.2880    2.5471   12.0527 C   0  0  0  0  0  0  0  0  0  0  0  0
   -0.5552   -0.8189   14.1923 C   0  0  0  0  0  0  0  0  0  0  0  0
   -1.9451   -1.0886   14.0616 C   0  0  0  0  0  0  0  0  0  0  0  0
   -2.7540   -0.3570   13.2047 O   0  0  0  0  0  0  0  0  0  0  0  0
   -2.2335    0.6444   12.3522 C   0  0  0  0  0  0  0  0  0  0  0  0
   -5.3466   -3.2526   13.5753 H   0  0  0  0  0  0  0  0  0  0  0  0
   -3.9666   -2.5545   12.6618 H   0  0  0  0  0  0  0  0  0  0  0  0
   -3.7535   -4.0822   13.5824 H   0  0  0  0  0  0  0  0  0  0  0  0
   -2.1977   -3.6662   16.2544 H   0  0  0  0  0  0  0  0  0  0  0  0
    0.2027   -3.2097   16.4886 H   0  0  0  0  0  0  0  0  0  0  0  0
    1.2604    0.3367   13.3385 H   0  0  0  0  0  0  0  0  0  0  0  0
    5.1548    1.9353   13.2532 H   0  0  0  0  0  0  0  0  0  0  0  0
    6.8412    0.8686   15.3023 H   0  0  0  0  0  0  0  0  0  0  0  0
    6.2493   -0.7562   17.3503 H   0  0  0  0  0  0  0  0  0  0  0  0
    4.3136    3.2007   11.7165 H   0  0  0  0  0  0  0  0  0  0  0  0
    4.0046    1.7513   10.7015 H   0  0  0  0  0  0  0  0  0  0  0  0
    3.8633    3.8269    9.3676 H   0  0  0  0  0  0  0  0  0  0  0  0
   -1.3221    3.8379   11.0722 H   0  0  0  0  0  0  0  0  0  0  0  0
    0.5864    2.2173   12.8046 H   0  0  0  0  0  0  0  0  0  0  0  0
   -0.0968   -0.0329   13.6105 H   0  0  0  0  0  0  0  0  0  0  0  0
   -3.0514    1.0896   11.7666 H   0  0  0  0  0  0  0  0  0  0  0  0
   -1.7486    1.4249   12.9569 H   0  0  0  0  0  0  0  0  0  0  0  0
   -1.4953    0.1976   11.6700 H   0  0  0  0  0  0  0  0  0  0  0  0
  1  2  1  0  0  0  0
  2  3  1  0  0  0  0
  3  4  2  0  0  0  0
  3 27  1  0  0  0  0
  4  5  1  0  0  0  0
  5  6  2  0  0  0  0
  6  7  1  0  0  0  0
  6 26  1  0  0  0  0
  7  8  2  0  0  0  0
  8  9  1  0  0  0  0
  8 16  1  0  0  0  0
  9 10  1  0  0  0  0
 10 11  2  0  0  0  0
 10 17  1  0  0  0  0
 11 12  1  0  0  0  0
 12 13  1  0  0  0  0
 12 16  1  0  0  0  0
 13 14  2  0  0  0  0
 14 15  1  0  0  0  0
 15 16  2  0  0  0  0
 17 18  1  0  0  0  0
 17 25  2  0  0  0  0
 18 19  1  0  0  0  0
 19 20  2  0  0  0  0
 20 21  1  0  0  0  0
 20 24  1  0  0  0  0
 21 22  2  0  0  0  0
 22 23  1  0  0  0  0
 23 24  2  0  0  0  0
 24 25  1  0  0  0  0
 26 27  2  0  0  0  0
 27 28  1  0  0  0  0
 28 29  1  0  0  0  0
  1 30  1  0  0  0  0
  1 31  1  0  0  0  0
  1 32  1  0  0  0  0
  4 33  1  0  0  0  0
  5 34  1  0  0  0  0
  9 35  1  0  0  0  0
 11 36  1  0  0  0  0
 13 37  1  0  0  0  0
 14 38  1  0  0  0  0
 18 39  1  0  0  0  0
 18 40  1  0  0  0  0
 19 41  1  0  0  0  0
 23 42  1  0  0  0  0
 25 43  1  0  0  0  0
 26 44  1  0  0  0  0
 29 45  1  0  0  0  0
 29 46  1  0  0  0  0
 29 47  1  0  0  0  0
M  END
> <IC50[nM]>
10.4

$$$$
CHEMBL3265021
  -OEChem-05192314333D
 Structure written by MMmdl.
 47 51  0     0  0  0  0  0  0999 V2000
   -4.2567   -3.1041   13.5694 C   0  0  0  0  0  0  0  0  0  0  0  0
   -3.8737   -2.3599   14.7156 O   0  0  0  0  0  0  0  0  0  0  0  0
   -2.5258   -2.1107   14.8171 C   0  0  0  0  0  0  0  0  0  0  0  0
   -1.7454   -2.8698   15.6820 C   0  0  0  0  0  0  0  0  0  0  0  0
   -0.3904   -2.6103   15.8138 C   0  0  0  0  0  0  0  0  0  0  0  0
    0.2204   -1.5845   15.0865 C   0  0  0  0  0  0  0  0  0  0  0  0
    1.6042   -1.3599   15.3206 N   0  0  0  0  0  0  0  0  0  0  0  0
    2.5373   -0.4464   14.7592 C   0  0  0  0  0  0  0  0  0  0  0  0
    2.1833    0.3714   13.7220 N   0  0  0  0  0  0  0  0  0  0  0  0
    3.1157    1.2390   13.2179 C   0  0  0  0  0  0  0  0  0  0  0  0
    4.4197    1.2848   13.7036 C   0  0  0  0  0  0  0  0  0  0  0  0
    4.7466    0.4890   14.7613 N   0  0  0  0  0  0  0  0  0  0  0  0
    5.8976    0.3767   15.4867 C   0  0  0  0  0  0  0  0  0  0  0  0
    5.5868   -0.5220   16.5302 C   0  0  0  0  0  0  0  0  0  0  0  0
    4.3755   -1.0422   16.3738 N   0  0  0  0  0  0  0  0  0  0  0  0
    3.8369   -0.3923   15.3263 C   0  0  0  0  0  0  0  0  0  0  0  0
    2.6420    2.1628   12.1182 C   0  0  0  0  0  0  0  0  0  0  0  0
    3.5476    2.6405   11.1603 C   0  0  0  0  0  0  0  0  0  0  0  0
    3.1538    3.4680   10.0985 C   0  0  0  0  0  0  0  0  0  0  0  0
    1.8053    3.8044   10.0318 C   0  0  0  0  0  0  0  0  0  0  0  0
    1.0883    4.5643    9.1320 N   0  0  0  0  0  0  0  0  0  0  0  0
   -0.2025    4.6328    9.4561 N   0  0  0  0  0  0  0  0  0  0  0  0
   -0.3779    3.9489   10.5598 C   0  0  0  0  0  0  0  0  0  0  0  0
    0.8670    3.3654   10.9941 C   0  0  0  0  0  0  0  0  0  0  0  0
    1.2880    2.5471   12.0527 C   0  0  0  0  0  0  0  0  0  0  0  0
   -0.5552   -0.8189   14.1923 C   0  0  0  0  0  0  0  0  0  0  0  0
   -1.9451   -1.0886   14.0616 C   0  0  0  0  0  0  0  0  0  0  0  0
   -2.7540   -0.3570   13.2047 O   0  0  0  0  0  0  0  0  0  0  0  0
   -2.2335    0.6444   12.3522 C   0  0  0  0  0  0  0  0  0  0  0  0
   -5.3466   -3.2526   13.5753 H   0  0  0  0  0  0  0  0  0  0  0  0
   -3.9666   -2.5545   12.6618 H   0  0  0  0  0  0  0  0  0  0  0  0
   -3.7535   -4.0822   13.5824 H   0  0  0  0  0  0  0  0  0  0  0  0
   -2.1977   -3.6662   16.2544 H   0  0  0  0  0  0  0  0  0  0  0  0
    0.2027   -3.2097   16.4886 H   0  0  0  0  0  0  0  0  0  0  0  0
    1.2604    0.3367   13.3385 H   0  0  0  0  0  0  0  0  0  0  0  0
    5.1548    1.9353   13.2532 H   0  0  0  0  0  0  0  0  0  0  0  0
    6.8412    0.8686   15.3023 H   0  0  0  0  0  0  0  0  0  0  0  0
    6.2493   -0.7562   17.3503 H   0  0  0  0  0  0  0  0  0  0  0  0
    4.5874    2.3608   11.2432 H   0  0  0  0  0  0  0  0  0  0  0  0
    3.8633    3.8269    9.3676 H   0  0  0  0  0  0  0  0  0  0  0  0
   -1.3221    3.8379   11.0722 H   0  0  0  0  0  0  0  0  0  0  0  0
    0.6922    1.6237   12.0039 H   0  0  0  0  0  0  0  0  0  0  0  0
    1.0587    3.0826   12.9858 H   0  0  0  0  0  0  0  0  0  0  0  0
   -0.0968   -0.0329   13.6105 H   0  0  0  0  0  0  0  0  0  0  0  0
   -3.0514    1.0896   11.7666 H   0  0  0  0  0  0  0  0  0  0  0  0
   -1.7486    1.4249   12.9569 H   0  0  0  0  0  0  0  0  0  0  0  0
   -1.4953    0.1976   11.6700 H   0  0  0  0  0  0  0  0  0  0  0  0
  1  2  1  0  0  0  0
  2  3  1  0  0  0  0
  3  4  2  0  0  0  0
  3 27  1  0  0  0  0
  4  5  1  0  0  0  0
  5  6  2  0  0  0  0
  6  7  1  0  0  0  0
  6 26  1  0  0  0  0
  7  8  2  0  0  0  0
  8  9  1  0  0  0  0
  8 16  1  0  0  0  0
  9 10  1  0  0  0  0
 10 11  2  0  0  0  0
 10 17  1  0  0  0  0
 11 12  1  0  0  0  0
 12 13  1  0  0  0  0
 12 16  1  0  0  0  0
 13 14  2  0  0  0  0
 14 15  1  0  0  0  0
 15 16  2  0  0  0  0
 17 18  2  0  0  0  0
 17 25  1  0  0  0  0
 18 19  1  0  0  0  0
 19 20  2  0  0  0  0
 20 21  1  0  0  0  0
 20 24  1  0  0  0  0
 21 22  2  0  0  0  0
 22 23  1  0  0  0  0
 23 24  2  0  0  0  0
 24 25  1  0  0  0  0
 26 27  2  0  0  0  0
 27 28  1  0  0  0  0
 28 29  1  0  0  0  0
  1 30  1  0  0  0  0
  1 31  1  0  0  0  0
  1 32  1  0  0  0  0
  4 33  1  0  0  0  0
  5 34  1  0  0  0  0
  9 35  1  0  0  0  0
 11 36  1  0  0  0  0
 13 37  1  0  0  0  0
 14 38  1  0  0  0  0
 18 39  1  0  0  0  0
 19 40  1  0  0  0  0
 23 41  1  0  0  0  0
 25 42  1  0  0  0  0
 25 43  1  0  0  0  0
 26 44  1  0  0  0  0
 29 45  1  0  0  0  0
 29 46  1  0  0  0  0
 29 47  1  0  0  0  0
M  END
> <IC50[nM]>
10.4

$$$$
CHEMBL3265021
  -OEChem-05192314333D
 Structure written by MMmdl.
 47 51  0     1  0  0  0  0  0999 V2000
   -4.2567   -3.1041   13.5694 C   0  0  0  0  0  0  0  0  0  0  0  0
   -3.8737   -2.3599   14.7156 O   0  0  0  0  0  0  0  0  0  0  0  0
   -2.5258   -2.1107   14.8171 C   0  0  0  0  0  0  0  0  0  0  0  0
   -1.7454   -2.8698   15.6820 C   0  0  0  0  0  0  0  0  0  0  0  0
   -0.3904   -2.6103   15.8138 C   0  0  0  0  0  0  0  0  0  0  0  0
    0.2204   -1.5845   15.0865 C   0  0  0  0  0  0  0  0  0  0  0  0
    1.6042   -1.3599   15.3206 N   0  0  0  0  0  0  0  0  0  0  0  0
    2.5373   -0.4464   14.7592 C   0  0  0  0  0  0  0  0  0  0  0  0
    2.1833    0.3714   13.7220 N   0  0  0  0  0  0  0  0  0  0  0  0
    3.1157    1.2390   13.2179 C   0  0  0  0  0  0  0  0  0  0  0  0
    4.4197    1.2848   13.7036 C   0  0  0  0  0  0  0  0  0  0  0  0
    4.7466    0.4890   14.7613 N   0  0  0  0  0  0  0  0  0  0  0  0
    5.8976    0.3767   15.4867 C   0  0  0  0  0  0  0  0  0  0  0  0
    5.5868   -0.5220   16.5302 C   0  0  0  0  0  0  0  0  0  0  0  0
    4.3755   -1.0422   16.3738 N   0  0  0  0  0  0  0  0  0  0  0  0
    3.8369   -0.3923   15.3263 C   0  0  0  0  0  0  0  0  0  0  0  0
    2.6420    2.1628   12.1182 C   0  0  0  0  0  0  0  0  0  0  0  0
    3.5476    2.6405   11.1603 C   0  0  0  0  0  0  0  0  0  0  0  0
    3.1538    3.4680   10.0985 C   0  0  0  0  0  0  0  0  0  0  0  0
    1.8053    3.8044   10.0318 C   0  0  0  0  0  0  0  0  0  0  0  0
    1.0883    4.5643    9.1320 N   0  0  0  0  0  0  0  0  0  0  0  0
   -0.2025    4.6328    9.4561 N   0  0  0  0  0  0  0  0  0  0  0  0
   -0.3779    3.9489   10.5598 C   0  0  0  0  0  0  0  0  0  0  0  0
    0.8670    3.3654   10.9941 C   0  0  3  0  0  0  0  0  0  0  0  0
    1.2880    2.5471   12.0527 C   0  0  0  0  0  0  0  0  0  0  0  0
   -0.5552   -0.8189   14.1923 C   0  0  0  0  0  0  0  0  0  0  0  0
   -1.9451   -1.0886   14.0616 C   0  0  0  0  0  0  0  0  0  0  0  0
   -2.7540   -0.3570   13.2047 O   0  0  0  0  0  0  0  0  0  0  0  0
   -2.2335    0.6444   12.3522 C   0  0  0  0  0  0  0  0  0  0  0  0
   -5.3466   -3.2526   13.5753 H   0  0  0  0  0  0  0  0  0  0  0  0
   -3.9666   -2.5545   12.6618 H   0  0  0  0  0  0  0  0  0  0  0  0
   -3.7535   -4.0822   13.5824 H   0  0  0  0  0  0  0  0  0  0  0  0
   -2.1977   -3.6662   16.2544 H   0  0  0  0  0  0  0  0  0  0  0  0
    0.2027   -3.2097   16.4886 H   0  0  0  0  0  0  0  0  0  0  0  0
    5.0860    1.0107   12.8724 H   0  0  0  0  0  0  0  0  0  0  0  0
    4.6180    2.3239   14.0051 H   0  0  0  0  0  0  0  0  0  0  0  0
    6.8412    0.8686   15.3023 H   0  0  0  0  0  0  0  0  0  0  0  0
    6.2493   -0.7562   17.3503 H   0  0  0  0  0  0  0  0  0  0  0  0
    4.5874    2.3608   11.2432 H   0  0  0  0  0  0  0  0  0  0  0  0
    3.8633    3.8269    9.3676 H   0  0  0  0  0  0  0  0  0  0  0  0
   -1.3221    3.8379   11.0722 H   0  0  0  0  0  0  0  0  0  0  0  0
    0.6608    2.4724   10.3858 H   0  0  0  0  0  0  0  0  0  0  0  0
    0.5864    2.2173   12.8046 H   0  0  0  0  0  0  0  0  0  0  0  0
   -0.0968   -0.0329   13.6105 H   0  0  0  0  0  0  0  0  0  0  0  0
   -3.0514    1.0896   11.7666 H   0  0  0  0  0  0  0  0  0  0  0  0
   -1.7486    1.4249   12.9569 H   0  0  0  0  0  0  0  0  0  0  0  0
   -1.4953    0.1976   11.6700 H   0  0  0  0  0  0  0  0  0  0  0  0
  1  2  1  0  0  0  0
  2  3  1  0  0  0  0
  3  4  2  0  0  0  0
  3 27  1  0  0  0  0
  4  5  1  0  0  0  0
  5  6  2  0  0  0  0
  6  7  1  0  0  0  0
  6 26  1  0  0  0  0
  7  8  2  0  0  0  0
  8  9  1  0  0  0  0
  8 16  1  0  0  0  0
  9 10  2  0  0  0  0
 10 11  1  0  0  0  0
 10 17  1  0  0  0  0
 11 12  1  0  0  0  0
 12 13  1  0  0  0  0
 12 16  1  0  0  0  0
 13 14  2  0  0  0  0
 14 15  1  0  0  0  0
 15 16  2  0  0  0  0
 17 18  1  0  0  0  0
 17 25  2  0  0  0  0
 18 19  2  0  0  0  0
 19 20  1  0  0  0  0
 20 21  2  0  0  0  0
 20 24  1  0  0  0  0
 21 22  1  0  0  0  0
 22 23  2  0  0  0  0
 23 24  1  0  0  0  0
 24 25  1  0  0  0  0
 26 27  2  0  0  0  0
 27 28  1  0  0  0  0
 28 29  1  0  0  0  0
  1 30  1  0  0  0  0
  1 31  1  0  0  0  0
  1 32  1  0  0  0  0
  4 33  1  0  0  0  0
  5 34  1  0  0  0  0
 11 35  1  0  0  0  0
 11 36  1  0  0  0  0
 13 37  1  0  0  0  0
 14 38  1  0  0  0  0
 18 39  1  0  0  0  0
 19 40  1  0  0  0  0
 23 41  1  0  0  0  0
 24 42  1  0  0  0  0
 25 43  1  0  0  0  0
 26 44  1  0  0  0  0
 29 45  1  0  0  0  0
 29 46  1  0  0  0  0
 29 47  1  0  0  0  0
M  END
> <IC50[nM]>
10.4

$$$$
CHEMBL3265021
  -OEChem-05192314333D
 Structure written by MMmdl.
 47 51  0     1  0  0  0  0  0999 V2000
   -4.2567   -3.1041   13.5694 C   0  0  0  0  0  0  0  0  0  0  0  0
   -3.8737   -2.3599   14.7156 O   0  0  0  0  0  0  0  0  0  0  0  0
   -2.5258   -2.1107   14.8171 C   0  0  0  0  0  0  0  0  0  0  0  0
   -1.7454   -2.8698   15.6820 C   0  0  0  0  0  0  0  0  0  0  0  0
   -0.3904   -2.6103   15.8138 C   0  0  0  0  0  0  0  0  0  0  0  0
    0.2204   -1.5845   15.0865 C   0  0  0  0  0  0  0  0  0  0  0  0
    1.6042   -1.3599   15.3206 N   0  0  0  0  0  0  0  0  0  0  0  0
    2.5373   -0.4464   14.7592 C   0  0  0  0  0  0  0  0  0  0  0  0
    2.1833    0.3714   13.7220 N   0  0  0  0  0  0  0  0  0  0  0  0
    3.1157    1.2390   13.2179 C   0  0  0  0  0  0  0  0  0  0  0  0
    4.4197    1.2848   13.7036 C   0  0  0  0  0  0  0  0  0  0  0  0
    4.7466    0.4890   14.7613 N   0  0  0  0  0  0  0  0  0  0  0  0
    5.8976    0.3767   15.4867 C   0  0  0  0  0  0  0  0  0  0  0  0
    5.5868   -0.5220   16.5302 C   0  0  0  0  0  0  0  0  0  0  0  0
    4.3755   -1.0422   16.3738 N   0  0  0  0  0  0  0  0  0  0  0  0
    3.8369   -0.3923   15.3263 C   0  0  0  0  0  0  0  0  0  0  0  0
    2.6420    2.1628   12.1182 C   0  0  3  0  0  0  0  0  0  0  0  0
    3.5476    2.6405   11.1603 C   0  0  0  0  0  0  0  0  0  0  0  0
    3.1538    3.4680   10.0985 C   0  0  0  0  0  0  0  0  0  0  0  0
    1.8053    3.8044   10.0318 C   0  0  0  0  0  0  0  0  0  0  0  0
    1.0883    4.5643    9.1320 N   0  0  0  0  0  0  0  0  0  0  0  0
   -0.2025    4.6328    9.4561 N   0  0  0  0  0  0  0  0  0  0  0  0
   -0.3779    3.9489   10.5598 C   0  0  0  0  0  0  0  0  0  0  0  0
    0.8670    3.3654   10.9941 C   0  0  0  0  0  0  0  0  0  0  0  0
    1.2880    2.5471   12.0527 C   0  0  0  0  0  0  0  0  0  0  0  0
   -0.5552   -0.8189   14.1923 C   0  0  0  0  0  0  0  0  0  0  0  0
   -1.9451   -1.0886   14.0616 C   0  0  0  0  0  0  0  0  0  0  0  0
   -2.7540   -0.3570   13.2047 O   0  0  0  0  0  0  0  0  0  0  0  0
   -2.2335    0.6444   12.3522 C   0  0  0  0  0  0  0  0  0  0  0  0
   -5.3466   -3.2526   13.5753 H   0  0  0  0  0  0  0  0  0  0  0  0
   -3.9666   -2.5545   12.6618 H   0  0  0  0  0  0  0  0  0  0  0  0
   -3.7535   -4.0822   13.5824 H   0  0  0  0  0  0  0  0  0  0  0  0
   -2.1977   -3.6662   16.2544 H   0  0  0  0  0  0  0  0  0  0  0  0
    0.2027   -3.2097   16.4886 H   0  0  0  0  0  0  0  0  0  0  0  0
    5.0860    1.0107   12.8724 H   0  0  0  0  0  0  0  0  0  0  0  0
    4.6180    2.3239   14.0051 H   0  0  0  0  0  0  0  0  0  0  0  0
    6.8412    0.8686   15.3023 H   0  0  0  0  0  0  0  0  0  0  0  0
    6.2493   -0.7562   17.3503 H   0  0  0  0  0  0  0  0  0  0  0  0
    2.4261    1.2930   11.4804 H   0  0  0  0  0  0  0  0  0  0  0  0
    4.5874    2.3608   11.2432 H   0  0  0  0  0  0  0  0  0  0  0  0
    3.8633    3.8269    9.3676 H   0  0  0  0  0  0  0  0  0  0  0  0
   -1.3221    3.8379   11.0722 H   0  0  0  0  0  0  0  0  0  0  0  0
    0.5864    2.2173   12.8046 H   0  0  0  0  0  0  0  0  0  0  0  0
   -0.0968   -0.0329   13.6105 H   0  0  0  0  0  0  0  0  0  0  0  0
   -3.0514    1.0896   11.7666 H   0  0  0  0  0  0  0  0  0  0  0  0
   -1.7486    1.4249   12.9569 H   0  0  0  0  0  0  0  0  0  0  0  0
   -1.4953    0.1976   11.6700 H   0  0  0  0  0  0  0  0  0  0  0  0
  1  2  1  0  0  0  0
  2  3  1  0  0  0  0
  3  4  2  0  0  0  0
  3 27  1  0  0  0  0
  4  5  1  0  0  0  0
  5  6  2  0  0  0  0
  6  7  1  0  0  0  0
  6 26  1  0  0  0  0
  7  8  2  0  0  0  0
  8  9  1  0  0  0  0
  8 16  1  0  0  0  0
  9 10  2  0  0  0  0
 10 11  1  0  0  0  0
 10 17  1  0  0  0  0
 11 12  1  0  0  0  0
 12 13  1  0  0  0  0
 12 16  1  0  0  0  0
 13 14  2  0  0  0  0
 14 15  1  0  0  0  0
 15 16  2  0  0  0  0
 17 18  1  0  0  0  0
 17 25  1  0  0  0  0
 18 19  2  0  0  0  0
 19 20  1  0  0  0  0
 20 21  2  0  0  0  0
 20 24  1  0  0  0  0
 21 22  1  0  0  0  0
 22 23  2  0  0  0  0
 23 24  1  0  0  0  0
 24 25  2  0  0  0  0
 26 27  2  0  0  0  0
 27 28  1  0  0  0  0
 28 29  1  0  0  0  0
  1 30  1  0  0  0  0
  1 31  1  0  0  0  0
  1 32  1  0  0  0  0
  4 33  1  0  0  0  0
  5 34  1  0  0  0  0
 11 35  1  0  0  0  0
 11 36  1  0  0  0  0
 13 37  1  0  0  0  0
 14 38  1  0  0  0  0
 17 39  1  0  0  0  0
 18 40  1  0  0  0  0
 19 41  1  0  0  0  0
 23 42  1  0  0  0  0
 25 43  1  0  0  0  0
 26 44  1  0  0  0  0
 29 45  1  0  0  0  0
 29 46  1  0  0  0  0
 29 47  1  0  0  0  0
M  END
> <IC50[nM]>
10.4

$$$$
CHEMBL3265021
  -OEChem-05192314333D
 Structure written by MMmdl.
 47 51  0     0  0  0  0  0  0999 V2000
   -4.2567   -3.1041   13.5694 C   0  0  0  0  0  0  0  0  0  0  0  0
   -3.8737   -2.3599   14.7156 O   0  0  0  0  0  0  0  0  0  0  0  0
   -2.5258   -2.1107   14.8171 C   0  0  0  0  0  0  0  0  0  0  0  0
   -1.7454   -2.8698   15.6820 C   0  0  0  0  0  0  0  0  0  0  0  0
   -0.3904   -2.6103   15.8138 C   0  0  0  0  0  0  0  0  0  0  0  0
    0.2204   -1.5845   15.0865 C   0  0  0  0  0  0  0  0  0  0  0  0
    1.6042   -1.3599   15.3206 N   0  0  0  0  0  0  0  0  0  0  0  0
    2.5373   -0.4464   14.7592 C   0  0  0  0  0  0  0  0  0  0  0  0
    2.1833    0.3714   13.7220 N   0  0  0  0  0  0  0  0  0  0  0  0
    3.1157    1.2390   13.2179 C   0  0  0  0  0  0  0  0  0  0  0  0
    4.4197    1.2848   13.7036 C   0  0  0  0  0  0  0  0  0  0  0  0
    4.7466    0.4890   14.7613 N   0  0  0  0  0  0  0  0  0  0  0  0
    5.8976    0.3767   15.4867 C   0  0  0  0  0  0  0  0  0  0  0  0
    5.5868   -0.5220   16.5302 C   0  0  0  0  0  0  0  0  0  0  0  0
    4.3755   -1.0422   16.3738 N   0  0  0  0  0  0  0  0  0  0  0  0
    3.8369   -0.3923   15.3263 C   0  0  0  0  0  0  0  0  0  0  0  0
    2.6420    2.1628   12.1182 C   0  0  0  0  0  0  0  0  0  0  0  0
    3.5476    2.6405   11.1603 C   0  0  0  0  0  0  0  0  0  0  0  0
    3.1538    3.4680   10.0985 C   0  0  0  0  0  0  0  0  0  0  0  0
    1.8053    3.8044   10.0318 C   0  0  0  0  0  0  0  0  0  0  0  0
    1.0883    4.5643    9.1320 N   0  0  0  0  0  0  0  0  0  0  0  0
   -0.2025    4.6328    9.4561 N   0  0  0  0  0  0  0  0  0  0  0  0
   -0.3779    3.9489   10.5598 C   0  0  0  0  0  0  0  0  0  0  0  0
    0.8670    3.3654   10.9941 C   0  0  0  0  0  0  0  0  0  0  0  0
    1.2880    2.5471   12.0527 C   0  0  0  0  0  0  0  0  0  0  0  0
   -0.5552   -0.8189   14.1923 C   0  0  0  0  0  0  0  0  0  0  0  0
   -1.9451   -1.0886   14.0616 C   0  0  0  0  0  0  0  0  0  0  0  0
   -2.7540   -0.3570   13.2047 O   0  0  0  0  0  0  0  0  0  0  0  0
   -2.2335    0.6444   12.3522 C   0  0  0  0  0  0  0  0  0  0  0  0
   -5.3466   -3.2526   13.5753 H   0  0  0  0  0  0  0  0  0  0  0  0
   -3.9666   -2.5545   12.6618 H   0  0  0  0  0  0  0  0  0  0  0  0
   -3.7535   -4.0822   13.5824 H   0  0  0  0  0  0  0  0  0  0  0  0
   -2.1977   -3.6662   16.2544 H   0  0  0  0  0  0  0  0  0  0  0  0
    0.2027   -3.2097   16.4886 H   0  0  0  0  0  0  0  0  0  0  0  0
    5.0860    1.0107   12.8724 H   0  0  0  0  0  0  0  0  0  0  0  0
    4.6180    2.3239   14.0051 H   0  0  0  0  0  0  0  0  0  0  0  0
    6.8412    0.8686   15.3023 H   0  0  0  0  0  0  0  0  0  0  0  0
    6.2493   -0.7562   17.3503 H   0  0  0  0  0  0  0  0  0  0  0  0
    4.5874    2.3608   11.2432 H   0  0  0  0  0  0  0  0  0  0  0  0
    3.7267    4.4038   10.1758 H   0  0  0  0  0  0  0  0  0  0  0  0
    3.4153    2.9543    9.1616 H   0  0  0  0  0  0  0  0  0  0  0  0
   -1.3221    3.8379   11.0722 H   0  0  0  0  0  0  0  0  0  0  0  0
    0.5864    2.2173   12.8046 H   0  0  0  0  0  0  0  0  0  0  0  0
   -0.0968   -0.0329   13.6105 H   0  0  0  0  0  0  0  0  0  0  0  0
   -3.0514    1.0896   11.7666 H   0  0  0  0  0  0  0  0  0  0  0  0
   -1.7486    1.4249   12.9569 H   0  0  0  0  0  0  0  0  0  0  0  0
   -1.4953    0.1976   11.6700 H   0  0  0  0  0  0  0  0  0  0  0  0
  1  2  1  0  0  0  0
  2  3  1  0  0  0  0
  3  4  2  0  0  0  0
  3 27  1  0  0  0  0
  4  5  1  0  0  0  0
  5  6  2  0  0  0  0
  6  7  1  0  0  0  0
  6 26  1  0  0  0  0
  7  8  2  0  0  0  0
  8  9  1  0  0  0  0
  8 16  1  0  0  0  0
  9 10  2  0  0  0  0
 10 11  1  0  0  0  0
 10 17  1  0  0  0  0
 11 12  1  0  0  0  0
 12 13  1  0  0  0  0
 12 16  1  0  0  0  0
 13 14  2  0  0  0  0
 14 15  1  0  0  0  0
 15 16  2  0  0  0  0
 17 18  2  0  0  0  0
 17 25  1  0  0  0  0
 18 19  1  0  0  0  0
 19 20  1  0  0  0  0
 20 21  2  0  0  0  0
 20 24  1  0  0  0  0
 21 22  1  0  0  0  0
 22 23  2  0  0  0  0
 23 24  1  0  0  0  0
 24 25  2  0  0  0  0
 26 27  2  0  0  0  0
 27 28  1  0  0  0  0
 28 29  1  0  0  0  0
  1 30  1  0  0  0  0
  1 31  1  0  0  0  0
  1 32  1  0  0  0  0
  4 33  1  0  0  0  0
  5 34  1  0  0  0  0
 11 35  1  0  0  0  0
 11 36  1  0  0  0  0
 13 37  1  0  0  0  0
 14 38  1  0  0  0  0
 18 39  1  0  0  0  0
 19 40  1  0  0  0  0
 19 41  1  0  0  0  0
 23 42  1  0  0  0  0
 25 43  1  0  0  0  0
 26 44  1  0  0  0  0
 29 45  1  0  0  0  0
 29 46  1  0  0  0  0
 29 47  1  0  0  0  0
M  END
> <IC50[nM]>
10.4

$$$$
CHEMBL3265021
  -OEChem-05192314333D
 Structure written by MMmdl.
 47 51  0     1  0  0  0  0  0999 V2000
   -4.2567   -3.1041   13.5694 C   0  0  0  0  0  0  0  0  0  0  0  0
   -3.8737   -2.3599   14.7156 O   0  0  0  0  0  0  0  0  0  0  0  0
   -2.5258   -2.1107   14.8171 C   0  0  0  0  0  0  0  0  0  0  0  0
   -1.7454   -2.8698   15.6820 C   0  0  0  0  0  0  0  0  0  0  0  0
   -0.3904   -2.6103   15.8138 C   0  0  0  0  0  0  0  0  0  0  0  0
    0.2204   -1.5845   15.0865 C   0  0  0  0  0  0  0  0  0  0  0  0
    1.6042   -1.3599   15.3206 N   0  0  0  0  0  0  0  0  0  0  0  0
    2.5373   -0.4464   14.7592 C   0  0  0  0  0  0  0  0  0  0  0  0
    2.1833    0.3714   13.7220 N   0  0  0  0  0  0  0  0  0  0  0  0
    3.1157    1.2390   13.2179 C   0  0  0  0  0  0  0  0  0  0  0  0
    4.4197    1.2848   13.7036 C   0  0  0  0  0  0  0  0  0  0  0  0
    4.7466    0.4890   14.7613 N   0  0  0  0  0  0  0  0  0  0  0  0
    5.8976    0.3767   15.4867 C   0  0  0  0  0  0  0  0  0  0  0  0
    5.5868   -0.5220   16.5302 C   0  0  0  0  0  0  0  0  0  0  0  0
    4.3755   -1.0422   16.3738 N   0  0  0  0  0  0  0  0  0  0  0  0
    3.8369   -0.3923   15.3263 C   0  0  0  0  0  0  0  0  0  0  0  0
    2.6420    2.1628   12.1182 C   0  0  0  0  0  0  0  0  0  0  0  0
    3.5476    2.6405   11.1603 C   0  0  0  0  0  0  0  0  0  0  0  0
    3.1538    3.4680   10.0985 C   0  0  0  0  0  0  0  0  0  0  0  0
    1.8053    3.8044   10.0318 C   0  0  3  0  0  0  0  0  0  0  0  0
    1.0883    4.5643    9.1320 N   0  0  0  0  0  0  0  0  0  0  0  0
   -0.2025    4.6328    9.4561 N   0  0  0  0  0  0  0  0  0  0  0  0
   -0.3779    3.9489   10.5598 C   0  0  0  0  0  0  0  0  0  0  0  0
    0.8670    3.3654   10.9941 C   0  0  0  0  0  0  0  0  0  0  0  0
    1.2880    2.5471   12.0527 C   0  0  0  0  0  0  0  0  0  0  0  0
   -0.5552   -0.8189   14.1923 C   0  0  0  0  0  0  0  0  0  0  0  0
   -1.9451   -1.0886   14.0616 C   0  0  0  0  0  0  0  0  0  0  0  0
   -2.7540   -0.3570   13.2047 O   0  0  0  0  0  0  0  0  0  0  0  0
   -2.2335    0.6444   12.3522 C   0  0  0  0  0  0  0  0  0  0  0  0
   -5.3466   -3.2526   13.5753 H   0  0  0  0  0  0  0  0  0  0  0  0
   -3.9666   -2.5545   12.6618 H   0  0  0  0  0  0  0  0  0  0  0  0
   -3.7535   -4.0822   13.5824 H   0  0  0  0  0  0  0  0  0  0  0  0
   -2.1977   -3.6662   16.2544 H   0  0  0  0  0  0  0  0  0  0  0  0
    0.2027   -3.2097   16.4886 H   0  0  0  0  0  0  0  0  0  0  0  0
    5.0860    1.0107   12.8724 H   0  0  0  0  0  0  0  0  0  0  0  0
    4.6180    2.3239   14.0051 H   0  0  0  0  0  0  0  0  0  0  0  0
    6.8412    0.8686   15.3023 H   0  0  0  0  0  0  0  0  0  0  0  0
    6.2493   -0.7562   17.3503 H   0  0  0  0  0  0  0  0  0  0  0  0
    4.5874    2.3608   11.2432 H   0  0  0  0  0  0  0  0  0  0  0  0
    3.8633    3.8269    9.3676 H   0  0  0  0  0  0  0  0  0  0  0  0
    1.6098    2.9050    9.4295 H   0  0  0  0  0  0  0  0  0  0  0  0
   -1.3221    3.8379   11.0722 H   0  0  0  0  0  0  0  0  0  0  0  0
    0.5864    2.2173   12.8046 H   0  0  0  0  0  0  0  0  0  0  0  0
   -0.0968   -0.0329   13.6105 H   0  0  0  0  0  0  0  0  0  0  0  0
   -3.0514    1.0896   11.7666 H   0  0  0  0  0  0  0  0  0  0  0  0
   -1.7486    1.4249   12.9569 H   0  0  0  0  0  0  0  0  0  0  0  0
   -1.4953    0.1976   11.6700 H   0  0  0  0  0  0  0  0  0  0  0  0
  1  2  1  0  0  0  0
  2  3  1  0  0  0  0
  3  4  2  0  0  0  0
  3 27  1  0  0  0  0
  4  5  1  0  0  0  0
  5  6  2  0  0  0  0
  6  7  1  0  0  0  0
  6 26  1  0  0  0  0
  7  8  2  0  0  0  0
  8  9  1  0  0  0  0
  8 16  1  0  0  0  0
  9 10  2  0  0  0  0
 10 11  1  0  0  0  0
 10 17  1  0  0  0  0
 11 12  1  0  0  0  0
 12 13  1  0  0  0  0
 12 16  1  0  0  0  0
 13 14  2  0  0  0  0
 14 15  1  0  0  0  0
 15 16  2  0  0  0  0
 17 18  1  0  0  0  0
 17 25  2  0  0  0  0
 18 19  2  0  0  0  0
 19 20  1  0  0  0  0
 20 21  1  0  0  0  0
 20 24  1  0  0  0  0
 21 22  2  0  0  0  0
 22 23  1  0  0  0  0
 23 24  2  0  0  0  0
 24 25  1  0  0  0  0
 26 27  2  0  0  0  0
 27 28  1  0  0  0  0
 28 29  1  0  0  0  0
  1 30  1  0  0  0  0
  1 31  1  0  0  0  0
  1 32  1  0  0  0  0
  4 33  1  0  0  0  0
  5 34  1  0  0  0  0
 11 35  1  0  0  0  0
 11 36  1  0  0  0  0
 13 37  1  0  0  0  0
 14 38  1  0  0  0  0
 18 39  1  0  0  0  0
 19 40  1  0  0  0  0
 20 41  1  0  0  0  0
 23 42  1  0  0  0  0
 25 43  1  0  0  0  0
 26 44  1  0  0  0  0
 29 45  1  0  0  0  0
 29 46  1  0  0  0  0
 29 47  1  0  0  0  0
M  END
> <IC50[nM]>
10.4

$$$$
CHEMBL3265021
  -OEChem-05192314333D
 Structure written by MMmdl.
 47 51  0     0  0  0  0  0  0999 V2000
   -4.2567   -3.1041   13.5694 C   0  0  0  0  0  0  0  0  0  0  0  0
   -3.8737   -2.3599   14.7156 O   0  0  0  0  0  0  0  0  0  0  0  0
   -2.5258   -2.1107   14.8171 C   0  0  0  0  0  0  0  0  0  0  0  0
   -1.7454   -2.8698   15.6820 C   0  0  0  0  0  0  0  0  0  0  0  0
   -0.3904   -2.6103   15.8138 C   0  0  0  0  0  0  0  0  0  0  0  0
    0.2204   -1.5845   15.0865 C   0  0  0  0  0  0  0  0  0  0  0  0
    1.6042   -1.3599   15.3206 N   0  0  0  0  0  0  0  0  0  0  0  0
    2.5373   -0.4464   14.7592 C   0  0  0  0  0  0  0  0  0  0  0  0
    2.1833    0.3714   13.7220 N   0  0  0  0  0  0  0  0  0  0  0  0
    3.1157    1.2390   13.2179 C   0  0  0  0  0  0  0  0  0  0  0  0
    4.4197    1.2848   13.7036 C   0  0  0  0  0  0  0  0  0  0  0  0
    4.7466    0.4890   14.7613 N   0  0  0  0  0  0  0  0  0  0  0  0
    5.8976    0.3767   15.4867 C   0  0  0  0  0  0  0  0  0  0  0  0
    5.5868   -0.5220   16.5302 C   0  0  0  0  0  0  0  0  0  0  0  0
    4.3755   -1.0422   16.3738 N   0  0  0  0  0  0  0  0  0  0  0  0
    3.8369   -0.3923   15.3263 C   0  0  0  0  0  0  0  0  0  0  0  0
    2.6420    2.1628   12.1182 C   0  0  0  0  0  0  0  0  0  0  0  0
    3.5476    2.6405   11.1603 C   0  0  0  0  0  0  0  0  0  0  0  0
    3.1538    3.4680   10.0985 C   0  0  0  0  0  0  0  0  0  0  0  0
    1.8053    3.8044   10.0318 C   0  0  0  0  0  0  0  0  0  0  0  0
    1.0883    4.5643    9.1320 N   0  0  0  0  0  0  0  0  0  0  0  0
   -0.2025    4.6328    9.4561 N   0  0  0  0  0  0  0  0  0  0  0  0
   -0.3779    3.9489   10.5598 C   0  0  0  0  0  0  0  0  0  0  0  0
    0.8670    3.3654   10.9941 C   0  0  0  0  0  0  0  0  0  0  0  0
    1.2880    2.5471   12.0527 C   0  0  0  0  0  0  0  0  0  0  0  0
   -0.5552   -0.8189   14.1923 C   0  0  0  0  0  0  0  0  0  0  0  0
   -1.9451   -1.0886   14.0616 C   0  0  0  0  0  0  0  0  0  0  0  0
   -2.7540   -0.3570   13.2047 O   0  0  0  0  0  0  0  0  0  0  0  0
   -2.2335    0.6444   12.3522 C   0  0  0  0  0  0  0  0  0  0  0  0
   -5.3466   -3.2526   13.5753 H   0  0  0  0  0  0  0  0  0  0  0  0
   -3.9666   -2.5545   12.6618 H   0  0  0  0  0  0  0  0  0  0  0  0
   -3.7535   -4.0822   13.5824 H   0  0  0  0  0  0  0  0  0  0  0  0
   -2.1977   -3.6662   16.2544 H   0  0  0  0  0  0  0  0  0  0  0  0
    0.2027   -3.2097   16.4886 H   0  0  0  0  0  0  0  0  0  0  0  0
    5.0860    1.0107   12.8724 H   0  0  0  0  0  0  0  0  0  0  0  0
    4.6180    2.3239   14.0051 H   0  0  0  0  0  0  0  0  0  0  0  0
    6.8412    0.8686   15.3023 H   0  0  0  0  0  0  0  0  0  0  0  0
    6.2493   -0.7562   17.3503 H   0  0  0  0  0  0  0  0  0  0  0  0
    4.3136    3.2007   11.7165 H   0  0  0  0  0  0  0  0  0  0  0  0
    4.0046    1.7513   10.7015 H   0  0  0  0  0  0  0  0  0  0  0  0
    3.8633    3.8269    9.3676 H   0  0  0  0  0  0  0  0  0  0  0  0
   -1.3221    3.8379   11.0722 H   0  0  0  0  0  0  0  0  0  0  0  0
    0.5864    2.2173   12.8046 H   0  0  0  0  0  0  0  0  0  0  0  0
   -0.0968   -0.0329   13.6105 H   0  0  0  0  0  0  0  0  0  0  0  0
   -3.0514    1.0896   11.7666 H   0  0  0  0  0  0  0  0  0  0  0  0
   -1.7486    1.4249   12.9569 H   0  0  0  0  0  0  0  0  0  0  0  0
   -1.4953    0.1976   11.6700 H   0  0  0  0  0  0  0  0  0  0  0  0
  1  2  1  0  0  0  0
  2  3  1  0  0  0  0
  3  4  2  0  0  0  0
  3 27  1  0  0  0  0
  4  5  1  0  0  0  0
  5  6  2  0  0  0  0
  6  7  1  0  0  0  0
  6 26  1  0  0  0  0
  7  8  2  0  0  0  0
  8  9  1  0  0  0  0
  8 16  1  0  0  0  0
  9 10  2  0  0  0  0
 10 11  1  0  0  0  0
 10 17  1  0  0  0  0
 11 12  1  0  0  0  0
 12 13  1  0  0  0  0
 12 16  1  0  0  0  0
 13 14  2  0  0  0  0
 14 15  1  0  0  0  0
 15 16  2  0  0  0  0
 17 18  1  0  0  0  0
 17 25  2  0  0  0  0
 18 19  1  0  0  0  0
 19 20  2  0  0  0  0
 20 21  1  0  0  0  0
 20 24  1  0  0  0  0
 21 22  2  0  0  0  0
 22 23  1  0  0  0  0
 23 24  2  0  0  0  0
 24 25  1  0  0  0  0
 26 27  2  0  0  0  0
 27 28  1  0  0  0  0
 28 29  1  0  0  0  0
  1 30  1  0  0  0  0
  1 31  1  0  0  0  0
  1 32  1  0  0  0  0
  4 33  1  0  0  0  0
  5 34  1  0  0  0  0
 11 35  1  0  0  0  0
 11 36  1  0  0  0  0
 13 37  1  0  0  0  0
 14 38  1  0  0  0  0
 18 39  1  0  0  0  0
 18 40  1  0  0  0  0
 19 41  1  0  0  0  0
 23 42  1  0  0  0  0
 25 43  1  0  0  0  0
 26 44  1  0  0  0  0
 29 45  1  0  0  0  0
 29 46  1  0  0  0  0
 29 47  1  0  0  0  0
M  END
> <IC50[nM]>
10.4

$$$$
CHEMBL3265021
  -OEChem-05192314333D
 Structure written by MMmdl.
 47 51  0     0  0  0  0  0  0999 V2000
   -4.2567   -3.1041   13.5694 C   0  0  0  0  0  0  0  0  0  0  0  0
   -3.8737   -2.3599   14.7156 O   0  0  0  0  0  0  0  0  0  0  0  0
   -2.5258   -2.1107   14.8171 C   0  0  0  0  0  0  0  0  0  0  0  0
   -1.7454   -2.8698   15.6820 C   0  0  0  0  0  0  0  0  0  0  0  0
   -0.3904   -2.6103   15.8138 C   0  0  0  0  0  0  0  0  0  0  0  0
    0.2204   -1.5845   15.0865 C   0  0  0  0  0  0  0  0  0  0  0  0
    1.6042   -1.3599   15.3206 N   0  0  0  0  0  0  0  0  0  0  0  0
    2.5373   -0.4464   14.7592 C   0  0  0  0  0  0  0  0  0  0  0  0
    2.1833    0.3714   13.7220 N   0  0  0  0  0  0  0  0  0  0  0  0
    3.1157    1.2390   13.2179 C   0  0  0  0  0  0  0  0  0  0  0  0
    4.4197    1.2848   13.7036 C   0  0  0  0  0  0  0  0  0  0  0  0
    4.7466    0.4890   14.7613 N   0  0  0  0  0  0  0  0  0  0  0  0
    5.8976    0.3767   15.4867 C   0  0  0  0  0  0  0  0  0  0  0  0
    5.5868   -0.5220   16.5302 C   0  0  0  0  0  0  0  0  0  0  0  0
    4.3755   -1.0422   16.3738 N   0  0  0  0  0  0  0  0  0  0  0  0
    3.8369   -0.3923   15.3263 C   0  0  0  0  0  0  0  0  0  0  0  0
    2.6420    2.1628   12.1182 C   0  0  0  0  0  0  0  0  0  0  0  0
    3.5476    2.6405   11.1603 C   0  0  0  0  0  0  0  0  0  0  0  0
    3.1538    3.4680   10.0985 C   0  0  0  0  0  0  0  0  0  0  0  0
    1.8053    3.8044   10.0318 C   0  0  0  0  0  0  0  0  0  0  0  0
    1.0883    4.5643    9.1320 N   0  0  0  0  0  0  0  0  0  0  0  0
   -0.2025    4.6328    9.4561 N   0  0  0  0  0  0  0  0  0  0  0  0
   -0.3779    3.9489   10.5598 C   0  0  0  0  0  0  0  0  0  0  0  0
    0.8670    3.3654   10.9941 C   0  0  0  0  0  0  0  0  0  0  0  0
    1.2880    2.5471   12.0527 C   0  0  0  0  0  0  0  0  0  0  0  0
   -0.5552   -0.8189   14.1923 C   0  0  0  0  0  0  0  0  0  0  0  0
   -1.9451   -1.0886   14.0616 C   0  0  0  0  0  0  0  0  0  0  0  0
   -2.7540   -0.3570   13.2047 O   0  0  0  0  0  0  0  0  0  0  0  0
   -2.2335    0.6444   12.3522 C   0  0  0  0  0  0  0  0  0  0  0  0
   -5.3466   -3.2526   13.5753 H   0  0  0  0  0  0  0  0  0  0  0  0
   -3.9666   -2.5545   12.6618 H   0  0  0  0  0  0  0  0  0  0  0  0
   -3.7535   -4.0822   13.5824 H   0  0  0  0  0  0  0  0  0  0  0  0
   -2.1977   -3.6662   16.2544 H   0  0  0  0  0  0  0  0  0  0  0  0
    0.2027   -3.2097   16.4886 H   0  0  0  0  0  0  0  0  0  0  0  0
    5.0860    1.0107   12.8724 H   0  0  0  0  0  0  0  0  0  0  0  0
    4.6180    2.3239   14.0051 H   0  0  0  0  0  0  0  0  0  0  0  0
    6.8412    0.8686   15.3023 H   0  0  0  0  0  0  0  0  0  0  0  0
    6.2493   -0.7562   17.3503 H   0  0  0  0  0  0  0  0  0  0  0  0
    4.5874    2.3608   11.2432 H   0  0  0  0  0  0  0  0  0  0  0  0
    3.8633    3.8269    9.3676 H   0  0  0  0  0  0  0  0  0  0  0  0
   -1.3221    3.8379   11.0722 H   0  0  0  0  0  0  0  0  0  0  0  0
    0.6922    1.6237   12.0039 H   0  0  0  0  0  0  0  0  0  0  0  0
    1.0587    3.0826   12.9858 H   0  0  0  0  0  0  0  0  0  0  0  0
   -0.0968   -0.0329   13.6105 H   0  0  0  0  0  0  0  0  0  0  0  0
   -3.0514    1.0896   11.7666 H   0  0  0  0  0  0  0  0  0  0  0  0
   -1.7486    1.4249   12.9569 H   0  0  0  0  0  0  0  0  0  0  0  0
   -1.4953    0.1976   11.6700 H   0  0  0  0  0  0  0  0  0  0  0  0
  1  2  1  0  0  0  0
  2  3  1  0  0  0  0
  3  4  2  0  0  0  0
  3 27  1  0  0  0  0
  4  5  1  0  0  0  0
  5  6  2  0  0  0  0
  6  7  1  0  0  0  0
  6 26  1  0  0  0  0
  7  8  2  0  0  0  0
  8  9  1  0  0  0  0
  8 16  1  0  0  0  0
  9 10  2  0  0  0  0
 10 11  1  0  0  0  0
 10 17  1  0  0  0  0
 11 12  1  0  0  0  0
 12 13  1  0  0  0  0
 12 16  1  0  0  0  0
 13 14  2  0  0  0  0
 14 15  1  0  0  0  0
 15 16  2  0  0  0  0
 17 18  2  0  0  0  0
 17 25  1  0  0  0  0
 18 19  1  0  0  0  0
 19 20  2  0  0  0  0
 20 21  1  0  0  0  0
 20 24  1  0  0  0  0
 21 22  2  0  0  0  0
 22 23  1  0  0  0  0
 23 24  2  0  0  0  0
 24 25  1  0  0  0  0
 26 27  2  0  0  0  0
 27 28  1  0  0  0  0
 28 29  1  0  0  0  0
  1 30  1  0  0  0  0
  1 31  1  0  0  0  0
  1 32  1  0  0  0  0
  4 33  1  0  0  0  0
  5 34  1  0  0  0  0
 11 35  1  0  0  0  0
 11 36  1  0  0  0  0
 13 37  1  0  0  0  0
 14 38  1  0  0  0  0
 18 39  1  0  0  0  0
 19 40  1  0  0  0  0
 23 41  1  0  0  0  0
 25 42  1  0  0  0  0
 25 43  1  0  0  0  0
 26 44  1  0  0  0  0
 29 45  1  0  0  0  0
 29 46  1  0  0  0  0
 29 47  1  0  0  0  0
M  END
> <IC50[nM]>
10.4

$$$$
CHEMBL3265021
  -OEChem-05192314333D
 Structure written by MMmdl.
 47 51  0     1  0  0  0  0  0999 V2000
   -4.2567   -3.1041   13.5694 C   0  0  0  0  0  0  0  0  0  0  0  0
   -3.8737   -2.3599   14.7156 O   0  0  0  0  0  0  0  0  0  0  0  0
   -2.5258   -2.1107   14.8171 C   0  0  3  0  0  0  0  0  0  0  0  0
   -1.7454   -2.8698   15.6820 C   0  0  0  0  0  0  0  0  0  0  0  0
   -0.3904   -2.6103   15.8138 C   0  0  0  0  0  0  0  0  0  0  0  0
    0.2204   -1.5845   15.0865 C   0  0  0  0  0  0  0  0  0  0  0  0
    1.6042   -1.3599   15.3206 N   0  0  0  0  0  0  0  0  0  0  0  0
    2.5373   -0.4464   14.7592 C   0  0  0  0  0  0  0  0  0  0  0  0
    2.1833    0.3714   13.7220 N   0  0  0  0  0  0  0  0  0  0  0  0
    3.1157    1.2390   13.2179 C   0  0  0  0  0  0  0  0  0  0  0  0
    4.4197    1.2848   13.7036 C   0  0  0  0  0  0  0  0  0  0  0  0
    4.7466    0.4890   14.7613 N   0  0  0  0  0  0  0  0  0  0  0  0
    5.8976    0.3767   15.4867 C   0  0  0  0  0  0  0  0  0  0  0  0
    5.5868   -0.5220   16.5302 C   0  0  0  0  0  0  0  0  0  0  0  0
    4.3755   -1.0422   16.3738 N   0  0  0  0  0  0  0  0  0  0  0  0
    3.8369   -0.3923   15.3263 C   0  0  0  0  0  0  0  0  0  0  0  0
    2.6420    2.1628   12.1182 C   0  0  0  0  0  0  0  0  0  0  0  0
    3.5476    2.6405   11.1603 C   0  0  0  0  0  0  0  0  0  0  0  0
    3.1538    3.4680   10.0985 C   0  0  0  0  0  0  0  0  0  0  0  0
    1.8053    3.8044   10.0318 C   0  0  0  0  0  0  0  0  0  0  0  0
    1.0883    4.5643    9.1320 N   0  0  0  0  0  0  0  0  0  0  0  0
   -0.2025    4.6328    9.4561 N   0  0  0  0  0  0  0  0  0  0  0  0
   -0.3779    3.9489   10.5598 C   0  0  0  0  0  0  0  0  0  0  0  0
    0.8670    3.3654   10.9941 C   0  0  0  0  0  0  0  0  0  0  0  0
    1.2880    2.5471   12.0527 C   0  0  0  0  0  0  0  0  0  0  0  0
   -0.5552   -0.8189   14.1923 C   0  0  0  0  0  0  0  0  0  0  0  0
   -1.9451   -1.0886   14.0616 C   0  0  0  0  0  0  0  0  0  0  0  0
   -2.7540   -0.3570   13.2047 O   0  0  0  0  0  0  0  0  0  0  0  0
   -2.2335    0.6444   12.3522 C   0  0  0  0  0  0  0  0  0  0  0  0
   -5.3466   -3.2526   13.5753 H   0  0  0  0  0  0  0  0  0  0  0  0
   -3.9666   -2.5545   12.6618 H   0  0  0  0  0  0  0  0  0  0  0  0
   -3.7535   -4.0822   13.5824 H   0  0  0  0  0  0  0  0  0  0  0  0
   -2.3289   -2.8268   14.0057 H   0  0  0  0  0  0  0  0  0  0  0  0
   -2.1977   -3.6662   16.2544 H   0  0  0  0  0  0  0  0  0  0  0  0
    0.2027   -3.2097   16.4886 H   0  0  0  0  0  0  0  0  0  0  0  0
    5.0860    1.0107   12.8724 H   0  0  0  0  0  0  0  0  0  0  0  0
    4.6180    2.3239   14.0051 H   0  0  0  0  0  0  0  0  0  0  0  0
    6.8412    0.8686   15.3023 H   0  0  0  0  0  0  0  0  0  0  0  0
    6.2493   -0.7562   17.3503 H   0  0  0  0  0  0  0  0  0  0  0  0
    4.5874    2.3608   11.2432 H   0  0  0  0  0  0  0  0  0  0  0  0
    3.8633    3.8269    9.3676 H   0  0  0  0  0  0  0  0  0  0  0  0
   -1.3221    3.8379   11.0722 H   0  0  0  0  0  0  0  0  0  0  0  0
    0.5864    2.2173   12.8046 H   0  0  0  0  0  0  0  0  0  0  0  0
   -0.0968   -0.0329   13.6105 H   0  0  0  0  0  0  0  0  0  0  0  0
   -3.0514    1.0896   11.7666 H   0  0  0  0  0  0  0  0  0  0  0  0
   -1.7486    1.4249   12.9569 H   0  0  0  0  0  0  0  0  0  0  0  0
   -1.4953    0.1976   11.6700 H   0  0  0  0  0  0  0  0  0  0  0  0
  1  2  1  0  0  0  0
  2  3  1  0  0  0  0
  3  4  1  0  0  0  0
  3 27  1  0  0  0  0
  4  5  2  0  0  0  0
  5  6  1  0  0  0  0
  6  7  2  0  0  0  0
  6 26  1  0  0  0  0
  7  8  1  0  0  0  0
  8  9  2  0  0  0  0
  8 16  1  0  0  0  0
  9 10  1  0  0  0  0
 10 11  1  0  0  0  0
 10 17  2  0  0  0  0
 11 12  1  0  0  0  0
 12 13  1  0  0  0  0
 12 16  1  0  0  0  0
 13 14  2  0  0  0  0
 14 15  1  0  0  0  0
 15 16  2  0  0  0  0
 17 18  1  0  0  0  0
 17 25  1  0  0  0  0
 18 19  2  0  0  0  0
 19 20  1  0  0  0  0
 20 21  2  0  0  0  0
 20 24  1  0  0  0  0
 21 22  1  0  0  0  0
 22 23  2  0  0  0  0
 23 24  1  0  0  0  0
 24 25  2  0  0  0  0
 26 27  2  0  0  0  0
 27 28  1  0  0  0  0
 28 29  1  0  0  0  0
  1 30  1  0  0  0  0
  1 31  1  0  0  0  0
  1 32  1  0  0  0  0
  3 33  1  0  0  0  0
  4 34  1  0  0  0  0
  5 35  1  0  0  0  0
 11 36  1  0  0  0  0
 11 37  1  0  0  0  0
 13 38  1  0  0  0  0
 14 39  1  0  0  0  0
 18 40  1  0  0  0  0
 19 41  1  0  0  0  0
 23 42  1  0  0  0  0
 25 43  1  0  0  0  0
 26 44  1  0  0  0  0
 29 45  1  0  0  0  0
 29 46  1  0  0  0  0
 29 47  1  0  0  0  0
M  END
> <IC50[nM]>
10.4

$$$$
CHEMBL3265021
  -OEChem-05192314333D
 Structure written by MMmdl.
 47 51  0     0  0  0  0  0  0999 V2000
   -4.2567   -3.1041   13.5694 C   0  0  0  0  0  0  0  0  0  0  0  0
   -3.8737   -2.3599   14.7156 O   0  0  0  0  0  0  0  0  0  0  0  0
   -2.5258   -2.1107   14.8171 C   0  0  0  0  0  0  0  0  0  0  0  0
   -1.7454   -2.8698   15.6820 C   0  0  0  0  0  0  0  0  0  0  0  0
   -0.3904   -2.6103   15.8138 C   0  0  0  0  0  0  0  0  0  0  0  0
    0.2204   -1.5845   15.0865 C   0  0  0  0  0  0  0  0  0  0  0  0
    1.6042   -1.3599   15.3206 N   0  0  0  0  0  0  0  0  0  0  0  0
    2.5373   -0.4464   14.7592 C   0  0  0  0  0  0  0  0  0  0  0  0
    2.1833    0.3714   13.7220 N   0  0  0  0  0  0  0  0  0  0  0  0
    3.1157    1.2390   13.2179 C   0  0  0  0  0  0  0  0  0  0  0  0
    4.4197    1.2848   13.7036 C   0  0  0  0  0  0  0  0  0  0  0  0
    4.7466    0.4890   14.7613 N   0  0  0  0  0  0  0  0  0  0  0  0
    5.8976    0.3767   15.4867 C   0  0  0  0  0  0  0  0  0  0  0  0
    5.5868   -0.5220   16.5302 C   0  0  0  0  0  0  0  0  0  0  0  0
    4.3755   -1.0422   16.3738 N   0  0  0  0  0  0  0  0  0  0  0  0
    3.8369   -0.3923   15.3263 C   0  0  0  0  0  0  0  0  0  0  0  0
    2.6420    2.1628   12.1182 C   0  0  0  0  0  0  0  0  0  0  0  0
    3.5476    2.6405   11.1603 C   0  0  0  0  0  0  0  0  0  0  0  0
    3.1538    3.4680   10.0985 C   0  0  0  0  0  0  0  0  0  0  0  0
    1.8053    3.8044   10.0318 C   0  0  0  0  0  0  0  0  0  0  0  0
    1.0883    4.5643    9.1320 N   0  0  0  0  0  0  0  0  0  0  0  0
   -0.2025    4.6328    9.4561 N   0  0  0  0  0  0  0  0  0  0  0  0
   -0.3779    3.9489   10.5598 C   0  0  0  0  0  0  0  0  0  0  0  0
    0.8670    3.3654   10.9941 C   0  0  0  0  0  0  0  0  0  0  0  0
    1.2880    2.5471   12.0527 C   0  0  0  0  0  0  0  0  0  0  0  0
   -0.5552   -0.8189   14.1923 C   0  0  0  0  0  0  0  0  0  0  0  0
   -1.9451   -1.0886   14.0616 C   0  0  0  0  0  0  0  0  0  0  0  0
   -2.7540   -0.3570   13.2047 O   0  0  0  0  0  0  0  0  0  0  0  0
   -2.2335    0.6444   12.3522 C   0  0  0  0  0  0  0  0  0  0  0  0
   -5.3466   -3.2526   13.5753 H   0  0  0  0  0  0  0  0  0  0  0  0
   -3.9666   -2.5545   12.6618 H   0  0  0  0  0  0  0  0  0  0  0  0
   -3.7535   -4.0822   13.5824 H   0  0  0  0  0  0  0  0  0  0  0  0
   -2.1977   -3.6662   16.2544 H   0  0  0  0  0  0  0  0  0  0  0  0
   -0.2169   -2.3862   16.8767 H   0  0  0  0  0  0  0  0  0  0  0  0
    0.1335   -3.5393   15.5446 H   0  0  0  0  0  0  0  0  0  0  0  0
    5.0860    1.0107   12.8724 H   0  0  0  0  0  0  0  0  0  0  0  0
    4.6180    2.3239   14.0051 H   0  0  0  0  0  0  0  0  0  0  0  0
    6.8412    0.8686   15.3023 H   0  0  0  0  0  0  0  0  0  0  0  0
    6.2493   -0.7562   17.3503 H   0  0  0  0  0  0  0  0  0  0  0  0
    4.5874    2.3608   11.2432 H   0  0  0  0  0  0  0  0  0  0  0  0
    3.8633    3.8269    9.3676 H   0  0  0  0  0  0  0  0  0  0  0  0
   -1.3221    3.8379   11.0722 H   0  0  0  0  0  0  0  0  0  0  0  0
    0.5864    2.2173   12.8046 H   0  0  0  0  0  0  0  0  0  0  0  0
   -0.0968   -0.0329   13.6105 H   0  0  0  0  0  0  0  0  0  0  0  0
   -3.0514    1.0896   11.7666 H   0  0  0  0  0  0  0  0  0  0  0  0
   -1.7486    1.4249   12.9569 H   0  0  0  0  0  0  0  0  0  0  0  0
   -1.4953    0.1976   11.6700 H   0  0  0  0  0  0  0  0  0  0  0  0
  1  2  1  0  0  0  0
  2  3  1  0  0  0  0
  3  4  2  0  0  0  0
  3 27  1  0  0  0  0
  4  5  1  0  0  0  0
  5  6  1  0  0  0  0
  6  7  2  0  0  0  0
  6 26  1  0  0  0  0
  7  8  1  0  0  0  0
  8  9  2  0  0  0  0
  8 16  1  0  0  0  0
  9 10  1  0  0  0  0
 10 11  1  0  0  0  0
 10 17  2  0  0  0  0
 11 12  1  0  0  0  0
 12 13  1  0  0  0  0
 12 16  1  0  0  0  0
 13 14  2  0  0  0  0
 14 15  1  0  0  0  0
 15 16  2  0  0  0  0
 17 18  1  0  0  0  0
 17 25  1  0  0  0  0
 18 19  2  0  0  0  0
 19 20  1  0  0  0  0
 20 21  2  0  0  0  0
 20 24  1  0  0  0  0
 21 22  1  0  0  0  0
 22 23  2  0  0  0  0
 23 24  1  0  0  0  0
 24 25  2  0  0  0  0
 26 27  2  0  0  0  0
 27 28  1  0  0  0  0
 28 29  1  0  0  0  0
  1 30  1  0  0  0  0
  1 31  1  0  0  0  0
  1 32  1  0  0  0  0
  4 33  1  0  0  0  0
  5 34  1  0  0  0  0
  5 35  1  0  0  0  0
 11 36  1  0  0  0  0
 11 37  1  0  0  0  0
 13 38  1  0  0  0  0
 14 39  1  0  0  0  0
 18 40  1  0  0  0  0
 19 41  1  0  0  0  0
 23 42  1  0  0  0  0
 25 43  1  0  0  0  0
 26 44  1  0  0  0  0
 29 45  1  0  0  0  0
 29 46  1  0  0  0  0
 29 47  1  0  0  0  0
M  END
> <IC50[nM]>
10.4

$$$$
CHEMBL3265021
  -OEChem-05192314333D
 Structure written by MMmdl.
 47 51  0     0  0  0  0  0  0999 V2000
   -4.2567   -3.1041   13.5694 C   0  0  0  0  0  0  0  0  0  0  0  0
   -3.8737   -2.3599   14.7156 O   0  0  0  0  0  0  0  0  0  0  0  0
   -2.5258   -2.1107   14.8171 C   0  0  0  0  0  0  0  0  0  0  0  0
   -1.7454   -2.8698   15.6820 C   0  0  0  0  0  0  0  0  0  0  0  0
   -0.3904   -2.6103   15.8138 C   0  0  0  0  0  0  0  0  0  0  0  0
    0.2204   -1.5845   15.0865 C   0  0  0  0  0  0  0  0  0  0  0  0
    1.6042   -1.3599   15.3206 N   0  0  0  0  0  0  0  0  0  0  0  0
    2.5373   -0.4464   14.7592 C   0  0  0  0  0  0  0  0  0  0  0  0
    2.1833    0.3714   13.7220 N   0  0  0  0  0  0  0  0  0  0  0  0
    3.1157    1.2390   13.2179 C   0  0  0  0  0  0  0  0  0  0  0  0
    4.4197    1.2848   13.7036 C   0  0  0  0  0  0  0  0  0  0  0  0
    4.7466    0.4890   14.7613 N   0  0  0  0  0  0  0  0  0  0  0  0
    5.8976    0.3767   15.4867 C   0  0  0  0  0  0  0  0  0  0  0  0
    5.5868   -0.5220   16.5302 C   0  0  0  0  0  0  0  0  0  0  0  0
    4.3755   -1.0422   16.3738 N   0  0  0  0  0  0  0  0  0  0  0  0
    3.8369   -0.3923   15.3263 C   0  0  0  0  0  0  0  0  0  0  0  0
    2.6420    2.1628   12.1182 C   0  0  0  0  0  0  0  0  0  0  0  0
    3.5476    2.6405   11.1603 C   0  0  0  0  0  0  0  0  0  0  0  0
    3.1538    3.4680   10.0985 C   0  0  0  0  0  0  0  0  0  0  0  0
    1.8053    3.8044   10.0318 C   0  0  0  0  0  0  0  0  0  0  0  0
    1.0883    4.5643    9.1320 N   0  0  0  0  0  0  0  0  0  0  0  0
   -0.2025    4.6328    9.4561 N   0  0  0  0  0  0  0  0  0  0  0  0
   -0.3779    3.9489   10.5598 C   0  0  0  0  0  0  0  0  0  0  0  0
    0.8670    3.3654   10.9941 C   0  0  0  0  0  0  0  0  0  0  0  0
    1.2880    2.5471   12.0527 C   0  0  0  0  0  0  0  0  0  0  0  0
   -0.5552   -0.8189   14.1923 C   0  0  0  0  0  0  0  0  0  0  0  0
   -1.9451   -1.0886   14.0616 C   0  0  0  0  0  0  0  0  0  0  0  0
   -2.7540   -0.3570   13.2047 O   0  0  0  0  0  0  0  0  0  0  0  0
   -2.2335    0.6444   12.3522 C   0  0  0  0  0  0  0  0  0  0  0  0
   -5.3466   -3.2526   13.5753 H   0  0  0  0  0  0  0  0  0  0  0  0
   -3.9666   -2.5545   12.6618 H   0  0  0  0  0  0  0  0  0  0  0  0
   -3.7535   -4.0822   13.5824 H   0  0  0  0  0  0  0  0  0  0  0  0
   -2.1977   -3.6662   16.2544 H   0  0  0  0  0  0  0  0  0  0  0  0
    0.2027   -3.2097   16.4886 H   0  0  0  0  0  0  0  0  0  0  0  0
    5.0860    1.0107   12.8724 H   0  0  0  0  0  0  0  0  0  0  0  0
    4.6180    2.3239   14.0051 H   0  0  0  0  0  0  0  0  0  0  0  0
    6.8412    0.8686   15.3023 H   0  0  0  0  0  0  0  0  0  0  0  0
    6.2493   -0.7562   17.3503 H   0  0  0  0  0  0  0  0  0  0  0  0
    4.5874    2.3608   11.2432 H   0  0  0  0  0  0  0  0  0  0  0  0
    3.8633    3.8269    9.3676 H   0  0  0  0  0  0  0  0  0  0  0  0
   -1.3221    3.8379   11.0722 H   0  0  0  0  0  0  0  0  0  0  0  0
    0.5864    2.2173   12.8046 H   0  0  0  0  0  0  0  0  0  0  0  0
   -0.4614    0.2312   14.5060 H   0  0  0  0  0  0  0  0  0  0  0  0
   -0.1099   -0.9446   13.1944 H   0  0  0  0  0  0  0  0  0  0  0  0
   -3.0514    1.0896   11.7666 H   0  0  0  0  0  0  0  0  0  0  0  0
   -1.7486    1.4249   12.9569 H   0  0  0  0  0  0  0  0  0  0  0  0
   -1.4953    0.1976   11.6700 H   0  0  0  0  0  0  0  0  0  0  0  0
  1  2  1  0  0  0  0
  2  3  1  0  0  0  0
  3  4  1  0  0  0  0
  3 27  2  0  0  0  0
  4  5  2  0  0  0  0
  5  6  1  0  0  0  0
  6  7  2  0  0  0  0
  6 26  1  0  0  0  0
  7  8  1  0  0  0  0
  8  9  2  0  0  0  0
  8 16  1  0  0  0  0
  9 10  1  0  0  0  0
 10 11  1  0  0  0  0
 10 17  2  0  0  0  0
 11 12  1  0  0  0  0
 12 13  1  0  0  0  0
 12 16  1  0  0  0  0
 13 14  2  0  0  0  0
 14 15  1  0  0  0  0
 15 16  2  0  0  0  0
 17 18  1  0  0  0  0
 17 25  1  0  0  0  0
 18 19  2  0  0  0  0
 19 20  1  0  0  0  0
 20 21  2  0  0  0  0
 20 24  1  0  0  0  0
 21 22  1  0  0  0  0
 22 23  2  0  0  0  0
 23 24  1  0  0  0  0
 24 25  2  0  0  0  0
 26 27  1  0  0  0  0
 27 28  1  0  0  0  0
 28 29  1  0  0  0  0
  1 30  1  0  0  0  0
  1 31  1  0  0  0  0
  1 32  1  0  0  0  0
  4 33  1  0  0  0  0
  5 34  1  0  0  0  0
 11 35  1  0  0  0  0
 11 36  1  0  0  0  0
 13 37  1  0  0  0  0
 14 38  1  0  0  0  0
 18 39  1  0  0  0  0
 19 40  1  0  0  0  0
 23 41  1  0  0  0  0
 25 42  1  0  0  0  0
 26 43  1  0  0  0  0
 26 44  1  0  0  0  0
 29 45  1  0  0  0  0
 29 46  1  0  0  0  0
 29 47  1  0  0  0  0
M  END
> <IC50[nM]>
10.4

$$$$
CHEMBL3265021
  -OEChem-05192314333D
 Structure written by MMmdl.
 47 51  0     1  0  0  0  0  0999 V2000
   -4.2567   -3.1041   13.5694 C   0  0  0  0  0  0  0  0  0  0  0  0
   -3.8737   -2.3599   14.7156 O   0  0  0  0  0  0  0  0  0  0  0  0
   -2.5258   -2.1107   14.8171 C   0  0  3  0  0  0  0  0  0  0  0  0
   -1.7454   -2.8698   15.6820 C   0  0  0  0  0  0  0  0  0  0  0  0
   -0.3904   -2.6103   15.8138 C   0  0  0  0  0  0  0  0  0  0  0  0
    0.2204   -1.5845   15.0865 C   0  0  0  0  0  0  0  0  0  0  0  0
    1.6042   -1.3599   15.3206 N   0  0  0  0  0  0  0  0  0  0  0  0
    2.5373   -0.4464   14.7592 C   0  0  0  0  0  0  0  0  0  0  0  0
    2.1833    0.3714   13.7220 N   0  0  0  0  0  0  0  0  0  0  0  0
    3.1157    1.2390   13.2179 C   0  0  0  0  0  0  0  0  0  0  0  0
    4.4197    1.2848   13.7036 C   0  0  0  0  0  0  0  0  0  0  0  0
    4.7466    0.4890   14.7613 N   0  0  0  0  0  0  0  0  0  0  0  0
    5.8976    0.3767   15.4867 C   0  0  0  0  0  0  0  0  0  0  0  0
    5.5868   -0.5220   16.5302 C   0  0  0  0  0  0  0  0  0  0  0  0
    4.3755   -1.0422   16.3738 N   0  0  0  0  0  0  0  0  0  0  0  0
    3.8369   -0.3923   15.3263 C   0  0  0  0  0  0  0  0  0  0  0  0
    2.6420    2.1628   12.1182 C   0  0  0  0  0  0  0  0  0  0  0  0
    3.5476    2.6405   11.1603 C   0  0  0  0  0  0  0  0  0  0  0  0
    3.1538    3.4680   10.0985 C   0  0  0  0  0  0  0  0  0  0  0  0
    1.8053    3.8044   10.0318 C   0  0  0  0  0  0  0  0  0  0  0  0
    1.0883    4.5643    9.1320 N   0  0  0  0  0  0  0  0  0  0  0  0
   -0.2025    4.6328    9.4561 N   0  0  0  0  0  0  0  0  0  0  0  0
   -0.3779    3.9489   10.5598 C   0  0  0  0  0  0  0  0  0  0  0  0
    0.8670    3.3654   10.9941 C   0  0  3  0  0  0  0  0  0  0  0  0
    1.2880    2.5471   12.0527 C   0  0  0  0  0  0  0  0  0  0  0  0
   -0.5552   -0.8189   14.1923 C   0  0  0  0  0  0  0  0  0  0  0  0
   -1.9451   -1.0886   14.0616 C   0  0  0  0  0  0  0  0  0  0  0  0
   -2.7540   -0.3570   13.2047 O   0  0  0  0  0  0  0  0  0  0  0  0
   -2.2335    0.6444   12.3522 C   0  0  0  0  0  0  0  0  0  0  0  0
   -5.3466   -3.2526   13.5753 H   0  0  0  0  0  0  0  0  0  0  0  0
   -3.9666   -2.5545   12.6618 H   0  0  0  0  0  0  0  0  0  0  0  0
   -3.7535   -4.0822   13.5824 H   0  0  0  0  0  0  0  0  0  0  0  0
   -2.3289   -2.8268   14.0057 H   0  0  0  0  0  0  0  0  0  0  0  0
   -2.1977   -3.6662   16.2544 H   0  0  0  0  0  0  0  0  0  0  0  0
    0.2027   -3.2097   16.4886 H   0  0  0  0  0  0  0  0  0  0  0  0
    5.1548    1.9353   13.2532 H   0  0  0  0  0  0  0  0  0  0  0  0
    6.8412    0.8686   15.3023 H   0  0  0  0  0  0  0  0  0  0  0  0
    6.2493   -0.7562   17.3503 H   0  0  0  0  0  0  0  0  0  0  0  0
    4.5874    2.3608   11.2432 H   0  0  0  0  0  0  0  0  0  0  0  0
    3.8633    3.8269    9.3676 H   0  0  0  0  0  0  0  0  0  0  0  0
   -1.3221    3.8379   11.0722 H   0  0  0  0  0  0  0  0  0  0  0  0
    0.6608    2.4724   10.3858 H   0  0  0  0  0  0  0  0  0  0  0  0
    0.5864    2.2173   12.8046 H   0  0  0  0  0  0  0  0  0  0  0  0
   -0.0968   -0.0329   13.6105 H   0  0  0  0  0  0  0  0  0  0  0  0
   -3.0514    1.0896   11.7666 H   0  0  0  0  0  0  0  0  0  0  0  0
   -1.7486    1.4249   12.9569 H   0  0  0  0  0  0  0  0  0  0  0  0
   -1.4953    0.1976   11.6700 H   0  0  0  0  0  0  0  0  0  0  0  0
  1  2  1  0  0  0  0
  2  3  1  0  0  0  0
  3  4  1  0  0  0  0
  3 27  1  0  0  0  0
  4  5  2  0  0  0  0
  5  6  1  0  0  0  0
  6  7  2  0  0  0  0
  6 26  1  0  0  0  0
  7  8  1  0  0  0  0
  8  9  2  0  0  0  0
  8 16  1  0  0  0  0
  9 10  1  0  0  0  0
 10 11  2  0  0  0  0
 10 17  1  0  0  0  0
 11 12  1  0  0  0  0
 12 13  1  0  0  0  0
 12 16  1  0  0  0  0
 13 14  2  0  0  0  0
 14 15  1  0  0  0  0
 15 16  2  0  0  0  0
 17 18  1  0  0  0  0
 17 25  2  0  0  0  0
 18 19  2  0  0  0  0
 19 20  1  0  0  0  0
 20 21  2  0  0  0  0
 20 24  1  0  0  0  0
 21 22  1  0  0  0  0
 22 23  2  0  0  0  0
 23 24  1  0  0  0  0
 24 25  1  0  0  0  0
 26 27  2  0  0  0  0
 27 28  1  0  0  0  0
 28 29  1  0  0  0  0
  1 30  1  0  0  0  0
  1 31  1  0  0  0  0
  1 32  1  0  0  0  0
  3 33  1  0  0  0  0
  4 34  1  0  0  0  0
  5 35  1  0  0  0  0
 11 36  1  0  0  0  0
 13 37  1  0  0  0  0
 14 38  1  0  0  0  0
 18 39  1  0  0  0  0
 19 40  1  0  0  0  0
 23 41  1  0  0  0  0
 24 42  1  0  0  0  0
 25 43  1  0  0  0  0
 26 44  1  0  0  0  0
 29 45  1  0  0  0  0
 29 46  1  0  0  0  0
 29 47  1  0  0  0  0
M  END
> <IC50[nM]>
10.4

$$$$
CHEMBL3265021
  -OEChem-05192314333D
 Structure written by MMmdl.
 47 51  0     1  0  0  0  0  0999 V2000
   -4.2567   -3.1041   13.5694 C   0  0  0  0  0  0  0  0  0  0  0  0
   -3.8737   -2.3599   14.7156 O   0  0  0  0  0  0  0  0  0  0  0  0
   -2.5258   -2.1107   14.8171 C   0  0  3  0  0  0  0  0  0  0  0  0
   -1.7454   -2.8698   15.6820 C   0  0  0  0  0  0  0  0  0  0  0  0
   -0.3904   -2.6103   15.8138 C   0  0  0  0  0  0  0  0  0  0  0  0
    0.2204   -1.5845   15.0865 C   0  0  0  0  0  0  0  0  0  0  0  0
    1.6042   -1.3599   15.3206 N   0  0  0  0  0  0  0  0  0  0  0  0
    2.5373   -0.4464   14.7592 C   0  0  0  0  0  0  0  0  0  0  0  0
    2.1833    0.3714   13.7220 N   0  0  0  0  0  0  0  0  0  0  0  0
    3.1157    1.2390   13.2179 C   0  0  0  0  0  0  0  0  0  0  0  0
    4.4197    1.2848   13.7036 C   0  0  0  0  0  0  0  0  0  0  0  0
    4.7466    0.4890   14.7613 N   0  0  0  0  0  0  0  0  0  0  0  0
    5.8976    0.3767   15.4867 C   0  0  0  0  0  0  0  0  0  0  0  0
    5.5868   -0.5220   16.5302 C   0  0  0  0  0  0  0  0  0  0  0  0
    4.3755   -1.0422   16.3738 N   0  0  0  0  0  0  0  0  0  0  0  0
    3.8369   -0.3923   15.3263 C   0  0  0  0  0  0  0  0  0  0  0  0
    2.6420    2.1628   12.1182 C   0  0  3  0  0  0  0  0  0  0  0  0
    3.5476    2.6405   11.1603 C   0  0  0  0  0  0  0  0  0  0  0  0
    3.1538    3.4680   10.0985 C   0  0  0  0  0  0  0  0  0  0  0  0
    1.8053    3.8044   10.0318 C   0  0  0  0  0  0  0  0  0  0  0  0
    1.0883    4.5643    9.1320 N   0  0  0  0  0  0  0  0  0  0  0  0
   -0.2025    4.6328    9.4561 N   0  0  0  0  0  0  0  0  0  0  0  0
   -0.3779    3.9489   10.5598 C   0  0  0  0  0  0  0  0  0  0  0  0
    0.8670    3.3654   10.9941 C   0  0  0  0  0  0  0  0  0  0  0  0
    1.2880    2.5471   12.0527 C   0  0  0  0  0  0  0  0  0  0  0  0
   -0.5552   -0.8189   14.1923 C   0  0  0  0  0  0  0  0  0  0  0  0
   -1.9451   -1.0886   14.0616 C   0  0  0  0  0  0  0  0  0  0  0  0
   -2.7540   -0.3570   13.2047 O   0  0  0  0  0  0  0  0  0  0  0  0
   -2.2335    0.6444   12.3522 C   0  0  0  0  0  0  0  0  0  0  0  0
   -5.3466   -3.2526   13.5753 H   0  0  0  0  0  0  0  0  0  0  0  0
   -3.9666   -2.5545   12.6618 H   0  0  0  0  0  0  0  0  0  0  0  0
   -3.7535   -4.0822   13.5824 H   0  0  0  0  0  0  0  0  0  0  0  0
   -2.3289   -2.8268   14.0057 H   0  0  0  0  0  0  0  0  0  0  0  0
   -2.1977   -3.6662   16.2544 H   0  0  0  0  0  0  0  0  0  0  0  0
    0.2027   -3.2097   16.4886 H   0  0  0  0  0  0  0  0  0  0  0  0
    5.1548    1.9353   13.2532 H   0  0  0  0  0  0  0  0  0  0  0  0
    6.8412    0.8686   15.3023 H   0  0  0  0  0  0  0  0  0  0  0  0
    6.2493   -0.7562   17.3503 H   0  0  0  0  0  0  0  0  0  0  0  0
    2.4261    1.2930   11.4804 H   0  0  0  0  0  0  0  0  0  0  0  0
    4.5874    2.3608   11.2432 H   0  0  0  0  0  0  0  0  0  0  0  0
    3.8633    3.8269    9.3676 H   0  0  0  0  0  0  0  0  0  0  0  0
   -1.3221    3.8379   11.0722 H   0  0  0  0  0  0  0  0  0  0  0  0
    0.5864    2.2173   12.8046 H   0  0  0  0  0  0  0  0  0  0  0  0
   -0.0968   -0.0329   13.6105 H   0  0  0  0  0  0  0  0  0  0  0  0
   -3.0514    1.0896   11.7666 H   0  0  0  0  0  0  0  0  0  0  0  0
   -1.7486    1.4249   12.9569 H   0  0  0  0  0  0  0  0  0  0  0  0
   -1.4953    0.1976   11.6700 H   0  0  0  0  0  0  0  0  0  0  0  0
  1  2  1  0  0  0  0
  2  3  1  0  0  0  0
  3  4  1  0  0  0  0
  3 27  1  0  0  0  0
  4  5  2  0  0  0  0
  5  6  1  0  0  0  0
  6  7  2  0  0  0  0
  6 26  1  0  0  0  0
  7  8  1  0  0  0  0
  8  9  2  0  0  0  0
  8 16  1  0  0  0  0
  9 10  1  0  0  0  0
 10 11  2  0  0  0  0
 10 17  1  0  0  0  0
 11 12  1  0  0  0  0
 12 13  1  0  0  0  0
 12 16  1  0  0  0  0
 13 14  2  0  0  0  0
 14 15  1  0  0  0  0
 15 16  2  0  0  0  0
 17 18  1  0  0  0  0
 17 25  1  0  0  0  0
 18 19  2  0  0  0  0
 19 20  1  0  0  0  0
 20 21  2  0  0  0  0
 20 24  1  0  0  0  0
 21 22  1  0  0  0  0
 22 23  2  0  0  0  0
 23 24  1  0  0  0  0
 24 25  2  0  0  0  0
 26 27  2  0  0  0  0
 27 28  1  0  0  0  0
 28 29  1  0  0  0  0
  1 30  1  0  0  0  0
  1 31  1  0  0  0  0
  1 32  1  0  0  0  0
  3 33  1  0  0  0  0
  4 34  1  0  0  0  0
  5 35  1  0  0  0  0
 11 36  1  0  0  0  0
 13 37  1  0  0  0  0
 14 38  1  0  0  0  0
 17 39  1  0  0  0  0
 18 40  1  0  0  0  0
 19 41  1  0  0  0  0
 23 42  1  0  0  0  0
 25 43  1  0  0  0  0
 26 44  1  0  0  0  0
 29 45  1  0  0  0  0
 29 46  1  0  0  0  0
 29 47  1  0  0  0  0
M  END
> <IC50[nM]>
10.4

$$$$
CHEMBL3265021
  -OEChem-05192314333D
 Structure written by MMmdl.
 47 51  0     1  0  0  0  0  0999 V2000
   -4.2567   -3.1041   13.5694 C   0  0  0  0  0  0  0  0  0  0  0  0
   -3.8737   -2.3599   14.7156 O   0  0  0  0  0  0  0  0  0  0  0  0
   -2.5258   -2.1107   14.8171 C   0  0  3  0  0  0  0  0  0  0  0  0
   -1.7454   -2.8698   15.6820 C   0  0  0  0  0  0  0  0  0  0  0  0
   -0.3904   -2.6103   15.8138 C   0  0  0  0  0  0  0  0  0  0  0  0
    0.2204   -1.5845   15.0865 C   0  0  0  0  0  0  0  0  0  0  0  0
    1.6042   -1.3599   15.3206 N   0  0  0  0  0  0  0  0  0  0  0  0
    2.5373   -0.4464   14.7592 C   0  0  0  0  0  0  0  0  0  0  0  0
    2.1833    0.3714   13.7220 N   0  0  0  0  0  0  0  0  0  0  0  0
    3.1157    1.2390   13.2179 C   0  0  0  0  0  0  0  0  0  0  0  0
    4.4197    1.2848   13.7036 C   0  0  0  0  0  0  0  0  0  0  0  0
    4.7466    0.4890   14.7613 N   0  0  0  0  0  0  0  0  0  0  0  0
    5.8976    0.3767   15.4867 C   0  0  0  0  0  0  0  0  0  0  0  0
    5.5868   -0.5220   16.5302 C   0  0  0  0  0  0  0  0  0  0  0  0
    4.3755   -1.0422   16.3738 N   0  0  0  0  0  0  0  0  0  0  0  0
    3.8369   -0.3923   15.3263 C   0  0  0  0  0  0  0  0  0  0  0  0
    2.6420    2.1628   12.1182 C   0  0  0  0  0  0  0  0  0  0  0  0
    3.5476    2.6405   11.1603 C   0  0  0  0  0  0  0  0  0  0  0  0
    3.1538    3.4680   10.0985 C   0  0  0  0  0  0  0  0  0  0  0  0
    1.8053    3.8044   10.0318 C   0  0  0  0  0  0  0  0  0  0  0  0
    1.0883    4.5643    9.1320 N   0  0  0  0  0  0  0  0  0  0  0  0
   -0.2025    4.6328    9.4561 N   0  0  0  0  0  0  0  0  0  0  0  0
   -0.3779    3.9489   10.5598 C   0  0  0  0  0  0  0  0  0  0  0  0
    0.8670    3.3654   10.9941 C   0  0  0  0  0  0  0  0  0  0  0  0
    1.2880    2.5471   12.0527 C   0  0  0  0  0  0  0  0  0  0  0  0
   -0.5552   -0.8189   14.1923 C   0  0  0  0  0  0  0  0  0  0  0  0
   -1.9451   -1.0886   14.0616 C   0  0  0  0  0  0  0  0  0  0  0  0
   -2.7540   -0.3570   13.2047 O   0  0  0  0  0  0  0  0  0  0  0  0
   -2.2335    0.6444   12.3522 C   0  0  0  0  0  0  0  0  0  0  0  0
   -5.3466   -3.2526   13.5753 H   0  0  0  0  0  0  0  0  0  0  0  0
   -3.9666   -2.5545   12.6618 H   0  0  0  0  0  0  0  0  0  0  0  0
   -3.7535   -4.0822   13.5824 H   0  0  0  0  0  0  0  0  0  0  0  0
   -2.3289   -2.8268   14.0057 H   0  0  0  0  0  0  0  0  0  0  0  0
   -2.1977   -3.6662   16.2544 H   0  0  0  0  0  0  0  0  0  0  0  0
    0.2027   -3.2097   16.4886 H   0  0  0  0  0  0  0  0  0  0  0  0
    5.1548    1.9353   13.2532 H   0  0  0  0  0  0  0  0  0  0  0  0
    6.8412    0.8686   15.3023 H   0  0  0  0  0  0  0  0  0  0  0  0
    6.2493   -0.7562   17.3503 H   0  0  0  0  0  0  0  0  0  0  0  0
    4.5874    2.3608   11.2432 H   0  0  0  0  0  0  0  0  0  0  0  0
    3.7267    4.4038   10.1758 H   0  0  0  0  0  0  0  0  0  0  0  0
    3.4153    2.9543    9.1616 H   0  0  0  0  0  0  0  0  0  0  0  0
   -1.3221    3.8379   11.0722 H   0  0  0  0  0  0  0  0  0  0  0  0
    0.5864    2.2173   12.8046 H   0  0  0  0  0  0  0  0  0  0  0  0
   -0.0968   -0.0329   13.6105 H   0  0  0  0  0  0  0  0  0  0  0  0
   -3.0514    1.0896   11.7666 H   0  0  0  0  0  0  0  0  0  0  0  0
   -1.7486    1.4249   12.9569 H   0  0  0  0  0  0  0  0  0  0  0  0
   -1.4953    0.1976   11.6700 H   0  0  0  0  0  0  0  0  0  0  0  0
  1  2  1  0  0  0  0
  2  3  1  0  0  0  0
  3  4  1  0  0  0  0
  3 27  1  0  0  0  0
  4  5  2  0  0  0  0
  5  6  1  0  0  0  0
  6  7  2  0  0  0  0
  6 26  1  0  0  0  0
  7  8  1  0  0  0  0
  8  9  2  0  0  0  0
  8 16  1  0  0  0  0
  9 10  1  0  0  0  0
 10 11  2  0  0  0  0
 10 17  1  0  0  0  0
 11 12  1  0  0  0  0
 12 13  1  0  0  0  0
 12 16  1  0  0  0  0
 13 14  2  0  0  0  0
 14 15  1  0  0  0  0
 15 16  2  0  0  0  0
 17 18  2  0  0  0  0
 17 25  1  0  0  0  0
 18 19  1  0  0  0  0
 19 20  1  0  0  0  0
 20 21  2  0  0  0  0
 20 24  1  0  0  0  0
 21 22  1  0  0  0  0
 22 23  2  0  0  0  0
 23 24  1  0  0  0  0
 24 25  2  0  0  0  0
 26 27  2  0  0  0  0
 27 28  1  0  0  0  0
 28 29  1  0  0  0  0
  1 30  1  0  0  0  0
  1 31  1  0  0  0  0
  1 32  1  0  0  0  0
  3 33  1  0  0  0  0
  4 34  1  0  0  0  0
  5 35  1  0  0  0  0
 11 36  1  0  0  0  0
 13 37  1  0  0  0  0
 14 38  1  0  0  0  0
 18 39  1  0  0  0  0
 19 40  1  0  0  0  0
 19 41  1  0  0  0  0
 23 42  1  0  0  0  0
 25 43  1  0  0  0  0
 26 44  1  0  0  0  0
 29 45  1  0  0  0  0
 29 46  1  0  0  0  0
 29 47  1  0  0  0  0
M  END
> <IC50[nM]>
10.4

$$$$
CHEMBL3265021
  -OEChem-05192314333D
 Structure written by MMmdl.
 47 51  0     1  0  0  0  0  0999 V2000
   -4.2567   -3.1041   13.5694 C   0  0  0  0  0  0  0  0  0  0  0  0
   -3.8737   -2.3599   14.7156 O   0  0  0  0  0  0  0  0  0  0  0  0
   -2.5258   -2.1107   14.8171 C   0  0  0  0  0  0  0  0  0  0  0  0
   -1.7454   -2.8698   15.6820 C   0  0  0  0  0  0  0  0  0  0  0  0
   -0.3904   -2.6103   15.8138 C   0  0  0  0  0  0  0  0  0  0  0  0
    0.2204   -1.5845   15.0865 C   0  0  0  0  0  0  0  0  0  0  0  0
    1.6042   -1.3599   15.3206 N   0  0  0  0  0  0  0  0  0  0  0  0
    2.5373   -0.4464   14.7592 C   0  0  0  0  0  0  0  0  0  0  0  0
    2.1833    0.3714   13.7220 N   0  0  0  0  0  0  0  0  0  0  0  0
    3.1157    1.2390   13.2179 C   0  0  0  0  0  0  0  0  0  0  0  0
    4.4197    1.2848   13.7036 C   0  0  0  0  0  0  0  0  0  0  0  0
    4.7466    0.4890   14.7613 N   0  0  0  0  0  0  0  0  0  0  0  0
    5.8976    0.3767   15.4867 C   0  0  0  0  0  0  0  0  0  0  0  0
    5.5868   -0.5220   16.5302 C   0  0  0  0  0  0  0  0  0  0  0  0
    4.3755   -1.0422   16.3738 N   0  0  0  0  0  0  0  0  0  0  0  0
    3.8369   -0.3923   15.3263 C   0  0  0  0  0  0  0  0  0  0  0  0
    2.6420    2.1628   12.1182 C   0  0  0  0  0  0  0  0  0  0  0  0
    3.5476    2.6405   11.1603 C   0  0  0  0  0  0  0  0  0  0  0  0
    3.1538    3.4680   10.0985 C   0  0  0  0  0  0  0  0  0  0  0  0
    1.8053    3.8044   10.0318 C   0  0  0  0  0  0  0  0  0  0  0  0
    1.0883    4.5643    9.1320 N   0  0  0  0  0  0  0  0  0  0  0  0
   -0.2025    4.6328    9.4561 N   0  0  0  0  0  0  0  0  0  0  0  0
   -0.3779    3.9489   10.5598 C   0  0  0  0  0  0  0  0  0  0  0  0
    0.8670    3.3654   10.9941 C   0  0  3  0  0  0  0  0  0  0  0  0
    1.2880    2.5471   12.0527 C   0  0  0  0  0  0  0  0  0  0  0  0
   -0.5552   -0.8189   14.1923 C   0  0  0  0  0  0  0  0  0  0  0  0
   -1.9451   -1.0886   14.0616 C   0  0  0  0  0  0  0  0  0  0  0  0
   -2.7540   -0.3570   13.2047 O   0  0  0  0  0  0  0  0  0  0  0  0
   -2.2335    0.6444   12.3522 C   0  0  0  0  0  0  0  0  0  0  0  0
   -5.3466   -3.2526   13.5753 H   0  0  0  0  0  0  0  0  0  0  0  0
   -3.9666   -2.5545   12.6618 H   0  0  0  0  0  0  0  0  0  0  0  0
   -3.7535   -4.0822   13.5824 H   0  0  0  0  0  0  0  0  0  0  0  0
   -2.1977   -3.6662   16.2544 H   0  0  0  0  0  0  0  0  0  0  0  0
   -0.2169   -2.3862   16.8767 H   0  0  0  0  0  0  0  0  0  0  0  0
    0.1335   -3.5393   15.5446 H   0  0  0  0  0  0  0  0  0  0  0  0
    5.1548    1.9353   13.2532 H   0  0  0  0  0  0  0  0  0  0  0  0
    6.8412    0.8686   15.3023 H   0  0  0  0  0  0  0  0  0  0  0  0
    6.2493   -0.7562   17.3503 H   0  0  0  0  0  0  0  0  0  0  0  0
    4.5874    2.3608   11.2432 H   0  0  0  0  0  0  0  0  0  0  0  0
    3.8633    3.8269    9.3676 H   0  0  0  0  0  0  0  0  0  0  0  0
   -1.3221    3.8379   11.0722 H   0  0  0  0  0  0  0  0  0  0  0  0
    0.6608    2.4724   10.3858 H   0  0  0  0  0  0  0  0  0  0  0  0
    0.5864    2.2173   12.8046 H   0  0  0  0  0  0  0  0  0  0  0  0
   -0.0968   -0.0329   13.6105 H   0  0  0  0  0  0  0  0  0  0  0  0
   -3.0514    1.0896   11.7666 H   0  0  0  0  0  0  0  0  0  0  0  0
   -1.7486    1.4249   12.9569 H   0  0  0  0  0  0  0  0  0  0  0  0
   -1.4953    0.1976   11.6700 H   0  0  0  0  0  0  0  0  0  0  0  0
  1  2  1  0  0  0  0
  2  3  1  0  0  0  0
  3  4  2  0  0  0  0
  3 27  1  0  0  0  0
  4  5  1  0  0  0  0
  5  6  1  0  0  0  0
  6  7  2  0  0  0  0
  6 26  1  0  0  0  0
  7  8  1  0  0  0  0
  8  9  2  0  0  0  0
  8 16  1  0  0  0  0
  9 10  1  0  0  0  0
 10 11  2  0  0  0  0
 10 17  1  0  0  0  0
 11 12  1  0  0  0  0
 12 13  1  0  0  0  0
 12 16  1  0  0  0  0
 13 14  2  0  0  0  0
 14 15  1  0  0  0  0
 15 16  2  0  0  0  0
 17 18  1  0  0  0  0
 17 25  2  0  0  0  0
 18 19  2  0  0  0  0
 19 20  1  0  0  0  0
 20 21  2  0  0  0  0
 20 24  1  0  0  0  0
 21 22  1  0  0  0  0
 22 23  2  0  0  0  0
 23 24  1  0  0  0  0
 24 25  1  0  0  0  0
 26 27  2  0  0  0  0
 27 28  1  0  0  0  0
 28 29  1  0  0  0  0
  1 30  1  0  0  0  0
  1 31  1  0  0  0  0
  1 32  1  0  0  0  0
  4 33  1  0  0  0  0
  5 34  1  0  0  0  0
  5 35  1  0  0  0  0
 11 36  1  0  0  0  0
 13 37  1  0  0  0  0
 14 38  1  0  0  0  0
 18 39  1  0  0  0  0
 19 40  1  0  0  0  0
 23 41  1  0  0  0  0
 24 42  1  0  0  0  0
 25 43  1  0  0  0  0
 26 44  1  0  0  0  0
 29 45  1  0  0  0  0
 29 46  1  0  0  0  0
 29 47  1  0  0  0  0
M  END
> <IC50[nM]>
10.4

$$$$
CHEMBL3265021
  -OEChem-05192314333D
 Structure written by MMmdl.
 47 51  0     1  0  0  0  0  0999 V2000
   -4.2567   -3.1041   13.5694 C   0  0  0  0  0  0  0  0  0  0  0  0
   -3.8737   -2.3599   14.7156 O   0  0  0  0  0  0  0  0  0  0  0  0
   -2.5258   -2.1107   14.8171 C   0  0  0  0  0  0  0  0  0  0  0  0
   -1.7454   -2.8698   15.6820 C   0  0  0  0  0  0  0  0  0  0  0  0
   -0.3904   -2.6103   15.8138 C   0  0  0  0  0  0  0  0  0  0  0  0
    0.2204   -1.5845   15.0865 C   0  0  0  0  0  0  0  0  0  0  0  0
    1.6042   -1.3599   15.3206 N   0  0  0  0  0  0  0  0  0  0  0  0
    2.5373   -0.4464   14.7592 C   0  0  0  0  0  0  0  0  0  0  0  0
    2.1833    0.3714   13.7220 N   0  0  0  0  0  0  0  0  0  0  0  0
    3.1157    1.2390   13.2179 C   0  0  0  0  0  0  0  0  0  0  0  0
    4.4197    1.2848   13.7036 C   0  0  0  0  0  0  0  0  0  0  0  0
    4.7466    0.4890   14.7613 N   0  0  0  0  0  0  0  0  0  0  0  0
    5.8976    0.3767   15.4867 C   0  0  0  0  0  0  0  0  0  0  0  0
    5.5868   -0.5220   16.5302 C   0  0  0  0  0  0  0  0  0  0  0  0
    4.3755   -1.0422   16.3738 N   0  0  0  0  0  0  0  0  0  0  0  0
    3.8369   -0.3923   15.3263 C   0  0  0  0  0  0  0  0  0  0  0  0
    2.6420    2.1628   12.1182 C   0  0  3  0  0  0  0  0  0  0  0  0
    3.5476    2.6405   11.1603 C   0  0  0  0  0  0  0  0  0  0  0  0
    3.1538    3.4680   10.0985 C   0  0  0  0  0  0  0  0  0  0  0  0
    1.8053    3.8044   10.0318 C   0  0  0  0  0  0  0  0  0  0  0  0
    1.0883    4.5643    9.1320 N   0  0  0  0  0  0  0  0  0  0  0  0
   -0.2025    4.6328    9.4561 N   0  0  0  0  0  0  0  0  0  0  0  0
   -0.3779    3.9489   10.5598 C   0  0  0  0  0  0  0  0  0  0  0  0
    0.8670    3.3654   10.9941 C   0  0  0  0  0  0  0  0  0  0  0  0
    1.2880    2.5471   12.0527 C   0  0  0  0  0  0  0  0  0  0  0  0
   -0.5552   -0.8189   14.1923 C   0  0  0  0  0  0  0  0  0  0  0  0
   -1.9451   -1.0886   14.0616 C   0  0  0  0  0  0  0  0  0  0  0  0
   -2.7540   -0.3570   13.2047 O   0  0  0  0  0  0  0  0  0  0  0  0
   -2.2335    0.6444   12.3522 C   0  0  0  0  0  0  0  0  0  0  0  0
   -5.3466   -3.2526   13.5753 H   0  0  0  0  0  0  0  0  0  0  0  0
   -3.9666   -2.5545   12.6618 H   0  0  0  0  0  0  0  0  0  0  0  0
   -3.7535   -4.0822   13.5824 H   0  0  0  0  0  0  0  0  0  0  0  0
   -2.1977   -3.6662   16.2544 H   0  0  0  0  0  0  0  0  0  0  0  0
   -0.2169   -2.3862   16.8767 H   0  0  0  0  0  0  0  0  0  0  0  0
    0.1335   -3.5393   15.5446 H   0  0  0  0  0  0  0  0  0  0  0  0
    5.1548    1.9353   13.2532 H   0  0  0  0  0  0  0  0  0  0  0  0
    6.8412    0.8686   15.3023 H   0  0  0  0  0  0  0  0  0  0  0  0
    6.2493   -0.7562   17.3503 H   0  0  0  0  0  0  0  0  0  0  0  0
    2.4261    1.2930   11.4804 H   0  0  0  0  0  0  0  0  0  0  0  0
    4.5874    2.3608   11.2432 H   0  0  0  0  0  0  0  0  0  0  0  0
    3.8633    3.8269    9.3676 H   0  0  0  0  0  0  0  0  0  0  0  0
   -1.3221    3.8379   11.0722 H   0  0  0  0  0  0  0  0  0  0  0  0
    0.5864    2.2173   12.8046 H   0  0  0  0  0  0  0  0  0  0  0  0
   -0.0968   -0.0329   13.6105 H   0  0  0  0  0  0  0  0  0  0  0  0
   -3.0514    1.0896   11.7666 H   0  0  0  0  0  0  0  0  0  0  0  0
   -1.7486    1.4249   12.9569 H   0  0  0  0  0  0  0  0  0  0  0  0
   -1.4953    0.1976   11.6700 H   0  0  0  0  0  0  0  0  0  0  0  0
  1  2  1  0  0  0  0
  2  3  1  0  0  0  0
  3  4  2  0  0  0  0
  3 27  1  0  0  0  0
  4  5  1  0  0  0  0
  5  6  1  0  0  0  0
  6  7  2  0  0  0  0
  6 26  1  0  0  0  0
  7  8  1  0  0  0  0
  8  9  2  0  0  0  0
  8 16  1  0  0  0  0
  9 10  1  0  0  0  0
 10 11  2  0  0  0  0
 10 17  1  0  0  0  0
 11 12  1  0  0  0  0
 12 13  1  0  0  0  0
 12 16  1  0  0  0  0
 13 14  2  0  0  0  0
 14 15  1  0  0  0  0
 15 16  2  0  0  0  0
 17 18  1  0  0  0  0
 17 25  1  0  0  0  0
 18 19  2  0  0  0  0
 19 20  1  0  0  0  0
 20 21  2  0  0  0  0
 20 24  1  0  0  0  0
 21 22  1  0  0  0  0
 22 23  2  0  0  0  0
 23 24  1  0  0  0  0
 24 25  2  0  0  0  0
 26 27  2  0  0  0  0
 27 28  1  0  0  0  0
 28 29  1  0  0  0  0
  1 30  1  0  0  0  0
  1 31  1  0  0  0  0
  1 32  1  0  0  0  0
  4 33  1  0  0  0  0
  5 34  1  0  0  0  0
  5 35  1  0  0  0  0
 11 36  1  0  0  0  0
 13 37  1  0  0  0  0
 14 38  1  0  0  0  0
 17 39  1  0  0  0  0
 18 40  1  0  0  0  0
 19 41  1  0  0  0  0
 23 42  1  0  0  0  0
 25 43  1  0  0  0  0
 26 44  1  0  0  0  0
 29 45  1  0  0  0  0
 29 46  1  0  0  0  0
 29 47  1  0  0  0  0
M  END
> <IC50[nM]>
10.4

$$$$
CHEMBL3265021
  -OEChem-05192314333D
 Structure written by MMmdl.
 47 51  0     0  0  0  0  0  0999 V2000
   -4.2567   -3.1041   13.5694 C   0  0  0  0  0  0  0  0  0  0  0  0
   -3.8737   -2.3599   14.7156 O   0  0  0  0  0  0  0  0  0  0  0  0
   -2.5258   -2.1107   14.8171 C   0  0  0  0  0  0  0  0  0  0  0  0
   -1.7454   -2.8698   15.6820 C   0  0  0  0  0  0  0  0  0  0  0  0
   -0.3904   -2.6103   15.8138 C   0  0  0  0  0  0  0  0  0  0  0  0
    0.2204   -1.5845   15.0865 C   0  0  0  0  0  0  0  0  0  0  0  0
    1.6042   -1.3599   15.3206 N   0  0  0  0  0  0  0  0  0  0  0  0
    2.5373   -0.4464   14.7592 C   0  0  0  0  0  0  0  0  0  0  0  0
    2.1833    0.3714   13.7220 N   0  0  0  0  0  0  0  0  0  0  0  0
    3.1157    1.2390   13.2179 C   0  0  0  0  0  0  0  0  0  0  0  0
    4.4197    1.2848   13.7036 C   0  0  0  0  0  0  0  0  0  0  0  0
    4.7466    0.4890   14.7613 N   0  0  0  0  0  0  0  0  0  0  0  0
    5.8976    0.3767   15.4867 C   0  0  0  0  0  0  0  0  0  0  0  0
    5.5868   -0.5220   16.5302 C   0  0  0  0  0  0  0  0  0  0  0  0
    4.3755   -1.0422   16.3738 N   0  0  0  0  0  0  0  0  0  0  0  0
    3.8369   -0.3923   15.3263 C   0  0  0  0  0  0  0  0  0  0  0  0
    2.6420    2.1628   12.1182 C   0  0  0  0  0  0  0  0  0  0  0  0
    3.5476    2.6405   11.1603 C   0  0  0  0  0  0  0  0  0  0  0  0
    3.1538    3.4680   10.0985 C   0  0  0  0  0  0  0  0  0  0  0  0
    1.8053    3.8044   10.0318 C   0  0  0  0  0  0  0  0  0  0  0  0
    1.0883    4.5643    9.1320 N   0  0  0  0  0  0  0  0  0  0  0  0
   -0.2025    4.6328    9.4561 N   0  0  0  0  0  0  0  0  0  0  0  0
   -0.3779    3.9489   10.5598 C   0  0  0  0  0  0  0  0  0  0  0  0
    0.8670    3.3654   10.9941 C   0  0  0  0  0  0  0  0  0  0  0  0
    1.2880    2.5471   12.0527 C   0  0  0  0  0  0  0  0  0  0  0  0
   -0.5552   -0.8189   14.1923 C   0  0  0  0  0  0  0  0  0  0  0  0
   -1.9451   -1.0886   14.0616 C   0  0  0  0  0  0  0  0  0  0  0  0
   -2.7540   -0.3570   13.2047 O   0  0  0  0  0  0  0  0  0  0  0  0
   -2.2335    0.6444   12.3522 C   0  0  0  0  0  0  0  0  0  0  0  0
   -5.3466   -3.2526   13.5753 H   0  0  0  0  0  0  0  0  0  0  0  0
   -3.9666   -2.5545   12.6618 H   0  0  0  0  0  0  0  0  0  0  0  0
   -3.7535   -4.0822   13.5824 H   0  0  0  0  0  0  0  0  0  0  0  0
   -2.1977   -3.6662   16.2544 H   0  0  0  0  0  0  0  0  0  0  0  0
   -0.2169   -2.3862   16.8767 H   0  0  0  0  0  0  0  0  0  0  0  0
    0.1335   -3.5393   15.5446 H   0  0  0  0  0  0  0  0  0  0  0  0
    5.1548    1.9353   13.2532 H   0  0  0  0  0  0  0  0  0  0  0  0
    6.8412    0.8686   15.3023 H   0  0  0  0  0  0  0  0  0  0  0  0
    6.2493   -0.7562   17.3503 H   0  0  0  0  0  0  0  0  0  0  0  0
    4.5874    2.3608   11.2432 H   0  0  0  0  0  0  0  0  0  0  0  0
    3.7267    4.4038   10.1758 H   0  0  0  0  0  0  0  0  0  0  0  0
    3.4153    2.9543    9.1616 H   0  0  0  0  0  0  0  0  0  0  0  0
   -1.3221    3.8379   11.0722 H   0  0  0  0  0  0  0  0  0  0  0  0
    0.5864    2.2173   12.8046 H   0  0  0  0  0  0  0  0  0  0  0  0
   -0.0968   -0.0329   13.6105 H   0  0  0  0  0  0  0  0  0  0  0  0
   -3.0514    1.0896   11.7666 H   0  0  0  0  0  0  0  0  0  0  0  0
   -1.7486    1.4249   12.9569 H   0  0  0  0  0  0  0  0  0  0  0  0
   -1.4953    0.1976   11.6700 H   0  0  0  0  0  0  0  0  0  0  0  0
  1  2  1  0  0  0  0
  2  3  1  0  0  0  0
  3  4  2  0  0  0  0
  3 27  1  0  0  0  0
  4  5  1  0  0  0  0
  5  6  1  0  0  0  0
  6  7  2  0  0  0  0
  6 26  1  0  0  0  0
  7  8  1  0  0  0  0
  8  9  2  0  0  0  0
  8 16  1  0  0  0  0
  9 10  1  0  0  0  0
 10 11  2  0  0  0  0
 10 17  1  0  0  0  0
 11 12  1  0  0  0  0
 12 13  1  0  0  0  0
 12 16  1  0  0  0  0
 13 14  2  0  0  0  0
 14 15  1  0  0  0  0
 15 16  2  0  0  0  0
 17 18  2  0  0  0  0
 17 25  1  0  0  0  0
 18 19  1  0  0  0  0
 19 20  1  0  0  0  0
 20 21  2  0  0  0  0
 20 24  1  0  0  0  0
 21 22  1  0  0  0  0
 22 23  2  0  0  0  0
 23 24  1  0  0  0  0
 24 25  2  0  0  0  0
 26 27  2  0  0  0  0
 27 28  1  0  0  0  0
 28 29  1  0  0  0  0
  1 30  1  0  0  0  0
  1 31  1  0  0  0  0
  1 32  1  0  0  0  0
  4 33  1  0  0  0  0
  5 34  1  0  0  0  0
  5 35  1  0  0  0  0
 11 36  1  0  0  0  0
 13 37  1  0  0  0  0
 14 38  1  0  0  0  0
 18 39  1  0  0  0  0
 19 40  1  0  0  0  0
 19 41  1  0  0  0  0
 23 42  1  0  0  0  0
 25 43  1  0  0  0  0
 26 44  1  0  0  0  0
 29 45  1  0  0  0  0
 29 46  1  0  0  0  0
 29 47  1  0  0  0  0
M  END
> <IC50[nM]>
10.4

$$$$
CHEMBL3265021
  -OEChem-05192314333D
 Structure written by MMmdl.
 47 51  0     1  0  0  0  0  0999 V2000
   -4.2567   -3.1041   13.5694 C   0  0  0  0  0  0  0  0  0  0  0  0
   -3.8737   -2.3599   14.7156 O   0  0  0  0  0  0  0  0  0  0  0  0
   -2.5258   -2.1107   14.8171 C   0  0  0  0  0  0  0  0  0  0  0  0
   -1.7454   -2.8698   15.6820 C   0  0  0  0  0  0  0  0  0  0  0  0
   -0.3904   -2.6103   15.8138 C   0  0  0  0  0  0  0  0  0  0  0  0
    0.2204   -1.5845   15.0865 C   0  0  0  0  0  0  0  0  0  0  0  0
    1.6042   -1.3599   15.3206 N   0  0  0  0  0  0  0  0  0  0  0  0
    2.5373   -0.4464   14.7592 C   0  0  0  0  0  0  0  0  0  0  0  0
    2.1833    0.3714   13.7220 N   0  0  0  0  0  0  0  0  0  0  0  0
    3.1157    1.2390   13.2179 C   0  0  0  0  0  0  0  0  0  0  0  0
    4.4197    1.2848   13.7036 C   0  0  0  0  0  0  0  0  0  0  0  0
    4.7466    0.4890   14.7613 N   0  0  0  0  0  0  0  0  0  0  0  0
    5.8976    0.3767   15.4867 C   0  0  0  0  0  0  0  0  0  0  0  0
    5.5868   -0.5220   16.5302 C   0  0  0  0  0  0  0  0  0  0  0  0
    4.3755   -1.0422   16.3738 N   0  0  0  0  0  0  0  0  0  0  0  0
    3.8369   -0.3923   15.3263 C   0  0  0  0  0  0  0  0  0  0  0  0
    2.6420    2.1628   12.1182 C   0  0  0  0  0  0  0  0  0  0  0  0
    3.5476    2.6405   11.1603 C   0  0  0  0  0  0  0  0  0  0  0  0
    3.1538    3.4680   10.0985 C   0  0  0  0  0  0  0  0  0  0  0  0
    1.8053    3.8044   10.0318 C   0  0  0  0  0  0  0  0  0  0  0  0
    1.0883    4.5643    9.1320 N   0  0  0  0  0  0  0  0  0  0  0  0
   -0.2025    4.6328    9.4561 N   0  0  0  0  0  0  0  0  0  0  0  0
   -0.3779    3.9489   10.5598 C   0  0  0  0  0  0  0  0  0  0  0  0
    0.8670    3.3654   10.9941 C   0  0  3  0  0  0  0  0  0  0  0  0
    1.2880    2.5471   12.0527 C   0  0  0  0  0  0  0  0  0  0  0  0
   -0.5552   -0.8189   14.1923 C   0  0  0  0  0  0  0  0  0  0  0  0
   -1.9451   -1.0886   14.0616 C   0  0  0  0  0  0  0  0  0  0  0  0
   -2.7540   -0.3570   13.2047 O   0  0  0  0  0  0  0  0  0  0  0  0
   -2.2335    0.6444   12.3522 C   0  0  0  0  0  0  0  0  0  0  0  0
   -5.3466   -3.2526   13.5753 H   0  0  0  0  0  0  0  0  0  0  0  0
   -3.9666   -2.5545   12.6618 H   0  0  0  0  0  0  0  0  0  0  0  0
   -3.7535   -4.0822   13.5824 H   0  0  0  0  0  0  0  0  0  0  0  0
   -2.1977   -3.6662   16.2544 H   0  0  0  0  0  0  0  0  0  0  0  0
    0.2027   -3.2097   16.4886 H   0  0  0  0  0  0  0  0  0  0  0  0
    5.1548    1.9353   13.2532 H   0  0  0  0  0  0  0  0  0  0  0  0
    6.8412    0.8686   15.3023 H   0  0  0  0  0  0  0  0  0  0  0  0
    6.2493   -0.7562   17.3503 H   0  0  0  0  0  0  0  0  0  0  0  0
    4.5874    2.3608   11.2432 H   0  0  0  0  0  0  0  0  0  0  0  0
    3.8633    3.8269    9.3676 H   0  0  0  0  0  0  0  0  0  0  0  0
   -1.3221    3.8379   11.0722 H   0  0  0  0  0  0  0  0  0  0  0  0
    0.6608    2.4724   10.3858 H   0  0  0  0  0  0  0  0  0  0  0  0
    0.5864    2.2173   12.8046 H   0  0  0  0  0  0  0  0  0  0  0  0
   -0.4614    0.2312   14.5060 H   0  0  0  0  0  0  0  0  0  0  0  0
   -0.1099   -0.9446   13.1944 H   0  0  0  0  0  0  0  0  0  0  0  0
   -3.0514    1.0896   11.7666 H   0  0  0  0  0  0  0  0  0  0  0  0
   -1.7486    1.4249   12.9569 H   0  0  0  0  0  0  0  0  0  0  0  0
   -1.4953    0.1976   11.6700 H   0  0  0  0  0  0  0  0  0  0  0  0
  1  2  1  0  0  0  0
  2  3  1  0  0  0  0
  3  4  1  0  0  0  0
  3 27  2  0  0  0  0
  4  5  2  0  0  0  0
  5  6  1  0  0  0  0
  6  7  2  0  0  0  0
  6 26  1  0  0  0  0
  7  8  1  0  0  0  0
  8  9  2  0  0  0  0
  8 16  1  0  0  0  0
  9 10  1  0  0  0  0
 10 11  2  0  0  0  0
 10 17  1  0  0  0  0
 11 12  1  0  0  0  0
 12 13  1  0  0  0  0
 12 16  1  0  0  0  0
 13 14  2  0  0  0  0
 14 15  1  0  0  0  0
 15 16  2  0  0  0  0
 17 18  1  0  0  0  0
 17 25  2  0  0  0  0
 18 19  2  0  0  0  0
 19 20  1  0  0  0  0
 20 21  2  0  0  0  0
 20 24  1  0  0  0  0
 21 22  1  0  0  0  0
 22 23  2  0  0  0  0
 23 24  1  0  0  0  0
 24 25  1  0  0  0  0
 26 27  1  0  0  0  0
 27 28  1  0  0  0  0
 28 29  1  0  0  0  0
  1 30  1  0  0  0  0
  1 31  1  0  0  0  0
  1 32  1  0  0  0  0
  4 33  1  0  0  0  0
  5 34  1  0  0  0  0
 11 35  1  0  0  0  0
 13 36  1  0  0  0  0
 14 37  1  0  0  0  0
 18 38  1  0  0  0  0
 19 39  1  0  0  0  0
 23 40  1  0  0  0  0
 24 41  1  0  0  0  0
 25 42  1  0  0  0  0
 26 43  1  0  0  0  0
 26 44  1  0  0  0  0
 29 45  1  0  0  0  0
 29 46  1  0  0  0  0
 29 47  1  0  0  0  0
M  END
> <IC50[nM]>
10.4

$$$$
CHEMBL3265021
  -OEChem-05192314333D
 Structure written by MMmdl.
 47 51  0     1  0  0  0  0  0999 V2000
   -4.2567   -3.1041   13.5694 C   0  0  0  0  0  0  0  0  0  0  0  0
   -3.8737   -2.3599   14.7156 O   0  0  0  0  0  0  0  0  0  0  0  0
   -2.5258   -2.1107   14.8171 C   0  0  0  0  0  0  0  0  0  0  0  0
   -1.7454   -2.8698   15.6820 C   0  0  0  0  0  0  0  0  0  0  0  0
   -0.3904   -2.6103   15.8138 C   0  0  0  0  0  0  0  0  0  0  0  0
    0.2204   -1.5845   15.0865 C   0  0  0  0  0  0  0  0  0  0  0  0
    1.6042   -1.3599   15.3206 N   0  0  0  0  0  0  0  0  0  0  0  0
    2.5373   -0.4464   14.7592 C   0  0  0  0  0  0  0  0  0  0  0  0
    2.1833    0.3714   13.7220 N   0  0  0  0  0  0  0  0  0  0  0  0
    3.1157    1.2390   13.2179 C   0  0  0  0  0  0  0  0  0  0  0  0
    4.4197    1.2848   13.7036 C   0  0  0  0  0  0  0  0  0  0  0  0
    4.7466    0.4890   14.7613 N   0  0  0  0  0  0  0  0  0  0  0  0
    5.8976    0.3767   15.4867 C   0  0  0  0  0  0  0  0  0  0  0  0
    5.5868   -0.5220   16.5302 C   0  0  0  0  0  0  0  0  0  0  0  0
    4.3755   -1.0422   16.3738 N   0  0  0  0  0  0  0  0  0  0  0  0
    3.8369   -0.3923   15.3263 C   0  0  0  0  0  0  0  0  0  0  0  0
    2.6420    2.1628   12.1182 C   0  0  3  0  0  0  0  0  0  0  0  0
    3.5476    2.6405   11.1603 C   0  0  0  0  0  0  0  0  0  0  0  0
    3.1538    3.4680   10.0985 C   0  0  0  0  0  0  0  0  0  0  0  0
    1.8053    3.8044   10.0318 C   0  0  0  0  0  0  0  0  0  0  0  0
    1.0883    4.5643    9.1320 N   0  0  0  0  0  0  0  0  0  0  0  0
   -0.2025    4.6328    9.4561 N   0  0  0  0  0  0  0  0  0  0  0  0
   -0.3779    3.9489   10.5598 C   0  0  0  0  0  0  0  0  0  0  0  0
    0.8670    3.3654   10.9941 C   0  0  0  0  0  0  0  0  0  0  0  0
    1.2880    2.5471   12.0527 C   0  0  0  0  0  0  0  0  0  0  0  0
   -0.5552   -0.8189   14.1923 C   0  0  0  0  0  0  0  0  0  0  0  0
   -1.9451   -1.0886   14.0616 C   0  0  0  0  0  0  0  0  0  0  0  0
   -2.7540   -0.3570   13.2047 O   0  0  0  0  0  0  0  0  0  0  0  0
   -2.2335    0.6444   12.3522 C   0  0  0  0  0  0  0  0  0  0  0  0
   -5.3466   -3.2526   13.5753 H   0  0  0  0  0  0  0  0  0  0  0  0
   -3.9666   -2.5545   12.6618 H   0  0  0  0  0  0  0  0  0  0  0  0
   -3.7535   -4.0822   13.5824 H   0  0  0  0  0  0  0  0  0  0  0  0
   -2.1977   -3.6662   16.2544 H   0  0  0  0  0  0  0  0  0  0  0  0
    0.2027   -3.2097   16.4886 H   0  0  0  0  0  0  0  0  0  0  0  0
    5.1548    1.9353   13.2532 H   0  0  0  0  0  0  0  0  0  0  0  0
    6.8412    0.8686   15.3023 H   0  0  0  0  0  0  0  0  0  0  0  0
    6.2493   -0.7562   17.3503 H   0  0  0  0  0  0  0  0  0  0  0  0
    2.4261    1.2930   11.4804 H   0  0  0  0  0  0  0  0  0  0  0  0
    4.5874    2.3608   11.2432 H   0  0  0  0  0  0  0  0  0  0  0  0
    3.8633    3.8269    9.3676 H   0  0  0  0  0  0  0  0  0  0  0  0
   -1.3221    3.8379   11.0722 H   0  0  0  0  0  0  0  0  0  0  0  0
    0.5864    2.2173   12.8046 H   0  0  0  0  0  0  0  0  0  0  0  0
   -0.4614    0.2312   14.5060 H   0  0  0  0  0  0  0  0  0  0  0  0
   -0.1099   -0.9446   13.1944 H   0  0  0  0  0  0  0  0  0  0  0  0
   -3.0514    1.0896   11.7666 H   0  0  0  0  0  0  0  0  0  0  0  0
   -1.7486    1.4249   12.9569 H   0  0  0  0  0  0  0  0  0  0  0  0
   -1.4953    0.1976   11.6700 H   0  0  0  0  0  0  0  0  0  0  0  0
  1  2  1  0  0  0  0
  2  3  1  0  0  0  0
  3  4  1  0  0  0  0
  3 27  2  0  0  0  0
  4  5  2  0  0  0  0
  5  6  1  0  0  0  0
  6  7  2  0  0  0  0
  6 26  1  0  0  0  0
  7  8  1  0  0  0  0
  8  9  2  0  0  0  0
  8 16  1  0  0  0  0
  9 10  1  0  0  0  0
 10 11  2  0  0  0  0
 10 17  1  0  0  0  0
 11 12  1  0  0  0  0
 12 13  1  0  0  0  0
 12 16  1  0  0  0  0
 13 14  2  0  0  0  0
 14 15  1  0  0  0  0
 15 16  2  0  0  0  0
 17 18  1  0  0  0  0
 17 25  1  0  0  0  0
 18 19  2  0  0  0  0
 19 20  1  0  0  0  0
 20 21  2  0  0  0  0
 20 24  1  0  0  0  0
 21 22  1  0  0  0  0
 22 23  2  0  0  0  0
 23 24  1  0  0  0  0
 24 25  2  0  0  0  0
 26 27  1  0  0  0  0
 27 28  1  0  0  0  0
 28 29  1  0  0  0  0
  1 30  1  0  0  0  0
  1 31  1  0  0  0  0
  1 32  1  0  0  0  0
  4 33  1  0  0  0  0
  5 34  1  0  0  0  0
 11 35  1  0  0  0  0
 13 36  1  0  0  0  0
 14 37  1  0  0  0  0
 17 38  1  0  0  0  0
 18 39  1  0  0  0  0
 19 40  1  0  0  0  0
 23 41  1  0  0  0  0
 25 42  1  0  0  0  0
 26 43  1  0  0  0  0
 26 44  1  0  0  0  0
 29 45  1  0  0  0  0
 29 46  1  0  0  0  0
 29 47  1  0  0  0  0
M  END
> <IC50[nM]>
10.4

$$$$
CHEMBL3265021
  -OEChem-05192314333D
 Structure written by MMmdl.
 47 51  0     0  0  0  0  0  0999 V2000
   -4.2567   -3.1041   13.5694 C   0  0  0  0  0  0  0  0  0  0  0  0
   -3.8737   -2.3599   14.7156 O   0  0  0  0  0  0  0  0  0  0  0  0
   -2.5258   -2.1107   14.8171 C   0  0  0  0  0  0  0  0  0  0  0  0
   -1.7454   -2.8698   15.6820 C   0  0  0  0  0  0  0  0  0  0  0  0
   -0.3904   -2.6103   15.8138 C   0  0  0  0  0  0  0  0  0  0  0  0
    0.2204   -1.5845   15.0865 C   0  0  0  0  0  0  0  0  0  0  0  0
    1.6042   -1.3599   15.3206 N   0  0  0  0  0  0  0  0  0  0  0  0
    2.5373   -0.4464   14.7592 C   0  0  0  0  0  0  0  0  0  0  0  0
    2.1833    0.3714   13.7220 N   0  0  0  0  0  0  0  0  0  0  0  0
    3.1157    1.2390   13.2179 C   0  0  0  0  0  0  0  0  0  0  0  0
    4.4197    1.2848   13.7036 C   0  0  0  0  0  0  0  0  0  0  0  0
    4.7466    0.4890   14.7613 N   0  0  0  0  0  0  0  0  0  0  0  0
    5.8976    0.3767   15.4867 C   0  0  0  0  0  0  0  0  0  0  0  0
    5.5868   -0.5220   16.5302 C   0  0  0  0  0  0  0  0  0  0  0  0
    4.3755   -1.0422   16.3738 N   0  0  0  0  0  0  0  0  0  0  0  0
    3.8369   -0.3923   15.3263 C   0  0  0  0  0  0  0  0  0  0  0  0
    2.6420    2.1628   12.1182 C   0  0  0  0  0  0  0  0  0  0  0  0
    3.5476    2.6405   11.1603 C   0  0  0  0  0  0  0  0  0  0  0  0
    3.1538    3.4680   10.0985 C   0  0  0  0  0  0  0  0  0  0  0  0
    1.8053    3.8044   10.0318 C   0  0  0  0  0  0  0  0  0  0  0  0
    1.0883    4.5643    9.1320 N   0  0  0  0  0  0  0  0  0  0  0  0
   -0.2025    4.6328    9.4561 N   0  0  0  0  0  0  0  0  0  0  0  0
   -0.3779    3.9489   10.5598 C   0  0  0  0  0  0  0  0  0  0  0  0
    0.8670    3.3654   10.9941 C   0  0  0  0  0  0  0  0  0  0  0  0
    1.2880    2.5471   12.0527 C   0  0  0  0  0  0  0  0  0  0  0  0
   -0.5552   -0.8189   14.1923 C   0  0  0  0  0  0  0  0  0  0  0  0
   -1.9451   -1.0886   14.0616 C   0  0  0  0  0  0  0  0  0  0  0  0
   -2.7540   -0.3570   13.2047 O   0  0  0  0  0  0  0  0  0  0  0  0
   -2.2335    0.6444   12.3522 C   0  0  0  0  0  0  0  0  0  0  0  0
   -5.3466   -3.2526   13.5753 H   0  0  0  0  0  0  0  0  0  0  0  0
   -3.9666   -2.5545   12.6618 H   0  0  0  0  0  0  0  0  0  0  0  0
   -3.7535   -4.0822   13.5824 H   0  0  0  0  0  0  0  0  0  0  0  0
   -2.1977   -3.6662   16.2544 H   0  0  0  0  0  0  0  0  0  0  0  0
    0.2027   -3.2097   16.4886 H   0  0  0  0  0  0  0  0  0  0  0  0
    5.1548    1.9353   13.2532 H   0  0  0  0  0  0  0  0  0  0  0  0
    6.8412    0.8686   15.3023 H   0  0  0  0  0  0  0  0  0  0  0  0
    6.2493   -0.7562   17.3503 H   0  0  0  0  0  0  0  0  0  0  0  0
    4.5874    2.3608   11.2432 H   0  0  0  0  0  0  0  0  0  0  0  0
    3.7267    4.4038   10.1758 H   0  0  0  0  0  0  0  0  0  0  0  0
    3.4153    2.9543    9.1616 H   0  0  0  0  0  0  0  0  0  0  0  0
   -1.3221    3.8379   11.0722 H   0  0  0  0  0  0  0  0  0  0  0  0
    0.5864    2.2173   12.8046 H   0  0  0  0  0  0  0  0  0  0  0  0
   -0.4614    0.2312   14.5060 H   0  0  0  0  0  0  0  0  0  0  0  0
   -0.1099   -0.9446   13.1944 H   0  0  0  0  0  0  0  0  0  0  0  0
   -3.0514    1.0896   11.7666 H   0  0  0  0  0  0  0  0  0  0  0  0
   -1.7486    1.4249   12.9569 H   0  0  0  0  0  0  0  0  0  0  0  0
   -1.4953    0.1976   11.6700 H   0  0  0  0  0  0  0  0  0  0  0  0
  1  2  1  0  0  0  0
  2  3  1  0  0  0  0
  3  4  1  0  0  0  0
  3 27  2  0  0  0  0
  4  5  2  0  0  0  0
  5  6  1  0  0  0  0
  6  7  2  0  0  0  0
  6 26  1  0  0  0  0
  7  8  1  0  0  0  0
  8  9  2  0  0  0  0
  8 16  1  0  0  0  0
  9 10  1  0  0  0  0
 10 11  2  0  0  0  0
 10 17  1  0  0  0  0
 11 12  1  0  0  0  0
 12 13  1  0  0  0  0
 12 16  1  0  0  0  0
 13 14  2  0  0  0  0
 14 15  1  0  0  0  0
 15 16  2  0  0  0  0
 17 18  2  0  0  0  0
 17 25  1  0  0  0  0
 18 19  1  0  0  0  0
 19 20  1  0  0  0  0
 20 21  2  0  0  0  0
 20 24  1  0  0  0  0
 21 22  1  0  0  0  0
 22 23  2  0  0  0  0
 23 24  1  0  0  0  0
 24 25  2  0  0  0  0
 26 27  1  0  0  0  0
 27 28  1  0  0  0  0
 28 29  1  0  0  0  0
  1 30  1  0  0  0  0
  1 31  1  0  0  0  0
  1 32  1  0  0  0  0
  4 33  1  0  0  0  0
  5 34  1  0  0  0  0
 11 35  1  0  0  0  0
 13 36  1  0  0  0  0
 14 37  1  0  0  0  0
 18 38  1  0  0  0  0
 19 39  1  0  0  0  0
 19 40  1  0  0  0  0
 23 41  1  0  0  0  0
 25 42  1  0  0  0  0
 26 43  1  0  0  0  0
 26 44  1  0  0  0  0
 29 45  1  0  0  0  0
 29 46  1  0  0  0  0
 29 47  1  0  0  0  0
M  END
> <IC50[nM]>
10.4

$$$$
CHEMBL3265021
  -OEChem-05192314333D
 Structure written by MMmdl.
 47 51  0     1  0  0  0  0  0999 V2000
   -4.2567   -3.1041   13.5694 C   0  0  0  0  0  0  0  0  0  0  0  0
   -3.8737   -2.3599   14.7156 O   0  0  0  0  0  0  0  0  0  0  0  0
   -2.5258   -2.1107   14.8171 C   0  0  3  0  0  0  0  0  0  0  0  0
   -1.7454   -2.8698   15.6820 C   0  0  0  0  0  0  0  0  0  0  0  0
   -0.3904   -2.6103   15.8138 C   0  0  0  0  0  0  0  0  0  0  0  0
    0.2204   -1.5845   15.0865 C   0  0  0  0  0  0  0  0  0  0  0  0
    1.6042   -1.3599   15.3206 N   0  0  0  0  0  0  0  0  0  0  0  0
    2.5373   -0.4464   14.7592 C   0  0  0  0  0  0  0  0  0  0  0  0
    2.1833    0.3714   13.7220 N   0  0  0  0  0  0  0  0  0  0  0  0
    3.1157    1.2390   13.2179 C   0  0  0  0  0  0  0  0  0  0  0  0
    4.4197    1.2848   13.7036 C   0  0  0  0  0  0  0  0  0  0  0  0
    4.7466    0.4890   14.7613 N   0  0  0  0  0  0  0  0  0  0  0  0
    5.8976    0.3767   15.4867 C   0  0  0  0  0  0  0  0  0  0  0  0
    5.5868   -0.5220   16.5302 C   0  0  0  0  0  0  0  0  0  0  0  0
    4.3755   -1.0422   16.3738 N   0  0  0  0  0  0  0  0  0  0  0  0
    3.8369   -0.3923   15.3263 C   0  0  0  0  0  0  0  0  0  0  0  0
    2.6420    2.1628   12.1182 C   0  0  0  0  0  0  0  0  0  0  0  0
    3.5476    2.6405   11.1603 C   0  0  0  0  0  0  0  0  0  0  0  0
    3.1538    3.4680   10.0985 C   0  0  0  0  0  0  0  0  0  0  0  0
    1.8053    3.8044   10.0318 C   0  0  3  0  0  0  0  0  0  0  0  0
    1.0883    4.5643    9.1320 N   0  0  0  0  0  0  0  0  0  0  0  0
   -0.2025    4.6328    9.4561 N   0  0  0  0  0  0  0  0  0  0  0  0
   -0.3779    3.9489   10.5598 C   0  0  0  0  0  0  0  0  0  0  0  0
    0.8670    3.3654   10.9941 C   0  0  0  0  0  0  0  0  0  0  0  0
    1.2880    2.5471   12.0527 C   0  0  0  0  0  0  0  0  0  0  0  0
   -0.5552   -0.8189   14.1923 C   0  0  0  0  0  0  0  0  0  0  0  0
   -1.9451   -1.0886   14.0616 C   0  0  0  0  0  0  0  0  0  0  0  0
   -2.7540   -0.3570   13.2047 O   0  0  0  0  0  0  0  0  0  0  0  0
   -2.2335    0.6444   12.3522 C   0  0  0  0  0  0  0  0  0  0  0  0
   -5.3466   -3.2526   13.5753 H   0  0  0  0  0  0  0  0  0  0  0  0
   -3.9666   -2.5545   12.6618 H   0  0  0  0  0  0  0  0  0  0  0  0
   -3.7535   -4.0822   13.5824 H   0  0  0  0  0  0  0  0  0  0  0  0
   -2.3289   -2.8268   14.0057 H   0  0  0  0  0  0  0  0  0  0  0  0
   -2.1977   -3.6662   16.2544 H   0  0  0  0  0  0  0  0  0  0  0  0
    0.2027   -3.2097   16.4886 H   0  0  0  0  0  0  0  0  0  0  0  0
    5.1548    1.9353   13.2532 H   0  0  0  0  0  0  0  0  0  0  0  0
    6.8412    0.8686   15.3023 H   0  0  0  0  0  0  0  0  0  0  0  0
    6.2493   -0.7562   17.3503 H   0  0  0  0  0  0  0  0  0  0  0  0
    4.5874    2.3608   11.2432 H   0  0  0  0  0  0  0  0  0  0  0  0
    3.8633    3.8269    9.3676 H   0  0  0  0  0  0  0  0  0  0  0  0
    1.6098    2.9050    9.4295 H   0  0  0  0  0  0  0  0  0  0  0  0
   -1.3221    3.8379   11.0722 H   0  0  0  0  0  0  0  0  0  0  0  0
    0.5864    2.2173   12.8046 H   0  0  0  0  0  0  0  0  0  0  0  0
   -0.0968   -0.0329   13.6105 H   0  0  0  0  0  0  0  0  0  0  0  0
   -3.0514    1.0896   11.7666 H   0  0  0  0  0  0  0  0  0  0  0  0
   -1.7486    1.4249   12.9569 H   0  0  0  0  0  0  0  0  0  0  0  0
   -1.4953    0.1976   11.6700 H   0  0  0  0  0  0  0  0  0  0  0  0
  1  2  1  0  0  0  0
  2  3  1  0  0  0  0
  3  4  1  0  0  0  0
  3 27  1  0  0  0  0
  4  5  2  0  0  0  0
  5  6  1  0  0  0  0
  6  7  2  0  0  0  0
  6 26  1  0  0  0  0
  7  8  1  0  0  0  0
  8  9  2  0  0  0  0
  8 16  1  0  0  0  0
  9 10  1  0  0  0  0
 10 11  2  0  0  0  0
 10 17  1  0  0  0  0
 11 12  1  0  0  0  0
 12 13  1  0  0  0  0
 12 16  1  0  0  0  0
 13 14  2  0  0  0  0
 14 15  1  0  0  0  0
 15 16  2  0  0  0  0
 17 18  1  0  0  0  0
 17 25  2  0  0  0  0
 18 19  2  0  0  0  0
 19 20  1  0  0  0  0
 20 21  1  0  0  0  0
 20 24  1  0  0  0  0
 21 22  2  0  0  0  0
 22 23  1  0  0  0  0
 23 24  2  0  0  0  0
 24 25  1  0  0  0  0
 26 27  2  0  0  0  0
 27 28  1  0  0  0  0
 28 29  1  0  0  0  0
  1 30  1  0  0  0  0
  1 31  1  0  0  0  0
  1 32  1  0  0  0  0
  3 33  1  0  0  0  0
  4 34  1  0  0  0  0
  5 35  1  0  0  0  0
 11 36  1  0  0  0  0
 13 37  1  0  0  0  0
 14 38  1  0  0  0  0
 18 39  1  0  0  0  0
 19 40  1  0  0  0  0
 20 41  1  0  0  0  0
 23 42  1  0  0  0  0
 25 43  1  0  0  0  0
 26 44  1  0  0  0  0
 29 45  1  0  0  0  0
 29 46  1  0  0  0  0
 29 47  1  0  0  0  0
M  END
> <IC50[nM]>
10.4

$$$$
CHEMBL3265021
  -OEChem-05192314333D
 Structure written by MMmdl.
 47 51  0     1  0  0  0  0  0999 V2000
   -4.2567   -3.1041   13.5694 C   0  0  0  0  0  0  0  0  0  0  0  0
   -3.8737   -2.3599   14.7156 O   0  0  0  0  0  0  0  0  0  0  0  0
   -2.5258   -2.1107   14.8171 C   0  0  0  0  0  0  0  0  0  0  0  0
   -1.7454   -2.8698   15.6820 C   0  0  0  0  0  0  0  0  0  0  0  0
   -0.3904   -2.6103   15.8138 C   0  0  0  0  0  0  0  0  0  0  0  0
    0.2204   -1.5845   15.0865 C   0  0  0  0  0  0  0  0  0  0  0  0
    1.6042   -1.3599   15.3206 N   0  0  0  0  0  0  0  0  0  0  0  0
    2.5373   -0.4464   14.7592 C   0  0  0  0  0  0  0  0  0  0  0  0
    2.1833    0.3714   13.7220 N   0  0  0  0  0  0  0  0  0  0  0  0
    3.1157    1.2390   13.2179 C   0  0  0  0  0  0  0  0  0  0  0  0
    4.4197    1.2848   13.7036 C   0  0  0  0  0  0  0  0  0  0  0  0
    4.7466    0.4890   14.7613 N   0  0  0  0  0  0  0  0  0  0  0  0
    5.8976    0.3767   15.4867 C   0  0  0  0  0  0  0  0  0  0  0  0
    5.5868   -0.5220   16.5302 C   0  0  0  0  0  0  0  0  0  0  0  0
    4.3755   -1.0422   16.3738 N   0  0  0  0  0  0  0  0  0  0  0  0
    3.8369   -0.3923   15.3263 C   0  0  0  0  0  0  0  0  0  0  0  0
    2.6420    2.1628   12.1182 C   0  0  0  0  0  0  0  0  0  0  0  0
    3.5476    2.6405   11.1603 C   0  0  0  0  0  0  0  0  0  0  0  0
    3.1538    3.4680   10.0985 C   0  0  0  0  0  0  0  0  0  0  0  0
    1.8053    3.8044   10.0318 C   0  0  3  0  0  0  0  0  0  0  0  0
    1.0883    4.5643    9.1320 N   0  0  0  0  0  0  0  0  0  0  0  0
   -0.2025    4.6328    9.4561 N   0  0  0  0  0  0  0  0  0  0  0  0
   -0.3779    3.9489   10.5598 C   0  0  0  0  0  0  0  0  0  0  0  0
    0.8670    3.3654   10.9941 C   0  0  0  0  0  0  0  0  0  0  0  0
    1.2880    2.5471   12.0527 C   0  0  0  0  0  0  0  0  0  0  0  0
   -0.5552   -0.8189   14.1923 C   0  0  0  0  0  0  0  0  0  0  0  0
   -1.9451   -1.0886   14.0616 C   0  0  0  0  0  0  0  0  0  0  0  0
   -2.7540   -0.3570   13.2047 O   0  0  0  0  0  0  0  0  0  0  0  0
   -2.2335    0.6444   12.3522 C   0  0  0  0  0  0  0  0  0  0  0  0
   -5.3466   -3.2526   13.5753 H   0  0  0  0  0  0  0  0  0  0  0  0
   -3.9666   -2.5545   12.6618 H   0  0  0  0  0  0  0  0  0  0  0  0
   -3.7535   -4.0822   13.5824 H   0  0  0  0  0  0  0  0  0  0  0  0
   -2.1977   -3.6662   16.2544 H   0  0  0  0  0  0  0  0  0  0  0  0
   -0.2169   -2.3862   16.8767 H   0  0  0  0  0  0  0  0  0  0  0  0
    0.1335   -3.5393   15.5446 H   0  0  0  0  0  0  0  0  0  0  0  0
    5.1548    1.9353   13.2532 H   0  0  0  0  0  0  0  0  0  0  0  0
    6.8412    0.8686   15.3023 H   0  0  0  0  0  0  0  0  0  0  0  0
    6.2493   -0.7562   17.3503 H   0  0  0  0  0  0  0  0  0  0  0  0
    4.5874    2.3608   11.2432 H   0  0  0  0  0  0  0  0  0  0  0  0
    3.8633    3.8269    9.3676 H   0  0  0  0  0  0  0  0  0  0  0  0
    1.6098    2.9050    9.4295 H   0  0  0  0  0  0  0  0  0  0  0  0
   -1.3221    3.8379   11.0722 H   0  0  0  0  0  0  0  0  0  0  0  0
    0.5864    2.2173   12.8046 H   0  0  0  0  0  0  0  0  0  0  0  0
   -0.0968   -0.0329   13.6105 H   0  0  0  0  0  0  0  0  0  0  0  0
   -3.0514    1.0896   11.7666 H   0  0  0  0  0  0  0  0  0  0  0  0
   -1.7486    1.4249   12.9569 H   0  0  0  0  0  0  0  0  0  0  0  0
   -1.4953    0.1976   11.6700 H   0  0  0  0  0  0  0  0  0  0  0  0
  1  2  1  0  0  0  0
  2  3  1  0  0  0  0
  3  4  2  0  0  0  0
  3 27  1  0  0  0  0
  4  5  1  0  0  0  0
  5  6  1  0  0  0  0
  6  7  2  0  0  0  0
  6 26  1  0  0  0  0
  7  8  1  0  0  0  0
  8  9  2  0  0  0  0
  8 16  1  0  0  0  0
  9 10  1  0  0  0  0
 10 11  2  0  0  0  0
 10 17  1  0  0  0  0
 11 12  1  0  0  0  0
 12 13  1  0  0  0  0
 12 16  1  0  0  0  0
 13 14  2  0  0  0  0
 14 15  1  0  0  0  0
 15 16  2  0  0  0  0
 17 18  1  0  0  0  0
 17 25  2  0  0  0  0
 18 19  2  0  0  0  0
 19 20  1  0  0  0  0
 20 21  1  0  0  0  0
 20 24  1  0  0  0  0
 21 22  2  0  0  0  0
 22 23  1  0  0  0  0
 23 24  2  0  0  0  0
 24 25  1  0  0  0  0
 26 27  2  0  0  0  0
 27 28  1  0  0  0  0
 28 29  1  0  0  0  0
  1 30  1  0  0  0  0
  1 31  1  0  0  0  0
  1 32  1  0  0  0  0
  4 33  1  0  0  0  0
  5 34  1  0  0  0  0
  5 35  1  0  0  0  0
 11 36  1  0  0  0  0
 13 37  1  0  0  0  0
 14 38  1  0  0  0  0
 18 39  1  0  0  0  0
 19 40  1  0  0  0  0
 20 41  1  0  0  0  0
 23 42  1  0  0  0  0
 25 43  1  0  0  0  0
 26 44  1  0  0  0  0
 29 45  1  0  0  0  0
 29 46  1  0  0  0  0
 29 47  1  0  0  0  0
M  END
> <IC50[nM]>
10.4

$$$$
CHEMBL3265021
  -OEChem-05192314333D
 Structure written by MMmdl.
 47 51  0     1  0  0  0  0  0999 V2000
   -4.2567   -3.1041   13.5694 C   0  0  0  0  0  0  0  0  0  0  0  0
   -3.8737   -2.3599   14.7156 O   0  0  0  0  0  0  0  0  0  0  0  0
   -2.5258   -2.1107   14.8171 C   0  0  3  0  0  0  0  0  0  0  0  0
   -1.7454   -2.8698   15.6820 C   0  0  0  0  0  0  0  0  0  0  0  0
   -0.3904   -2.6103   15.8138 C   0  0  0  0  0  0  0  0  0  0  0  0
    0.2204   -1.5845   15.0865 C   0  0  0  0  0  0  0  0  0  0  0  0
    1.6042   -1.3599   15.3206 N   0  0  0  0  0  0  0  0  0  0  0  0
    2.5373   -0.4464   14.7592 C   0  0  0  0  0  0  0  0  0  0  0  0
    2.1833    0.3714   13.7220 N   0  0  0  0  0  0  0  0  0  0  0  0
    3.1157    1.2390   13.2179 C   0  0  0  0  0  0  0  0  0  0  0  0
    4.4197    1.2848   13.7036 C   0  0  0  0  0  0  0  0  0  0  0  0
    4.7466    0.4890   14.7613 N   0  0  0  0  0  0  0  0  0  0  0  0
    5.8976    0.3767   15.4867 C   0  0  0  0  0  0  0  0  0  0  0  0
    5.5868   -0.5220   16.5302 C   0  0  0  0  0  0  0  0  0  0  0  0
    4.3755   -1.0422   16.3738 N   0  0  0  0  0  0  0  0  0  0  0  0
    3.8369   -0.3923   15.3263 C   0  0  0  0  0  0  0  0  0  0  0  0
    2.6420    2.1628   12.1182 C   0  0  0  0  0  0  0  0  0  0  0  0
    3.5476    2.6405   11.1603 C   0  0  0  0  0  0  0  0  0  0  0  0
    3.1538    3.4680   10.0985 C   0  0  0  0  0  0  0  0  0  0  0  0
    1.8053    3.8044   10.0318 C   0  0  0  0  0  0  0  0  0  0  0  0
    1.0883    4.5643    9.1320 N   0  0  0  0  0  0  0  0  0  0  0  0
   -0.2025    4.6328    9.4561 N   0  0  0  0  0  0  0  0  0  0  0  0
   -0.3779    3.9489   10.5598 C   0  0  0  0  0  0  0  0  0  0  0  0
    0.8670    3.3654   10.9941 C   0  0  0  0  0  0  0  0  0  0  0  0
    1.2880    2.5471   12.0527 C   0  0  0  0  0  0  0  0  0  0  0  0
   -0.5552   -0.8189   14.1923 C   0  0  0  0  0  0  0  0  0  0  0  0
   -1.9451   -1.0886   14.0616 C   0  0  0  0  0  0  0  0  0  0  0  0
   -2.7540   -0.3570   13.2047 O   0  0  0  0  0  0  0  0  0  0  0  0
   -2.2335    0.6444   12.3522 C   0  0  0  0  0  0  0  0  0  0  0  0
   -5.3466   -3.2526   13.5753 H   0  0  0  0  0  0  0  0  0  0  0  0
   -3.9666   -2.5545   12.6618 H   0  0  0  0  0  0  0  0  0  0  0  0
   -3.7535   -4.0822   13.5824 H   0  0  0  0  0  0  0  0  0  0  0  0
   -2.3289   -2.8268   14.0057 H   0  0  0  0  0  0  0  0  0  0  0  0
   -2.1977   -3.6662   16.2544 H   0  0  0  0  0  0  0  0  0  0  0  0
    0.2027   -3.2097   16.4886 H   0  0  0  0  0  0  0  0  0  0  0  0
    5.1548    1.9353   13.2532 H   0  0  0  0  0  0  0  0  0  0  0  0
    6.8412    0.8686   15.3023 H   0  0  0  0  0  0  0  0  0  0  0  0
    6.2493   -0.7562   17.3503 H   0  0  0  0  0  0  0  0  0  0  0  0
    4.3136    3.2007   11.7165 H   0  0  0  0  0  0  0  0  0  0  0  0
    4.0046    1.7513   10.7015 H   0  0  0  0  0  0  0  0  0  0  0  0
    3.8633    3.8269    9.3676 H   0  0  0  0  0  0  0  0  0  0  0  0
   -1.3221    3.8379   11.0722 H   0  0  0  0  0  0  0  0  0  0  0  0
    0.5864    2.2173   12.8046 H   0  0  0  0  0  0  0  0  0  0  0  0
   -0.0968   -0.0329   13.6105 H   0  0  0  0  0  0  0  0  0  0  0  0
   -3.0514    1.0896   11.7666 H   0  0  0  0  0  0  0  0  0  0  0  0
   -1.7486    1.4249   12.9569 H   0  0  0  0  0  0  0  0  0  0  0  0
   -1.4953    0.1976   11.6700 H   0  0  0  0  0  0  0  0  0  0  0  0
  1  2  1  0  0  0  0
  2  3  1  0  0  0  0
  3  4  1  0  0  0  0
  3 27  1  0  0  0  0
  4  5  2  0  0  0  0
  5  6  1  0  0  0  0
  6  7  2  0  0  0  0
  6 26  1  0  0  0  0
  7  8  1  0  0  0  0
  8  9  2  0  0  0  0
  8 16  1  0  0  0  0
  9 10  1  0  0  0  0
 10 11  2  0  0  0  0
 10 17  1  0  0  0  0
 11 12  1  0  0  0  0
 12 13  1  0  0  0  0
 12 16  1  0  0  0  0
 13 14  2  0  0  0  0
 14 15  1  0  0  0  0
 15 16  2  0  0  0  0
 17 18  1  0  0  0  0
 17 25  2  0  0  0  0
 18 19  1  0  0  0  0
 19 20  2  0  0  0  0
 20 21  1  0  0  0  0
 20 24  1  0  0  0  0
 21 22  2  0  0  0  0
 22 23  1  0  0  0  0
 23 24  2  0  0  0  0
 24 25  1  0  0  0  0
 26 27  2  0  0  0  0
 27 28  1  0  0  0  0
 28 29  1  0  0  0  0
  1 30  1  0  0  0  0
  1 31  1  0  0  0  0
  1 32  1  0  0  0  0
  3 33  1  0  0  0  0
  4 34  1  0  0  0  0
  5 35  1  0  0  0  0
 11 36  1  0  0  0  0
 13 37  1  0  0  0  0
 14 38  1  0  0  0  0
 18 39  1  0  0  0  0
 18 40  1  0  0  0  0
 19 41  1  0  0  0  0
 23 42  1  0  0  0  0
 25 43  1  0  0  0  0
 26 44  1  0  0  0  0
 29 45  1  0  0  0  0
 29 46  1  0  0  0  0
 29 47  1  0  0  0  0
M  END
> <IC50[nM]>
10.4

$$$$
CHEMBL3265021
  -OEChem-05192314333D
 Structure written by MMmdl.
 47 51  0     0  0  0  0  0  0999 V2000
   -4.2567   -3.1041   13.5694 C   0  0  0  0  0  0  0  0  0  0  0  0
   -3.8737   -2.3599   14.7156 O   0  0  0  0  0  0  0  0  0  0  0  0
   -2.5258   -2.1107   14.8171 C   0  0  0  0  0  0  0  0  0  0  0  0
   -1.7454   -2.8698   15.6820 C   0  0  0  0  0  0  0  0  0  0  0  0
   -0.3904   -2.6103   15.8138 C   0  0  0  0  0  0  0  0  0  0  0  0
    0.2204   -1.5845   15.0865 C   0  0  0  0  0  0  0  0  0  0  0  0
    1.6042   -1.3599   15.3206 N   0  0  0  0  0  0  0  0  0  0  0  0
    2.5373   -0.4464   14.7592 C   0  0  0  0  0  0  0  0  0  0  0  0
    2.1833    0.3714   13.7220 N   0  0  0  0  0  0  0  0  0  0  0  0
    3.1157    1.2390   13.2179 C   0  0  0  0  0  0  0  0  0  0  0  0
    4.4197    1.2848   13.7036 C   0  0  0  0  0  0  0  0  0  0  0  0
    4.7466    0.4890   14.7613 N   0  0  0  0  0  0  0  0  0  0  0  0
    5.8976    0.3767   15.4867 C   0  0  0  0  0  0  0  0  0  0  0  0
    5.5868   -0.5220   16.5302 C   0  0  0  0  0  0  0  0  0  0  0  0
    4.3755   -1.0422   16.3738 N   0  0  0  0  0  0  0  0  0  0  0  0
    3.8369   -0.3923   15.3263 C   0  0  0  0  0  0  0  0  0  0  0  0
    2.6420    2.1628   12.1182 C   0  0  0  0  0  0  0  0  0  0  0  0
    3.5476    2.6405   11.1603 C   0  0  0  0  0  0  0  0  0  0  0  0
    3.1538    3.4680   10.0985 C   0  0  0  0  0  0  0  0  0  0  0  0
    1.8053    3.8044   10.0318 C   0  0  0  0  0  0  0  0  0  0  0  0
    1.0883    4.5643    9.1320 N   0  0  0  0  0  0  0  0  0  0  0  0
   -0.2025    4.6328    9.4561 N   0  0  0  0  0  0  0  0  0  0  0  0
   -0.3779    3.9489   10.5598 C   0  0  0  0  0  0  0  0  0  0  0  0
    0.8670    3.3654   10.9941 C   0  0  0  0  0  0  0  0  0  0  0  0
    1.2880    2.5471   12.0527 C   0  0  0  0  0  0  0  0  0  0  0  0
   -0.5552   -0.8189   14.1923 C   0  0  0  0  0  0  0  0  0  0  0  0
   -1.9451   -1.0886   14.0616 C   0  0  0  0  0  0  0  0  0  0  0  0
   -2.7540   -0.3570   13.2047 O   0  0  0  0  0  0  0  0  0  0  0  0
   -2.2335    0.6444   12.3522 C   0  0  0  0  0  0  0  0  0  0  0  0
   -5.3466   -3.2526   13.5753 H   0  0  0  0  0  0  0  0  0  0  0  0
   -3.9666   -2.5545   12.6618 H   0  0  0  0  0  0  0  0  0  0  0  0
   -3.7535   -4.0822   13.5824 H   0  0  0  0  0  0  0  0  0  0  0  0
   -2.1977   -3.6662   16.2544 H   0  0  0  0  0  0  0  0  0  0  0  0
   -0.2169   -2.3862   16.8767 H   0  0  0  0  0  0  0  0  0  0  0  0
    0.1335   -3.5393   15.5446 H   0  0  0  0  0  0  0  0  0  0  0  0
    5.1548    1.9353   13.2532 H   0  0  0  0  0  0  0  0  0  0  0  0
    6.8412    0.8686   15.3023 H   0  0  0  0  0  0  0  0  0  0  0  0
    6.2493   -0.7562   17.3503 H   0  0  0  0  0  0  0  0  0  0  0  0
    4.3136    3.2007   11.7165 H   0  0  0  0  0  0  0  0  0  0  0  0
    4.0046    1.7513   10.7015 H   0  0  0  0  0  0  0  0  0  0  0  0
    3.8633    3.8269    9.3676 H   0  0  0  0  0  0  0  0  0  0  0  0
   -1.3221    3.8379   11.0722 H   0  0  0  0  0  0  0  0  0  0  0  0
    0.5864    2.2173   12.8046 H   0  0  0  0  0  0  0  0  0  0  0  0
   -0.0968   -0.0329   13.6105 H   0  0  0  0  0  0  0  0  0  0  0  0
   -3.0514    1.0896   11.7666 H   0  0  0  0  0  0  0  0  0  0  0  0
   -1.7486    1.4249   12.9569 H   0  0  0  0  0  0  0  0  0  0  0  0
   -1.4953    0.1976   11.6700 H   0  0  0  0  0  0  0  0  0  0  0  0
  1  2  1  0  0  0  0
  2  3  1  0  0  0  0
  3  4  2  0  0  0  0
  3 27  1  0  0  0  0
  4  5  1  0  0  0  0
  5  6  1  0  0  0  0
  6  7  2  0  0  0  0
  6 26  1  0  0  0  0
  7  8  1  0  0  0  0
  8  9  2  0  0  0  0
  8 16  1  0  0  0  0
  9 10  1  0  0  0  0
 10 11  2  0  0  0  0
 10 17  1  0  0  0  0
 11 12  1  0  0  0  0
 12 13  1  0  0  0  0
 12 16  1  0  0  0  0
 13 14  2  0  0  0  0
 14 15  1  0  0  0  0
 15 16  2  0  0  0  0
 17 18  1  0  0  0  0
 17 25  2  0  0  0  0
 18 19  1  0  0  0  0
 19 20  2  0  0  0  0
 20 21  1  0  0  0  0
 20 24  1  0  0  0  0
 21 22  2  0  0  0  0
 22 23  1  0  0  0  0
 23 24  2  0  0  0  0
 24 25  1  0  0  0  0
 26 27  2  0  0  0  0
 27 28  1  0  0  0  0
 28 29  1  0  0  0  0
  1 30  1  0  0  0  0
  1 31  1  0  0  0  0
  1 32  1  0  0  0  0
  4 33  1  0  0  0  0
  5 34  1  0  0  0  0
  5 35  1  0  0  0  0
 11 36  1  0  0  0  0
 13 37  1  0  0  0  0
 14 38  1  0  0  0  0
 18 39  1  0  0  0  0
 18 40  1  0  0  0  0
 19 41  1  0  0  0  0
 23 42  1  0  0  0  0
 25 43  1  0  0  0  0
 26 44  1  0  0  0  0
 29 45  1  0  0  0  0
 29 46  1  0  0  0  0
 29 47  1  0  0  0  0
M  END
> <IC50[nM]>
10.4

$$$$
CHEMBL3265021
  -OEChem-05192314333D
 Structure written by MMmdl.
 47 51  0     1  0  0  0  0  0999 V2000
   -4.2567   -3.1041   13.5694 C   0  0  0  0  0  0  0  0  0  0  0  0
   -3.8737   -2.3599   14.7156 O   0  0  0  0  0  0  0  0  0  0  0  0
   -2.5258   -2.1107   14.8171 C   0  0  0  0  0  0  0  0  0  0  0  0
   -1.7454   -2.8698   15.6820 C   0  0  0  0  0  0  0  0  0  0  0  0
   -0.3904   -2.6103   15.8138 C   0  0  0  0  0  0  0  0  0  0  0  0
    0.2204   -1.5845   15.0865 C   0  0  0  0  0  0  0  0  0  0  0  0
    1.6042   -1.3599   15.3206 N   0  0  0  0  0  0  0  0  0  0  0  0
    2.5373   -0.4464   14.7592 C   0  0  0  0  0  0  0  0  0  0  0  0
    2.1833    0.3714   13.7220 N   0  0  0  0  0  0  0  0  0  0  0  0
    3.1157    1.2390   13.2179 C   0  0  0  0  0  0  0  0  0  0  0  0
    4.4197    1.2848   13.7036 C   0  0  0  0  0  0  0  0  0  0  0  0
    4.7466    0.4890   14.7613 N   0  0  0  0  0  0  0  0  0  0  0  0
    5.8976    0.3767   15.4867 C   0  0  0  0  0  0  0  0  0  0  0  0
    5.5868   -0.5220   16.5302 C   0  0  0  0  0  0  0  0  0  0  0  0
    4.3755   -1.0422   16.3738 N   0  0  0  0  0  0  0  0  0  0  0  0
    3.8369   -0.3923   15.3263 C   0  0  0  0  0  0  0  0  0  0  0  0
    2.6420    2.1628   12.1182 C   0  0  0  0  0  0  0  0  0  0  0  0
    3.5476    2.6405   11.1603 C   0  0  0  0  0  0  0  0  0  0  0  0
    3.1538    3.4680   10.0985 C   0  0  0  0  0  0  0  0  0  0  0  0
    1.8053    3.8044   10.0318 C   0  0  3  0  0  0  0  0  0  0  0  0
    1.0883    4.5643    9.1320 N   0  0  0  0  0  0  0  0  0  0  0  0
   -0.2025    4.6328    9.4561 N   0  0  0  0  0  0  0  0  0  0  0  0
   -0.3779    3.9489   10.5598 C   0  0  0  0  0  0  0  0  0  0  0  0
    0.8670    3.3654   10.9941 C   0  0  0  0  0  0  0  0  0  0  0  0
    1.2880    2.5471   12.0527 C   0  0  0  0  0  0  0  0  0  0  0  0
   -0.5552   -0.8189   14.1923 C   0  0  0  0  0  0  0  0  0  0  0  0
   -1.9451   -1.0886   14.0616 C   0  0  0  0  0  0  0  0  0  0  0  0
   -2.7540   -0.3570   13.2047 O   0  0  0  0  0  0  0  0  0  0  0  0
   -2.2335    0.6444   12.3522 C   0  0  0  0  0  0  0  0  0  0  0  0
   -5.3466   -3.2526   13.5753 H   0  0  0  0  0  0  0  0  0  0  0  0
   -3.9666   -2.5545   12.6618 H   0  0  0  0  0  0  0  0  0  0  0  0
   -3.7535   -4.0822   13.5824 H   0  0  0  0  0  0  0  0  0  0  0  0
   -2.1977   -3.6662   16.2544 H   0  0  0  0  0  0  0  0  0  0  0  0
    0.2027   -3.2097   16.4886 H   0  0  0  0  0  0  0  0  0  0  0  0
    5.1548    1.9353   13.2532 H   0  0  0  0  0  0  0  0  0  0  0  0
    6.8412    0.8686   15.3023 H   0  0  0  0  0  0  0  0  0  0  0  0
    6.2493   -0.7562   17.3503 H   0  0  0  0  0  0  0  0  0  0  0  0
    4.5874    2.3608   11.2432 H   0  0  0  0  0  0  0  0  0  0  0  0
    3.8633    3.8269    9.3676 H   0  0  0  0  0  0  0  0  0  0  0  0
    1.6098    2.9050    9.4295 H   0  0  0  0  0  0  0  0  0  0  0  0
   -1.3221    3.8379   11.0722 H   0  0  0  0  0  0  0  0  0  0  0  0
    0.5864    2.2173   12.8046 H   0  0  0  0  0  0  0  0  0  0  0  0
   -0.4614    0.2312   14.5060 H   0  0  0  0  0  0  0  0  0  0  0  0
   -0.1099   -0.9446   13.1944 H   0  0  0  0  0  0  0  0  0  0  0  0
   -3.0514    1.0896   11.7666 H   0  0  0  0  0  0  0  0  0  0  0  0
   -1.7486    1.4249   12.9569 H   0  0  0  0  0  0  0  0  0  0  0  0
   -1.4953    0.1976   11.6700 H   0  0  0  0  0  0  0  0  0  0  0  0
  1  2  1  0  0  0  0
  2  3  1  0  0  0  0
  3  4  1  0  0  0  0
  3 27  2  0  0  0  0
  4  5  2  0  0  0  0
  5  6  1  0  0  0  0
  6  7  2  0  0  0  0
  6 26  1  0  0  0  0
  7  8  1  0  0  0  0
  8  9  2  0  0  0  0
  8 16  1  0  0  0  0
  9 10  1  0  0  0  0
 10 11  2  0  0  0  0
 10 17  1  0  0  0  0
 11 12  1  0  0  0  0
 12 13  1  0  0  0  0
 12 16  1  0  0  0  0
 13 14  2  0  0  0  0
 14 15  1  0  0  0  0
 15 16  2  0  0  0  0
 17 18  1  0  0  0  0
 17 25  2  0  0  0  0
 18 19  2  0  0  0  0
 19 20  1  0  0  0  0
 20 21  1  0  0  0  0
 20 24  1  0  0  0  0
 21 22  2  0  0  0  0
 22 23  1  0  0  0  0
 23 24  2  0  0  0  0
 24 25  1  0  0  0  0
 26 27  1  0  0  0  0
 27 28  1  0  0  0  0
 28 29  1  0  0  0  0
  1 30  1  0  0  0  0
  1 31  1  0  0  0  0
  1 32  1  0  0  0  0
  4 33  1  0  0  0  0
  5 34  1  0  0  0  0
 11 35  1  0  0  0  0
 13 36  1  0  0  0  0
 14 37  1  0  0  0  0
 18 38  1  0  0  0  0
 19 39  1  0  0  0  0
 20 40  1  0  0  0  0
 23 41  1  0  0  0  0
 25 42  1  0  0  0  0
 26 43  1  0  0  0  0
 26 44  1  0  0  0  0
 29 45  1  0  0  0  0
 29 46  1  0  0  0  0
 29 47  1  0  0  0  0
M  END
> <IC50[nM]>
10.4

$$$$
CHEMBL3265021
  -OEChem-05192314333D
 Structure written by MMmdl.
 47 51  0     0  0  0  0  0  0999 V2000
   -4.2567   -3.1041   13.5694 C   0  0  0  0  0  0  0  0  0  0  0  0
   -3.8737   -2.3599   14.7156 O   0  0  0  0  0  0  0  0  0  0  0  0
   -2.5258   -2.1107   14.8171 C   0  0  0  0  0  0  0  0  0  0  0  0
   -1.7454   -2.8698   15.6820 C   0  0  0  0  0  0  0  0  0  0  0  0
   -0.3904   -2.6103   15.8138 C   0  0  0  0  0  0  0  0  0  0  0  0
    0.2204   -1.5845   15.0865 C   0  0  0  0  0  0  0  0  0  0  0  0
    1.6042   -1.3599   15.3206 N   0  0  0  0  0  0  0  0  0  0  0  0
    2.5373   -0.4464   14.7592 C   0  0  0  0  0  0  0  0  0  0  0  0
    2.1833    0.3714   13.7220 N   0  0  0  0  0  0  0  0  0  0  0  0
    3.1157    1.2390   13.2179 C   0  0  0  0  0  0  0  0  0  0  0  0
    4.4197    1.2848   13.7036 C   0  0  0  0  0  0  0  0  0  0  0  0
    4.7466    0.4890   14.7613 N   0  0  0  0  0  0  0  0  0  0  0  0
    5.8976    0.3767   15.4867 C   0  0  0  0  0  0  0  0  0  0  0  0
    5.5868   -0.5220   16.5302 C   0  0  0  0  0  0  0  0  0  0  0  0
    4.3755   -1.0422   16.3738 N   0  0  0  0  0  0  0  0  0  0  0  0
    3.8369   -0.3923   15.3263 C   0  0  0  0  0  0  0  0  0  0  0  0
    2.6420    2.1628   12.1182 C   0  0  0  0  0  0  0  0  0  0  0  0
    3.5476    2.6405   11.1603 C   0  0  0  0  0  0  0  0  0  0  0  0
    3.1538    3.4680   10.0985 C   0  0  0  0  0  0  0  0  0  0  0  0
    1.8053    3.8044   10.0318 C   0  0  0  0  0  0  0  0  0  0  0  0
    1.0883    4.5643    9.1320 N   0  0  0  0  0  0  0  0  0  0  0  0
   -0.2025    4.6328    9.4561 N   0  0  0  0  0  0  0  0  0  0  0  0
   -0.3779    3.9489   10.5598 C   0  0  0  0  0  0  0  0  0  0  0  0
    0.8670    3.3654   10.9941 C   0  0  0  0  0  0  0  0  0  0  0  0
    1.2880    2.5471   12.0527 C   0  0  0  0  0  0  0  0  0  0  0  0
   -0.5552   -0.8189   14.1923 C   0  0  0  0  0  0  0  0  0  0  0  0
   -1.9451   -1.0886   14.0616 C   0  0  0  0  0  0  0  0  0  0  0  0
   -2.7540   -0.3570   13.2047 O   0  0  0  0  0  0  0  0  0  0  0  0
   -2.2335    0.6444   12.3522 C   0  0  0  0  0  0  0  0  0  0  0  0
   -5.3466   -3.2526   13.5753 H   0  0  0  0  0  0  0  0  0  0  0  0
   -3.9666   -2.5545   12.6618 H   0  0  0  0  0  0  0  0  0  0  0  0
   -3.7535   -4.0822   13.5824 H   0  0  0  0  0  0  0  0  0  0  0  0
   -2.1977   -3.6662   16.2544 H   0  0  0  0  0  0  0  0  0  0  0  0
    0.2027   -3.2097   16.4886 H   0  0  0  0  0  0  0  0  0  0  0  0
    5.1548    1.9353   13.2532 H   0  0  0  0  0  0  0  0  0  0  0  0
    6.8412    0.8686   15.3023 H   0  0  0  0  0  0  0  0  0  0  0  0
    6.2493   -0.7562   17.3503 H   0  0  0  0  0  0  0  0  0  0  0  0
    4.3136    3.2007   11.7165 H   0  0  0  0  0  0  0  0  0  0  0  0
    4.0046    1.7513   10.7015 H   0  0  0  0  0  0  0  0  0  0  0  0
    3.8633    3.8269    9.3676 H   0  0  0  0  0  0  0  0  0  0  0  0
   -1.3221    3.8379   11.0722 H   0  0  0  0  0  0  0  0  0  0  0  0
    0.5864    2.2173   12.8046 H   0  0  0  0  0  0  0  0  0  0  0  0
   -0.4614    0.2312   14.5060 H   0  0  0  0  0  0  0  0  0  0  0  0
   -0.1099   -0.9446   13.1944 H   0  0  0  0  0  0  0  0  0  0  0  0
   -3.0514    1.0896   11.7666 H   0  0  0  0  0  0  0  0  0  0  0  0
   -1.7486    1.4249   12.9569 H   0  0  0  0  0  0  0  0  0  0  0  0
   -1.4953    0.1976   11.6700 H   0  0  0  0  0  0  0  0  0  0  0  0
  1  2  1  0  0  0  0
  2  3  1  0  0  0  0
  3  4  1  0  0  0  0
  3 27  2  0  0  0  0
  4  5  2  0  0  0  0
  5  6  1  0  0  0  0
  6  7  2  0  0  0  0
  6 26  1  0  0  0  0
  7  8  1  0  0  0  0
  8  9  2  0  0  0  0
  8 16  1  0  0  0  0
  9 10  1  0  0  0  0
 10 11  2  0  0  0  0
 10 17  1  0  0  0  0
 11 12  1  0  0  0  0
 12 13  1  0  0  0  0
 12 16  1  0  0  0  0
 13 14  2  0  0  0  0
 14 15  1  0  0  0  0
 15 16  2  0  0  0  0
 17 18  1  0  0  0  0
 17 25  2  0  0  0  0
 18 19  1  0  0  0  0
 19 20  2  0  0  0  0
 20 21  1  0  0  0  0
 20 24  1  0  0  0  0
 21 22  2  0  0  0  0
 22 23  1  0  0  0  0
 23 24  2  0  0  0  0
 24 25  1  0  0  0  0
 26 27  1  0  0  0  0
 27 28  1  0  0  0  0
 28 29  1  0  0  0  0
  1 30  1  0  0  0  0
  1 31  1  0  0  0  0
  1 32  1  0  0  0  0
  4 33  1  0  0  0  0
  5 34  1  0  0  0  0
 11 35  1  0  0  0  0
 13 36  1  0  0  0  0
 14 37  1  0  0  0  0
 18 38  1  0  0  0  0
 18 39  1  0  0  0  0
 19 40  1  0  0  0  0
 23 41  1  0  0  0  0
 25 42  1  0  0  0  0
 26 43  1  0  0  0  0
 26 44  1  0  0  0  0
 29 45  1  0  0  0  0
 29 46  1  0  0  0  0
 29 47  1  0  0  0  0
M  END
> <IC50[nM]>
10.4

$$$$
CHEMBL3265021
  -OEChem-05192314333D
 Structure written by MMmdl.
 47 51  0     1  0  0  0  0  0999 V2000
   -4.2567   -3.1041   13.5694 C   0  0  0  0  0  0  0  0  0  0  0  0
   -3.8737   -2.3599   14.7156 O   0  0  0  0  0  0  0  0  0  0  0  0
   -2.5258   -2.1107   14.8171 C   0  0  3  0  0  0  0  0  0  0  0  0
   -1.7454   -2.8698   15.6820 C   0  0  0  0  0  0  0  0  0  0  0  0
   -0.3904   -2.6103   15.8138 C   0  0  0  0  0  0  0  0  0  0  0  0
    0.2204   -1.5845   15.0865 C   0  0  0  0  0  0  0  0  0  0  0  0
    1.6042   -1.3599   15.3206 N   0  0  0  0  0  0  0  0  0  0  0  0
    2.5373   -0.4464   14.7592 C   0  0  0  0  0  0  0  0  0  0  0  0
    2.1833    0.3714   13.7220 N   0  0  0  0  0  0  0  0  0  0  0  0
    3.1157    1.2390   13.2179 C   0  0  0  0  0  0  0  0  0  0  0  0
    4.4197    1.2848   13.7036 C   0  0  0  0  0  0  0  0  0  0  0  0
    4.7466    0.4890   14.7613 N   0  0  0  0  0  0  0  0  0  0  0  0
    5.8976    0.3767   15.4867 C   0  0  0  0  0  0  0  0  0  0  0  0
    5.5868   -0.5220   16.5302 C   0  0  0  0  0  0  0  0  0  0  0  0
    4.3755   -1.0422   16.3738 N   0  0  0  0  0  0  0  0  0  0  0  0
    3.8369   -0.3923   15.3263 C   0  0  0  0  0  0  0  0  0  0  0  0
    2.6420    2.1628   12.1182 C   0  0  0  0  0  0  0  0  0  0  0  0
    3.5476    2.6405   11.1603 C   0  0  0  0  0  0  0  0  0  0  0  0
    3.1538    3.4680   10.0985 C   0  0  0  0  0  0  0  0  0  0  0  0
    1.8053    3.8044   10.0318 C   0  0  0  0  0  0  0  0  0  0  0  0
    1.0883    4.5643    9.1320 N   0  0  0  0  0  0  0  0  0  0  0  0
   -0.2025    4.6328    9.4561 N   0  0  0  0  0  0  0  0  0  0  0  0
   -0.3779    3.9489   10.5598 C   0  0  0  0  0  0  0  0  0  0  0  0
    0.8670    3.3654   10.9941 C   0  0  0  0  0  0  0  0  0  0  0  0
    1.2880    2.5471   12.0527 C   0  0  0  0  0  0  0  0  0  0  0  0
   -0.5552   -0.8189   14.1923 C   0  0  0  0  0  0  0  0  0  0  0  0
   -1.9451   -1.0886   14.0616 C   0  0  0  0  0  0  0  0  0  0  0  0
   -2.7540   -0.3570   13.2047 O   0  0  0  0  0  0  0  0  0  0  0  0
   -2.2335    0.6444   12.3522 C   0  0  0  0  0  0  0  0  0  0  0  0
   -5.3466   -3.2526   13.5753 H   0  0  0  0  0  0  0  0  0  0  0  0
   -3.9666   -2.5545   12.6618 H   0  0  0  0  0  0  0  0  0  0  0  0
   -3.7535   -4.0822   13.5824 H   0  0  0  0  0  0  0  0  0  0  0  0
   -2.3289   -2.8268   14.0057 H   0  0  0  0  0  0  0  0  0  0  0  0
   -2.1977   -3.6662   16.2544 H   0  0  0  0  0  0  0  0  0  0  0  0
    0.2027   -3.2097   16.4886 H   0  0  0  0  0  0  0  0  0  0  0  0
    5.1548    1.9353   13.2532 H   0  0  0  0  0  0  0  0  0  0  0  0
    6.8412    0.8686   15.3023 H   0  0  0  0  0  0  0  0  0  0  0  0
    6.2493   -0.7562   17.3503 H   0  0  0  0  0  0  0  0  0  0  0  0
    4.5874    2.3608   11.2432 H   0  0  0  0  0  0  0  0  0  0  0  0
    3.8633    3.8269    9.3676 H   0  0  0  0  0  0  0  0  0  0  0  0
   -1.3221    3.8379   11.0722 H   0  0  0  0  0  0  0  0  0  0  0  0
    0.6922    1.6237   12.0039 H   0  0  0  0  0  0  0  0  0  0  0  0
    1.0587    3.0826   12.9858 H   0  0  0  0  0  0  0  0  0  0  0  0
   -0.0968   -0.0329   13.6105 H   0  0  0  0  0  0  0  0  0  0  0  0
   -3.0514    1.0896   11.7666 H   0  0  0  0  0  0  0  0  0  0  0  0
   -1.7486    1.4249   12.9569 H   0  0  0  0  0  0  0  0  0  0  0  0
   -1.4953    0.1976   11.6700 H   0  0  0  0  0  0  0  0  0  0  0  0
  1  2  1  0  0  0  0
  2  3  1  0  0  0  0
  3  4  1  0  0  0  0
  3 27  1  0  0  0  0
  4  5  2  0  0  0  0
  5  6  1  0  0  0  0
  6  7  2  0  0  0  0
  6 26  1  0  0  0  0
  7  8  1  0  0  0  0
  8  9  2  0  0  0  0
  8 16  1  0  0  0  0
  9 10  1  0  0  0  0
 10 11  2  0  0  0  0
 10 17  1  0  0  0  0
 11 12  1  0  0  0  0
 12 13  1  0  0  0  0
 12 16  1  0  0  0  0
 13 14  2  0  0  0  0
 14 15  1  0  0  0  0
 15 16  2  0  0  0  0
 17 18  2  0  0  0  0
 17 25  1  0  0  0  0
 18 19  1  0  0  0  0
 19 20  2  0  0  0  0
 20 21  1  0  0  0  0
 20 24  1  0  0  0  0
 21 22  2  0  0  0  0
 22 23  1  0  0  0  0
 23 24  2  0  0  0  0
 24 25  1  0  0  0  0
 26 27  2  0  0  0  0
 27 28  1  0  0  0  0
 28 29  1  0  0  0  0
  1 30  1  0  0  0  0
  1 31  1  0  0  0  0
  1 32  1  0  0  0  0
  3 33  1  0  0  0  0
  4 34  1  0  0  0  0
  5 35  1  0  0  0  0
 11 36  1  0  0  0  0
 13 37  1  0  0  0  0
 14 38  1  0  0  0  0
 18 39  1  0  0  0  0
 19 40  1  0  0  0  0
 23 41  1  0  0  0  0
 25 42  1  0  0  0  0
 25 43  1  0  0  0  0
 26 44  1  0  0  0  0
 29 45  1  0  0  0  0
 29 46  1  0  0  0  0
 29 47  1  0  0  0  0
M  END
> <IC50[nM]>
10.4

$$$$
CHEMBL3265021
  -OEChem-05192314333D
 Structure written by MMmdl.
 47 51  0     0  0  0  0  0  0999 V2000
   -4.2567   -3.1041   13.5694 C   0  0  0  0  0  0  0  0  0  0  0  0
   -3.8737   -2.3599   14.7156 O   0  0  0  0  0  0  0  0  0  0  0  0
   -2.5258   -2.1107   14.8171 C   0  0  0  0  0  0  0  0  0  0  0  0
   -1.7454   -2.8698   15.6820 C   0  0  0  0  0  0  0  0  0  0  0  0
   -0.3904   -2.6103   15.8138 C   0  0  0  0  0  0  0  0  0  0  0  0
    0.2204   -1.5845   15.0865 C   0  0  0  0  0  0  0  0  0  0  0  0
    1.6042   -1.3599   15.3206 N   0  0  0  0  0  0  0  0  0  0  0  0
    2.5373   -0.4464   14.7592 C   0  0  0  0  0  0  0  0  0  0  0  0
    2.1833    0.3714   13.7220 N   0  0  0  0  0  0  0  0  0  0  0  0
    3.1157    1.2390   13.2179 C   0  0  0  0  0  0  0  0  0  0  0  0
    4.4197    1.2848   13.7036 C   0  0  0  0  0  0  0  0  0  0  0  0
    4.7466    0.4890   14.7613 N   0  0  0  0  0  0  0  0  0  0  0  0
    5.8976    0.3767   15.4867 C   0  0  0  0  0  0  0  0  0  0  0  0
    5.5868   -0.5220   16.5302 C   0  0  0  0  0  0  0  0  0  0  0  0
    4.3755   -1.0422   16.3738 N   0  0  0  0  0  0  0  0  0  0  0  0
    3.8369   -0.3923   15.3263 C   0  0  0  0  0  0  0  0  0  0  0  0
    2.6420    2.1628   12.1182 C   0  0  0  0  0  0  0  0  0  0  0  0
    3.5476    2.6405   11.1603 C   0  0  0  0  0  0  0  0  0  0  0  0
    3.1538    3.4680   10.0985 C   0  0  0  0  0  0  0  0  0  0  0  0
    1.8053    3.8044   10.0318 C   0  0  0  0  0  0  0  0  0  0  0  0
    1.0883    4.5643    9.1320 N   0  0  0  0  0  0  0  0  0  0  0  0
   -0.2025    4.6328    9.4561 N   0  0  0  0  0  0  0  0  0  0  0  0
   -0.3779    3.9489   10.5598 C   0  0  0  0  0  0  0  0  0  0  0  0
    0.8670    3.3654   10.9941 C   0  0  0  0  0  0  0  0  0  0  0  0
    1.2880    2.5471   12.0527 C   0  0  0  0  0  0  0  0  0  0  0  0
   -0.5552   -0.8189   14.1923 C   0  0  0  0  0  0  0  0  0  0  0  0
   -1.9451   -1.0886   14.0616 C   0  0  0  0  0  0  0  0  0  0  0  0
   -2.7540   -0.3570   13.2047 O   0  0  0  0  0  0  0  0  0  0  0  0
   -2.2335    0.6444   12.3522 C   0  0  0  0  0  0  0  0  0  0  0  0
   -5.3466   -3.2526   13.5753 H   0  0  0  0  0  0  0  0  0  0  0  0
   -3.9666   -2.5545   12.6618 H   0  0  0  0  0  0  0  0  0  0  0  0
   -3.7535   -4.0822   13.5824 H   0  0  0  0  0  0  0  0  0  0  0  0
   -2.1977   -3.6662   16.2544 H   0  0  0  0  0  0  0  0  0  0  0  0
   -0.2169   -2.3862   16.8767 H   0  0  0  0  0  0  0  0  0  0  0  0
    0.1335   -3.5393   15.5446 H   0  0  0  0  0  0  0  0  0  0  0  0
    5.1548    1.9353   13.2532 H   0  0  0  0  0  0  0  0  0  0  0  0
    6.8412    0.8686   15.3023 H   0  0  0  0  0  0  0  0  0  0  0  0
    6.2493   -0.7562   17.3503 H   0  0  0  0  0  0  0  0  0  0  0  0
    4.5874    2.3608   11.2432 H   0  0  0  0  0  0  0  0  0  0  0  0
    3.8633    3.8269    9.3676 H   0  0  0  0  0  0  0  0  0  0  0  0
   -1.3221    3.8379   11.0722 H   0  0  0  0  0  0  0  0  0  0  0  0
    0.6922    1.6237   12.0039 H   0  0  0  0  0  0  0  0  0  0  0  0
    1.0587    3.0826   12.9858 H   0  0  0  0  0  0  0  0  0  0  0  0
   -0.0968   -0.0329   13.6105 H   0  0  0  0  0  0  0  0  0  0  0  0
   -3.0514    1.0896   11.7666 H   0  0  0  0  0  0  0  0  0  0  0  0
   -1.7486    1.4249   12.9569 H   0  0  0  0  0  0  0  0  0  0  0  0
   -1.4953    0.1976   11.6700 H   0  0  0  0  0  0  0  0  0  0  0  0
  1  2  1  0  0  0  0
  2  3  1  0  0  0  0
  3  4  2  0  0  0  0
  3 27  1  0  0  0  0
  4  5  1  0  0  0  0
  5  6  1  0  0  0  0
  6  7  2  0  0  0  0
  6 26  1  0  0  0  0
  7  8  1  0  0  0  0
  8  9  2  0  0  0  0
  8 16  1  0  0  0  0
  9 10  1  0  0  0  0
 10 11  2  0  0  0  0
 10 17  1  0  0  0  0
 11 12  1  0  0  0  0
 12 13  1  0  0  0  0
 12 16  1  0  0  0  0
 13 14  2  0  0  0  0
 14 15  1  0  0  0  0
 15 16  2  0  0  0  0
 17 18  2  0  0  0  0
 17 25  1  0  0  0  0
 18 19  1  0  0  0  0
 19 20  2  0  0  0  0
 20 21  1  0  0  0  0
 20 24  1  0  0  0  0
 21 22  2  0  0  0  0
 22 23  1  0  0  0  0
 23 24  2  0  0  0  0
 24 25  1  0  0  0  0
 26 27  2  0  0  0  0
 27 28  1  0  0  0  0
 28 29  1  0  0  0  0
  1 30  1  0  0  0  0
  1 31  1  0  0  0  0
  1 32  1  0  0  0  0
  4 33  1  0  0  0  0
  5 34  1  0  0  0  0
  5 35  1  0  0  0  0
 11 36  1  0  0  0  0
 13 37  1  0  0  0  0
 14 38  1  0  0  0  0
 18 39  1  0  0  0  0
 19 40  1  0  0  0  0
 23 41  1  0  0  0  0
 25 42  1  0  0  0  0
 25 43  1  0  0  0  0
 26 44  1  0  0  0  0
 29 45  1  0  0  0  0
 29 46  1  0  0  0  0
 29 47  1  0  0  0  0
M  END
> <IC50[nM]>
10.4

$$$$
CHEMBL3265021
  -OEChem-05192314333D
 Structure written by MMmdl.
 47 51  0     0  0  0  0  0  0999 V2000
   -4.2567   -3.1041   13.5694 C   0  0  0  0  0  0  0  0  0  0  0  0
   -3.8737   -2.3599   14.7156 O   0  0  0  0  0  0  0  0  0  0  0  0
   -2.5258   -2.1107   14.8171 C   0  0  0  0  0  0  0  0  0  0  0  0
   -1.7454   -2.8698   15.6820 C   0  0  0  0  0  0  0  0  0  0  0  0
   -0.3904   -2.6103   15.8138 C   0  0  0  0  0  0  0  0  0  0  0  0
    0.2204   -1.5845   15.0865 C   0  0  0  0  0  0  0  0  0  0  0  0
    1.6042   -1.3599   15.3206 N   0  0  0  0  0  0  0  0  0  0  0  0
    2.5373   -0.4464   14.7592 C   0  0  0  0  0  0  0  0  0  0  0  0
    2.1833    0.3714   13.7220 N   0  0  0  0  0  0  0  0  0  0  0  0
    3.1157    1.2390   13.2179 C   0  0  0  0  0  0  0  0  0  0  0  0
    4.4197    1.2848   13.7036 C   0  0  0  0  0  0  0  0  0  0  0  0
    4.7466    0.4890   14.7613 N   0  0  0  0  0  0  0  0  0  0  0  0
    5.8976    0.3767   15.4867 C   0  0  0  0  0  0  0  0  0  0  0  0
    5.5868   -0.5220   16.5302 C   0  0  0  0  0  0  0  0  0  0  0  0
    4.3755   -1.0422   16.3738 N   0  0  0  0  0  0  0  0  0  0  0  0
    3.8369   -0.3923   15.3263 C   0  0  0  0  0  0  0  0  0  0  0  0
    2.6420    2.1628   12.1182 C   0  0  0  0  0  0  0  0  0  0  0  0
    3.5476    2.6405   11.1603 C   0  0  0  0  0  0  0  0  0  0  0  0
    3.1538    3.4680   10.0985 C   0  0  0  0  0  0  0  0  0  0  0  0
    1.8053    3.8044   10.0318 C   0  0  0  0  0  0  0  0  0  0  0  0
    1.0883    4.5643    9.1320 N   0  0  0  0  0  0  0  0  0  0  0  0
   -0.2025    4.6328    9.4561 N   0  0  0  0  0  0  0  0  0  0  0  0
   -0.3779    3.9489   10.5598 C   0  0  0  0  0  0  0  0  0  0  0  0
    0.8670    3.3654   10.9941 C   0  0  0  0  0  0  0  0  0  0  0  0
    1.2880    2.5471   12.0527 C   0  0  0  0  0  0  0  0  0  0  0  0
   -0.5552   -0.8189   14.1923 C   0  0  0  0  0  0  0  0  0  0  0  0
   -1.9451   -1.0886   14.0616 C   0  0  0  0  0  0  0  0  0  0  0  0
   -2.7540   -0.3570   13.2047 O   0  0  0  0  0  0  0  0  0  0  0  0
   -2.2335    0.6444   12.3522 C   0  0  0  0  0  0  0  0  0  0  0  0
   -5.3466   -3.2526   13.5753 H   0  0  0  0  0  0  0  0  0  0  0  0
   -3.9666   -2.5545   12.6618 H   0  0  0  0  0  0  0  0  0  0  0  0
   -3.7535   -4.0822   13.5824 H   0  0  0  0  0  0  0  0  0  0  0  0
   -2.1977   -3.6662   16.2544 H   0  0  0  0  0  0  0  0  0  0  0  0
    0.2027   -3.2097   16.4886 H   0  0  0  0  0  0  0  0  0  0  0  0
    5.1548    1.9353   13.2532 H   0  0  0  0  0  0  0  0  0  0  0  0
    6.8412    0.8686   15.3023 H   0  0  0  0  0  0  0  0  0  0  0  0
    6.2493   -0.7562   17.3503 H   0  0  0  0  0  0  0  0  0  0  0  0
    4.5874    2.3608   11.2432 H   0  0  0  0  0  0  0  0  0  0  0  0
    3.8633    3.8269    9.3676 H   0  0  0  0  0  0  0  0  0  0  0  0
   -1.3221    3.8379   11.0722 H   0  0  0  0  0  0  0  0  0  0  0  0
    0.6922    1.6237   12.0039 H   0  0  0  0  0  0  0  0  0  0  0  0
    1.0587    3.0826   12.9858 H   0  0  0  0  0  0  0  0  0  0  0  0
   -0.4614    0.2312   14.5060 H   0  0  0  0  0  0  0  0  0  0  0  0
   -0.1099   -0.9446   13.1944 H   0  0  0  0  0  0  0  0  0  0  0  0
   -3.0514    1.0896   11.7666 H   0  0  0  0  0  0  0  0  0  0  0  0
   -1.7486    1.4249   12.9569 H   0  0  0  0  0  0  0  0  0  0  0  0
   -1.4953    0.1976   11.6700 H   0  0  0  0  0  0  0  0  0  0  0  0
  1  2  1  0  0  0  0
  2  3  1  0  0  0  0
  3  4  1  0  0  0  0
  3 27  2  0  0  0  0
  4  5  2  0  0  0  0
  5  6  1  0  0  0  0
  6  7  2  0  0  0  0
  6 26  1  0  0  0  0
  7  8  1  0  0  0  0
  8  9  2  0  0  0  0
  8 16  1  0  0  0  0
  9 10  1  0  0  0  0
 10 11  2  0  0  0  0
 10 17  1  0  0  0  0
 11 12  1  0  0  0  0
 12 13  1  0  0  0  0
 12 16  1  0  0  0  0
 13 14  2  0  0  0  0
 14 15  1  0  0  0  0
 15 16  2  0  0  0  0
 17 18  2  0  0  0  0
 17 25  1  0  0  0  0
 18 19  1  0  0  0  0
 19 20  2  0  0  0  0
 20 21  1  0  0  0  0
 20 24  1  0  0  0  0
 21 22  2  0  0  0  0
 22 23  1  0  0  0  0
 23 24  2  0  0  0  0
 24 25  1  0  0  0  0
 26 27  1  0  0  0  0
 27 28  1  0  0  0  0
 28 29  1  0  0  0  0
  1 30  1  0  0  0  0
  1 31  1  0  0  0  0
  1 32  1  0  0  0  0
  4 33  1  0  0  0  0
  5 34  1  0  0  0  0
 11 35  1  0  0  0  0
 13 36  1  0  0  0  0
 14 37  1  0  0  0  0
 18 38  1  0  0  0  0
 19 39  1  0  0  0  0
 23 40  1  0  0  0  0
 25 41  1  0  0  0  0
 25 42  1  0  0  0  0
 26 43  1  0  0  0  0
 26 44  1  0  0  0  0
 29 45  1  0  0  0  0
 29 46  1  0  0  0  0
 29 47  1  0  0  0  0
M  END
> <IC50[nM]>
10.4

$$$$
