252
  -OEChem-05192314313D
 Structure written by MMmdl.
 37 39  0     1  0  0  0  0  0999 V2000
   27.6272    1.5392  -11.1203 O   0  0  0  0  0  0  0  0  0  0  0  0
   27.1560    0.3040  -11.6456 C   0  0  2  0  0  0  0  0  0  0  0  0
   26.5217    0.3806  -13.0460 C   0  0  0  0  0  0  0  0  0  0  0  0
   25.0330    0.5955  -12.8364 C   0  0  0  0  0  0  0  0  0  0  0  0
   24.8086   -0.0746  -11.4954 C   0  0  0  0  0  0  0  0  0  0  0  0
   26.0176   -0.2341  -10.8015 C   0  0  0  0  0  0  0  0  0  0  0  0
   26.0221   -0.7646   -9.5003 C   0  0  0  0  0  0  0  0  0  0  0  0
   24.8023   -1.0839   -8.8976 C   0  0  0  0  0  0  0  0  0  0  0  0
   23.6037   -0.9285   -9.5871 C   0  0  0  0  0  0  0  0  0  0  0  0
   23.6033   -0.4271  -10.8952 C   0  0  0  0  0  0  0  0  0  0  0  0
   22.4845   -0.2768  -11.6823 O   0  0  0  0  0  0  0  0  0  0  0  0
   21.2452   -0.5718  -11.1881 C   0  0  0  0  0  0  0  0  0  0  0  0
   20.6754   -1.8264  -11.4017 C   0  0  0  0  0  0  0  0  0  0  0  0
   19.4205   -2.1096  -10.8738 C   0  0  0  0  0  0  0  0  0  0  0  0
   18.8538   -3.3152  -11.0677 F   0  0  0  0  0  0  0  0  0  0  0  0
   18.7369   -1.1453  -10.1422 C   0  0  0  0  0  0  0  0  0  0  0  0
   19.2852    0.1248   -9.9603 C   0  0  0  0  0  0  0  0  0  0  0  0
   18.5778    1.1653   -9.2362 C   0  0  0  0  0  0  0  0  0  0  0  0
   20.5515    0.3943  -10.4623 C   0  0  0  0  0  0  0  0  0  0  0  0
   27.5325   -1.0603   -8.5700 S   0  0  0  0  0  0  0  0  0  0  0  0
   27.2148   -1.9861   -7.4807 O   0  0  0  0  0  0  0  0  0  0  0  0
   28.6045   -1.3793   -9.5081 O   0  0  0  0  0  0  0  0  0  0  0  0
   27.9346    0.4720   -7.8610 N   0  0  0  0  0  0  0  0  0  0  0  0
   27.0654    1.3180  -13.8219 F   0  0  0  0  0  0  0  0  0  0  0  0
   26.6664   -0.7984  -13.6558 F   0  0  0  0  0  0  0  0  0  0  0  0
   18.0227    1.9941   -8.6522 N   0  0  0  0  0  0  0  0  0  0  0  0
   27.9998    1.3957  -10.2583 H   0  0  0  0  0  0  0  0  0  0  0  0
   27.9685   -0.4372  -11.6661 H   0  0  0  0  0  0  0  0  0  0  0  0
   24.7848    1.6663  -12.7955 H   0  0  0  0  0  0  0  0  0  0  0  0
   24.4431    0.1124  -13.6292 H   0  0  0  0  0  0  0  0  0  0  0  0
   24.7898   -1.4560   -7.8838 H   0  0  0  0  0  0  0  0  0  0  0  0
   22.6710   -1.1952   -9.1124 H   0  0  0  0  0  0  0  0  0  0  0  0
   21.2055   -2.5736  -11.9736 H   0  0  0  0  0  0  0  0  0  0  0  0
   17.7748   -1.3808   -9.7117 H   0  0  0  0  0  0  0  0  0  0  0  0
   21.0022    1.3603  -10.2888 H   0  0  0  0  0  0  0  0  0  0  0  0
   28.7730    0.3814   -7.3235 H   0  0  0  0  0  0  0  0  0  0  0  0
   28.0742    1.1477   -8.5848 H   0  0  0  0  0  0  0  0  0  0  0  0
  1  2  1  0  0  0  0
  2  3  1  0  0  0  0
  2  6  1  0  0  0  0
  3  4  1  0  0  0  0
  3 24  1  0  0  0  0
  3 25  1  0  0  0  0
  4  5  1  0  0  0  0
  5  6  2  0  0  0  0
  5 10  1  0  0  0  0
  6  7  1  0  0  0  0
  7  8  2  0  0  0  0
  7 20  1  0  0  0  0
  8  9  1  0  0  0  0
  9 10  2  0  0  0  0
 10 11  1  0  0  0  0
 11 12  1  0  0  0  0
 12 13  2  0  0  0  0
 12 19  1  0  0  0  0
 13 14  1  0  0  0  0
 14 15  1  0  0  0  0
 14 16  2  0  0  0  0
 16 17  1  0  0  0  0
 17 18  1  0  0  0  0
 17 19  2  0  0  0  0
 18 26  3  0  0  0  0
 20 21  2  0  0  0  0
 20 22  2  0  0  0  0
 20 23  1  0  0  0  0
  1 27  1  0  0  0  0
  2 28  1  0  0  0  0
  4 29  1  0  0  0  0
  4 30  1  0  0  0  0
  8 31  1  0  0  0  0
  9 32  1  0  0  0  0
 13 33  1  0  0  0  0
 16 34  1  0  0  0  0
 19 35  1  0  0  0  0
 23 36  1  0  0  0  0
 23 37  1  0  0  0  0
M  END
> <ID>
252

> <IC50[uM](SPA)>
0.076

$$$$
