57
  -OEChem-05192314313D
 Structure written by MMmdl.
 38 40  0     1  0  0  0  0  0999 V2000
   27.5460    1.5662  -11.2420 O   0  0  0  0  0  0  0  0  0  0  0  0
   27.1417    0.2930  -11.6885 C   0  0  2  0  0  0  0  0  0  0  0  0
   26.5175    0.3923  -13.0762 C   0  0  0  0  0  0  0  0  0  0  0  0
   25.0389    0.6092  -12.8376 C   0  0  0  0  0  0  0  0  0  0  0  0
   24.8019   -0.0696  -11.4987 C   0  0  0  0  0  0  0  0  0  0  0  0
   26.0104   -0.2420  -10.8202 C   0  0  0  0  0  0  0  0  0  0  0  0
   26.0127   -0.7818   -9.5245 C   0  0  0  0  0  0  0  0  0  0  0  0
   24.7956   -1.0891   -8.9065 C   0  0  0  0  0  0  0  0  0  0  0  0
   23.6024   -0.9292   -9.5909 C   0  0  0  0  0  0  0  0  0  0  0  0
   23.5998   -0.4338  -10.9040 C   0  0  0  0  0  0  0  0  0  0  0  0
   22.4840   -0.2835  -11.6909 O   0  0  0  0  0  0  0  0  0  0  0  0
   21.2455   -0.5724  -11.1935 C   0  0  0  0  0  0  0  0  0  0  0  0
   20.6764   -1.8302  -11.4013 C   0  0  0  0  0  0  0  0  0  0  0  0
   19.4221   -2.1085  -10.8691 C   0  0  0  0  0  0  0  0  0  0  0  0
   18.8546   -3.3219  -11.0584 F   0  0  0  0  0  0  0  0  0  0  0  0
   18.7416   -1.1432  -10.1420 C   0  0  0  0  0  0  0  0  0  0  0  0
   19.2911    0.1307   -9.9727 C   0  0  0  0  0  0  0  0  0  0  0  0
   18.5770    1.1677   -9.2377 C   0  0  0  0  0  0  0  0  0  0  0  0
   20.5543    0.3924  -10.4659 C   0  0  0  0  0  0  0  0  0  0  0  0
   27.5112   -1.0831   -8.6116 S   0  0  0  0  0  0  0  0  0  0  0  0
   27.2088   -2.0204   -7.5319 O   0  0  0  0  0  0  0  0  0  0  0  0
   28.5710   -1.4325   -9.5653 O   0  0  0  0  0  0  0  0  0  0  0  0
   27.9471    0.5775   -7.8607 C   0  0  0  0  0  0  0  0  0  0  0  0
   28.0885    1.5196   -8.8246 F   0  0  0  0  0  0  0  0  0  0  0  0
   27.0049    0.9273   -6.9820 F   0  0  0  0  0  0  0  0  0  0  0  0
   18.0078    1.9897   -8.6610 N   0  0  0  0  0  0  0  0  0  0  0  0
   29.1051    0.3677   -7.2549 F   0  0  0  0  0  0  0  0  0  0  0  0
   27.9328    1.4910  -10.3776 H   0  0  0  0  0  0  0  0  0  0  0  0
   27.9786   -0.4207  -11.7010 H   0  0  0  0  0  0  0  0  0  0  0  0
   26.9461    1.2398  -13.6312 H   0  0  0  0  0  0  0  0  0  0  0  0
   26.6839   -0.5372  -13.6404 H   0  0  0  0  0  0  0  0  0  0  0  0
   24.8008    1.6818  -12.7840 H   0  0  0  0  0  0  0  0  0  0  0  0
   24.4380    0.1394  -13.6302 H   0  0  0  0  0  0  0  0  0  0  0  0
   24.7867   -1.4531   -7.8897 H   0  0  0  0  0  0  0  0  0  0  0  0
   22.6694   -1.1870   -9.1119 H   0  0  0  0  0  0  0  0  0  0  0  0
   21.2055   -2.5804  -11.9703 H   0  0  0  0  0  0  0  0  0  0  0  0
   17.7823   -1.3771   -9.7044 H   0  0  0  0  0  0  0  0  0  0  0  0
   21.0102    1.3547  -10.2854 H   0  0  0  0  0  0  0  0  0  0  0  0
  1  2  1  0  0  0  0
  2  3  1  0  0  0  0
  2  6  1  0  0  0  0
  3  4  1  0  0  0  0
  4  5  1  0  0  0  0
  5  6  2  0  0  0  0
  5 10  1  0  0  0  0
  6  7  1  0  0  0  0
  7  8  2  0  0  0  0
  7 20  1  0  0  0  0
  8  9  1  0  0  0  0
  9 10  2  0  0  0  0
 10 11  1  0  0  0  0
 11 12  1  0  0  0  0
 12 13  2  0  0  0  0
 12 19  1  0  0  0  0
 13 14  1  0  0  0  0
 14 15  1  0  0  0  0
 14 16  2  0  0  0  0
 16 17  1  0  0  0  0
 17 18  1  0  0  0  0
 17 19  2  0  0  0  0
 18 26  3  0  0  0  0
 20 21  2  0  0  0  0
 20 22  2  0  0  0  0
 20 23  1  0  0  0  0
 23 24  1  0  0  0  0
 23 25  1  0  0  0  0
 23 27  1  0  0  0  0
  1 28  1  0  0  0  0
  2 29  1  0  0  0  0
  3 30  1  0  0  0  0
  3 31  1  0  0  0  0
  4 32  1  0  0  0  0
  4 33  1  0  0  0  0
  8 34  1  0  0  0  0
  9 35  1  0  0  0  0
 13 36  1  0  0  0  0
 16 37  1  0  0  0  0
 19 38  1  0  0  0  0
M  END
> <ID>
57

> <IC50[uM](SPA)>
0.015

$$$$
