61
  -OEChem-05192314313D
 Structure written by MMmdl.
 37 39  0     1  0  0  0  0  0999 V2000
   27.6141    1.5314  -11.1645 O   0  0  0  0  0  0  0  0  0  0  0  0
   27.1537    0.2857  -11.6482 C   0  0  2  0  0  0  0  0  0  0  0  0
   26.5383    0.4235  -13.0455 C   0  0  0  0  0  0  0  0  0  0  0  0
   25.0405    0.6014  -12.8272 C   0  0  0  0  0  0  0  0  0  0  0  0
   24.8079   -0.0680  -11.4919 C   0  0  0  0  0  0  0  0  0  0  0  0
   26.0128   -0.2402  -10.8022 C   0  0  0  0  0  0  0  0  0  0  0  0
   26.0160   -0.7777   -9.5061 C   0  0  0  0  0  0  0  0  0  0  0  0
   24.7980   -1.0852   -8.8991 C   0  0  0  0  0  0  0  0  0  0  0  0
   23.6016   -0.9305   -9.5931 C   0  0  0  0  0  0  0  0  0  0  0  0
   23.6009   -0.4247  -10.8990 C   0  0  0  0  0  0  0  0  0  0  0  0
   22.4839   -0.2869  -11.6927 O   0  0  0  0  0  0  0  0  0  0  0  0
   21.2424   -0.5716  -11.1962 C   0  0  0  0  0  0  0  0  0  0  0  0
   20.6732   -1.8275  -11.4044 C   0  0  0  0  0  0  0  0  0  0  0  0
   19.4230   -2.1091  -10.8655 C   0  0  0  0  0  0  0  0  0  0  0  0
   18.8559   -3.3155  -11.0537 F   0  0  0  0  0  0  0  0  0  0  0  0
   18.7437   -1.1402  -10.1389 C   0  0  0  0  0  0  0  0  0  0  0  0
   19.2905    0.1241   -9.9552 C   0  0  0  0  0  0  0  0  0  0  0  0
   18.4313    1.3474   -9.0928 Cl  0  0  0  0  0  0  0  0  0  0  0  0
   20.5489    0.3957  -10.4700 C   0  0  0  0  0  0  0  0  0  0  0  0
   27.5325   -1.0709   -8.5888 S   0  0  0  0  0  0  0  0  0  0  0  0
   27.2354   -2.0179   -7.5103 O   0  0  0  0  0  0  0  0  0  0  0  0
   28.5854   -1.4059   -9.5449 O   0  0  0  0  0  0  0  0  0  0  0  0
   27.9315    0.6133   -7.8461 C   0  0  0  0  0  0  0  0  0  0  0  0
   27.0964    0.8246   -6.8331 F   0  0  0  0  0  0  0  0  0  0  0  0
   27.9895    1.4166  -10.2994 H   0  0  0  0  0  0  0  0  0  0  0  0
   27.9665   -0.4549  -11.6769 H   0  0  0  0  0  0  0  0  0  0  0  0
   26.9562    1.2997  -13.5628 H   0  0  0  0  0  0  0  0  0  0  0  0
   26.7334   -0.4810  -13.6403 H   0  0  0  0  0  0  0  0  0  0  0  0
   24.7709    1.6671  -12.7872 H   0  0  0  0  0  0  0  0  0  0  0  0
   24.4638    0.1069  -13.6228 H   0  0  0  0  0  0  0  0  0  0  0  0
   24.7834   -1.4466   -7.8815 H   0  0  0  0  0  0  0  0  0  0  0  0
   22.6685   -1.2020   -9.1219 H   0  0  0  0  0  0  0  0  0  0  0  0
   21.1992   -2.5752  -11.9795 H   0  0  0  0  0  0  0  0  0  0  0  0
   17.7793   -1.3719   -9.7116 H   0  0  0  0  0  0  0  0  0  0  0  0
   20.9959    1.3652  -10.3070 H   0  0  0  0  0  0  0  0  0  0  0  0
   28.9696    0.6243   -7.4825 H   0  0  0  0  0  0  0  0  0  0  0  0
   27.8011    1.3970   -8.6069 H   0  0  0  0  0  0  0  0  0  0  0  0
  1  2  1  0  0  0  0
  2  3  1  0  0  0  0
  2  6  1  0  0  0  0
  3  4  1  0  0  0  0
  4  5  1  0  0  0  0
  5  6  2  0  0  0  0
  5 10  1  0  0  0  0
  6  7  1  0  0  0  0
  7  8  2  0  0  0  0
  7 20  1  0  0  0  0
  8  9  1  0  0  0  0
  9 10  2  0  0  0  0
 10 11  1  0  0  0  0
 11 12  1  0  0  0  0
 12 13  2  0  0  0  0
 12 19  1  0  0  0  0
 13 14  1  0  0  0  0
 14 15  1  0  0  0  0
 14 16  2  0  0  0  0
 16 17  1  0  0  0  0
 17 18  1  0  0  0  0
 17 19  2  0  0  0  0
 20 21  2  0  0  0  0
 20 22  2  0  0  0  0
 20 23  1  0  0  0  0
 23 24  1  0  0  0  0
  1 25  1  0  0  0  0
  2 26  1  0  0  0  0
  3 27  1  0  0  0  0
  3 28  1  0  0  0  0
  4 29  1  0  0  0  0
  4 30  1  0  0  0  0
  8 31  1  0  0  0  0
  9 32  1  0  0  0  0
 13 33  1  0  0  0  0
 16 34  1  0  0  0  0
 19 35  1  0  0  0  0
 23 36  1  0  0  0  0
 23 37  1  0  0  0  0
M  END
> <ID>
61

> <IC50[uM](SPA)>
0.039

$$$$
