54
  -OEChem-05192314313D
 Structure written by MMmdl.
 36 37  0     0  0  0  0  0  0999 V2000
   27.3739    0.2021  -11.5257 C   0  0  0  0  0  0  0  0  0  0  0  0
   24.8166   -0.0727  -11.5403 C   0  0  0  0  0  0  0  0  0  0  0  0
   26.0692   -0.2356  -10.8548 C   0  0  0  0  0  0  0  0  0  0  0  0
   26.0425   -0.7765   -9.5491 C   0  0  0  0  0  0  0  0  0  0  0  0
   24.8317   -1.0884   -8.9403 C   0  0  0  0  0  0  0  0  0  0  0  0
   23.6267   -0.9347   -9.6164 C   0  0  0  0  0  0  0  0  0  0  0  0
   23.6229   -0.4433  -10.9232 C   0  0  0  0  0  0  0  0  0  0  0  0
   22.4601   -0.2995  -11.6659 O   0  0  0  0  0  0  0  0  0  0  0  0
   21.2313   -0.5849  -11.1558 C   0  0  0  0  0  0  0  0  0  0  0  0
   20.6536   -1.8315  -11.3749 C   0  0  0  0  0  0  0  0  0  0  0  0
   19.3870   -2.1109  -10.8587 C   0  0  0  0  0  0  0  0  0  0  0  0
   18.7018   -1.1325  -10.1312 C   0  0  0  0  0  0  0  0  0  0  0  0
   19.2617    0.1200   -9.9382 C   0  0  0  0  0  0  0  0  0  0  0  0
   18.4013    1.3488   -9.0779 Cl  0  0  0  0  0  0  0  0  0  0  0  0
   20.5319    0.3986  -10.4453 C   0  0  0  0  0  0  0  0  0  0  0  0
   27.5413   -1.0868   -8.5786 S   0  0  0  0  0  0  0  0  0  0  0  0
   27.1521   -2.0097   -7.4995 O   0  0  0  0  0  0  0  0  0  0  0  0
   27.9317    0.5862   -7.8045 C   0  0  0  0  0  0  0  0  0  0  0  0
   24.7489    0.5863  -12.9072 C   0  0  0  0  0  0  0  0  0  0  0  0
   18.8205   -3.3078  -11.0704 F   0  0  0  0  0  0  0  0  0  0  0  0
   28.6431   -1.4626   -9.4346 O   0  0  0  0  0  0  0  0  0  0  0  0
   27.8838    1.4066  -10.9877 O   0  0  0  0  0  0  0  0  0  0  0  0
   25.0512    1.8655  -12.6953 F   0  0  0  0  0  0  0  0  0  0  0  0
   25.5439    0.0623  -13.8379 F   0  0  0  0  0  0  0  0  0  0  0  0
   28.1240   -0.5906  -11.3884 H   0  0  0  0  0  0  0  0  0  0  0  0
   27.1864    0.3474  -12.5998 H   0  0  0  0  0  0  0  0  0  0  0  0
   24.8274   -1.4563   -7.9249 H   0  0  0  0  0  0  0  0  0  0  0  0
   22.6968   -1.1945   -9.1324 H   0  0  0  0  0  0  0  0  0  0  0  0
   21.1839   -2.5814  -11.9431 H   0  0  0  0  0  0  0  0  0  0  0  0
   17.7295   -1.3549   -9.7170 H   0  0  0  0  0  0  0  0  0  0  0  0
   20.9748    1.3713  -10.2900 H   0  0  0  0  0  0  0  0  0  0  0  0
   28.8380    0.5024   -7.1868 H   0  0  0  0  0  0  0  0  0  0  0  0
   28.0972    1.3282   -8.5995 H   0  0  0  0  0  0  0  0  0  0  0  0
   27.0875    0.9049   -7.1754 H   0  0  0  0  0  0  0  0  0  0  0  0
   23.7038    0.5131  -13.2423 H   0  0  0  0  0  0  0  0  0  0  0  0
   28.6904    1.6367  -11.4338 H   0  0  0  0  0  0  0  0  0  0  0  0
  1  3  1  0  0  0  0
  1 22  1  0  0  0  0
  2  3  2  0  0  0  0
  2  7  1  0  0  0  0
  2 19  1  0  0  0  0
  3  4  1  0  0  0  0
  4  5  2  0  0  0  0
  4 16  1  0  0  0  0
  5  6  1  0  0  0  0
  6  7  2  0  0  0  0
  7  8  1  0  0  0  0
  8  9  1  0  0  0  0
  9 10  2  0  0  0  0
  9 15  1  0  0  0  0
 10 11  1  0  0  0  0
 11 12  2  0  0  0  0
 11 20  1  0  0  0  0
 12 13  1  0  0  0  0
 13 14  1  0  0  0  0
 13 15  2  0  0  0  0
 16 17  2  0  0  0  0
 16 18  1  0  0  0  0
 16 21  2  0  0  0  0
 19 23  1  0  0  0  0
 19 24  1  0  0  0  0
  1 25  1  0  0  0  0
  1 26  1  0  0  0  0
  5 27  1  0  0  0  0
  6 28  1  0  0  0  0
 10 29  1  0  0  0  0
 12 30  1  0  0  0  0
 15 31  1  0  0  0  0
 18 32  1  0  0  0  0
 18 33  1  0  0  0  0
 18 34  1  0  0  0  0
 19 35  1  0  0  0  0
 22 36  1  0  0  0  0
M  END
> <ID>
54

> <IC50[uM](SPA)>
0.15

$$$$
