206
  -OEChem-05192314313D
 Structure written by MMmdl.
 41 43  0     1  0  0  0  0  0999 V2000
   27.8905    0.7814  -11.2833 O   0  0  0  0  0  0  0  0  0  0  0  0
   26.9193   -0.0282  -11.8984 C   0  0  2  0  0  0  0  0  0  0  0  0
   26.2553    0.6485  -13.1070 C   0  0  0  0  0  0  0  0  0  0  0  0
   24.7743    0.3619  -13.0634 C   0  0  0  0  0  0  0  0  0  0  0  0
   24.5513   -0.0833  -11.6435 C   0  0  0  0  0  0  0  0  0  0  0  0
   25.7571   -0.3137  -10.9611 C   0  0  0  0  0  0  0  0  0  0  0  0
   25.7304   -0.7838   -9.6350 C   0  0  0  0  0  0  0  0  0  0  0  0
   24.4955   -0.9388   -8.9991 C   0  0  0  0  0  0  0  0  0  0  0  0
   23.3088   -0.7555   -9.6942 C   0  0  0  0  0  0  0  0  0  0  0  0
   23.3376   -0.3678  -11.0366 C   0  0  0  0  0  0  0  0  0  0  0  0
   22.2312   -0.2289  -11.8473 O   0  0  0  0  0  0  0  0  0  0  0  0
   21.0019   -0.5424  -11.3497 C   0  0  0  0  0  0  0  0  0  0  0  0
   20.5026   -1.8363  -11.4599 C   0  0  0  0  0  0  0  0  0  0  0  0
   19.3111   -2.1637  -10.8207 C   0  0  0  0  0  0  0  0  0  0  0  0
   18.8034   -3.4051  -10.9256 F   0  0  0  0  0  0  0  0  0  0  0  0
   18.6360   -1.2092  -10.0655 C   0  0  0  0  0  0  0  0  0  0  0  0
   19.1032    0.1048  -10.0073 C   0  0  0  0  0  0  0  0  0  0  0  0
   18.4198    1.1400   -9.2611 C   0  0  0  0  0  0  0  0  0  0  0  0
   20.2891    0.4299  -10.6551 C   0  0  0  0  0  0  0  0  0  0  0  0
   27.1782   -1.3347   -8.7177 S   0  0  0  0  0  0  0  0  0  0  0  0
   26.7390   -2.4320   -7.8613 O   0  0  0  0  0  0  0  0  0  0  0  0
   28.2843   -1.5524   -9.6512 O   0  0  0  0  0  0  0  0  0  0  0  0
   27.6153    0.0506   -7.5323 C   0  0  0  0  0  0  0  0  0  0  0  0
   26.3933    1.9664  -13.0190 F   0  0  0  0  0  0  0  0  0  0  0  0
   26.7651    0.2478  -14.2653 F   0  0  0  0  0  0  0  0  0  0  0  0
   17.8859    1.9702   -8.6637 N   0  0  0  0  0  0  0  0  0  0  0  0
   28.2838    1.1998   -8.2640 C   0  0  0  0  0  0  0  0  0  0  0  0
   28.3107    0.2960  -10.5831 H   0  0  0  0  0  0  0  0  0  0  0  0
   27.3598   -0.9821  -12.2239 H   0  0  0  0  0  0  0  0  0  0  0  0
   24.1908    1.2666  -13.2893 H   0  0  0  0  0  0  0  0  0  0  0  0
   24.5057   -0.4344  -13.7731 H   0  0  0  0  0  0  0  0  0  0  0  0
   24.4646   -1.2048   -7.9528 H   0  0  0  0  0  0  0  0  0  0  0  0
   22.3626   -0.9125   -9.1978 H   0  0  0  0  0  0  0  0  0  0  0  0
   21.0346   -2.5790  -12.0358 H   0  0  0  0  0  0  0  0  0  0  0  0
   17.7454   -1.4869   -9.5213 H   0  0  0  0  0  0  0  0  0  0  0  0
   20.6597    1.4437  -10.6191 H   0  0  0  0  0  0  0  0  0  0  0  0
   26.6961    0.4162   -7.0512 H   0  0  0  0  0  0  0  0  0  0  0  0
   28.3021   -0.3356   -6.7648 H   0  0  0  0  0  0  0  0  0  0  0  0
   28.5296    1.9977   -7.5478 H   0  0  0  0  0  0  0  0  0  0  0  0
   29.2062    0.8414   -8.7443 H   0  0  0  0  0  0  0  0  0  0  0  0
   27.6002    1.5933   -9.0307 H   0  0  0  0  0  0  0  0  0  0  0  0
  1  2  1  0  0  0  0
  2  3  1  0  0  0  0
  2  6  1  0  0  0  0
  3  4  1  0  0  0  0
  3 24  1  0  0  0  0
  3 25  1  0  0  0  0
  4  5  1  0  0  0  0
  5  6  2  0  0  0  0
  5 10  1  0  0  0  0
  6  7  1  0  0  0  0
  7  8  2  0  0  0  0
  7 20  1  0  0  0  0
  8  9  1  0  0  0  0
  9 10  2  0  0  0  0
 10 11  1  0  0  0  0
 11 12  1  0  0  0  0
 12 13  2  0  0  0  0
 12 19  1  0  0  0  0
 13 14  1  0  0  0  0
 14 15  1  0  0  0  0
 14 16  2  0  0  0  0
 16 17  1  0  0  0  0
 17 18  1  0  0  0  0
 17 19  2  0  0  0  0
 18 26  3  0  0  0  0
 20 21  2  0  0  0  0
 20 22  2  0  0  0  0
 20 23  1  0  0  0  0
 23 27  1  0  0  0  0
  1 28  1  0  0  0  0
  2 29  1  0  0  0  0
  4 30  1  0  0  0  0
  4 31  1  0  0  0  0
  8 32  1  0  0  0  0
  9 33  1  0  0  0  0
 13 34  1  0  0  0  0
 16 35  1  0  0  0  0
 19 36  1  0  0  0  0
 23 37  1  0  0  0  0
 23 38  1  0  0  0  0
 27 39  1  0  0  0  0
 27 40  1  0  0  0  0
 27 41  1  0  0  0  0
M  END
> <ID>
206

> <IC50[uM](SPA)>
0.038

$$$$
