7a
  -OEChem-05192314313D
 Structure written by MMmdl.
 40 42  0     1  0  0  0  0  0999 V2000
   27.8986    1.1686  -10.8159 O   0  0  0  0  0  0  0  0  0  0  0  0
   27.3063    0.0821  -11.4967 C   0  0  2  0  0  0  0  0  0  0  0  0
   26.7543    0.5309  -12.8435 C   0  0  0  0  0  0  0  0  0  0  0  0
   25.2972    0.0902  -12.9073 C   0  0  1  0  0  0  0  0  0  0  0  0
   24.9356   -0.2719  -11.4777 C   0  0  0  0  0  0  0  0  0  0  0  0
   26.1058   -0.4336  -10.7289 C   0  0  0  0  0  0  0  0  0  0  0  0
   26.0415   -0.9623   -9.4361 C   0  0  0  0  0  0  0  0  0  0  0  0
   24.8001   -1.2235   -8.8639 C   0  0  0  0  0  0  0  0  0  0  0  0
   23.6290   -0.9777   -9.5693 C   0  0  0  0  0  0  0  0  0  0  0  0
   23.6838   -0.5129  -10.8898 C   0  0  0  0  0  0  0  0  0  0  0  0
   22.5621   -0.2401  -11.6444 O   0  0  0  0  0  0  0  0  0  0  0  0
   21.3109   -0.5861  -11.1952 C   0  0  0  0  0  0  0  0  0  0  0  0
   20.8154   -1.8606  -11.4562 C   0  0  0  0  0  0  0  0  0  0  0  0
   19.5537   -2.2243  -11.0029 C   0  0  0  0  0  0  0  0  0  0  0  0
   19.0721   -3.4508  -11.2863 F   0  0  0  0  0  0  0  0  0  0  0  0
   18.7894   -1.3253  -10.2644 C   0  0  0  0  0  0  0  0  0  0  0  0
   19.2720   -0.0424  -10.0060 C   0  0  0  0  0  0  0  0  0  0  0  0
   18.3130    1.0837   -9.1138 Cl  0  0  0  0  0  0  0  0  0  0  0  0
   20.5312    0.3270  -10.4759 C   0  0  0  0  0  0  0  0  0  0  0  0
   27.5140   -1.2559   -8.4651 S   0  0  0  0  0  0  0  0  0  0  0  0
   27.1933   -2.2794   -7.4639 O   0  0  0  0  0  0  0  0  0  0  0  0
   28.6255   -1.4828   -9.3950 O   0  0  0  0  0  0  0  0  0  0  0  0
   27.7388    0.4232   -7.6234 C   0  0  0  0  0  0  0  0  0  0  0  0
   27.7231    1.3759   -8.5583 F   0  0  0  0  0  0  0  0  0  0  0  0
   26.7479    0.5754   -6.7503 F   0  0  0  0  0  0  0  0  0  0  0  0
   24.4377    1.1669  -13.5390 C   0  0  0  0  0  0  0  0  0  0  0  0
   28.2372    0.8720   -9.9793 H   0  0  0  0  0  0  0  0  0  0  0  0
   28.0283   -0.7340  -11.6475 H   0  0  0  0  0  0  0  0  0  0  0  0
   26.8204    1.6254  -12.9313 H   0  0  0  0  0  0  0  0  0  0  0  0
   27.3250    0.0625  -13.6589 H   0  0  0  0  0  0  0  0  0  0  0  0
   25.2336   -0.8174  -13.5255 H   0  0  0  0  0  0  0  0  0  0  0  0
   24.7467   -1.6213   -7.8613 H   0  0  0  0  0  0  0  0  0  0  0  0
   22.6720   -1.1456   -9.0977 H   0  0  0  0  0  0  0  0  0  0  0  0
   21.4130   -2.5679  -12.0121 H   0  0  0  0  0  0  0  0  0  0  0  0
   17.8205   -1.6218   -9.8906 H   0  0  0  0  0  0  0  0  0  0  0  0
   20.9066    1.3214  -10.2843 H   0  0  0  0  0  0  0  0  0  0  0  0
   28.7164    0.3633   -7.1227 H   0  0  0  0  0  0  0  0  0  0  0  0
   23.3918    0.8279  -13.5747 H   0  0  0  0  0  0  0  0  0  0  0  0
   24.5044    2.0873  -12.9404 H   0  0  0  0  0  0  0  0  0  0  0  0
   24.7932    1.3673  -14.5605 H   0  0  0  0  0  0  0  0  0  0  0  0
  1  2  1  0  0  0  0
  2  3  1  0  0  0  0
  2  6  1  0  0  0  0
  3  4  1  0  0  0  0
  4  5  1  0  0  0  0
  4 26  1  0  0  0  0
  5  6  2  0  0  0  0
  5 10  1  0  0  0  0
  6  7  1  0  0  0  0
  7  8  2  0  0  0  0
  7 20  1  0  0  0  0
  8  9  1  0  0  0  0
  9 10  2  0  0  0  0
 10 11  1  0  0  0  0
 11 12  1  0  0  0  0
 12 13  2  0  0  0  0
 12 19  1  0  0  0  0
 13 14  1  0  0  0  0
 14 15  1  0  0  0  0
 14 16  2  0  0  0  0
 16 17  1  0  0  0  0
 17 18  1  0  0  0  0
 17 19  2  0  0  0  0
 20 21  2  0  0  0  0
 20 22  2  0  0  0  0
 20 23  1  0  0  0  0
 23 24  1  0  0  0  0
 23 25  1  0  0  0  0
  1 27  1  0  0  0  0
  2 28  1  0  0  0  0
  3 29  1  0  0  0  0
  3 30  1  0  0  0  0
  4 31  1  0  0  0  0
  8 32  1  0  0  0  0
  9 33  1  0  0  0  0
 13 34  1  0  0  0  0
 16 35  1  0  0  0  0
 19 36  1  0  0  0  0
 23 37  1  0  0  0  0
 26 38  1  0  0  0  0
 26 39  1  0  0  0  0
 26 40  1  0  0  0  0
M  END
> <ID>
7a

> <IC50[uM](SPA)>
0.047

$$$$
