155
  -OEChem-05192314313D
 Structure written by MMmdl.
 38 40  0     1  0  0  0  0  0999 V2000
   27.5494    1.5659  -11.2067 O   0  0  0  0  0  0  0  0  0  0  0  0
   27.1387    0.3127  -11.6756 C   0  0  2  0  0  0  0  0  0  0  0  0
   26.5195    0.3859  -13.0738 C   0  0  0  0  0  0  0  0  0  0  0  0
   25.0304    0.6044  -12.8406 C   0  0  0  0  0  0  0  0  0  0  0  0
   24.8061   -0.0723  -11.5018 C   0  0  0  0  0  0  0  0  0  0  0  0
   26.0164   -0.2280  -10.8172 C   0  0  0  0  0  0  0  0  0  0  0  0
   26.0250   -0.7653   -9.5189 C   0  0  0  0  0  0  0  0  0  0  0  0
   24.8069   -1.0884   -8.9105 C   0  0  0  0  0  0  0  0  0  0  0  0
   23.6125   -0.9394   -9.5957 C   0  0  0  0  0  0  0  0  0  0  0  0
   23.6090   -0.4330  -10.9057 C   0  0  0  0  0  0  0  0  0  0  0  0
   22.4875   -0.2786  -11.6860 O   0  0  0  0  0  0  0  0  0  0  0  0
   21.2486   -0.5699  -11.1809 C   0  0  0  0  0  0  0  0  0  0  0  0
   20.6770   -1.8256  -11.3995 C   0  0  0  0  0  0  0  0  0  0  0  0
   19.4179   -2.1080  -10.8727 C   0  0  0  0  0  0  0  0  0  0  0  0
   18.7289   -1.1532  -10.1417 C   0  0  0  0  0  0  0  0  0  0  0  0
   19.3023    0.1333   -9.9545 C   0  0  0  0  0  0  0  0  0  0  0  0
   18.5710    1.1634   -9.2382 C   0  0  0  0  0  0  0  0  0  0  0  0
   20.5526    0.3882  -10.4464 C   0  0  0  0  0  0  0  0  0  0  0  0
   27.5350   -1.0542   -8.5888 S   0  0  0  0  0  0  0  0  0  0  0  0
   27.2245   -2.0103   -7.5175 O   0  0  0  0  0  0  0  0  0  0  0  0
   28.5876   -1.3949   -9.5469 O   0  0  0  0  0  0  0  0  0  0  0  0
   27.9675    0.6084   -7.8120 C   0  0  0  0  0  0  0  0  0  0  0  0
   27.8916    1.5374   -8.7619 F   0  0  0  0  0  0  0  0  0  0  0  0
   27.1087    0.8486   -6.8235 F   0  0  0  0  0  0  0  0  0  0  0  0
   18.0096    1.9978   -8.6641 N   0  0  0  0  0  0  0  0  0  0  0  0
   18.8612   -3.3248  -11.0680 F   0  0  0  0  0  0  0  0  0  0  0  0
   27.9258    1.4722  -10.3395 H   0  0  0  0  0  0  0  0  0  0  0  0
   27.9740   -0.4030  -11.6841 H   0  0  0  0  0  0  0  0  0  0  0  0
   26.9480    1.2247  -13.6419 H   0  0  0  0  0  0  0  0  0  0  0  0
   26.6905   -0.5529  -13.6209 H   0  0  0  0  0  0  0  0  0  0  0  0
   24.7889    1.6764  -12.7898 H   0  0  0  0  0  0  0  0  0  0  0  0
   24.4303    0.1304  -13.6313 H   0  0  0  0  0  0  0  0  0  0  0  0
   24.7981   -1.4579   -7.8957 H   0  0  0  0  0  0  0  0  0  0  0  0
   22.6816   -1.2133   -9.1215 H   0  0  0  0  0  0  0  0  0  0  0  0
   21.2068   -2.5721  -11.9725 H   0  0  0  0  0  0  0  0  0  0  0  0
   17.7632   -1.3853   -9.7174 H   0  0  0  0  0  0  0  0  0  0  0  0
   21.0089    1.3496  -10.2623 H   0  0  0  0  0  0  0  0  0  0  0  0
   28.9955    0.4919   -7.4382 H   0  0  0  0  0  0  0  0  0  0  0  0
  1  2  1  0  0  0  0
  2  3  1  0  0  0  0
  2  6  1  0  0  0  0
  3  4  1  0  0  0  0
  4  5  1  0  0  0  0
  5  6  2  0  0  0  0
  5 10  1  0  0  0  0
  6  7  1  0  0  0  0
  7  8  2  0  0  0  0
  7 19  1  0  0  0  0
  8  9  1  0  0  0  0
  9 10  2  0  0  0  0
 10 11  1  0  0  0  0
 11 12  1  0  0  0  0
 12 13  2  0  0  0  0
 12 18  1  0  0  0  0
 13 14  1  0  0  0  0
 14 15  2  0  0  0  0
 14 26  1  0  0  0  0
 15 16  1  0  0  0  0
 16 17  1  0  0  0  0
 16 18  2  0  0  0  0
 17 25  3  0  0  0  0
 19 20  2  0  0  0  0
 19 21  2  0  0  0  0
 19 22  1  0  0  0  0
 22 23  1  0  0  0  0
 22 24  1  0  0  0  0
  1 27  1  0  0  0  0
  2 28  1  0  0  0  0
  3 29  1  0  0  0  0
  3 30  1  0  0  0  0
  4 31  1  0  0  0  0
  4 32  1  0  0  0  0
  8 33  1  0  0  0  0
  9 34  1  0  0  0  0
 13 35  1  0  0  0  0
 15 36  1  0  0  0  0
 18 37  1  0  0  0  0
 22 38  1  0  0  0  0
M  END
> <ID>
155

> <IC50[uM](SPA)>
0.02

$$$$
