235
  -OEChem-05192314313D
 Structure written by MMmdl.
 37 39  0     1  0  0  0  0  0999 V2000
   27.5822    1.5627  -11.2551 O   0  0  0  0  0  0  0  0  0  0  0  0
   27.1468    0.2863  -11.6761 C   0  0  2  0  0  0  0  0  0  0  0  0
   26.5086    0.3643  -13.0642 C   0  0  0  0  0  0  0  0  0  0  0  0
   25.0265    0.6075  -12.8332 C   0  0  0  0  0  0  0  0  0  0  0  0
   24.7967   -0.0605  -11.4946 C   0  0  0  0  0  0  0  0  0  0  0  0
   26.0077   -0.2336  -10.8115 C   0  0  0  0  0  0  0  0  0  0  0  0
   26.0091   -0.7786   -9.5174 C   0  0  0  0  0  0  0  0  0  0  0  0
   24.7944   -1.0867   -8.9034 C   0  0  0  0  0  0  0  0  0  0  0  0
   23.5936   -0.9312   -9.5951 C   0  0  0  0  0  0  0  0  0  0  0  0
   23.5911   -0.4269  -10.8990 C   0  0  0  0  0  0  0  0  0  0  0  0
   22.4730   -0.2997  -11.6967 O   0  0  0  0  0  0  0  0  0  0  0  0
   21.2211   -0.5557  -11.2088 C   0  0  0  0  0  0  0  0  0  0  0  0
   20.5807   -1.7704  -11.4636 C   0  0  0  0  0  0  0  0  0  0  0  0
   19.3293   -2.0485  -11.0244 N   0  0  0  0  0  0  0  0  0  0  0  0
   18.6868   -1.0883  -10.3158 C   0  0  0  0  0  0  0  0  0  0  0  0
   19.2441    0.1607  -10.0304 C   0  0  0  0  0  0  0  0  0  0  0  0
   18.5232    1.1702   -9.2782 C   0  0  0  0  0  0  0  0  0  0  0  0
   20.5375    0.4137  -10.4764 C   0  0  0  0  0  0  0  0  0  0  0  0
   27.5181   -1.0772   -8.5972 S   0  0  0  0  0  0  0  0  0  0  0  0
   27.2199   -2.0291   -7.5251 O   0  0  0  0  0  0  0  0  0  0  0  0
   28.5736   -1.4146   -9.5547 O   0  0  0  0  0  0  0  0  0  0  0  0
   27.9098    0.6015   -7.8247 C   0  0  0  0  0  0  0  0  0  0  0  0
   27.0599    1.2997  -13.8390 F   0  0  0  0  0  0  0  0  0  0  0  0
   26.6397   -0.8135  -13.6733 F   0  0  0  0  0  0  0  0  0  0  0  0
   17.9557    1.9748   -8.6688 N   0  0  0  0  0  0  0  0  0  0  0  0
   29.1729    0.5500   -7.4603 F   0  0  0  0  0  0  0  0  0  0  0  0
   27.7563    1.5773   -8.6957 F   0  0  0  0  0  0  0  0  0  0  0  0
   27.1098    0.7930   -6.7781 F   0  0  0  0  0  0  0  0  0  0  0  0
   27.9751    1.4953  -10.3928 H   0  0  0  0  0  0  0  0  0  0  0  0
   27.9729   -0.4400  -11.6852 H   0  0  0  0  0  0  0  0  0  0  0  0
   24.8017    1.6832  -12.7858 H   0  0  0  0  0  0  0  0  0  0  0  0
   24.4182    0.1402  -13.6216 H   0  0  0  0  0  0  0  0  0  0  0  0
   24.7843   -1.4480   -7.8857 H   0  0  0  0  0  0  0  0  0  0  0  0
   22.6614   -1.2015   -9.1214 H   0  0  0  0  0  0  0  0  0  0  0  0
   21.1058   -2.5209  -12.0357 H   0  0  0  0  0  0  0  0  0  0  0  0
   17.6919   -1.2997   -9.9527 H   0  0  0  0  0  0  0  0  0  0  0  0
   21.0109    1.3590  -10.2557 H   0  0  0  0  0  0  0  0  0  0  0  0
  1  2  1  0  0  0  0
  2  3  1  0  0  0  0
  2  6  1  0  0  0  0
  3  4  1  0  0  0  0
  3 23  1  0  0  0  0
  3 24  1  0  0  0  0
  4  5  1  0  0  0  0
  5  6  2  0  0  0  0
  5 10  1  0  0  0  0
  6  7  1  0  0  0  0
  7  8  2  0  0  0  0
  7 19  1  0  0  0  0
  8  9  1  0  0  0  0
  9 10  2  0  0  0  0
 10 11  1  0  0  0  0
 11 12  1  0  0  0  0
 12 13  2  0  0  0  0
 12 18  1  0  0  0  0
 13 14  1  0  0  0  0
 14 15  2  0  0  0  0
 15 16  1  0  0  0  0
 16 17  1  0  0  0  0
 16 18  2  0  0  0  0
 17 25  3  0  0  0  0
 19 20  2  0  0  0  0
 19 21  2  0  0  0  0
 19 22  1  0  0  0  0
 22 26  1  0  0  0  0
 22 27  1  0  0  0  0
 22 28  1  0  0  0  0
  1 29  1  0  0  0  0
  2 30  1  0  0  0  0
  4 31  1  0  0  0  0
  4 32  1  0  0  0  0
  8 33  1  0  0  0  0
  9 34  1  0  0  0  0
 13 35  1  0  0  0  0
 15 36  1  0  0  0  0
 18 37  1  0  0  0  0
M  END
> <ID>
235

> <IC50[uM](SPA)>
0.038

$$$$
