43
  -OEChem-05192314313D
 Structure written by MMmdl.
 34 35  0     0  0  0  0  0  0999 V2000
   27.3206    0.2092  -11.5444 C   0  0  0  0  0  0  0  0  0  0  0  0
   24.8104   -0.0377  -11.5023 C   0  0  0  0  0  0  0  0  0  0  0  0
   26.0342   -0.2249  -10.8317 C   0  0  0  0  0  0  0  0  0  0  0  0
   26.0391   -0.7726   -9.5293 C   0  0  0  0  0  0  0  0  0  0  0  0
   24.8129   -1.0870   -8.9213 C   0  0  0  0  0  0  0  0  0  0  0  0
   23.6118   -0.9391   -9.6083 C   0  0  0  0  0  0  0  0  0  0  0  0
   23.6108   -0.4248  -10.9220 C   0  0  0  0  0  0  0  0  0  0  0  0
   22.4761   -0.3049  -11.6918 O   0  0  0  0  0  0  0  0  0  0  0  0
   21.2375   -0.5838  -11.1900 C   0  0  0  0  0  0  0  0  0  0  0  0
   20.6642   -1.8394  -11.3980 C   0  0  0  0  0  0  0  0  0  0  0  0
   19.4099   -2.1222  -10.8637 C   0  0  0  0  0  0  0  0  0  0  0  0
   18.7315   -1.1370  -10.1413 C   0  0  0  0  0  0  0  0  0  0  0  0
   19.2646    0.1136   -9.9710 C   0  0  0  0  0  0  0  0  0  0  0  0
   18.5795    1.1649   -9.2431 C   0  0  0  0  0  0  0  0  0  0  0  0
   20.5604    0.4002  -10.4797 C   0  0  0  0  0  0  0  0  0  0  0  0
   27.5401   -1.0912   -8.5545 S   0  0  0  0  0  0  0  0  0  0  0  0
   27.1859   -2.0084   -7.4841 O   0  0  0  0  0  0  0  0  0  0  0  0
   28.6206   -1.4509   -9.4586 O   0  0  0  0  0  0  0  0  0  0  0  0
   27.9627    0.5938   -7.7916 C   0  0  0  0  0  0  0  0  0  0  0  0
   27.7984    1.5671   -8.6677 F   0  0  0  0  0  0  0  0  0  0  0  0
   27.0861    0.7983   -6.7353 F   0  0  0  0  0  0  0  0  0  0  0  0
   24.7409    0.7017  -13.0762 Cl  0  0  0  0  0  0  0  0  0  0  0  0
   27.6879    1.5242  -11.1857 O   0  0  0  0  0  0  0  0  0  0  0  0
   18.0013    1.9953   -8.6849 N   0  0  0  0  0  0  0  0  0  0  0  0
   28.1333   -0.4781  -11.2666 H   0  0  0  0  0  0  0  0  0  0  0  0
   27.1596    0.1663  -12.6317 H   0  0  0  0  0  0  0  0  0  0  0  0
   24.8019   -1.4495   -7.9040 H   0  0  0  0  0  0  0  0  0  0  0  0
   22.6813   -1.2178   -9.1362 H   0  0  0  0  0  0  0  0  0  0  0  0
   21.1912   -2.5881  -11.9708 H   0  0  0  0  0  0  0  0  0  0  0  0
   18.9646   -3.0957  -11.0065 H   0  0  0  0  0  0  0  0  0  0  0  0
   17.7686   -1.3657   -9.7090 H   0  0  0  0  0  0  0  0  0  0  0  0
   21.0118    1.3677  -10.3168 H   0  0  0  0  0  0  0  0  0  0  0  0
   29.0023    0.5076   -7.4427 H   0  0  0  0  0  0  0  0  0  0  0  0
   28.4860    1.7659  -11.6409 H   0  0  0  0  0  0  0  0  0  0  0  0
  1  3  1  0  0  0  0
  1 23  1  0  0  0  0
  2  3  2  0  0  0  0
  2  7  1  0  0  0  0
  2 22  1  0  0  0  0
  3  4  1  0  0  0  0
  4  5  2  0  0  0  0
  4 16  1  0  0  0  0
  5  6  1  0  0  0  0
  6  7  2  0  0  0  0
  7  8  1  0  0  0  0
  8  9  1  0  0  0  0
  9 10  2  0  0  0  0
  9 15  1  0  0  0  0
 10 11  1  0  0  0  0
 11 12  2  0  0  0  0
 12 13  1  0  0  0  0
 13 14  1  0  0  0  0
 13 15  2  0  0  0  0
 14 24  3  0  0  0  0
 16 17  2  0  0  0  0
 16 18  2  0  0  0  0
 16 19  1  0  0  0  0
 19 20  1  0  0  0  0
 19 21  1  0  0  0  0
  1 25  1  0  0  0  0
  1 26  1  0  0  0  0
  5 27  1  0  0  0  0
  6 28  1  0  0  0  0
 10 29  1  0  0  0  0
 11 30  1  0  0  0  0
 12 31  1  0  0  0  0
 15 32  1  0  0  0  0
 19 33  1  0  0  0  0
 23 34  1  0  0  0  0
M  END
> <ID>
43

> <IC50[uM](SPA)>
0.42

$$$$
