156
  -OEChem-05192314313D
 Structure written by MMmdl.
 38 40  0     1  0  0  0  0  0999 V2000
   27.5805    1.5534  -11.2532 O   0  0  0  0  0  0  0  0  0  0  0  0
   27.1501    0.2775  -11.6687 C   0  0  2  0  0  0  0  0  0  0  0  0
   26.5293    0.4064  -13.0572 C   0  0  0  0  0  0  0  0  0  0  0  0
   25.0376    0.6062  -12.8261 C   0  0  0  0  0  0  0  0  0  0  0  0
   24.8055   -0.0621  -11.4896 C   0  0  0  0  0  0  0  0  0  0  0  0
   26.0115   -0.2357  -10.8045 C   0  0  0  0  0  0  0  0  0  0  0  0
   26.0133   -0.7776   -9.5085 C   0  0  0  0  0  0  0  0  0  0  0  0
   24.7953   -1.0889   -8.8985 C   0  0  0  0  0  0  0  0  0  0  0  0
   23.5968   -0.9351   -9.5925 C   0  0  0  0  0  0  0  0  0  0  0  0
   23.5998   -0.4290  -10.8992 C   0  0  0  0  0  0  0  0  0  0  0  0
   22.4856   -0.2941  -11.6969 O   0  0  0  0  0  0  0  0  0  0  0  0
   21.2434   -0.5785  -11.2009 C   0  0  0  0  0  0  0  0  0  0  0  0
   20.6719   -1.8357  -11.4023 C   0  0  0  0  0  0  0  0  0  0  0  0
   19.4175   -2.1171  -10.8625 C   0  0  0  0  0  0  0  0  0  0  0  0
   18.7315   -1.1381  -10.1404 C   0  0  0  0  0  0  0  0  0  0  0  0
   19.2888    0.1333   -9.9695 C   0  0  0  0  0  0  0  0  0  0  0  0
   18.5741    1.1692   -9.2318 C   0  0  0  0  0  0  0  0  0  0  0  0
   20.5530    0.4006  -10.4887 C   0  0  0  0  0  0  0  0  0  0  0  0
   27.5308   -1.0719   -8.5932 S   0  0  0  0  0  0  0  0  0  0  0  0
   27.2326   -2.0223   -7.5182 O   0  0  0  0  0  0  0  0  0  0  0  0
   28.5832   -1.4111   -9.5503 O   0  0  0  0  0  0  0  0  0  0  0  0
   27.9414    0.6033   -7.8192 C   0  0  0  0  0  0  0  0  0  0  0  0
   27.8101    1.5688   -8.7107 F   0  0  0  0  0  0  0  0  0  0  0  0
   27.0858    0.8173   -6.8182 F   0  0  0  0  0  0  0  0  0  0  0  0
   18.0126    1.9813   -8.6297 N   0  0  0  0  0  0  0  0  0  0  0  0
   27.9701    1.4908  -10.3890 H   0  0  0  0  0  0  0  0  0  0  0  0
   27.9748   -0.4502  -11.6866 H   0  0  0  0  0  0  0  0  0  0  0  0
   26.9541    1.2710  -13.5882 H   0  0  0  0  0  0  0  0  0  0  0  0
   26.7074   -0.5074  -13.6430 H   0  0  0  0  0  0  0  0  0  0  0  0
   24.7845    1.6758  -12.7821 H   0  0  0  0  0  0  0  0  0  0  0  0
   24.4470    0.1219  -13.6177 H   0  0  0  0  0  0  0  0  0  0  0  0
   24.7827   -1.4515   -7.8813 H   0  0  0  0  0  0  0  0  0  0  0  0
   22.6633   -1.2066   -9.1221 H   0  0  0  0  0  0  0  0  0  0  0  0
   21.1983   -2.5864  -11.9731 H   0  0  0  0  0  0  0  0  0  0  0  0
   18.9761   -3.0927  -11.0029 H   0  0  0  0  0  0  0  0  0  0  0  0
   17.7662   -1.3638   -9.7119 H   0  0  0  0  0  0  0  0  0  0  0  0
   21.0009    1.3718  -10.3387 H   0  0  0  0  0  0  0  0  0  0  0  0
   28.9769    0.5098   -7.4600 H   0  0  0  0  0  0  0  0  0  0  0  0
  1  2  1  0  0  0  0
  2  3  1  0  0  0  0
  2  6  1  0  0  0  0
  3  4  1  0  0  0  0
  4  5  1  0  0  0  0
  5  6  2  0  0  0  0
  5 10  1  0  0  0  0
  6  7  1  0  0  0  0
  7  8  2  0  0  0  0
  7 19  1  0  0  0  0
  8  9  1  0  0  0  0
  9 10  2  0  0  0  0
 10 11  1  0  0  0  0
 11 12  1  0  0  0  0
 12 13  2  0  0  0  0
 12 18  1  0  0  0  0
 13 14  1  0  0  0  0
 14 15  2  0  0  0  0
 15 16  1  0  0  0  0
 16 17  1  0  0  0  0
 16 18  2  0  0  0  0
 17 25  3  0  0  0  0
 19 20  2  0  0  0  0
 19 21  2  0  0  0  0
 19 22  1  0  0  0  0
 22 23  1  0  0  0  0
 22 24  1  0  0  0  0
  1 26  1  0  0  0  0
  2 27  1  0  0  0  0
  3 28  1  0  0  0  0
  3 29  1  0  0  0  0
  4 30  1  0  0  0  0
  4 31  1  0  0  0  0
  8 32  1  0  0  0  0
  9 33  1  0  0  0  0
 13 34  1  0  0  0  0
 14 35  1  0  0  0  0
 15 36  1  0  0  0  0
 18 37  1  0  0  0  0
 22 38  1  0  0  0  0
M  END
> <ID>
156

> <IC50[uM](SPA)>
0.073

$$$$
