266
  -OEChem-05192314313D
 Structure written by MMmdl.
 40 43  0     1  0  0  0  0  0999 V2000
   27.8850    0.9567  -11.2360 O   0  0  0  0  0  0  0  0  0  0  0  0
   26.9261    0.0753  -11.8170 C   0  0  2  0  0  0  0  0  0  0  0  0
   26.2094    0.6442  -13.0561 C   0  0  0  0  0  0  0  0  0  0  0  0
   24.7392    0.3196  -12.9441 C   0  0  0  0  0  0  0  0  0  0  0  0
   24.5470   -0.0317  -11.5054 C   0  0  0  0  0  0  0  0  0  0  0  0
   25.7726   -0.2517  -10.8650 C   0  0  0  0  0  0  0  0  0  0  0  0
   25.7777   -0.7392   -9.5446 C   0  0  0  0  0  0  0  0  0  0  0  0
   24.5645   -0.9350   -8.8805 C   0  0  0  0  0  0  0  0  0  0  0  0
   23.3575   -0.7307   -9.5431 C   0  0  0  0  0  0  0  0  0  0  0  0
   23.3449   -0.3000  -10.8665 C   0  0  0  0  0  0  0  0  0  0  0  0
   22.1962   -0.0469  -11.5824 O   0  0  0  0  0  0  0  0  0  0  0  0
   21.0227   -0.6665  -11.2348 C   0  0  0  0  0  0  0  0  0  0  0  0
   20.7734   -2.0189  -11.4693 C   0  0  0  0  0  0  0  0  0  0  0  0
   19.5565   -2.5922  -11.1030 C   0  0  0  0  0  0  0  0  0  0  0  0
   18.5893   -1.8651  -10.4156 C   0  0  0  0  0  0  0  0  0  0  0  0
   18.8672   -0.5266  -10.1509 C   0  0  0  0  0  0  0  0  0  0  0  0
   20.0493    0.0994  -10.5813 C   0  0  0  0  0  0  0  0  0  0  0  0
   27.2967   -1.1713   -8.6869 S   0  0  0  0  0  0  0  0  0  0  0  0
   28.2927   -1.4686   -9.7151 O   0  0  0  0  0  0  0  0  0  0  0  0
   26.9743   -2.2137   -7.7071 O   0  0  0  0  0  0  0  0  0  0  0  0
   27.7762    0.4223   -7.7641 C   0  0  0  0  0  0  0  0  0  0  0  0
   26.6880    0.1745  -14.2084 F   0  0  0  0  0  0  0  0  0  0  0  0
   26.3100    1.9665  -13.0637 F   0  0  0  0  0  0  0  0  0  0  0  0
   27.0858    0.4659   -6.6244 F   0  0  0  0  0  0  0  0  0  0  0  0
   29.0853    0.3799   -7.5200 F   0  0  0  0  0  0  0  0  0  0  0  0
   27.4854    1.4761   -8.5193 F   0  0  0  0  0  0  0  0  0  0  0  0
   17.4363   -2.4330  -10.0129 F   0  0  0  0  0  0  0  0  0  0  0  0
   19.8832    1.4504  -10.1680 C   0  0  0  0  0  0  0  0  0  0  0  0
   18.7801    1.6341   -9.4994 N   0  0  0  0  0  0  0  0  0  0  0  0
   18.1820    0.4453   -9.4619 N   0  0  0  0  0  0  0  0  0  0  0  0
   28.3562    0.5030  -10.5471 H   0  0  0  0  0  0  0  0  0  0  0  0
   27.4147   -0.8672  -12.1050 H   0  0  0  0  0  0  0  0  0  0  0  0
   24.1259    1.1908  -13.2177 H   0  0  0  0  0  0  0  0  0  0  0  0
   24.4776   -0.5307  -13.5911 H   0  0  0  0  0  0  0  0  0  0  0  0
   24.5630   -1.2468   -7.8465 H   0  0  0  0  0  0  0  0  0  0  0  0
   22.4253   -0.9075   -9.0272 H   0  0  0  0  0  0  0  0  0  0  0  0
   21.5310   -2.6282  -11.9395 H   0  0  0  0  0  0  0  0  0  0  0  0
   19.3601   -3.6231  -11.3583 H   0  0  0  0  0  0  0  0  0  0  0  0
   20.5921    2.2359  -10.3842 H   0  0  0  0  0  0  0  0  0  0  0  0
   17.3215    0.2766   -8.9812 H   0  0  0  0  0  0  0  0  0  0  0  0
  1  2  1  0  0  0  0
  2  3  1  0  0  0  0
  2  6  1  0  0  0  0
  3  4  1  0  0  0  0
  3 22  1  0  0  0  0
  3 23  1  0  0  0  0
  4  5  1  0  0  0  0
  5  6  2  0  0  0  0
  5 10  1  0  0  0  0
  6  7  1  0  0  0  0
  7  8  2  0  0  0  0
  7 18  1  0  0  0  0
  8  9  1  0  0  0  0
  9 10  2  0  0  0  0
 10 11  1  0  0  0  0
 11 12  1  0  0  0  0
 12 13  2  0  0  0  0
 12 17  1  0  0  0  0
 13 14  1  0  0  0  0
 14 15  2  0  0  0  0
 15 16  1  0  0  0  0
 15 27  1  0  0  0  0
 16 17  2  0  0  0  0
 16 30  1  0  0  0  0
 17 28  1  0  0  0  0
 18 19  2  0  0  0  0
 18 20  2  0  0  0  0
 18 21  1  0  0  0  0
 21 24  1  0  0  0  0
 21 25  1  0  0  0  0
 21 26  1  0  0  0  0
 28 29  2  0  0  0  0
 29 30  1  0  0  0  0
  1 31  1  0  0  0  0
  2 32  1  0  0  0  0
  4 33  1  0  0  0  0
  4 34  1  0  0  0  0
  8 35  1  0  0  0  0
  9 36  1  0  0  0  0
 13 37  1  0  0  0  0
 14 38  1  0  0  0  0
 28 39  1  0  0  0  0
 30 40  1  0  0  0  0
M  END
> <ID>
266

> <IC50[uM](SPA)>
0.019

$$$$
266
  -OEChem-05192314313D
 Structure written by MMmdl.
 40 43  0     1  0  0  0  0  0999 V2000
   27.8850    0.9567  -11.2360 O   0  0  0  0  0  0  0  0  0  0  0  0
   26.9261    0.0753  -11.8170 C   0  0  2  0  0  0  0  0  0  0  0  0
   26.2094    0.6442  -13.0561 C   0  0  0  0  0  0  0  0  0  0  0  0
   24.7392    0.3196  -12.9441 C   0  0  0  0  0  0  0  0  0  0  0  0
   24.5470   -0.0317  -11.5054 C   0  0  0  0  0  0  0  0  0  0  0  0
   25.7726   -0.2517  -10.8650 C   0  0  0  0  0  0  0  0  0  0  0  0
   25.7777   -0.7392   -9.5446 C   0  0  0  0  0  0  0  0  0  0  0  0
   24.5645   -0.9350   -8.8805 C   0  0  0  0  0  0  0  0  0  0  0  0
   23.3575   -0.7307   -9.5431 C   0  0  0  0  0  0  0  0  0  0  0  0
   23.3449   -0.3000  -10.8665 C   0  0  0  0  0  0  0  0  0  0  0  0
   22.1962   -0.0469  -11.5824 O   0  0  0  0  0  0  0  0  0  0  0  0
   21.0227   -0.6665  -11.2348 C   0  0  0  0  0  0  0  0  0  0  0  0
   20.7734   -2.0189  -11.4693 C   0  0  0  0  0  0  0  0  0  0  0  0
   19.5565   -2.5922  -11.1030 C   0  0  0  0  0  0  0  0  0  0  0  0
   18.5893   -1.8651  -10.4156 C   0  0  0  0  0  0  0  0  0  0  0  0
   18.8672   -0.5266  -10.1509 C   0  0  0  0  0  0  0  0  0  0  0  0
   20.0493    0.0994  -10.5813 C   0  0  0  0  0  0  0  0  0  0  0  0
   27.2967   -1.1713   -8.6869 S   0  0  0  0  0  0  0  0  0  0  0  0
   28.2927   -1.4686   -9.7151 O   0  0  0  0  0  0  0  0  0  0  0  0
   26.9743   -2.2137   -7.7071 O   0  0  0  0  0  0  0  0  0  0  0  0
   27.7762    0.4223   -7.7641 C   0  0  0  0  0  0  0  0  0  0  0  0
   26.6880    0.1745  -14.2084 F   0  0  0  0  0  0  0  0  0  0  0  0
   26.3100    1.9665  -13.0637 F   0  0  0  0  0  0  0  0  0  0  0  0
   27.0858    0.4659   -6.6244 F   0  0  0  0  0  0  0  0  0  0  0  0
   29.0853    0.3799   -7.5200 F   0  0  0  0  0  0  0  0  0  0  0  0
   27.4854    1.4761   -8.5193 F   0  0  0  0  0  0  0  0  0  0  0  0
   17.4363   -2.4330  -10.0129 F   0  0  0  0  0  0  0  0  0  0  0  0
   19.8832    1.4504  -10.1680 C   0  0  0  0  0  0  0  0  0  0  0  0
   18.7801    1.6341   -9.4994 N   0  0  0  0  0  0  0  0  0  0  0  0
   18.1820    0.4453   -9.4619 N   0  0  0  0  0  0  0  0  0  0  0  0
   28.3562    0.5030  -10.5471 H   0  0  0  0  0  0  0  0  0  0  0  0
   27.4147   -0.8672  -12.1050 H   0  0  0  0  0  0  0  0  0  0  0  0
   24.1259    1.1908  -13.2177 H   0  0  0  0  0  0  0  0  0  0  0  0
   24.4776   -0.5307  -13.5911 H   0  0  0  0  0  0  0  0  0  0  0  0
   24.5630   -1.2468   -7.8465 H   0  0  0  0  0  0  0  0  0  0  0  0
   22.4253   -0.9075   -9.0272 H   0  0  0  0  0  0  0  0  0  0  0  0
   21.5310   -2.6282  -11.9395 H   0  0  0  0  0  0  0  0  0  0  0  0
   19.3601   -3.6231  -11.3583 H   0  0  0  0  0  0  0  0  0  0  0  0
   20.5921    2.2359  -10.3842 H   0  0  0  0  0  0  0  0  0  0  0  0
   18.4515    2.4892   -9.0983 H   0  0  0  0  0  0  0  0  0  0  0  0
  1  2  1  0  0  0  0
  2  3  1  0  0  0  0
  2  6  1  0  0  0  0
  3  4  1  0  0  0  0
  3 22  1  0  0  0  0
  3 23  1  0  0  0  0
  4  5  1  0  0  0  0
  5  6  2  0  0  0  0
  5 10  1  0  0  0  0
  6  7  1  0  0  0  0
  7  8  2  0  0  0  0
  7 18  1  0  0  0  0
  8  9  1  0  0  0  0
  9 10  2  0  0  0  0
 10 11  1  0  0  0  0
 11 12  1  0  0  0  0
 12 13  2  0  0  0  0
 12 17  1  0  0  0  0
 13 14  1  0  0  0  0
 14 15  2  0  0  0  0
 15 16  1  0  0  0  0
 15 27  1  0  0  0  0
 16 17  1  0  0  0  0
 16 30  2  0  0  0  0
 17 28  2  0  0  0  0
 18 19  2  0  0  0  0
 18 20  2  0  0  0  0
 18 21  1  0  0  0  0
 21 24  1  0  0  0  0
 21 25  1  0  0  0  0
 21 26  1  0  0  0  0
 28 29  1  0  0  0  0
 29 30  1  0  0  0  0
  1 31  1  0  0  0  0
  2 32  1  0  0  0  0
  4 33  1  0  0  0  0
  4 34  1  0  0  0  0
  8 35  1  0  0  0  0
  9 36  1  0  0  0  0
 13 37  1  0  0  0  0
 14 38  1  0  0  0  0
 28 39  1  0  0  0  0
 29 40  1  0  0  0  0
M  END
> <ID>
266

> <IC50[uM](SPA)>
0.019

$$$$
266
  -OEChem-05192314313D
 Structure written by MMmdl.
 40 43  0     1  0  0  0  0  0999 V2000
   27.8850    0.9567  -11.2360 O   0  0  0  0  0  0  0  0  0  0  0  0
   26.9261    0.0753  -11.8170 C   0  0  2  0  0  0  0  0  0  0  0  0
   26.2094    0.6442  -13.0561 C   0  0  0  0  0  0  0  0  0  0  0  0
   24.7392    0.3196  -12.9441 C   0  0  0  0  0  0  0  0  0  0  0  0
   24.5470   -0.0317  -11.5054 C   0  0  0  0  0  0  0  0  0  0  0  0
   25.7726   -0.2517  -10.8650 C   0  0  0  0  0  0  0  0  0  0  0  0
   25.7777   -0.7392   -9.5446 C   0  0  0  0  0  0  0  0  0  0  0  0
   24.5645   -0.9350   -8.8805 C   0  0  0  0  0  0  0  0  0  0  0  0
   23.3575   -0.7307   -9.5431 C   0  0  0  0  0  0  0  0  0  0  0  0
   23.3449   -0.3000  -10.8665 C   0  0  0  0  0  0  0  0  0  0  0  0
   22.1962   -0.0469  -11.5824 O   0  0  0  0  0  0  0  0  0  0  0  0
   21.0227   -0.6665  -11.2348 C   0  0  0  0  0  0  0  0  0  0  0  0
   20.7734   -2.0189  -11.4693 C   0  0  0  0  0  0  0  0  0  0  0  0
   19.5565   -2.5922  -11.1030 C   0  0  0  0  0  0  0  0  0  0  0  0
   18.5893   -1.8651  -10.4156 C   0  0  0  0  0  0  0  0  0  0  0  0
   18.8672   -0.5266  -10.1509 C   0  0  0  0  0  0  0  0  0  0  0  0
   20.0493    0.0994  -10.5813 C   0  0  0  0  0  0  0  0  0  0  0  0
   27.2967   -1.1713   -8.6869 S   0  0  0  0  0  0  0  0  0  0  0  0
   28.2927   -1.4686   -9.7151 O   0  0  0  0  0  0  0  0  0  0  0  0
   26.9743   -2.2137   -7.7071 O   0  0  0  0  0  0  0  0  0  0  0  0
   27.7762    0.4223   -7.7641 C   0  0  0  0  0  0  0  0  0  0  0  0
   26.6880    0.1745  -14.2084 F   0  0  0  0  0  0  0  0  0  0  0  0
   26.3100    1.9665  -13.0637 F   0  0  0  0  0  0  0  0  0  0  0  0
   27.0858    0.4659   -6.6244 F   0  0  0  0  0  0  0  0  0  0  0  0
   29.0853    0.3799   -7.5200 F   0  0  0  0  0  0  0  0  0  0  0  0
   27.4854    1.4761   -8.5193 F   0  0  0  0  0  0  0  0  0  0  0  0
   17.4363   -2.4330  -10.0129 F   0  0  0  0  0  0  0  0  0  0  0  0
   19.8832    1.4504  -10.1680 C   0  0  0  0  0  0  0  0  0  0  0  0
   18.7801    1.6341   -9.4994 N   0  0  0  0  0  0  0  0  0  0  0  0
   18.1820    0.4453   -9.4619 N   0  0  0  0  0  0  0  0  0  0  0  0
   28.3562    0.5030  -10.5471 H   0  0  0  0  0  0  0  0  0  0  0  0
   27.4147   -0.8672  -12.1050 H   0  0  0  0  0  0  0  0  0  0  0  0
   24.1259    1.1908  -13.2177 H   0  0  0  0  0  0  0  0  0  0  0  0
   24.4776   -0.5307  -13.5911 H   0  0  0  0  0  0  0  0  0  0  0  0
   24.5630   -1.2468   -7.8465 H   0  0  0  0  0  0  0  0  0  0  0  0
   22.4253   -0.9075   -9.0272 H   0  0  0  0  0  0  0  0  0  0  0  0
   21.5310   -2.6282  -11.9395 H   0  0  0  0  0  0  0  0  0  0  0  0
   19.3601   -3.6231  -11.3583 H   0  0  0  0  0  0  0  0  0  0  0  0
   20.7339    1.7315   -9.5298 H   0  0  0  0  0  0  0  0  0  0  0  0
   19.8663    2.0931  -11.0605 H   0  0  0  0  0  0  0  0  0  0  0  0
  1  2  1  0  0  0  0
  2  3  1  0  0  0  0
  2  6  1  0  0  0  0
  3  4  1  0  0  0  0
  3 22  1  0  0  0  0
  3 23  1  0  0  0  0
  4  5  1  0  0  0  0
  5  6  2  0  0  0  0
  5 10  1  0  0  0  0
  6  7  1  0  0  0  0
  7  8  2  0  0  0  0
  7 18  1  0  0  0  0
  8  9  1  0  0  0  0
  9 10  2  0  0  0  0
 10 11  1  0  0  0  0
 11 12  1  0  0  0  0
 12 13  2  0  0  0  0
 12 17  1  0  0  0  0
 13 14  1  0  0  0  0
 14 15  2  0  0  0  0
 15 16  1  0  0  0  0
 15 27  1  0  0  0  0
 16 17  2  0  0  0  0
 16 30  1  0  0  0  0
 17 28  1  0  0  0  0
 18 19  2  0  0  0  0
 18 20  2  0  0  0  0
 18 21  1  0  0  0  0
 21 24  1  0  0  0  0
 21 25  1  0  0  0  0
 21 26  1  0  0  0  0
 28 29  1  0  0  0  0
 29 30  2  0  0  0  0
  1 31  1  0  0  0  0
  2 32  1  0  0  0  0
  4 33  1  0  0  0  0
  4 34  1  0  0  0  0
  8 35  1  0  0  0  0
  9 36  1  0  0  0  0
 13 37  1  0  0  0  0
 14 38  1  0  0  0  0
 28 39  1  0  0  0  0
 28 40  1  0  0  0  0
M  END
> <ID>
266

> <IC50[uM](SPA)>
0.019

$$$$
266
  -OEChem-05192314313D
 Structure written by MMmdl.
 40 43  0     1  0  0  0  0  0999 V2000
   27.8850    0.9567  -11.2360 O   0  0  0  0  0  0  0  0  0  0  0  0
   26.9261    0.0753  -11.8170 C   0  0  2  0  0  0  0  0  0  0  0  0
   26.2094    0.6442  -13.0561 C   0  0  0  0  0  0  0  0  0  0  0  0
   24.7392    0.3196  -12.9441 C   0  0  0  0  0  0  0  0  0  0  0  0
   24.5470   -0.0317  -11.5054 C   0  0  0  0  0  0  0  0  0  0  0  0
   25.7726   -0.2517  -10.8650 C   0  0  0  0  0  0  0  0  0  0  0  0
   25.7777   -0.7392   -9.5446 C   0  0  0  0  0  0  0  0  0  0  0  0
   24.5645   -0.9350   -8.8805 C   0  0  0  0  0  0  0  0  0  0  0  0
   23.3575   -0.7307   -9.5431 C   0  0  0  0  0  0  0  0  0  0  0  0
   23.3449   -0.3000  -10.8665 C   0  0  0  0  0  0  0  0  0  0  0  0
   22.1962   -0.0469  -11.5824 O   0  0  0  0  0  0  0  0  0  0  0  0
   21.0227   -0.6665  -11.2348 C   0  0  0  0  0  0  0  0  0  0  0  0
   20.7734   -2.0189  -11.4693 C   0  0  0  0  0  0  0  0  0  0  0  0
   19.5565   -2.5922  -11.1030 C   0  0  0  0  0  0  0  0  0  0  0  0
   18.5893   -1.8651  -10.4156 C   0  0  0  0  0  0  0  0  0  0  0  0
   18.8672   -0.5266  -10.1509 C   0  0  0  0  0  0  0  0  0  0  0  0
   20.0493    0.0994  -10.5813 C   0  0  0  0  0  0  0  0  0  0  0  0
   27.2967   -1.1713   -8.6869 S   0  0  0  0  0  0  0  0  0  0  0  0
   28.2927   -1.4686   -9.7151 O   0  0  0  0  0  0  0  0  0  0  0  0
   26.9743   -2.2137   -7.7071 O   0  0  0  0  0  0  0  0  0  0  0  0
   27.7762    0.4223   -7.7641 C   0  0  0  0  0  0  0  0  0  0  0  0
   26.6880    0.1745  -14.2084 F   0  0  0  0  0  0  0  0  0  0  0  0
   26.3100    1.9665  -13.0637 F   0  0  0  0  0  0  0  0  0  0  0  0
   27.0858    0.4659   -6.6244 F   0  0  0  0  0  0  0  0  0  0  0  0
   29.0853    0.3799   -7.5200 F   0  0  0  0  0  0  0  0  0  0  0  0
   27.4854    1.4761   -8.5193 F   0  0  0  0  0  0  0  0  0  0  0  0
   17.4363   -2.4330  -10.0129 F   0  0  0  0  0  0  0  0  0  0  0  0
   19.8832    1.4504  -10.1680 C   0  0  0  0  0  0  0  0  0  0  0  0
   18.7801    1.6341   -9.4994 N   0  0  0  0  0  0  0  0  0  0  0  0
   18.1820    0.4453   -9.4619 N   0  0  0  0  0  0  0  0  0  0  0  0
   28.3562    0.5030  -10.5471 H   0  0  0  0  0  0  0  0  0  0  0  0
   27.4147   -0.8672  -12.1050 H   0  0  0  0  0  0  0  0  0  0  0  0
   24.1259    1.1908  -13.2177 H   0  0  0  0  0  0  0  0  0  0  0  0
   24.4776   -0.5307  -13.5911 H   0  0  0  0  0  0  0  0  0  0  0  0
   24.5630   -1.2468   -7.8465 H   0  0  0  0  0  0  0  0  0  0  0  0
   22.4253   -0.9075   -9.0272 H   0  0  0  0  0  0  0  0  0  0  0  0
   21.5310   -2.6282  -11.9395 H   0  0  0  0  0  0  0  0  0  0  0  0
   19.3601   -3.6231  -11.3583 H   0  0  0  0  0  0  0  0  0  0  0  0
   18.1202   -1.5820  -11.3694 H   0  0  0  0  0  0  0  0  0  0  0  0
   20.5921    2.2359  -10.3842 H   0  0  0  0  0  0  0  0  0  0  0  0
  1  2  1  0  0  0  0
  2  3  1  0  0  0  0
  2  6  1  0  0  0  0
  3  4  1  0  0  0  0
  3 22  1  0  0  0  0
  3 23  1  0  0  0  0
  4  5  1  0  0  0  0
  5  6  2  0  0  0  0
  5 10  1  0  0  0  0
  6  7  1  0  0  0  0
  7  8  2  0  0  0  0
  7 18  1  0  0  0  0
  8  9  1  0  0  0  0
  9 10  2  0  0  0  0
 10 11  1  0  0  0  0
 11 12  1  0  0  0  0
 12 13  1  0  0  0  0
 12 17  2  0  0  0  0
 13 14  2  0  0  0  0
 14 15  1  0  0  0  0
 15 16  1  0  0  0  0
 15 27  1  0  0  0  0
 16 17  1  0  0  0  0
 16 30  2  0  0  0  0
 17 28  1  0  0  0  0
 18 19  2  0  0  0  0
 18 20  2  0  0  0  0
 18 21  1  0  0  0  0
 21 24  1  0  0  0  0
 21 25  1  0  0  0  0
 21 26  1  0  0  0  0
 28 29  2  0  0  0  0
 29 30  1  0  0  0  0
  1 31  1  0  0  0  0
  2 32  1  0  0  0  0
  4 33  1  0  0  0  0
  4 34  1  0  0  0  0
  8 35  1  0  0  0  0
  9 36  1  0  0  0  0
 13 37  1  0  0  0  0
 14 38  1  0  0  0  0
 15 39  1  0  0  0  0
 28 40  1  0  0  0  0
M  END
> <ID>
266

> <IC50[uM](SPA)>
0.019

$$$$
266
  -OEChem-05192314313D
 Structure written by MMmdl.
 40 43  0     1  0  0  0  0  0999 V2000
   27.8850    0.9567  -11.2360 O   0  0  0  0  0  0  0  0  0  0  0  0
   26.9261    0.0753  -11.8170 C   0  0  2  0  0  0  0  0  0  0  0  0
   26.2094    0.6442  -13.0561 C   0  0  0  0  0  0  0  0  0  0  0  0
   24.7392    0.3196  -12.9441 C   0  0  0  0  0  0  0  0  0  0  0  0
   24.5470   -0.0317  -11.5054 C   0  0  0  0  0  0  0  0  0  0  0  0
   25.7726   -0.2517  -10.8650 C   0  0  0  0  0  0  0  0  0  0  0  0
   25.7777   -0.7392   -9.5446 C   0  0  0  0  0  0  0  0  0  0  0  0
   24.5645   -0.9350   -8.8805 C   0  0  0  0  0  0  0  0  0  0  0  0
   23.3575   -0.7307   -9.5431 C   0  0  0  0  0  0  0  0  0  0  0  0
   23.3449   -0.3000  -10.8665 C   0  0  0  0  0  0  0  0  0  0  0  0
   22.1962   -0.0469  -11.5824 O   0  0  0  0  0  0  0  0  0  0  0  0
   21.0227   -0.6665  -11.2348 C   0  0  0  0  0  0  0  0  0  0  0  0
   20.7734   -2.0189  -11.4693 C   0  0  0  0  0  0  0  0  0  0  0  0
   19.5565   -2.5922  -11.1030 C   0  0  0  0  0  0  0  0  0  0  0  0
   18.5893   -1.8651  -10.4156 C   0  0  0  0  0  0  0  0  0  0  0  0
   18.8672   -0.5266  -10.1509 C   0  0  0  0  0  0  0  0  0  0  0  0
   20.0493    0.0994  -10.5813 C   0  0  0  0  0  0  0  0  0  0  0  0
   27.2967   -1.1713   -8.6869 S   0  0  0  0  0  0  0  0  0  0  0  0
   28.2927   -1.4686   -9.7151 O   0  0  0  0  0  0  0  0  0  0  0  0
   26.9743   -2.2137   -7.7071 O   0  0  0  0  0  0  0  0  0  0  0  0
   27.7762    0.4223   -7.7641 C   0  0  0  0  0  0  0  0  0  0  0  0
   26.6880    0.1745  -14.2084 F   0  0  0  0  0  0  0  0  0  0  0  0
   26.3100    1.9665  -13.0637 F   0  0  0  0  0  0  0  0  0  0  0  0
   27.0858    0.4659   -6.6244 F   0  0  0  0  0  0  0  0  0  0  0  0
   29.0853    0.3799   -7.5200 F   0  0  0  0  0  0  0  0  0  0  0  0
   27.4854    1.4761   -8.5193 F   0  0  0  0  0  0  0  0  0  0  0  0
   17.4363   -2.4330  -10.0129 F   0  0  0  0  0  0  0  0  0  0  0  0
   19.8832    1.4504  -10.1680 C   0  0  0  0  0  0  0  0  0  0  0  0
   18.7801    1.6341   -9.4994 N   0  0  0  0  0  0  0  0  0  0  0  0
   18.1820    0.4453   -9.4619 N   0  0  0  0  0  0  0  0  0  0  0  0
   28.3562    0.5030  -10.5471 H   0  0  0  0  0  0  0  0  0  0  0  0
   27.4147   -0.8672  -12.1050 H   0  0  0  0  0  0  0  0  0  0  0  0
   24.1259    1.1908  -13.2177 H   0  0  0  0  0  0  0  0  0  0  0  0
   24.4776   -0.5307  -13.5911 H   0  0  0  0  0  0  0  0  0  0  0  0
   24.5630   -1.2468   -7.8465 H   0  0  0  0  0  0  0  0  0  0  0  0
   22.4253   -0.9075   -9.0272 H   0  0  0  0  0  0  0  0  0  0  0  0
   21.5310   -2.6282  -11.9395 H   0  0  0  0  0  0  0  0  0  0  0  0
   19.3601   -3.6231  -11.3583 H   0  0  0  0  0  0  0  0  0  0  0  0
   19.5785    0.3330  -11.5476 H   0  0  0  0  0  0  0  0  0  0  0  0
   20.5921    2.2359  -10.3842 H   0  0  0  0  0  0  0  0  0  0  0  0
  1  2  1  0  0  0  0
  2  3  1  0  0  0  0
  2  6  1  0  0  0  0
  3  4  1  0  0  0  0
  3 22  1  0  0  0  0
  3 23  1  0  0  0  0
  4  5  1  0  0  0  0
  5  6  2  0  0  0  0
  5 10  1  0  0  0  0
  6  7  1  0  0  0  0
  7  8  2  0  0  0  0
  7 18  1  0  0  0  0
  8  9  1  0  0  0  0
  9 10  2  0  0  0  0
 10 11  1  0  0  0  0
 11 12  1  0  0  0  0
 12 13  2  0  0  0  0
 12 17  1  0  0  0  0
 13 14  1  0  0  0  0
 14 15  2  0  0  0  0
 15 16  1  0  0  0  0
 15 27  1  0  0  0  0
 16 17  1  0  0  0  0
 16 30  2  0  0  0  0
 17 28  1  0  0  0  0
 18 19  2  0  0  0  0
 18 20  2  0  0  0  0
 18 21  1  0  0  0  0
 21 24  1  0  0  0  0
 21 25  1  0  0  0  0
 21 26  1  0  0  0  0
 28 29  2  0  0  0  0
 29 30  1  0  0  0  0
  1 31  1  0  0  0  0
  2 32  1  0  0  0  0
  4 33  1  0  0  0  0
  4 34  1  0  0  0  0
  8 35  1  0  0  0  0
  9 36  1  0  0  0  0
 13 37  1  0  0  0  0
 14 38  1  0  0  0  0
 17 39  1  0  0  0  0
 28 40  1  0  0  0  0
M  END
> <ID>
266

> <IC50[uM](SPA)>
0.019

$$$$
266
  -OEChem-05192314313D
 Structure written by MMmdl.
 40 43  0     1  0  0  0  0  0999 V2000
   27.8850    0.9567  -11.2360 O   0  0  0  0  0  0  0  0  0  0  0  0
   26.9261    0.0753  -11.8170 C   0  0  2  0  0  0  0  0  0  0  0  0
   26.2094    0.6442  -13.0561 C   0  0  0  0  0  0  0  0  0  0  0  0
   24.7392    0.3196  -12.9441 C   0  0  0  0  0  0  0  0  0  0  0  0
   24.5470   -0.0317  -11.5054 C   0  0  0  0  0  0  0  0  0  0  0  0
   25.7726   -0.2517  -10.8650 C   0  0  0  0  0  0  0  0  0  0  0  0
   25.7777   -0.7392   -9.5446 C   0  0  0  0  0  0  0  0  0  0  0  0
   24.5645   -0.9350   -8.8805 C   0  0  0  0  0  0  0  0  0  0  0  0
   23.3575   -0.7307   -9.5431 C   0  0  0  0  0  0  0  0  0  0  0  0
   23.3449   -0.3000  -10.8665 C   0  0  0  0  0  0  0  0  0  0  0  0
   22.1962   -0.0469  -11.5824 O   0  0  0  0  0  0  0  0  0  0  0  0
   21.0227   -0.6665  -11.2348 C   0  0  0  0  0  0  0  0  0  0  0  0
   20.7734   -2.0189  -11.4693 C   0  0  0  0  0  0  0  0  0  0  0  0
   19.5565   -2.5922  -11.1030 C   0  0  0  0  0  0  0  0  0  0  0  0
   18.5893   -1.8651  -10.4156 C   0  0  0  0  0  0  0  0  0  0  0  0
   18.8672   -0.5266  -10.1509 C   0  0  0  0  0  0  0  0  0  0  0  0
   20.0493    0.0994  -10.5813 C   0  0  0  0  0  0  0  0  0  0  0  0
   27.2967   -1.1713   -8.6869 S   0  0  0  0  0  0  0  0  0  0  0  0
   28.2927   -1.4686   -9.7151 O   0  0  0  0  0  0  0  0  0  0  0  0
   26.9743   -2.2137   -7.7071 O   0  0  0  0  0  0  0  0  0  0  0  0
   27.7762    0.4223   -7.7641 C   0  0  0  0  0  0  0  0  0  0  0  0
   26.6880    0.1745  -14.2084 F   0  0  0  0  0  0  0  0  0  0  0  0
   26.3100    1.9665  -13.0637 F   0  0  0  0  0  0  0  0  0  0  0  0
   27.0858    0.4659   -6.6244 F   0  0  0  0  0  0  0  0  0  0  0  0
   29.0853    0.3799   -7.5200 F   0  0  0  0  0  0  0  0  0  0  0  0
   27.4854    1.4761   -8.5193 F   0  0  0  0  0  0  0  0  0  0  0  0
   17.4363   -2.4330  -10.0129 F   0  0  0  0  0  0  0  0  0  0  0  0
   19.8832    1.4504  -10.1680 C   0  0  0  0  0  0  0  0  0  0  0  0
   18.7801    1.6341   -9.4994 N   0  0  0  0  0  0  0  0  0  0  0  0
   18.1820    0.4453   -9.4619 N   0  0  0  0  0  0  0  0  0  0  0  0
   28.3562    0.5030  -10.5471 H   0  0  0  0  0  0  0  0  0  0  0  0
   27.4147   -0.8672  -12.1050 H   0  0  0  0  0  0  0  0  0  0  0  0
   24.1259    1.1908  -13.2177 H   0  0  0  0  0  0  0  0  0  0  0  0
   24.4776   -0.5307  -13.5911 H   0  0  0  0  0  0  0  0  0  0  0  0
   24.5630   -1.2468   -7.8465 H   0  0  0  0  0  0  0  0  0  0  0  0
   22.4253   -0.9075   -9.0272 H   0  0  0  0  0  0  0  0  0  0  0  0
   20.8807   -2.1749  -12.5529 H   0  0  0  0  0  0  0  0  0  0  0  0
   21.5572   -2.5795  -10.9388 H   0  0  0  0  0  0  0  0  0  0  0  0
   19.3601   -3.6231  -11.3583 H   0  0  0  0  0  0  0  0  0  0  0  0
   20.5921    2.2359  -10.3842 H   0  0  0  0  0  0  0  0  0  0  0  0
  1  2  1  0  0  0  0
  2  3  1  0  0  0  0
  2  6  1  0  0  0  0
  3  4  1  0  0  0  0
  3 22  1  0  0  0  0
  3 23  1  0  0  0  0
  4  5  1  0  0  0  0
  5  6  2  0  0  0  0
  5 10  1  0  0  0  0
  6  7  1  0  0  0  0
  7  8  2  0  0  0  0
  7 18  1  0  0  0  0
  8  9  1  0  0  0  0
  9 10  2  0  0  0  0
 10 11  1  0  0  0  0
 11 12  1  0  0  0  0
 12 13  1  0  0  0  0
 12 17  2  0  0  0  0
 13 14  1  0  0  0  0
 14 15  2  0  0  0  0
 15 16  1  0  0  0  0
 15 27  1  0  0  0  0
 16 17  1  0  0  0  0
 16 30  2  0  0  0  0
 17 28  1  0  0  0  0
 18 19  2  0  0  0  0
 18 20  2  0  0  0  0
 18 21  1  0  0  0  0
 21 24  1  0  0  0  0
 21 25  1  0  0  0  0
 21 26  1  0  0  0  0
 28 29  2  0  0  0  0
 29 30  1  0  0  0  0
  1 31  1  0  0  0  0
  2 32  1  0  0  0  0
  4 33  1  0  0  0  0
  4 34  1  0  0  0  0
  8 35  1  0  0  0  0
  9 36  1  0  0  0  0
 13 37  1  0  0  0  0
 13 38  1  0  0  0  0
 14 39  1  0  0  0  0
 28 40  1  0  0  0  0
M  END
> <ID>
266

> <IC50[uM](SPA)>
0.019

$$$$
266
  -OEChem-05192314313D
 Structure written by MMmdl.
 40 43  0     1  0  0  0  0  0999 V2000
   27.8850    0.9567  -11.2360 O   0  0  0  0  0  0  0  0  0  0  0  0
   26.9261    0.0753  -11.8170 C   0  0  2  0  0  0  0  0  0  0  0  0
   26.2094    0.6442  -13.0561 C   0  0  0  0  0  0  0  0  0  0  0  0
   24.7392    0.3196  -12.9441 C   0  0  0  0  0  0  0  0  0  0  0  0
   24.5470   -0.0317  -11.5054 C   0  0  0  0  0  0  0  0  0  0  0  0
   25.7726   -0.2517  -10.8650 C   0  0  0  0  0  0  0  0  0  0  0  0
   25.7777   -0.7392   -9.5446 C   0  0  0  0  0  0  0  0  0  0  0  0
   24.5645   -0.9350   -8.8805 C   0  0  0  0  0  0  0  0  0  0  0  0
   23.3575   -0.7307   -9.5431 C   0  0  0  0  0  0  0  0  0  0  0  0
   23.3449   -0.3000  -10.8665 C   0  0  0  0  0  0  0  0  0  0  0  0
   22.1962   -0.0469  -11.5824 O   0  0  0  0  0  0  0  0  0  0  0  0
   21.0227   -0.6665  -11.2348 C   0  0  0  0  0  0  0  0  0  0  0  0
   20.7734   -2.0189  -11.4693 C   0  0  0  0  0  0  0  0  0  0  0  0
   19.5565   -2.5922  -11.1030 C   0  0  0  0  0  0  0  0  0  0  0  0
   18.5893   -1.8651  -10.4156 C   0  0  0  0  0  0  0  0  0  0  0  0
   18.8672   -0.5266  -10.1509 C   0  0  0  0  0  0  0  0  0  0  0  0
   20.0493    0.0994  -10.5813 C   0  0  0  0  0  0  0  0  0  0  0  0
   27.2967   -1.1713   -8.6869 S   0  0  0  0  0  0  0  0  0  0  0  0
   28.2927   -1.4686   -9.7151 O   0  0  0  0  0  0  0  0  0  0  0  0
   26.9743   -2.2137   -7.7071 O   0  0  0  0  0  0  0  0  0  0  0  0
   27.7762    0.4223   -7.7641 C   0  0  0  0  0  0  0  0  0  0  0  0
   26.6880    0.1745  -14.2084 F   0  0  0  0  0  0  0  0  0  0  0  0
   26.3100    1.9665  -13.0637 F   0  0  0  0  0  0  0  0  0  0  0  0
   27.0858    0.4659   -6.6244 F   0  0  0  0  0  0  0  0  0  0  0  0
   29.0853    0.3799   -7.5200 F   0  0  0  0  0  0  0  0  0  0  0  0
   27.4854    1.4761   -8.5193 F   0  0  0  0  0  0  0  0  0  0  0  0
   17.4363   -2.4330  -10.0129 F   0  0  0  0  0  0  0  0  0  0  0  0
   19.8832    1.4504  -10.1680 C   0  0  0  0  0  0  0  0  0  0  0  0
   18.7801    1.6341   -9.4994 N   0  0  0  0  0  0  0  0  0  0  0  0
   18.1820    0.4453   -9.4619 N   0  0  0  0  0  0  0  0  0  0  0  0
   28.3562    0.5030  -10.5471 H   0  0  0  0  0  0  0  0  0  0  0  0
   27.4147   -0.8672  -12.1050 H   0  0  0  0  0  0  0  0  0  0  0  0
   24.1259    1.1908  -13.2177 H   0  0  0  0  0  0  0  0  0  0  0  0
   24.4776   -0.5307  -13.5911 H   0  0  0  0  0  0  0  0  0  0  0  0
   24.5630   -1.2468   -7.8465 H   0  0  0  0  0  0  0  0  0  0  0  0
   22.4253   -0.9075   -9.0272 H   0  0  0  0  0  0  0  0  0  0  0  0
   21.5310   -2.6282  -11.9395 H   0  0  0  0  0  0  0  0  0  0  0  0
   19.3601   -3.6231  -11.3583 H   0  0  0  0  0  0  0  0  0  0  0  0
   18.3633   -0.2307  -11.0829 H   0  0  0  0  0  0  0  0  0  0  0  0
   20.5921    2.2359  -10.3842 H   0  0  0  0  0  0  0  0  0  0  0  0
  1  2  1  0  0  0  0
  2  3  1  0  0  0  0
  2  6  1  0  0  0  0
  3  4  1  0  0  0  0
  3 22  1  0  0  0  0
  3 23  1  0  0  0  0
  4  5  1  0  0  0  0
  5  6  2  0  0  0  0
  5 10  1  0  0  0  0
  6  7  1  0  0  0  0
  7  8  2  0  0  0  0
  7 18  1  0  0  0  0
  8  9  1  0  0  0  0
  9 10  2  0  0  0  0
 10 11  1  0  0  0  0
 11 12  1  0  0  0  0
 12 13  2  0  0  0  0
 12 17  1  0  0  0  0
 13 14  1  0  0  0  0
 14 15  2  0  0  0  0
 15 16  1  0  0  0  0
 15 27  1  0  0  0  0
 16 17  1  0  0  0  0
 16 30  1  0  0  0  0
 17 28  2  0  0  0  0
 18 19  2  0  0  0  0
 18 20  2  0  0  0  0
 18 21  1  0  0  0  0
 21 24  1  0  0  0  0
 21 25  1  0  0  0  0
 21 26  1  0  0  0  0
 28 29  1  0  0  0  0
 29 30  2  0  0  0  0
  1 31  1  0  0  0  0
  2 32  1  0  0  0  0
  4 33  1  0  0  0  0
  4 34  1  0  0  0  0
  8 35  1  0  0  0  0
  9 36  1  0  0  0  0
 13 37  1  0  0  0  0
 14 38  1  0  0  0  0
 16 39  1  0  0  0  0
 28 40  1  0  0  0  0
M  END
> <ID>
266

> <IC50[uM](SPA)>
0.019

$$$$
266
  -OEChem-05192314313D
 Structure written by MMmdl.
 40 43  0     1  0  0  0  0  0999 V2000
   27.8850    0.9567  -11.2360 O   0  0  0  0  0  0  0  0  0  0  0  0
   26.9261    0.0753  -11.8170 C   0  0  2  0  0  0  0  0  0  0  0  0
   26.2094    0.6442  -13.0561 C   0  0  0  0  0  0  0  0  0  0  0  0
   24.7392    0.3196  -12.9441 C   0  0  0  0  0  0  0  0  0  0  0  0
   24.5470   -0.0317  -11.5054 C   0  0  0  0  0  0  0  0  0  0  0  0
   25.7726   -0.2517  -10.8650 C   0  0  0  0  0  0  0  0  0  0  0  0
   25.7777   -0.7392   -9.5446 C   0  0  0  0  0  0  0  0  0  0  0  0
   24.5645   -0.9350   -8.8805 C   0  0  0  0  0  0  0  0  0  0  0  0
   23.3575   -0.7307   -9.5431 C   0  0  0  0  0  0  0  0  0  0  0  0
   23.3449   -0.3000  -10.8665 C   0  0  0  0  0  0  0  0  0  0  0  0
   22.1962   -0.0469  -11.5824 O   0  0  0  0  0  0  0  0  0  0  0  0
   21.0227   -0.6665  -11.2348 C   0  0  0  0  0  0  0  0  0  0  0  0
   20.7734   -2.0189  -11.4693 C   0  0  0  0  0  0  0  0  0  0  0  0
   19.5565   -2.5922  -11.1030 C   0  0  0  0  0  0  0  0  0  0  0  0
   18.5893   -1.8651  -10.4156 C   0  0  0  0  0  0  0  0  0  0  0  0
   18.8672   -0.5266  -10.1509 C   0  0  0  0  0  0  0  0  0  0  0  0
   20.0493    0.0994  -10.5813 C   0  0  0  0  0  0  0  0  0  0  0  0
   27.2967   -1.1713   -8.6869 S   0  0  0  0  0  0  0  0  0  0  0  0
   28.2927   -1.4686   -9.7151 O   0  0  0  0  0  0  0  0  0  0  0  0
   26.9743   -2.2137   -7.7071 O   0  0  0  0  0  0  0  0  0  0  0  0
   27.7762    0.4223   -7.7641 C   0  0  0  0  0  0  0  0  0  0  0  0
   26.6880    0.1745  -14.2084 F   0  0  0  0  0  0  0  0  0  0  0  0
   26.3100    1.9665  -13.0637 F   0  0  0  0  0  0  0  0  0  0  0  0
   27.0858    0.4659   -6.6244 F   0  0  0  0  0  0  0  0  0  0  0  0
   29.0853    0.3799   -7.5200 F   0  0  0  0  0  0  0  0  0  0  0  0
   27.4854    1.4761   -8.5193 F   0  0  0  0  0  0  0  0  0  0  0  0
   17.4363   -2.4330  -10.0129 F   0  0  0  0  0  0  0  0  0  0  0  0
   19.8832    1.4504  -10.1680 C   0  0  0  0  0  0  0  0  0  0  0  0
   18.7801    1.6341   -9.4994 N   0  0  0  0  0  0  0  0  0  0  0  0
   18.1820    0.4453   -9.4619 N   0  0  0  0  0  0  0  0  0  0  0  0
   28.3562    0.5030  -10.5471 H   0  0  0  0  0  0  0  0  0  0  0  0
   27.4147   -0.8672  -12.1050 H   0  0  0  0  0  0  0  0  0  0  0  0
   24.1259    1.1908  -13.2177 H   0  0  0  0  0  0  0  0  0  0  0  0
   24.4776   -0.5307  -13.5911 H   0  0  0  0  0  0  0  0  0  0  0  0
   24.5630   -1.2468   -7.8465 H   0  0  0  0  0  0  0  0  0  0  0  0
   22.4253   -0.9075   -9.0272 H   0  0  0  0  0  0  0  0  0  0  0  0
   20.5855   -0.4070  -12.2103 H   0  0  0  0  0  0  0  0  0  0  0  0
   21.5310   -2.6282  -11.9395 H   0  0  0  0  0  0  0  0  0  0  0  0
   19.3601   -3.6231  -11.3583 H   0  0  0  0  0  0  0  0  0  0  0  0
   20.5921    2.2359  -10.3842 H   0  0  0  0  0  0  0  0  0  0  0  0
  1  2  1  0  0  0  0
  2  3  1  0  0  0  0
  2  6  1  0  0  0  0
  3  4  1  0  0  0  0
  3 22  1  0  0  0  0
  3 23  1  0  0  0  0
  4  5  1  0  0  0  0
  5  6  2  0  0  0  0
  5 10  1  0  0  0  0
  6  7  1  0  0  0  0
  7  8  2  0  0  0  0
  7 18  1  0  0  0  0
  8  9  1  0  0  0  0
  9 10  2  0  0  0  0
 10 11  1  0  0  0  0
 11 12  1  0  0  0  0
 12 13  1  0  0  0  0
 12 17  1  0  0  0  0
 13 14  2  0  0  0  0
 14 15  1  0  0  0  0
 15 16  2  0  0  0  0
 15 27  1  0  0  0  0
 16 17  1  0  0  0  0
 16 30  1  0  0  0  0
 17 28  2  0  0  0  0
 18 19  2  0  0  0  0
 18 20  2  0  0  0  0
 18 21  1  0  0  0  0
 21 24  1  0  0  0  0
 21 25  1  0  0  0  0
 21 26  1  0  0  0  0
 28 29  1  0  0  0  0
 29 30  2  0  0  0  0
  1 31  1  0  0  0  0
  2 32  1  0  0  0  0
  4 33  1  0  0  0  0
  4 34  1  0  0  0  0
  8 35  1  0  0  0  0
  9 36  1  0  0  0  0
 12 37  1  0  0  0  0
 13 38  1  0  0  0  0
 14 39  1  0  0  0  0
 28 40  1  0  0  0  0
M  END
> <ID>
266

> <IC50[uM](SPA)>
0.019

$$$$
266
  -OEChem-05192314313D
 Structure written by MMmdl.
 40 43  0     1  0  0  0  0  0999 V2000
   27.8850    0.9567  -11.2360 O   0  0  0  0  0  0  0  0  0  0  0  0
   26.9261    0.0753  -11.8170 C   0  0  2  0  0  0  0  0  0  0  0  0
   26.2094    0.6442  -13.0561 C   0  0  0  0  0  0  0  0  0  0  0  0
   24.7392    0.3196  -12.9441 C   0  0  0  0  0  0  0  0  0  0  0  0
   24.5470   -0.0317  -11.5054 C   0  0  0  0  0  0  0  0  0  0  0  0
   25.7726   -0.2517  -10.8650 C   0  0  0  0  0  0  0  0  0  0  0  0
   25.7777   -0.7392   -9.5446 C   0  0  0  0  0  0  0  0  0  0  0  0
   24.5645   -0.9350   -8.8805 C   0  0  0  0  0  0  0  0  0  0  0  0
   23.3575   -0.7307   -9.5431 C   0  0  0  0  0  0  0  0  0  0  0  0
   23.3449   -0.3000  -10.8665 C   0  0  0  0  0  0  0  0  0  0  0  0
   22.1962   -0.0469  -11.5824 O   0  0  0  0  0  0  0  0  0  0  0  0
   21.0227   -0.6665  -11.2348 C   0  0  0  0  0  0  0  0  0  0  0  0
   20.7734   -2.0189  -11.4693 C   0  0  0  0  0  0  0  0  0  0  0  0
   19.5565   -2.5922  -11.1030 C   0  0  0  0  0  0  0  0  0  0  0  0
   18.5893   -1.8651  -10.4156 C   0  0  0  0  0  0  0  0  0  0  0  0
   18.8672   -0.5266  -10.1509 C   0  0  0  0  0  0  0  0  0  0  0  0
   20.0493    0.0994  -10.5813 C   0  0  0  0  0  0  0  0  0  0  0  0
   27.2967   -1.1713   -8.6869 S   0  0  0  0  0  0  0  0  0  0  0  0
   28.2927   -1.4686   -9.7151 O   0  0  0  0  0  0  0  0  0  0  0  0
   26.9743   -2.2137   -7.7071 O   0  0  0  0  0  0  0  0  0  0  0  0
   27.7762    0.4223   -7.7641 C   0  0  0  0  0  0  0  0  0  0  0  0
   26.6880    0.1745  -14.2084 F   0  0  0  0  0  0  0  0  0  0  0  0
   26.3100    1.9665  -13.0637 F   0  0  0  0  0  0  0  0  0  0  0  0
   27.0858    0.4659   -6.6244 F   0  0  0  0  0  0  0  0  0  0  0  0
   29.0853    0.3799   -7.5200 F   0  0  0  0  0  0  0  0  0  0  0  0
   27.4854    1.4761   -8.5193 F   0  0  0  0  0  0  0  0  0  0  0  0
   17.4363   -2.4330  -10.0129 F   0  0  0  0  0  0  0  0  0  0  0  0
   19.8832    1.4504  -10.1680 C   0  0  0  0  0  0  0  0  0  0  0  0
   18.7801    1.6341   -9.4994 N   0  0  0  0  0  0  0  0  0  0  0  0
   18.1820    0.4453   -9.4619 N   0  0  0  0  0  0  0  0  0  0  0  0
   28.3562    0.5030  -10.5471 H   0  0  0  0  0  0  0  0  0  0  0  0
   27.4147   -0.8672  -12.1050 H   0  0  0  0  0  0  0  0  0  0  0  0
   24.1259    1.1908  -13.2177 H   0  0  0  0  0  0  0  0  0  0  0  0
   24.4776   -0.5307  -13.5911 H   0  0  0  0  0  0  0  0  0  0  0  0
   24.5630   -1.2468   -7.8465 H   0  0  0  0  0  0  0  0  0  0  0  0
   22.4253   -0.9075   -9.0272 H   0  0  0  0  0  0  0  0  0  0  0  0
   21.5310   -2.6282  -11.9395 H   0  0  0  0  0  0  0  0  0  0  0  0
   19.0827   -2.9368  -12.0340 H   0  0  0  0  0  0  0  0  0  0  0  0
   19.7994   -3.4600  -10.4722 H   0  0  0  0  0  0  0  0  0  0  0  0
   20.5921    2.2359  -10.3842 H   0  0  0  0  0  0  0  0  0  0  0  0
  1  2  1  0  0  0  0
  2  3  1  0  0  0  0
  2  6  1  0  0  0  0
  3  4  1  0  0  0  0
  3 22  1  0  0  0  0
  3 23  1  0  0  0  0
  4  5  1  0  0  0  0
  5  6  2  0  0  0  0
  5 10  1  0  0  0  0
  6  7  1  0  0  0  0
  7  8  2  0  0  0  0
  7 18  1  0  0  0  0
  8  9  1  0  0  0  0
  9 10  2  0  0  0  0
 10 11  1  0  0  0  0
 11 12  1  0  0  0  0
 12 13  2  0  0  0  0
 12 17  1  0  0  0  0
 13 14  1  0  0  0  0
 14 15  1  0  0  0  0
 15 16  2  0  0  0  0
 15 27  1  0  0  0  0
 16 17  1  0  0  0  0
 16 30  1  0  0  0  0
 17 28  2  0  0  0  0
 18 19  2  0  0  0  0
 18 20  2  0  0  0  0
 18 21  1  0  0  0  0
 21 24  1  0  0  0  0
 21 25  1  0  0  0  0
 21 26  1  0  0  0  0
 28 29  1  0  0  0  0
 29 30  2  0  0  0  0
  1 31  1  0  0  0  0
  2 32  1  0  0  0  0
  4 33  1  0  0  0  0
  4 34  1  0  0  0  0
  8 35  1  0  0  0  0
  9 36  1  0  0  0  0
 13 37  1  0  0  0  0
 14 38  1  0  0  0  0
 14 39  1  0  0  0  0
 28 40  1  0  0  0  0
M  END
> <ID>
266

> <IC50[uM](SPA)>
0.019

$$$$
