15
  -OEChem-05192314313D
 Structure written by MMmdl.
 38 40  0     1  0  0  0  0  0999 V2000
   27.5645    1.5617  -11.2470 O   0  0  0  0  0  0  0  0  0  0  0  0
   27.1438    0.2894  -11.6866 C   0  0  2  0  0  0  0  0  0  0  0  0
   26.5069    0.3556  -13.0757 C   0  0  0  0  0  0  0  0  0  0  0  0
   25.0262    0.5977  -12.8413 C   0  0  0  0  0  0  0  0  0  0  0  0
   24.8031   -0.0727  -11.5007 C   0  0  0  0  0  0  0  0  0  0  0  0
   26.0146   -0.2359  -10.8163 C   0  0  0  0  0  0  0  0  0  0  0  0
   26.0213   -0.7692   -9.5151 C   0  0  0  0  0  0  0  0  0  0  0  0
   24.8049   -1.0873   -8.9042 C   0  0  0  0  0  0  0  0  0  0  0  0
   23.6051   -0.9368   -9.5930 C   0  0  0  0  0  0  0  0  0  0  0  0
   23.6014   -0.4415  -10.9017 C   0  0  0  0  0  0  0  0  0  0  0  0
   22.4836   -0.2868  -11.6891 O   0  0  0  0  0  0  0  0  0  0  0  0
   21.2430   -0.5721  -11.1917 C   0  0  0  0  0  0  0  0  0  0  0  0
   20.6758   -1.8287  -11.4014 C   0  0  0  0  0  0  0  0  0  0  0  0
   19.4200   -2.1085  -10.8706 C   0  0  0  0  0  0  0  0  0  0  0  0
   18.8549   -3.3186  -11.0589 F   0  0  0  0  0  0  0  0  0  0  0  0
   18.7372   -1.1390  -10.1439 C   0  0  0  0  0  0  0  0  0  0  0  0
   19.2837    0.1313   -9.9594 C   0  0  0  0  0  0  0  0  0  0  0  0
   18.5786    1.1709   -9.2254 C   0  0  0  0  0  0  0  0  0  0  0  0
   20.5524    0.3981  -10.4669 C   0  0  0  0  0  0  0  0  0  0  0  0
   27.5332   -1.0635   -8.5894 S   0  0  0  0  0  0  0  0  0  0  0  0
   27.2225   -2.0202   -7.5218 O   0  0  0  0  0  0  0  0  0  0  0  0
   28.5866   -1.4048   -9.5424 O   0  0  0  0  0  0  0  0  0  0  0  0
   27.9649    0.6070   -7.8096 C   0  0  0  0  0  0  0  0  0  0  0  0
   27.9127    1.5706   -8.7312 F   0  0  0  0  0  0  0  0  0  0  0  0
   27.1075    0.8491   -6.8159 F   0  0  0  0  0  0  0  0  0  0  0  0
   27.0532    1.2940  -13.8508 F   0  0  0  0  0  0  0  0  0  0  0  0
   26.6473   -0.8235  -13.6788 F   0  0  0  0  0  0  0  0  0  0  0  0
   18.0226    1.9829   -8.6098 N   0  0  0  0  0  0  0  0  0  0  0  0
   27.9544    1.4861  -10.3840 H   0  0  0  0  0  0  0  0  0  0  0  0
   27.9761   -0.4298  -11.6936 H   0  0  0  0  0  0  0  0  0  0  0  0
   24.8003    1.6731  -12.7924 H   0  0  0  0  0  0  0  0  0  0  0  0
   24.4158    0.1302  -13.6280 H   0  0  0  0  0  0  0  0  0  0  0  0
   24.7961   -1.4533   -7.8881 H   0  0  0  0  0  0  0  0  0  0  0  0
   22.6736   -1.2032   -9.1158 H   0  0  0  0  0  0  0  0  0  0  0  0
   21.2061   -2.5779  -11.9705 H   0  0  0  0  0  0  0  0  0  0  0  0
   17.7727   -1.3722   -9.7175 H   0  0  0  0  0  0  0  0  0  0  0  0
   21.0050    1.3640  -10.2978 H   0  0  0  0  0  0  0  0  0  0  0  0
   28.9884    0.4801   -7.4271 H   0  0  0  0  0  0  0  0  0  0  0  0
  1  2  1  0  0  0  0
  2  3  1  0  0  0  0
  2  6  1  0  0  0  0
  3  4  1  0  0  0  0
  3 26  1  0  0  0  0
  3 27  1  0  0  0  0
  4  5  1  0  0  0  0
  5  6  2  0  0  0  0
  5 10  1  0  0  0  0
  6  7  1  0  0  0  0
  7  8  2  0  0  0  0
  7 20  1  0  0  0  0
  8  9  1  0  0  0  0
  9 10  2  0  0  0  0
 10 11  1  0  0  0  0
 11 12  1  0  0  0  0
 12 13  2  0  0  0  0
 12 19  1  0  0  0  0
 13 14  1  0  0  0  0
 14 15  1  0  0  0  0
 14 16  2  0  0  0  0
 16 17  1  0  0  0  0
 17 18  1  0  0  0  0
 17 19  2  0  0  0  0
 18 28  3  0  0  0  0
 20 21  2  0  0  0  0
 20 22  2  0  0  0  0
 20 23  1  0  0  0  0
 23 24  1  0  0  0  0
 23 25  1  0  0  0  0
  1 29  1  0  0  0  0
  2 30  1  0  0  0  0
  4 31  1  0  0  0  0
  4 32  1  0  0  0  0
  8 33  1  0  0  0  0
  9 34  1  0  0  0  0
 13 35  1  0  0  0  0
 16 36  1  0  0  0  0
 19 37  1  0  0  0  0
 23 38  1  0  0  0  0
M  END
> <ID>
15

> <IC50[uM](SPA)>
0.008

$$$$
