23
  -OEChem-05192314313D
 Structure written by MMmdl.
 38 40  0     1  0  0  0  0  0999 V2000
   27.5798    1.5235  -11.1849 O   0  0  0  0  0  0  0  0  0  0  0  0
   27.1359    0.2965  -11.6771 C   0  0  2  0  0  0  0  0  0  0  0  0
   26.5177    0.4046  -13.0685 C   0  0  1  0  0  0  0  0  0  0  0  0
   25.0171    0.5901  -12.8411 C   0  0  0  0  0  0  0  0  0  0  0  0
   24.8195   -0.0696  -11.5047 C   0  0  0  0  0  0  0  0  0  0  0  0
   26.0204   -0.2306  -10.8289 C   0  0  0  0  0  0  0  0  0  0  0  0
   26.0077   -0.7642   -9.5085 C   0  0  0  0  0  0  0  0  0  0  0  0
   24.8269   -1.0884   -8.9088 C   0  0  0  0  0  0  0  0  0  0  0  0
   23.5995   -0.9354   -9.6045 C   0  0  0  0  0  0  0  0  0  0  0  0
   23.5962   -0.4510  -10.8982 C   0  0  0  0  0  0  0  0  0  0  0  0
   22.4844   -0.2684  -11.6800 O   0  0  0  0  0  0  0  0  0  0  0  0
   21.2404   -0.5613  -11.1739 C   0  0  0  0  0  0  0  0  0  0  0  0
   20.5576    0.3996  -10.4453 C   0  0  0  0  0  0  0  0  0  0  0  0
   19.2837    0.1051   -9.9375 C   0  0  0  0  0  0  0  0  0  0  0  0
   18.6058    1.0679   -9.2497 F   0  0  0  0  0  0  0  0  0  0  0  0
   18.7338   -1.1345  -10.1306 C   0  0  0  0  0  0  0  0  0  0  0  0
   19.4232   -2.1096  -10.8804 C   0  0  0  0  0  0  0  0  0  0  0  0
   18.8528   -3.3134  -11.0758 F   0  0  0  0  0  0  0  0  0  0  0  0
   20.6704   -1.8200  -11.3967 C   0  0  0  0  0  0  0  0  0  0  0  0
   27.5347   -1.0647   -8.5760 S   0  0  0  0  0  0  0  0  0  0  0  0
   27.2199   -2.0185   -7.5306 O   0  0  0  0  0  0  0  0  0  0  0  0
   28.5959   -1.3615   -9.5279 O   0  0  0  0  0  0  0  0  0  0  0  0
   27.9440    0.6097   -7.7719 C   0  0  0  0  0  0  0  0  0  0  0  0
   27.8264    1.5664   -8.6650 F   0  0  0  0  0  0  0  0  0  0  0  0
   27.0972    0.7943   -6.7402 F   0  0  0  0  0  0  0  0  0  0  0  0
   27.0792    1.3725  -13.8825 O   0  0  0  0  0  0  0  0  0  0  0  0
   27.9542    1.4017  -10.3203 H   0  0  0  0  0  0  0  0  0  0  0  0
   27.9551   -0.4371  -11.7033 H   0  0  0  0  0  0  0  0  0  0  0  0
   26.6465   -0.5759  -13.5502 H   0  0  0  0  0  0  0  0  0  0  0  0
   24.7472    1.6558  -12.8045 H   0  0  0  0  0  0  0  0  0  0  0  0
   24.4293    0.0896  -13.6247 H   0  0  0  0  0  0  0  0  0  0  0  0
   24.8257   -1.4646   -7.8964 H   0  0  0  0  0  0  0  0  0  0  0  0
   22.6689   -1.1974   -9.1230 H   0  0  0  0  0  0  0  0  0  0  0  0
   21.0029    1.3678  -10.2698 H   0  0  0  0  0  0  0  0  0  0  0  0
   17.7679   -1.3661   -9.7067 H   0  0  0  0  0  0  0  0  0  0  0  0
   21.2047   -2.5625  -11.9708 H   0  0  0  0  0  0  0  0  0  0  0  0
   28.9812    0.5066   -7.4203 H   0  0  0  0  0  0  0  0  0  0  0  0
   26.6391    1.3732  -14.7244 H   0  0  0  0  0  0  0  0  0  0  0  0
  1  2  1  0  0  0  0
  2  3  1  0  0  0  0
  2  6  1  0  0  0  0
  3  4  1  0  0  0  0
  3 26  1  0  0  0  0
  4  5  1  0  0  0  0
  5  6  2  0  0  0  0
  5 10  1  0  0  0  0
  6  7  1  0  0  0  0
  7  8  2  0  0  0  0
  7 20  1  0  0  0  0
  8  9  1  0  0  0  0
  9 10  2  0  0  0  0
 10 11  1  0  0  0  0
 11 12  1  0  0  0  0
 12 13  2  0  0  0  0
 12 19  1  0  0  0  0
 13 14  1  0  0  0  0
 14 15  1  0  0  0  0
 14 16  2  0  0  0  0
 16 17  1  0  0  0  0
 17 18  1  0  0  0  0
 17 19  2  0  0  0  0
 20 21  2  0  0  0  0
 20 22  2  0  0  0  0
 20 23  1  0  0  0  0
 23 24  1  0  0  0  0
 23 25  1  0  0  0  0
  1 27  1  0  0  0  0
  2 28  1  0  0  0  0
  3 29  1  0  0  0  0
  4 30  1  0  0  0  0
  4 31  1  0  0  0  0
  8 32  1  0  0  0  0
  9 33  1  0  0  0  0
 13 34  1  0  0  0  0
 16 35  1  0  0  0  0
 19 36  1  0  0  0  0
 23 37  1  0  0  0  0
 26 38  1  0  0  0  0
M  END
> <ID>
23

> <IC50[uM](SPA)>
6.6

$$$$
