50
  -OEChem-05192314313D
 Structure written by MMmdl.
 33 34  0     0  0  0  0  0  0999 V2000
   27.3390    0.1920  -11.4897 C   0  0  0  0  0  0  0  0  0  0  0  0
   24.8115   -0.0320  -11.4904 C   0  0  0  0  0  0  0  0  0  0  0  0
   26.0318   -0.2159  -10.8097 C   0  0  0  0  0  0  0  0  0  0  0  0
   26.0227   -0.7765   -9.5149 C   0  0  0  0  0  0  0  0  0  0  0  0
   24.7999   -1.0827   -8.9074 C   0  0  0  0  0  0  0  0  0  0  0  0
   23.6041   -0.9361   -9.6042 C   0  0  0  0  0  0  0  0  0  0  0  0
   23.6047   -0.4331  -10.9129 C   0  0  0  0  0  0  0  0  0  0  0  0
   22.4696   -0.3076  -11.6887 O   0  0  0  0  0  0  0  0  0  0  0  0
   21.2371   -0.5820  -11.1896 C   0  0  0  0  0  0  0  0  0  0  0  0
   20.6706   -1.8347  -11.4004 C   0  0  0  0  0  0  0  0  0  0  0  0
   19.4200   -2.1133  -10.8631 C   0  0  0  0  0  0  0  0  0  0  0  0
   18.7409   -1.1381  -10.1380 C   0  0  0  0  0  0  0  0  0  0  0  0
   19.2928    0.1262   -9.9592 C   0  0  0  0  0  0  0  0  0  0  0  0
   18.4329    1.3500   -9.0987 Cl  0  0  0  0  0  0  0  0  0  0  0  0
   20.5510    0.3973  -10.4761 C   0  0  0  0  0  0  0  0  0  0  0  0
   27.5371   -1.0872   -8.5685 S   0  0  0  0  0  0  0  0  0  0  0  0
   27.2050   -2.0060   -7.4766 O   0  0  0  0  0  0  0  0  0  0  0  0
   27.9344    0.6067   -7.8551 C   0  0  0  0  0  0  0  0  0  0  0  0
   24.7666    0.6009  -12.8075 C   0  0  0  0  0  0  0  0  0  0  0  0
   24.7316    1.1052  -13.8442 N   0  0  0  0  0  0  0  0  0  0  0  0
   18.8585   -3.3227  -11.0488 F   0  0  0  0  0  0  0  0  0  0  0  0
   28.6335   -1.4776   -9.4489 O   0  0  0  0  0  0  0  0  0  0  0  0
   27.5694    1.2392  -11.2441 H   0  0  0  0  0  0  0  0  0  0  0  0
   28.1543   -0.4556  -11.1350 H   0  0  0  0  0  0  0  0  0  0  0  0
   27.2340    0.0856  -12.5795 H   0  0  0  0  0  0  0  0  0  0  0  0
   24.7839   -1.4365   -7.8871 H   0  0  0  0  0  0  0  0  0  0  0  0
   22.6712   -1.2111   -9.1346 H   0  0  0  0  0  0  0  0  0  0  0  0
   21.1969   -2.5823  -11.9752 H   0  0  0  0  0  0  0  0  0  0  0  0
   17.7758   -1.3654   -9.7099 H   0  0  0  0  0  0  0  0  0  0  0  0
   20.9988    1.3684  -10.3251 H   0  0  0  0  0  0  0  0  0  0  0  0
   28.8506    0.5444   -7.2496 H   0  0  0  0  0  0  0  0  0  0  0  0
   28.0853    1.3237   -8.6755 H   0  0  0  0  0  0  0  0  0  0  0  0
   27.0994    0.9432   -7.2229 H   0  0  0  0  0  0  0  0  0  0  0  0
  1  3  1  0  0  0  0
  2  3  2  0  0  0  0
  2  7  1  0  0  0  0
  2 19  1  0  0  0  0
  3  4  1  0  0  0  0
  4  5  2  0  0  0  0
  4 16  1  0  0  0  0
  5  6  1  0  0  0  0
  6  7  2  0  0  0  0
  7  8  1  0  0  0  0
  8  9  1  0  0  0  0
  9 10  2  0  0  0  0
  9 15  1  0  0  0  0
 10 11  1  0  0  0  0
 11 12  2  0  0  0  0
 11 21  1  0  0  0  0
 12 13  1  0  0  0  0
 13 14  1  0  0  0  0
 13 15  2  0  0  0  0
 16 17  2  0  0  0  0
 16 18  1  0  0  0  0
 16 22  2  0  0  0  0
 19 20  3  0  0  0  0
  1 23  1  0  0  0  0
  1 24  1  0  0  0  0
  1 25  1  0  0  0  0
  5 26  1  0  0  0  0
  6 27  1  0  0  0  0
 10 28  1  0  0  0  0
 12 29  1  0  0  0  0
 15 30  1  0  0  0  0
 18 31  1  0  0  0  0
 18 32  1  0  0  0  0
 18 33  1  0  0  0  0
M  END
> <ID>
50

> <IC50[uM](SPA)>
0.078

$$$$
