167
  -OEChem-05192314313D
 Structure written by MMmdl.
 38 40  0     1  0  0  0  0  0999 V2000
   27.6174    1.5478  -11.1379 O   0  0  0  0  0  0  0  0  0  0  0  0
   27.1576    0.3016  -11.6549 C   0  0  2  0  0  0  0  0  0  0  0  0
   26.5229    0.3791  -13.0512 C   0  0  0  0  0  0  0  0  0  0  0  0
   25.0317    0.5852  -12.8454 C   0  0  0  0  0  0  0  0  0  0  0  0
   24.8099   -0.0815  -11.5012 C   0  0  0  0  0  0  0  0  0  0  0  0
   26.0230   -0.2460  -10.8113 C   0  0  0  0  0  0  0  0  0  0  0  0
   26.0229   -0.7786   -9.5060 C   0  0  0  0  0  0  0  0  0  0  0  0
   24.8037   -1.0879   -8.9007 C   0  0  0  0  0  0  0  0  0  0  0  0
   23.6089   -0.9192   -9.5831 C   0  0  0  0  0  0  0  0  0  0  0  0
   23.6054   -0.4269  -10.8974 C   0  0  0  0  0  0  0  0  0  0  0  0
   22.4927   -0.2591  -11.6812 O   0  0  0  0  0  0  0  0  0  0  0  0
   21.2585   -0.5430  -11.1867 C   0  0  0  0  0  0  0  0  0  0  0  0
   20.6891   -1.7973  -11.3987 C   0  0  0  0  0  0  0  0  0  0  0  0
   19.4288   -2.0656  -10.8661 C   0  0  0  0  0  0  0  0  0  0  0  0
   18.7466   -1.1093  -10.1294 C   0  0  0  0  0  0  0  0  0  0  0  0
   19.3039    0.1671   -9.9553 C   0  0  0  0  0  0  0  0  0  0  0  0
   18.5747    1.1946   -9.2462 C   0  0  0  0  0  0  0  0  0  0  0  0
   20.5607    0.4183  -10.4590 C   0  0  0  0  0  0  0  0  0  0  0  0
   27.5352   -1.0636   -8.5830 S   0  0  0  0  0  0  0  0  0  0  0  0
   27.2233   -2.0141   -7.4936 O   0  0  0  0  0  0  0  0  0  0  0  0
   28.5909   -1.3989   -9.5185 O   0  0  0  0  0  0  0  0  0  0  0  0
   27.9412    0.6140   -7.8295 C   0  0  0  0  0  0  0  0  0  0  0  0
   27.1179    0.8438   -6.8093 F   0  0  0  0  0  0  0  0  0  0  0  0
   18.0155    2.0188   -8.6719 N   0  0  0  0  0  0  0  0  0  0  0  0
   18.6828   -3.5869  -11.1124 Cl  0  0  0  0  0  0  0  0  0  0  0  0
   27.0640    1.3150  -13.8239 F   0  0  0  0  0  0  0  0  0  0  0  0
   26.6730   -0.7998  -13.6562 F   0  0  0  0  0  0  0  0  0  0  0  0
   27.9940    1.4140  -10.2761 H   0  0  0  0  0  0  0  0  0  0  0  0
   27.9777   -0.4312  -11.6764 H   0  0  0  0  0  0  0  0  0  0  0  0
   24.7762    1.6545  -12.8093 H   0  0  0  0  0  0  0  0  0  0  0  0
   24.4464    0.0949  -13.6373 H   0  0  0  0  0  0  0  0  0  0  0  0
   24.7911   -1.4633   -7.8881 H   0  0  0  0  0  0  0  0  0  0  0  0
   22.6753   -1.1681   -9.1006 H   0  0  0  0  0  0  0  0  0  0  0  0
   21.2159   -2.5498  -11.9667 H   0  0  0  0  0  0  0  0  0  0  0  0
   17.7886   -1.3460   -9.6905 H   0  0  0  0  0  0  0  0  0  0  0  0
   21.0157    1.3824  -10.2859 H   0  0  0  0  0  0  0  0  0  0  0  0
   28.9812    0.6149   -7.4710 H   0  0  0  0  0  0  0  0  0  0  0  0
   27.8146    1.3994   -8.5892 H   0  0  0  0  0  0  0  0  0  0  0  0
  1  2  1  0  0  0  0
  2  3  1  0  0  0  0
  2  6  1  0  0  0  0
  3  4  1  0  0  0  0
  3 26  1  0  0  0  0
  3 27  1  0  0  0  0
  4  5  1  0  0  0  0
  5  6  2  0  0  0  0
  5 10  1  0  0  0  0
  6  7  1  0  0  0  0
  7  8  2  0  0  0  0
  7 19  1  0  0  0  0
  8  9  1  0  0  0  0
  9 10  2  0  0  0  0
 10 11  1  0  0  0  0
 11 12  1  0  0  0  0
 12 13  2  0  0  0  0
 12 18  1  0  0  0  0
 13 14  1  0  0  0  0
 14 15  2  0  0  0  0
 14 25  1  0  0  0  0
 15 16  1  0  0  0  0
 16 17  1  0  0  0  0
 16 18  2  0  0  0  0
 17 24  3  0  0  0  0
 19 20  2  0  0  0  0
 19 21  2  0  0  0  0
 19 22  1  0  0  0  0
 22 23  1  0  0  0  0
  1 28  1  0  0  0  0
  2 29  1  0  0  0  0
  4 30  1  0  0  0  0
  4 31  1  0  0  0  0
  8 32  1  0  0  0  0
  9 33  1  0  0  0  0
 13 34  1  0  0  0  0
 15 35  1  0  0  0  0
 18 36  1  0  0  0  0
 22 37  1  0  0  0  0
 22 38  1  0  0  0  0
M  END
> <ID>
167

> <IC50[uM](SPA)>
0.015

$$$$
