CHEMBL3402760_1
  -OEChem-05192314313D
 Structure written by MMmdl.
 61 64  0     0  0  0  0  0  0999 V2000
   24.5142   29.6953   47.9585 C   0  0  0  0  0  0  0  0  0  0  0  0
   25.0478   30.9914   47.3121 N   0  0  0  0  0  0  0  0  0  0  0  0
   25.0352   30.8721   45.7714 C   0  0  0  0  0  0  0  0  0  0  0  0
   24.2814   32.2462   47.7916 C   0  0  0  0  0  0  0  0  0  0  0  0
   24.6889   32.6254   49.2268 C   0  0  0  0  0  0  0  0  0  0  0  0
   24.0700   33.9609   49.6661 C   0  0  0  0  0  0  0  0  0  0  0  0
   24.6994   34.3776   50.8698 O   0  0  0  0  0  0  0  0  0  0  0  0
   24.2676   33.9261   52.0991 C   0  0  0  0  0  0  0  0  0  0  0  0
   25.0957   34.1824   53.1917 C   0  0  0  0  0  0  0  0  0  0  0  0
   24.7495   33.8877   54.4681 N   0  0  0  0  0  0  0  0  0  0  0  0
   23.5277   33.3148   54.6599 C   0  0  0  0  0  0  0  0  0  0  0  0
   22.6559   33.0070   53.6557 N   0  0  0  0  0  0  0  0  0  0  0  0
   23.0377   33.3162   52.3872 C   0  0  0  0  0  0  0  0  0  0  0  0
   23.1444   32.9496   56.0657 C   0  0  0  0  0  0  0  0  0  0  0  0
   24.1013   32.9515   57.0936 C   0  0  0  0  0  0  0  0  0  0  0  0
   23.7807   32.5462   58.3864 C   0  0  0  0  0  0  0  0  0  0  0  0
   22.4873   32.1321   58.6834 C   0  0  0  0  0  0  0  0  0  0  0  0
   21.5035   32.1395   57.6943 C   0  0  0  0  0  0  0  0  0  0  0  0
   20.0756   31.7262   58.0418 C   0  0  0  0  0  0  0  0  0  0  0  0
   19.7788   30.3264   57.6974 N   0  0  0  0  0  0  0  0  0  0  0  0
   19.3220   30.1063   56.3970 N   0  0  0  0  0  0  0  0  0  0  0  0
   19.0578   28.9232   55.9396 C   0  0  0  0  0  0  0  0  0  0  0  0
   19.2639   27.8190   56.8630 C   0  0  0  0  0  0  0  0  0  0  0  0
   19.7247   28.0235   58.1197 C   0  0  0  0  0  0  0  0  0  0  0  0
   20.0267   29.3467   58.6401 C   0  0  0  0  0  0  0  0  0  0  0  0
   20.4528   29.5258   59.7830 O   0  0  0  0  0  0  0  0  0  0  0  0
   18.5859   28.6953   54.5539 C   0  0  0  0  0  0  0  0  0  0  0  0
   18.8374   29.6707   53.5722 C   0  0  0  0  0  0  0  0  0  0  0  0
   18.4128   29.4909   52.2572 C   0  0  0  0  0  0  0  0  0  0  0  0
   17.7329   28.3325   51.8947 C   0  0  0  0  0  0  0  0  0  0  0  0
   17.4785   27.3446   52.8514 C   0  0  0  0  0  0  0  0  0  0  0  0
   17.9055   27.5253   54.1718 C   0  0  0  0  0  0  0  0  0  0  0  0
   16.7887   26.1237   52.4583 C   0  0  0  0  0  0  0  0  0  0  0  0
   16.2471   25.1517   52.1433 N   0  0  0  0  0  0  0  0  0  0  0  0
   21.8349   32.5514   56.3972 C   0  0  0  0  0  0  0  0  0  0  0  0
   24.5302   29.7976   49.0536 H   0  0  0  0  0  0  0  0  0  0  0  0
   23.4824   29.5158   47.6221 H   0  0  0  0  0  0  0  0  0  0  0  0
   25.1496   28.8484   47.6602 H   0  0  0  0  0  0  0  0  0  0  0  0
   25.4180   31.8031   45.3279 H   0  0  0  0  0  0  0  0  0  0  0  0
   25.6729   30.0303   45.4637 H   0  0  0  0  0  0  0  0  0  0  0  0
   24.0056   30.6977   45.4257 H   0  0  0  0  0  0  0  0  0  0  0  0
   24.5095   33.0861   47.1189 H   0  0  0  0  0  0  0  0  0  0  0  0
   23.2013   32.0395   47.7669 H   0  0  0  0  0  0  0  0  0  0  0  0
   24.3511   31.8346   49.9127 H   0  0  0  0  0  0  0  0  0  0  0  0
   25.7847   32.7088   49.2747 H   0  0  0  0  0  0  0  0  0  0  0  0
   24.2282   34.7179   48.8838 H   0  0  0  0  0  0  0  0  0  0  0  0
   22.9913   33.8309   49.8377 H   0  0  0  0  0  0  0  0  0  0  0  0
   26.0585   34.6373   53.0118 H   0  0  0  0  0  0  0  0  0  0  0  0
   22.3691   33.0835   51.5716 H   0  0  0  0  0  0  0  0  0  0  0  0
   25.1087   33.2747   56.8763 H   0  0  0  0  0  0  0  0  0  0  0  0
   24.5363   32.5535   59.1580 H   0  0  0  0  0  0  0  0  0  0  0  0
   22.2433   31.8037   59.6829 H   0  0  0  0  0  0  0  0  0  0  0  0
   19.9261   31.8597   59.1234 H   0  0  0  0  0  0  0  0  0  0  0  0
   19.3794   32.3769   57.4923 H   0  0  0  0  0  0  0  0  0  0  0  0
   19.0443   26.8124   56.5390 H   0  0  0  0  0  0  0  0  0  0  0  0
   19.8740   27.1681   58.7619 H   0  0  0  0  0  0  0  0  0  0  0  0
   19.3674   30.5723   53.8416 H   0  0  0  0  0  0  0  0  0  0  0  0
   18.6120   30.2525   51.5178 H   0  0  0  0  0  0  0  0  0  0  0  0
   17.4020   28.1963   50.8757 H   0  0  0  0  0  0  0  0  0  0  0  0
   17.7103   26.7575   54.9058 H   0  0  0  0  0  0  0  0  0  0  0  0
   21.0698   32.5639   55.6350 H   0  0  0  0  0  0  0  0  0  0  0  0
  1  2  1  0  0  0  0
  2  3  1  0  0  0  0
  2  4  1  0  0  0  0
  4  5  1  0  0  0  0
  5  6  1  0  0  0  0
  6  7  1  0  0  0  0
  7  8  1  0  0  0  0
  8  9  2  0  0  0  0
  8 13  1  0  0  0  0
  9 10  1  0  0  0  0
 10 11  2  0  0  0  0
 11 12  1  0  0  0  0
 11 14  1  0  0  0  0
 12 13  2  0  0  0  0
 14 15  2  0  0  0  0
 14 35  1  0  0  0  0
 15 16  1  0  0  0  0
 16 17  2  0  0  0  0
 17 18  1  0  0  0  0
 18 19  1  0  0  0  0
 18 35  2  0  0  0  0
 19 20  1  0  0  0  0
 20 21  1  0  0  0  0
 20 25  1  0  0  0  0
 21 22  2  0  0  0  0
 22 23  1  0  0  0  0
 22 27  1  0  0  0  0
 23 24  2  0  0  0  0
 24 25  1  0  0  0  0
 25 26  2  0  0  0  0
 27 28  2  0  0  0  0
 27 32  1  0  0  0  0
 28 29  1  0  0  0  0
 29 30  2  0  0  0  0
 30 31  1  0  0  0  0
 31 32  2  0  0  0  0
 31 33  1  0  0  0  0
 33 34  3  0  0  0  0
  1 36  1  0  0  0  0
  1 37  1  0  0  0  0
  1 38  1  0  0  0  0
  3 39  1  0  0  0  0
  3 40  1  0  0  0  0
  3 41  1  0  0  0  0
  4 42  1  0  0  0  0
  4 43  1  0  0  0  0
  5 44  1  0  0  0  0
  5 45  1  0  0  0  0
  6 46  1  0  0  0  0
  6 47  1  0  0  0  0
  9 48  1  0  0  0  0
 13 49  1  0  0  0  0
 15 50  1  0  0  0  0
 16 51  1  0  0  0  0
 17 52  1  0  0  0  0
 19 53  1  0  0  0  0
 19 54  1  0  0  0  0
 23 55  1  0  0  0  0
 24 56  1  0  0  0  0
 28 57  1  0  0  0  0
 29 58  1  0  0  0  0
 30 59  1  0  0  0  0
 32 60  1  0  0  0  0
 35 61  1  0  0  0  0
M  END
> <s_user_Name>
CHEMBL3402760_1

> <IC50[nM]>
1

$$$$
