CHEMBL3402743_42
  -OEChem-05192314313D
 Structure written by MMmdl.
 56 58  0     0  0  0  0  0  0999 V2000
   24.1307   31.2988   47.8294 C   0  0  0  0  0  0  0  0  0  0  0  0
   25.0469   32.2887   48.5804 N   0  0  0  0  0  0  0  0  0  0  0  0
   25.1226   33.6645   47.8845 C   0  0  0  0  0  0  0  0  0  0  0  0
   24.7621   32.3673   50.0986 C   0  0  0  0  0  0  0  0  0  0  0  0
   23.4022   33.0226   50.4217 C   0  0  0  0  0  0  0  0  0  0  0  0
   23.1284   33.0780   51.9260 C   0  0  0  0  0  0  0  0  0  0  0  0
   24.1634   33.8263   52.5697 O   0  0  0  0  0  0  0  0  0  0  0  0
   24.3524   33.8857   53.9176 C   0  0  0  0  0  0  0  0  0  0  0  0
   25.4033   34.3257   54.3776 O   0  0  0  0  0  0  0  0  0  0  0  0
   23.2482   33.4270   54.6434 N   0  0  0  0  0  0  0  0  0  0  0  0
   23.1370   33.1250   56.0094 C   0  0  0  0  0  0  0  0  0  0  0  0
   24.2143   33.1248   56.9090 C   0  0  0  0  0  0  0  0  0  0  0  0
   24.0253   32.7062   58.2246 C   0  0  0  0  0  0  0  0  0  0  0  0
   22.7705   32.2714   58.6521 C   0  0  0  0  0  0  0  0  0  0  0  0
   21.6863   32.2743   57.7701 C   0  0  0  0  0  0  0  0  0  0  0  0
   20.3025   31.8402   58.2496 C   0  0  0  0  0  0  0  0  0  0  0  0
   19.9634   30.4477   57.9026 N   0  0  0  0  0  0  0  0  0  0  0  0
   19.4463   30.2402   56.6192 N   0  0  0  0  0  0  0  0  0  0  0  0
   19.1308   29.0660   56.1704 C   0  0  0  0  0  0  0  0  0  0  0  0
   19.3736   27.9499   57.0773 C   0  0  0  0  0  0  0  0  0  0  0  0
   19.8766   28.1437   58.3179 C   0  0  0  0  0  0  0  0  0  0  0  0
   20.2104   29.4566   58.8326 C   0  0  0  0  0  0  0  0  0  0  0  0
   20.6463   29.6206   59.9751 O   0  0  0  0  0  0  0  0  0  0  0  0
   18.5497   28.8548   54.8168 C   0  0  0  0  0  0  0  0  0  0  0  0
   18.0818   27.5994   54.3835 C   0  0  0  0  0  0  0  0  0  0  0  0
   17.5074   27.4408   53.1218 C   0  0  0  0  0  0  0  0  0  0  0  0
   17.0467   26.2296   52.7384 F   0  0  0  0  0  0  0  0  0  0  0  0
   17.4033   28.5299   52.2618 C   0  0  0  0  0  0  0  0  0  0  0  0
   17.8673   29.7781   52.6646 C   0  0  0  0  0  0  0  0  0  0  0  0
   17.7609   30.8419   51.8371 F   0  0  0  0  0  0  0  0  0  0  0  0
   18.4356   29.9375   53.9275 C   0  0  0  0  0  0  0  0  0  0  0  0
   21.8747   32.7140   56.4546 C   0  0  0  0  0  0  0  0  0  0  0  0
   24.1116   30.3379   48.3645 H   0  0  0  0  0  0  0  0  0  0  0  0
   23.1117   31.7097   47.7775 H   0  0  0  0  0  0  0  0  0  0  0  0
   24.5158   31.1435   46.8108 H   0  0  0  0  0  0  0  0  0  0  0  0
   25.7853   34.3298   48.4574 H   0  0  0  0  0  0  0  0  0  0  0  0
   25.5202   33.5390   46.8666 H   0  0  0  0  0  0  0  0  0  0  0  0
   24.1160   34.1052   47.8332 H   0  0  0  0  0  0  0  0  0  0  0  0
   24.7666   31.3471   50.5098 H   0  0  0  0  0  0  0  0  0  0  0  0
   25.5584   32.9581   50.5749 H   0  0  0  0  0  0  0  0  0  0  0  0
   23.3999   34.0480   50.0235 H   0  0  0  0  0  0  0  0  0  0  0  0
   22.6046   32.4397   49.9380 H   0  0  0  0  0  0  0  0  0  0  0  0
   22.1582   33.5646   52.1048 H   0  0  0  0  0  0  0  0  0  0  0  0
   23.1068   32.0563   52.3330 H   0  0  0  0  0  0  0  0  0  0  0  0
   22.4133   33.2945   54.1092 H   0  0  0  0  0  0  0  0  0  0  0  0
   25.1908   33.4494   56.5812 H   0  0  0  0  0  0  0  0  0  0  0  0
   24.8543   32.7184   58.9167 H   0  0  0  0  0  0  0  0  0  0  0  0
   22.6364   31.9313   59.6683 H   0  0  0  0  0  0  0  0  0  0  0  0
   20.2662   31.9438   59.3441 H   0  0  0  0  0  0  0  0  0  0  0  0
   19.5532   32.5038   57.7934 H   0  0  0  0  0  0  0  0  0  0  0  0
   19.1466   26.9457   56.7509 H   0  0  0  0  0  0  0  0  0  0  0  0
   20.0362   27.2838   58.9515 H   0  0  0  0  0  0  0  0  0  0  0  0
   18.1689   26.7452   55.0385 H   0  0  0  0  0  0  0  0  0  0  0  0
   16.9631   28.4064   51.2834 H   0  0  0  0  0  0  0  0  0  0  0  0
   18.7948   30.9106   54.2282 H   0  0  0  0  0  0  0  0  0  0  0  0
   21.0360   32.7365   55.7746 H   0  0  0  0  0  0  0  0  0  0  0  0
  1  2  1  0  0  0  0
  2  3  1  0  0  0  0
  2  4  1  0  0  0  0
  4  5  1  0  0  0  0
  5  6  1  0  0  0  0
  6  7  1  0  0  0  0
  7  8  1  0  0  0  0
  8  9  2  0  0  0  0
  8 10  1  0  0  0  0
 10 11  1  0  0  0  0
 11 12  2  0  0  0  0
 11 32  1  0  0  0  0
 12 13  1  0  0  0  0
 13 14  2  0  0  0  0
 14 15  1  0  0  0  0
 15 16  1  0  0  0  0
 15 32  2  0  0  0  0
 16 17  1  0  0  0  0
 17 18  1  0  0  0  0
 17 22  1  0  0  0  0
 18 19  2  0  0  0  0
 19 20  1  0  0  0  0
 19 24  1  0  0  0  0
 20 21  2  0  0  0  0
 21 22  1  0  0  0  0
 22 23  2  0  0  0  0
 24 25  2  0  0  0  0
 24 31  1  0  0  0  0
 25 26  1  0  0  0  0
 26 27  1  0  0  0  0
 26 28  2  0  0  0  0
 28 29  1  0  0  0  0
 29 30  1  0  0  0  0
 29 31  2  0  0  0  0
  1 33  1  0  0  0  0
  1 34  1  0  0  0  0
  1 35  1  0  0  0  0
  3 36  1  0  0  0  0
  3 37  1  0  0  0  0
  3 38  1  0  0  0  0
  4 39  1  0  0  0  0
  4 40  1  0  0  0  0
  5 41  1  0  0  0  0
  5 42  1  0  0  0  0
  6 43  1  0  0  0  0
  6 44  1  0  0  0  0
 10 45  1  0  0  0  0
 12 46  1  0  0  0  0
 13 47  1  0  0  0  0
 14 48  1  0  0  0  0
 16 49  1  0  0  0  0
 16 50  1  0  0  0  0
 20 51  1  0  0  0  0
 21 52  1  0  0  0  0
 25 53  1  0  0  0  0
 28 54  1  0  0  0  0
 31 55  1  0  0  0  0
 32 56  1  0  0  0  0
M  END
> <s_user_Name>
CHEMBL3402743_42

> <IC50[nM]>
42

$$$$
CHEMBL3402743_42
  -OEChem-05192314313D
 Structure written by MMmdl.
 56 58  0     0  0  0  0  0  0999 V2000
   24.1307   31.2988   47.8294 C   0  0  0  0  0  0  0  0  0  0  0  0
   25.0469   32.2887   48.5804 N   0  0  0  0  0  0  0  0  0  0  0  0
   25.1226   33.6645   47.8845 C   0  0  0  0  0  0  0  0  0  0  0  0
   24.7621   32.3673   50.0986 C   0  0  0  0  0  0  0  0  0  0  0  0
   23.4022   33.0226   50.4217 C   0  0  0  0  0  0  0  0  0  0  0  0
   23.1284   33.0780   51.9260 C   0  0  0  0  0  0  0  0  0  0  0  0
   24.1634   33.8263   52.5697 O   0  0  0  0  0  0  0  0  0  0  0  0
   24.3524   33.8857   53.9176 C   0  0  0  0  0  0  0  0  0  0  0  0
   25.4033   34.3257   54.3776 O   0  0  0  0  0  0  0  0  0  0  0  0
   23.2482   33.4270   54.6434 N   0  0  0  0  0  0  0  0  0  0  0  0
   23.1370   33.1250   56.0094 C   0  0  0  0  0  0  0  0  0  0  0  0
   24.2143   33.1248   56.9090 C   0  0  0  0  0  0  0  0  0  0  0  0
   24.0253   32.7062   58.2246 C   0  0  0  0  0  0  0  0  0  0  0  0
   22.7705   32.2714   58.6521 C   0  0  0  0  0  0  0  0  0  0  0  0
   21.6863   32.2743   57.7701 C   0  0  0  0  0  0  0  0  0  0  0  0
   20.3025   31.8402   58.2496 C   0  0  0  0  0  0  0  0  0  0  0  0
   19.9634   30.4477   57.9026 N   0  0  0  0  0  0  0  0  0  0  0  0
   19.4463   30.2402   56.6192 N   0  0  0  0  0  0  0  0  0  0  0  0
   19.1308   29.0660   56.1704 C   0  0  0  0  0  0  0  0  0  0  0  0
   19.3736   27.9499   57.0773 C   0  0  0  0  0  0  0  0  0  0  0  0
   19.8766   28.1437   58.3179 C   0  0  0  0  0  0  0  0  0  0  0  0
   20.2104   29.4566   58.8326 C   0  0  0  0  0  0  0  0  0  0  0  0
   20.6463   29.6206   59.9751 O   0  0  0  0  0  0  0  0  0  0  0  0
   18.5497   28.8548   54.8168 C   0  0  0  0  0  0  0  0  0  0  0  0
   18.0818   27.5994   54.3835 C   0  0  0  0  0  0  0  0  0  0  0  0
   17.5074   27.4408   53.1218 C   0  0  0  0  0  0  0  0  0  0  0  0
   17.0467   26.2296   52.7384 F   0  0  0  0  0  0  0  0  0  0  0  0
   17.4033   28.5299   52.2618 C   0  0  0  0  0  0  0  0  0  0  0  0
   17.8673   29.7781   52.6646 C   0  0  0  0  0  0  0  0  0  0  0  0
   17.7609   30.8419   51.8371 F   0  0  0  0  0  0  0  0  0  0  0  0
   18.4356   29.9375   53.9275 C   0  0  0  0  0  0  0  0  0  0  0  0
   21.8747   32.7140   56.4546 C   0  0  0  0  0  0  0  0  0  0  0  0
   24.1116   30.3379   48.3645 H   0  0  0  0  0  0  0  0  0  0  0  0
   23.1117   31.7097   47.7775 H   0  0  0  0  0  0  0  0  0  0  0  0
   24.5158   31.1435   46.8108 H   0  0  0  0  0  0  0  0  0  0  0  0
   25.7853   34.3298   48.4574 H   0  0  0  0  0  0  0  0  0  0  0  0
   25.5202   33.5390   46.8666 H   0  0  0  0  0  0  0  0  0  0  0  0
   24.1160   34.1052   47.8332 H   0  0  0  0  0  0  0  0  0  0  0  0
   24.7666   31.3471   50.5098 H   0  0  0  0  0  0  0  0  0  0  0  0
   25.5584   32.9581   50.5749 H   0  0  0  0  0  0  0  0  0  0  0  0
   23.3999   34.0480   50.0235 H   0  0  0  0  0  0  0  0  0  0  0  0
   22.6046   32.4397   49.9380 H   0  0  0  0  0  0  0  0  0  0  0  0
   22.1582   33.5646   52.1048 H   0  0  0  0  0  0  0  0  0  0  0  0
   23.1068   32.0563   52.3330 H   0  0  0  0  0  0  0  0  0  0  0  0
   25.3707   34.2970   55.3266 H   0  0  0  0  0  0  0  0  0  0  0  0
   25.1908   33.4494   56.5812 H   0  0  0  0  0  0  0  0  0  0  0  0
   24.8543   32.7184   58.9167 H   0  0  0  0  0  0  0  0  0  0  0  0
   22.6364   31.9313   59.6683 H   0  0  0  0  0  0  0  0  0  0  0  0
   20.2662   31.9438   59.3441 H   0  0  0  0  0  0  0  0  0  0  0  0
   19.5532   32.5038   57.7934 H   0  0  0  0  0  0  0  0  0  0  0  0
   19.1466   26.9457   56.7509 H   0  0  0  0  0  0  0  0  0  0  0  0
   20.0362   27.2838   58.9515 H   0  0  0  0  0  0  0  0  0  0  0  0
   18.1689   26.7452   55.0385 H   0  0  0  0  0  0  0  0  0  0  0  0
   16.9631   28.4064   51.2834 H   0  0  0  0  0  0  0  0  0  0  0  0
   18.7948   30.9106   54.2282 H   0  0  0  0  0  0  0  0  0  0  0  0
   21.0360   32.7365   55.7746 H   0  0  0  0  0  0  0  0  0  0  0  0
  1  2  1  0  0  0  0
  2  3  1  0  0  0  0
  2  4  1  0  0  0  0
  4  5  1  0  0  0  0
  5  6  1  0  0  0  0
  6  7  1  0  0  0  0
  7  8  1  0  0  0  0
  8  9  1  0  0  0  0
  8 10  2  0  0  0  0
 10 11  1  0  0  0  0
 11 12  2  0  0  0  0
 11 32  1  0  0  0  0
 12 13  1  0  0  0  0
 13 14  2  0  0  0  0
 14 15  1  0  0  0  0
 15 16  1  0  0  0  0
 15 32  2  0  0  0  0
 16 17  1  0  0  0  0
 17 18  1  0  0  0  0
 17 22  1  0  0  0  0
 18 19  2  0  0  0  0
 19 20  1  0  0  0  0
 19 24  1  0  0  0  0
 20 21  2  0  0  0  0
 21 22  1  0  0  0  0
 22 23  2  0  0  0  0
 24 25  2  0  0  0  0
 24 31  1  0  0  0  0
 25 26  1  0  0  0  0
 26 27  1  0  0  0  0
 26 28  2  0  0  0  0
 28 29  1  0  0  0  0
 29 30  1  0  0  0  0
 29 31  2  0  0  0  0
  1 33  1  0  0  0  0
  1 34  1  0  0  0  0
  1 35  1  0  0  0  0
  3 36  1  0  0  0  0
  3 37  1  0  0  0  0
  3 38  1  0  0  0  0
  4 39  1  0  0  0  0
  4 40  1  0  0  0  0
  5 41  1  0  0  0  0
  5 42  1  0  0  0  0
  6 43  1  0  0  0  0
  6 44  1  0  0  0  0
  9 45  1  0  0  0  0
 12 46  1  0  0  0  0
 13 47  1  0  0  0  0
 14 48  1  0  0  0  0
 16 49  1  0  0  0  0
 16 50  1  0  0  0  0
 20 51  1  0  0  0  0
 21 52  1  0  0  0  0
 25 53  1  0  0  0  0
 28 54  1  0  0  0  0
 31 55  1  0  0  0  0
 32 56  1  0  0  0  0
M  END
> <s_user_Name>
CHEMBL3402743_42

> <IC50[nM]>
42

$$$$
CHEMBL3402743_42
  -OEChem-05192314313D
 Structure written by MMmdl.
 56 58  0     0  0  0  0  0  0999 V2000
   24.1307   31.2988   47.8294 C   0  0  0  0  0  0  0  0  0  0  0  0
   25.0469   32.2887   48.5804 N   0  0  0  0  0  0  0  0  0  0  0  0
   25.1226   33.6645   47.8845 C   0  0  0  0  0  0  0  0  0  0  0  0
   24.7621   32.3673   50.0986 C   0  0  0  0  0  0  0  0  0  0  0  0
   23.4022   33.0226   50.4217 C   0  0  0  0  0  0  0  0  0  0  0  0
   23.1284   33.0780   51.9260 C   0  0  0  0  0  0  0  0  0  0  0  0
   24.1634   33.8263   52.5697 O   0  0  0  0  0  0  0  0  0  0  0  0
   24.3524   33.8857   53.9176 C   0  0  0  0  0  0  0  0  0  0  0  0
   25.4033   34.3257   54.3776 O   0  0  0  0  0  0  0  0  0  0  0  0
   23.2482   33.4270   54.6434 N   0  0  0  0  0  0  0  0  0  0  0  0
   23.1370   33.1250   56.0094 C   0  0  0  0  0  0  0  0  0  0  0  0
   24.2143   33.1248   56.9090 C   0  0  0  0  0  0  0  0  0  0  0  0
   24.0253   32.7062   58.2246 C   0  0  0  0  0  0  0  0  0  0  0  0
   22.7705   32.2714   58.6521 C   0  0  0  0  0  0  0  0  0  0  0  0
   21.6863   32.2743   57.7701 C   0  0  0  0  0  0  0  0  0  0  0  0
   20.3025   31.8402   58.2496 C   0  0  0  0  0  0  0  0  0  0  0  0
   19.9634   30.4477   57.9026 N   0  0  0  0  0  0  0  0  0  0  0  0
   19.4463   30.2402   56.6192 N   0  0  0  0  0  0  0  0  0  0  0  0
   19.1308   29.0660   56.1704 C   0  0  0  0  0  0  0  0  0  0  0  0
   19.3736   27.9499   57.0773 C   0  0  0  0  0  0  0  0  0  0  0  0
   19.8766   28.1437   58.3179 C   0  0  0  0  0  0  0  0  0  0  0  0
   20.2104   29.4566   58.8326 C   0  0  0  0  0  0  0  0  0  0  0  0
   20.6463   29.6206   59.9751 O   0  0  0  0  0  0  0  0  0  0  0  0
   18.5497   28.8548   54.8168 C   0  0  0  0  0  0  0  0  0  0  0  0
   18.0818   27.5994   54.3835 C   0  0  0  0  0  0  0  0  0  0  0  0
   17.5074   27.4408   53.1218 C   0  0  0  0  0  0  0  0  0  0  0  0
   17.0467   26.2296   52.7384 F   0  0  0  0  0  0  0  0  0  0  0  0
   17.4033   28.5299   52.2618 C   0  0  0  0  0  0  0  0  0  0  0  0
   17.8673   29.7781   52.6646 C   0  0  0  0  0  0  0  0  0  0  0  0
   17.7609   30.8419   51.8371 F   0  0  0  0  0  0  0  0  0  0  0  0
   18.4356   29.9375   53.9275 C   0  0  0  0  0  0  0  0  0  0  0  0
   21.8747   32.7140   56.4546 C   0  0  0  0  0  0  0  0  0  0  0  0
   24.1116   30.3379   48.3645 H   0  0  0  0  0  0  0  0  0  0  0  0
   23.1117   31.7097   47.7775 H   0  0  0  0  0  0  0  0  0  0  0  0
   24.5158   31.1435   46.8108 H   0  0  0  0  0  0  0  0  0  0  0  0
   25.7853   34.3298   48.4574 H   0  0  0  0  0  0  0  0  0  0  0  0
   25.5202   33.5390   46.8666 H   0  0  0  0  0  0  0  0  0  0  0  0
   24.1160   34.1052   47.8332 H   0  0  0  0  0  0  0  0  0  0  0  0
   24.7666   31.3471   50.5098 H   0  0  0  0  0  0  0  0  0  0  0  0
   25.5584   32.9581   50.5749 H   0  0  0  0  0  0  0  0  0  0  0  0
   23.3999   34.0480   50.0235 H   0  0  0  0  0  0  0  0  0  0  0  0
   22.6046   32.4397   49.9380 H   0  0  0  0  0  0  0  0  0  0  0  0
   22.1582   33.5646   52.1048 H   0  0  0  0  0  0  0  0  0  0  0  0
   23.1068   32.0563   52.3330 H   0  0  0  0  0  0  0  0  0  0  0  0
   24.9882   32.4734   56.4769 H   0  0  0  0  0  0  0  0  0  0  0  0
   24.5888   34.1580   56.9556 H   0  0  0  0  0  0  0  0  0  0  0  0
   24.8543   32.7184   58.9167 H   0  0  0  0  0  0  0  0  0  0  0  0
   22.6364   31.9313   59.6683 H   0  0  0  0  0  0  0  0  0  0  0  0
   20.2662   31.9438   59.3441 H   0  0  0  0  0  0  0  0  0  0  0  0
   19.5532   32.5038   57.7934 H   0  0  0  0  0  0  0  0  0  0  0  0
   19.1466   26.9457   56.7509 H   0  0  0  0  0  0  0  0  0  0  0  0
   20.0362   27.2838   58.9515 H   0  0  0  0  0  0  0  0  0  0  0  0
   18.1689   26.7452   55.0385 H   0  0  0  0  0  0  0  0  0  0  0  0
   16.9631   28.4064   51.2834 H   0  0  0  0  0  0  0  0  0  0  0  0
   18.7948   30.9106   54.2282 H   0  0  0  0  0  0  0  0  0  0  0  0
   21.0360   32.7365   55.7746 H   0  0  0  0  0  0  0  0  0  0  0  0
  1  2  1  0  0  0  0
  2  3  1  0  0  0  0
  2  4  1  0  0  0  0
  4  5  1  0  0  0  0
  5  6  1  0  0  0  0
  6  7  1  0  0  0  0
  7  8  1  0  0  0  0
  8  9  2  0  0  0  0
  8 10  1  0  0  0  0
 10 11  2  0  0  0  0
 11 12  1  0  0  0  0
 11 32  1  0  0  0  0
 12 13  1  0  0  0  0
 13 14  2  0  0  0  0
 14 15  1  0  0  0  0
 15 16  1  0  0  0  0
 15 32  2  0  0  0  0
 16 17  1  0  0  0  0
 17 18  1  0  0  0  0
 17 22  1  0  0  0  0
 18 19  2  0  0  0  0
 19 20  1  0  0  0  0
 19 24  1  0  0  0  0
 20 21  2  0  0  0  0
 21 22  1  0  0  0  0
 22 23  2  0  0  0  0
 24 25  2  0  0  0  0
 24 31  1  0  0  0  0
 25 26  1  0  0  0  0
 26 27  1  0  0  0  0
 26 28  2  0  0  0  0
 28 29  1  0  0  0  0
 29 30  1  0  0  0  0
 29 31  2  0  0  0  0
  1 33  1  0  0  0  0
  1 34  1  0  0  0  0
  1 35  1  0  0  0  0
  3 36  1  0  0  0  0
  3 37  1  0  0  0  0
  3 38  1  0  0  0  0
  4 39  1  0  0  0  0
  4 40  1  0  0  0  0
  5 41  1  0  0  0  0
  5 42  1  0  0  0  0
  6 43  1  0  0  0  0
  6 44  1  0  0  0  0
 12 45  1  0  0  0  0
 12 46  1  0  0  0  0
 13 47  1  0  0  0  0
 14 48  1  0  0  0  0
 16 49  1  0  0  0  0
 16 50  1  0  0  0  0
 20 51  1  0  0  0  0
 21 52  1  0  0  0  0
 25 53  1  0  0  0  0
 28 54  1  0  0  0  0
 31 55  1  0  0  0  0
 32 56  1  0  0  0  0
M  END
> <s_user_Name>
CHEMBL3402743_42

> <IC50[nM]>
42

$$$$
CHEMBL3402743_42
  -OEChem-05192314313D
 Structure written by MMmdl.
 56 58  0     0  0  0  0  0  0999 V2000
   24.1307   31.2988   47.8294 C   0  0  0  0  0  0  0  0  0  0  0  0
   25.0469   32.2887   48.5804 N   0  0  0  0  0  0  0  0  0  0  0  0
   25.1226   33.6645   47.8845 C   0  0  0  0  0  0  0  0  0  0  0  0
   24.7621   32.3673   50.0986 C   0  0  0  0  0  0  0  0  0  0  0  0
   23.4022   33.0226   50.4217 C   0  0  0  0  0  0  0  0  0  0  0  0
   23.1284   33.0780   51.9260 C   0  0  0  0  0  0  0  0  0  0  0  0
   24.1634   33.8263   52.5697 O   0  0  0  0  0  0  0  0  0  0  0  0
   24.3524   33.8857   53.9176 C   0  0  0  0  0  0  0  0  0  0  0  0
   25.4033   34.3257   54.3776 O   0  0  0  0  0  0  0  0  0  0  0  0
   23.2482   33.4270   54.6434 N   0  0  0  0  0  0  0  0  0  0  0  0
   23.1370   33.1250   56.0094 C   0  0  0  0  0  0  0  0  0  0  0  0
   24.2143   33.1248   56.9090 C   0  0  0  0  0  0  0  0  0  0  0  0
   24.0253   32.7062   58.2246 C   0  0  0  0  0  0  0  0  0  0  0  0
   22.7705   32.2714   58.6521 C   0  0  0  0  0  0  0  0  0  0  0  0
   21.6863   32.2743   57.7701 C   0  0  0  0  0  0  0  0  0  0  0  0
   20.3025   31.8402   58.2496 C   0  0  0  0  0  0  0  0  0  0  0  0
   19.9634   30.4477   57.9026 N   0  0  0  0  0  0  0  0  0  0  0  0
   19.4463   30.2402   56.6192 N   0  0  0  0  0  0  0  0  0  0  0  0
   19.1308   29.0660   56.1704 C   0  0  0  0  0  0  0  0  0  0  0  0
   19.3736   27.9499   57.0773 C   0  0  0  0  0  0  0  0  0  0  0  0
   19.8766   28.1437   58.3179 C   0  0  0  0  0  0  0  0  0  0  0  0
   20.2104   29.4566   58.8326 C   0  0  0  0  0  0  0  0  0  0  0  0
   20.6463   29.6206   59.9751 O   0  0  0  0  0  0  0  0  0  0  0  0
   18.5497   28.8548   54.8168 C   0  0  0  0  0  0  0  0  0  0  0  0
   18.0818   27.5994   54.3835 C   0  0  0  0  0  0  0  0  0  0  0  0
   17.5074   27.4408   53.1218 C   0  0  0  0  0  0  0  0  0  0  0  0
   17.0467   26.2296   52.7384 F   0  0  0  0  0  0  0  0  0  0  0  0
   17.4033   28.5299   52.2618 C   0  0  0  0  0  0  0  0  0  0  0  0
   17.8673   29.7781   52.6646 C   0  0  0  0  0  0  0  0  0  0  0  0
   17.7609   30.8419   51.8371 F   0  0  0  0  0  0  0  0  0  0  0  0
   18.4356   29.9375   53.9275 C   0  0  0  0  0  0  0  0  0  0  0  0
   21.8747   32.7140   56.4546 C   0  0  0  0  0  0  0  0  0  0  0  0
   24.1116   30.3379   48.3645 H   0  0  0  0  0  0  0  0  0  0  0  0
   23.1117   31.7097   47.7775 H   0  0  0  0  0  0  0  0  0  0  0  0
   24.5158   31.1435   46.8108 H   0  0  0  0  0  0  0  0  0  0  0  0
   25.7853   34.3298   48.4574 H   0  0  0  0  0  0  0  0  0  0  0  0
   25.5202   33.5390   46.8666 H   0  0  0  0  0  0  0  0  0  0  0  0
   24.1160   34.1052   47.8332 H   0  0  0  0  0  0  0  0  0  0  0  0
   24.7666   31.3471   50.5098 H   0  0  0  0  0  0  0  0  0  0  0  0
   25.5584   32.9581   50.5749 H   0  0  0  0  0  0  0  0  0  0  0  0
   23.3999   34.0480   50.0235 H   0  0  0  0  0  0  0  0  0  0  0  0
   22.6046   32.4397   49.9380 H   0  0  0  0  0  0  0  0  0  0  0  0
   22.1582   33.5646   52.1048 H   0  0  0  0  0  0  0  0  0  0  0  0
   23.1068   32.0563   52.3330 H   0  0  0  0  0  0  0  0  0  0  0  0
   25.1908   33.4494   56.5812 H   0  0  0  0  0  0  0  0  0  0  0  0
   24.8543   32.7184   58.9167 H   0  0  0  0  0  0  0  0  0  0  0  0
   22.8955   31.2342   58.9964 H   0  0  0  0  0  0  0  0  0  0  0  0
   22.4878   32.9086   59.5030 H   0  0  0  0  0  0  0  0  0  0  0  0
   20.2662   31.9438   59.3441 H   0  0  0  0  0  0  0  0  0  0  0  0
   19.5532   32.5038   57.7934 H   0  0  0  0  0  0  0  0  0  0  0  0
   19.1466   26.9457   56.7509 H   0  0  0  0  0  0  0  0  0  0  0  0
   20.0362   27.2838   58.9515 H   0  0  0  0  0  0  0  0  0  0  0  0
   18.1689   26.7452   55.0385 H   0  0  0  0  0  0  0  0  0  0  0  0
   16.9631   28.4064   51.2834 H   0  0  0  0  0  0  0  0  0  0  0  0
   18.7948   30.9106   54.2282 H   0  0  0  0  0  0  0  0  0  0  0  0
   21.0360   32.7365   55.7746 H   0  0  0  0  0  0  0  0  0  0  0  0
  1  2  1  0  0  0  0
  2  3  1  0  0  0  0
  2  4  1  0  0  0  0
  4  5  1  0  0  0  0
  5  6  1  0  0  0  0
  6  7  1  0  0  0  0
  7  8  1  0  0  0  0
  8  9  2  0  0  0  0
  8 10  1  0  0  0  0
 10 11  2  0  0  0  0
 11 12  1  0  0  0  0
 11 32  1  0  0  0  0
 12 13  2  0  0  0  0
 13 14  1  0  0  0  0
 14 15  1  0  0  0  0
 15 16  1  0  0  0  0
 15 32  2  0  0  0  0
 16 17  1  0  0  0  0
 17 18  1  0  0  0  0
 17 22  1  0  0  0  0
 18 19  2  0  0  0  0
 19 20  1  0  0  0  0
 19 24  1  0  0  0  0
 20 21  2  0  0  0  0
 21 22  1  0  0  0  0
 22 23  2  0  0  0  0
 24 25  2  0  0  0  0
 24 31  1  0  0  0  0
 25 26  1  0  0  0  0
 26 27  1  0  0  0  0
 26 28  2  0  0  0  0
 28 29  1  0  0  0  0
 29 30  1  0  0  0  0
 29 31  2  0  0  0  0
  1 33  1  0  0  0  0
  1 34  1  0  0  0  0
  1 35  1  0  0  0  0
  3 36  1  0  0  0  0
  3 37  1  0  0  0  0
  3 38  1  0  0  0  0
  4 39  1  0  0  0  0
  4 40  1  0  0  0  0
  5 41  1  0  0  0  0
  5 42  1  0  0  0  0
  6 43  1  0  0  0  0
  6 44  1  0  0  0  0
 12 45  1  0  0  0  0
 13 46  1  0  0  0  0
 14 47  1  0  0  0  0
 14 48  1  0  0  0  0
 16 49  1  0  0  0  0
 16 50  1  0  0  0  0
 20 51  1  0  0  0  0
 21 52  1  0  0  0  0
 25 53  1  0  0  0  0
 28 54  1  0  0  0  0
 31 55  1  0  0  0  0
 32 56  1  0  0  0  0
M  END
> <s_user_Name>
CHEMBL3402743_42

> <IC50[nM]>
42

$$$$
CHEMBL3402743_42
  -OEChem-05192314313D
 Structure written by MMmdl.
 56 58  0     0  0  0  0  0  0999 V2000
   24.1307   31.2988   47.8294 C   0  0  0  0  0  0  0  0  0  0  0  0
   25.0469   32.2887   48.5804 N   0  0  0  0  0  0  0  0  0  0  0  0
   25.1226   33.6645   47.8845 C   0  0  0  0  0  0  0  0  0  0  0  0
   24.7621   32.3673   50.0986 C   0  0  0  0  0  0  0  0  0  0  0  0
   23.4022   33.0226   50.4217 C   0  0  0  0  0  0  0  0  0  0  0  0
   23.1284   33.0780   51.9260 C   0  0  0  0  0  0  0  0  0  0  0  0
   24.1634   33.8263   52.5697 O   0  0  0  0  0  0  0  0  0  0  0  0
   24.3524   33.8857   53.9176 C   0  0  0  0  0  0  0  0  0  0  0  0
   25.4033   34.3257   54.3776 O   0  0  0  0  0  0  0  0  0  0  0  0
   23.2482   33.4270   54.6434 N   0  0  0  0  0  0  0  0  0  0  0  0
   23.1370   33.1250   56.0094 C   0  0  0  0  0  0  0  0  0  0  0  0
   24.2143   33.1248   56.9090 C   0  0  0  0  0  0  0  0  0  0  0  0
   24.0253   32.7062   58.2246 C   0  0  0  0  0  0  0  0  0  0  0  0
   22.7705   32.2714   58.6521 C   0  0  0  0  0  0  0  0  0  0  0  0
   21.6863   32.2743   57.7701 C   0  0  0  0  0  0  0  0  0  0  0  0
   20.3025   31.8402   58.2496 C   0  0  0  0  0  0  0  0  0  0  0  0
   19.9634   30.4477   57.9026 N   0  0  0  0  0  0  0  0  0  0  0  0
   19.4463   30.2402   56.6192 N   0  0  0  0  0  0  0  0  0  0  0  0
   19.1308   29.0660   56.1704 C   0  0  0  0  0  0  0  0  0  0  0  0
   19.3736   27.9499   57.0773 C   0  0  0  0  0  0  0  0  0  0  0  0
   19.8766   28.1437   58.3179 C   0  0  0  0  0  0  0  0  0  0  0  0
   20.2104   29.4566   58.8326 C   0  0  0  0  0  0  0  0  0  0  0  0
   20.6463   29.6206   59.9751 O   0  0  0  0  0  0  0  0  0  0  0  0
   18.5497   28.8548   54.8168 C   0  0  0  0  0  0  0  0  0  0  0  0
   18.0818   27.5994   54.3835 C   0  0  0  0  0  0  0  0  0  0  0  0
   17.5074   27.4408   53.1218 C   0  0  0  0  0  0  0  0  0  0  0  0
   17.0467   26.2296   52.7384 F   0  0  0  0  0  0  0  0  0  0  0  0
   17.4033   28.5299   52.2618 C   0  0  0  0  0  0  0  0  0  0  0  0
   17.8673   29.7781   52.6646 C   0  0  0  0  0  0  0  0  0  0  0  0
   17.7609   30.8419   51.8371 F   0  0  0  0  0  0  0  0  0  0  0  0
   18.4356   29.9375   53.9275 C   0  0  0  0  0  0  0  0  0  0  0  0
   21.8747   32.7140   56.4546 C   0  0  0  0  0  0  0  0  0  0  0  0
   24.1116   30.3379   48.3645 H   0  0  0  0  0  0  0  0  0  0  0  0
   23.1117   31.7097   47.7775 H   0  0  0  0  0  0  0  0  0  0  0  0
   24.5158   31.1435   46.8108 H   0  0  0  0  0  0  0  0  0  0  0  0
   25.7853   34.3298   48.4574 H   0  0  0  0  0  0  0  0  0  0  0  0
   25.5202   33.5390   46.8666 H   0  0  0  0  0  0  0  0  0  0  0  0
   24.1160   34.1052   47.8332 H   0  0  0  0  0  0  0  0  0  0  0  0
   24.7666   31.3471   50.5098 H   0  0  0  0  0  0  0  0  0  0  0  0
   25.5584   32.9581   50.5749 H   0  0  0  0  0  0  0  0  0  0  0  0
   23.3999   34.0480   50.0235 H   0  0  0  0  0  0  0  0  0  0  0  0
   22.6046   32.4397   49.9380 H   0  0  0  0  0  0  0  0  0  0  0  0
   22.1582   33.5646   52.1048 H   0  0  0  0  0  0  0  0  0  0  0  0
   23.1068   32.0563   52.3330 H   0  0  0  0  0  0  0  0  0  0  0  0
   25.1908   33.4494   56.5812 H   0  0  0  0  0  0  0  0  0  0  0  0
   24.8543   32.7184   58.9167 H   0  0  0  0  0  0  0  0  0  0  0  0
   22.6364   31.9313   59.6683 H   0  0  0  0  0  0  0  0  0  0  0  0
   20.2662   31.9438   59.3441 H   0  0  0  0  0  0  0  0  0  0  0  0
   19.5532   32.5038   57.7934 H   0  0  0  0  0  0  0  0  0  0  0  0
   19.1466   26.9457   56.7509 H   0  0  0  0  0  0  0  0  0  0  0  0
   20.0362   27.2838   58.9515 H   0  0  0  0  0  0  0  0  0  0  0  0
   18.1689   26.7452   55.0385 H   0  0  0  0  0  0  0  0  0  0  0  0
   16.9631   28.4064   51.2834 H   0  0  0  0  0  0  0  0  0  0  0  0
   18.7948   30.9106   54.2282 H   0  0  0  0  0  0  0  0  0  0  0  0
   21.1975   33.5686   56.3096 H   0  0  0  0  0  0  0  0  0  0  0  0
   21.5656   31.8859   55.7999 H   0  0  0  0  0  0  0  0  0  0  0  0
  1  2  1  0  0  0  0
  2  3  1  0  0  0  0
  2  4  1  0  0  0  0
  4  5  1  0  0  0  0
  5  6  1  0  0  0  0
  6  7  1  0  0  0  0
  7  8  1  0  0  0  0
  8  9  2  0  0  0  0
  8 10  1  0  0  0  0
 10 11  2  0  0  0  0
 11 12  1  0  0  0  0
 11 32  1  0  0  0  0
 12 13  2  0  0  0  0
 13 14  1  0  0  0  0
 14 15  2  0  0  0  0
 15 16  1  0  0  0  0
 15 32  1  0  0  0  0
 16 17  1  0  0  0  0
 17 18  1  0  0  0  0
 17 22  1  0  0  0  0
 18 19  2  0  0  0  0
 19 20  1  0  0  0  0
 19 24  1  0  0  0  0
 20 21  2  0  0  0  0
 21 22  1  0  0  0  0
 22 23  2  0  0  0  0
 24 25  2  0  0  0  0
 24 31  1  0  0  0  0
 25 26  1  0  0  0  0
 26 27  1  0  0  0  0
 26 28  2  0  0  0  0
 28 29  1  0  0  0  0
 29 30  1  0  0  0  0
 29 31  2  0  0  0  0
  1 33  1  0  0  0  0
  1 34  1  0  0  0  0
  1 35  1  0  0  0  0
  3 36  1  0  0  0  0
  3 37  1  0  0  0  0
  3 38  1  0  0  0  0
  4 39  1  0  0  0  0
  4 40  1  0  0  0  0
  5 41  1  0  0  0  0
  5 42  1  0  0  0  0
  6 43  1  0  0  0  0
  6 44  1  0  0  0  0
 12 45  1  0  0  0  0
 13 46  1  0  0  0  0
 14 47  1  0  0  0  0
 16 48  1  0  0  0  0
 16 49  1  0  0  0  0
 20 50  1  0  0  0  0
 21 51  1  0  0  0  0
 25 52  1  0  0  0  0
 28 53  1  0  0  0  0
 31 54  1  0  0  0  0
 32 55  1  0  0  0  0
 32 56  1  0  0  0  0
M  END
> <s_user_Name>
CHEMBL3402743_42

> <IC50[nM]>
42

$$$$
