CHEMBL3402764_90
  -OEChem-05192314313D
 Structure written by MMmdl.
 56 58  0     0  0  0  0  0  0999 V2000
   24.4983   32.6426   47.4000 C   0  0  0  0  0  0  0  0  0  0  0  0
   25.8477   33.1265   47.9776 N   0  0  0  0  0  0  0  0  0  0  0  0
   26.7282   33.7516   46.8757 C   0  0  0  0  0  0  0  0  0  0  0  0
   25.7070   34.0817   49.1846 C   0  0  0  0  0  0  0  0  0  0  0  0
   24.9669   33.4120   50.3525 C   0  0  0  0  0  0  0  0  0  0  0  0
   25.0476   34.2680   51.6221 C   0  0  0  0  0  0  0  0  0  0  0  0
   24.1442   33.7553   52.5943 O   0  0  0  0  0  0  0  0  0  0  0  0
   24.4004   33.8646   53.9094 C   0  0  0  0  0  0  0  0  0  0  0  0
   25.4439   34.3239   54.3765 O   0  0  0  0  0  0  0  0  0  0  0  0
   23.2956   33.3782   54.5987 N   0  0  0  0  0  0  0  0  0  0  0  0
   23.1427   33.0843   55.9651 C   0  0  0  0  0  0  0  0  0  0  0  0
   24.1938   33.1130   56.8977 C   0  0  0  0  0  0  0  0  0  0  0  0
   23.9701   32.7046   58.2133 C   0  0  0  0  0  0  0  0  0  0  0  0
   22.7094   32.2562   58.6081 C   0  0  0  0  0  0  0  0  0  0  0  0
   21.6523   32.2304   57.6940 C   0  0  0  0  0  0  0  0  0  0  0  0
   20.2620   31.7774   58.1408 C   0  0  0  0  0  0  0  0  0  0  0  0
   19.9517   30.3721   57.8100 N   0  0  0  0  0  0  0  0  0  0  0  0
   19.4515   30.1430   56.5234 N   0  0  0  0  0  0  0  0  0  0  0  0
   19.1719   28.9566   56.0882 C   0  0  0  0  0  0  0  0  0  0  0  0
   19.4049   27.8574   57.0122 C   0  0  0  0  0  0  0  0  0  0  0  0
   19.8897   28.0688   58.2559 C   0  0  0  0  0  0  0  0  0  0  0  0
   20.2101   29.3962   58.7559 C   0  0  0  0  0  0  0  0  0  0  0  0
   20.6471   29.5714   59.8944 O   0  0  0  0  0  0  0  0  0  0  0  0
   18.6411   28.7040   54.7248 C   0  0  0  0  0  0  0  0  0  0  0  0
   17.9457   27.5247   54.4124 C   0  0  0  0  0  0  0  0  0  0  0  0
   17.4541   27.3084   53.1266 C   0  0  0  0  0  0  0  0  0  0  0  0
   17.6594   28.2659   52.1380 C   0  0  0  0  0  0  0  0  0  0  0  0
   17.1816   28.0564   50.8899 F   0  0  0  0  0  0  0  0  0  0  0  0
   18.3519   29.4381   52.4270 C   0  0  0  0  0  0  0  0  0  0  0  0
   18.8414   29.6559   53.7125 C   0  0  0  0  0  0  0  0  0  0  0  0
   21.8740   32.6562   56.3786 C   0  0  0  0  0  0  0  0  0  0  0  0
   23.8912   32.2022   48.2047 H   0  0  0  0  0  0  0  0  0  0  0  0
   23.9608   33.4957   46.9603 H   0  0  0  0  0  0  0  0  0  0  0  0
   24.6824   31.8855   46.6235 H   0  0  0  0  0  0  0  0  0  0  0  0
   27.6804   34.0869   47.3127 H   0  0  0  0  0  0  0  0  0  0  0  0
   26.9267   33.0017   46.0958 H   0  0  0  0  0  0  0  0  0  0  0  0
   26.2052   34.6119   46.4326 H   0  0  0  0  0  0  0  0  0  0  0  0
   26.7104   34.3805   49.5222 H   0  0  0  0  0  0  0  0  0  0  0  0
   25.1451   34.9736   48.8704 H   0  0  0  0  0  0  0  0  0  0  0  0
   23.9105   33.2762   50.0775 H   0  0  0  0  0  0  0  0  0  0  0  0
   25.4230   32.4310   50.5513 H   0  0  0  0  0  0  0  0  0  0  0  0
   26.0723   34.2378   52.0209 H   0  0  0  0  0  0  0  0  0  0  0  0
   24.7780   35.3071   51.3822 H   0  0  0  0  0  0  0  0  0  0  0  0
   22.4854   33.2118   54.0366 H   0  0  0  0  0  0  0  0  0  0  0  0
   25.1743   33.4510   56.5963 H   0  0  0  0  0  0  0  0  0  0  0  0
   24.7775   32.7359   58.9299 H   0  0  0  0  0  0  0  0  0  0  0  0
   22.5495   31.9276   59.6244 H   0  0  0  0  0  0  0  0  0  0  0  0
   20.1929   31.8990   59.2319 H   0  0  0  0  0  0  0  0  0  0  0  0
   19.5153   32.4205   57.6521 H   0  0  0  0  0  0  0  0  0  0  0  0
   19.1852   26.8481   56.6967 H   0  0  0  0  0  0  0  0  0  0  0  0
   20.0452   27.2187   58.9037 H   0  0  0  0  0  0  0  0  0  0  0  0
   17.7903   26.7776   55.1766 H   0  0  0  0  0  0  0  0  0  0  0  0
   16.9155   26.4006   52.8981 H   0  0  0  0  0  0  0  0  0  0  0  0
   18.5094   30.1775   51.6557 H   0  0  0  0  0  0  0  0  0  0  0  0
   19.3802   30.5656   53.9327 H   0  0  0  0  0  0  0  0  0  0  0  0
   21.0562   32.6547   55.6732 H   0  0  0  0  0  0  0  0  0  0  0  0
  1  2  1  0  0  0  0
  2  3  1  0  0  0  0
  2  4  1  0  0  0  0
  4  5  1  0  0  0  0
  5  6  1  0  0  0  0
  6  7  1  0  0  0  0
  7  8  1  0  0  0  0
  8  9  2  0  0  0  0
  8 10  1  0  0  0  0
 10 11  1  0  0  0  0
 11 12  2  0  0  0  0
 11 31  1  0  0  0  0
 12 13  1  0  0  0  0
 13 14  2  0  0  0  0
 14 15  1  0  0  0  0
 15 16  1  0  0  0  0
 15 31  2  0  0  0  0
 16 17  1  0  0  0  0
 17 18  1  0  0  0  0
 17 22  1  0  0  0  0
 18 19  2  0  0  0  0
 19 20  1  0  0  0  0
 19 24  1  0  0  0  0
 20 21  2  0  0  0  0
 21 22  1  0  0  0  0
 22 23  2  0  0  0  0
 24 25  2  0  0  0  0
 24 30  1  0  0  0  0
 25 26  1  0  0  0  0
 26 27  2  0  0  0  0
 27 28  1  0  0  0  0
 27 29  1  0  0  0  0
 29 30  2  0  0  0  0
  1 32  1  0  0  0  0
  1 33  1  0  0  0  0
  1 34  1  0  0  0  0
  3 35  1  0  0  0  0
  3 36  1  0  0  0  0
  3 37  1  0  0  0  0
  4 38  1  0  0  0  0
  4 39  1  0  0  0  0
  5 40  1  0  0  0  0
  5 41  1  0  0  0  0
  6 42  1  0  0  0  0
  6 43  1  0  0  0  0
 10 44  1  0  0  0  0
 12 45  1  0  0  0  0
 13 46  1  0  0  0  0
 14 47  1  0  0  0  0
 16 48  1  0  0  0  0
 16 49  1  0  0  0  0
 20 50  1  0  0  0  0
 21 51  1  0  0  0  0
 25 52  1  0  0  0  0
 26 53  1  0  0  0  0
 29 54  1  0  0  0  0
 30 55  1  0  0  0  0
 31 56  1  0  0  0  0
M  END
> <s_user_Name>
CHEMBL3402764_90

> <IC50[nM]>
90

$$$$
CHEMBL3402764_90
  -OEChem-05192314313D
 Structure written by MMmdl.
 56 58  0     0  0  0  0  0  0999 V2000
   24.4983   32.6426   47.4000 C   0  0  0  0  0  0  0  0  0  0  0  0
   25.8477   33.1265   47.9776 N   0  0  0  0  0  0  0  0  0  0  0  0
   26.7282   33.7516   46.8757 C   0  0  0  0  0  0  0  0  0  0  0  0
   25.7070   34.0817   49.1846 C   0  0  0  0  0  0  0  0  0  0  0  0
   24.9669   33.4120   50.3525 C   0  0  0  0  0  0  0  0  0  0  0  0
   25.0476   34.2680   51.6221 C   0  0  0  0  0  0  0  0  0  0  0  0
   24.1442   33.7553   52.5943 O   0  0  0  0  0  0  0  0  0  0  0  0
   24.4004   33.8646   53.9094 C   0  0  0  0  0  0  0  0  0  0  0  0
   25.4439   34.3239   54.3765 O   0  0  0  0  0  0  0  0  0  0  0  0
   23.2956   33.3782   54.5987 N   0  0  0  0  0  0  0  0  0  0  0  0
   23.1427   33.0843   55.9651 C   0  0  0  0  0  0  0  0  0  0  0  0
   24.1938   33.1130   56.8977 C   0  0  0  0  0  0  0  0  0  0  0  0
   23.9701   32.7046   58.2133 C   0  0  0  0  0  0  0  0  0  0  0  0
   22.7094   32.2562   58.6081 C   0  0  0  0  0  0  0  0  0  0  0  0
   21.6523   32.2304   57.6940 C   0  0  0  0  0  0  0  0  0  0  0  0
   20.2620   31.7774   58.1408 C   0  0  0  0  0  0  0  0  0  0  0  0
   19.9517   30.3721   57.8100 N   0  0  0  0  0  0  0  0  0  0  0  0
   19.4515   30.1430   56.5234 N   0  0  0  0  0  0  0  0  0  0  0  0
   19.1719   28.9566   56.0882 C   0  0  0  0  0  0  0  0  0  0  0  0
   19.4049   27.8574   57.0122 C   0  0  0  0  0  0  0  0  0  0  0  0
   19.8897   28.0688   58.2559 C   0  0  0  0  0  0  0  0  0  0  0  0
   20.2101   29.3962   58.7559 C   0  0  0  0  0  0  0  0  0  0  0  0
   20.6471   29.5714   59.8944 O   0  0  0  0  0  0  0  0  0  0  0  0
   18.6411   28.7040   54.7248 C   0  0  0  0  0  0  0  0  0  0  0  0
   17.9457   27.5247   54.4124 C   0  0  0  0  0  0  0  0  0  0  0  0
   17.4541   27.3084   53.1266 C   0  0  0  0  0  0  0  0  0  0  0  0
   17.6594   28.2659   52.1380 C   0  0  0  0  0  0  0  0  0  0  0  0
   17.1816   28.0564   50.8899 F   0  0  0  0  0  0  0  0  0  0  0  0
   18.3519   29.4381   52.4270 C   0  0  0  0  0  0  0  0  0  0  0  0
   18.8414   29.6559   53.7125 C   0  0  0  0  0  0  0  0  0  0  0  0
   21.8740   32.6562   56.3786 C   0  0  0  0  0  0  0  0  0  0  0  0
   23.8912   32.2022   48.2047 H   0  0  0  0  0  0  0  0  0  0  0  0
   23.9608   33.4957   46.9603 H   0  0  0  0  0  0  0  0  0  0  0  0
   24.6824   31.8855   46.6235 H   0  0  0  0  0  0  0  0  0  0  0  0
   27.6804   34.0869   47.3127 H   0  0  0  0  0  0  0  0  0  0  0  0
   26.9267   33.0017   46.0958 H   0  0  0  0  0  0  0  0  0  0  0  0
   26.2052   34.6119   46.4326 H   0  0  0  0  0  0  0  0  0  0  0  0
   26.7104   34.3805   49.5222 H   0  0  0  0  0  0  0  0  0  0  0  0
   25.1451   34.9736   48.8704 H   0  0  0  0  0  0  0  0  0  0  0  0
   23.9105   33.2762   50.0775 H   0  0  0  0  0  0  0  0  0  0  0  0
   25.4230   32.4310   50.5513 H   0  0  0  0  0  0  0  0  0  0  0  0
   26.0723   34.2378   52.0209 H   0  0  0  0  0  0  0  0  0  0  0  0
   24.7780   35.3071   51.3822 H   0  0  0  0  0  0  0  0  0  0  0  0
   25.4028   34.3030   55.3254 H   0  0  0  0  0  0  0  0  0  0  0  0
   25.1743   33.4510   56.5963 H   0  0  0  0  0  0  0  0  0  0  0  0
   24.7775   32.7359   58.9299 H   0  0  0  0  0  0  0  0  0  0  0  0
   22.5495   31.9276   59.6244 H   0  0  0  0  0  0  0  0  0  0  0  0
   20.1929   31.8990   59.2319 H   0  0  0  0  0  0  0  0  0  0  0  0
   19.5153   32.4205   57.6521 H   0  0  0  0  0  0  0  0  0  0  0  0
   19.1852   26.8481   56.6967 H   0  0  0  0  0  0  0  0  0  0  0  0
   20.0452   27.2187   58.9037 H   0  0  0  0  0  0  0  0  0  0  0  0
   17.7903   26.7776   55.1766 H   0  0  0  0  0  0  0  0  0  0  0  0
   16.9155   26.4006   52.8981 H   0  0  0  0  0  0  0  0  0  0  0  0
   18.5094   30.1775   51.6557 H   0  0  0  0  0  0  0  0  0  0  0  0
   19.3802   30.5656   53.9327 H   0  0  0  0  0  0  0  0  0  0  0  0
   21.0562   32.6547   55.6732 H   0  0  0  0  0  0  0  0  0  0  0  0
  1  2  1  0  0  0  0
  2  3  1  0  0  0  0
  2  4  1  0  0  0  0
  4  5  1  0  0  0  0
  5  6  1  0  0  0  0
  6  7  1  0  0  0  0
  7  8  1  0  0  0  0
  8  9  1  0  0  0  0
  8 10  2  0  0  0  0
 10 11  1  0  0  0  0
 11 12  2  0  0  0  0
 11 31  1  0  0  0  0
 12 13  1  0  0  0  0
 13 14  2  0  0  0  0
 14 15  1  0  0  0  0
 15 16  1  0  0  0  0
 15 31  2  0  0  0  0
 16 17  1  0  0  0  0
 17 18  1  0  0  0  0
 17 22  1  0  0  0  0
 18 19  2  0  0  0  0
 19 20  1  0  0  0  0
 19 24  1  0  0  0  0
 20 21  2  0  0  0  0
 21 22  1  0  0  0  0
 22 23  2  0  0  0  0
 24 25  2  0  0  0  0
 24 30  1  0  0  0  0
 25 26  1  0  0  0  0
 26 27  2  0  0  0  0
 27 28  1  0  0  0  0
 27 29  1  0  0  0  0
 29 30  2  0  0  0  0
  1 32  1  0  0  0  0
  1 33  1  0  0  0  0
  1 34  1  0  0  0  0
  3 35  1  0  0  0  0
  3 36  1  0  0  0  0
  3 37  1  0  0  0  0
  4 38  1  0  0  0  0
  4 39  1  0  0  0  0
  5 40  1  0  0  0  0
  5 41  1  0  0  0  0
  6 42  1  0  0  0  0
  6 43  1  0  0  0  0
  9 44  1  0  0  0  0
 12 45  1  0  0  0  0
 13 46  1  0  0  0  0
 14 47  1  0  0  0  0
 16 48  1  0  0  0  0
 16 49  1  0  0  0  0
 20 50  1  0  0  0  0
 21 51  1  0  0  0  0
 25 52  1  0  0  0  0
 26 53  1  0  0  0  0
 29 54  1  0  0  0  0
 30 55  1  0  0  0  0
 31 56  1  0  0  0  0
M  END
> <s_user_Name>
CHEMBL3402764_90

> <IC50[nM]>
90

$$$$
CHEMBL3402764_90
  -OEChem-05192314313D
 Structure written by MMmdl.
 56 58  0     0  0  0  0  0  0999 V2000
   24.4983   32.6426   47.4000 C   0  0  0  0  0  0  0  0  0  0  0  0
   25.8477   33.1265   47.9776 N   0  0  0  0  0  0  0  0  0  0  0  0
   26.7282   33.7516   46.8757 C   0  0  0  0  0  0  0  0  0  0  0  0
   25.7070   34.0817   49.1846 C   0  0  0  0  0  0  0  0  0  0  0  0
   24.9669   33.4120   50.3525 C   0  0  0  0  0  0  0  0  0  0  0  0
   25.0476   34.2680   51.6221 C   0  0  0  0  0  0  0  0  0  0  0  0
   24.1442   33.7553   52.5943 O   0  0  0  0  0  0  0  0  0  0  0  0
   24.4004   33.8646   53.9094 C   0  0  0  0  0  0  0  0  0  0  0  0
   25.4439   34.3239   54.3765 O   0  0  0  0  0  0  0  0  0  0  0  0
   23.2956   33.3782   54.5987 N   0  0  0  0  0  0  0  0  0  0  0  0
   23.1427   33.0843   55.9651 C   0  0  0  0  0  0  0  0  0  0  0  0
   24.1938   33.1130   56.8977 C   0  0  0  0  0  0  0  0  0  0  0  0
   23.9701   32.7046   58.2133 C   0  0  0  0  0  0  0  0  0  0  0  0
   22.7094   32.2562   58.6081 C   0  0  0  0  0  0  0  0  0  0  0  0
   21.6523   32.2304   57.6940 C   0  0  0  0  0  0  0  0  0  0  0  0
   20.2620   31.7774   58.1408 C   0  0  0  0  0  0  0  0  0  0  0  0
   19.9517   30.3721   57.8100 N   0  0  0  0  0  0  0  0  0  0  0  0
   19.4515   30.1430   56.5234 N   0  0  0  0  0  0  0  0  0  0  0  0
   19.1719   28.9566   56.0882 C   0  0  0  0  0  0  0  0  0  0  0  0
   19.4049   27.8574   57.0122 C   0  0  0  0  0  0  0  0  0  0  0  0
   19.8897   28.0688   58.2559 C   0  0  0  0  0  0  0  0  0  0  0  0
   20.2101   29.3962   58.7559 C   0  0  0  0  0  0  0  0  0  0  0  0
   20.6471   29.5714   59.8944 O   0  0  0  0  0  0  0  0  0  0  0  0
   18.6411   28.7040   54.7248 C   0  0  0  0  0  0  0  0  0  0  0  0
   17.9457   27.5247   54.4124 C   0  0  0  0  0  0  0  0  0  0  0  0
   17.4541   27.3084   53.1266 C   0  0  0  0  0  0  0  0  0  0  0  0
   17.6594   28.2659   52.1380 C   0  0  0  0  0  0  0  0  0  0  0  0
   17.1816   28.0564   50.8899 F   0  0  0  0  0  0  0  0  0  0  0  0
   18.3519   29.4381   52.4270 C   0  0  0  0  0  0  0  0  0  0  0  0
   18.8414   29.6559   53.7125 C   0  0  0  0  0  0  0  0  0  0  0  0
   21.8740   32.6562   56.3786 C   0  0  0  0  0  0  0  0  0  0  0  0
   23.8912   32.2022   48.2047 H   0  0  0  0  0  0  0  0  0  0  0  0
   23.9608   33.4957   46.9603 H   0  0  0  0  0  0  0  0  0  0  0  0
   24.6824   31.8855   46.6235 H   0  0  0  0  0  0  0  0  0  0  0  0
   27.6804   34.0869   47.3127 H   0  0  0  0  0  0  0  0  0  0  0  0
   26.9267   33.0017   46.0958 H   0  0  0  0  0  0  0  0  0  0  0  0
   26.2052   34.6119   46.4326 H   0  0  0  0  0  0  0  0  0  0  0  0
   26.7104   34.3805   49.5222 H   0  0  0  0  0  0  0  0  0  0  0  0
   25.1451   34.9736   48.8704 H   0  0  0  0  0  0  0  0  0  0  0  0
   23.9105   33.2762   50.0775 H   0  0  0  0  0  0  0  0  0  0  0  0
   25.4230   32.4310   50.5513 H   0  0  0  0  0  0  0  0  0  0  0  0
   26.0723   34.2378   52.0209 H   0  0  0  0  0  0  0  0  0  0  0  0
   24.7780   35.3071   51.3822 H   0  0  0  0  0  0  0  0  0  0  0  0
   24.9917   32.4705   56.4970 H   0  0  0  0  0  0  0  0  0  0  0  0
   24.5491   34.1530   56.9440 H   0  0  0  0  0  0  0  0  0  0  0  0
   24.7775   32.7359   58.9299 H   0  0  0  0  0  0  0  0  0  0  0  0
   22.5495   31.9276   59.6244 H   0  0  0  0  0  0  0  0  0  0  0  0
   20.1929   31.8990   59.2319 H   0  0  0  0  0  0  0  0  0  0  0  0
   19.5153   32.4205   57.6521 H   0  0  0  0  0  0  0  0  0  0  0  0
   19.1852   26.8481   56.6967 H   0  0  0  0  0  0  0  0  0  0  0  0
   20.0452   27.2187   58.9037 H   0  0  0  0  0  0  0  0  0  0  0  0
   17.7903   26.7776   55.1766 H   0  0  0  0  0  0  0  0  0  0  0  0
   16.9155   26.4006   52.8981 H   0  0  0  0  0  0  0  0  0  0  0  0
   18.5094   30.1775   51.6557 H   0  0  0  0  0  0  0  0  0  0  0  0
   19.3802   30.5656   53.9327 H   0  0  0  0  0  0  0  0  0  0  0  0
   21.0562   32.6547   55.6732 H   0  0  0  0  0  0  0  0  0  0  0  0
  1  2  1  0  0  0  0
  2  3  1  0  0  0  0
  2  4  1  0  0  0  0
  4  5  1  0  0  0  0
  5  6  1  0  0  0  0
  6  7  1  0  0  0  0
  7  8  1  0  0  0  0
  8  9  2  0  0  0  0
  8 10  1  0  0  0  0
 10 11  2  0  0  0  0
 11 12  1  0  0  0  0
 11 31  1  0  0  0  0
 12 13  1  0  0  0  0
 13 14  2  0  0  0  0
 14 15  1  0  0  0  0
 15 16  1  0  0  0  0
 15 31  2  0  0  0  0
 16 17  1  0  0  0  0
 17 18  1  0  0  0  0
 17 22  1  0  0  0  0
 18 19  2  0  0  0  0
 19 20  1  0  0  0  0
 19 24  1  0  0  0  0
 20 21  2  0  0  0  0
 21 22  1  0  0  0  0
 22 23  2  0  0  0  0
 24 25  2  0  0  0  0
 24 30  1  0  0  0  0
 25 26  1  0  0  0  0
 26 27  2  0  0  0  0
 27 28  1  0  0  0  0
 27 29  1  0  0  0  0
 29 30  2  0  0  0  0
  1 32  1  0  0  0  0
  1 33  1  0  0  0  0
  1 34  1  0  0  0  0
  3 35  1  0  0  0  0
  3 36  1  0  0  0  0
  3 37  1  0  0  0  0
  4 38  1  0  0  0  0
  4 39  1  0  0  0  0
  5 40  1  0  0  0  0
  5 41  1  0  0  0  0
  6 42  1  0  0  0  0
  6 43  1  0  0  0  0
 12 44  1  0  0  0  0
 12 45  1  0  0  0  0
 13 46  1  0  0  0  0
 14 47  1  0  0  0  0
 16 48  1  0  0  0  0
 16 49  1  0  0  0  0
 20 50  1  0  0  0  0
 21 51  1  0  0  0  0
 25 52  1  0  0  0  0
 26 53  1  0  0  0  0
 29 54  1  0  0  0  0
 30 55  1  0  0  0  0
 31 56  1  0  0  0  0
M  END
> <s_user_Name>
CHEMBL3402764_90

> <IC50[nM]>
90

$$$$
CHEMBL3402764_90
  -OEChem-05192314313D
 Structure written by MMmdl.
 56 58  0     0  0  0  0  0  0999 V2000
   24.4983   32.6426   47.4000 C   0  0  0  0  0  0  0  0  0  0  0  0
   25.8477   33.1265   47.9776 N   0  0  0  0  0  0  0  0  0  0  0  0
   26.7282   33.7516   46.8757 C   0  0  0  0  0  0  0  0  0  0  0  0
   25.7070   34.0817   49.1846 C   0  0  0  0  0  0  0  0  0  0  0  0
   24.9669   33.4120   50.3525 C   0  0  0  0  0  0  0  0  0  0  0  0
   25.0476   34.2680   51.6221 C   0  0  0  0  0  0  0  0  0  0  0  0
   24.1442   33.7553   52.5943 O   0  0  0  0  0  0  0  0  0  0  0  0
   24.4004   33.8646   53.9094 C   0  0  0  0  0  0  0  0  0  0  0  0
   25.4439   34.3239   54.3765 O   0  0  0  0  0  0  0  0  0  0  0  0
   23.2956   33.3782   54.5987 N   0  0  0  0  0  0  0  0  0  0  0  0
   23.1427   33.0843   55.9651 C   0  0  0  0  0  0  0  0  0  0  0  0
   24.1938   33.1130   56.8977 C   0  0  0  0  0  0  0  0  0  0  0  0
   23.9701   32.7046   58.2133 C   0  0  0  0  0  0  0  0  0  0  0  0
   22.7094   32.2562   58.6081 C   0  0  0  0  0  0  0  0  0  0  0  0
   21.6523   32.2304   57.6940 C   0  0  0  0  0  0  0  0  0  0  0  0
   20.2620   31.7774   58.1408 C   0  0  0  0  0  0  0  0  0  0  0  0
   19.9517   30.3721   57.8100 N   0  0  0  0  0  0  0  0  0  0  0  0
   19.4515   30.1430   56.5234 N   0  0  0  0  0  0  0  0  0  0  0  0
   19.1719   28.9566   56.0882 C   0  0  0  0  0  0  0  0  0  0  0  0
   19.4049   27.8574   57.0122 C   0  0  0  0  0  0  0  0  0  0  0  0
   19.8897   28.0688   58.2559 C   0  0  0  0  0  0  0  0  0  0  0  0
   20.2101   29.3962   58.7559 C   0  0  0  0  0  0  0  0  0  0  0  0
   20.6471   29.5714   59.8944 O   0  0  0  0  0  0  0  0  0  0  0  0
   18.6411   28.7040   54.7248 C   0  0  0  0  0  0  0  0  0  0  0  0
   17.9457   27.5247   54.4124 C   0  0  0  0  0  0  0  0  0  0  0  0
   17.4541   27.3084   53.1266 C   0  0  0  0  0  0  0  0  0  0  0  0
   17.6594   28.2659   52.1380 C   0  0  0  0  0  0  0  0  0  0  0  0
   17.1816   28.0564   50.8899 F   0  0  0  0  0  0  0  0  0  0  0  0
   18.3519   29.4381   52.4270 C   0  0  0  0  0  0  0  0  0  0  0  0
   18.8414   29.6559   53.7125 C   0  0  0  0  0  0  0  0  0  0  0  0
   21.8740   32.6562   56.3786 C   0  0  0  0  0  0  0  0  0  0  0  0
   23.8912   32.2022   48.2047 H   0  0  0  0  0  0  0  0  0  0  0  0
   23.9608   33.4957   46.9603 H   0  0  0  0  0  0  0  0  0  0  0  0
   24.6824   31.8855   46.6235 H   0  0  0  0  0  0  0  0  0  0  0  0
   27.6804   34.0869   47.3127 H   0  0  0  0  0  0  0  0  0  0  0  0
   26.9267   33.0017   46.0958 H   0  0  0  0  0  0  0  0  0  0  0  0
   26.2052   34.6119   46.4326 H   0  0  0  0  0  0  0  0  0  0  0  0
   26.7104   34.3805   49.5222 H   0  0  0  0  0  0  0  0  0  0  0  0
   25.1451   34.9736   48.8704 H   0  0  0  0  0  0  0  0  0  0  0  0
   23.9105   33.2762   50.0775 H   0  0  0  0  0  0  0  0  0  0  0  0
   25.4230   32.4310   50.5513 H   0  0  0  0  0  0  0  0  0  0  0  0
   26.0723   34.2378   52.0209 H   0  0  0  0  0  0  0  0  0  0  0  0
   24.7780   35.3071   51.3822 H   0  0  0  0  0  0  0  0  0  0  0  0
   25.1743   33.4510   56.5963 H   0  0  0  0  0  0  0  0  0  0  0  0
   24.7775   32.7359   58.9299 H   0  0  0  0  0  0  0  0  0  0  0  0
   22.8395   31.2257   58.9703 H   0  0  0  0  0  0  0  0  0  0  0  0
   22.3913   32.9002   59.4412 H   0  0  0  0  0  0  0  0  0  0  0  0
   20.1929   31.8990   59.2319 H   0  0  0  0  0  0  0  0  0  0  0  0
   19.5153   32.4205   57.6521 H   0  0  0  0  0  0  0  0  0  0  0  0
   19.1852   26.8481   56.6967 H   0  0  0  0  0  0  0  0  0  0  0  0
   20.0452   27.2187   58.9037 H   0  0  0  0  0  0  0  0  0  0  0  0
   17.7903   26.7776   55.1766 H   0  0  0  0  0  0  0  0  0  0  0  0
   16.9155   26.4006   52.8981 H   0  0  0  0  0  0  0  0  0  0  0  0
   18.5094   30.1775   51.6557 H   0  0  0  0  0  0  0  0  0  0  0  0
   19.3802   30.5656   53.9327 H   0  0  0  0  0  0  0  0  0  0  0  0
   21.0562   32.6547   55.6732 H   0  0  0  0  0  0  0  0  0  0  0  0
  1  2  1  0  0  0  0
  2  3  1  0  0  0  0
  2  4  1  0  0  0  0
  4  5  1  0  0  0  0
  5  6  1  0  0  0  0
  6  7  1  0  0  0  0
  7  8  1  0  0  0  0
  8  9  2  0  0  0  0
  8 10  1  0  0  0  0
 10 11  2  0  0  0  0
 11 12  1  0  0  0  0
 11 31  1  0  0  0  0
 12 13  2  0  0  0  0
 13 14  1  0  0  0  0
 14 15  1  0  0  0  0
 15 16  1  0  0  0  0
 15 31  2  0  0  0  0
 16 17  1  0  0  0  0
 17 18  1  0  0  0  0
 17 22  1  0  0  0  0
 18 19  2  0  0  0  0
 19 20  1  0  0  0  0
 19 24  1  0  0  0  0
 20 21  2  0  0  0  0
 21 22  1  0  0  0  0
 22 23  2  0  0  0  0
 24 25  2  0  0  0  0
 24 30  1  0  0  0  0
 25 26  1  0  0  0  0
 26 27  2  0  0  0  0
 27 28  1  0  0  0  0
 27 29  1  0  0  0  0
 29 30  2  0  0  0  0
  1 32  1  0  0  0  0
  1 33  1  0  0  0  0
  1 34  1  0  0  0  0
  3 35  1  0  0  0  0
  3 36  1  0  0  0  0
  3 37  1  0  0  0  0
  4 38  1  0  0  0  0
  4 39  1  0  0  0  0
  5 40  1  0  0  0  0
  5 41  1  0  0  0  0
  6 42  1  0  0  0  0
  6 43  1  0  0  0  0
 12 44  1  0  0  0  0
 13 45  1  0  0  0  0
 14 46  1  0  0  0  0
 14 47  1  0  0  0  0
 16 48  1  0  0  0  0
 16 49  1  0  0  0  0
 20 50  1  0  0  0  0
 21 51  1  0  0  0  0
 25 52  1  0  0  0  0
 26 53  1  0  0  0  0
 29 54  1  0  0  0  0
 30 55  1  0  0  0  0
 31 56  1  0  0  0  0
M  END
> <s_user_Name>
CHEMBL3402764_90

> <IC50[nM]>
90

$$$$
CHEMBL3402764_90
  -OEChem-05192314313D
 Structure written by MMmdl.
 56 58  0     0  0  0  0  0  0999 V2000
   24.4983   32.6426   47.4000 C   0  0  0  0  0  0  0  0  0  0  0  0
   25.8477   33.1265   47.9776 N   0  0  0  0  0  0  0  0  0  0  0  0
   26.7282   33.7516   46.8757 C   0  0  0  0  0  0  0  0  0  0  0  0
   25.7070   34.0817   49.1846 C   0  0  0  0  0  0  0  0  0  0  0  0
   24.9669   33.4120   50.3525 C   0  0  0  0  0  0  0  0  0  0  0  0
   25.0476   34.2680   51.6221 C   0  0  0  0  0  0  0  0  0  0  0  0
   24.1442   33.7553   52.5943 O   0  0  0  0  0  0  0  0  0  0  0  0
   24.4004   33.8646   53.9094 C   0  0  0  0  0  0  0  0  0  0  0  0
   25.4439   34.3239   54.3765 O   0  0  0  0  0  0  0  0  0  0  0  0
   23.2956   33.3782   54.5987 N   0  0  0  0  0  0  0  0  0  0  0  0
   23.1427   33.0843   55.9651 C   0  0  0  0  0  0  0  0  0  0  0  0
   24.1938   33.1130   56.8977 C   0  0  0  0  0  0  0  0  0  0  0  0
   23.9701   32.7046   58.2133 C   0  0  0  0  0  0  0  0  0  0  0  0
   22.7094   32.2562   58.6081 C   0  0  0  0  0  0  0  0  0  0  0  0
   21.6523   32.2304   57.6940 C   0  0  0  0  0  0  0  0  0  0  0  0
   20.2620   31.7774   58.1408 C   0  0  0  0  0  0  0  0  0  0  0  0
   19.9517   30.3721   57.8100 N   0  0  0  0  0  0  0  0  0  0  0  0
   19.4515   30.1430   56.5234 N   0  0  0  0  0  0  0  0  0  0  0  0
   19.1719   28.9566   56.0882 C   0  0  0  0  0  0  0  0  0  0  0  0
   19.4049   27.8574   57.0122 C   0  0  0  0  0  0  0  0  0  0  0  0
   19.8897   28.0688   58.2559 C   0  0  0  0  0  0  0  0  0  0  0  0
   20.2101   29.3962   58.7559 C   0  0  0  0  0  0  0  0  0  0  0  0
   20.6471   29.5714   59.8944 O   0  0  0  0  0  0  0  0  0  0  0  0
   18.6411   28.7040   54.7248 C   0  0  0  0  0  0  0  0  0  0  0  0
   17.9457   27.5247   54.4124 C   0  0  0  0  0  0  0  0  0  0  0  0
   17.4541   27.3084   53.1266 C   0  0  0  0  0  0  0  0  0  0  0  0
   17.6594   28.2659   52.1380 C   0  0  0  0  0  0  0  0  0  0  0  0
   17.1816   28.0564   50.8899 F   0  0  0  0  0  0  0  0  0  0  0  0
   18.3519   29.4381   52.4270 C   0  0  0  0  0  0  0  0  0  0  0  0
   18.8414   29.6559   53.7125 C   0  0  0  0  0  0  0  0  0  0  0  0
   21.8740   32.6562   56.3786 C   0  0  0  0  0  0  0  0  0  0  0  0
   23.8912   32.2022   48.2047 H   0  0  0  0  0  0  0  0  0  0  0  0
   23.9608   33.4957   46.9603 H   0  0  0  0  0  0  0  0  0  0  0  0
   24.6824   31.8855   46.6235 H   0  0  0  0  0  0  0  0  0  0  0  0
   27.6804   34.0869   47.3127 H   0  0  0  0  0  0  0  0  0  0  0  0
   26.9267   33.0017   46.0958 H   0  0  0  0  0  0  0  0  0  0  0  0
   26.2052   34.6119   46.4326 H   0  0  0  0  0  0  0  0  0  0  0  0
   26.7104   34.3805   49.5222 H   0  0  0  0  0  0  0  0  0  0  0  0
   25.1451   34.9736   48.8704 H   0  0  0  0  0  0  0  0  0  0  0  0
   23.9105   33.2762   50.0775 H   0  0  0  0  0  0  0  0  0  0  0  0
   25.4230   32.4310   50.5513 H   0  0  0  0  0  0  0  0  0  0  0  0
   26.0723   34.2378   52.0209 H   0  0  0  0  0  0  0  0  0  0  0  0
   24.7780   35.3071   51.3822 H   0  0  0  0  0  0  0  0  0  0  0  0
   25.1743   33.4510   56.5963 H   0  0  0  0  0  0  0  0  0  0  0  0
   24.7775   32.7359   58.9299 H   0  0  0  0  0  0  0  0  0  0  0  0
   22.5495   31.9276   59.6244 H   0  0  0  0  0  0  0  0  0  0  0  0
   20.1929   31.8990   59.2319 H   0  0  0  0  0  0  0  0  0  0  0  0
   19.5153   32.4205   57.6521 H   0  0  0  0  0  0  0  0  0  0  0  0
   19.1852   26.8481   56.6967 H   0  0  0  0  0  0  0  0  0  0  0  0
   20.0452   27.2187   58.9037 H   0  0  0  0  0  0  0  0  0  0  0  0
   17.7903   26.7776   55.1766 H   0  0  0  0  0  0  0  0  0  0  0  0
   16.9155   26.4006   52.8981 H   0  0  0  0  0  0  0  0  0  0  0  0
   18.5094   30.1775   51.6557 H   0  0  0  0  0  0  0  0  0  0  0  0
   19.3802   30.5656   53.9327 H   0  0  0  0  0  0  0  0  0  0  0  0
   21.1867   33.4965   56.2013 H   0  0  0  0  0  0  0  0  0  0  0  0
   21.5995   31.8141   55.7263 H   0  0  0  0  0  0  0  0  0  0  0  0
  1  2  1  0  0  0  0
  2  3  1  0  0  0  0
  2  4  1  0  0  0  0
  4  5  1  0  0  0  0
  5  6  1  0  0  0  0
  6  7  1  0  0  0  0
  7  8  1  0  0  0  0
  8  9  2  0  0  0  0
  8 10  1  0  0  0  0
 10 11  2  0  0  0  0
 11 12  1  0  0  0  0
 11 31  1  0  0  0  0
 12 13  2  0  0  0  0
 13 14  1  0  0  0  0
 14 15  2  0  0  0  0
 15 16  1  0  0  0  0
 15 31  1  0  0  0  0
 16 17  1  0  0  0  0
 17 18  1  0  0  0  0
 17 22  1  0  0  0  0
 18 19  2  0  0  0  0
 19 20  1  0  0  0  0
 19 24  1  0  0  0  0
 20 21  2  0  0  0  0
 21 22  1  0  0  0  0
 22 23  2  0  0  0  0
 24 25  2  0  0  0  0
 24 30  1  0  0  0  0
 25 26  1  0  0  0  0
 26 27  2  0  0  0  0
 27 28  1  0  0  0  0
 27 29  1  0  0  0  0
 29 30  2  0  0  0  0
  1 32  1  0  0  0  0
  1 33  1  0  0  0  0
  1 34  1  0  0  0  0
  3 35  1  0  0  0  0
  3 36  1  0  0  0  0
  3 37  1  0  0  0  0
  4 38  1  0  0  0  0
  4 39  1  0  0  0  0
  5 40  1  0  0  0  0
  5 41  1  0  0  0  0
  6 42  1  0  0  0  0
  6 43  1  0  0  0  0
 12 44  1  0  0  0  0
 13 45  1  0  0  0  0
 14 46  1  0  0  0  0
 16 47  1  0  0  0  0
 16 48  1  0  0  0  0
 20 49  1  0  0  0  0
 21 50  1  0  0  0  0
 25 51  1  0  0  0  0
 26 52  1  0  0  0  0
 29 53  1  0  0  0  0
 30 54  1  0  0  0  0
 31 55  1  0  0  0  0
 31 56  1  0  0  0  0
M  END
> <s_user_Name>
CHEMBL3402764_90

> <IC50[nM]>
90

$$$$
