CHEMBL3402750_400
  -OEChem-05192314313D
 Structure written by MMmdl.
 43 46  0     0  0  0  0  0  0999 V2000
   23.7416   33.4339   50.5656 C   0  0  0  0  0  0  0  0  0  0  0  0
   23.9419   33.5262   52.0577 C   0  0  0  0  0  0  0  0  0  0  0  0
   25.0472   33.9262   52.8109 C   0  0  0  0  0  0  0  0  0  0  0  0
   24.9413   33.8882   54.1251 N   0  0  0  0  0  0  0  0  0  0  0  0
   23.7703   33.4371   54.5091 C   0  0  0  0  0  0  0  0  0  0  0  0
   22.6918   33.0941   53.1909 S   0  0  0  0  0  0  0  0  0  0  0  0
   23.3991   33.1258   55.9322 C   0  0  0  0  0  0  0  0  0  0  0  0
   24.3940   33.1223   56.9191 C   0  0  0  0  0  0  0  0  0  0  0  0
   24.1066   32.7375   58.2267 C   0  0  0  0  0  0  0  0  0  0  0  0
   22.8110   32.3634   58.5715 C   0  0  0  0  0  0  0  0  0  0  0  0
   21.7948   32.3802   57.6162 C   0  0  0  0  0  0  0  0  0  0  0  0
   20.3655   32.0248   58.0262 C   0  0  0  0  0  0  0  0  0  0  0  0
   20.0019   30.6204   57.7683 N   0  0  0  0  0  0  0  0  0  0  0  0
   19.4474   30.3566   56.5137 N   0  0  0  0  0  0  0  0  0  0  0  0
   19.0638   29.1726   56.1515 C   0  0  0  0  0  0  0  0  0  0  0  0
   19.2956   28.1043   57.1128 C   0  0  0  0  0  0  0  0  0  0  0  0
   19.8470   28.3480   58.3259 C   0  0  0  0  0  0  0  0  0  0  0  0
   20.2312   29.6832   58.7547 C   0  0  0  0  0  0  0  0  0  0  0  0
   20.6849   29.9063   59.8819 O   0  0  0  0  0  0  0  0  0  0  0  0
   18.4133   28.9105   54.8422 C   0  0  0  0  0  0  0  0  0  0  0  0
   17.9351   29.9898   54.0754 C   0  0  0  0  0  0  0  0  0  0  0  0
   17.2559   29.7777   52.8782 C   0  0  0  0  0  0  0  0  0  0  0  0
   16.7949   30.8353   52.1707 F   0  0  0  0  0  0  0  0  0  0  0  0
   17.0400   28.4827   52.4202 C   0  0  0  0  0  0  0  0  0  0  0  0
   17.5120   27.4001   53.1582 C   0  0  0  0  0  0  0  0  0  0  0  0
   17.2881   26.1399   52.7214 F   0  0  0  0  0  0  0  0  0  0  0  0
   18.2026   27.6096   54.3522 C   0  0  0  0  0  0  0  0  0  0  0  0
   22.0909   32.7664   56.3023 C   0  0  0  0  0  0  0  0  0  0  0  0
   22.7264   33.0674   50.3534 H   0  0  0  0  0  0  0  0  0  0  0  0
   23.8735   34.4290   50.1158 H   0  0  0  0  0  0  0  0  0  0  0  0
   24.4791   32.7381   50.1391 H   0  0  0  0  0  0  0  0  0  0  0  0
   25.9583   34.2557   52.3336 H   0  0  0  0  0  0  0  0  0  0  0  0
   25.3990   33.4226   56.6619 H   0  0  0  0  0  0  0  0  0  0  0  0
   24.8881   32.7294   58.9721 H   0  0  0  0  0  0  0  0  0  0  0  0
   22.5914   32.0585   59.5840 H   0  0  0  0  0  0  0  0  0  0  0  0
   20.2559   32.2187   59.1034 H   0  0  0  0  0  0  0  0  0  0  0  0
   19.6737   32.6703   57.4652 H   0  0  0  0  0  0  0  0  0  0  0  0
   19.0213   27.0927   56.8525 H   0  0  0  0  0  0  0  0  0  0  0  0
   20.0073   27.5195   58.9999 H   0  0  0  0  0  0  0  0  0  0  0  0
   18.0977   30.9998   54.4215 H   0  0  0  0  0  0  0  0  0  0  0  0
   16.5080   28.3169   51.4951 H   0  0  0  0  0  0  0  0  0  0  0  0
   18.5797   26.7628   54.9064 H   0  0  0  0  0  0  0  0  0  0  0  0
   21.3035   32.7884   55.5635 H   0  0  0  0  0  0  0  0  0  0  0  0
  1  2  1  0  0  0  0
  2  3  2  0  0  0  0
  2  6  1  0  0  0  0
  3  4  1  0  0  0  0
  4  5  2  0  0  0  0
  5  6  1  0  0  0  0
  5  7  1  0  0  0  0
  7  8  2  0  0  0  0
  7 28  1  0  0  0  0
  8  9  1  0  0  0  0
  9 10  2  0  0  0  0
 10 11  1  0  0  0  0
 11 12  1  0  0  0  0
 11 28  2  0  0  0  0
 12 13  1  0  0  0  0
 13 14  1  0  0  0  0
 13 18  1  0  0  0  0
 14 15  2  0  0  0  0
 15 16  1  0  0  0  0
 15 20  1  0  0  0  0
 16 17  2  0  0  0  0
 17 18  1  0  0  0  0
 18 19  2  0  0  0  0
 20 21  2  0  0  0  0
 20 27  1  0  0  0  0
 21 22  1  0  0  0  0
 22 23  1  0  0  0  0
 22 24  2  0  0  0  0
 24 25  1  0  0  0  0
 25 26  1  0  0  0  0
 25 27  2  0  0  0  0
  1 29  1  0  0  0  0
  1 30  1  0  0  0  0
  1 31  1  0  0  0  0
  3 32  1  0  0  0  0
  8 33  1  0  0  0  0
  9 34  1  0  0  0  0
 10 35  1  0  0  0  0
 12 36  1  0  0  0  0
 12 37  1  0  0  0  0
 16 38  1  0  0  0  0
 17 39  1  0  0  0  0
 21 40  1  0  0  0  0
 24 41  1  0  0  0  0
 27 42  1  0  0  0  0
 28 43  1  0  0  0  0
M  END
> <s_user_Name>
CHEMBL3402750_400

> <IC50[nM]>
400

$$$$
