CHEMBL3402762_1
  -OEChem-05192314313D
 Structure written by MMmdl.
 65 69  0     1  0  0  0  0  0999 V2000
   25.2972   29.3647   46.7015 C   0  0  0  0  0  0  0  0  0  0  0  0
   25.0472   30.5455   47.6646 N   0  0  2  0  0  0  0  0  0  0  0  0
   23.6340   30.4434   48.2818 C   0  0  0  0  0  0  0  0  0  0  0  0
   23.4401   31.5920   49.2829 C   0  0  0  0  0  0  0  0  0  0  0  0
   23.6806   32.9771   48.6432 C   0  0  1  0  0  0  0  0  0  0  0  0
   23.5016   34.1241   49.6598 C   0  0  0  0  0  0  0  0  0  0  0  0
   24.4712   34.0336   50.7092 O   0  0  0  0  0  0  0  0  0  0  0  0
   24.0941   33.7587   52.0109 C   0  0  0  0  0  0  0  0  0  0  0  0
   25.0463   33.9328   53.0156 C   0  0  0  0  0  0  0  0  0  0  0  0
   24.7792   33.7416   54.3338 N   0  0  0  0  0  0  0  0  0  0  0  0
   23.5184   33.3355   54.6583 C   0  0  0  0  0  0  0  0  0  0  0  0
   22.5278   33.1163   53.7486 N   0  0  0  0  0  0  0  0  0  0  0  0
   22.8299   33.3247   52.4399 C   0  0  0  0  0  0  0  0  0  0  0  0
   23.2238   33.0313   56.1029 C   0  0  0  0  0  0  0  0  0  0  0  0
   24.2415   33.0442   57.0710 C   0  0  0  0  0  0  0  0  0  0  0  0
   23.9955   32.6644   58.3898 C   0  0  0  0  0  0  0  0  0  0  0  0
   22.7234   32.2550   58.7744 C   0  0  0  0  0  0  0  0  0  0  0  0
   21.6814   32.2510   57.8432 C   0  0  0  0  0  0  0  0  0  0  0  0
   20.2776   31.8222   58.2633 C   0  0  0  0  0  0  0  0  0  0  0  0
   19.9596   30.4283   57.9055 N   0  0  0  0  0  0  0  0  0  0  0  0
   19.5057   30.2203   56.5990 N   0  0  0  0  0  0  0  0  0  0  0  0
   19.2468   29.0387   56.1349 C   0  0  0  0  0  0  0  0  0  0  0  0
   19.4363   27.9257   57.0492 C   0  0  0  0  0  0  0  0  0  0  0  0
   19.8875   28.1176   58.3104 C   0  0  0  0  0  0  0  0  0  0  0  0
   20.2068   29.4347   58.8316 C   0  0  0  0  0  0  0  0  0  0  0  0
   20.6455   29.5966   59.9728 O   0  0  0  0  0  0  0  0  0  0  0  0
   18.7906   28.8114   54.7456 C   0  0  0  0  0  0  0  0  0  0  0  0
   19.1078   29.7541   53.7518 C   0  0  0  0  0  0  0  0  0  0  0  0
   18.7040   29.5653   52.4326 C   0  0  0  0  0  0  0  0  0  0  0  0
   17.9727   28.4346   52.0806 C   0  0  0  0  0  0  0  0  0  0  0  0
   17.6452   27.4857   53.0540 C   0  0  0  0  0  0  0  0  0  0  0  0
   18.0626   27.6673   54.3751 C   0  0  0  0  0  0  0  0  0  0  0  0
   16.8662   26.3141   52.6780 C   0  0  0  0  0  0  0  0  0  0  0  0
   16.2469   25.3833   52.3771 N   0  0  0  0  0  0  0  0  0  0  0  0
   21.9323   32.6609   56.5280 C   0  0  0  0  0  0  0  0  0  0  0  0
   25.0622   33.0303   47.9539 C   0  0  0  0  0  0  0  0  0  0  0  0
   25.2640   31.8925   46.9387 C   0  0  0  0  0  0  0  0  0  0  0  0
   26.3054   29.4499   46.2700 H   0  0  0  0  0  0  0  0  0  0  0  0
   25.2138   28.4171   47.2539 H   0  0  0  0  0  0  0  0  0  0  0  0
   24.5501   29.3855   45.8944 H   0  0  0  0  0  0  0  0  0  0  0  0
   22.8781   30.5165   47.4860 H   0  0  0  0  0  0  0  0  0  0  0  0
   23.5274   29.4797   48.8013 H   0  0  0  0  0  0  0  0  0  0  0  0
   22.4105   31.5548   49.6683 H   0  0  0  0  0  0  0  0  0  0  0  0
   24.1478   31.4592   50.1144 H   0  0  0  0  0  0  0  0  0  0  0  0
   22.9196   33.1121   47.8605 H   0  0  0  0  0  0  0  0  0  0  0  0
   23.6212   35.0868   49.1412 H   0  0  0  0  0  0  0  0  0  0  0  0
   22.4932   34.0651   50.0953 H   0  0  0  0  0  0  0  0  0  0  0  0
   26.0438   34.2341   52.7317 H   0  0  0  0  0  0  0  0  0  0  0  0
   22.0646   33.1489   51.6984 H   0  0  0  0  0  0  0  0  0  0  0  0
   25.2362   33.3551   56.7876 H   0  0  0  0  0  0  0  0  0  0  0  0
   24.7955   32.6882   59.1150 H   0  0  0  0  0  0  0  0  0  0  0  0
   22.5410   31.9406   59.7914 H   0  0  0  0  0  0  0  0  0  0  0  0
   20.1920   31.9302   59.3546 H   0  0  0  0  0  0  0  0  0  0  0  0
   19.5492   32.4834   57.7711 H   0  0  0  0  0  0  0  0  0  0  0  0
   19.2122   26.9234   56.7150 H   0  0  0  0  0  0  0  0  0  0  0  0
   20.0149   27.2592   58.9533 H   0  0  0  0  0  0  0  0  0  0  0  0
   19.6722   30.6364   54.0151 H   0  0  0  0  0  0  0  0  0  0  0  0
   18.9588   30.2978   51.6810 H   0  0  0  0  0  0  0  0  0  0  0  0
   17.6587   28.2904   51.0574 H   0  0  0  0  0  0  0  0  0  0  0  0
   17.8236   26.9215   55.1188 H   0  0  0  0  0  0  0  0  0  0  0  0
   21.1158   32.6940   55.8219 H   0  0  0  0  0  0  0  0  0  0  0  0
   25.1561   33.9918   47.4279 H   0  0  0  0  0  0  0  0  0  0  0  0
   25.8432   32.9563   48.7250 H   0  0  0  0  0  0  0  0  0  0  0  0
   26.2850   31.9348   46.5316 H   0  0  0  0  0  0  0  0  0  0  0  0
   24.5379   31.9934   46.1186 H   0  0  0  0  0  0  0  0  0  0  0  0
  1  2  1  0  0  0  0
  2  3  1  0  0  0  0
  2 37  1  0  0  0  0
  3  4  1  0  0  0  0
  4  5  1  0  0  0  0
  5  6  1  0  0  0  0
  5 36  1  0  0  0  0
  6  7  1  0  0  0  0
  7  8  1  0  0  0  0
  8  9  2  0  0  0  0
  8 13  1  0  0  0  0
  9 10  1  0  0  0  0
 10 11  2  0  0  0  0
 11 12  1  0  0  0  0
 11 14  1  0  0  0  0
 12 13  2  0  0  0  0
 14 15  2  0  0  0  0
 14 35  1  0  0  0  0
 15 16  1  0  0  0  0
 16 17  2  0  0  0  0
 17 18  1  0  0  0  0
 18 19  1  0  0  0  0
 18 35  2  0  0  0  0
 19 20  1  0  0  0  0
 20 21  1  0  0  0  0
 20 25  1  0  0  0  0
 21 22  2  0  0  0  0
 22 23  1  0  0  0  0
 22 27  1  0  0  0  0
 23 24  2  0  0  0  0
 24 25  1  0  0  0  0
 25 26  2  0  0  0  0
 27 28  2  0  0  0  0
 27 32  1  0  0  0  0
 28 29  1  0  0  0  0
 29 30  2  0  0  0  0
 30 31  1  0  0  0  0
 31 32  2  0  0  0  0
 31 33  1  0  0  0  0
 33 34  3  0  0  0  0
 36 37  1  0  0  0  0
  1 38  1  0  0  0  0
  1 39  1  0  0  0  0
  1 40  1  0  0  0  0
  3 41  1  0  0  0  0
  3 42  1  0  0  0  0
  4 43  1  0  0  0  0
  4 44  1  0  0  0  0
  5 45  1  0  0  0  0
  6 46  1  0  0  0  0
  6 47  1  0  0  0  0
  9 48  1  0  0  0  0
 13 49  1  0  0  0  0
 15 50  1  0  0  0  0
 16 51  1  0  0  0  0
 17 52  1  0  0  0  0
 19 53  1  0  0  0  0
 19 54  1  0  0  0  0
 23 55  1  0  0  0  0
 24 56  1  0  0  0  0
 28 57  1  0  0  0  0
 29 58  1  0  0  0  0
 30 59  1  0  0  0  0
 32 60  1  0  0  0  0
 35 61  1  0  0  0  0
 36 62  1  0  0  0  0
 36 63  1  0  0  0  0
 37 64  1  0  0  0  0
 37 65  1  0  0  0  0
M  END
> <s_user_Name>
CHEMBL3402762_1

> <IC50[nM]>
1

$$$$
