CHEMBL3402757_6.5
  -OEChem-05192314313D
 Structure written by MMmdl.
 60 63  0     0  0  0  0  0  0999 V2000
   25.3721   31.2219   46.6644 C   0  0  0  0  0  0  0  0  0  0  0  0
   24.2292   31.6762   47.5975 N   0  0  0  0  0  0  0  0  0  0  0  0
   24.1603   30.8253   48.8811 C   0  0  0  0  0  0  0  0  0  0  0  0
   24.1810   33.2089   47.8252 C   0  0  0  0  0  0  0  0  0  0  0  0
   25.4044   33.8076   48.5650 C   0  0  0  0  0  0  0  0  0  0  0  0
   25.4494   33.6181   50.0927 C   0  0  0  0  0  0  0  0  0  0  0  0
   24.1499   33.8272   50.6358 O   0  0  0  0  0  0  0  0  0  0  0  0
   23.9715   33.6722   51.9928 C   0  0  0  0  0  0  0  0  0  0  0  0
   24.9553   33.9009   52.9691 C   0  0  0  0  0  0  0  0  0  0  0  0
   24.7187   33.7452   54.2980 N   0  0  0  0  0  0  0  0  0  0  0  0
   23.4638   33.3512   54.6606 C   0  0  0  0  0  0  0  0  0  0  0  0
   22.4436   33.1319   53.7852 N   0  0  0  0  0  0  0  0  0  0  0  0
   22.7129   33.2993   52.4668 C   0  0  0  0  0  0  0  0  0  0  0  0
   23.2073   33.0414   56.1083 C   0  0  0  0  0  0  0  0  0  0  0  0
   24.2462   33.0690   57.0560 C   0  0  0  0  0  0  0  0  0  0  0  0
   24.0331   32.6782   58.3749 C   0  0  0  0  0  0  0  0  0  0  0  0
   22.7722   32.2476   58.7759 C   0  0  0  0  0  0  0  0  0  0  0  0
   21.7116   32.2359   57.8728 C   0  0  0  0  0  0  0  0  0  0  0  0
   20.3201   31.8105   58.3284 C   0  0  0  0  0  0  0  0  0  0  0  0
   19.9672   30.4340   57.9355 N   0  0  0  0  0  0  0  0  0  0  0  0
   19.4198   30.2849   56.6582 N   0  0  0  0  0  0  0  0  0  0  0  0
   19.0471   29.1359   56.1903 C   0  0  0  0  0  0  0  0  0  0  0  0
   19.2945   27.9828   57.0432 C   0  0  0  0  0  0  0  0  0  0  0  0
   19.8472   28.1166   58.2711 C   0  0  0  0  0  0  0  0  0  0  0  0
   20.2070   29.4083   58.8283 C   0  0  0  0  0  0  0  0  0  0  0  0
   20.6472   29.5276   59.9744 O   0  0  0  0  0  0  0  0  0  0  0  0
   18.3925   28.9878   54.8648 C   0  0  0  0  0  0  0  0  0  0  0  0
   18.2472   27.7417   54.2309 C   0  0  0  0  0  0  0  0  0  0  0  0
   17.5890   27.6339   53.0045 C   0  0  0  0  0  0  0  0  0  0  0  0
   17.0562   28.7685   52.3958 C   0  0  0  0  0  0  0  0  0  0  0  0
   17.1910   30.0122   53.0059 C   0  0  0  0  0  0  0  0  0  0  0  0
   16.6720   31.1185   52.4235 F   0  0  0  0  0  0  0  0  0  0  0  0
   17.8573   30.1210   54.2252 C   0  0  0  0  0  0  0  0  0  0  0  0
   21.9312   32.6478   56.5553 C   0  0  0  0  0  0  0  0  0  0  0  0
   25.3844   31.8540   45.7642 H   0  0  0  0  0  0  0  0  0  0  0  0
   26.3336   31.3146   47.1906 H   0  0  0  0  0  0  0  0  0  0  0  0
   25.2129   30.1730   46.3736 H   0  0  0  0  0  0  0  0  0  0  0  0
   23.3349   31.1824   49.5145 H   0  0  0  0  0  0  0  0  0  0  0  0
   23.9882   29.7722   48.6140 H   0  0  0  0  0  0  0  0  0  0  0  0
   25.1089   30.9138   49.4309 H   0  0  0  0  0  0  0  0  0  0  0  0
   24.1066   33.6963   46.8419 H   0  0  0  0  0  0  0  0  0  0  0  0
   23.2817   33.4365   48.4163 H   0  0  0  0  0  0  0  0  0  0  0  0
   26.3084   33.3427   48.1447 H   0  0  0  0  0  0  0  0  0  0  0  0
   25.4201   34.8887   48.3626 H   0  0  0  0  0  0  0  0  0  0  0  0
   25.7840   32.5965   50.3257 H   0  0  0  0  0  0  0  0  0  0  0  0
   26.1511   34.3428   50.5315 H   0  0  0  0  0  0  0  0  0  0  0  0
   25.9390   34.2129   52.6507 H   0  0  0  0  0  0  0  0  0  0  0  0
   21.9191   33.1371   51.7527 H   0  0  0  0  0  0  0  0  0  0  0  0
   25.2290   33.4000   56.7544 H   0  0  0  0  0  0  0  0  0  0  0  0
   24.8454   32.7092   59.0860 H   0  0  0  0  0  0  0  0  0  0  0  0
   22.6149   31.9206   59.7931 H   0  0  0  0  0  0  0  0  0  0  0  0
   20.2761   31.8815   59.4252 H   0  0  0  0  0  0  0  0  0  0  0  0
   19.5839   32.4981   57.8867 H   0  0  0  0  0  0  0  0  0  0  0  0
   19.0309   26.9976   56.6879 H   0  0  0  0  0  0  0  0  0  0  0  0
   20.0276   27.2288   58.8591 H   0  0  0  0  0  0  0  0  0  0  0  0
   18.6502   26.8557   54.6989 H   0  0  0  0  0  0  0  0  0  0  0  0
   17.4926   26.6700   52.5270 H   0  0  0  0  0  0  0  0  0  0  0  0
   16.5391   28.6829   51.4515 H   0  0  0  0  0  0  0  0  0  0  0  0
   17.9646   31.0914   54.6868 H   0  0  0  0  0  0  0  0  0  0  0  0
   21.1021   32.6646   55.8634 H   0  0  0  0  0  0  0  0  0  0  0  0
  1  2  1  0  0  0  0
  2  3  1  0  0  0  0
  2  4  1  0  0  0  0
  4  5  1  0  0  0  0
  5  6  1  0  0  0  0
  6  7  1  0  0  0  0
  7  8  1  0  0  0  0
  8  9  2  0  0  0  0
  8 13  1  0  0  0  0
  9 10  1  0  0  0  0
 10 11  2  0  0  0  0
 11 12  1  0  0  0  0
 11 14  1  0  0  0  0
 12 13  2  0  0  0  0
 14 15  2  0  0  0  0
 14 34  1  0  0  0  0
 15 16  1  0  0  0  0
 16 17  2  0  0  0  0
 17 18  1  0  0  0  0
 18 19  1  0  0  0  0
 18 34  2  0  0  0  0
 19 20  1  0  0  0  0
 20 21  1  0  0  0  0
 20 25  1  0  0  0  0
 21 22  2  0  0  0  0
 22 23  1  0  0  0  0
 22 27  1  0  0  0  0
 23 24  2  0  0  0  0
 24 25  1  0  0  0  0
 25 26  2  0  0  0  0
 27 28  2  0  0  0  0
 27 33  1  0  0  0  0
 28 29  1  0  0  0  0
 29 30  2  0  0  0  0
 30 31  1  0  0  0  0
 31 32  1  0  0  0  0
 31 33  2  0  0  0  0
  1 35  1  0  0  0  0
  1 36  1  0  0  0  0
  1 37  1  0  0  0  0
  3 38  1  0  0  0  0
  3 39  1  0  0  0  0
  3 40  1  0  0  0  0
  4 41  1  0  0  0  0
  4 42  1  0  0  0  0
  5 43  1  0  0  0  0
  5 44  1  0  0  0  0
  6 45  1  0  0  0  0
  6 46  1  0  0  0  0
  9 47  1  0  0  0  0
 13 48  1  0  0  0  0
 15 49  1  0  0  0  0
 16 50  1  0  0  0  0
 17 51  1  0  0  0  0
 19 52  1  0  0  0  0
 19 53  1  0  0  0  0
 23 54  1  0  0  0  0
 24 55  1  0  0  0  0
 28 56  1  0  0  0  0
 29 57  1  0  0  0  0
 30 58  1  0  0  0  0
 33 59  1  0  0  0  0
 34 60  1  0  0  0  0
M  END
> <s_user_Name>
CHEMBL3402757_6.5

> <IC50[nM]>
6.5

$$$$
