CHEMBL3402744_300
  -OEChem-05192314313D
 Structure written by MMmdl.
 42 44  0     0  0  0  0  0  0999 V2000
   25.1164   34.0885   51.5934 C   0  0  0  0  0  0  0  0  0  0  0  0
   24.1301   33.7369   52.5533 O   0  0  0  0  0  0  0  0  0  0  0  0
   24.3822   33.8574   53.8672 C   0  0  0  0  0  0  0  0  0  0  0  0
   25.4212   34.3253   54.3389 O   0  0  0  0  0  0  0  0  0  0  0  0
   23.2845   33.3698   54.5611 N   0  0  0  0  0  0  0  0  0  0  0  0
   23.1453   33.1032   55.9319 C   0  0  0  0  0  0  0  0  0  0  0  0
   24.2134   33.1207   56.8434 C   0  0  0  0  0  0  0  0  0  0  0  0
   24.0130   32.7263   58.1651 C   0  0  0  0  0  0  0  0  0  0  0  0
   22.7541   32.3009   58.5857 C   0  0  0  0  0  0  0  0  0  0  0  0
   21.6774   32.2902   57.6945 C   0  0  0  0  0  0  0  0  0  0  0  0
   20.2905   31.8639   58.1736 C   0  0  0  0  0  0  0  0  0  0  0  0
   19.9601   30.4564   57.8723 N   0  0  0  0  0  0  0  0  0  0  0  0
   19.4739   30.2001   56.5844 N   0  0  0  0  0  0  0  0  0  0  0  0
   19.1911   29.0032   56.1719 C   0  0  0  0  0  0  0  0  0  0  0  0
   19.4025   27.9265   57.1277 C   0  0  0  0  0  0  0  0  0  0  0  0
   19.8697   28.1685   58.3739 C   0  0  0  0  0  0  0  0  0  0  0  0
   20.2016   29.5029   58.8403 C   0  0  0  0  0  0  0  0  0  0  0  0
   20.6427   29.7018   59.9757 O   0  0  0  0  0  0  0  0  0  0  0  0
   18.6876   28.7180   54.8040 C   0  0  0  0  0  0  0  0  0  0  0  0
   18.8911   29.6524   53.7735 C   0  0  0  0  0  0  0  0  0  0  0  0
   18.4516   29.3961   52.4744 C   0  0  0  0  0  0  0  0  0  0  0  0
   18.6544   30.3132   51.5022 F   0  0  0  0  0  0  0  0  0  0  0  0
   17.8112   28.1968   52.1757 C   0  0  0  0  0  0  0  0  0  0  0  0
   17.5967   27.2584   53.1819 C   0  0  0  0  0  0  0  0  0  0  0  0
   16.9685   26.0957   52.8982 F   0  0  0  0  0  0  0  0  0  0  0  0
   18.0276   27.5199   54.4833 C   0  0  0  0  0  0  0  0  0  0  0  0
   21.8774   32.7029   56.3720 C   0  0  0  0  0  0  0  0  0  0  0  0
   24.7202   33.9198   50.5812 H   0  0  0  0  0  0  0  0  0  0  0  0
   25.3808   35.1497   51.7114 H   0  0  0  0  0  0  0  0  0  0  0  0
   26.0123   33.4684   51.7444 H   0  0  0  0  0  0  0  0  0  0  0  0
   22.4756   33.1810   54.0042 H   0  0  0  0  0  0  0  0  0  0  0  0
   25.1927   33.4406   56.5194 H   0  0  0  0  0  0  0  0  0  0  0  0
   24.8351   32.7504   58.8650 H   0  0  0  0  0  0  0  0  0  0  0  0
   22.6098   31.9777   59.6060 H   0  0  0  0  0  0  0  0  0  0  0  0
   20.2418   32.0055   59.2634 H   0  0  0  0  0  0  0  0  0  0  0  0
   19.5429   32.5071   57.6865 H   0  0  0  0  0  0  0  0  0  0  0  0
   19.1813   26.9106   56.8353 H   0  0  0  0  0  0  0  0  0  0  0  0
   20.0011   27.3358   59.0490 H   0  0  0  0  0  0  0  0  0  0  0  0
   19.3952   30.5825   53.9907 H   0  0  0  0  0  0  0  0  0  0  0  0
   17.4819   27.9948   51.1672 H   0  0  0  0  0  0  0  0  0  0  0  0
   17.8505   26.7882   55.2577 H   0  0  0  0  0  0  0  0  0  0  0  0
   21.0452   32.7127   55.6837 H   0  0  0  0  0  0  0  0  0  0  0  0
  1  2  1  0  0  0  0
  2  3  1  0  0  0  0
  3  4  2  0  0  0  0
  3  5  1  0  0  0  0
  5  6  1  0  0  0  0
  6  7  2  0  0  0  0
  6 27  1  0  0  0  0
  7  8  1  0  0  0  0
  8  9  2  0  0  0  0
  9 10  1  0  0  0  0
 10 11  1  0  0  0  0
 10 27  2  0  0  0  0
 11 12  1  0  0  0  0
 12 13  1  0  0  0  0
 12 17  1  0  0  0  0
 13 14  2  0  0  0  0
 14 15  1  0  0  0  0
 14 19  1  0  0  0  0
 15 16  2  0  0  0  0
 16 17  1  0  0  0  0
 17 18  2  0  0  0  0
 19 20  2  0  0  0  0
 19 26  1  0  0  0  0
 20 21  1  0  0  0  0
 21 22  1  0  0  0  0
 21 23  2  0  0  0  0
 23 24  1  0  0  0  0
 24 25  1  0  0  0  0
 24 26  2  0  0  0  0
  1 28  1  0  0  0  0
  1 29  1  0  0  0  0
  1 30  1  0  0  0  0
  5 31  1  0  0  0  0
  7 32  1  0  0  0  0
  8 33  1  0  0  0  0
  9 34  1  0  0  0  0
 11 35  1  0  0  0  0
 11 36  1  0  0  0  0
 15 37  1  0  0  0  0
 16 38  1  0  0  0  0
 20 39  1  0  0  0  0
 23 40  1  0  0  0  0
 26 41  1  0  0  0  0
 27 42  1  0  0  0  0
M  END
> <s_user_Name>
CHEMBL3402744_300

> <IC50[nM]>
300

$$$$
CHEMBL3402744_300
  -OEChem-05192314313D
 Structure written by MMmdl.
 42 44  0     0  0  0  0  0  0999 V2000
   25.1164   34.0885   51.5934 C   0  0  0  0  0  0  0  0  0  0  0  0
   24.1301   33.7369   52.5533 O   0  0  0  0  0  0  0  0  0  0  0  0
   24.3822   33.8574   53.8672 C   0  0  0  0  0  0  0  0  0  0  0  0
   25.4212   34.3253   54.3389 O   0  0  0  0  0  0  0  0  0  0  0  0
   23.2845   33.3698   54.5611 N   0  0  0  0  0  0  0  0  0  0  0  0
   23.1453   33.1032   55.9319 C   0  0  0  0  0  0  0  0  0  0  0  0
   24.2134   33.1207   56.8434 C   0  0  0  0  0  0  0  0  0  0  0  0
   24.0130   32.7263   58.1651 C   0  0  0  0  0  0  0  0  0  0  0  0
   22.7541   32.3009   58.5857 C   0  0  0  0  0  0  0  0  0  0  0  0
   21.6774   32.2902   57.6945 C   0  0  0  0  0  0  0  0  0  0  0  0
   20.2905   31.8639   58.1736 C   0  0  0  0  0  0  0  0  0  0  0  0
   19.9601   30.4564   57.8723 N   0  0  0  0  0  0  0  0  0  0  0  0
   19.4739   30.2001   56.5844 N   0  0  0  0  0  0  0  0  0  0  0  0
   19.1911   29.0032   56.1719 C   0  0  0  0  0  0  0  0  0  0  0  0
   19.4025   27.9265   57.1277 C   0  0  0  0  0  0  0  0  0  0  0  0
   19.8697   28.1685   58.3739 C   0  0  0  0  0  0  0  0  0  0  0  0
   20.2016   29.5029   58.8403 C   0  0  0  0  0  0  0  0  0  0  0  0
   20.6427   29.7018   59.9757 O   0  0  0  0  0  0  0  0  0  0  0  0
   18.6876   28.7180   54.8040 C   0  0  0  0  0  0  0  0  0  0  0  0
   18.8911   29.6524   53.7735 C   0  0  0  0  0  0  0  0  0  0  0  0
   18.4516   29.3961   52.4744 C   0  0  0  0  0  0  0  0  0  0  0  0
   18.6544   30.3132   51.5022 F   0  0  0  0  0  0  0  0  0  0  0  0
   17.8112   28.1968   52.1757 C   0  0  0  0  0  0  0  0  0  0  0  0
   17.5967   27.2584   53.1819 C   0  0  0  0  0  0  0  0  0  0  0  0
   16.9685   26.0957   52.8982 F   0  0  0  0  0  0  0  0  0  0  0  0
   18.0276   27.5199   54.4833 C   0  0  0  0  0  0  0  0  0  0  0  0
   21.8774   32.7029   56.3720 C   0  0  0  0  0  0  0  0  0  0  0  0
   24.7202   33.9198   50.5812 H   0  0  0  0  0  0  0  0  0  0  0  0
   25.3808   35.1497   51.7114 H   0  0  0  0  0  0  0  0  0  0  0  0
   26.0123   33.4684   51.7444 H   0  0  0  0  0  0  0  0  0  0  0  0
   25.3739   34.3097   55.2876 H   0  0  0  0  0  0  0  0  0  0  0  0
   25.1927   33.4406   56.5194 H   0  0  0  0  0  0  0  0  0  0  0  0
   24.8351   32.7504   58.8650 H   0  0  0  0  0  0  0  0  0  0  0  0
   22.6098   31.9777   59.6060 H   0  0  0  0  0  0  0  0  0  0  0  0
   20.2418   32.0055   59.2634 H   0  0  0  0  0  0  0  0  0  0  0  0
   19.5429   32.5071   57.6865 H   0  0  0  0  0  0  0  0  0  0  0  0
   19.1813   26.9106   56.8353 H   0  0  0  0  0  0  0  0  0  0  0  0
   20.0011   27.3358   59.0490 H   0  0  0  0  0  0  0  0  0  0  0  0
   19.3952   30.5825   53.9907 H   0  0  0  0  0  0  0  0  0  0  0  0
   17.4819   27.9948   51.1672 H   0  0  0  0  0  0  0  0  0  0  0  0
   17.8505   26.7882   55.2577 H   0  0  0  0  0  0  0  0  0  0  0  0
   21.0452   32.7127   55.6837 H   0  0  0  0  0  0  0  0  0  0  0  0
  1  2  1  0  0  0  0
  2  3  1  0  0  0  0
  3  4  1  0  0  0  0
  3  5  2  0  0  0  0
  5  6  1  0  0  0  0
  6  7  2  0  0  0  0
  6 27  1  0  0  0  0
  7  8  1  0  0  0  0
  8  9  2  0  0  0  0
  9 10  1  0  0  0  0
 10 11  1  0  0  0  0
 10 27  2  0  0  0  0
 11 12  1  0  0  0  0
 12 13  1  0  0  0  0
 12 17  1  0  0  0  0
 13 14  2  0  0  0  0
 14 15  1  0  0  0  0
 14 19  1  0  0  0  0
 15 16  2  0  0  0  0
 16 17  1  0  0  0  0
 17 18  2  0  0  0  0
 19 20  2  0  0  0  0
 19 26  1  0  0  0  0
 20 21  1  0  0  0  0
 21 22  1  0  0  0  0
 21 23  2  0  0  0  0
 23 24  1  0  0  0  0
 24 25  1  0  0  0  0
 24 26  2  0  0  0  0
  1 28  1  0  0  0  0
  1 29  1  0  0  0  0
  1 30  1  0  0  0  0
  4 31  1  0  0  0  0
  7 32  1  0  0  0  0
  8 33  1  0  0  0  0
  9 34  1  0  0  0  0
 11 35  1  0  0  0  0
 11 36  1  0  0  0  0
 15 37  1  0  0  0  0
 16 38  1  0  0  0  0
 20 39  1  0  0  0  0
 23 40  1  0  0  0  0
 26 41  1  0  0  0  0
 27 42  1  0  0  0  0
M  END
> <s_user_Name>
CHEMBL3402744_300

> <IC50[nM]>
300

$$$$
CHEMBL3402744_300
  -OEChem-05192314313D
 Structure written by MMmdl.
 42 44  0     0  0  0  0  0  0999 V2000
   25.1164   34.0885   51.5934 C   0  0  0  0  0  0  0  0  0  0  0  0
   24.1301   33.7369   52.5533 O   0  0  0  0  0  0  0  0  0  0  0  0
   24.3822   33.8574   53.8672 C   0  0  0  0  0  0  0  0  0  0  0  0
   25.4212   34.3253   54.3389 O   0  0  0  0  0  0  0  0  0  0  0  0
   23.2845   33.3698   54.5611 N   0  0  0  0  0  0  0  0  0  0  0  0
   23.1453   33.1032   55.9319 C   0  0  0  0  0  0  0  0  0  0  0  0
   24.2134   33.1207   56.8434 C   0  0  0  0  0  0  0  0  0  0  0  0
   24.0130   32.7263   58.1651 C   0  0  0  0  0  0  0  0  0  0  0  0
   22.7541   32.3009   58.5857 C   0  0  0  0  0  0  0  0  0  0  0  0
   21.6774   32.2902   57.6945 C   0  0  0  0  0  0  0  0  0  0  0  0
   20.2905   31.8639   58.1736 C   0  0  0  0  0  0  0  0  0  0  0  0
   19.9601   30.4564   57.8723 N   0  0  0  0  0  0  0  0  0  0  0  0
   19.4739   30.2001   56.5844 N   0  0  0  0  0  0  0  0  0  0  0  0
   19.1911   29.0032   56.1719 C   0  0  0  0  0  0  0  0  0  0  0  0
   19.4025   27.9265   57.1277 C   0  0  0  0  0  0  0  0  0  0  0  0
   19.8697   28.1685   58.3739 C   0  0  0  0  0  0  0  0  0  0  0  0
   20.2016   29.5029   58.8403 C   0  0  0  0  0  0  0  0  0  0  0  0
   20.6427   29.7018   59.9757 O   0  0  0  0  0  0  0  0  0  0  0  0
   18.6876   28.7180   54.8040 C   0  0  0  0  0  0  0  0  0  0  0  0
   18.8911   29.6524   53.7735 C   0  0  0  0  0  0  0  0  0  0  0  0
   18.4516   29.3961   52.4744 C   0  0  0  0  0  0  0  0  0  0  0  0
   18.6544   30.3132   51.5022 F   0  0  0  0  0  0  0  0  0  0  0  0
   17.8112   28.1968   52.1757 C   0  0  0  0  0  0  0  0  0  0  0  0
   17.5967   27.2584   53.1819 C   0  0  0  0  0  0  0  0  0  0  0  0
   16.9685   26.0957   52.8982 F   0  0  0  0  0  0  0  0  0  0  0  0
   18.0276   27.5199   54.4833 C   0  0  0  0  0  0  0  0  0  0  0  0
   21.8774   32.7029   56.3720 C   0  0  0  0  0  0  0  0  0  0  0  0
   24.7202   33.9198   50.5812 H   0  0  0  0  0  0  0  0  0  0  0  0
   25.3808   35.1497   51.7114 H   0  0  0  0  0  0  0  0  0  0  0  0
   26.0123   33.4684   51.7444 H   0  0  0  0  0  0  0  0  0  0  0  0
   24.9924   32.4625   56.4311 H   0  0  0  0  0  0  0  0  0  0  0  0
   24.5862   34.1551   56.8746 H   0  0  0  0  0  0  0  0  0  0  0  0
   24.8351   32.7504   58.8650 H   0  0  0  0  0  0  0  0  0  0  0  0
   22.6098   31.9777   59.6060 H   0  0  0  0  0  0  0  0  0  0  0  0
   20.2418   32.0055   59.2634 H   0  0  0  0  0  0  0  0  0  0  0  0
   19.5429   32.5071   57.6865 H   0  0  0  0  0  0  0  0  0  0  0  0
   19.1813   26.9106   56.8353 H   0  0  0  0  0  0  0  0  0  0  0  0
   20.0011   27.3358   59.0490 H   0  0  0  0  0  0  0  0  0  0  0  0
   19.3952   30.5825   53.9907 H   0  0  0  0  0  0  0  0  0  0  0  0
   17.4819   27.9948   51.1672 H   0  0  0  0  0  0  0  0  0  0  0  0
   17.8505   26.7882   55.2577 H   0  0  0  0  0  0  0  0  0  0  0  0
   21.0452   32.7127   55.6837 H   0  0  0  0  0  0  0  0  0  0  0  0
  1  2  1  0  0  0  0
  2  3  1  0  0  0  0
  3  4  2  0  0  0  0
  3  5  1  0  0  0  0
  5  6  2  0  0  0  0
  6  7  1  0  0  0  0
  6 27  1  0  0  0  0
  7  8  1  0  0  0  0
  8  9  2  0  0  0  0
  9 10  1  0  0  0  0
 10 11  1  0  0  0  0
 10 27  2  0  0  0  0
 11 12  1  0  0  0  0
 12 13  1  0  0  0  0
 12 17  1  0  0  0  0
 13 14  2  0  0  0  0
 14 15  1  0  0  0  0
 14 19  1  0  0  0  0
 15 16  2  0  0  0  0
 16 17  1  0  0  0  0
 17 18  2  0  0  0  0
 19 20  2  0  0  0  0
 19 26  1  0  0  0  0
 20 21  1  0  0  0  0
 21 22  1  0  0  0  0
 21 23  2  0  0  0  0
 23 24  1  0  0  0  0
 24 25  1  0  0  0  0
 24 26  2  0  0  0  0
  1 28  1  0  0  0  0
  1 29  1  0  0  0  0
  1 30  1  0  0  0  0
  7 31  1  0  0  0  0
  7 32  1  0  0  0  0
  8 33  1  0  0  0  0
  9 34  1  0  0  0  0
 11 35  1  0  0  0  0
 11 36  1  0  0  0  0
 15 37  1  0  0  0  0
 16 38  1  0  0  0  0
 20 39  1  0  0  0  0
 23 40  1  0  0  0  0
 26 41  1  0  0  0  0
 27 42  1  0  0  0  0
M  END
> <s_user_Name>
CHEMBL3402744_300

> <IC50[nM]>
300

$$$$
CHEMBL3402744_300
  -OEChem-05192314313D
 Structure written by MMmdl.
 42 44  0     0  0  0  0  0  0999 V2000
   25.1164   34.0885   51.5934 C   0  0  0  0  0  0  0  0  0  0  0  0
   24.1301   33.7369   52.5533 O   0  0  0  0  0  0  0  0  0  0  0  0
   24.3822   33.8574   53.8672 C   0  0  0  0  0  0  0  0  0  0  0  0
   25.4212   34.3253   54.3389 O   0  0  0  0  0  0  0  0  0  0  0  0
   23.2845   33.3698   54.5611 N   0  0  0  0  0  0  0  0  0  0  0  0
   23.1453   33.1032   55.9319 C   0  0  0  0  0  0  0  0  0  0  0  0
   24.2134   33.1207   56.8434 C   0  0  0  0  0  0  0  0  0  0  0  0
   24.0130   32.7263   58.1651 C   0  0  0  0  0  0  0  0  0  0  0  0
   22.7541   32.3009   58.5857 C   0  0  0  0  0  0  0  0  0  0  0  0
   21.6774   32.2902   57.6945 C   0  0  0  0  0  0  0  0  0  0  0  0
   20.2905   31.8639   58.1736 C   0  0  0  0  0  0  0  0  0  0  0  0
   19.9601   30.4564   57.8723 N   0  0  0  0  0  0  0  0  0  0  0  0
   19.4739   30.2001   56.5844 N   0  0  0  0  0  0  0  0  0  0  0  0
   19.1911   29.0032   56.1719 C   0  0  0  0  0  0  0  0  0  0  0  0
   19.4025   27.9265   57.1277 C   0  0  0  0  0  0  0  0  0  0  0  0
   19.8697   28.1685   58.3739 C   0  0  0  0  0  0  0  0  0  0  0  0
   20.2016   29.5029   58.8403 C   0  0  0  0  0  0  0  0  0  0  0  0
   20.6427   29.7018   59.9757 O   0  0  0  0  0  0  0  0  0  0  0  0
   18.6876   28.7180   54.8040 C   0  0  0  0  0  0  0  0  0  0  0  0
   18.8911   29.6524   53.7735 C   0  0  0  0  0  0  0  0  0  0  0  0
   18.4516   29.3961   52.4744 C   0  0  0  0  0  0  0  0  0  0  0  0
   18.6544   30.3132   51.5022 F   0  0  0  0  0  0  0  0  0  0  0  0
   17.8112   28.1968   52.1757 C   0  0  0  0  0  0  0  0  0  0  0  0
   17.5967   27.2584   53.1819 C   0  0  0  0  0  0  0  0  0  0  0  0
   16.9685   26.0957   52.8982 F   0  0  0  0  0  0  0  0  0  0  0  0
   18.0276   27.5199   54.4833 C   0  0  0  0  0  0  0  0  0  0  0  0
   21.8774   32.7029   56.3720 C   0  0  0  0  0  0  0  0  0  0  0  0
   24.7202   33.9198   50.5812 H   0  0  0  0  0  0  0  0  0  0  0  0
   25.3808   35.1497   51.7114 H   0  0  0  0  0  0  0  0  0  0  0  0
   26.0123   33.4684   51.7444 H   0  0  0  0  0  0  0  0  0  0  0  0
   25.1927   33.4406   56.5194 H   0  0  0  0  0  0  0  0  0  0  0  0
   24.8351   32.7504   58.8650 H   0  0  0  0  0  0  0  0  0  0  0  0
   22.8742   31.2693   58.9481 H   0  0  0  0  0  0  0  0  0  0  0  0
   22.4642   32.9524   59.4233 H   0  0  0  0  0  0  0  0  0  0  0  0
   20.2418   32.0055   59.2634 H   0  0  0  0  0  0  0  0  0  0  0  0
   19.5429   32.5071   57.6865 H   0  0  0  0  0  0  0  0  0  0  0  0
   19.1813   26.9106   56.8353 H   0  0  0  0  0  0  0  0  0  0  0  0
   20.0011   27.3358   59.0490 H   0  0  0  0  0  0  0  0  0  0  0  0
   19.3952   30.5825   53.9907 H   0  0  0  0  0  0  0  0  0  0  0  0
   17.4819   27.9948   51.1672 H   0  0  0  0  0  0  0  0  0  0  0  0
   17.8505   26.7882   55.2577 H   0  0  0  0  0  0  0  0  0  0  0  0
   21.0452   32.7127   55.6837 H   0  0  0  0  0  0  0  0  0  0  0  0
  1  2  1  0  0  0  0
  2  3  1  0  0  0  0
  3  4  2  0  0  0  0
  3  5  1  0  0  0  0
  5  6  2  0  0  0  0
  6  7  1  0  0  0  0
  6 27  1  0  0  0  0
  7  8  2  0  0  0  0
  8  9  1  0  0  0  0
  9 10  1  0  0  0  0
 10 11  1  0  0  0  0
 10 27  2  0  0  0  0
 11 12  1  0  0  0  0
 12 13  1  0  0  0  0
 12 17  1  0  0  0  0
 13 14  2  0  0  0  0
 14 15  1  0  0  0  0
 14 19  1  0  0  0  0
 15 16  2  0  0  0  0
 16 17  1  0  0  0  0
 17 18  2  0  0  0  0
 19 20  2  0  0  0  0
 19 26  1  0  0  0  0
 20 21  1  0  0  0  0
 21 22  1  0  0  0  0
 21 23  2  0  0  0  0
 23 24  1  0  0  0  0
 24 25  1  0  0  0  0
 24 26  2  0  0  0  0
  1 28  1  0  0  0  0
  1 29  1  0  0  0  0
  1 30  1  0  0  0  0
  7 31  1  0  0  0  0
  8 32  1  0  0  0  0
  9 33  1  0  0  0  0
  9 34  1  0  0  0  0
 11 35  1  0  0  0  0
 11 36  1  0  0  0  0
 15 37  1  0  0  0  0
 16 38  1  0  0  0  0
 20 39  1  0  0  0  0
 23 40  1  0  0  0  0
 26 41  1  0  0  0  0
 27 42  1  0  0  0  0
M  END
> <s_user_Name>
CHEMBL3402744_300

> <IC50[nM]>
300

$$$$
CHEMBL3402744_300
  -OEChem-05192314313D
 Structure written by MMmdl.
 42 44  0     0  0  0  0  0  0999 V2000
   25.1164   34.0885   51.5934 C   0  0  0  0  0  0  0  0  0  0  0  0
   24.1301   33.7369   52.5533 O   0  0  0  0  0  0  0  0  0  0  0  0
   24.3822   33.8574   53.8672 C   0  0  0  0  0  0  0  0  0  0  0  0
   25.4212   34.3253   54.3389 O   0  0  0  0  0  0  0  0  0  0  0  0
   23.2845   33.3698   54.5611 N   0  0  0  0  0  0  0  0  0  0  0  0
   23.1453   33.1032   55.9319 C   0  0  0  0  0  0  0  0  0  0  0  0
   24.2134   33.1207   56.8434 C   0  0  0  0  0  0  0  0  0  0  0  0
   24.0130   32.7263   58.1651 C   0  0  0  0  0  0  0  0  0  0  0  0
   22.7541   32.3009   58.5857 C   0  0  0  0  0  0  0  0  0  0  0  0
   21.6774   32.2902   57.6945 C   0  0  0  0  0  0  0  0  0  0  0  0
   20.2905   31.8639   58.1736 C   0  0  0  0  0  0  0  0  0  0  0  0
   19.9601   30.4564   57.8723 N   0  0  0  0  0  0  0  0  0  0  0  0
   19.4739   30.2001   56.5844 N   0  0  0  0  0  0  0  0  0  0  0  0
   19.1911   29.0032   56.1719 C   0  0  0  0  0  0  0  0  0  0  0  0
   19.4025   27.9265   57.1277 C   0  0  0  0  0  0  0  0  0  0  0  0
   19.8697   28.1685   58.3739 C   0  0  0  0  0  0  0  0  0  0  0  0
   20.2016   29.5029   58.8403 C   0  0  0  0  0  0  0  0  0  0  0  0
   20.6427   29.7018   59.9757 O   0  0  0  0  0  0  0  0  0  0  0  0
   18.6876   28.7180   54.8040 C   0  0  0  0  0  0  0  0  0  0  0  0
   18.8911   29.6524   53.7735 C   0  0  0  0  0  0  0  0  0  0  0  0
   18.4516   29.3961   52.4744 C   0  0  0  0  0  0  0  0  0  0  0  0
   18.6544   30.3132   51.5022 F   0  0  0  0  0  0  0  0  0  0  0  0
   17.8112   28.1968   52.1757 C   0  0  0  0  0  0  0  0  0  0  0  0
   17.5967   27.2584   53.1819 C   0  0  0  0  0  0  0  0  0  0  0  0
   16.9685   26.0957   52.8982 F   0  0  0  0  0  0  0  0  0  0  0  0
   18.0276   27.5199   54.4833 C   0  0  0  0  0  0  0  0  0  0  0  0
   21.8774   32.7029   56.3720 C   0  0  0  0  0  0  0  0  0  0  0  0
   24.7202   33.9198   50.5812 H   0  0  0  0  0  0  0  0  0  0  0  0
   25.3808   35.1497   51.7114 H   0  0  0  0  0  0  0  0  0  0  0  0
   26.0123   33.4684   51.7444 H   0  0  0  0  0  0  0  0  0  0  0  0
   25.1927   33.4406   56.5194 H   0  0  0  0  0  0  0  0  0  0  0  0
   24.8351   32.7504   58.8650 H   0  0  0  0  0  0  0  0  0  0  0  0
   22.6098   31.9777   59.6060 H   0  0  0  0  0  0  0  0  0  0  0  0
   20.2418   32.0055   59.2634 H   0  0  0  0  0  0  0  0  0  0  0  0
   19.5429   32.5071   57.6865 H   0  0  0  0  0  0  0  0  0  0  0  0
   19.1813   26.9106   56.8353 H   0  0  0  0  0  0  0  0  0  0  0  0
   20.0011   27.3358   59.0490 H   0  0  0  0  0  0  0  0  0  0  0  0
   19.3952   30.5825   53.9907 H   0  0  0  0  0  0  0  0  0  0  0  0
   17.4819   27.9948   51.1672 H   0  0  0  0  0  0  0  0  0  0  0  0
   17.8505   26.7882   55.2577 H   0  0  0  0  0  0  0  0  0  0  0  0
   21.2027   33.5552   56.2034 H   0  0  0  0  0  0  0  0  0  0  0  0
   21.5733   31.8622   55.7311 H   0  0  0  0  0  0  0  0  0  0  0  0
  1  2  1  0  0  0  0
  2  3  1  0  0  0  0
  3  4  2  0  0  0  0
  3  5  1  0  0  0  0
  5  6  2  0  0  0  0
  6  7  1  0  0  0  0
  6 27  1  0  0  0  0
  7  8  2  0  0  0  0
  8  9  1  0  0  0  0
  9 10  2  0  0  0  0
 10 11  1  0  0  0  0
 10 27  1  0  0  0  0
 11 12  1  0  0  0  0
 12 13  1  0  0  0  0
 12 17  1  0  0  0  0
 13 14  2  0  0  0  0
 14 15  1  0  0  0  0
 14 19  1  0  0  0  0
 15 16  2  0  0  0  0
 16 17  1  0  0  0  0
 17 18  2  0  0  0  0
 19 20  2  0  0  0  0
 19 26  1  0  0  0  0
 20 21  1  0  0  0  0
 21 22  1  0  0  0  0
 21 23  2  0  0  0  0
 23 24  1  0  0  0  0
 24 25  1  0  0  0  0
 24 26  2  0  0  0  0
  1 28  1  0  0  0  0
  1 29  1  0  0  0  0
  1 30  1  0  0  0  0
  7 31  1  0  0  0  0
  8 32  1  0  0  0  0
  9 33  1  0  0  0  0
 11 34  1  0  0  0  0
 11 35  1  0  0  0  0
 15 36  1  0  0  0  0
 16 37  1  0  0  0  0
 20 38  1  0  0  0  0
 23 39  1  0  0  0  0
 26 40  1  0  0  0  0
 27 41  1  0  0  0  0
 27 42  1  0  0  0  0
M  END
> <s_user_Name>
CHEMBL3402744_300

> <IC50[nM]>
300

$$$$
