CHEMBL3402747_3400
  -OEChem-05192314313D
 Structure written by MMmdl.
 42 45  0     0  0  0  0  0  0999 V2000
   25.5431   34.0167   52.0099 C   0  0  0  0  0  0  0  0  0  0  0  0
   24.4529   33.6951   52.9986 C   0  0  0  0  0  0  0  0  0  0  0  0
   23.2283   33.4386   52.6013 N   0  0  0  0  0  0  0  0  0  0  0  0
   22.5648   33.1682   53.7948 O   0  0  0  0  0  0  0  0  0  0  0  0
   23.5069   33.3110   54.7624 C   0  0  0  0  0  0  0  0  0  0  0  0
   24.6793   33.6555   54.2948 N   0  0  0  0  0  0  0  0  0  0  0  0
   23.1484   32.9710   56.1722 C   0  0  0  0  0  0  0  0  0  0  0  0
   24.1344   32.9719   57.1665 C   0  0  0  0  0  0  0  0  0  0  0  0
   23.8296   32.5724   58.4640 C   0  0  0  0  0  0  0  0  0  0  0  0
   22.5336   32.1634   58.7765 C   0  0  0  0  0  0  0  0  0  0  0  0
   21.5356   32.1524   57.8009 C   0  0  0  0  0  0  0  0  0  0  0  0
   20.1190   31.7033   58.1537 C   0  0  0  0  0  0  0  0  0  0  0  0
   19.8547   30.2890   57.8266 N   0  0  0  0  0  0  0  0  0  0  0  0
   19.3939   30.0363   56.5265 N   0  0  0  0  0  0  0  0  0  0  0  0
   19.1443   28.8364   56.1040 C   0  0  0  0  0  0  0  0  0  0  0  0
   19.3793   27.7544   57.0439 C   0  0  0  0  0  0  0  0  0  0  0  0
   19.8517   27.9868   58.2887 C   0  0  0  0  0  0  0  0  0  0  0  0
   20.1318   29.3242   58.7773 C   0  0  0  0  0  0  0  0  0  0  0  0
   20.5581   29.5291   59.9176 O   0  0  0  0  0  0  0  0  0  0  0  0
   18.6470   28.5427   54.7422 C   0  0  0  0  0  0  0  0  0  0  0  0
   18.9989   29.3821   53.6736 C   0  0  0  0  0  0  0  0  0  0  0  0
   18.5680   29.1037   52.3782 C   0  0  0  0  0  0  0  0  0  0  0  0
   18.9207   29.9232   51.3580 F   0  0  0  0  0  0  0  0  0  0  0  0
   17.7745   27.9883   52.1293 C   0  0  0  0  0  0  0  0  0  0  0  0
   17.4160   27.1433   53.1780 C   0  0  0  0  0  0  0  0  0  0  0  0
   16.6527   26.0569   52.9396 F   0  0  0  0  0  0  0  0  0  0  0  0
   17.8499   27.4178   54.4732 C   0  0  0  0  0  0  0  0  0  0  0  0
   21.8443   32.5788   56.5052 C   0  0  0  0  0  0  0  0  0  0  0  0
   25.1325   33.9923   50.9897 H   0  0  0  0  0  0  0  0  0  0  0  0
   25.9441   35.0193   52.2197 H   0  0  0  0  0  0  0  0  0  0  0  0
   26.3492   33.2734   52.0984 H   0  0  0  0  0  0  0  0  0  0  0  0
   25.1392   33.2851   56.9244 H   0  0  0  0  0  0  0  0  0  0  0  0
   24.5943   32.5791   59.2266 H   0  0  0  0  0  0  0  0  0  0  0  0
   22.2997   31.8519   59.7838 H   0  0  0  0  0  0  0  0  0  0  0  0
   19.9667   31.8458   59.2337 H   0  0  0  0  0  0  0  0  0  0  0  0
   19.4059   32.3292   57.5971 H   0  0  0  0  0  0  0  0  0  0  0  0
   19.1714   26.7389   56.7406 H   0  0  0  0  0  0  0  0  0  0  0  0
   20.0272   27.1463   58.9438 H   0  0  0  0  0  0  0  0  0  0  0  0
   19.6103   30.2532   53.8575 H   0  0  0  0  0  0  0  0  0  0  0  0
   17.4370   27.7777   51.1253 H   0  0  0  0  0  0  0  0  0  0  0  0
   17.5699   26.7574   55.2805 H   0  0  0  0  0  0  0  0  0  0  0  0
   21.0697   32.6062   55.7531 H   0  0  0  0  0  0  0  0  0  0  0  0
  1  2  1  0  0  0  0
  2  3  2  0  0  0  0
  2  6  1  0  0  0  0
  3  4  1  0  0  0  0
  4  5  1  0  0  0  0
  5  6  2  0  0  0  0
  5  7  1  0  0  0  0
  7  8  2  0  0  0  0
  7 28  1  0  0  0  0
  8  9  1  0  0  0  0
  9 10  2  0  0  0  0
 10 11  1  0  0  0  0
 11 12  1  0  0  0  0
 11 28  2  0  0  0  0
 12 13  1  0  0  0  0
 13 14  1  0  0  0  0
 13 18  1  0  0  0  0
 14 15  2  0  0  0  0
 15 16  1  0  0  0  0
 15 20  1  0  0  0  0
 16 17  2  0  0  0  0
 17 18  1  0  0  0  0
 18 19  2  0  0  0  0
 20 21  2  0  0  0  0
 20 27  1  0  0  0  0
 21 22  1  0  0  0  0
 22 23  1  0  0  0  0
 22 24  2  0  0  0  0
 24 25  1  0  0  0  0
 25 26  1  0  0  0  0
 25 27  2  0  0  0  0
  1 29  1  0  0  0  0
  1 30  1  0  0  0  0
  1 31  1  0  0  0  0
  8 32  1  0  0  0  0
  9 33  1  0  0  0  0
 10 34  1  0  0  0  0
 12 35  1  0  0  0  0
 12 36  1  0  0  0  0
 16 37  1  0  0  0  0
 17 38  1  0  0  0  0
 21 39  1  0  0  0  0
 24 40  1  0  0  0  0
 27 41  1  0  0  0  0
 28 42  1  0  0  0  0
M  END
> <s_user_Name>
CHEMBL3402747_3400

> <IC50[nM]>
3400

$$$$
