CHEMBL3402755_4200
  -OEChem-05192314313D
 Structure written by MMmdl.
 45 48  0     0  0  0  0  0  0999 V2000
   24.9268   34.0387   50.7958 C   0  0  0  0  0  0  0  0  0  0  0  0
   24.3292   33.7968   52.1682 C   0  0  0  0  0  0  0  0  0  0  0  0
   23.0499   33.2693   52.3344 C   0  0  0  0  0  0  0  0  0  0  0  0
   22.6036   33.0410   53.6347 C   0  0  0  0  0  0  0  0  0  0  0  0
   23.4538   33.3556   54.7057 C   0  0  0  0  0  0  0  0  0  0  0  0
   24.6754   33.9192   54.4700 N   0  0  0  0  0  0  0  0  0  0  0  0
   25.1181   34.1276   53.2212 N   0  0  0  0  0  0  0  0  0  0  0  0
   23.1239   33.0265   56.1337 C   0  0  0  0  0  0  0  0  0  0  0  0
   24.1214   33.0302   57.1236 C   0  0  0  0  0  0  0  0  0  0  0  0
   23.8473   32.6424   58.4326 C   0  0  0  0  0  0  0  0  0  0  0  0
   22.5704   32.2174   58.7761 C   0  0  0  0  0  0  0  0  0  0  0  0
   21.5526   32.2075   57.8229 C   0  0  0  0  0  0  0  0  0  0  0  0
   20.1497   31.7465   58.2043 C   0  0  0  0  0  0  0  0  0  0  0  0
   19.8854   30.3397   57.8543 N   0  0  0  0  0  0  0  0  0  0  0  0
   19.4128   30.1090   56.5605 N   0  0  0  0  0  0  0  0  0  0  0  0
   19.1571   28.9176   56.1180 C   0  0  0  0  0  0  0  0  0  0  0  0
   19.4059   27.8195   57.0375 C   0  0  0  0  0  0  0  0  0  0  0  0
   19.8870   28.0345   58.2822 C   0  0  0  0  0  0  0  0  0  0  0  0
   20.1852   29.3636   58.7850 C   0  0  0  0  0  0  0  0  0  0  0  0
   20.6460   29.5449   59.9141 O   0  0  0  0  0  0  0  0  0  0  0  0
   18.6463   28.6600   54.7513 C   0  0  0  0  0  0  0  0  0  0  0  0
   17.9441   27.4851   54.4303 C   0  0  0  0  0  0  0  0  0  0  0  0
   17.4733   27.2606   53.1364 C   0  0  0  0  0  0  0  0  0  0  0  0
   16.7942   26.1288   52.8531 F   0  0  0  0  0  0  0  0  0  0  0  0
   17.7086   28.2024   52.1378 C   0  0  0  0  0  0  0  0  0  0  0  0
   18.4025   29.3727   52.4339 C   0  0  0  0  0  0  0  0  0  0  0  0
   18.6243   30.2907   51.4676 F   0  0  0  0  0  0  0  0  0  0  0  0
   18.8686   29.6005   53.7292 C   0  0  0  0  0  0  0  0  0  0  0  0
   21.8292   32.6350   56.5192 C   0  0  0  0  0  0  0  0  0  0  0  0
   25.9380   34.4578   50.9043 H   0  0  0  0  0  0  0  0  0  0  0  0
   24.9814   33.0870   50.2469 H   0  0  0  0  0  0  0  0  0  0  0  0
   24.2943   34.7467   50.2402 H   0  0  0  0  0  0  0  0  0  0  0  0
   22.4246   33.0447   51.4829 H   0  0  0  0  0  0  0  0  0  0  0  0
   21.6214   32.6295   53.8147 H   0  0  0  0  0  0  0  0  0  0  0  0
   25.1226   33.3406   56.8634 H   0  0  0  0  0  0  0  0  0  0  0  0
   24.6266   32.6721   59.1798 H   0  0  0  0  0  0  0  0  0  0  0  0
   22.3649   31.8933   59.7856 H   0  0  0  0  0  0  0  0  0  0  0  0
   20.0260   31.8656   59.2908 H   0  0  0  0  0  0  0  0  0  0  0  0
   19.4190   32.3802   57.6804 H   0  0  0  0  0  0  0  0  0  0  0  0
   19.2015   26.8081   56.7186 H   0  0  0  0  0  0  0  0  0  0  0  0
   20.0561   27.1851   58.9275 H   0  0  0  0  0  0  0  0  0  0  0  0
   17.7665   26.7453   55.1968 H   0  0  0  0  0  0  0  0  0  0  0  0
   17.3528   28.0250   51.1336 H   0  0  0  0  0  0  0  0  0  0  0  0
   19.4069   30.5104   53.9498 H   0  0  0  0  0  0  0  0  0  0  0  0
   21.0305   32.6649   55.7929 H   0  0  0  0  0  0  0  0  0  0  0  0
  1  2  1  0  0  0  0
  2  3  2  0  0  0  0
  2  7  1  0  0  0  0
  3  4  1  0  0  0  0
  4  5  2  0  0  0  0
  5  6  1  0  0  0  0
  5  8  1  0  0  0  0
  6  7  2  0  0  0  0
  8  9  2  0  0  0  0
  8 29  1  0  0  0  0
  9 10  1  0  0  0  0
 10 11  2  0  0  0  0
 11 12  1  0  0  0  0
 12 13  1  0  0  0  0
 12 29  2  0  0  0  0
 13 14  1  0  0  0  0
 14 15  1  0  0  0  0
 14 19  1  0  0  0  0
 15 16  2  0  0  0  0
 16 17  1  0  0  0  0
 16 21  1  0  0  0  0
 17 18  2  0  0  0  0
 18 19  1  0  0  0  0
 19 20  2  0  0  0  0
 21 22  2  0  0  0  0
 21 28  1  0  0  0  0
 22 23  1  0  0  0  0
 23 24  1  0  0  0  0
 23 25  2  0  0  0  0
 25 26  1  0  0  0  0
 26 27  1  0  0  0  0
 26 28  2  0  0  0  0
  1 30  1  0  0  0  0
  1 31  1  0  0  0  0
  1 32  1  0  0  0  0
  3 33  1  0  0  0  0
  4 34  1  0  0  0  0
  9 35  1  0  0  0  0
 10 36  1  0  0  0  0
 11 37  1  0  0  0  0
 13 38  1  0  0  0  0
 13 39  1  0  0  0  0
 17 40  1  0  0  0  0
 18 41  1  0  0  0  0
 22 42  1  0  0  0  0
 25 43  1  0  0  0  0
 28 44  1  0  0  0  0
 29 45  1  0  0  0  0
M  END
> <s_user_Name>
CHEMBL3402755_4200

> <IC50[nM]>
4200

$$$$
CHEMBL3402755_4200
  -OEChem-05192314313D
 Structure written by MMmdl.
 45 48  0     1  0  0  0  0  0999 V2000
   24.9268   34.0387   50.7958 C   0  0  0  0  0  0  0  0  0  0  0  0
   24.3292   33.7968   52.1682 C   0  0  0  0  0  0  0  0  0  0  0  0
   23.0499   33.2693   52.3344 C   0  0  0  0  0  0  0  0  0  0  0  0
   22.6036   33.0410   53.6347 C   0  0  0  0  0  0  0  0  0  0  0  0
   23.4538   33.3556   54.7057 C   0  0  3  0  0  0  0  0  0  0  0  0
   24.6754   33.9192   54.4700 N   0  0  0  0  0  0  0  0  0  0  0  0
   25.1181   34.1276   53.2212 N   0  0  0  0  0  0  0  0  0  0  0  0
   23.1239   33.0265   56.1337 C   0  0  0  0  0  0  0  0  0  0  0  0
   24.1214   33.0302   57.1236 C   0  0  0  0  0  0  0  0  0  0  0  0
   23.8473   32.6424   58.4326 C   0  0  0  0  0  0  0  0  0  0  0  0
   22.5704   32.2174   58.7761 C   0  0  0  0  0  0  0  0  0  0  0  0
   21.5526   32.2075   57.8229 C   0  0  0  0  0  0  0  0  0  0  0  0
   20.1497   31.7465   58.2043 C   0  0  0  0  0  0  0  0  0  0  0  0
   19.8854   30.3397   57.8543 N   0  0  0  0  0  0  0  0  0  0  0  0
   19.4128   30.1090   56.5605 N   0  0  0  0  0  0  0  0  0  0  0  0
   19.1571   28.9176   56.1180 C   0  0  0  0  0  0  0  0  0  0  0  0
   19.4059   27.8195   57.0375 C   0  0  0  0  0  0  0  0  0  0  0  0
   19.8870   28.0345   58.2822 C   0  0  0  0  0  0  0  0  0  0  0  0
   20.1852   29.3636   58.7850 C   0  0  0  0  0  0  0  0  0  0  0  0
   20.6460   29.5449   59.9141 O   0  0  0  0  0  0  0  0  0  0  0  0
   18.6463   28.6600   54.7513 C   0  0  0  0  0  0  0  0  0  0  0  0
   17.9441   27.4851   54.4303 C   0  0  0  0  0  0  0  0  0  0  0  0
   17.4733   27.2606   53.1364 C   0  0  0  0  0  0  0  0  0  0  0  0
   16.7942   26.1288   52.8531 F   0  0  0  0  0  0  0  0  0  0  0  0
   17.7086   28.2024   52.1378 C   0  0  0  0  0  0  0  0  0  0  0  0
   18.4025   29.3727   52.4339 C   0  0  0  0  0  0  0  0  0  0  0  0
   18.6243   30.2907   51.4676 F   0  0  0  0  0  0  0  0  0  0  0  0
   18.8686   29.6005   53.7292 C   0  0  0  0  0  0  0  0  0  0  0  0
   21.8292   32.6350   56.5192 C   0  0  0  0  0  0  0  0  0  0  0  0
   25.9212   34.4500   50.7047 H   0  0  0  0  0  0  0  0  0  0  0  0
   24.3580   33.7997   49.9094 H   0  0  0  0  0  0  0  0  0  0  0  0
   22.4246   33.0447   51.4829 H   0  0  0  0  0  0  0  0  0  0  0  0
   21.6214   32.6295   53.8147 H   0  0  0  0  0  0  0  0  0  0  0  0
   22.9918   34.3486   54.8077 H   0  0  0  0  0  0  0  0  0  0  0  0
   25.1226   33.3406   56.8634 H   0  0  0  0  0  0  0  0  0  0  0  0
   24.6266   32.6721   59.1798 H   0  0  0  0  0  0  0  0  0  0  0  0
   22.3649   31.8933   59.7856 H   0  0  0  0  0  0  0  0  0  0  0  0
   20.0260   31.8656   59.2908 H   0  0  0  0  0  0  0  0  0  0  0  0
   19.4190   32.3802   57.6804 H   0  0  0  0  0  0  0  0  0  0  0  0
   19.2015   26.8081   56.7186 H   0  0  0  0  0  0  0  0  0  0  0  0
   20.0561   27.1851   58.9275 H   0  0  0  0  0  0  0  0  0  0  0  0
   17.7665   26.7453   55.1968 H   0  0  0  0  0  0  0  0  0  0  0  0
   17.3528   28.0250   51.1336 H   0  0  0  0  0  0  0  0  0  0  0  0
   19.4069   30.5104   53.9498 H   0  0  0  0  0  0  0  0  0  0  0  0
   21.0305   32.6649   55.7929 H   0  0  0  0  0  0  0  0  0  0  0  0
  1  2  2  0  0  0  0
  2  3  1  0  0  0  0
  2  7  1  0  0  0  0
  3  4  2  0  0  0  0
  4  5  1  0  0  0  0
  5  6  1  0  0  0  0
  5  8  1  0  0  0  0
  6  7  2  0  0  0  0
  8  9  2  0  0  0  0
  8 29  1  0  0  0  0
  9 10  1  0  0  0  0
 10 11  2  0  0  0  0
 11 12  1  0  0  0  0
 12 13  1  0  0  0  0
 12 29  2  0  0  0  0
 13 14  1  0  0  0  0
 14 15  1  0  0  0  0
 14 19  1  0  0  0  0
 15 16  2  0  0  0  0
 16 17  1  0  0  0  0
 16 21  1  0  0  0  0
 17 18  2  0  0  0  0
 18 19  1  0  0  0  0
 19 20  2  0  0  0  0
 21 22  2  0  0  0  0
 21 28  1  0  0  0  0
 22 23  1  0  0  0  0
 23 24  1  0  0  0  0
 23 25  2  0  0  0  0
 25 26  1  0  0  0  0
 26 27  1  0  0  0  0
 26 28  2  0  0  0  0
  1 30  1  0  0  0  0
  1 31  1  0  0  0  0
  3 32  1  0  0  0  0
  4 33  1  0  0  0  0
  5 34  1  0  0  0  0
  9 35  1  0  0  0  0
 10 36  1  0  0  0  0
 11 37  1  0  0  0  0
 13 38  1  0  0  0  0
 13 39  1  0  0  0  0
 17 40  1  0  0  0  0
 18 41  1  0  0  0  0
 22 42  1  0  0  0  0
 25 43  1  0  0  0  0
 28 44  1  0  0  0  0
 29 45  1  0  0  0  0
M  END
> <s_user_Name>
CHEMBL3402755_4200

> <IC50[nM]>
4200

$$$$
CHEMBL3402755_4200
  -OEChem-05192314313D
 Structure written by MMmdl.
 45 48  0     0  0  0  0  0  0999 V2000
   24.9268   34.0387   50.7958 C   0  0  0  0  0  0  0  0  0  0  0  0
   24.3292   33.7968   52.1682 C   0  0  0  0  0  0  0  0  0  0  0  0
   23.0499   33.2693   52.3344 C   0  0  0  0  0  0  0  0  0  0  0  0
   22.6036   33.0410   53.6347 C   0  0  0  0  0  0  0  0  0  0  0  0
   23.4538   33.3556   54.7057 C   0  0  0  0  0  0  0  0  0  0  0  0
   24.6754   33.9192   54.4700 N   0  0  0  0  0  0  0  0  0  0  0  0
   25.1181   34.1276   53.2212 N   0  0  0  0  0  0  0  0  0  0  0  0
   23.1239   33.0265   56.1337 C   0  0  0  0  0  0  0  0  0  0  0  0
   24.1214   33.0302   57.1236 C   0  0  0  0  0  0  0  0  0  0  0  0
   23.8473   32.6424   58.4326 C   0  0  0  0  0  0  0  0  0  0  0  0
   22.5704   32.2174   58.7761 C   0  0  0  0  0  0  0  0  0  0  0  0
   21.5526   32.2075   57.8229 C   0  0  0  0  0  0  0  0  0  0  0  0
   20.1497   31.7465   58.2043 C   0  0  0  0  0  0  0  0  0  0  0  0
   19.8854   30.3397   57.8543 N   0  0  0  0  0  0  0  0  0  0  0  0
   19.4128   30.1090   56.5605 N   0  0  0  0  0  0  0  0  0  0  0  0
   19.1571   28.9176   56.1180 C   0  0  0  0  0  0  0  0  0  0  0  0
   19.4059   27.8195   57.0375 C   0  0  0  0  0  0  0  0  0  0  0  0
   19.8870   28.0345   58.2822 C   0  0  0  0  0  0  0  0  0  0  0  0
   20.1852   29.3636   58.7850 C   0  0  0  0  0  0  0  0  0  0  0  0
   20.6460   29.5449   59.9141 O   0  0  0  0  0  0  0  0  0  0  0  0
   18.6463   28.6600   54.7513 C   0  0  0  0  0  0  0  0  0  0  0  0
   17.9441   27.4851   54.4303 C   0  0  0  0  0  0  0  0  0  0  0  0
   17.4733   27.2606   53.1364 C   0  0  0  0  0  0  0  0  0  0  0  0
   16.7942   26.1288   52.8531 F   0  0  0  0  0  0  0  0  0  0  0  0
   17.7086   28.2024   52.1378 C   0  0  0  0  0  0  0  0  0  0  0  0
   18.4025   29.3727   52.4339 C   0  0  0  0  0  0  0  0  0  0  0  0
   18.6243   30.2907   51.4676 F   0  0  0  0  0  0  0  0  0  0  0  0
   18.8686   29.6005   53.7292 C   0  0  0  0  0  0  0  0  0  0  0  0
   21.8292   32.6350   56.5192 C   0  0  0  0  0  0  0  0  0  0  0  0
   25.9212   34.4500   50.7047 H   0  0  0  0  0  0  0  0  0  0  0  0
   24.3580   33.7997   49.9094 H   0  0  0  0  0  0  0  0  0  0  0  0
   22.3433   33.9685   51.8633 H   0  0  0  0  0  0  0  0  0  0  0  0
   23.0211   32.3060   51.8041 H   0  0  0  0  0  0  0  0  0  0  0  0
   21.6214   32.6295   53.8147 H   0  0  0  0  0  0  0  0  0  0  0  0
   25.1226   33.3406   56.8634 H   0  0  0  0  0  0  0  0  0  0  0  0
   24.6266   32.6721   59.1798 H   0  0  0  0  0  0  0  0  0  0  0  0
   22.3649   31.8933   59.7856 H   0  0  0  0  0  0  0  0  0  0  0  0
   20.0260   31.8656   59.2908 H   0  0  0  0  0  0  0  0  0  0  0  0
   19.4190   32.3802   57.6804 H   0  0  0  0  0  0  0  0  0  0  0  0
   19.2015   26.8081   56.7186 H   0  0  0  0  0  0  0  0  0  0  0  0
   20.0561   27.1851   58.9275 H   0  0  0  0  0  0  0  0  0  0  0  0
   17.7665   26.7453   55.1968 H   0  0  0  0  0  0  0  0  0  0  0  0
   17.3528   28.0250   51.1336 H   0  0  0  0  0  0  0  0  0  0  0  0
   19.4069   30.5104   53.9498 H   0  0  0  0  0  0  0  0  0  0  0  0
   21.0305   32.6649   55.7929 H   0  0  0  0  0  0  0  0  0  0  0  0
  1  2  2  0  0  0  0
  2  3  1  0  0  0  0
  2  7  1  0  0  0  0
  3  4  1  0  0  0  0
  4  5  2  0  0  0  0
  5  6  1  0  0  0  0
  5  8  1  0  0  0  0
  6  7  2  0  0  0  0
  8  9  2  0  0  0  0
  8 29  1  0  0  0  0
  9 10  1  0  0  0  0
 10 11  2  0  0  0  0
 11 12  1  0  0  0  0
 12 13  1  0  0  0  0
 12 29  2  0  0  0  0
 13 14  1  0  0  0  0
 14 15  1  0  0  0  0
 14 19  1  0  0  0  0
 15 16  2  0  0  0  0
 16 17  1  0  0  0  0
 16 21  1  0  0  0  0
 17 18  2  0  0  0  0
 18 19  1  0  0  0  0
 19 20  2  0  0  0  0
 21 22  2  0  0  0  0
 21 28  1  0  0  0  0
 22 23  1  0  0  0  0
 23 24  1  0  0  0  0
 23 25  2  0  0  0  0
 25 26  1  0  0  0  0
 26 27  1  0  0  0  0
 26 28  2  0  0  0  0
  1 30  1  0  0  0  0
  1 31  1  0  0  0  0
  3 32  1  0  0  0  0
  3 33  1  0  0  0  0
  4 34  1  0  0  0  0
  9 35  1  0  0  0  0
 10 36  1  0  0  0  0
 11 37  1  0  0  0  0
 13 38  1  0  0  0  0
 13 39  1  0  0  0  0
 17 40  1  0  0  0  0
 18 41  1  0  0  0  0
 22 42  1  0  0  0  0
 25 43  1  0  0  0  0
 28 44  1  0  0  0  0
 29 45  1  0  0  0  0
M  END
> <s_user_Name>
CHEMBL3402755_4200

> <IC50[nM]>
4200

$$$$
CHEMBL3402755_4200
  -OEChem-05192314313D
 Structure written by MMmdl.
 45 48  0     0  0  0  0  0  0999 V2000
   24.9268   34.0387   50.7958 C   0  0  0  0  0  0  0  0  0  0  0  0
   24.3292   33.7968   52.1682 C   0  0  0  0  0  0  0  0  0  0  0  0
   23.0499   33.2693   52.3344 C   0  0  0  0  0  0  0  0  0  0  0  0
   22.6036   33.0410   53.6347 C   0  0  0  0  0  0  0  0  0  0  0  0
   23.4538   33.3556   54.7057 C   0  0  0  0  0  0  0  0  0  0  0  0
   24.6754   33.9192   54.4700 N   0  0  0  0  0  0  0  0  0  0  0  0
   25.1181   34.1276   53.2212 N   0  0  0  0  0  0  0  0  0  0  0  0
   23.1239   33.0265   56.1337 C   0  0  0  0  0  0  0  0  0  0  0  0
   24.1214   33.0302   57.1236 C   0  0  0  0  0  0  0  0  0  0  0  0
   23.8473   32.6424   58.4326 C   0  0  0  0  0  0  0  0  0  0  0  0
   22.5704   32.2174   58.7761 C   0  0  0  0  0  0  0  0  0  0  0  0
   21.5526   32.2075   57.8229 C   0  0  0  0  0  0  0  0  0  0  0  0
   20.1497   31.7465   58.2043 C   0  0  0  0  0  0  0  0  0  0  0  0
   19.8854   30.3397   57.8543 N   0  0  0  0  0  0  0  0  0  0  0  0
   19.4128   30.1090   56.5605 N   0  0  0  0  0  0  0  0  0  0  0  0
   19.1571   28.9176   56.1180 C   0  0  0  0  0  0  0  0  0  0  0  0
   19.4059   27.8195   57.0375 C   0  0  0  0  0  0  0  0  0  0  0  0
   19.8870   28.0345   58.2822 C   0  0  0  0  0  0  0  0  0  0  0  0
   20.1852   29.3636   58.7850 C   0  0  0  0  0  0  0  0  0  0  0  0
   20.6460   29.5449   59.9141 O   0  0  0  0  0  0  0  0  0  0  0  0
   18.6463   28.6600   54.7513 C   0  0  0  0  0  0  0  0  0  0  0  0
   17.9441   27.4851   54.4303 C   0  0  0  0  0  0  0  0  0  0  0  0
   17.4733   27.2606   53.1364 C   0  0  0  0  0  0  0  0  0  0  0  0
   16.7942   26.1288   52.8531 F   0  0  0  0  0  0  0  0  0  0  0  0
   17.7086   28.2024   52.1378 C   0  0  0  0  0  0  0  0  0  0  0  0
   18.4025   29.3727   52.4339 C   0  0  0  0  0  0  0  0  0  0  0  0
   18.6243   30.2907   51.4676 F   0  0  0  0  0  0  0  0  0  0  0  0
   18.8686   29.6005   53.7292 C   0  0  0  0  0  0  0  0  0  0  0  0
   21.8292   32.6350   56.5192 C   0  0  0  0  0  0  0  0  0  0  0  0
   25.9212   34.4500   50.7047 H   0  0  0  0  0  0  0  0  0  0  0  0
   24.3580   33.7997   49.9094 H   0  0  0  0  0  0  0  0  0  0  0  0
   22.4246   33.0447   51.4829 H   0  0  0  0  0  0  0  0  0  0  0  0
   21.6214   32.6295   53.8147 H   0  0  0  0  0  0  0  0  0  0  0  0
   26.0232   34.5240   53.0674 H   0  0  0  0  0  0  0  0  0  0  0  0
   25.1226   33.3406   56.8634 H   0  0  0  0  0  0  0  0  0  0  0  0
   24.6266   32.6721   59.1798 H   0  0  0  0  0  0  0  0  0  0  0  0
   22.3649   31.8933   59.7856 H   0  0  0  0  0  0  0  0  0  0  0  0
   20.0260   31.8656   59.2908 H   0  0  0  0  0  0  0  0  0  0  0  0
   19.4190   32.3802   57.6804 H   0  0  0  0  0  0  0  0  0  0  0  0
   19.2015   26.8081   56.7186 H   0  0  0  0  0  0  0  0  0  0  0  0
   20.0561   27.1851   58.9275 H   0  0  0  0  0  0  0  0  0  0  0  0
   17.7665   26.7453   55.1968 H   0  0  0  0  0  0  0  0  0  0  0  0
   17.3528   28.0250   51.1336 H   0  0  0  0  0  0  0  0  0  0  0  0
   19.4069   30.5104   53.9498 H   0  0  0  0  0  0  0  0  0  0  0  0
   21.0305   32.6649   55.7929 H   0  0  0  0  0  0  0  0  0  0  0  0
  1  2  2  0  0  0  0
  2  3  1  0  0  0  0
  2  7  1  0  0  0  0
  3  4  2  0  0  0  0
  4  5  1  0  0  0  0
  5  6  2  0  0  0  0
  5  8  1  0  0  0  0
  6  7  1  0  0  0  0
  8  9  2  0  0  0  0
  8 29  1  0  0  0  0
  9 10  1  0  0  0  0
 10 11  2  0  0  0  0
 11 12  1  0  0  0  0
 12 13  1  0  0  0  0
 12 29  2  0  0  0  0
 13 14  1  0  0  0  0
 14 15  1  0  0  0  0
 14 19  1  0  0  0  0
 15 16  2  0  0  0  0
 16 17  1  0  0  0  0
 16 21  1  0  0  0  0
 17 18  2  0  0  0  0
 18 19  1  0  0  0  0
 19 20  2  0  0  0  0
 21 22  2  0  0  0  0
 21 28  1  0  0  0  0
 22 23  1  0  0  0  0
 23 24  1  0  0  0  0
 23 25  2  0  0  0  0
 25 26  1  0  0  0  0
 26 27  1  0  0  0  0
 26 28  2  0  0  0  0
  1 30  1  0  0  0  0
  1 31  1  0  0  0  0
  3 32  1  0  0  0  0
  4 33  1  0  0  0  0
  7 34  1  0  0  0  0
  9 35  1  0  0  0  0
 10 36  1  0  0  0  0
 11 37  1  0  0  0  0
 13 38  1  0  0  0  0
 13 39  1  0  0  0  0
 17 40  1  0  0  0  0
 18 41  1  0  0  0  0
 22 42  1  0  0  0  0
 25 43  1  0  0  0  0
 28 44  1  0  0  0  0
 29 45  1  0  0  0  0
M  END
> <s_user_Name>
CHEMBL3402755_4200

> <IC50[nM]>
4200

$$$$
CHEMBL3402755_4200
  -OEChem-05192314313D
 Structure written by MMmdl.
 45 48  0     0  0  0  0  0  0999 V2000
   24.9268   34.0387   50.7958 C   0  0  0  0  0  0  0  0  0  0  0  0
   24.3292   33.7968   52.1682 C   0  0  0  0  0  0  0  0  0  0  0  0
   23.0499   33.2693   52.3344 C   0  0  0  0  0  0  0  0  0  0  0  0
   22.6036   33.0410   53.6347 C   0  0  0  0  0  0  0  0  0  0  0  0
   23.4538   33.3556   54.7057 C   0  0  0  0  0  0  0  0  0  0  0  0
   24.6754   33.9192   54.4700 N   0  0  0  0  0  0  0  0  0  0  0  0
   25.1181   34.1276   53.2212 N   0  0  0  0  0  0  0  0  0  0  0  0
   23.1239   33.0265   56.1337 C   0  0  0  0  0  0  0  0  0  0  0  0
   24.1214   33.0302   57.1236 C   0  0  0  0  0  0  0  0  0  0  0  0
   23.8473   32.6424   58.4326 C   0  0  0  0  0  0  0  0  0  0  0  0
   22.5704   32.2174   58.7761 C   0  0  0  0  0  0  0  0  0  0  0  0
   21.5526   32.2075   57.8229 C   0  0  0  0  0  0  0  0  0  0  0  0
   20.1497   31.7465   58.2043 C   0  0  0  0  0  0  0  0  0  0  0  0
   19.8854   30.3397   57.8543 N   0  0  0  0  0  0  0  0  0  0  0  0
   19.4128   30.1090   56.5605 N   0  0  0  0  0  0  0  0  0  0  0  0
   19.1571   28.9176   56.1180 C   0  0  0  0  0  0  0  0  0  0  0  0
   19.4059   27.8195   57.0375 C   0  0  0  0  0  0  0  0  0  0  0  0
   19.8870   28.0345   58.2822 C   0  0  0  0  0  0  0  0  0  0  0  0
   20.1852   29.3636   58.7850 C   0  0  0  0  0  0  0  0  0  0  0  0
   20.6460   29.5449   59.9141 O   0  0  0  0  0  0  0  0  0  0  0  0
   18.6463   28.6600   54.7513 C   0  0  0  0  0  0  0  0  0  0  0  0
   17.9441   27.4851   54.4303 C   0  0  0  0  0  0  0  0  0  0  0  0
   17.4733   27.2606   53.1364 C   0  0  0  0  0  0  0  0  0  0  0  0
   16.7942   26.1288   52.8531 F   0  0  0  0  0  0  0  0  0  0  0  0
   17.7086   28.2024   52.1378 C   0  0  0  0  0  0  0  0  0  0  0  0
   18.4025   29.3727   52.4339 C   0  0  0  0  0  0  0  0  0  0  0  0
   18.6243   30.2907   51.4676 F   0  0  0  0  0  0  0  0  0  0  0  0
   18.8686   29.6005   53.7292 C   0  0  0  0  0  0  0  0  0  0  0  0
   21.8292   32.6350   56.5192 C   0  0  0  0  0  0  0  0  0  0  0  0
   25.9212   34.4500   50.7047 H   0  0  0  0  0  0  0  0  0  0  0  0
   24.3580   33.7997   49.9094 H   0  0  0  0  0  0  0  0  0  0  0  0
   22.4246   33.0447   51.4829 H   0  0  0  0  0  0  0  0  0  0  0  0
   21.6214   32.6295   53.8147 H   0  0  0  0  0  0  0  0  0  0  0  0
   24.9193   32.3643   56.7630 H   0  0  0  0  0  0  0  0  0  0  0  0
   24.5010   34.0612   57.1781 H   0  0  0  0  0  0  0  0  0  0  0  0
   24.6266   32.6721   59.1798 H   0  0  0  0  0  0  0  0  0  0  0  0
   22.3649   31.8933   59.7856 H   0  0  0  0  0  0  0  0  0  0  0  0
   20.0260   31.8656   59.2908 H   0  0  0  0  0  0  0  0  0  0  0  0
   19.4190   32.3802   57.6804 H   0  0  0  0  0  0  0  0  0  0  0  0
   19.2015   26.8081   56.7186 H   0  0  0  0  0  0  0  0  0  0  0  0
   20.0561   27.1851   58.9275 H   0  0  0  0  0  0  0  0  0  0  0  0
   17.7665   26.7453   55.1968 H   0  0  0  0  0  0  0  0  0  0  0  0
   17.3528   28.0250   51.1336 H   0  0  0  0  0  0  0  0  0  0  0  0
   19.4069   30.5104   53.9498 H   0  0  0  0  0  0  0  0  0  0  0  0
   21.0305   32.6649   55.7929 H   0  0  0  0  0  0  0  0  0  0  0  0
  1  2  2  0  0  0  0
  2  3  1  0  0  0  0
  2  7  1  0  0  0  0
  3  4  2  0  0  0  0
  4  5  1  0  0  0  0
  5  6  1  0  0  0  0
  5  8  2  0  0  0  0
  6  7  2  0  0  0  0
  8  9  1  0  0  0  0
  8 29  1  0  0  0  0
  9 10  1  0  0  0  0
 10 11  2  0  0  0  0
 11 12  1  0  0  0  0
 12 13  1  0  0  0  0
 12 29  2  0  0  0  0
 13 14  1  0  0  0  0
 14 15  1  0  0  0  0
 14 19  1  0  0  0  0
 15 16  2  0  0  0  0
 16 17  1  0  0  0  0
 16 21  1  0  0  0  0
 17 18  2  0  0  0  0
 18 19  1  0  0  0  0
 19 20  2  0  0  0  0
 21 22  2  0  0  0  0
 21 28  1  0  0  0  0
 22 23  1  0  0  0  0
 23 24  1  0  0  0  0
 23 25  2  0  0  0  0
 25 26  1  0  0  0  0
 26 27  1  0  0  0  0
 26 28  2  0  0  0  0
  1 30  1  0  0  0  0
  1 31  1  0  0  0  0
  3 32  1  0  0  0  0
  4 33  1  0  0  0  0
  9 34  1  0  0  0  0
  9 35  1  0  0  0  0
 10 36  1  0  0  0  0
 11 37  1  0  0  0  0
 13 38  1  0  0  0  0
 13 39  1  0  0  0  0
 17 40  1  0  0  0  0
 18 41  1  0  0  0  0
 22 42  1  0  0  0  0
 25 43  1  0  0  0  0
 28 44  1  0  0  0  0
 29 45  1  0  0  0  0
M  END
> <s_user_Name>
CHEMBL3402755_4200

> <IC50[nM]>
4200

$$$$
CHEMBL3402755_4200
  -OEChem-05192314313D
 Structure written by MMmdl.
 45 48  0     0  0  0  0  0  0999 V2000
   24.9268   34.0387   50.7958 C   0  0  0  0  0  0  0  0  0  0  0  0
   24.3292   33.7968   52.1682 C   0  0  0  0  0  0  0  0  0  0  0  0
   23.0499   33.2693   52.3344 C   0  0  0  0  0  0  0  0  0  0  0  0
   22.6036   33.0410   53.6347 C   0  0  0  0  0  0  0  0  0  0  0  0
   23.4538   33.3556   54.7057 C   0  0  0  0  0  0  0  0  0  0  0  0
   24.6754   33.9192   54.4700 N   0  0  0  0  0  0  0  0  0  0  0  0
   25.1181   34.1276   53.2212 N   0  0  0  0  0  0  0  0  0  0  0  0
   23.1239   33.0265   56.1337 C   0  0  0  0  0  0  0  0  0  0  0  0
   24.1214   33.0302   57.1236 C   0  0  0  0  0  0  0  0  0  0  0  0
   23.8473   32.6424   58.4326 C   0  0  0  0  0  0  0  0  0  0  0  0
   22.5704   32.2174   58.7761 C   0  0  0  0  0  0  0  0  0  0  0  0
   21.5526   32.2075   57.8229 C   0  0  0  0  0  0  0  0  0  0  0  0
   20.1497   31.7465   58.2043 C   0  0  0  0  0  0  0  0  0  0  0  0
   19.8854   30.3397   57.8543 N   0  0  0  0  0  0  0  0  0  0  0  0
   19.4128   30.1090   56.5605 N   0  0  0  0  0  0  0  0  0  0  0  0
   19.1571   28.9176   56.1180 C   0  0  0  0  0  0  0  0  0  0  0  0
   19.4059   27.8195   57.0375 C   0  0  0  0  0  0  0  0  0  0  0  0
   19.8870   28.0345   58.2822 C   0  0  0  0  0  0  0  0  0  0  0  0
   20.1852   29.3636   58.7850 C   0  0  0  0  0  0  0  0  0  0  0  0
   20.6460   29.5449   59.9141 O   0  0  0  0  0  0  0  0  0  0  0  0
   18.6463   28.6600   54.7513 C   0  0  0  0  0  0  0  0  0  0  0  0
   17.9441   27.4851   54.4303 C   0  0  0  0  0  0  0  0  0  0  0  0
   17.4733   27.2606   53.1364 C   0  0  0  0  0  0  0  0  0  0  0  0
   16.7942   26.1288   52.8531 F   0  0  0  0  0  0  0  0  0  0  0  0
   17.7086   28.2024   52.1378 C   0  0  0  0  0  0  0  0  0  0  0  0
   18.4025   29.3727   52.4339 C   0  0  0  0  0  0  0  0  0  0  0  0
   18.6243   30.2907   51.4676 F   0  0  0  0  0  0  0  0  0  0  0  0
   18.8686   29.6005   53.7292 C   0  0  0  0  0  0  0  0  0  0  0  0
   21.8292   32.6350   56.5192 C   0  0  0  0  0  0  0  0  0  0  0  0
   25.9212   34.4500   50.7047 H   0  0  0  0  0  0  0  0  0  0  0  0
   24.3580   33.7997   49.9094 H   0  0  0  0  0  0  0  0  0  0  0  0
   22.4246   33.0447   51.4829 H   0  0  0  0  0  0  0  0  0  0  0  0
   21.6214   32.6295   53.8147 H   0  0  0  0  0  0  0  0  0  0  0  0
   25.1226   33.3406   56.8634 H   0  0  0  0  0  0  0  0  0  0  0  0
   24.6266   32.6721   59.1798 H   0  0  0  0  0  0  0  0  0  0  0  0
   22.6689   31.1855   59.1443 H   0  0  0  0  0  0  0  0  0  0  0  0
   22.2302   32.8680   59.5952 H   0  0  0  0  0  0  0  0  0  0  0  0
   20.0260   31.8656   59.2908 H   0  0  0  0  0  0  0  0  0  0  0  0
   19.4190   32.3802   57.6804 H   0  0  0  0  0  0  0  0  0  0  0  0
   19.2015   26.8081   56.7186 H   0  0  0  0  0  0  0  0  0  0  0  0
   20.0561   27.1851   58.9275 H   0  0  0  0  0  0  0  0  0  0  0  0
   17.7665   26.7453   55.1968 H   0  0  0  0  0  0  0  0  0  0  0  0
   17.3528   28.0250   51.1336 H   0  0  0  0  0  0  0  0  0  0  0  0
   19.4069   30.5104   53.9498 H   0  0  0  0  0  0  0  0  0  0  0  0
   21.0305   32.6649   55.7929 H   0  0  0  0  0  0  0  0  0  0  0  0
  1  2  2  0  0  0  0
  2  3  1  0  0  0  0
  2  7  1  0  0  0  0
  3  4  2  0  0  0  0
  4  5  1  0  0  0  0
  5  6  1  0  0  0  0
  5  8  2  0  0  0  0
  6  7  2  0  0  0  0
  8  9  1  0  0  0  0
  8 29  1  0  0  0  0
  9 10  2  0  0  0  0
 10 11  1  0  0  0  0
 11 12  1  0  0  0  0
 12 13  1  0  0  0  0
 12 29  2  0  0  0  0
 13 14  1  0  0  0  0
 14 15  1  0  0  0  0
 14 19  1  0  0  0  0
 15 16  2  0  0  0  0
 16 17  1  0  0  0  0
 16 21  1  0  0  0  0
 17 18  2  0  0  0  0
 18 19  1  0  0  0  0
 19 20  2  0  0  0  0
 21 22  2  0  0  0  0
 21 28  1  0  0  0  0
 22 23  1  0  0  0  0
 23 24  1  0  0  0  0
 23 25  2  0  0  0  0
 25 26  1  0  0  0  0
 26 27  1  0  0  0  0
 26 28  2  0  0  0  0
  1 30  1  0  0  0  0
  1 31  1  0  0  0  0
  3 32  1  0  0  0  0
  4 33  1  0  0  0  0
  9 34  1  0  0  0  0
 10 35  1  0  0  0  0
 11 36  1  0  0  0  0
 11 37  1  0  0  0  0
 13 38  1  0  0  0  0
 13 39  1  0  0  0  0
 17 40  1  0  0  0  0
 18 41  1  0  0  0  0
 22 42  1  0  0  0  0
 25 43  1  0  0  0  0
 28 44  1  0  0  0  0
 29 45  1  0  0  0  0
M  END
> <s_user_Name>
CHEMBL3402755_4200

> <IC50[nM]>
4200

$$$$
CHEMBL3402755_4200
  -OEChem-05192314313D
 Structure written by MMmdl.
 45 48  0     0  0  0  0  0  0999 V2000
   24.9268   34.0387   50.7958 C   0  0  0  0  0  0  0  0  0  0  0  0
   24.3292   33.7968   52.1682 C   0  0  0  0  0  0  0  0  0  0  0  0
   23.0499   33.2693   52.3344 C   0  0  0  0  0  0  0  0  0  0  0  0
   22.6036   33.0410   53.6347 C   0  0  0  0  0  0  0  0  0  0  0  0
   23.4538   33.3556   54.7057 C   0  0  0  0  0  0  0  0  0  0  0  0
   24.6754   33.9192   54.4700 N   0  0  0  0  0  0  0  0  0  0  0  0
   25.1181   34.1276   53.2212 N   0  0  0  0  0  0  0  0  0  0  0  0
   23.1239   33.0265   56.1337 C   0  0  0  0  0  0  0  0  0  0  0  0
   24.1214   33.0302   57.1236 C   0  0  0  0  0  0  0  0  0  0  0  0
   23.8473   32.6424   58.4326 C   0  0  0  0  0  0  0  0  0  0  0  0
   22.5704   32.2174   58.7761 C   0  0  0  0  0  0  0  0  0  0  0  0
   21.5526   32.2075   57.8229 C   0  0  0  0  0  0  0  0  0  0  0  0
   20.1497   31.7465   58.2043 C   0  0  0  0  0  0  0  0  0  0  0  0
   19.8854   30.3397   57.8543 N   0  0  0  0  0  0  0  0  0  0  0  0
   19.4128   30.1090   56.5605 N   0  0  0  0  0  0  0  0  0  0  0  0
   19.1571   28.9176   56.1180 C   0  0  0  0  0  0  0  0  0  0  0  0
   19.4059   27.8195   57.0375 C   0  0  0  0  0  0  0  0  0  0  0  0
   19.8870   28.0345   58.2822 C   0  0  0  0  0  0  0  0  0  0  0  0
   20.1852   29.3636   58.7850 C   0  0  0  0  0  0  0  0  0  0  0  0
   20.6460   29.5449   59.9141 O   0  0  0  0  0  0  0  0  0  0  0  0
   18.6463   28.6600   54.7513 C   0  0  0  0  0  0  0  0  0  0  0  0
   17.9441   27.4851   54.4303 C   0  0  0  0  0  0  0  0  0  0  0  0
   17.4733   27.2606   53.1364 C   0  0  0  0  0  0  0  0  0  0  0  0
   16.7942   26.1288   52.8531 F   0  0  0  0  0  0  0  0  0  0  0  0
   17.7086   28.2024   52.1378 C   0  0  0  0  0  0  0  0  0  0  0  0
   18.4025   29.3727   52.4339 C   0  0  0  0  0  0  0  0  0  0  0  0
   18.6243   30.2907   51.4676 F   0  0  0  0  0  0  0  0  0  0  0  0
   18.8686   29.6005   53.7292 C   0  0  0  0  0  0  0  0  0  0  0  0
   21.8292   32.6350   56.5192 C   0  0  0  0  0  0  0  0  0  0  0  0
   25.9212   34.4500   50.7047 H   0  0  0  0  0  0  0  0  0  0  0  0
   24.3580   33.7997   49.9094 H   0  0  0  0  0  0  0  0  0  0  0  0
   22.4246   33.0447   51.4829 H   0  0  0  0  0  0  0  0  0  0  0  0
   21.6214   32.6295   53.8147 H   0  0  0  0  0  0  0  0  0  0  0  0
   25.1226   33.3406   56.8634 H   0  0  0  0  0  0  0  0  0  0  0  0
   24.6266   32.6721   59.1798 H   0  0  0  0  0  0  0  0  0  0  0  0
   22.3649   31.8933   59.7856 H   0  0  0  0  0  0  0  0  0  0  0  0
   20.0260   31.8656   59.2908 H   0  0  0  0  0  0  0  0  0  0  0  0
   19.4190   32.3802   57.6804 H   0  0  0  0  0  0  0  0  0  0  0  0
   19.2015   26.8081   56.7186 H   0  0  0  0  0  0  0  0  0  0  0  0
   20.0561   27.1851   58.9275 H   0  0  0  0  0  0  0  0  0  0  0  0
   17.7665   26.7453   55.1968 H   0  0  0  0  0  0  0  0  0  0  0  0
   17.3528   28.0250   51.1336 H   0  0  0  0  0  0  0  0  0  0  0  0
   19.4069   30.5104   53.9498 H   0  0  0  0  0  0  0  0  0  0  0  0
   21.1746   33.4986   56.3303 H   0  0  0  0  0  0  0  0  0  0  0  0
   21.5444   31.8066   55.8539 H   0  0  0  0  0  0  0  0  0  0  0  0
  1  2  2  0  0  0  0
  2  3  1  0  0  0  0
  2  7  1  0  0  0  0
  3  4  2  0  0  0  0
  4  5  1  0  0  0  0
  5  6  1  0  0  0  0
  5  8  2  0  0  0  0
  6  7  2  0  0  0  0
  8  9  1  0  0  0  0
  8 29  1  0  0  0  0
  9 10  2  0  0  0  0
 10 11  1  0  0  0  0
 11 12  2  0  0  0  0
 12 13  1  0  0  0  0
 12 29  1  0  0  0  0
 13 14  1  0  0  0  0
 14 15  1  0  0  0  0
 14 19  1  0  0  0  0
 15 16  2  0  0  0  0
 16 17  1  0  0  0  0
 16 21  1  0  0  0  0
 17 18  2  0  0  0  0
 18 19  1  0  0  0  0
 19 20  2  0  0  0  0
 21 22  2  0  0  0  0
 21 28  1  0  0  0  0
 22 23  1  0  0  0  0
 23 24  1  0  0  0  0
 23 25  2  0  0  0  0
 25 26  1  0  0  0  0
 26 27  1  0  0  0  0
 26 28  2  0  0  0  0
  1 30  1  0  0  0  0
  1 31  1  0  0  0  0
  3 32  1  0  0  0  0
  4 33  1  0  0  0  0
  9 34  1  0  0  0  0
 10 35  1  0  0  0  0
 11 36  1  0  0  0  0
 13 37  1  0  0  0  0
 13 38  1  0  0  0  0
 17 39  1  0  0  0  0
 18 40  1  0  0  0  0
 22 41  1  0  0  0  0
 25 42  1  0  0  0  0
 28 43  1  0  0  0  0
 29 44  1  0  0  0  0
 29 45  1  0  0  0  0
M  END
> <s_user_Name>
CHEMBL3402755_4200

> <IC50[nM]>
4200

$$$$
