CHEMBL3402761_1
  -OEChem-05192314313D
 Structure written by MMmdl.
 63 67  0     0  0  0  0  0  0999 V2000
   20.6270   29.5265   59.9403 O   0  0  0  0  0  0  0  0  0  0  0  0
   20.1829   29.3653   58.8001 C   0  0  0  0  0  0  0  0  0  0  0  0
   19.8506   28.0457   58.2897 C   0  0  0  0  0  0  0  0  0  0  0  0
   19.3754   27.8491   57.0403 C   0  0  0  0  0  0  0  0  0  0  0  0
   19.1767   28.9531   56.1176 C   0  0  0  0  0  0  0  0  0  0  0  0
   19.4497   30.1369   56.5714 N   0  0  0  0  0  0  0  0  0  0  0  0
   19.9289   30.3529   57.8691 N   0  0  0  0  0  0  0  0  0  0  0  0
   20.2272   31.7541   58.2201 C   0  0  0  0  0  0  0  0  0  0  0  0
   21.6335   32.2198   57.8298 C   0  0  0  0  0  0  0  0  0  0  0  0
   22.6557   32.2345   58.7758 C   0  0  0  0  0  0  0  0  0  0  0  0
   23.9255   32.6947   58.4300 C   0  0  0  0  0  0  0  0  0  0  0  0
   24.1809   33.1262   57.1291 C   0  0  0  0  0  0  0  0  0  0  0  0
   23.1796   33.1186   56.1459 C   0  0  0  0  0  0  0  0  0  0  0  0
   21.8982   32.6757   56.5339 C   0  0  0  0  0  0  0  0  0  0  0  0
   23.4866   33.4885   54.7188 C   0  0  0  0  0  0  0  0  0  0  0  0
   24.7735   33.7939   54.3763 N   0  0  0  0  0  0  0  0  0  0  0  0
   25.0455   33.9261   53.0474 C   0  0  0  0  0  0  0  0  0  0  0  0
   24.0793   33.7512   52.0531 C   0  0  0  0  0  0  0  0  0  0  0  0
   24.4620   33.8044   50.7208 O   0  0  0  0  0  0  0  0  0  0  0  0
   23.5165   33.5647   49.6672 C   0  0  0  0  0  0  0  0  0  0  0  0
   22.8204   32.1758   49.7068 C   0  0  0  0  0  0  0  0  0  0  0  0
   23.1410   31.3200   48.5625 N   0  0  0  0  0  0  0  0  0  0  0  0
   22.2179   30.1779   48.5055 C   0  0  0  0  0  0  0  0  0  0  0  0
   22.5690   29.2456   47.3242 C   0  0  0  0  0  0  0  0  0  0  0  0
   23.9278   28.8247   47.3937 O   0  0  0  0  0  0  0  0  0  0  0  0
   24.8503   29.9097   47.4537 C   0  0  0  0  0  0  0  0  0  0  0  0
   24.5319   30.8525   48.6318 C   0  0  0  0  0  0  0  0  0  0  0  0
   22.7764   33.5181   52.5153 C   0  0  0  0  0  0  0  0  0  0  0  0
   22.4655   33.3787   53.8269 N   0  0  0  0  0  0  0  0  0  0  0  0
   18.7029   28.7100   54.7362 C   0  0  0  0  0  0  0  0  0  0  0  0
   18.9902   29.6554   53.7347 C   0  0  0  0  0  0  0  0  0  0  0  0
   18.5804   29.4532   52.4203 C   0  0  0  0  0  0  0  0  0  0  0  0
   17.8711   28.3033   52.0789 C   0  0  0  0  0  0  0  0  0  0  0  0
   17.5750   27.3490   53.0531 C   0  0  0  0  0  0  0  0  0  0  0  0
   17.9978   27.5468   54.3733 C   0  0  0  0  0  0  0  0  0  0  0  0
   16.8353   26.1529   52.6794 C   0  0  0  0  0  0  0  0  0  0  0  0
   16.2471   25.2029   52.3739 N   0  0  0  0  0  0  0  0  0  0  0  0
   19.9888   27.1897   58.9336 H   0  0  0  0  0  0  0  0  0  0  0  0
   19.1373   26.8457   56.7196 H   0  0  0  0  0  0  0  0  0  0  0  0
   19.4972   32.3994   57.7094 H   0  0  0  0  0  0  0  0  0  0  0  0
   20.1175   31.8666   59.3088 H   0  0  0  0  0  0  0  0  0  0  0  0
   22.4640   31.8882   59.7807 H   0  0  0  0  0  0  0  0  0  0  0  0
   24.7116   32.7169   59.1702 H   0  0  0  0  0  0  0  0  0  0  0  0
   25.1707   33.4738   56.8725 H   0  0  0  0  0  0  0  0  0  0  0  0
   21.0975   32.6888   55.8092 H   0  0  0  0  0  0  0  0  0  0  0  0
   26.0528   34.1772   52.7495 H   0  0  0  0  0  0  0  0  0  0  0  0
   22.7366   34.3381   49.7272 H   0  0  0  0  0  0  0  0  0  0  0  0
   24.0468   33.6524   48.7075 H   0  0  0  0  0  0  0  0  0  0  0  0
   23.1328   31.6576   50.6254 H   0  0  0  0  0  0  0  0  0  0  0  0
   21.7320   32.3340   49.7271 H   0  0  0  0  0  0  0  0  0  0  0  0
   22.2878   29.6107   49.4454 H   0  0  0  0  0  0  0  0  0  0  0  0
   21.1909   30.5506   48.3776 H   0  0  0  0  0  0  0  0  0  0  0  0
   21.9161   28.3610   47.3575 H   0  0  0  0  0  0  0  0  0  0  0  0
   22.4073   29.7853   46.3794 H   0  0  0  0  0  0  0  0  0  0  0  0
   25.8668   29.5089   47.5803 H   0  0  0  0  0  0  0  0  0  0  0  0
   24.7951   30.4792   46.5142 H   0  0  0  0  0  0  0  0  0  0  0  0
   25.2067   31.7203   48.5922 H   0  0  0  0  0  0  0  0  0  0  0  0
   24.6844   30.3123   49.5778 H   0  0  0  0  0  0  0  0  0  0  0  0
   21.9801   33.4460   51.7892 H   0  0  0  0  0  0  0  0  0  0  0  0
   19.5368   30.5512   53.9898 H   0  0  0  0  0  0  0  0  0  0  0  0
   18.8123   30.1883   51.6639 H   0  0  0  0  0  0  0  0  0  0  0  0
   17.5501   28.1505   51.0591 H   0  0  0  0  0  0  0  0  0  0  0  0
   17.7806   26.7987   55.1214 H   0  0  0  0  0  0  0  0  0  0  0  0
  1  2  2  0  0  0  0
  2  3  1  0  0  0  0
  2  7  1  0  0  0  0
  3  4  2  0  0  0  0
  4  5  1  0  0  0  0
  5  6  2  0  0  0  0
  5 30  1  0  0  0  0
  6  7  1  0  0  0  0
  7  8  1  0  0  0  0
  8  9  1  0  0  0  0
  9 10  2  0  0  0  0
  9 14  1  0  0  0  0
 10 11  1  0  0  0  0
 11 12  2  0  0  0  0
 12 13  1  0  0  0  0
 13 14  2  0  0  0  0
 13 15  1  0  0  0  0
 15 16  2  0  0  0  0
 15 29  1  0  0  0  0
 16 17  1  0  0  0  0
 17 18  2  0  0  0  0
 18 19  1  0  0  0  0
 18 28  1  0  0  0  0
 19 20  1  0  0  0  0
 20 21  1  0  0  0  0
 21 22  1  0  0  0  0
 22 23  1  0  0  0  0
 22 27  1  0  0  0  0
 23 24  1  0  0  0  0
 24 25  1  0  0  0  0
 25 26  1  0  0  0  0
 26 27  1  0  0  0  0
 28 29  2  0  0  0  0
 30 31  2  0  0  0  0
 30 35  1  0  0  0  0
 31 32  1  0  0  0  0
 32 33  2  0  0  0  0
 33 34  1  0  0  0  0
 34 35  2  0  0  0  0
 34 36  1  0  0  0  0
 36 37  3  0  0  0  0
  3 38  1  0  0  0  0
  4 39  1  0  0  0  0
  8 40  1  0  0  0  0
  8 41  1  0  0  0  0
 10 42  1  0  0  0  0
 11 43  1  0  0  0  0
 12 44  1  0  0  0  0
 14 45  1  0  0  0  0
 17 46  1  0  0  0  0
 20 47  1  0  0  0  0
 20 48  1  0  0  0  0
 21 49  1  0  0  0  0
 21 50  1  0  0  0  0
 23 51  1  0  0  0  0
 23 52  1  0  0  0  0
 24 53  1  0  0  0  0
 24 54  1  0  0  0  0
 26 55  1  0  0  0  0
 26 56  1  0  0  0  0
 27 57  1  0  0  0  0
 27 58  1  0  0  0  0
 28 59  1  0  0  0  0
 31 60  1  0  0  0  0
 32 61  1  0  0  0  0
 33 62  1  0  0  0  0
 35 63  1  0  0  0  0
M  END
> <s_user_Name>
CHEMBL3402761_1

> <IC50[nM]>
1

$$$$
