CHEMBL3402742_23
  -OEChem-05192314313D
 Structure written by MMmdl.
 56 58  0     0  0  0  0  0  0999 V2000
   24.0986   34.7063   49.0484 C   0  0  0  0  0  0  0  0  0  0  0  0
   24.6432   33.2826   48.7886 N   0  0  0  0  0  0  0  0  0  0  0  0
   25.8543   33.3451   47.8288 C   0  0  0  0  0  0  0  0  0  0  0  0
   25.0189   32.4927   50.0695 C   0  0  0  0  0  0  0  0  0  0  0  0
   23.8157   32.1161   50.9601 C   0  0  0  0  0  0  0  0  0  0  0  0
   23.1879   33.2288   51.8121 C   0  0  0  0  0  0  0  0  0  0  0  0
   24.2114   33.9262   52.5318 O   0  0  0  0  0  0  0  0  0  0  0  0
   24.4007   33.9085   53.8846 C   0  0  0  0  0  0  0  0  0  0  0  0
   25.4467   34.3262   54.3754 O   0  0  0  0  0  0  0  0  0  0  0  0
   23.2923   33.4328   54.5845 N   0  0  0  0  0  0  0  0  0  0  0  0
   23.1560   33.1247   55.9447 C   0  0  0  0  0  0  0  0  0  0  0  0
   24.2128   33.1260   56.8689 C   0  0  0  0  0  0  0  0  0  0  0  0
   23.9896   32.7237   58.1852 C   0  0  0  0  0  0  0  0  0  0  0  0
   22.7192   32.3122   58.5862 C   0  0  0  0  0  0  0  0  0  0  0  0
   21.6582   32.3108   57.6778 C   0  0  0  0  0  0  0  0  0  0  0  0
   20.2579   31.8951   58.1203 C   0  0  0  0  0  0  0  0  0  0  0  0
   19.9237   30.4965   57.7849 N   0  0  0  0  0  0  0  0  0  0  0  0
   19.4310   30.2906   56.5316 N   0  0  0  0  0  0  0  0  0  0  0  0
   19.0502   29.1758   56.0241 C   0  0  0  0  0  0  0  0  0  0  0  0
   19.2185   27.8061   56.7105 C   0  0  0  0  0  0  0  0  0  0  0  0
   19.9746   27.7611   58.3757 S   0  0  0  0  0  0  0  0  0  0  0  0
   20.2175   29.5288   58.7582 C   0  0  0  0  0  0  0  0  0  0  0  0
   20.6471   29.7895   59.8854 O   0  0  0  0  0  0  0  0  0  0  0  0
   18.3886   29.1760   54.6905 C   0  0  0  0  0  0  0  0  0  0  0  0
   18.2431   27.9972   53.9358 C   0  0  0  0  0  0  0  0  0  0  0  0
   17.5693   28.0071   52.7145 C   0  0  0  0  0  0  0  0  0  0  0  0
   17.4239   26.8610   52.0143 F   0  0  0  0  0  0  0  0  0  0  0  0
   17.0348   29.1930   52.2188 C   0  0  0  0  0  0  0  0  0  0  0  0
   17.1737   30.3718   52.9443 C   0  0  0  0  0  0  0  0  0  0  0  0
   16.6469   31.5248   52.4740 F   0  0  0  0  0  0  0  0  0  0  0  0
   17.8471   30.3641   54.1637 C   0  0  0  0  0  0  0  0  0  0  0  0
   21.8822   32.7264   56.3625 C   0  0  0  0  0  0  0  0  0  0  0  0
   23.2382   34.6513   49.7315 H   0  0  0  0  0  0  0  0  0  0  0  0
   24.8880   35.3236   49.5021 H   0  0  0  0  0  0  0  0  0  0  0  0
   23.7824   35.1572   48.0962 H   0  0  0  0  0  0  0  0  0  0  0  0
   26.2342   32.3283   47.6503 H   0  0  0  0  0  0  0  0  0  0  0  0
   25.5423   33.7927   46.8737 H   0  0  0  0  0  0  0  0  0  0  0  0
   26.6479   33.9591   48.2796 H   0  0  0  0  0  0  0  0  0  0  0  0
   25.5262   31.5651   49.7657 H   0  0  0  0  0  0  0  0  0  0  0  0
   25.7082   33.1096   50.6647 H   0  0  0  0  0  0  0  0  0  0  0  0
   23.0283   31.7222   50.3007 H   0  0  0  0  0  0  0  0  0  0  0  0
   24.1492   31.3240   51.6466 H   0  0  0  0  0  0  0  0  0  0  0  0
   22.6569   33.9348   51.1567 H   0  0  0  0  0  0  0  0  0  0  0  0
   22.4775   32.7855   52.5254 H   0  0  0  0  0  0  0  0  0  0  0  0
   22.4708   33.2900   54.0324 H   0  0  0  0  0  0  0  0  0  0  0  0
   25.1993   33.4388   56.5601 H   0  0  0  0  0  0  0  0  0  0  0  0
   24.8028   32.7309   58.8959 H   0  0  0  0  0  0  0  0  0  0  0  0
   22.5547   31.9928   59.6047 H   0  0  0  0  0  0  0  0  0  0  0  0
   20.1870   32.0178   59.2111 H   0  0  0  0  0  0  0  0  0  0  0  0
   19.5276   32.5548   57.6289 H   0  0  0  0  0  0  0  0  0  0  0  0
   18.2174   27.3582   56.7946 H   0  0  0  0  0  0  0  0  0  0  0  0
   19.8436   27.1856   56.0515 H   0  0  0  0  0  0  0  0  0  0  0  0
   18.6588   27.0722   54.3073 H   0  0  0  0  0  0  0  0  0  0  0  0
   16.5134   29.1979   51.2730 H   0  0  0  0  0  0  0  0  0  0  0  0
   17.9558   31.2864   54.7151 H   0  0  0  0  0  0  0  0  0  0  0  0
   21.0618   32.7402   55.6603 H   0  0  0  0  0  0  0  0  0  0  0  0
  1  2  1  0  0  0  0
  2  3  1  0  0  0  0
  2  4  1  0  0  0  0
  4  5  1  0  0  0  0
  5  6  1  0  0  0  0
  6  7  1  0  0  0  0
  7  8  1  0  0  0  0
  8  9  2  0  0  0  0
  8 10  1  0  0  0  0
 10 11  1  0  0  0  0
 11 12  2  0  0  0  0
 11 32  1  0  0  0  0
 12 13  1  0  0  0  0
 13 14  2  0  0  0  0
 14 15  1  0  0  0  0
 15 16  1  0  0  0  0
 15 32  2  0  0  0  0
 16 17  1  0  0  0  0
 17 18  1  0  0  0  0
 17 22  1  0  0  0  0
 18 19  2  0  0  0  0
 19 20  1  0  0  0  0
 19 24  1  0  0  0  0
 20 21  1  0  0  0  0
 21 22  1  0  0  0  0
 22 23  2  0  0  0  0
 24 25  2  0  0  0  0
 24 31  1  0  0  0  0
 25 26  1  0  0  0  0
 26 27  1  0  0  0  0
 26 28  2  0  0  0  0
 28 29  1  0  0  0  0
 29 30  1  0  0  0  0
 29 31  2  0  0  0  0
  1 33  1  0  0  0  0
  1 34  1  0  0  0  0
  1 35  1  0  0  0  0
  3 36  1  0  0  0  0
  3 37  1  0  0  0  0
  3 38  1  0  0  0  0
  4 39  1  0  0  0  0
  4 40  1  0  0  0  0
  5 41  1  0  0  0  0
  5 42  1  0  0  0  0
  6 43  1  0  0  0  0
  6 44  1  0  0  0  0
 10 45  1  0  0  0  0
 12 46  1  0  0  0  0
 13 47  1  0  0  0  0
 14 48  1  0  0  0  0
 16 49  1  0  0  0  0
 16 50  1  0  0  0  0
 20 51  1  0  0  0  0
 20 52  1  0  0  0  0
 25 53  1  0  0  0  0
 28 54  1  0  0  0  0
 31 55  1  0  0  0  0
 32 56  1  0  0  0  0
M  END
> <s_user_Name>
CHEMBL3402742_23

> <IC50[nM]>
23

$$$$
CHEMBL3402742_23
  -OEChem-05192314313D
 Structure written by MMmdl.
 56 58  0     0  0  0  0  0  0999 V2000
   24.0986   34.7063   49.0484 C   0  0  0  0  0  0  0  0  0  0  0  0
   24.6432   33.2826   48.7886 N   0  0  0  0  0  0  0  0  0  0  0  0
   25.8543   33.3451   47.8288 C   0  0  0  0  0  0  0  0  0  0  0  0
   25.0189   32.4927   50.0695 C   0  0  0  0  0  0  0  0  0  0  0  0
   23.8157   32.1161   50.9601 C   0  0  0  0  0  0  0  0  0  0  0  0
   23.1879   33.2288   51.8121 C   0  0  0  0  0  0  0  0  0  0  0  0
   24.2114   33.9262   52.5318 O   0  0  0  0  0  0  0  0  0  0  0  0
   24.4007   33.9085   53.8846 C   0  0  0  0  0  0  0  0  0  0  0  0
   25.4467   34.3262   54.3754 O   0  0  0  0  0  0  0  0  0  0  0  0
   23.2923   33.4328   54.5845 N   0  0  0  0  0  0  0  0  0  0  0  0
   23.1560   33.1247   55.9447 C   0  0  0  0  0  0  0  0  0  0  0  0
   24.2128   33.1260   56.8689 C   0  0  0  0  0  0  0  0  0  0  0  0
   23.9896   32.7237   58.1852 C   0  0  0  0  0  0  0  0  0  0  0  0
   22.7192   32.3122   58.5862 C   0  0  0  0  0  0  0  0  0  0  0  0
   21.6582   32.3108   57.6778 C   0  0  0  0  0  0  0  0  0  0  0  0
   20.2579   31.8951   58.1203 C   0  0  0  0  0  0  0  0  0  0  0  0
   19.9237   30.4965   57.7849 N   0  0  0  0  0  0  0  0  0  0  0  0
   19.4310   30.2906   56.5316 N   0  0  0  0  0  0  0  0  0  0  0  0
   19.0502   29.1758   56.0241 C   0  0  0  0  0  0  0  0  0  0  0  0
   19.2185   27.8061   56.7105 C   0  0  0  0  0  0  0  0  0  0  0  0
   19.9746   27.7611   58.3757 S   0  0  0  0  0  0  0  0  0  0  0  0
   20.2175   29.5288   58.7582 C   0  0  0  0  0  0  0  0  0  0  0  0
   20.6471   29.7895   59.8854 O   0  0  0  0  0  0  0  0  0  0  0  0
   18.3886   29.1760   54.6905 C   0  0  0  0  0  0  0  0  0  0  0  0
   18.2431   27.9972   53.9358 C   0  0  0  0  0  0  0  0  0  0  0  0
   17.5693   28.0071   52.7145 C   0  0  0  0  0  0  0  0  0  0  0  0
   17.4239   26.8610   52.0143 F   0  0  0  0  0  0  0  0  0  0  0  0
   17.0348   29.1930   52.2188 C   0  0  0  0  0  0  0  0  0  0  0  0
   17.1737   30.3718   52.9443 C   0  0  0  0  0  0  0  0  0  0  0  0
   16.6469   31.5248   52.4740 F   0  0  0  0  0  0  0  0  0  0  0  0
   17.8471   30.3641   54.1637 C   0  0  0  0  0  0  0  0  0  0  0  0
   21.8822   32.7264   56.3625 C   0  0  0  0  0  0  0  0  0  0  0  0
   23.2382   34.6513   49.7315 H   0  0  0  0  0  0  0  0  0  0  0  0
   24.8880   35.3236   49.5021 H   0  0  0  0  0  0  0  0  0  0  0  0
   23.7824   35.1572   48.0962 H   0  0  0  0  0  0  0  0  0  0  0  0
   26.2342   32.3283   47.6503 H   0  0  0  0  0  0  0  0  0  0  0  0
   25.5423   33.7927   46.8737 H   0  0  0  0  0  0  0  0  0  0  0  0
   26.6479   33.9591   48.2796 H   0  0  0  0  0  0  0  0  0  0  0  0
   25.5262   31.5651   49.7657 H   0  0  0  0  0  0  0  0  0  0  0  0
   25.7082   33.1096   50.6647 H   0  0  0  0  0  0  0  0  0  0  0  0
   23.0283   31.7222   50.3007 H   0  0  0  0  0  0  0  0  0  0  0  0
   24.1492   31.3240   51.6466 H   0  0  0  0  0  0  0  0  0  0  0  0
   22.6569   33.9348   51.1567 H   0  0  0  0  0  0  0  0  0  0  0  0
   22.4775   32.7855   52.5254 H   0  0  0  0  0  0  0  0  0  0  0  0
   25.4098   34.2404   55.3208 H   0  0  0  0  0  0  0  0  0  0  0  0
   25.1993   33.4388   56.5601 H   0  0  0  0  0  0  0  0  0  0  0  0
   24.8028   32.7309   58.8959 H   0  0  0  0  0  0  0  0  0  0  0  0
   22.5547   31.9928   59.6047 H   0  0  0  0  0  0  0  0  0  0  0  0
   20.1870   32.0178   59.2111 H   0  0  0  0  0  0  0  0  0  0  0  0
   19.5276   32.5548   57.6289 H   0  0  0  0  0  0  0  0  0  0  0  0
   18.2174   27.3582   56.7946 H   0  0  0  0  0  0  0  0  0  0  0  0
   19.8436   27.1856   56.0515 H   0  0  0  0  0  0  0  0  0  0  0  0
   18.6588   27.0722   54.3073 H   0  0  0  0  0  0  0  0  0  0  0  0
   16.5134   29.1979   51.2730 H   0  0  0  0  0  0  0  0  0  0  0  0
   17.9558   31.2864   54.7151 H   0  0  0  0  0  0  0  0  0  0  0  0
   21.0618   32.7402   55.6603 H   0  0  0  0  0  0  0  0  0  0  0  0
  1  2  1  0  0  0  0
  2  3  1  0  0  0  0
  2  4  1  0  0  0  0
  4  5  1  0  0  0  0
  5  6  1  0  0  0  0
  6  7  1  0  0  0  0
  7  8  1  0  0  0  0
  8  9  1  0  0  0  0
  8 10  2  0  0  0  0
 10 11  1  0  0  0  0
 11 12  2  0  0  0  0
 11 32  1  0  0  0  0
 12 13  1  0  0  0  0
 13 14  2  0  0  0  0
 14 15  1  0  0  0  0
 15 16  1  0  0  0  0
 15 32  2  0  0  0  0
 16 17  1  0  0  0  0
 17 18  1  0  0  0  0
 17 22  1  0  0  0  0
 18 19  2  0  0  0  0
 19 20  1  0  0  0  0
 19 24  1  0  0  0  0
 20 21  1  0  0  0  0
 21 22  1  0  0  0  0
 22 23  2  0  0  0  0
 24 25  2  0  0  0  0
 24 31  1  0  0  0  0
 25 26  1  0  0  0  0
 26 27  1  0  0  0  0
 26 28  2  0  0  0  0
 28 29  1  0  0  0  0
 29 30  1  0  0  0  0
 29 31  2  0  0  0  0
  1 33  1  0  0  0  0
  1 34  1  0  0  0  0
  1 35  1  0  0  0  0
  3 36  1  0  0  0  0
  3 37  1  0  0  0  0
  3 38  1  0  0  0  0
  4 39  1  0  0  0  0
  4 40  1  0  0  0  0
  5 41  1  0  0  0  0
  5 42  1  0  0  0  0
  6 43  1  0  0  0  0
  6 44  1  0  0  0  0
  9 45  1  0  0  0  0
 12 46  1  0  0  0  0
 13 47  1  0  0  0  0
 14 48  1  0  0  0  0
 16 49  1  0  0  0  0
 16 50  1  0  0  0  0
 20 51  1  0  0  0  0
 20 52  1  0  0  0  0
 25 53  1  0  0  0  0
 28 54  1  0  0  0  0
 31 55  1  0  0  0  0
 32 56  1  0  0  0  0
M  END
> <s_user_Name>
CHEMBL3402742_23

> <IC50[nM]>
23

$$$$
CHEMBL3402742_23
  -OEChem-05192314313D
 Structure written by MMmdl.
 56 58  0     0  0  0  0  0  0999 V2000
   24.0986   34.7063   49.0484 C   0  0  0  0  0  0  0  0  0  0  0  0
   24.6432   33.2826   48.7886 N   0  0  0  0  0  0  0  0  0  0  0  0
   25.8543   33.3451   47.8288 C   0  0  0  0  0  0  0  0  0  0  0  0
   25.0189   32.4927   50.0695 C   0  0  0  0  0  0  0  0  0  0  0  0
   23.8157   32.1161   50.9601 C   0  0  0  0  0  0  0  0  0  0  0  0
   23.1879   33.2288   51.8121 C   0  0  0  0  0  0  0  0  0  0  0  0
   24.2114   33.9262   52.5318 O   0  0  0  0  0  0  0  0  0  0  0  0
   24.4007   33.9085   53.8846 C   0  0  0  0  0  0  0  0  0  0  0  0
   25.4467   34.3262   54.3754 O   0  0  0  0  0  0  0  0  0  0  0  0
   23.2923   33.4328   54.5845 N   0  0  0  0  0  0  0  0  0  0  0  0
   23.1560   33.1247   55.9447 C   0  0  0  0  0  0  0  0  0  0  0  0
   24.2128   33.1260   56.8689 C   0  0  0  0  0  0  0  0  0  0  0  0
   23.9896   32.7237   58.1852 C   0  0  0  0  0  0  0  0  0  0  0  0
   22.7192   32.3122   58.5862 C   0  0  0  0  0  0  0  0  0  0  0  0
   21.6582   32.3108   57.6778 C   0  0  0  0  0  0  0  0  0  0  0  0
   20.2579   31.8951   58.1203 C   0  0  0  0  0  0  0  0  0  0  0  0
   19.9237   30.4965   57.7849 N   0  0  0  0  0  0  0  0  0  0  0  0
   19.4310   30.2906   56.5316 N   0  0  0  0  0  0  0  0  0  0  0  0
   19.0502   29.1758   56.0241 C   0  0  0  0  0  0  0  0  0  0  0  0
   19.2185   27.8061   56.7105 C   0  0  0  0  0  0  0  0  0  0  0  0
   19.9746   27.7611   58.3757 S   0  0  0  0  0  0  0  0  0  0  0  0
   20.2175   29.5288   58.7582 C   0  0  0  0  0  0  0  0  0  0  0  0
   20.6471   29.7895   59.8854 O   0  0  0  0  0  0  0  0  0  0  0  0
   18.3886   29.1760   54.6905 C   0  0  0  0  0  0  0  0  0  0  0  0
   18.2431   27.9972   53.9358 C   0  0  0  0  0  0  0  0  0  0  0  0
   17.5693   28.0071   52.7145 C   0  0  0  0  0  0  0  0  0  0  0  0
   17.4239   26.8610   52.0143 F   0  0  0  0  0  0  0  0  0  0  0  0
   17.0348   29.1930   52.2188 C   0  0  0  0  0  0  0  0  0  0  0  0
   17.1737   30.3718   52.9443 C   0  0  0  0  0  0  0  0  0  0  0  0
   16.6469   31.5248   52.4740 F   0  0  0  0  0  0  0  0  0  0  0  0
   17.8471   30.3641   54.1637 C   0  0  0  0  0  0  0  0  0  0  0  0
   21.8822   32.7264   56.3625 C   0  0  0  0  0  0  0  0  0  0  0  0
   23.2382   34.6513   49.7315 H   0  0  0  0  0  0  0  0  0  0  0  0
   24.8880   35.3236   49.5021 H   0  0  0  0  0  0  0  0  0  0  0  0
   23.7824   35.1572   48.0962 H   0  0  0  0  0  0  0  0  0  0  0  0
   26.2342   32.3283   47.6503 H   0  0  0  0  0  0  0  0  0  0  0  0
   25.5423   33.7927   46.8737 H   0  0  0  0  0  0  0  0  0  0  0  0
   26.6479   33.9591   48.2796 H   0  0  0  0  0  0  0  0  0  0  0  0
   25.5262   31.5651   49.7657 H   0  0  0  0  0  0  0  0  0  0  0  0
   25.7082   33.1096   50.6647 H   0  0  0  0  0  0  0  0  0  0  0  0
   23.0283   31.7222   50.3007 H   0  0  0  0  0  0  0  0  0  0  0  0
   24.1492   31.3240   51.6466 H   0  0  0  0  0  0  0  0  0  0  0  0
   22.6569   33.9348   51.1567 H   0  0  0  0  0  0  0  0  0  0  0  0
   22.4775   32.7855   52.5254 H   0  0  0  0  0  0  0  0  0  0  0  0
   22.4708   33.2900   54.0324 H   0  0  0  0  0  0  0  0  0  0  0  0
   25.1993   33.4388   56.5601 H   0  0  0  0  0  0  0  0  0  0  0  0
   24.8028   32.7309   58.8959 H   0  0  0  0  0  0  0  0  0  0  0  0
   22.5547   31.9928   59.6047 H   0  0  0  0  0  0  0  0  0  0  0  0
   20.1870   32.0178   59.2111 H   0  0  0  0  0  0  0  0  0  0  0  0
   19.5276   32.5548   57.6289 H   0  0  0  0  0  0  0  0  0  0  0  0
   18.6321   30.8887   56.4677 H   0  0  0  0  0  0  0  0  0  0  0  0
   18.8988   26.8977   56.2217 H   0  0  0  0  0  0  0  0  0  0  0  0
   18.6588   27.0722   54.3073 H   0  0  0  0  0  0  0  0  0  0  0  0
   16.5134   29.1979   51.2730 H   0  0  0  0  0  0  0  0  0  0  0  0
   17.9558   31.2864   54.7151 H   0  0  0  0  0  0  0  0  0  0  0  0
   21.0618   32.7402   55.6603 H   0  0  0  0  0  0  0  0  0  0  0  0
  1  2  1  0  0  0  0
  2  3  1  0  0  0  0
  2  4  1  0  0  0  0
  4  5  1  0  0  0  0
  5  6  1  0  0  0  0
  6  7  1  0  0  0  0
  7  8  1  0  0  0  0
  8  9  2  0  0  0  0
  8 10  1  0  0  0  0
 10 11  1  0  0  0  0
 11 12  2  0  0  0  0
 11 32  1  0  0  0  0
 12 13  1  0  0  0  0
 13 14  2  0  0  0  0
 14 15  1  0  0  0  0
 15 16  1  0  0  0  0
 15 32  2  0  0  0  0
 16 17  1  0  0  0  0
 17 18  1  0  0  0  0
 17 22  1  0  0  0  0
 18 19  1  0  0  0  0
 19 20  2  0  0  0  0
 19 24  1  0  0  0  0
 20 21  1  0  0  0  0
 21 22  1  0  0  0  0
 22 23  2  0  0  0  0
 24 25  2  0  0  0  0
 24 31  1  0  0  0  0
 25 26  1  0  0  0  0
 26 27  1  0  0  0  0
 26 28  2  0  0  0  0
 28 29  1  0  0  0  0
 29 30  1  0  0  0  0
 29 31  2  0  0  0  0
  1 33  1  0  0  0  0
  1 34  1  0  0  0  0
  1 35  1  0  0  0  0
  3 36  1  0  0  0  0
  3 37  1  0  0  0  0
  3 38  1  0  0  0  0
  4 39  1  0  0  0  0
  4 40  1  0  0  0  0
  5 41  1  0  0  0  0
  5 42  1  0  0  0  0
  6 43  1  0  0  0  0
  6 44  1  0  0  0  0
 10 45  1  0  0  0  0
 12 46  1  0  0  0  0
 13 47  1  0  0  0  0
 14 48  1  0  0  0  0
 16 49  1  0  0  0  0
 16 50  1  0  0  0  0
 18 51  1  0  0  0  0
 20 52  1  0  0  0  0
 25 53  1  0  0  0  0
 28 54  1  0  0  0  0
 31 55  1  0  0  0  0
 32 56  1  0  0  0  0
M  END
> <s_user_Name>
CHEMBL3402742_23

> <IC50[nM]>
23

$$$$
CHEMBL3402742_23
  -OEChem-05192314313D
 Structure written by MMmdl.
 56 58  0     0  0  0  0  0  0999 V2000
   24.0986   34.7063   49.0484 C   0  0  0  0  0  0  0  0  0  0  0  0
   24.6432   33.2826   48.7886 N   0  0  0  0  0  0  0  0  0  0  0  0
   25.8543   33.3451   47.8288 C   0  0  0  0  0  0  0  0  0  0  0  0
   25.0189   32.4927   50.0695 C   0  0  0  0  0  0  0  0  0  0  0  0
   23.8157   32.1161   50.9601 C   0  0  0  0  0  0  0  0  0  0  0  0
   23.1879   33.2288   51.8121 C   0  0  0  0  0  0  0  0  0  0  0  0
   24.2114   33.9262   52.5318 O   0  0  0  0  0  0  0  0  0  0  0  0
   24.4007   33.9085   53.8846 C   0  0  0  0  0  0  0  0  0  0  0  0
   25.4467   34.3262   54.3754 O   0  0  0  0  0  0  0  0  0  0  0  0
   23.2923   33.4328   54.5845 N   0  0  0  0  0  0  0  0  0  0  0  0
   23.1560   33.1247   55.9447 C   0  0  0  0  0  0  0  0  0  0  0  0
   24.2128   33.1260   56.8689 C   0  0  0  0  0  0  0  0  0  0  0  0
   23.9896   32.7237   58.1852 C   0  0  0  0  0  0  0  0  0  0  0  0
   22.7192   32.3122   58.5862 C   0  0  0  0  0  0  0  0  0  0  0  0
   21.6582   32.3108   57.6778 C   0  0  0  0  0  0  0  0  0  0  0  0
   20.2579   31.8951   58.1203 C   0  0  0  0  0  0  0  0  0  0  0  0
   19.9237   30.4965   57.7849 N   0  0  0  0  0  0  0  0  0  0  0  0
   19.4310   30.2906   56.5316 N   0  0  0  0  0  0  0  0  0  0  0  0
   19.0502   29.1758   56.0241 C   0  0  0  0  0  0  0  0  0  0  0  0
   19.2185   27.8061   56.7105 C   0  0  0  0  0  0  0  0  0  0  0  0
   19.9746   27.7611   58.3757 S   0  0  0  0  0  0  0  0  0  0  0  0
   20.2175   29.5288   58.7582 C   0  0  0  0  0  0  0  0  0  0  0  0
   20.6471   29.7895   59.8854 O   0  0  0  0  0  0  0  0  0  0  0  0
   18.3886   29.1760   54.6905 C   0  0  0  0  0  0  0  0  0  0  0  0
   18.2431   27.9972   53.9358 C   0  0  0  0  0  0  0  0  0  0  0  0
   17.5693   28.0071   52.7145 C   0  0  0  0  0  0  0  0  0  0  0  0
   17.4239   26.8610   52.0143 F   0  0  0  0  0  0  0  0  0  0  0  0
   17.0348   29.1930   52.2188 C   0  0  0  0  0  0  0  0  0  0  0  0
   17.1737   30.3718   52.9443 C   0  0  0  0  0  0  0  0  0  0  0  0
   16.6469   31.5248   52.4740 F   0  0  0  0  0  0  0  0  0  0  0  0
   17.8471   30.3641   54.1637 C   0  0  0  0  0  0  0  0  0  0  0  0
   21.8822   32.7264   56.3625 C   0  0  0  0  0  0  0  0  0  0  0  0
   23.2382   34.6513   49.7315 H   0  0  0  0  0  0  0  0  0  0  0  0
   24.8880   35.3236   49.5021 H   0  0  0  0  0  0  0  0  0  0  0  0
   23.7824   35.1572   48.0962 H   0  0  0  0  0  0  0  0  0  0  0  0
   26.2342   32.3283   47.6503 H   0  0  0  0  0  0  0  0  0  0  0  0
   25.5423   33.7927   46.8737 H   0  0  0  0  0  0  0  0  0  0  0  0
   26.6479   33.9591   48.2796 H   0  0  0  0  0  0  0  0  0  0  0  0
   25.5262   31.5651   49.7657 H   0  0  0  0  0  0  0  0  0  0  0  0
   25.7082   33.1096   50.6647 H   0  0  0  0  0  0  0  0  0  0  0  0
   23.0283   31.7222   50.3007 H   0  0  0  0  0  0  0  0  0  0  0  0
   24.1492   31.3240   51.6466 H   0  0  0  0  0  0  0  0  0  0  0  0
   22.6569   33.9348   51.1567 H   0  0  0  0  0  0  0  0  0  0  0  0
   22.4775   32.7855   52.5254 H   0  0  0  0  0  0  0  0  0  0  0  0
   25.4098   34.2404   55.3208 H   0  0  0  0  0  0  0  0  0  0  0  0
   25.1993   33.4388   56.5601 H   0  0  0  0  0  0  0  0  0  0  0  0
   24.8028   32.7309   58.8959 H   0  0  0  0  0  0  0  0  0  0  0  0
   22.5547   31.9928   59.6047 H   0  0  0  0  0  0  0  0  0  0  0  0
   20.1870   32.0178   59.2111 H   0  0  0  0  0  0  0  0  0  0  0  0
   19.5276   32.5548   57.6289 H   0  0  0  0  0  0  0  0  0  0  0  0
   18.6321   30.8887   56.4677 H   0  0  0  0  0  0  0  0  0  0  0  0
   18.8988   26.8977   56.2217 H   0  0  0  0  0  0  0  0  0  0  0  0
   18.6588   27.0722   54.3073 H   0  0  0  0  0  0  0  0  0  0  0  0
   16.5134   29.1979   51.2730 H   0  0  0  0  0  0  0  0  0  0  0  0
   17.9558   31.2864   54.7151 H   0  0  0  0  0  0  0  0  0  0  0  0
   21.0618   32.7402   55.6603 H   0  0  0  0  0  0  0  0  0  0  0  0
  1  2  1  0  0  0  0
  2  3  1  0  0  0  0
  2  4  1  0  0  0  0
  4  5  1  0  0  0  0
  5  6  1  0  0  0  0
  6  7  1  0  0  0  0
  7  8  1  0  0  0  0
  8  9  1  0  0  0  0
  8 10  2  0  0  0  0
 10 11  1  0  0  0  0
 11 12  2  0  0  0  0
 11 32  1  0  0  0  0
 12 13  1  0  0  0  0
 13 14  2  0  0  0  0
 14 15  1  0  0  0  0
 15 16  1  0  0  0  0
 15 32  2  0  0  0  0
 16 17  1  0  0  0  0
 17 18  1  0  0  0  0
 17 22  1  0  0  0  0
 18 19  1  0  0  0  0
 19 20  2  0  0  0  0
 19 24  1  0  0  0  0
 20 21  1  0  0  0  0
 21 22  1  0  0  0  0
 22 23  2  0  0  0  0
 24 25  2  0  0  0  0
 24 31  1  0  0  0  0
 25 26  1  0  0  0  0
 26 27  1  0  0  0  0
 26 28  2  0  0  0  0
 28 29  1  0  0  0  0
 29 30  1  0  0  0  0
 29 31  2  0  0  0  0
  1 33  1  0  0  0  0
  1 34  1  0  0  0  0
  1 35  1  0  0  0  0
  3 36  1  0  0  0  0
  3 37  1  0  0  0  0
  3 38  1  0  0  0  0
  4 39  1  0  0  0  0
  4 40  1  0  0  0  0
  5 41  1  0  0  0  0
  5 42  1  0  0  0  0
  6 43  1  0  0  0  0
  6 44  1  0  0  0  0
  9 45  1  0  0  0  0
 12 46  1  0  0  0  0
 13 47  1  0  0  0  0
 14 48  1  0  0  0  0
 16 49  1  0  0  0  0
 16 50  1  0  0  0  0
 18 51  1  0  0  0  0
 20 52  1  0  0  0  0
 25 53  1  0  0  0  0
 28 54  1  0  0  0  0
 31 55  1  0  0  0  0
 32 56  1  0  0  0  0
M  END
> <s_user_Name>
CHEMBL3402742_23

> <IC50[nM]>
23

$$$$
CHEMBL3402742_23
  -OEChem-05192314313D
 Structure written by MMmdl.
 56 58  0     0  0  0  0  0  0999 V2000
   24.0986   34.7063   49.0484 C   0  0  0  0  0  0  0  0  0  0  0  0
   24.6432   33.2826   48.7886 N   0  0  0  0  0  0  0  0  0  0  0  0
   25.8543   33.3451   47.8288 C   0  0  0  0  0  0  0  0  0  0  0  0
   25.0189   32.4927   50.0695 C   0  0  0  0  0  0  0  0  0  0  0  0
   23.8157   32.1161   50.9601 C   0  0  0  0  0  0  0  0  0  0  0  0
   23.1879   33.2288   51.8121 C   0  0  0  0  0  0  0  0  0  0  0  0
   24.2114   33.9262   52.5318 O   0  0  0  0  0  0  0  0  0  0  0  0
   24.4007   33.9085   53.8846 C   0  0  0  0  0  0  0  0  0  0  0  0
   25.4467   34.3262   54.3754 O   0  0  0  0  0  0  0  0  0  0  0  0
   23.2923   33.4328   54.5845 N   0  0  0  0  0  0  0  0  0  0  0  0
   23.1560   33.1247   55.9447 C   0  0  0  0  0  0  0  0  0  0  0  0
   24.2128   33.1260   56.8689 C   0  0  0  0  0  0  0  0  0  0  0  0
   23.9896   32.7237   58.1852 C   0  0  0  0  0  0  0  0  0  0  0  0
   22.7192   32.3122   58.5862 C   0  0  0  0  0  0  0  0  0  0  0  0
   21.6582   32.3108   57.6778 C   0  0  0  0  0  0  0  0  0  0  0  0
   20.2579   31.8951   58.1203 C   0  0  0  0  0  0  0  0  0  0  0  0
   19.9237   30.4965   57.7849 N   0  0  0  0  0  0  0  0  0  0  0  0
   19.4310   30.2906   56.5316 N   0  0  0  0  0  0  0  0  0  0  0  0
   19.0502   29.1758   56.0241 C   0  0  0  0  0  0  0  0  0  0  0  0
   19.2185   27.8061   56.7105 C   0  0  0  0  0  0  0  0  0  0  0  0
   19.9746   27.7611   58.3757 S   0  0  0  0  0  0  0  0  0  0  0  0
   20.2175   29.5288   58.7582 C   0  0  0  0  0  0  0  0  0  0  0  0
   20.6471   29.7895   59.8854 O   0  0  0  0  0  0  0  0  0  0  0  0
   18.3886   29.1760   54.6905 C   0  0  0  0  0  0  0  0  0  0  0  0
   18.2431   27.9972   53.9358 C   0  0  0  0  0  0  0  0  0  0  0  0
   17.5693   28.0071   52.7145 C   0  0  0  0  0  0  0  0  0  0  0  0
   17.4239   26.8610   52.0143 F   0  0  0  0  0  0  0  0  0  0  0  0
   17.0348   29.1930   52.2188 C   0  0  0  0  0  0  0  0  0  0  0  0
   17.1737   30.3718   52.9443 C   0  0  0  0  0  0  0  0  0  0  0  0
   16.6469   31.5248   52.4740 F   0  0  0  0  0  0  0  0  0  0  0  0
   17.8471   30.3641   54.1637 C   0  0  0  0  0  0  0  0  0  0  0  0
   21.8822   32.7264   56.3625 C   0  0  0  0  0  0  0  0  0  0  0  0
   23.2382   34.6513   49.7315 H   0  0  0  0  0  0  0  0  0  0  0  0
   24.8880   35.3236   49.5021 H   0  0  0  0  0  0  0  0  0  0  0  0
   23.7824   35.1572   48.0962 H   0  0  0  0  0  0  0  0  0  0  0  0
   26.2342   32.3283   47.6503 H   0  0  0  0  0  0  0  0  0  0  0  0
   25.5423   33.7927   46.8737 H   0  0  0  0  0  0  0  0  0  0  0  0
   26.6479   33.9591   48.2796 H   0  0  0  0  0  0  0  0  0  0  0  0
   25.5262   31.5651   49.7657 H   0  0  0  0  0  0  0  0  0  0  0  0
   25.7082   33.1096   50.6647 H   0  0  0  0  0  0  0  0  0  0  0  0
   23.0283   31.7222   50.3007 H   0  0  0  0  0  0  0  0  0  0  0  0
   24.1492   31.3240   51.6466 H   0  0  0  0  0  0  0  0  0  0  0  0
   22.6569   33.9348   51.1567 H   0  0  0  0  0  0  0  0  0  0  0  0
   22.4775   32.7855   52.5254 H   0  0  0  0  0  0  0  0  0  0  0  0
   24.9909   32.4633   56.4622 H   0  0  0  0  0  0  0  0  0  0  0  0
   24.5949   34.1566   56.9125 H   0  0  0  0  0  0  0  0  0  0  0  0
   24.8028   32.7309   58.8959 H   0  0  0  0  0  0  0  0  0  0  0  0
   22.5547   31.9928   59.6047 H   0  0  0  0  0  0  0  0  0  0  0  0
   20.1870   32.0178   59.2111 H   0  0  0  0  0  0  0  0  0  0  0  0
   19.5276   32.5548   57.6289 H   0  0  0  0  0  0  0  0  0  0  0  0
   18.2174   27.3582   56.7946 H   0  0  0  0  0  0  0  0  0  0  0  0
   19.8436   27.1856   56.0515 H   0  0  0  0  0  0  0  0  0  0  0  0
   18.6588   27.0722   54.3073 H   0  0  0  0  0  0  0  0  0  0  0  0
   16.5134   29.1979   51.2730 H   0  0  0  0  0  0  0  0  0  0  0  0
   17.9558   31.2864   54.7151 H   0  0  0  0  0  0  0  0  0  0  0  0
   21.0618   32.7402   55.6603 H   0  0  0  0  0  0  0  0  0  0  0  0
  1  2  1  0  0  0  0
  2  3  1  0  0  0  0
  2  4  1  0  0  0  0
  4  5  1  0  0  0  0
  5  6  1  0  0  0  0
  6  7  1  0  0  0  0
  7  8  1  0  0  0  0
  8  9  2  0  0  0  0
  8 10  1  0  0  0  0
 10 11  2  0  0  0  0
 11 12  1  0  0  0  0
 11 32  1  0  0  0  0
 12 13  1  0  0  0  0
 13 14  2  0  0  0  0
 14 15  1  0  0  0  0
 15 16  1  0  0  0  0
 15 32  2  0  0  0  0
 16 17  1  0  0  0  0
 17 18  1  0  0  0  0
 17 22  1  0  0  0  0
 18 19  2  0  0  0  0
 19 20  1  0  0  0  0
 19 24  1  0  0  0  0
 20 21  1  0  0  0  0
 21 22  1  0  0  0  0
 22 23  2  0  0  0  0
 24 25  2  0  0  0  0
 24 31  1  0  0  0  0
 25 26  1  0  0  0  0
 26 27  1  0  0  0  0
 26 28  2  0  0  0  0
 28 29  1  0  0  0  0
 29 30  1  0  0  0  0
 29 31  2  0  0  0  0
  1 33  1  0  0  0  0
  1 34  1  0  0  0  0
  1 35  1  0  0  0  0
  3 36  1  0  0  0  0
  3 37  1  0  0  0  0
  3 38  1  0  0  0  0
  4 39  1  0  0  0  0
  4 40  1  0  0  0  0
  5 41  1  0  0  0  0
  5 42  1  0  0  0  0
  6 43  1  0  0  0  0
  6 44  1  0  0  0  0
 12 45  1  0  0  0  0
 12 46  1  0  0  0  0
 13 47  1  0  0  0  0
 14 48  1  0  0  0  0
 16 49  1  0  0  0  0
 16 50  1  0  0  0  0
 20 51  1  0  0  0  0
 20 52  1  0  0  0  0
 25 53  1  0  0  0  0
 28 54  1  0  0  0  0
 31 55  1  0  0  0  0
 32 56  1  0  0  0  0
M  END
> <s_user_Name>
CHEMBL3402742_23

> <IC50[nM]>
23

$$$$
CHEMBL3402742_23
  -OEChem-05192314313D
 Structure written by MMmdl.
 56 58  0     0  0  0  0  0  0999 V2000
   24.0986   34.7063   49.0484 C   0  0  0  0  0  0  0  0  0  0  0  0
   24.6432   33.2826   48.7886 N   0  0  0  0  0  0  0  0  0  0  0  0
   25.8543   33.3451   47.8288 C   0  0  0  0  0  0  0  0  0  0  0  0
   25.0189   32.4927   50.0695 C   0  0  0  0  0  0  0  0  0  0  0  0
   23.8157   32.1161   50.9601 C   0  0  0  0  0  0  0  0  0  0  0  0
   23.1879   33.2288   51.8121 C   0  0  0  0  0  0  0  0  0  0  0  0
   24.2114   33.9262   52.5318 O   0  0  0  0  0  0  0  0  0  0  0  0
   24.4007   33.9085   53.8846 C   0  0  0  0  0  0  0  0  0  0  0  0
   25.4467   34.3262   54.3754 O   0  0  0  0  0  0  0  0  0  0  0  0
   23.2923   33.4328   54.5845 N   0  0  0  0  0  0  0  0  0  0  0  0
   23.1560   33.1247   55.9447 C   0  0  0  0  0  0  0  0  0  0  0  0
   24.2128   33.1260   56.8689 C   0  0  0  0  0  0  0  0  0  0  0  0
   23.9896   32.7237   58.1852 C   0  0  0  0  0  0  0  0  0  0  0  0
   22.7192   32.3122   58.5862 C   0  0  0  0  0  0  0  0  0  0  0  0
   21.6582   32.3108   57.6778 C   0  0  0  0  0  0  0  0  0  0  0  0
   20.2579   31.8951   58.1203 C   0  0  0  0  0  0  0  0  0  0  0  0
   19.9237   30.4965   57.7849 N   0  0  0  0  0  0  0  0  0  0  0  0
   19.4310   30.2906   56.5316 N   0  0  0  0  0  0  0  0  0  0  0  0
   19.0502   29.1758   56.0241 C   0  0  0  0  0  0  0  0  0  0  0  0
   19.2185   27.8061   56.7105 C   0  0  0  0  0  0  0  0  0  0  0  0
   19.9746   27.7611   58.3757 S   0  0  0  0  0  0  0  0  0  0  0  0
   20.2175   29.5288   58.7582 C   0  0  0  0  0  0  0  0  0  0  0  0
   20.6471   29.7895   59.8854 O   0  0  0  0  0  0  0  0  0  0  0  0
   18.3886   29.1760   54.6905 C   0  0  0  0  0  0  0  0  0  0  0  0
   18.2431   27.9972   53.9358 C   0  0  0  0  0  0  0  0  0  0  0  0
   17.5693   28.0071   52.7145 C   0  0  0  0  0  0  0  0  0  0  0  0
   17.4239   26.8610   52.0143 F   0  0  0  0  0  0  0  0  0  0  0  0
   17.0348   29.1930   52.2188 C   0  0  0  0  0  0  0  0  0  0  0  0
   17.1737   30.3718   52.9443 C   0  0  0  0  0  0  0  0  0  0  0  0
   16.6469   31.5248   52.4740 F   0  0  0  0  0  0  0  0  0  0  0  0
   17.8471   30.3641   54.1637 C   0  0  0  0  0  0  0  0  0  0  0  0
   21.8822   32.7264   56.3625 C   0  0  0  0  0  0  0  0  0  0  0  0
   23.2382   34.6513   49.7315 H   0  0  0  0  0  0  0  0  0  0  0  0
   24.8880   35.3236   49.5021 H   0  0  0  0  0  0  0  0  0  0  0  0
   23.7824   35.1572   48.0962 H   0  0  0  0  0  0  0  0  0  0  0  0
   26.2342   32.3283   47.6503 H   0  0  0  0  0  0  0  0  0  0  0  0
   25.5423   33.7927   46.8737 H   0  0  0  0  0  0  0  0  0  0  0  0
   26.6479   33.9591   48.2796 H   0  0  0  0  0  0  0  0  0  0  0  0
   25.5262   31.5651   49.7657 H   0  0  0  0  0  0  0  0  0  0  0  0
   25.7082   33.1096   50.6647 H   0  0  0  0  0  0  0  0  0  0  0  0
   23.0283   31.7222   50.3007 H   0  0  0  0  0  0  0  0  0  0  0  0
   24.1492   31.3240   51.6466 H   0  0  0  0  0  0  0  0  0  0  0  0
   22.6569   33.9348   51.1567 H   0  0  0  0  0  0  0  0  0  0  0  0
   22.4775   32.7855   52.5254 H   0  0  0  0  0  0  0  0  0  0  0  0
   25.1993   33.4388   56.5601 H   0  0  0  0  0  0  0  0  0  0  0  0
   24.8028   32.7309   58.8959 H   0  0  0  0  0  0  0  0  0  0  0  0
   22.8225   31.2802   58.9527 H   0  0  0  0  0  0  0  0  0  0  0  0
   22.4224   32.9686   59.4175 H   0  0  0  0  0  0  0  0  0  0  0  0
   20.1870   32.0178   59.2111 H   0  0  0  0  0  0  0  0  0  0  0  0
   19.5276   32.5548   57.6289 H   0  0  0  0  0  0  0  0  0  0  0  0
   18.2174   27.3582   56.7946 H   0  0  0  0  0  0  0  0  0  0  0  0
   19.8436   27.1856   56.0515 H   0  0  0  0  0  0  0  0  0  0  0  0
   18.6588   27.0722   54.3073 H   0  0  0  0  0  0  0  0  0  0  0  0
   16.5134   29.1979   51.2730 H   0  0  0  0  0  0  0  0  0  0  0  0
   17.9558   31.2864   54.7151 H   0  0  0  0  0  0  0  0  0  0  0  0
   21.0618   32.7402   55.6603 H   0  0  0  0  0  0  0  0  0  0  0  0
  1  2  1  0  0  0  0
  2  3  1  0  0  0  0
  2  4  1  0  0  0  0
  4  5  1  0  0  0  0
  5  6  1  0  0  0  0
  6  7  1  0  0  0  0
  7  8  1  0  0  0  0
  8  9  2  0  0  0  0
  8 10  1  0  0  0  0
 10 11  2  0  0  0  0
 11 12  1  0  0  0  0
 11 32  1  0  0  0  0
 12 13  2  0  0  0  0
 13 14  1  0  0  0  0
 14 15  1  0  0  0  0
 15 16  1  0  0  0  0
 15 32  2  0  0  0  0
 16 17  1  0  0  0  0
 17 18  1  0  0  0  0
 17 22  1  0  0  0  0
 18 19  2  0  0  0  0
 19 20  1  0  0  0  0
 19 24  1  0  0  0  0
 20 21  1  0  0  0  0
 21 22  1  0  0  0  0
 22 23  2  0  0  0  0
 24 25  2  0  0  0  0
 24 31  1  0  0  0  0
 25 26  1  0  0  0  0
 26 27  1  0  0  0  0
 26 28  2  0  0  0  0
 28 29  1  0  0  0  0
 29 30  1  0  0  0  0
 29 31  2  0  0  0  0
  1 33  1  0  0  0  0
  1 34  1  0  0  0  0
  1 35  1  0  0  0  0
  3 36  1  0  0  0  0
  3 37  1  0  0  0  0
  3 38  1  0  0  0  0
  4 39  1  0  0  0  0
  4 40  1  0  0  0  0
  5 41  1  0  0  0  0
  5 42  1  0  0  0  0
  6 43  1  0  0  0  0
  6 44  1  0  0  0  0
 12 45  1  0  0  0  0
 13 46  1  0  0  0  0
 14 47  1  0  0  0  0
 14 48  1  0  0  0  0
 16 49  1  0  0  0  0
 16 50  1  0  0  0  0
 20 51  1  0  0  0  0
 20 52  1  0  0  0  0
 25 53  1  0  0  0  0
 28 54  1  0  0  0  0
 31 55  1  0  0  0  0
 32 56  1  0  0  0  0
M  END
> <s_user_Name>
CHEMBL3402742_23

> <IC50[nM]>
23

$$$$
CHEMBL3402742_23
  -OEChem-05192314313D
 Structure written by MMmdl.
 56 58  0     0  0  0  0  0  0999 V2000
   24.0986   34.7063   49.0484 C   0  0  0  0  0  0  0  0  0  0  0  0
   24.6432   33.2826   48.7886 N   0  0  0  0  0  0  0  0  0  0  0  0
   25.8543   33.3451   47.8288 C   0  0  0  0  0  0  0  0  0  0  0  0
   25.0189   32.4927   50.0695 C   0  0  0  0  0  0  0  0  0  0  0  0
   23.8157   32.1161   50.9601 C   0  0  0  0  0  0  0  0  0  0  0  0
   23.1879   33.2288   51.8121 C   0  0  0  0  0  0  0  0  0  0  0  0
   24.2114   33.9262   52.5318 O   0  0  0  0  0  0  0  0  0  0  0  0
   24.4007   33.9085   53.8846 C   0  0  0  0  0  0  0  0  0  0  0  0
   25.4467   34.3262   54.3754 O   0  0  0  0  0  0  0  0  0  0  0  0
   23.2923   33.4328   54.5845 N   0  0  0  0  0  0  0  0  0  0  0  0
   23.1560   33.1247   55.9447 C   0  0  0  0  0  0  0  0  0  0  0  0
   24.2128   33.1260   56.8689 C   0  0  0  0  0  0  0  0  0  0  0  0
   23.9896   32.7237   58.1852 C   0  0  0  0  0  0  0  0  0  0  0  0
   22.7192   32.3122   58.5862 C   0  0  0  0  0  0  0  0  0  0  0  0
   21.6582   32.3108   57.6778 C   0  0  0  0  0  0  0  0  0  0  0  0
   20.2579   31.8951   58.1203 C   0  0  0  0  0  0  0  0  0  0  0  0
   19.9237   30.4965   57.7849 N   0  0  0  0  0  0  0  0  0  0  0  0
   19.4310   30.2906   56.5316 N   0  0  0  0  0  0  0  0  0  0  0  0
   19.0502   29.1758   56.0241 C   0  0  0  0  0  0  0  0  0  0  0  0
   19.2185   27.8061   56.7105 C   0  0  0  0  0  0  0  0  0  0  0  0
   19.9746   27.7611   58.3757 S   0  0  0  0  0  0  0  0  0  0  0  0
   20.2175   29.5288   58.7582 C   0  0  0  0  0  0  0  0  0  0  0  0
   20.6471   29.7895   59.8854 O   0  0  0  0  0  0  0  0  0  0  0  0
   18.3886   29.1760   54.6905 C   0  0  0  0  0  0  0  0  0  0  0  0
   18.2431   27.9972   53.9358 C   0  0  0  0  0  0  0  0  0  0  0  0
   17.5693   28.0071   52.7145 C   0  0  0  0  0  0  0  0  0  0  0  0
   17.4239   26.8610   52.0143 F   0  0  0  0  0  0  0  0  0  0  0  0
   17.0348   29.1930   52.2188 C   0  0  0  0  0  0  0  0  0  0  0  0
   17.1737   30.3718   52.9443 C   0  0  0  0  0  0  0  0  0  0  0  0
   16.6469   31.5248   52.4740 F   0  0  0  0  0  0  0  0  0  0  0  0
   17.8471   30.3641   54.1637 C   0  0  0  0  0  0  0  0  0  0  0  0
   21.8822   32.7264   56.3625 C   0  0  0  0  0  0  0  0  0  0  0  0
   23.2382   34.6513   49.7315 H   0  0  0  0  0  0  0  0  0  0  0  0
   24.8880   35.3236   49.5021 H   0  0  0  0  0  0  0  0  0  0  0  0
   23.7824   35.1572   48.0962 H   0  0  0  0  0  0  0  0  0  0  0  0
   26.2342   32.3283   47.6503 H   0  0  0  0  0  0  0  0  0  0  0  0
   25.5423   33.7927   46.8737 H   0  0  0  0  0  0  0  0  0  0  0  0
   26.6479   33.9591   48.2796 H   0  0  0  0  0  0  0  0  0  0  0  0
   25.5262   31.5651   49.7657 H   0  0  0  0  0  0  0  0  0  0  0  0
   25.7082   33.1096   50.6647 H   0  0  0  0  0  0  0  0  0  0  0  0
   23.0283   31.7222   50.3007 H   0  0  0  0  0  0  0  0  0  0  0  0
   24.1492   31.3240   51.6466 H   0  0  0  0  0  0  0  0  0  0  0  0
   22.6569   33.9348   51.1567 H   0  0  0  0  0  0  0  0  0  0  0  0
   22.4775   32.7855   52.5254 H   0  0  0  0  0  0  0  0  0  0  0  0
   25.1993   33.4388   56.5601 H   0  0  0  0  0  0  0  0  0  0  0  0
   24.8028   32.7309   58.8959 H   0  0  0  0  0  0  0  0  0  0  0  0
   22.5547   31.9928   59.6047 H   0  0  0  0  0  0  0  0  0  0  0  0
   20.1870   32.0178   59.2111 H   0  0  0  0  0  0  0  0  0  0  0  0
   19.5276   32.5548   57.6289 H   0  0  0  0  0  0  0  0  0  0  0  0
   18.2174   27.3582   56.7946 H   0  0  0  0  0  0  0  0  0  0  0  0
   19.8436   27.1856   56.0515 H   0  0  0  0  0  0  0  0  0  0  0  0
   18.6588   27.0722   54.3073 H   0  0  0  0  0  0  0  0  0  0  0  0
   16.5134   29.1979   51.2730 H   0  0  0  0  0  0  0  0  0  0  0  0
   17.9558   31.2864   54.7151 H   0  0  0  0  0  0  0  0  0  0  0  0
   21.2124   33.5807   56.1850 H   0  0  0  0  0  0  0  0  0  0  0  0
   21.5871   31.8883   55.7141 H   0  0  0  0  0  0  0  0  0  0  0  0
  1  2  1  0  0  0  0
  2  3  1  0  0  0  0
  2  4  1  0  0  0  0
  4  5  1  0  0  0  0
  5  6  1  0  0  0  0
  6  7  1  0  0  0  0
  7  8  1  0  0  0  0
  8  9  2  0  0  0  0
  8 10  1  0  0  0  0
 10 11  2  0  0  0  0
 11 12  1  0  0  0  0
 11 32  1  0  0  0  0
 12 13  2  0  0  0  0
 13 14  1  0  0  0  0
 14 15  2  0  0  0  0
 15 16  1  0  0  0  0
 15 32  1  0  0  0  0
 16 17  1  0  0  0  0
 17 18  1  0  0  0  0
 17 22  1  0  0  0  0
 18 19  2  0  0  0  0
 19 20  1  0  0  0  0
 19 24  1  0  0  0  0
 20 21  1  0  0  0  0
 21 22  1  0  0  0  0
 22 23  2  0  0  0  0
 24 25  2  0  0  0  0
 24 31  1  0  0  0  0
 25 26  1  0  0  0  0
 26 27  1  0  0  0  0
 26 28  2  0  0  0  0
 28 29  1  0  0  0  0
 29 30  1  0  0  0  0
 29 31  2  0  0  0  0
  1 33  1  0  0  0  0
  1 34  1  0  0  0  0
  1 35  1  0  0  0  0
  3 36  1  0  0  0  0
  3 37  1  0  0  0  0
  3 38  1  0  0  0  0
  4 39  1  0  0  0  0
  4 40  1  0  0  0  0
  5 41  1  0  0  0  0
  5 42  1  0  0  0  0
  6 43  1  0  0  0  0
  6 44  1  0  0  0  0
 12 45  1  0  0  0  0
 13 46  1  0  0  0  0
 14 47  1  0  0  0  0
 16 48  1  0  0  0  0
 16 49  1  0  0  0  0
 20 50  1  0  0  0  0
 20 51  1  0  0  0  0
 25 52  1  0  0  0  0
 28 53  1  0  0  0  0
 31 54  1  0  0  0  0
 32 55  1  0  0  0  0
 32 56  1  0  0  0  0
M  END
> <s_user_Name>
CHEMBL3402742_23

> <IC50[nM]>
23

$$$$
CHEMBL3402742_23
  -OEChem-05192314313D
 Structure written by MMmdl.
 56 58  0     0  0  0  0  0  0999 V2000
   24.0986   34.7063   49.0484 C   0  0  0  0  0  0  0  0  0  0  0  0
   24.6432   33.2826   48.7886 N   0  0  0  0  0  0  0  0  0  0  0  0
   25.8543   33.3451   47.8288 C   0  0  0  0  0  0  0  0  0  0  0  0
   25.0189   32.4927   50.0695 C   0  0  0  0  0  0  0  0  0  0  0  0
   23.8157   32.1161   50.9601 C   0  0  0  0  0  0  0  0  0  0  0  0
   23.1879   33.2288   51.8121 C   0  0  0  0  0  0  0  0  0  0  0  0
   24.2114   33.9262   52.5318 O   0  0  0  0  0  0  0  0  0  0  0  0
   24.4007   33.9085   53.8846 C   0  0  0  0  0  0  0  0  0  0  0  0
   25.4467   34.3262   54.3754 O   0  0  0  0  0  0  0  0  0  0  0  0
   23.2923   33.4328   54.5845 N   0  0  0  0  0  0  0  0  0  0  0  0
   23.1560   33.1247   55.9447 C   0  0  0  0  0  0  0  0  0  0  0  0
   24.2128   33.1260   56.8689 C   0  0  0  0  0  0  0  0  0  0  0  0
   23.9896   32.7237   58.1852 C   0  0  0  0  0  0  0  0  0  0  0  0
   22.7192   32.3122   58.5862 C   0  0  0  0  0  0  0  0  0  0  0  0
   21.6582   32.3108   57.6778 C   0  0  0  0  0  0  0  0  0  0  0  0
   20.2579   31.8951   58.1203 C   0  0  0  0  0  0  0  0  0  0  0  0
   19.9237   30.4965   57.7849 N   0  0  0  0  0  0  0  0  0  0  0  0
   19.4310   30.2906   56.5316 N   0  0  0  0  0  0  0  0  0  0  0  0
   19.0502   29.1758   56.0241 C   0  0  0  0  0  0  0  0  0  0  0  0
   19.2185   27.8061   56.7105 C   0  0  0  0  0  0  0  0  0  0  0  0
   19.9746   27.7611   58.3757 S   0  0  0  0  0  0  0  0  0  0  0  0
   20.2175   29.5288   58.7582 C   0  0  0  0  0  0  0  0  0  0  0  0
   20.6471   29.7895   59.8854 O   0  0  0  0  0  0  0  0  0  0  0  0
   18.3886   29.1760   54.6905 C   0  0  0  0  0  0  0  0  0  0  0  0
   18.2431   27.9972   53.9358 C   0  0  0  0  0  0  0  0  0  0  0  0
   17.5693   28.0071   52.7145 C   0  0  0  0  0  0  0  0  0  0  0  0
   17.4239   26.8610   52.0143 F   0  0  0  0  0  0  0  0  0  0  0  0
   17.0348   29.1930   52.2188 C   0  0  0  0  0  0  0  0  0  0  0  0
   17.1737   30.3718   52.9443 C   0  0  0  0  0  0  0  0  0  0  0  0
   16.6469   31.5248   52.4740 F   0  0  0  0  0  0  0  0  0  0  0  0
   17.8471   30.3641   54.1637 C   0  0  0  0  0  0  0  0  0  0  0  0
   21.8822   32.7264   56.3625 C   0  0  0  0  0  0  0  0  0  0  0  0
   23.2382   34.6513   49.7315 H   0  0  0  0  0  0  0  0  0  0  0  0
   24.8880   35.3236   49.5021 H   0  0  0  0  0  0  0  0  0  0  0  0
   23.7824   35.1572   48.0962 H   0  0  0  0  0  0  0  0  0  0  0  0
   26.2342   32.3283   47.6503 H   0  0  0  0  0  0  0  0  0  0  0  0
   25.5423   33.7927   46.8737 H   0  0  0  0  0  0  0  0  0  0  0  0
   26.6479   33.9591   48.2796 H   0  0  0  0  0  0  0  0  0  0  0  0
   25.5262   31.5651   49.7657 H   0  0  0  0  0  0  0  0  0  0  0  0
   25.7082   33.1096   50.6647 H   0  0  0  0  0  0  0  0  0  0  0  0
   23.0283   31.7222   50.3007 H   0  0  0  0  0  0  0  0  0  0  0  0
   24.1492   31.3240   51.6466 H   0  0  0  0  0  0  0  0  0  0  0  0
   22.6569   33.9348   51.1567 H   0  0  0  0  0  0  0  0  0  0  0  0
   22.4775   32.7855   52.5254 H   0  0  0  0  0  0  0  0  0  0  0  0
   24.9909   32.4633   56.4622 H   0  0  0  0  0  0  0  0  0  0  0  0
   24.5949   34.1566   56.9125 H   0  0  0  0  0  0  0  0  0  0  0  0
   24.8028   32.7309   58.8959 H   0  0  0  0  0  0  0  0  0  0  0  0
   22.5547   31.9928   59.6047 H   0  0  0  0  0  0  0  0  0  0  0  0
   20.1870   32.0178   59.2111 H   0  0  0  0  0  0  0  0  0  0  0  0
   19.5276   32.5548   57.6289 H   0  0  0  0  0  0  0  0  0  0  0  0
   18.6321   30.8887   56.4677 H   0  0  0  0  0  0  0  0  0  0  0  0
   18.8988   26.8977   56.2217 H   0  0  0  0  0  0  0  0  0  0  0  0
   18.6588   27.0722   54.3073 H   0  0  0  0  0  0  0  0  0  0  0  0
   16.5134   29.1979   51.2730 H   0  0  0  0  0  0  0  0  0  0  0  0
   17.9558   31.2864   54.7151 H   0  0  0  0  0  0  0  0  0  0  0  0
   21.0618   32.7402   55.6603 H   0  0  0  0  0  0  0  0  0  0  0  0
  1  2  1  0  0  0  0
  2  3  1  0  0  0  0
  2  4  1  0  0  0  0
  4  5  1  0  0  0  0
  5  6  1  0  0  0  0
  6  7  1  0  0  0  0
  7  8  1  0  0  0  0
  8  9  2  0  0  0  0
  8 10  1  0  0  0  0
 10 11  2  0  0  0  0
 11 12  1  0  0  0  0
 11 32  1  0  0  0  0
 12 13  1  0  0  0  0
 13 14  2  0  0  0  0
 14 15  1  0  0  0  0
 15 16  1  0  0  0  0
 15 32  2  0  0  0  0
 16 17  1  0  0  0  0
 17 18  1  0  0  0  0
 17 22  1  0  0  0  0
 18 19  1  0  0  0  0
 19 20  2  0  0  0  0
 19 24  1  0  0  0  0
 20 21  1  0  0  0  0
 21 22  1  0  0  0  0
 22 23  2  0  0  0  0
 24 25  2  0  0  0  0
 24 31  1  0  0  0  0
 25 26  1  0  0  0  0
 26 27  1  0  0  0  0
 26 28  2  0  0  0  0
 28 29  1  0  0  0  0
 29 30  1  0  0  0  0
 29 31  2  0  0  0  0
  1 33  1  0  0  0  0
  1 34  1  0  0  0  0
  1 35  1  0  0  0  0
  3 36  1  0  0  0  0
  3 37  1  0  0  0  0
  3 38  1  0  0  0  0
  4 39  1  0  0  0  0
  4 40  1  0  0  0  0
  5 41  1  0  0  0  0
  5 42  1  0  0  0  0
  6 43  1  0  0  0  0
  6 44  1  0  0  0  0
 12 45  1  0  0  0  0
 12 46  1  0  0  0  0
 13 47  1  0  0  0  0
 14 48  1  0  0  0  0
 16 49  1  0  0  0  0
 16 50  1  0  0  0  0
 18 51  1  0  0  0  0
 20 52  1  0  0  0  0
 25 53  1  0  0  0  0
 28 54  1  0  0  0  0
 31 55  1  0  0  0  0
 32 56  1  0  0  0  0
M  END
> <s_user_Name>
CHEMBL3402742_23

> <IC50[nM]>
23

$$$$
CHEMBL3402742_23
  -OEChem-05192314313D
 Structure written by MMmdl.
 56 58  0     0  0  0  0  0  0999 V2000
   24.0986   34.7063   49.0484 C   0  0  0  0  0  0  0  0  0  0  0  0
   24.6432   33.2826   48.7886 N   0  0  0  0  0  0  0  0  0  0  0  0
   25.8543   33.3451   47.8288 C   0  0  0  0  0  0  0  0  0  0  0  0
   25.0189   32.4927   50.0695 C   0  0  0  0  0  0  0  0  0  0  0  0
   23.8157   32.1161   50.9601 C   0  0  0  0  0  0  0  0  0  0  0  0
   23.1879   33.2288   51.8121 C   0  0  0  0  0  0  0  0  0  0  0  0
   24.2114   33.9262   52.5318 O   0  0  0  0  0  0  0  0  0  0  0  0
   24.4007   33.9085   53.8846 C   0  0  0  0  0  0  0  0  0  0  0  0
   25.4467   34.3262   54.3754 O   0  0  0  0  0  0  0  0  0  0  0  0
   23.2923   33.4328   54.5845 N   0  0  0  0  0  0  0  0  0  0  0  0
   23.1560   33.1247   55.9447 C   0  0  0  0  0  0  0  0  0  0  0  0
   24.2128   33.1260   56.8689 C   0  0  0  0  0  0  0  0  0  0  0  0
   23.9896   32.7237   58.1852 C   0  0  0  0  0  0  0  0  0  0  0  0
   22.7192   32.3122   58.5862 C   0  0  0  0  0  0  0  0  0  0  0  0
   21.6582   32.3108   57.6778 C   0  0  0  0  0  0  0  0  0  0  0  0
   20.2579   31.8951   58.1203 C   0  0  0  0  0  0  0  0  0  0  0  0
   19.9237   30.4965   57.7849 N   0  0  0  0  0  0  0  0  0  0  0  0
   19.4310   30.2906   56.5316 N   0  0  0  0  0  0  0  0  0  0  0  0
   19.0502   29.1758   56.0241 C   0  0  0  0  0  0  0  0  0  0  0  0
   19.2185   27.8061   56.7105 C   0  0  0  0  0  0  0  0  0  0  0  0
   19.9746   27.7611   58.3757 S   0  0  0  0  0  0  0  0  0  0  0  0
   20.2175   29.5288   58.7582 C   0  0  0  0  0  0  0  0  0  0  0  0
   20.6471   29.7895   59.8854 O   0  0  0  0  0  0  0  0  0  0  0  0
   18.3886   29.1760   54.6905 C   0  0  0  0  0  0  0  0  0  0  0  0
   18.2431   27.9972   53.9358 C   0  0  0  0  0  0  0  0  0  0  0  0
   17.5693   28.0071   52.7145 C   0  0  0  0  0  0  0  0  0  0  0  0
   17.4239   26.8610   52.0143 F   0  0  0  0  0  0  0  0  0  0  0  0
   17.0348   29.1930   52.2188 C   0  0  0  0  0  0  0  0  0  0  0  0
   17.1737   30.3718   52.9443 C   0  0  0  0  0  0  0  0  0  0  0  0
   16.6469   31.5248   52.4740 F   0  0  0  0  0  0  0  0  0  0  0  0
   17.8471   30.3641   54.1637 C   0  0  0  0  0  0  0  0  0  0  0  0
   21.8822   32.7264   56.3625 C   0  0  0  0  0  0  0  0  0  0  0  0
   23.2382   34.6513   49.7315 H   0  0  0  0  0  0  0  0  0  0  0  0
   24.8880   35.3236   49.5021 H   0  0  0  0  0  0  0  0  0  0  0  0
   23.7824   35.1572   48.0962 H   0  0  0  0  0  0  0  0  0  0  0  0
   26.2342   32.3283   47.6503 H   0  0  0  0  0  0  0  0  0  0  0  0
   25.5423   33.7927   46.8737 H   0  0  0  0  0  0  0  0  0  0  0  0
   26.6479   33.9591   48.2796 H   0  0  0  0  0  0  0  0  0  0  0  0
   25.5262   31.5651   49.7657 H   0  0  0  0  0  0  0  0  0  0  0  0
   25.7082   33.1096   50.6647 H   0  0  0  0  0  0  0  0  0  0  0  0
   23.0283   31.7222   50.3007 H   0  0  0  0  0  0  0  0  0  0  0  0
   24.1492   31.3240   51.6466 H   0  0  0  0  0  0  0  0  0  0  0  0
   22.6569   33.9348   51.1567 H   0  0  0  0  0  0  0  0  0  0  0  0
   22.4775   32.7855   52.5254 H   0  0  0  0  0  0  0  0  0  0  0  0
   25.1993   33.4388   56.5601 H   0  0  0  0  0  0  0  0  0  0  0  0
   24.8028   32.7309   58.8959 H   0  0  0  0  0  0  0  0  0  0  0  0
   22.8225   31.2802   58.9527 H   0  0  0  0  0  0  0  0  0  0  0  0
   22.4224   32.9686   59.4175 H   0  0  0  0  0  0  0  0  0  0  0  0
   20.1870   32.0178   59.2111 H   0  0  0  0  0  0  0  0  0  0  0  0
   19.5276   32.5548   57.6289 H   0  0  0  0  0  0  0  0  0  0  0  0
   18.6321   30.8887   56.4677 H   0  0  0  0  0  0  0  0  0  0  0  0
   18.8988   26.8977   56.2217 H   0  0  0  0  0  0  0  0  0  0  0  0
   18.6588   27.0722   54.3073 H   0  0  0  0  0  0  0  0  0  0  0  0
   16.5134   29.1979   51.2730 H   0  0  0  0  0  0  0  0  0  0  0  0
   17.9558   31.2864   54.7151 H   0  0  0  0  0  0  0  0  0  0  0  0
   21.0618   32.7402   55.6603 H   0  0  0  0  0  0  0  0  0  0  0  0
  1  2  1  0  0  0  0
  2  3  1  0  0  0  0
  2  4  1  0  0  0  0
  4  5  1  0  0  0  0
  5  6  1  0  0  0  0
  6  7  1  0  0  0  0
  7  8  1  0  0  0  0
  8  9  2  0  0  0  0
  8 10  1  0  0  0  0
 10 11  2  0  0  0  0
 11 12  1  0  0  0  0
 11 32  1  0  0  0  0
 12 13  2  0  0  0  0
 13 14  1  0  0  0  0
 14 15  1  0  0  0  0
 15 16  1  0  0  0  0
 15 32  2  0  0  0  0
 16 17  1  0  0  0  0
 17 18  1  0  0  0  0
 17 22  1  0  0  0  0
 18 19  1  0  0  0  0
 19 20  2  0  0  0  0
 19 24  1  0  0  0  0
 20 21  1  0  0  0  0
 21 22  1  0  0  0  0
 22 23  2  0  0  0  0
 24 25  2  0  0  0  0
 24 31  1  0  0  0  0
 25 26  1  0  0  0  0
 26 27  1  0  0  0  0
 26 28  2  0  0  0  0
 28 29  1  0  0  0  0
 29 30  1  0  0  0  0
 29 31  2  0  0  0  0
  1 33  1  0  0  0  0
  1 34  1  0  0  0  0
  1 35  1  0  0  0  0
  3 36  1  0  0  0  0
  3 37  1  0  0  0  0
  3 38  1  0  0  0  0
  4 39  1  0  0  0  0
  4 40  1  0  0  0  0
  5 41  1  0  0  0  0
  5 42  1  0  0  0  0
  6 43  1  0  0  0  0
  6 44  1  0  0  0  0
 12 45  1  0  0  0  0
 13 46  1  0  0  0  0
 14 47  1  0  0  0  0
 14 48  1  0  0  0  0
 16 49  1  0  0  0  0
 16 50  1  0  0  0  0
 18 51  1  0  0  0  0
 20 52  1  0  0  0  0
 25 53  1  0  0  0  0
 28 54  1  0  0  0  0
 31 55  1  0  0  0  0
 32 56  1  0  0  0  0
M  END
> <s_user_Name>
CHEMBL3402742_23

> <IC50[nM]>
23

$$$$
CHEMBL3402742_23
  -OEChem-05192314313D
 Structure written by MMmdl.
 56 58  0     0  0  0  0  0  0999 V2000
   24.0986   34.7063   49.0484 C   0  0  0  0  0  0  0  0  0  0  0  0
   24.6432   33.2826   48.7886 N   0  0  0  0  0  0  0  0  0  0  0  0
   25.8543   33.3451   47.8288 C   0  0  0  0  0  0  0  0  0  0  0  0
   25.0189   32.4927   50.0695 C   0  0  0  0  0  0  0  0  0  0  0  0
   23.8157   32.1161   50.9601 C   0  0  0  0  0  0  0  0  0  0  0  0
   23.1879   33.2288   51.8121 C   0  0  0  0  0  0  0  0  0  0  0  0
   24.2114   33.9262   52.5318 O   0  0  0  0  0  0  0  0  0  0  0  0
   24.4007   33.9085   53.8846 C   0  0  0  0  0  0  0  0  0  0  0  0
   25.4467   34.3262   54.3754 O   0  0  0  0  0  0  0  0  0  0  0  0
   23.2923   33.4328   54.5845 N   0  0  0  0  0  0  0  0  0  0  0  0
   23.1560   33.1247   55.9447 C   0  0  0  0  0  0  0  0  0  0  0  0
   24.2128   33.1260   56.8689 C   0  0  0  0  0  0  0  0  0  0  0  0
   23.9896   32.7237   58.1852 C   0  0  0  0  0  0  0  0  0  0  0  0
   22.7192   32.3122   58.5862 C   0  0  0  0  0  0  0  0  0  0  0  0
   21.6582   32.3108   57.6778 C   0  0  0  0  0  0  0  0  0  0  0  0
   20.2579   31.8951   58.1203 C   0  0  0  0  0  0  0  0  0  0  0  0
   19.9237   30.4965   57.7849 N   0  0  0  0  0  0  0  0  0  0  0  0
   19.4310   30.2906   56.5316 N   0  0  0  0  0  0  0  0  0  0  0  0
   19.0502   29.1758   56.0241 C   0  0  0  0  0  0  0  0  0  0  0  0
   19.2185   27.8061   56.7105 C   0  0  0  0  0  0  0  0  0  0  0  0
   19.9746   27.7611   58.3757 S   0  0  0  0  0  0  0  0  0  0  0  0
   20.2175   29.5288   58.7582 C   0  0  0  0  0  0  0  0  0  0  0  0
   20.6471   29.7895   59.8854 O   0  0  0  0  0  0  0  0  0  0  0  0
   18.3886   29.1760   54.6905 C   0  0  0  0  0  0  0  0  0  0  0  0
   18.2431   27.9972   53.9358 C   0  0  0  0  0  0  0  0  0  0  0  0
   17.5693   28.0071   52.7145 C   0  0  0  0  0  0  0  0  0  0  0  0
   17.4239   26.8610   52.0143 F   0  0  0  0  0  0  0  0  0  0  0  0
   17.0348   29.1930   52.2188 C   0  0  0  0  0  0  0  0  0  0  0  0
   17.1737   30.3718   52.9443 C   0  0  0  0  0  0  0  0  0  0  0  0
   16.6469   31.5248   52.4740 F   0  0  0  0  0  0  0  0  0  0  0  0
   17.8471   30.3641   54.1637 C   0  0  0  0  0  0  0  0  0  0  0  0
   21.8822   32.7264   56.3625 C   0  0  0  0  0  0  0  0  0  0  0  0
   23.2382   34.6513   49.7315 H   0  0  0  0  0  0  0  0  0  0  0  0
   24.8880   35.3236   49.5021 H   0  0  0  0  0  0  0  0  0  0  0  0
   23.7824   35.1572   48.0962 H   0  0  0  0  0  0  0  0  0  0  0  0
   26.2342   32.3283   47.6503 H   0  0  0  0  0  0  0  0  0  0  0  0
   25.5423   33.7927   46.8737 H   0  0  0  0  0  0  0  0  0  0  0  0
   26.6479   33.9591   48.2796 H   0  0  0  0  0  0  0  0  0  0  0  0
   25.5262   31.5651   49.7657 H   0  0  0  0  0  0  0  0  0  0  0  0
   25.7082   33.1096   50.6647 H   0  0  0  0  0  0  0  0  0  0  0  0
   23.0283   31.7222   50.3007 H   0  0  0  0  0  0  0  0  0  0  0  0
   24.1492   31.3240   51.6466 H   0  0  0  0  0  0  0  0  0  0  0  0
   22.6569   33.9348   51.1567 H   0  0  0  0  0  0  0  0  0  0  0  0
   22.4775   32.7855   52.5254 H   0  0  0  0  0  0  0  0  0  0  0  0
   25.1993   33.4388   56.5601 H   0  0  0  0  0  0  0  0  0  0  0  0
   24.8028   32.7309   58.8959 H   0  0  0  0  0  0  0  0  0  0  0  0
   22.5547   31.9928   59.6047 H   0  0  0  0  0  0  0  0  0  0  0  0
   20.1870   32.0178   59.2111 H   0  0  0  0  0  0  0  0  0  0  0  0
   19.5276   32.5548   57.6289 H   0  0  0  0  0  0  0  0  0  0  0  0
   18.6321   30.8887   56.4677 H   0  0  0  0  0  0  0  0  0  0  0  0
   18.8988   26.8977   56.2217 H   0  0  0  0  0  0  0  0  0  0  0  0
   18.6588   27.0722   54.3073 H   0  0  0  0  0  0  0  0  0  0  0  0
   16.5134   29.1979   51.2730 H   0  0  0  0  0  0  0  0  0  0  0  0
   17.9558   31.2864   54.7151 H   0  0  0  0  0  0  0  0  0  0  0  0
   21.2124   33.5807   56.1850 H   0  0  0  0  0  0  0  0  0  0  0  0
   21.5871   31.8883   55.7141 H   0  0  0  0  0  0  0  0  0  0  0  0
  1  2  1  0  0  0  0
  2  3  1  0  0  0  0
  2  4  1  0  0  0  0
  4  5  1  0  0  0  0
  5  6  1  0  0  0  0
  6  7  1  0  0  0  0
  7  8  1  0  0  0  0
  8  9  2  0  0  0  0
  8 10  1  0  0  0  0
 10 11  2  0  0  0  0
 11 12  1  0  0  0  0
 11 32  1  0  0  0  0
 12 13  2  0  0  0  0
 13 14  1  0  0  0  0
 14 15  2  0  0  0  0
 15 16  1  0  0  0  0
 15 32  1  0  0  0  0
 16 17  1  0  0  0  0
 17 18  1  0  0  0  0
 17 22  1  0  0  0  0
 18 19  1  0  0  0  0
 19 20  2  0  0  0  0
 19 24  1  0  0  0  0
 20 21  1  0  0  0  0
 21 22  1  0  0  0  0
 22 23  2  0  0  0  0
 24 25  2  0  0  0  0
 24 31  1  0  0  0  0
 25 26  1  0  0  0  0
 26 27  1  0  0  0  0
 26 28  2  0  0  0  0
 28 29  1  0  0  0  0
 29 30  1  0  0  0  0
 29 31  2  0  0  0  0
  1 33  1  0  0  0  0
  1 34  1  0  0  0  0
  1 35  1  0  0  0  0
  3 36  1  0  0  0  0
  3 37  1  0  0  0  0
  3 38  1  0  0  0  0
  4 39  1  0  0  0  0
  4 40  1  0  0  0  0
  5 41  1  0  0  0  0
  5 42  1  0  0  0  0
  6 43  1  0  0  0  0
  6 44  1  0  0  0  0
 12 45  1  0  0  0  0
 13 46  1  0  0  0  0
 14 47  1  0  0  0  0
 16 48  1  0  0  0  0
 16 49  1  0  0  0  0
 18 50  1  0  0  0  0
 20 51  1  0  0  0  0
 25 52  1  0  0  0  0
 28 53  1  0  0  0  0
 31 54  1  0  0  0  0
 32 55  1  0  0  0  0
 32 56  1  0  0  0  0
M  END
> <s_user_Name>
CHEMBL3402742_23

> <IC50[nM]>
23

$$$$
