CHEMBL3402741_400
  -OEChem-05192314313D
 Structure written by MMmdl.
 70 72  0     0  0  0  0  0  0999 V2000
   24.3934   31.0600   48.1947 C   0  0  0  0  0  0  0  0  0  0  0  0
   24.5318   32.4351   47.5178 C   0  0  0  0  0  0  0  0  0  0  0  0
   25.8474   33.1258   47.9679 N   0  0  0  0  0  0  0  0  0  0  0  0
   26.5614   33.7965   46.7640 C   0  0  0  0  0  0  0  0  0  0  0  0
   27.9647   34.3057   47.1323 C   0  0  0  0  0  0  0  0  0  0  0  0
   25.7058   34.0801   49.1798 C   0  0  0  0  0  0  0  0  0  0  0  0
   24.9918   33.4384   50.3755 C   0  0  0  0  0  0  0  0  0  0  0  0
   25.0659   34.3430   51.6089 C   0  0  0  0  0  0  0  0  0  0  0  0
   24.1175   33.9028   52.5724 O   0  0  0  0  0  0  0  0  0  0  0  0
   24.3859   33.9251   53.8856 C   0  0  0  0  0  0  0  0  0  0  0  0
   25.4468   34.3252   54.3755 O   0  0  0  0  0  0  0  0  0  0  0  0
   23.2712   33.4382   54.5535 N   0  0  0  0  0  0  0  0  0  0  0  0
   23.1060   33.1249   55.9113 C   0  0  0  0  0  0  0  0  0  0  0  0
   24.1478   33.1259   56.8531 C   0  0  0  0  0  0  0  0  0  0  0  0
   23.9046   32.7376   58.1696 C   0  0  0  0  0  0  0  0  0  0  0  0
   22.6221   32.3505   58.5593 C   0  0  0  0  0  0  0  0  0  0  0  0
   21.5763   32.3408   57.6345 C   0  0  0  0  0  0  0  0  0  0  0  0
   20.1645   31.9343   58.0656 C   0  0  0  0  0  0  0  0  0  0  0  0
   19.8549   30.5223   57.7688 N   0  0  0  0  0  0  0  0  0  0  0  0
   19.5510   30.2568   56.4647 N   0  0  0  0  0  0  0  0  0  0  0  0
   19.2595   29.1097   55.9735 C   0  0  0  0  0  0  0  0  0  0  0  0
   19.1563   27.8215   56.8125 C   0  0  0  0  0  0  0  0  0  0  0  0
   20.1073   27.8033   58.3756 S   0  0  0  0  0  0  0  0  0  0  0  0
   20.2026   29.5875   58.7616 C   0  0  0  0  0  0  0  0  0  0  0  0
   20.6464   29.8843   59.8760 O   0  0  0  0  0  0  0  0  0  0  0  0
   18.9915   28.9833   54.5231 C   0  0  0  0  0  0  0  0  0  0  0  0
   19.6332   29.8252   53.6061 C   0  0  0  0  0  0  0  0  0  0  0  0
   19.4012   29.7031   52.2393 C   0  0  0  0  0  0  0  0  0  0  0  0
   18.5163   28.7296   51.7479 C   0  0  0  0  0  0  0  0  0  0  0  0
   18.2446   28.5625   50.4000 O   0  0  0  0  0  0  0  0  0  0  0  0
   19.1055   29.1560   49.4367 C   0  0  0  0  0  0  0  0  0  0  0  0
   17.8607   27.8802   52.6511 C   0  0  0  0  0  0  0  0  0  0  0  0
   16.9971   26.9398   52.1194 O   0  0  0  0  0  0  0  0  0  0  0  0
   16.4627   25.9229   52.9609 C   0  0  0  0  0  0  0  0  0  0  0  0
   18.1083   28.0139   54.0302 C   0  0  0  0  0  0  0  0  0  0  0  0
   21.8257   32.7275   56.3134 C   0  0  0  0  0  0  0  0  0  0  0  0
   23.4582   30.5821   47.8675 H   0  0  0  0  0  0  0  0  0  0  0  0
   25.2470   30.4256   47.9138 H   0  0  0  0  0  0  0  0  0  0  0  0
   24.3763   31.1892   49.2870 H   0  0  0  0  0  0  0  0  0  0  0  0
   24.5465   32.3025   46.4259 H   0  0  0  0  0  0  0  0  0  0  0  0
   23.6758   33.0661   47.7991 H   0  0  0  0  0  0  0  0  0  0  0  0
   26.6533   33.0606   45.9516 H   0  0  0  0  0  0  0  0  0  0  0  0
   25.9544   34.6473   46.4211 H   0  0  0  0  0  0  0  0  0  0  0  0
   28.4295   34.7713   46.2507 H   0  0  0  0  0  0  0  0  0  0  0  0
   27.8849   35.0484   47.9398 H   0  0  0  0  0  0  0  0  0  0  0  0
   28.5839   33.4617   47.4703 H   0  0  0  0  0  0  0  0  0  0  0  0
   26.7115   34.3909   49.4991 H   0  0  0  0  0  0  0  0  0  0  0  0
   25.1321   34.9638   48.8635 H   0  0  0  0  0  0  0  0  0  0  0  0
   23.9362   33.2697   50.1160 H   0  0  0  0  0  0  0  0  0  0  0  0
   25.4710   32.4755   50.6063 H   0  0  0  0  0  0  0  0  0  0  0  0
   26.0769   34.2947   52.0398 H   0  0  0  0  0  0  0  0  0  0  0  0
   24.8403   35.3797   51.3183 H   0  0  0  0  0  0  0  0  0  0  0  0
   22.4648   33.2881   53.9815 H   0  0  0  0  0  0  0  0  0  0  0  0
   25.1411   33.4286   56.5563 H   0  0  0  0  0  0  0  0  0  0  0  0
   24.7101   32.7364   58.8890 H   0  0  0  0  0  0  0  0  0  0  0  0
   22.4373   32.0567   59.5820 H   0  0  0  0  0  0  0  0  0  0  0  0
   20.0696   32.0935   59.1499 H   0  0  0  0  0  0  0  0  0  0  0  0
   19.4397   32.5707   57.5368 H   0  0  0  0  0  0  0  0  0  0  0  0
   18.0962   27.6664   57.0618 H   0  0  0  0  0  0  0  0  0  0  0  0
   19.5130   26.9863   56.1919 H   0  0  0  0  0  0  0  0  0  0  0  0
   20.3177   30.5797   53.9646 H   0  0  0  0  0  0  0  0  0  0  0  0
   19.9065   30.3633   51.5500 H   0  0  0  0  0  0  0  0  0  0  0  0
   18.7414   28.9223   48.4254 H   0  0  0  0  0  0  0  0  0  0  0  0
   19.1180   30.2467   49.5789 H   0  0  0  0  0  0  0  0  0  0  0  0
   20.1236   28.7584   49.5607 H   0  0  0  0  0  0  0  0  0  0  0  0
   15.8012   25.2697   52.3729 H   0  0  0  0  0  0  0  0  0  0  0  0
   17.2852   25.3270   53.3833 H   0  0  0  0  0  0  0  0  0  0  0  0
   15.8890   26.3864   53.7770 H   0  0  0  0  0  0  0  0  0  0  0  0
   17.6066   27.3550   54.7234 H   0  0  0  0  0  0  0  0  0  0  0  0
   21.0198   32.7193   55.5945 H   0  0  0  0  0  0  0  0  0  0  0  0
  1  2  1  0  0  0  0
  2  3  1  0  0  0  0
  3  4  1  0  0  0  0
  3  6  1  0  0  0  0
  4  5  1  0  0  0  0
  6  7  1  0  0  0  0
  7  8  1  0  0  0  0
  8  9  1  0  0  0  0
  9 10  1  0  0  0  0
 10 11  2  0  0  0  0
 10 12  1  0  0  0  0
 12 13  1  0  0  0  0
 13 14  2  0  0  0  0
 13 36  1  0  0  0  0
 14 15  1  0  0  0  0
 15 16  2  0  0  0  0
 16 17  1  0  0  0  0
 17 18  1  0  0  0  0
 17 36  2  0  0  0  0
 18 19  1  0  0  0  0
 19 20  1  0  0  0  0
 19 24  1  0  0  0  0
 20 21  2  0  0  0  0
 21 22  1  0  0  0  0
 21 26  1  0  0  0  0
 22 23  1  0  0  0  0
 23 24  1  0  0  0  0
 24 25  2  0  0  0  0
 26 27  2  0  0  0  0
 26 35  1  0  0  0  0
 27 28  1  0  0  0  0
 28 29  2  0  0  0  0
 29 30  1  0  0  0  0
 29 32  1  0  0  0  0
 30 31  1  0  0  0  0
 32 33  1  0  0  0  0
 32 35  2  0  0  0  0
 33 34  1  0  0  0  0
  1 37  1  0  0  0  0
  1 38  1  0  0  0  0
  1 39  1  0  0  0  0
  2 40  1  0  0  0  0
  2 41  1  0  0  0  0
  4 42  1  0  0  0  0
  4 43  1  0  0  0  0
  5 44  1  0  0  0  0
  5 45  1  0  0  0  0
  5 46  1  0  0  0  0
  6 47  1  0  0  0  0
  6 48  1  0  0  0  0
  7 49  1  0  0  0  0
  7 50  1  0  0  0  0
  8 51  1  0  0  0  0
  8 52  1  0  0  0  0
 12 53  1  0  0  0  0
 14 54  1  0  0  0  0
 15 55  1  0  0  0  0
 16 56  1  0  0  0  0
 18 57  1  0  0  0  0
 18 58  1  0  0  0  0
 22 59  1  0  0  0  0
 22 60  1  0  0  0  0
 27 61  1  0  0  0  0
 28 62  1  0  0  0  0
 31 63  1  0  0  0  0
 31 64  1  0  0  0  0
 31 65  1  0  0  0  0
 34 66  1  0  0  0  0
 34 67  1  0  0  0  0
 34 68  1  0  0  0  0
 35 69  1  0  0  0  0
 36 70  1  0  0  0  0
M  END
> <s_user_Name>
CHEMBL3402741_400

> <IC50[nM]>
400

$$$$
CHEMBL3402741_400
  -OEChem-05192314313D
 Structure written by MMmdl.
 70 72  0     0  0  0  0  0  0999 V2000
   24.3934   31.0600   48.1947 C   0  0  0  0  0  0  0  0  0  0  0  0
   24.5318   32.4351   47.5178 C   0  0  0  0  0  0  0  0  0  0  0  0
   25.8474   33.1258   47.9679 N   0  0  0  0  0  0  0  0  0  0  0  0
   26.5614   33.7965   46.7640 C   0  0  0  0  0  0  0  0  0  0  0  0
   27.9647   34.3057   47.1323 C   0  0  0  0  0  0  0  0  0  0  0  0
   25.7058   34.0801   49.1798 C   0  0  0  0  0  0  0  0  0  0  0  0
   24.9918   33.4384   50.3755 C   0  0  0  0  0  0  0  0  0  0  0  0
   25.0659   34.3430   51.6089 C   0  0  0  0  0  0  0  0  0  0  0  0
   24.1175   33.9028   52.5724 O   0  0  0  0  0  0  0  0  0  0  0  0
   24.3859   33.9251   53.8856 C   0  0  0  0  0  0  0  0  0  0  0  0
   25.4468   34.3252   54.3755 O   0  0  0  0  0  0  0  0  0  0  0  0
   23.2712   33.4382   54.5535 N   0  0  0  0  0  0  0  0  0  0  0  0
   23.1060   33.1249   55.9113 C   0  0  0  0  0  0  0  0  0  0  0  0
   24.1478   33.1259   56.8531 C   0  0  0  0  0  0  0  0  0  0  0  0
   23.9046   32.7376   58.1696 C   0  0  0  0  0  0  0  0  0  0  0  0
   22.6221   32.3505   58.5593 C   0  0  0  0  0  0  0  0  0  0  0  0
   21.5763   32.3408   57.6345 C   0  0  0  0  0  0  0  0  0  0  0  0
   20.1645   31.9343   58.0656 C   0  0  0  0  0  0  0  0  0  0  0  0
   19.8549   30.5223   57.7688 N   0  0  0  0  0  0  0  0  0  0  0  0
   19.5510   30.2568   56.4647 N   0  0  0  0  0  0  0  0  0  0  0  0
   19.2595   29.1097   55.9735 C   0  0  0  0  0  0  0  0  0  0  0  0
   19.1563   27.8215   56.8125 C   0  0  0  0  0  0  0  0  0  0  0  0
   20.1073   27.8033   58.3756 S   0  0  0  0  0  0  0  0  0  0  0  0
   20.2026   29.5875   58.7616 C   0  0  0  0  0  0  0  0  0  0  0  0
   20.6464   29.8843   59.8760 O   0  0  0  0  0  0  0  0  0  0  0  0
   18.9915   28.9833   54.5231 C   0  0  0  0  0  0  0  0  0  0  0  0
   19.6332   29.8252   53.6061 C   0  0  0  0  0  0  0  0  0  0  0  0
   19.4012   29.7031   52.2393 C   0  0  0  0  0  0  0  0  0  0  0  0
   18.5163   28.7296   51.7479 C   0  0  0  0  0  0  0  0  0  0  0  0
   18.2446   28.5625   50.4000 O   0  0  0  0  0  0  0  0  0  0  0  0
   19.1055   29.1560   49.4367 C   0  0  0  0  0  0  0  0  0  0  0  0
   17.8607   27.8802   52.6511 C   0  0  0  0  0  0  0  0  0  0  0  0
   16.9971   26.9398   52.1194 O   0  0  0  0  0  0  0  0  0  0  0  0
   16.4627   25.9229   52.9609 C   0  0  0  0  0  0  0  0  0  0  0  0
   18.1083   28.0139   54.0302 C   0  0  0  0  0  0  0  0  0  0  0  0
   21.8257   32.7275   56.3134 C   0  0  0  0  0  0  0  0  0  0  0  0
   23.4582   30.5821   47.8675 H   0  0  0  0  0  0  0  0  0  0  0  0
   25.2470   30.4256   47.9138 H   0  0  0  0  0  0  0  0  0  0  0  0
   24.3763   31.1892   49.2870 H   0  0  0  0  0  0  0  0  0  0  0  0
   24.5465   32.3025   46.4259 H   0  0  0  0  0  0  0  0  0  0  0  0
   23.6758   33.0661   47.7991 H   0  0  0  0  0  0  0  0  0  0  0  0
   26.6533   33.0606   45.9516 H   0  0  0  0  0  0  0  0  0  0  0  0
   25.9544   34.6473   46.4211 H   0  0  0  0  0  0  0  0  0  0  0  0
   28.4295   34.7713   46.2507 H   0  0  0  0  0  0  0  0  0  0  0  0
   27.8849   35.0484   47.9398 H   0  0  0  0  0  0  0  0  0  0  0  0
   28.5839   33.4617   47.4703 H   0  0  0  0  0  0  0  0  0  0  0  0
   26.7115   34.3909   49.4991 H   0  0  0  0  0  0  0  0  0  0  0  0
   25.1321   34.9638   48.8635 H   0  0  0  0  0  0  0  0  0  0  0  0
   23.9362   33.2697   50.1160 H   0  0  0  0  0  0  0  0  0  0  0  0
   25.4710   32.4755   50.6063 H   0  0  0  0  0  0  0  0  0  0  0  0
   26.0769   34.2947   52.0398 H   0  0  0  0  0  0  0  0  0  0  0  0
   24.8403   35.3797   51.3183 H   0  0  0  0  0  0  0  0  0  0  0  0
   25.4087   34.2469   55.3215 H   0  0  0  0  0  0  0  0  0  0  0  0
   25.1411   33.4286   56.5563 H   0  0  0  0  0  0  0  0  0  0  0  0
   24.7101   32.7364   58.8890 H   0  0  0  0  0  0  0  0  0  0  0  0
   22.4373   32.0567   59.5820 H   0  0  0  0  0  0  0  0  0  0  0  0
   20.0696   32.0935   59.1499 H   0  0  0  0  0  0  0  0  0  0  0  0
   19.4397   32.5707   57.5368 H   0  0  0  0  0  0  0  0  0  0  0  0
   18.0962   27.6664   57.0618 H   0  0  0  0  0  0  0  0  0  0  0  0
   19.5130   26.9863   56.1919 H   0  0  0  0  0  0  0  0  0  0  0  0
   20.3177   30.5797   53.9646 H   0  0  0  0  0  0  0  0  0  0  0  0
   19.9065   30.3633   51.5500 H   0  0  0  0  0  0  0  0  0  0  0  0
   18.7414   28.9223   48.4254 H   0  0  0  0  0  0  0  0  0  0  0  0
   19.1180   30.2467   49.5789 H   0  0  0  0  0  0  0  0  0  0  0  0
   20.1236   28.7584   49.5607 H   0  0  0  0  0  0  0  0  0  0  0  0
   15.8012   25.2697   52.3729 H   0  0  0  0  0  0  0  0  0  0  0  0
   17.2852   25.3270   53.3833 H   0  0  0  0  0  0  0  0  0  0  0  0
   15.8890   26.3864   53.7770 H   0  0  0  0  0  0  0  0  0  0  0  0
   17.6066   27.3550   54.7234 H   0  0  0  0  0  0  0  0  0  0  0  0
   21.0198   32.7193   55.5945 H   0  0  0  0  0  0  0  0  0  0  0  0
  1  2  1  0  0  0  0
  2  3  1  0  0  0  0
  3  4  1  0  0  0  0
  3  6  1  0  0  0  0
  4  5  1  0  0  0  0
  6  7  1  0  0  0  0
  7  8  1  0  0  0  0
  8  9  1  0  0  0  0
  9 10  1  0  0  0  0
 10 11  1  0  0  0  0
 10 12  2  0  0  0  0
 12 13  1  0  0  0  0
 13 14  2  0  0  0  0
 13 36  1  0  0  0  0
 14 15  1  0  0  0  0
 15 16  2  0  0  0  0
 16 17  1  0  0  0  0
 17 18  1  0  0  0  0
 17 36  2  0  0  0  0
 18 19  1  0  0  0  0
 19 20  1  0  0  0  0
 19 24  1  0  0  0  0
 20 21  2  0  0  0  0
 21 22  1  0  0  0  0
 21 26  1  0  0  0  0
 22 23  1  0  0  0  0
 23 24  1  0  0  0  0
 24 25  2  0  0  0  0
 26 27  2  0  0  0  0
 26 35  1  0  0  0  0
 27 28  1  0  0  0  0
 28 29  2  0  0  0  0
 29 30  1  0  0  0  0
 29 32  1  0  0  0  0
 30 31  1  0  0  0  0
 32 33  1  0  0  0  0
 32 35  2  0  0  0  0
 33 34  1  0  0  0  0
  1 37  1  0  0  0  0
  1 38  1  0  0  0  0
  1 39  1  0  0  0  0
  2 40  1  0  0  0  0
  2 41  1  0  0  0  0
  4 42  1  0  0  0  0
  4 43  1  0  0  0  0
  5 44  1  0  0  0  0
  5 45  1  0  0  0  0
  5 46  1  0  0  0  0
  6 47  1  0  0  0  0
  6 48  1  0  0  0  0
  7 49  1  0  0  0  0
  7 50  1  0  0  0  0
  8 51  1  0  0  0  0
  8 52  1  0  0  0  0
 11 53  1  0  0  0  0
 14 54  1  0  0  0  0
 15 55  1  0  0  0  0
 16 56  1  0  0  0  0
 18 57  1  0  0  0  0
 18 58  1  0  0  0  0
 22 59  1  0  0  0  0
 22 60  1  0  0  0  0
 27 61  1  0  0  0  0
 28 62  1  0  0  0  0
 31 63  1  0  0  0  0
 31 64  1  0  0  0  0
 31 65  1  0  0  0  0
 34 66  1  0  0  0  0
 34 67  1  0  0  0  0
 34 68  1  0  0  0  0
 35 69  1  0  0  0  0
 36 70  1  0  0  0  0
M  END
> <s_user_Name>
CHEMBL3402741_400

> <IC50[nM]>
400

$$$$
CHEMBL3402741_400
  -OEChem-05192314313D
 Structure written by MMmdl.
 70 72  0     0  0  0  0  0  0999 V2000
   24.3934   31.0600   48.1947 C   0  0  0  0  0  0  0  0  0  0  0  0
   24.5318   32.4351   47.5178 C   0  0  0  0  0  0  0  0  0  0  0  0
   25.8474   33.1258   47.9679 N   0  0  0  0  0  0  0  0  0  0  0  0
   26.5614   33.7965   46.7640 C   0  0  0  0  0  0  0  0  0  0  0  0
   27.9647   34.3057   47.1323 C   0  0  0  0  0  0  0  0  0  0  0  0
   25.7058   34.0801   49.1798 C   0  0  0  0  0  0  0  0  0  0  0  0
   24.9918   33.4384   50.3755 C   0  0  0  0  0  0  0  0  0  0  0  0
   25.0659   34.3430   51.6089 C   0  0  0  0  0  0  0  0  0  0  0  0
   24.1175   33.9028   52.5724 O   0  0  0  0  0  0  0  0  0  0  0  0
   24.3859   33.9251   53.8856 C   0  0  0  0  0  0  0  0  0  0  0  0
   25.4468   34.3252   54.3755 O   0  0  0  0  0  0  0  0  0  0  0  0
   23.2712   33.4382   54.5535 N   0  0  0  0  0  0  0  0  0  0  0  0
   23.1060   33.1249   55.9113 C   0  0  0  0  0  0  0  0  0  0  0  0
   24.1478   33.1259   56.8531 C   0  0  0  0  0  0  0  0  0  0  0  0
   23.9046   32.7376   58.1696 C   0  0  0  0  0  0  0  0  0  0  0  0
   22.6221   32.3505   58.5593 C   0  0  0  0  0  0  0  0  0  0  0  0
   21.5763   32.3408   57.6345 C   0  0  0  0  0  0  0  0  0  0  0  0
   20.1645   31.9343   58.0656 C   0  0  0  0  0  0  0  0  0  0  0  0
   19.8549   30.5223   57.7688 N   0  0  0  0  0  0  0  0  0  0  0  0
   19.5510   30.2568   56.4647 N   0  0  0  0  0  0  0  0  0  0  0  0
   19.2595   29.1097   55.9735 C   0  0  0  0  0  0  0  0  0  0  0  0
   19.1563   27.8215   56.8125 C   0  0  0  0  0  0  0  0  0  0  0  0
   20.1073   27.8033   58.3756 S   0  0  0  0  0  0  0  0  0  0  0  0
   20.2026   29.5875   58.7616 C   0  0  0  0  0  0  0  0  0  0  0  0
   20.6464   29.8843   59.8760 O   0  0  0  0  0  0  0  0  0  0  0  0
   18.9915   28.9833   54.5231 C   0  0  0  0  0  0  0  0  0  0  0  0
   19.6332   29.8252   53.6061 C   0  0  0  0  0  0  0  0  0  0  0  0
   19.4012   29.7031   52.2393 C   0  0  0  0  0  0  0  0  0  0  0  0
   18.5163   28.7296   51.7479 C   0  0  0  0  0  0  0  0  0  0  0  0
   18.2446   28.5625   50.4000 O   0  0  0  0  0  0  0  0  0  0  0  0
   19.1055   29.1560   49.4367 C   0  0  0  0  0  0  0  0  0  0  0  0
   17.8607   27.8802   52.6511 C   0  0  0  0  0  0  0  0  0  0  0  0
   16.9971   26.9398   52.1194 O   0  0  0  0  0  0  0  0  0  0  0  0
   16.4627   25.9229   52.9609 C   0  0  0  0  0  0  0  0  0  0  0  0
   18.1083   28.0139   54.0302 C   0  0  0  0  0  0  0  0  0  0  0  0
   21.8257   32.7275   56.3134 C   0  0  0  0  0  0  0  0  0  0  0  0
   23.4582   30.5821   47.8675 H   0  0  0  0  0  0  0  0  0  0  0  0
   25.2470   30.4256   47.9138 H   0  0  0  0  0  0  0  0  0  0  0  0
   24.3763   31.1892   49.2870 H   0  0  0  0  0  0  0  0  0  0  0  0
   24.5465   32.3025   46.4259 H   0  0  0  0  0  0  0  0  0  0  0  0
   23.6758   33.0661   47.7991 H   0  0  0  0  0  0  0  0  0  0  0  0
   26.6533   33.0606   45.9516 H   0  0  0  0  0  0  0  0  0  0  0  0
   25.9544   34.6473   46.4211 H   0  0  0  0  0  0  0  0  0  0  0  0
   28.4295   34.7713   46.2507 H   0  0  0  0  0  0  0  0  0  0  0  0
   27.8849   35.0484   47.9398 H   0  0  0  0  0  0  0  0  0  0  0  0
   28.5839   33.4617   47.4703 H   0  0  0  0  0  0  0  0  0  0  0  0
   26.7115   34.3909   49.4991 H   0  0  0  0  0  0  0  0  0  0  0  0
   25.1321   34.9638   48.8635 H   0  0  0  0  0  0  0  0  0  0  0  0
   23.9362   33.2697   50.1160 H   0  0  0  0  0  0  0  0  0  0  0  0
   25.4710   32.4755   50.6063 H   0  0  0  0  0  0  0  0  0  0  0  0
   26.0769   34.2947   52.0398 H   0  0  0  0  0  0  0  0  0  0  0  0
   24.8403   35.3797   51.3183 H   0  0  0  0  0  0  0  0  0  0  0  0
   22.4648   33.2881   53.9815 H   0  0  0  0  0  0  0  0  0  0  0  0
   25.1411   33.4286   56.5563 H   0  0  0  0  0  0  0  0  0  0  0  0
   24.7101   32.7364   58.8890 H   0  0  0  0  0  0  0  0  0  0  0  0
   22.4373   32.0567   59.5820 H   0  0  0  0  0  0  0  0  0  0  0  0
   20.0696   32.0935   59.1499 H   0  0  0  0  0  0  0  0  0  0  0  0
   19.4397   32.5707   57.5368 H   0  0  0  0  0  0  0  0  0  0  0  0
   18.7640   30.8376   56.2565 H   0  0  0  0  0  0  0  0  0  0  0  0
   18.5583   26.9794   56.4968 H   0  0  0  0  0  0  0  0  0  0  0  0
   20.3177   30.5797   53.9646 H   0  0  0  0  0  0  0  0  0  0  0  0
   19.9065   30.3633   51.5500 H   0  0  0  0  0  0  0  0  0  0  0  0
   18.7414   28.9223   48.4254 H   0  0  0  0  0  0  0  0  0  0  0  0
   19.1180   30.2467   49.5789 H   0  0  0  0  0  0  0  0  0  0  0  0
   20.1236   28.7584   49.5607 H   0  0  0  0  0  0  0  0  0  0  0  0
   15.8012   25.2697   52.3729 H   0  0  0  0  0  0  0  0  0  0  0  0
   17.2852   25.3270   53.3833 H   0  0  0  0  0  0  0  0  0  0  0  0
   15.8890   26.3864   53.7770 H   0  0  0  0  0  0  0  0  0  0  0  0
   17.6066   27.3550   54.7234 H   0  0  0  0  0  0  0  0  0  0  0  0
   21.0198   32.7193   55.5945 H   0  0  0  0  0  0  0  0  0  0  0  0
  1  2  1  0  0  0  0
  2  3  1  0  0  0  0
  3  4  1  0  0  0  0
  3  6  1  0  0  0  0
  4  5  1  0  0  0  0
  6  7  1  0  0  0  0
  7  8  1  0  0  0  0
  8  9  1  0  0  0  0
  9 10  1  0  0  0  0
 10 11  2  0  0  0  0
 10 12  1  0  0  0  0
 12 13  1  0  0  0  0
 13 14  2  0  0  0  0
 13 36  1  0  0  0  0
 14 15  1  0  0  0  0
 15 16  2  0  0  0  0
 16 17  1  0  0  0  0
 17 18  1  0  0  0  0
 17 36  2  0  0  0  0
 18 19  1  0  0  0  0
 19 20  1  0  0  0  0
 19 24  1  0  0  0  0
 20 21  1  0  0  0  0
 21 22  2  0  0  0  0
 21 26  1  0  0  0  0
 22 23  1  0  0  0  0
 23 24  1  0  0  0  0
 24 25  2  0  0  0  0
 26 27  2  0  0  0  0
 26 35  1  0  0  0  0
 27 28  1  0  0  0  0
 28 29  2  0  0  0  0
 29 30  1  0  0  0  0
 29 32  1  0  0  0  0
 30 31  1  0  0  0  0
 32 33  1  0  0  0  0
 32 35  2  0  0  0  0
 33 34  1  0  0  0  0
  1 37  1  0  0  0  0
  1 38  1  0  0  0  0
  1 39  1  0  0  0  0
  2 40  1  0  0  0  0
  2 41  1  0  0  0  0
  4 42  1  0  0  0  0
  4 43  1  0  0  0  0
  5 44  1  0  0  0  0
  5 45  1  0  0  0  0
  5 46  1  0  0  0  0
  6 47  1  0  0  0  0
  6 48  1  0  0  0  0
  7 49  1  0  0  0  0
  7 50  1  0  0  0  0
  8 51  1  0  0  0  0
  8 52  1  0  0  0  0
 12 53  1  0  0  0  0
 14 54  1  0  0  0  0
 15 55  1  0  0  0  0
 16 56  1  0  0  0  0
 18 57  1  0  0  0  0
 18 58  1  0  0  0  0
 20 59  1  0  0  0  0
 22 60  1  0  0  0  0
 27 61  1  0  0  0  0
 28 62  1  0  0  0  0
 31 63  1  0  0  0  0
 31 64  1  0  0  0  0
 31 65  1  0  0  0  0
 34 66  1  0  0  0  0
 34 67  1  0  0  0  0
 34 68  1  0  0  0  0
 35 69  1  0  0  0  0
 36 70  1  0  0  0  0
M  END
> <s_user_Name>
CHEMBL3402741_400

> <IC50[nM]>
400

$$$$
CHEMBL3402741_400
  -OEChem-05192314313D
 Structure written by MMmdl.
 70 72  0     0  0  0  0  0  0999 V2000
   24.3934   31.0600   48.1947 C   0  0  0  0  0  0  0  0  0  0  0  0
   24.5318   32.4351   47.5178 C   0  0  0  0  0  0  0  0  0  0  0  0
   25.8474   33.1258   47.9679 N   0  0  0  0  0  0  0  0  0  0  0  0
   26.5614   33.7965   46.7640 C   0  0  0  0  0  0  0  0  0  0  0  0
   27.9647   34.3057   47.1323 C   0  0  0  0  0  0  0  0  0  0  0  0
   25.7058   34.0801   49.1798 C   0  0  0  0  0  0  0  0  0  0  0  0
   24.9918   33.4384   50.3755 C   0  0  0  0  0  0  0  0  0  0  0  0
   25.0659   34.3430   51.6089 C   0  0  0  0  0  0  0  0  0  0  0  0
   24.1175   33.9028   52.5724 O   0  0  0  0  0  0  0  0  0  0  0  0
   24.3859   33.9251   53.8856 C   0  0  0  0  0  0  0  0  0  0  0  0
   25.4468   34.3252   54.3755 O   0  0  0  0  0  0  0  0  0  0  0  0
   23.2712   33.4382   54.5535 N   0  0  0  0  0  0  0  0  0  0  0  0
   23.1060   33.1249   55.9113 C   0  0  0  0  0  0  0  0  0  0  0  0
   24.1478   33.1259   56.8531 C   0  0  0  0  0  0  0  0  0  0  0  0
   23.9046   32.7376   58.1696 C   0  0  0  0  0  0  0  0  0  0  0  0
   22.6221   32.3505   58.5593 C   0  0  0  0  0  0  0  0  0  0  0  0
   21.5763   32.3408   57.6345 C   0  0  0  0  0  0  0  0  0  0  0  0
   20.1645   31.9343   58.0656 C   0  0  0  0  0  0  0  0  0  0  0  0
   19.8549   30.5223   57.7688 N   0  0  0  0  0  0  0  0  0  0  0  0
   19.5510   30.2568   56.4647 N   0  0  0  0  0  0  0  0  0  0  0  0
   19.2595   29.1097   55.9735 C   0  0  0  0  0  0  0  0  0  0  0  0
   19.1563   27.8215   56.8125 C   0  0  0  0  0  0  0  0  0  0  0  0
   20.1073   27.8033   58.3756 S   0  0  0  0  0  0  0  0  0  0  0  0
   20.2026   29.5875   58.7616 C   0  0  0  0  0  0  0  0  0  0  0  0
   20.6464   29.8843   59.8760 O   0  0  0  0  0  0  0  0  0  0  0  0
   18.9915   28.9833   54.5231 C   0  0  0  0  0  0  0  0  0  0  0  0
   19.6332   29.8252   53.6061 C   0  0  0  0  0  0  0  0  0  0  0  0
   19.4012   29.7031   52.2393 C   0  0  0  0  0  0  0  0  0  0  0  0
   18.5163   28.7296   51.7479 C   0  0  0  0  0  0  0  0  0  0  0  0
   18.2446   28.5625   50.4000 O   0  0  0  0  0  0  0  0  0  0  0  0
   19.1055   29.1560   49.4367 C   0  0  0  0  0  0  0  0  0  0  0  0
   17.8607   27.8802   52.6511 C   0  0  0  0  0  0  0  0  0  0  0  0
   16.9971   26.9398   52.1194 O   0  0  0  0  0  0  0  0  0  0  0  0
   16.4627   25.9229   52.9609 C   0  0  0  0  0  0  0  0  0  0  0  0
   18.1083   28.0139   54.0302 C   0  0  0  0  0  0  0  0  0  0  0  0
   21.8257   32.7275   56.3134 C   0  0  0  0  0  0  0  0  0  0  0  0
   23.4582   30.5821   47.8675 H   0  0  0  0  0  0  0  0  0  0  0  0
   25.2470   30.4256   47.9138 H   0  0  0  0  0  0  0  0  0  0  0  0
   24.3763   31.1892   49.2870 H   0  0  0  0  0  0  0  0  0  0  0  0
   24.5465   32.3025   46.4259 H   0  0  0  0  0  0  0  0  0  0  0  0
   23.6758   33.0661   47.7991 H   0  0  0  0  0  0  0  0  0  0  0  0
   26.6533   33.0606   45.9516 H   0  0  0  0  0  0  0  0  0  0  0  0
   25.9544   34.6473   46.4211 H   0  0  0  0  0  0  0  0  0  0  0  0
   28.4295   34.7713   46.2507 H   0  0  0  0  0  0  0  0  0  0  0  0
   27.8849   35.0484   47.9398 H   0  0  0  0  0  0  0  0  0  0  0  0
   28.5839   33.4617   47.4703 H   0  0  0  0  0  0  0  0  0  0  0  0
   26.7115   34.3909   49.4991 H   0  0  0  0  0  0  0  0  0  0  0  0
   25.1321   34.9638   48.8635 H   0  0  0  0  0  0  0  0  0  0  0  0
   23.9362   33.2697   50.1160 H   0  0  0  0  0  0  0  0  0  0  0  0
   25.4710   32.4755   50.6063 H   0  0  0  0  0  0  0  0  0  0  0  0
   26.0769   34.2947   52.0398 H   0  0  0  0  0  0  0  0  0  0  0  0
   24.8403   35.3797   51.3183 H   0  0  0  0  0  0  0  0  0  0  0  0
   25.4087   34.2469   55.3215 H   0  0  0  0  0  0  0  0  0  0  0  0
   25.1411   33.4286   56.5563 H   0  0  0  0  0  0  0  0  0  0  0  0
   24.7101   32.7364   58.8890 H   0  0  0  0  0  0  0  0  0  0  0  0
   22.4373   32.0567   59.5820 H   0  0  0  0  0  0  0  0  0  0  0  0
   20.0696   32.0935   59.1499 H   0  0  0  0  0  0  0  0  0  0  0  0
   19.4397   32.5707   57.5368 H   0  0  0  0  0  0  0  0  0  0  0  0
   18.7640   30.8376   56.2565 H   0  0  0  0  0  0  0  0  0  0  0  0
   18.5583   26.9794   56.4968 H   0  0  0  0  0  0  0  0  0  0  0  0
   20.3177   30.5797   53.9646 H   0  0  0  0  0  0  0  0  0  0  0  0
   19.9065   30.3633   51.5500 H   0  0  0  0  0  0  0  0  0  0  0  0
   18.7414   28.9223   48.4254 H   0  0  0  0  0  0  0  0  0  0  0  0
   19.1180   30.2467   49.5789 H   0  0  0  0  0  0  0  0  0  0  0  0
   20.1236   28.7584   49.5607 H   0  0  0  0  0  0  0  0  0  0  0  0
   15.8012   25.2697   52.3729 H   0  0  0  0  0  0  0  0  0  0  0  0
   17.2852   25.3270   53.3833 H   0  0  0  0  0  0  0  0  0  0  0  0
   15.8890   26.3864   53.7770 H   0  0  0  0  0  0  0  0  0  0  0  0
   17.6066   27.3550   54.7234 H   0  0  0  0  0  0  0  0  0  0  0  0
   21.0198   32.7193   55.5945 H   0  0  0  0  0  0  0  0  0  0  0  0
  1  2  1  0  0  0  0
  2  3  1  0  0  0  0
  3  4  1  0  0  0  0
  3  6  1  0  0  0  0
  4  5  1  0  0  0  0
  6  7  1  0  0  0  0
  7  8  1  0  0  0  0
  8  9  1  0  0  0  0
  9 10  1  0  0  0  0
 10 11  1  0  0  0  0
 10 12  2  0  0  0  0
 12 13  1  0  0  0  0
 13 14  2  0  0  0  0
 13 36  1  0  0  0  0
 14 15  1  0  0  0  0
 15 16  2  0  0  0  0
 16 17  1  0  0  0  0
 17 18  1  0  0  0  0
 17 36  2  0  0  0  0
 18 19  1  0  0  0  0
 19 20  1  0  0  0  0
 19 24  1  0  0  0  0
 20 21  1  0  0  0  0
 21 22  2  0  0  0  0
 21 26  1  0  0  0  0
 22 23  1  0  0  0  0
 23 24  1  0  0  0  0
 24 25  2  0  0  0  0
 26 27  2  0  0  0  0
 26 35  1  0  0  0  0
 27 28  1  0  0  0  0
 28 29  2  0  0  0  0
 29 30  1  0  0  0  0
 29 32  1  0  0  0  0
 30 31  1  0  0  0  0
 32 33  1  0  0  0  0
 32 35  2  0  0  0  0
 33 34  1  0  0  0  0
  1 37  1  0  0  0  0
  1 38  1  0  0  0  0
  1 39  1  0  0  0  0
  2 40  1  0  0  0  0
  2 41  1  0  0  0  0
  4 42  1  0  0  0  0
  4 43  1  0  0  0  0
  5 44  1  0  0  0  0
  5 45  1  0  0  0  0
  5 46  1  0  0  0  0
  6 47  1  0  0  0  0
  6 48  1  0  0  0  0
  7 49  1  0  0  0  0
  7 50  1  0  0  0  0
  8 51  1  0  0  0  0
  8 52  1  0  0  0  0
 11 53  1  0  0  0  0
 14 54  1  0  0  0  0
 15 55  1  0  0  0  0
 16 56  1  0  0  0  0
 18 57  1  0  0  0  0
 18 58  1  0  0  0  0
 20 59  1  0  0  0  0
 22 60  1  0  0  0  0
 27 61  1  0  0  0  0
 28 62  1  0  0  0  0
 31 63  1  0  0  0  0
 31 64  1  0  0  0  0
 31 65  1  0  0  0  0
 34 66  1  0  0  0  0
 34 67  1  0  0  0  0
 34 68  1  0  0  0  0
 35 69  1  0  0  0  0
 36 70  1  0  0  0  0
M  END
> <s_user_Name>
CHEMBL3402741_400

> <IC50[nM]>
400

$$$$
CHEMBL3402741_400
  -OEChem-05192314313D
 Structure written by MMmdl.
 70 72  0     0  0  0  0  0  0999 V2000
   24.3934   31.0600   48.1947 C   0  0  0  0  0  0  0  0  0  0  0  0
   24.5318   32.4351   47.5178 C   0  0  0  0  0  0  0  0  0  0  0  0
   25.8474   33.1258   47.9679 N   0  0  0  0  0  0  0  0  0  0  0  0
   26.5614   33.7965   46.7640 C   0  0  0  0  0  0  0  0  0  0  0  0
   27.9647   34.3057   47.1323 C   0  0  0  0  0  0  0  0  0  0  0  0
   25.7058   34.0801   49.1798 C   0  0  0  0  0  0  0  0  0  0  0  0
   24.9918   33.4384   50.3755 C   0  0  0  0  0  0  0  0  0  0  0  0
   25.0659   34.3430   51.6089 C   0  0  0  0  0  0  0  0  0  0  0  0
   24.1175   33.9028   52.5724 O   0  0  0  0  0  0  0  0  0  0  0  0
   24.3859   33.9251   53.8856 C   0  0  0  0  0  0  0  0  0  0  0  0
   25.4468   34.3252   54.3755 O   0  0  0  0  0  0  0  0  0  0  0  0
   23.2712   33.4382   54.5535 N   0  0  0  0  0  0  0  0  0  0  0  0
   23.1060   33.1249   55.9113 C   0  0  0  0  0  0  0  0  0  0  0  0
   24.1478   33.1259   56.8531 C   0  0  0  0  0  0  0  0  0  0  0  0
   23.9046   32.7376   58.1696 C   0  0  0  0  0  0  0  0  0  0  0  0
   22.6221   32.3505   58.5593 C   0  0  0  0  0  0  0  0  0  0  0  0
   21.5763   32.3408   57.6345 C   0  0  0  0  0  0  0  0  0  0  0  0
   20.1645   31.9343   58.0656 C   0  0  0  0  0  0  0  0  0  0  0  0
   19.8549   30.5223   57.7688 N   0  0  0  0  0  0  0  0  0  0  0  0
   19.5510   30.2568   56.4647 N   0  0  0  0  0  0  0  0  0  0  0  0
   19.2595   29.1097   55.9735 C   0  0  0  0  0  0  0  0  0  0  0  0
   19.1563   27.8215   56.8125 C   0  0  0  0  0  0  0  0  0  0  0  0
   20.1073   27.8033   58.3756 S   0  0  0  0  0  0  0  0  0  0  0  0
   20.2026   29.5875   58.7616 C   0  0  0  0  0  0  0  0  0  0  0  0
   20.6464   29.8843   59.8760 O   0  0  0  0  0  0  0  0  0  0  0  0
   18.9915   28.9833   54.5231 C   0  0  0  0  0  0  0  0  0  0  0  0
   19.6332   29.8252   53.6061 C   0  0  0  0  0  0  0  0  0  0  0  0
   19.4012   29.7031   52.2393 C   0  0  0  0  0  0  0  0  0  0  0  0
   18.5163   28.7296   51.7479 C   0  0  0  0  0  0  0  0  0  0  0  0
   18.2446   28.5625   50.4000 O   0  0  0  0  0  0  0  0  0  0  0  0
   19.1055   29.1560   49.4367 C   0  0  0  0  0  0  0  0  0  0  0  0
   17.8607   27.8802   52.6511 C   0  0  0  0  0  0  0  0  0  0  0  0
   16.9971   26.9398   52.1194 O   0  0  0  0  0  0  0  0  0  0  0  0
   16.4627   25.9229   52.9609 C   0  0  0  0  0  0  0  0  0  0  0  0
   18.1083   28.0139   54.0302 C   0  0  0  0  0  0  0  0  0  0  0  0
   21.8257   32.7275   56.3134 C   0  0  0  0  0  0  0  0  0  0  0  0
   23.4582   30.5821   47.8675 H   0  0  0  0  0  0  0  0  0  0  0  0
   25.2470   30.4256   47.9138 H   0  0  0  0  0  0  0  0  0  0  0  0
   24.3763   31.1892   49.2870 H   0  0  0  0  0  0  0  0  0  0  0  0
   24.5465   32.3025   46.4259 H   0  0  0  0  0  0  0  0  0  0  0  0
   23.6758   33.0661   47.7991 H   0  0  0  0  0  0  0  0  0  0  0  0
   26.6533   33.0606   45.9516 H   0  0  0  0  0  0  0  0  0  0  0  0
   25.9544   34.6473   46.4211 H   0  0  0  0  0  0  0  0  0  0  0  0
   28.4295   34.7713   46.2507 H   0  0  0  0  0  0  0  0  0  0  0  0
   27.8849   35.0484   47.9398 H   0  0  0  0  0  0  0  0  0  0  0  0
   28.5839   33.4617   47.4703 H   0  0  0  0  0  0  0  0  0  0  0  0
   26.7115   34.3909   49.4991 H   0  0  0  0  0  0  0  0  0  0  0  0
   25.1321   34.9638   48.8635 H   0  0  0  0  0  0  0  0  0  0  0  0
   23.9362   33.2697   50.1160 H   0  0  0  0  0  0  0  0  0  0  0  0
   25.4710   32.4755   50.6063 H   0  0  0  0  0  0  0  0  0  0  0  0
   26.0769   34.2947   52.0398 H   0  0  0  0  0  0  0  0  0  0  0  0
   24.8403   35.3797   51.3183 H   0  0  0  0  0  0  0  0  0  0  0  0
   24.9268   32.4539   56.4638 H   0  0  0  0  0  0  0  0  0  0  0  0
   24.5370   34.1540   56.8933 H   0  0  0  0  0  0  0  0  0  0  0  0
   24.7101   32.7364   58.8890 H   0  0  0  0  0  0  0  0  0  0  0  0
   22.4373   32.0567   59.5820 H   0  0  0  0  0  0  0  0  0  0  0  0
   20.0696   32.0935   59.1499 H   0  0  0  0  0  0  0  0  0  0  0  0
   19.4397   32.5707   57.5368 H   0  0  0  0  0  0  0  0  0  0  0  0
   18.0962   27.6664   57.0618 H   0  0  0  0  0  0  0  0  0  0  0  0
   19.5130   26.9863   56.1919 H   0  0  0  0  0  0  0  0  0  0  0  0
   20.3177   30.5797   53.9646 H   0  0  0  0  0  0  0  0  0  0  0  0
   19.9065   30.3633   51.5500 H   0  0  0  0  0  0  0  0  0  0  0  0
   18.7414   28.9223   48.4254 H   0  0  0  0  0  0  0  0  0  0  0  0
   19.1180   30.2467   49.5789 H   0  0  0  0  0  0  0  0  0  0  0  0
   20.1236   28.7584   49.5607 H   0  0  0  0  0  0  0  0  0  0  0  0
   15.8012   25.2697   52.3729 H   0  0  0  0  0  0  0  0  0  0  0  0
   17.2852   25.3270   53.3833 H   0  0  0  0  0  0  0  0  0  0  0  0
   15.8890   26.3864   53.7770 H   0  0  0  0  0  0  0  0  0  0  0  0
   17.6066   27.3550   54.7234 H   0  0  0  0  0  0  0  0  0  0  0  0
   21.0198   32.7193   55.5945 H   0  0  0  0  0  0  0  0  0  0  0  0
  1  2  1  0  0  0  0
  2  3  1  0  0  0  0
  3  4  1  0  0  0  0
  3  6  1  0  0  0  0
  4  5  1  0  0  0  0
  6  7  1  0  0  0  0
  7  8  1  0  0  0  0
  8  9  1  0  0  0  0
  9 10  1  0  0  0  0
 10 11  2  0  0  0  0
 10 12  1  0  0  0  0
 12 13  2  0  0  0  0
 13 14  1  0  0  0  0
 13 36  1  0  0  0  0
 14 15  1  0  0  0  0
 15 16  2  0  0  0  0
 16 17  1  0  0  0  0
 17 18  1  0  0  0  0
 17 36  2  0  0  0  0
 18 19  1  0  0  0  0
 19 20  1  0  0  0  0
 19 24  1  0  0  0  0
 20 21  2  0  0  0  0
 21 22  1  0  0  0  0
 21 26  1  0  0  0  0
 22 23  1  0  0  0  0
 23 24  1  0  0  0  0
 24 25  2  0  0  0  0
 26 27  2  0  0  0  0
 26 35  1  0  0  0  0
 27 28  1  0  0  0  0
 28 29  2  0  0  0  0
 29 30  1  0  0  0  0
 29 32  1  0  0  0  0
 30 31  1  0  0  0  0
 32 33  1  0  0  0  0
 32 35  2  0  0  0  0
 33 34  1  0  0  0  0
  1 37  1  0  0  0  0
  1 38  1  0  0  0  0
  1 39  1  0  0  0  0
  2 40  1  0  0  0  0
  2 41  1  0  0  0  0
  4 42  1  0  0  0  0
  4 43  1  0  0  0  0
  5 44  1  0  0  0  0
  5 45  1  0  0  0  0
  5 46  1  0  0  0  0
  6 47  1  0  0  0  0
  6 48  1  0  0  0  0
  7 49  1  0  0  0  0
  7 50  1  0  0  0  0
  8 51  1  0  0  0  0
  8 52  1  0  0  0  0
 14 53  1  0  0  0  0
 14 54  1  0  0  0  0
 15 55  1  0  0  0  0
 16 56  1  0  0  0  0
 18 57  1  0  0  0  0
 18 58  1  0  0  0  0
 22 59  1  0  0  0  0
 22 60  1  0  0  0  0
 27 61  1  0  0  0  0
 28 62  1  0  0  0  0
 31 63  1  0  0  0  0
 31 64  1  0  0  0  0
 31 65  1  0  0  0  0
 34 66  1  0  0  0  0
 34 67  1  0  0  0  0
 34 68  1  0  0  0  0
 35 69  1  0  0  0  0
 36 70  1  0  0  0  0
M  END
> <s_user_Name>
CHEMBL3402741_400

> <IC50[nM]>
400

$$$$
CHEMBL3402741_400
  -OEChem-05192314313D
 Structure written by MMmdl.
 70 72  0     0  0  0  0  0  0999 V2000
   24.3934   31.0600   48.1947 C   0  0  0  0  0  0  0  0  0  0  0  0
   24.5318   32.4351   47.5178 C   0  0  0  0  0  0  0  0  0  0  0  0
   25.8474   33.1258   47.9679 N   0  0  0  0  0  0  0  0  0  0  0  0
   26.5614   33.7965   46.7640 C   0  0  0  0  0  0  0  0  0  0  0  0
   27.9647   34.3057   47.1323 C   0  0  0  0  0  0  0  0  0  0  0  0
   25.7058   34.0801   49.1798 C   0  0  0  0  0  0  0  0  0  0  0  0
   24.9918   33.4384   50.3755 C   0  0  0  0  0  0  0  0  0  0  0  0
   25.0659   34.3430   51.6089 C   0  0  0  0  0  0  0  0  0  0  0  0
   24.1175   33.9028   52.5724 O   0  0  0  0  0  0  0  0  0  0  0  0
   24.3859   33.9251   53.8856 C   0  0  0  0  0  0  0  0  0  0  0  0
   25.4468   34.3252   54.3755 O   0  0  0  0  0  0  0  0  0  0  0  0
   23.2712   33.4382   54.5535 N   0  0  0  0  0  0  0  0  0  0  0  0
   23.1060   33.1249   55.9113 C   0  0  0  0  0  0  0  0  0  0  0  0
   24.1478   33.1259   56.8531 C   0  0  0  0  0  0  0  0  0  0  0  0
   23.9046   32.7376   58.1696 C   0  0  0  0  0  0  0  0  0  0  0  0
   22.6221   32.3505   58.5593 C   0  0  0  0  0  0  0  0  0  0  0  0
   21.5763   32.3408   57.6345 C   0  0  0  0  0  0  0  0  0  0  0  0
   20.1645   31.9343   58.0656 C   0  0  0  0  0  0  0  0  0  0  0  0
   19.8549   30.5223   57.7688 N   0  0  0  0  0  0  0  0  0  0  0  0
   19.5510   30.2568   56.4647 N   0  0  0  0  0  0  0  0  0  0  0  0
   19.2595   29.1097   55.9735 C   0  0  0  0  0  0  0  0  0  0  0  0
   19.1563   27.8215   56.8125 C   0  0  0  0  0  0  0  0  0  0  0  0
   20.1073   27.8033   58.3756 S   0  0  0  0  0  0  0  0  0  0  0  0
   20.2026   29.5875   58.7616 C   0  0  0  0  0  0  0  0  0  0  0  0
   20.6464   29.8843   59.8760 O   0  0  0  0  0  0  0  0  0  0  0  0
   18.9915   28.9833   54.5231 C   0  0  0  0  0  0  0  0  0  0  0  0
   19.6332   29.8252   53.6061 C   0  0  0  0  0  0  0  0  0  0  0  0
   19.4012   29.7031   52.2393 C   0  0  0  0  0  0  0  0  0  0  0  0
   18.5163   28.7296   51.7479 C   0  0  0  0  0  0  0  0  0  0  0  0
   18.2446   28.5625   50.4000 O   0  0  0  0  0  0  0  0  0  0  0  0
   19.1055   29.1560   49.4367 C   0  0  0  0  0  0  0  0  0  0  0  0
   17.8607   27.8802   52.6511 C   0  0  0  0  0  0  0  0  0  0  0  0
   16.9971   26.9398   52.1194 O   0  0  0  0  0  0  0  0  0  0  0  0
   16.4627   25.9229   52.9609 C   0  0  0  0  0  0  0  0  0  0  0  0
   18.1083   28.0139   54.0302 C   0  0  0  0  0  0  0  0  0  0  0  0
   21.8257   32.7275   56.3134 C   0  0  0  0  0  0  0  0  0  0  0  0
   23.4582   30.5821   47.8675 H   0  0  0  0  0  0  0  0  0  0  0  0
   25.2470   30.4256   47.9138 H   0  0  0  0  0  0  0  0  0  0  0  0
   24.3763   31.1892   49.2870 H   0  0  0  0  0  0  0  0  0  0  0  0
   24.5465   32.3025   46.4259 H   0  0  0  0  0  0  0  0  0  0  0  0
   23.6758   33.0661   47.7991 H   0  0  0  0  0  0  0  0  0  0  0  0
   26.6533   33.0606   45.9516 H   0  0  0  0  0  0  0  0  0  0  0  0
   25.9544   34.6473   46.4211 H   0  0  0  0  0  0  0  0  0  0  0  0
   28.4295   34.7713   46.2507 H   0  0  0  0  0  0  0  0  0  0  0  0
   27.8849   35.0484   47.9398 H   0  0  0  0  0  0  0  0  0  0  0  0
   28.5839   33.4617   47.4703 H   0  0  0  0  0  0  0  0  0  0  0  0
   26.7115   34.3909   49.4991 H   0  0  0  0  0  0  0  0  0  0  0  0
   25.1321   34.9638   48.8635 H   0  0  0  0  0  0  0  0  0  0  0  0
   23.9362   33.2697   50.1160 H   0  0  0  0  0  0  0  0  0  0  0  0
   25.4710   32.4755   50.6063 H   0  0  0  0  0  0  0  0  0  0  0  0
   26.0769   34.2947   52.0398 H   0  0  0  0  0  0  0  0  0  0  0  0
   24.8403   35.3797   51.3183 H   0  0  0  0  0  0  0  0  0  0  0  0
   25.1411   33.4286   56.5563 H   0  0  0  0  0  0  0  0  0  0  0  0
   24.7101   32.7364   58.8890 H   0  0  0  0  0  0  0  0  0  0  0  0
   22.7068   31.3261   58.9510 H   0  0  0  0  0  0  0  0  0  0  0  0
   22.3201   33.0294   59.3704 H   0  0  0  0  0  0  0  0  0  0  0  0
   20.0696   32.0935   59.1499 H   0  0  0  0  0  0  0  0  0  0  0  0
   19.4397   32.5707   57.5368 H   0  0  0  0  0  0  0  0  0  0  0  0
   18.0962   27.6664   57.0618 H   0  0  0  0  0  0  0  0  0  0  0  0
   19.5130   26.9863   56.1919 H   0  0  0  0  0  0  0  0  0  0  0  0
   20.3177   30.5797   53.9646 H   0  0  0  0  0  0  0  0  0  0  0  0
   19.9065   30.3633   51.5500 H   0  0  0  0  0  0  0  0  0  0  0  0
   18.7414   28.9223   48.4254 H   0  0  0  0  0  0  0  0  0  0  0  0
   19.1180   30.2467   49.5789 H   0  0  0  0  0  0  0  0  0  0  0  0
   20.1236   28.7584   49.5607 H   0  0  0  0  0  0  0  0  0  0  0  0
   15.8012   25.2697   52.3729 H   0  0  0  0  0  0  0  0  0  0  0  0
   17.2852   25.3270   53.3833 H   0  0  0  0  0  0  0  0  0  0  0  0
   15.8890   26.3864   53.7770 H   0  0  0  0  0  0  0  0  0  0  0  0
   17.6066   27.3550   54.7234 H   0  0  0  0  0  0  0  0  0  0  0  0
   21.0198   32.7193   55.5945 H   0  0  0  0  0  0  0  0  0  0  0  0
  1  2  1  0  0  0  0
  2  3  1  0  0  0  0
  3  4  1  0  0  0  0
  3  6  1  0  0  0  0
  4  5  1  0  0  0  0
  6  7  1  0  0  0  0
  7  8  1  0  0  0  0
  8  9  1  0  0  0  0
  9 10  1  0  0  0  0
 10 11  2  0  0  0  0
 10 12  1  0  0  0  0
 12 13  2  0  0  0  0
 13 14  1  0  0  0  0
 13 36  1  0  0  0  0
 14 15  2  0  0  0  0
 15 16  1  0  0  0  0
 16 17  1  0  0  0  0
 17 18  1  0  0  0  0
 17 36  2  0  0  0  0
 18 19  1  0  0  0  0
 19 20  1  0  0  0  0
 19 24  1  0  0  0  0
 20 21  2  0  0  0  0
 21 22  1  0  0  0  0
 21 26  1  0  0  0  0
 22 23  1  0  0  0  0
 23 24  1  0  0  0  0
 24 25  2  0  0  0  0
 26 27  2  0  0  0  0
 26 35  1  0  0  0  0
 27 28  1  0  0  0  0
 28 29  2  0  0  0  0
 29 30  1  0  0  0  0
 29 32  1  0  0  0  0
 30 31  1  0  0  0  0
 32 33  1  0  0  0  0
 32 35  2  0  0  0  0
 33 34  1  0  0  0  0
  1 37  1  0  0  0  0
  1 38  1  0  0  0  0
  1 39  1  0  0  0  0
  2 40  1  0  0  0  0
  2 41  1  0  0  0  0
  4 42  1  0  0  0  0
  4 43  1  0  0  0  0
  5 44  1  0  0  0  0
  5 45  1  0  0  0  0
  5 46  1  0  0  0  0
  6 47  1  0  0  0  0
  6 48  1  0  0  0  0
  7 49  1  0  0  0  0
  7 50  1  0  0  0  0
  8 51  1  0  0  0  0
  8 52  1  0  0  0  0
 14 53  1  0  0  0  0
 15 54  1  0  0  0  0
 16 55  1  0  0  0  0
 16 56  1  0  0  0  0
 18 57  1  0  0  0  0
 18 58  1  0  0  0  0
 22 59  1  0  0  0  0
 22 60  1  0  0  0  0
 27 61  1  0  0  0  0
 28 62  1  0  0  0  0
 31 63  1  0  0  0  0
 31 64  1  0  0  0  0
 31 65  1  0  0  0  0
 34 66  1  0  0  0  0
 34 67  1  0  0  0  0
 34 68  1  0  0  0  0
 35 69  1  0  0  0  0
 36 70  1  0  0  0  0
M  END
> <s_user_Name>
CHEMBL3402741_400

> <IC50[nM]>
400

$$$$
CHEMBL3402741_400
  -OEChem-05192314313D
 Structure written by MMmdl.
 70 72  0     0  0  0  0  0  0999 V2000
   24.3934   31.0600   48.1947 C   0  0  0  0  0  0  0  0  0  0  0  0
   24.5318   32.4351   47.5178 C   0  0  0  0  0  0  0  0  0  0  0  0
   25.8474   33.1258   47.9679 N   0  0  0  0  0  0  0  0  0  0  0  0
   26.5614   33.7965   46.7640 C   0  0  0  0  0  0  0  0  0  0  0  0
   27.9647   34.3057   47.1323 C   0  0  0  0  0  0  0  0  0  0  0  0
   25.7058   34.0801   49.1798 C   0  0  0  0  0  0  0  0  0  0  0  0
   24.9918   33.4384   50.3755 C   0  0  0  0  0  0  0  0  0  0  0  0
   25.0659   34.3430   51.6089 C   0  0  0  0  0  0  0  0  0  0  0  0
   24.1175   33.9028   52.5724 O   0  0  0  0  0  0  0  0  0  0  0  0
   24.3859   33.9251   53.8856 C   0  0  0  0  0  0  0  0  0  0  0  0
   25.4468   34.3252   54.3755 O   0  0  0  0  0  0  0  0  0  0  0  0
   23.2712   33.4382   54.5535 N   0  0  0  0  0  0  0  0  0  0  0  0
   23.1060   33.1249   55.9113 C   0  0  0  0  0  0  0  0  0  0  0  0
   24.1478   33.1259   56.8531 C   0  0  0  0  0  0  0  0  0  0  0  0
   23.9046   32.7376   58.1696 C   0  0  0  0  0  0  0  0  0  0  0  0
   22.6221   32.3505   58.5593 C   0  0  0  0  0  0  0  0  0  0  0  0
   21.5763   32.3408   57.6345 C   0  0  0  0  0  0  0  0  0  0  0  0
   20.1645   31.9343   58.0656 C   0  0  0  0  0  0  0  0  0  0  0  0
   19.8549   30.5223   57.7688 N   0  0  0  0  0  0  0  0  0  0  0  0
   19.5510   30.2568   56.4647 N   0  0  0  0  0  0  0  0  0  0  0  0
   19.2595   29.1097   55.9735 C   0  0  0  0  0  0  0  0  0  0  0  0
   19.1563   27.8215   56.8125 C   0  0  0  0  0  0  0  0  0  0  0  0
   20.1073   27.8033   58.3756 S   0  0  0  0  0  0  0  0  0  0  0  0
   20.2026   29.5875   58.7616 C   0  0  0  0  0  0  0  0  0  0  0  0
   20.6464   29.8843   59.8760 O   0  0  0  0  0  0  0  0  0  0  0  0
   18.9915   28.9833   54.5231 C   0  0  0  0  0  0  0  0  0  0  0  0
   19.6332   29.8252   53.6061 C   0  0  0  0  0  0  0  0  0  0  0  0
   19.4012   29.7031   52.2393 C   0  0  0  0  0  0  0  0  0  0  0  0
   18.5163   28.7296   51.7479 C   0  0  0  0  0  0  0  0  0  0  0  0
   18.2446   28.5625   50.4000 O   0  0  0  0  0  0  0  0  0  0  0  0
   19.1055   29.1560   49.4367 C   0  0  0  0  0  0  0  0  0  0  0  0
   17.8607   27.8802   52.6511 C   0  0  0  0  0  0  0  0  0  0  0  0
   16.9971   26.9398   52.1194 O   0  0  0  0  0  0  0  0  0  0  0  0
   16.4627   25.9229   52.9609 C   0  0  0  0  0  0  0  0  0  0  0  0
   18.1083   28.0139   54.0302 C   0  0  0  0  0  0  0  0  0  0  0  0
   21.8257   32.7275   56.3134 C   0  0  0  0  0  0  0  0  0  0  0  0
   23.4582   30.5821   47.8675 H   0  0  0  0  0  0  0  0  0  0  0  0
   25.2470   30.4256   47.9138 H   0  0  0  0  0  0  0  0  0  0  0  0
   24.3763   31.1892   49.2870 H   0  0  0  0  0  0  0  0  0  0  0  0
   24.5465   32.3025   46.4259 H   0  0  0  0  0  0  0  0  0  0  0  0
   23.6758   33.0661   47.7991 H   0  0  0  0  0  0  0  0  0  0  0  0
   26.6533   33.0606   45.9516 H   0  0  0  0  0  0  0  0  0  0  0  0
   25.9544   34.6473   46.4211 H   0  0  0  0  0  0  0  0  0  0  0  0
   28.4295   34.7713   46.2507 H   0  0  0  0  0  0  0  0  0  0  0  0
   27.8849   35.0484   47.9398 H   0  0  0  0  0  0  0  0  0  0  0  0
   28.5839   33.4617   47.4703 H   0  0  0  0  0  0  0  0  0  0  0  0
   26.7115   34.3909   49.4991 H   0  0  0  0  0  0  0  0  0  0  0  0
   25.1321   34.9638   48.8635 H   0  0  0  0  0  0  0  0  0  0  0  0
   23.9362   33.2697   50.1160 H   0  0  0  0  0  0  0  0  0  0  0  0
   25.4710   32.4755   50.6063 H   0  0  0  0  0  0  0  0  0  0  0  0
   26.0769   34.2947   52.0398 H   0  0  0  0  0  0  0  0  0  0  0  0
   24.8403   35.3797   51.3183 H   0  0  0  0  0  0  0  0  0  0  0  0
   25.1411   33.4286   56.5563 H   0  0  0  0  0  0  0  0  0  0  0  0
   24.7101   32.7364   58.8890 H   0  0  0  0  0  0  0  0  0  0  0  0
   22.4373   32.0567   59.5820 H   0  0  0  0  0  0  0  0  0  0  0  0
   20.0696   32.0935   59.1499 H   0  0  0  0  0  0  0  0  0  0  0  0
   19.4397   32.5707   57.5368 H   0  0  0  0  0  0  0  0  0  0  0  0
   18.0962   27.6664   57.0618 H   0  0  0  0  0  0  0  0  0  0  0  0
   19.5130   26.9863   56.1919 H   0  0  0  0  0  0  0  0  0  0  0  0
   20.3177   30.5797   53.9646 H   0  0  0  0  0  0  0  0  0  0  0  0
   19.9065   30.3633   51.5500 H   0  0  0  0  0  0  0  0  0  0  0  0
   18.7414   28.9223   48.4254 H   0  0  0  0  0  0  0  0  0  0  0  0
   19.1180   30.2467   49.5789 H   0  0  0  0  0  0  0  0  0  0  0  0
   20.1236   28.7584   49.5607 H   0  0  0  0  0  0  0  0  0  0  0  0
   15.8012   25.2697   52.3729 H   0  0  0  0  0  0  0  0  0  0  0  0
   17.2852   25.3270   53.3833 H   0  0  0  0  0  0  0  0  0  0  0  0
   15.8890   26.3864   53.7770 H   0  0  0  0  0  0  0  0  0  0  0  0
   17.6066   27.3550   54.7234 H   0  0  0  0  0  0  0  0  0  0  0  0
   21.1544   33.5729   56.1022 H   0  0  0  0  0  0  0  0  0  0  0  0
   21.5493   31.8724   55.6790 H   0  0  0  0  0  0  0  0  0  0  0  0
  1  2  1  0  0  0  0
  2  3  1  0  0  0  0
  3  4  1  0  0  0  0
  3  6  1  0  0  0  0
  4  5  1  0  0  0  0
  6  7  1  0  0  0  0
  7  8  1  0  0  0  0
  8  9  1  0  0  0  0
  9 10  1  0  0  0  0
 10 11  2  0  0  0  0
 10 12  1  0  0  0  0
 12 13  2  0  0  0  0
 13 14  1  0  0  0  0
 13 36  1  0  0  0  0
 14 15  2  0  0  0  0
 15 16  1  0  0  0  0
 16 17  2  0  0  0  0
 17 18  1  0  0  0  0
 17 36  1  0  0  0  0
 18 19  1  0  0  0  0
 19 20  1  0  0  0  0
 19 24  1  0  0  0  0
 20 21  2  0  0  0  0
 21 22  1  0  0  0  0
 21 26  1  0  0  0  0
 22 23  1  0  0  0  0
 23 24  1  0  0  0  0
 24 25  2  0  0  0  0
 26 27  2  0  0  0  0
 26 35  1  0  0  0  0
 27 28  1  0  0  0  0
 28 29  2  0  0  0  0
 29 30  1  0  0  0  0
 29 32  1  0  0  0  0
 30 31  1  0  0  0  0
 32 33  1  0  0  0  0
 32 35  2  0  0  0  0
 33 34  1  0  0  0  0
  1 37  1  0  0  0  0
  1 38  1  0  0  0  0
  1 39  1  0  0  0  0
  2 40  1  0  0  0  0
  2 41  1  0  0  0  0
  4 42  1  0  0  0  0
  4 43  1  0  0  0  0
  5 44  1  0  0  0  0
  5 45  1  0  0  0  0
  5 46  1  0  0  0  0
  6 47  1  0  0  0  0
  6 48  1  0  0  0  0
  7 49  1  0  0  0  0
  7 50  1  0  0  0  0
  8 51  1  0  0  0  0
  8 52  1  0  0  0  0
 14 53  1  0  0  0  0
 15 54  1  0  0  0  0
 16 55  1  0  0  0  0
 18 56  1  0  0  0  0
 18 57  1  0  0  0  0
 22 58  1  0  0  0  0
 22 59  1  0  0  0  0
 27 60  1  0  0  0  0
 28 61  1  0  0  0  0
 31 62  1  0  0  0  0
 31 63  1  0  0  0  0
 31 64  1  0  0  0  0
 34 65  1  0  0  0  0
 34 66  1  0  0  0  0
 34 67  1  0  0  0  0
 35 68  1  0  0  0  0
 36 69  1  0  0  0  0
 36 70  1  0  0  0  0
M  END
> <s_user_Name>
CHEMBL3402741_400

> <IC50[nM]>
400

$$$$
CHEMBL3402741_400
  -OEChem-05192314313D
 Structure written by MMmdl.
 70 72  0     0  0  0  0  0  0999 V2000
   24.3934   31.0600   48.1947 C   0  0  0  0  0  0  0  0  0  0  0  0
   24.5318   32.4351   47.5178 C   0  0  0  0  0  0  0  0  0  0  0  0
   25.8474   33.1258   47.9679 N   0  0  0  0  0  0  0  0  0  0  0  0
   26.5614   33.7965   46.7640 C   0  0  0  0  0  0  0  0  0  0  0  0
   27.9647   34.3057   47.1323 C   0  0  0  0  0  0  0  0  0  0  0  0
   25.7058   34.0801   49.1798 C   0  0  0  0  0  0  0  0  0  0  0  0
   24.9918   33.4384   50.3755 C   0  0  0  0  0  0  0  0  0  0  0  0
   25.0659   34.3430   51.6089 C   0  0  0  0  0  0  0  0  0  0  0  0
   24.1175   33.9028   52.5724 O   0  0  0  0  0  0  0  0  0  0  0  0
   24.3859   33.9251   53.8856 C   0  0  0  0  0  0  0  0  0  0  0  0
   25.4468   34.3252   54.3755 O   0  0  0  0  0  0  0  0  0  0  0  0
   23.2712   33.4382   54.5535 N   0  0  0  0  0  0  0  0  0  0  0  0
   23.1060   33.1249   55.9113 C   0  0  0  0  0  0  0  0  0  0  0  0
   24.1478   33.1259   56.8531 C   0  0  0  0  0  0  0  0  0  0  0  0
   23.9046   32.7376   58.1696 C   0  0  0  0  0  0  0  0  0  0  0  0
   22.6221   32.3505   58.5593 C   0  0  0  0  0  0  0  0  0  0  0  0
   21.5763   32.3408   57.6345 C   0  0  0  0  0  0  0  0  0  0  0  0
   20.1645   31.9343   58.0656 C   0  0  0  0  0  0  0  0  0  0  0  0
   19.8549   30.5223   57.7688 N   0  0  0  0  0  0  0  0  0  0  0  0
   19.5510   30.2568   56.4647 N   0  0  0  0  0  0  0  0  0  0  0  0
   19.2595   29.1097   55.9735 C   0  0  0  0  0  0  0  0  0  0  0  0
   19.1563   27.8215   56.8125 C   0  0  0  0  0  0  0  0  0  0  0  0
   20.1073   27.8033   58.3756 S   0  0  0  0  0  0  0  0  0  0  0  0
   20.2026   29.5875   58.7616 C   0  0  0  0  0  0  0  0  0  0  0  0
   20.6464   29.8843   59.8760 O   0  0  0  0  0  0  0  0  0  0  0  0
   18.9915   28.9833   54.5231 C   0  0  0  0  0  0  0  0  0  0  0  0
   19.6332   29.8252   53.6061 C   0  0  0  0  0  0  0  0  0  0  0  0
   19.4012   29.7031   52.2393 C   0  0  0  0  0  0  0  0  0  0  0  0
   18.5163   28.7296   51.7479 C   0  0  0  0  0  0  0  0  0  0  0  0
   18.2446   28.5625   50.4000 O   0  0  0  0  0  0  0  0  0  0  0  0
   19.1055   29.1560   49.4367 C   0  0  0  0  0  0  0  0  0  0  0  0
   17.8607   27.8802   52.6511 C   0  0  0  0  0  0  0  0  0  0  0  0
   16.9971   26.9398   52.1194 O   0  0  0  0  0  0  0  0  0  0  0  0
   16.4627   25.9229   52.9609 C   0  0  0  0  0  0  0  0  0  0  0  0
   18.1083   28.0139   54.0302 C   0  0  0  0  0  0  0  0  0  0  0  0
   21.8257   32.7275   56.3134 C   0  0  0  0  0  0  0  0  0  0  0  0
   23.4582   30.5821   47.8675 H   0  0  0  0  0  0  0  0  0  0  0  0
   25.2470   30.4256   47.9138 H   0  0  0  0  0  0  0  0  0  0  0  0
   24.3763   31.1892   49.2870 H   0  0  0  0  0  0  0  0  0  0  0  0
   24.5465   32.3025   46.4259 H   0  0  0  0  0  0  0  0  0  0  0  0
   23.6758   33.0661   47.7991 H   0  0  0  0  0  0  0  0  0  0  0  0
   26.6533   33.0606   45.9516 H   0  0  0  0  0  0  0  0  0  0  0  0
   25.9544   34.6473   46.4211 H   0  0  0  0  0  0  0  0  0  0  0  0
   28.4295   34.7713   46.2507 H   0  0  0  0  0  0  0  0  0  0  0  0
   27.8849   35.0484   47.9398 H   0  0  0  0  0  0  0  0  0  0  0  0
   28.5839   33.4617   47.4703 H   0  0  0  0  0  0  0  0  0  0  0  0
   26.7115   34.3909   49.4991 H   0  0  0  0  0  0  0  0  0  0  0  0
   25.1321   34.9638   48.8635 H   0  0  0  0  0  0  0  0  0  0  0  0
   23.9362   33.2697   50.1160 H   0  0  0  0  0  0  0  0  0  0  0  0
   25.4710   32.4755   50.6063 H   0  0  0  0  0  0  0  0  0  0  0  0
   26.0769   34.2947   52.0398 H   0  0  0  0  0  0  0  0  0  0  0  0
   24.8403   35.3797   51.3183 H   0  0  0  0  0  0  0  0  0  0  0  0
   24.9268   32.4539   56.4638 H   0  0  0  0  0  0  0  0  0  0  0  0
   24.5370   34.1540   56.8933 H   0  0  0  0  0  0  0  0  0  0  0  0
   24.7101   32.7364   58.8890 H   0  0  0  0  0  0  0  0  0  0  0  0
   22.4373   32.0567   59.5820 H   0  0  0  0  0  0  0  0  0  0  0  0
   20.0696   32.0935   59.1499 H   0  0  0  0  0  0  0  0  0  0  0  0
   19.4397   32.5707   57.5368 H   0  0  0  0  0  0  0  0  0  0  0  0
   18.7640   30.8376   56.2565 H   0  0  0  0  0  0  0  0  0  0  0  0
   18.5583   26.9794   56.4968 H   0  0  0  0  0  0  0  0  0  0  0  0
   20.3177   30.5797   53.9646 H   0  0  0  0  0  0  0  0  0  0  0  0
   19.9065   30.3633   51.5500 H   0  0  0  0  0  0  0  0  0  0  0  0
   18.7414   28.9223   48.4254 H   0  0  0  0  0  0  0  0  0  0  0  0
   19.1180   30.2467   49.5789 H   0  0  0  0  0  0  0  0  0  0  0  0
   20.1236   28.7584   49.5607 H   0  0  0  0  0  0  0  0  0  0  0  0
   15.8012   25.2697   52.3729 H   0  0  0  0  0  0  0  0  0  0  0  0
   17.2852   25.3270   53.3833 H   0  0  0  0  0  0  0  0  0  0  0  0
   15.8890   26.3864   53.7770 H   0  0  0  0  0  0  0  0  0  0  0  0
   17.6066   27.3550   54.7234 H   0  0  0  0  0  0  0  0  0  0  0  0
   21.0198   32.7193   55.5945 H   0  0  0  0  0  0  0  0  0  0  0  0
  1  2  1  0  0  0  0
  2  3  1  0  0  0  0
  3  4  1  0  0  0  0
  3  6  1  0  0  0  0
  4  5  1  0  0  0  0
  6  7  1  0  0  0  0
  7  8  1  0  0  0  0
  8  9  1  0  0  0  0
  9 10  1  0  0  0  0
 10 11  2  0  0  0  0
 10 12  1  0  0  0  0
 12 13  2  0  0  0  0
 13 14  1  0  0  0  0
 13 36  1  0  0  0  0
 14 15  1  0  0  0  0
 15 16  2  0  0  0  0
 16 17  1  0  0  0  0
 17 18  1  0  0  0  0
 17 36  2  0  0  0  0
 18 19  1  0  0  0  0
 19 20  1  0  0  0  0
 19 24  1  0  0  0  0
 20 21  1  0  0  0  0
 21 22  2  0  0  0  0
 21 26  1  0  0  0  0
 22 23  1  0  0  0  0
 23 24  1  0  0  0  0
 24 25  2  0  0  0  0
 26 27  2  0  0  0  0
 26 35  1  0  0  0  0
 27 28  1  0  0  0  0
 28 29  2  0  0  0  0
 29 30  1  0  0  0  0
 29 32  1  0  0  0  0
 30 31  1  0  0  0  0
 32 33  1  0  0  0  0
 32 35  2  0  0  0  0
 33 34  1  0  0  0  0
  1 37  1  0  0  0  0
  1 38  1  0  0  0  0
  1 39  1  0  0  0  0
  2 40  1  0  0  0  0
  2 41  1  0  0  0  0
  4 42  1  0  0  0  0
  4 43  1  0  0  0  0
  5 44  1  0  0  0  0
  5 45  1  0  0  0  0
  5 46  1  0  0  0  0
  6 47  1  0  0  0  0
  6 48  1  0  0  0  0
  7 49  1  0  0  0  0
  7 50  1  0  0  0  0
  8 51  1  0  0  0  0
  8 52  1  0  0  0  0
 14 53  1  0  0  0  0
 14 54  1  0  0  0  0
 15 55  1  0  0  0  0
 16 56  1  0  0  0  0
 18 57  1  0  0  0  0
 18 58  1  0  0  0  0
 20 59  1  0  0  0  0
 22 60  1  0  0  0  0
 27 61  1  0  0  0  0
 28 62  1  0  0  0  0
 31 63  1  0  0  0  0
 31 64  1  0  0  0  0
 31 65  1  0  0  0  0
 34 66  1  0  0  0  0
 34 67  1  0  0  0  0
 34 68  1  0  0  0  0
 35 69  1  0  0  0  0
 36 70  1  0  0  0  0
M  END
> <s_user_Name>
CHEMBL3402741_400

> <IC50[nM]>
400

$$$$
CHEMBL3402741_400
  -OEChem-05192314313D
 Structure written by MMmdl.
 70 72  0     0  0  0  0  0  0999 V2000
   24.3934   31.0600   48.1947 C   0  0  0  0  0  0  0  0  0  0  0  0
   24.5318   32.4351   47.5178 C   0  0  0  0  0  0  0  0  0  0  0  0
   25.8474   33.1258   47.9679 N   0  0  0  0  0  0  0  0  0  0  0  0
   26.5614   33.7965   46.7640 C   0  0  0  0  0  0  0  0  0  0  0  0
   27.9647   34.3057   47.1323 C   0  0  0  0  0  0  0  0  0  0  0  0
   25.7058   34.0801   49.1798 C   0  0  0  0  0  0  0  0  0  0  0  0
   24.9918   33.4384   50.3755 C   0  0  0  0  0  0  0  0  0  0  0  0
   25.0659   34.3430   51.6089 C   0  0  0  0  0  0  0  0  0  0  0  0
   24.1175   33.9028   52.5724 O   0  0  0  0  0  0  0  0  0  0  0  0
   24.3859   33.9251   53.8856 C   0  0  0  0  0  0  0  0  0  0  0  0
   25.4468   34.3252   54.3755 O   0  0  0  0  0  0  0  0  0  0  0  0
   23.2712   33.4382   54.5535 N   0  0  0  0  0  0  0  0  0  0  0  0
   23.1060   33.1249   55.9113 C   0  0  0  0  0  0  0  0  0  0  0  0
   24.1478   33.1259   56.8531 C   0  0  0  0  0  0  0  0  0  0  0  0
   23.9046   32.7376   58.1696 C   0  0  0  0  0  0  0  0  0  0  0  0
   22.6221   32.3505   58.5593 C   0  0  0  0  0  0  0  0  0  0  0  0
   21.5763   32.3408   57.6345 C   0  0  0  0  0  0  0  0  0  0  0  0
   20.1645   31.9343   58.0656 C   0  0  0  0  0  0  0  0  0  0  0  0
   19.8549   30.5223   57.7688 N   0  0  0  0  0  0  0  0  0  0  0  0
   19.5510   30.2568   56.4647 N   0  0  0  0  0  0  0  0  0  0  0  0
   19.2595   29.1097   55.9735 C   0  0  0  0  0  0  0  0  0  0  0  0
   19.1563   27.8215   56.8125 C   0  0  0  0  0  0  0  0  0  0  0  0
   20.1073   27.8033   58.3756 S   0  0  0  0  0  0  0  0  0  0  0  0
   20.2026   29.5875   58.7616 C   0  0  0  0  0  0  0  0  0  0  0  0
   20.6464   29.8843   59.8760 O   0  0  0  0  0  0  0  0  0  0  0  0
   18.9915   28.9833   54.5231 C   0  0  0  0  0  0  0  0  0  0  0  0
   19.6332   29.8252   53.6061 C   0  0  0  0  0  0  0  0  0  0  0  0
   19.4012   29.7031   52.2393 C   0  0  0  0  0  0  0  0  0  0  0  0
   18.5163   28.7296   51.7479 C   0  0  0  0  0  0  0  0  0  0  0  0
   18.2446   28.5625   50.4000 O   0  0  0  0  0  0  0  0  0  0  0  0
   19.1055   29.1560   49.4367 C   0  0  0  0  0  0  0  0  0  0  0  0
   17.8607   27.8802   52.6511 C   0  0  0  0  0  0  0  0  0  0  0  0
   16.9971   26.9398   52.1194 O   0  0  0  0  0  0  0  0  0  0  0  0
   16.4627   25.9229   52.9609 C   0  0  0  0  0  0  0  0  0  0  0  0
   18.1083   28.0139   54.0302 C   0  0  0  0  0  0  0  0  0  0  0  0
   21.8257   32.7275   56.3134 C   0  0  0  0  0  0  0  0  0  0  0  0
   23.4582   30.5821   47.8675 H   0  0  0  0  0  0  0  0  0  0  0  0
   25.2470   30.4256   47.9138 H   0  0  0  0  0  0  0  0  0  0  0  0
   24.3763   31.1892   49.2870 H   0  0  0  0  0  0  0  0  0  0  0  0
   24.5465   32.3025   46.4259 H   0  0  0  0  0  0  0  0  0  0  0  0
   23.6758   33.0661   47.7991 H   0  0  0  0  0  0  0  0  0  0  0  0
   26.6533   33.0606   45.9516 H   0  0  0  0  0  0  0  0  0  0  0  0
   25.9544   34.6473   46.4211 H   0  0  0  0  0  0  0  0  0  0  0  0
   28.4295   34.7713   46.2507 H   0  0  0  0  0  0  0  0  0  0  0  0
   27.8849   35.0484   47.9398 H   0  0  0  0  0  0  0  0  0  0  0  0
   28.5839   33.4617   47.4703 H   0  0  0  0  0  0  0  0  0  0  0  0
   26.7115   34.3909   49.4991 H   0  0  0  0  0  0  0  0  0  0  0  0
   25.1321   34.9638   48.8635 H   0  0  0  0  0  0  0  0  0  0  0  0
   23.9362   33.2697   50.1160 H   0  0  0  0  0  0  0  0  0  0  0  0
   25.4710   32.4755   50.6063 H   0  0  0  0  0  0  0  0  0  0  0  0
   26.0769   34.2947   52.0398 H   0  0  0  0  0  0  0  0  0  0  0  0
   24.8403   35.3797   51.3183 H   0  0  0  0  0  0  0  0  0  0  0  0
   25.1411   33.4286   56.5563 H   0  0  0  0  0  0  0  0  0  0  0  0
   24.7101   32.7364   58.8890 H   0  0  0  0  0  0  0  0  0  0  0  0
   22.7068   31.3261   58.9510 H   0  0  0  0  0  0  0  0  0  0  0  0
   22.3201   33.0294   59.3704 H   0  0  0  0  0  0  0  0  0  0  0  0
   20.0696   32.0935   59.1499 H   0  0  0  0  0  0  0  0  0  0  0  0
   19.4397   32.5707   57.5368 H   0  0  0  0  0  0  0  0  0  0  0  0
   18.7640   30.8376   56.2565 H   0  0  0  0  0  0  0  0  0  0  0  0
   18.5583   26.9794   56.4968 H   0  0  0  0  0  0  0  0  0  0  0  0
   20.3177   30.5797   53.9646 H   0  0  0  0  0  0  0  0  0  0  0  0
   19.9065   30.3633   51.5500 H   0  0  0  0  0  0  0  0  0  0  0  0
   18.7414   28.9223   48.4254 H   0  0  0  0  0  0  0  0  0  0  0  0
   19.1180   30.2467   49.5789 H   0  0  0  0  0  0  0  0  0  0  0  0
   20.1236   28.7584   49.5607 H   0  0  0  0  0  0  0  0  0  0  0  0
   15.8012   25.2697   52.3729 H   0  0  0  0  0  0  0  0  0  0  0  0
   17.2852   25.3270   53.3833 H   0  0  0  0  0  0  0  0  0  0  0  0
   15.8890   26.3864   53.7770 H   0  0  0  0  0  0  0  0  0  0  0  0
   17.6066   27.3550   54.7234 H   0  0  0  0  0  0  0  0  0  0  0  0
   21.0198   32.7193   55.5945 H   0  0  0  0  0  0  0  0  0  0  0  0
  1  2  1  0  0  0  0
  2  3  1  0  0  0  0
  3  4  1  0  0  0  0
  3  6  1  0  0  0  0
  4  5  1  0  0  0  0
  6  7  1  0  0  0  0
  7  8  1  0  0  0  0
  8  9  1  0  0  0  0
  9 10  1  0  0  0  0
 10 11  2  0  0  0  0
 10 12  1  0  0  0  0
 12 13  2  0  0  0  0
 13 14  1  0  0  0  0
 13 36  1  0  0  0  0
 14 15  2  0  0  0  0
 15 16  1  0  0  0  0
 16 17  1  0  0  0  0
 17 18  1  0  0  0  0
 17 36  2  0  0  0  0
 18 19  1  0  0  0  0
 19 20  1  0  0  0  0
 19 24  1  0  0  0  0
 20 21  1  0  0  0  0
 21 22  2  0  0  0  0
 21 26  1  0  0  0  0
 22 23  1  0  0  0  0
 23 24  1  0  0  0  0
 24 25  2  0  0  0  0
 26 27  2  0  0  0  0
 26 35  1  0  0  0  0
 27 28  1  0  0  0  0
 28 29  2  0  0  0  0
 29 30  1  0  0  0  0
 29 32  1  0  0  0  0
 30 31  1  0  0  0  0
 32 33  1  0  0  0  0
 32 35  2  0  0  0  0
 33 34  1  0  0  0  0
  1 37  1  0  0  0  0
  1 38  1  0  0  0  0
  1 39  1  0  0  0  0
  2 40  1  0  0  0  0
  2 41  1  0  0  0  0
  4 42  1  0  0  0  0
  4 43  1  0  0  0  0
  5 44  1  0  0  0  0
  5 45  1  0  0  0  0
  5 46  1  0  0  0  0
  6 47  1  0  0  0  0
  6 48  1  0  0  0  0
  7 49  1  0  0  0  0
  7 50  1  0  0  0  0
  8 51  1  0  0  0  0
  8 52  1  0  0  0  0
 14 53  1  0  0  0  0
 15 54  1  0  0  0  0
 16 55  1  0  0  0  0
 16 56  1  0  0  0  0
 18 57  1  0  0  0  0
 18 58  1  0  0  0  0
 20 59  1  0  0  0  0
 22 60  1  0  0  0  0
 27 61  1  0  0  0  0
 28 62  1  0  0  0  0
 31 63  1  0  0  0  0
 31 64  1  0  0  0  0
 31 65  1  0  0  0  0
 34 66  1  0  0  0  0
 34 67  1  0  0  0  0
 34 68  1  0  0  0  0
 35 69  1  0  0  0  0
 36 70  1  0  0  0  0
M  END
> <s_user_Name>
CHEMBL3402741_400

> <IC50[nM]>
400

$$$$
CHEMBL3402741_400
  -OEChem-05192314313D
 Structure written by MMmdl.
 70 72  0     0  0  0  0  0  0999 V2000
   24.3934   31.0600   48.1947 C   0  0  0  0  0  0  0  0  0  0  0  0
   24.5318   32.4351   47.5178 C   0  0  0  0  0  0  0  0  0  0  0  0
   25.8474   33.1258   47.9679 N   0  0  0  0  0  0  0  0  0  0  0  0
   26.5614   33.7965   46.7640 C   0  0  0  0  0  0  0  0  0  0  0  0
   27.9647   34.3057   47.1323 C   0  0  0  0  0  0  0  0  0  0  0  0
   25.7058   34.0801   49.1798 C   0  0  0  0  0  0  0  0  0  0  0  0
   24.9918   33.4384   50.3755 C   0  0  0  0  0  0  0  0  0  0  0  0
   25.0659   34.3430   51.6089 C   0  0  0  0  0  0  0  0  0  0  0  0
   24.1175   33.9028   52.5724 O   0  0  0  0  0  0  0  0  0  0  0  0
   24.3859   33.9251   53.8856 C   0  0  0  0  0  0  0  0  0  0  0  0
   25.4468   34.3252   54.3755 O   0  0  0  0  0  0  0  0  0  0  0  0
   23.2712   33.4382   54.5535 N   0  0  0  0  0  0  0  0  0  0  0  0
   23.1060   33.1249   55.9113 C   0  0  0  0  0  0  0  0  0  0  0  0
   24.1478   33.1259   56.8531 C   0  0  0  0  0  0  0  0  0  0  0  0
   23.9046   32.7376   58.1696 C   0  0  0  0  0  0  0  0  0  0  0  0
   22.6221   32.3505   58.5593 C   0  0  0  0  0  0  0  0  0  0  0  0
   21.5763   32.3408   57.6345 C   0  0  0  0  0  0  0  0  0  0  0  0
   20.1645   31.9343   58.0656 C   0  0  0  0  0  0  0  0  0  0  0  0
   19.8549   30.5223   57.7688 N   0  0  0  0  0  0  0  0  0  0  0  0
   19.5510   30.2568   56.4647 N   0  0  0  0  0  0  0  0  0  0  0  0
   19.2595   29.1097   55.9735 C   0  0  0  0  0  0  0  0  0  0  0  0
   19.1563   27.8215   56.8125 C   0  0  0  0  0  0  0  0  0  0  0  0
   20.1073   27.8033   58.3756 S   0  0  0  0  0  0  0  0  0  0  0  0
   20.2026   29.5875   58.7616 C   0  0  0  0  0  0  0  0  0  0  0  0
   20.6464   29.8843   59.8760 O   0  0  0  0  0  0  0  0  0  0  0  0
   18.9915   28.9833   54.5231 C   0  0  0  0  0  0  0  0  0  0  0  0
   19.6332   29.8252   53.6061 C   0  0  0  0  0  0  0  0  0  0  0  0
   19.4012   29.7031   52.2393 C   0  0  0  0  0  0  0  0  0  0  0  0
   18.5163   28.7296   51.7479 C   0  0  0  0  0  0  0  0  0  0  0  0
   18.2446   28.5625   50.4000 O   0  0  0  0  0  0  0  0  0  0  0  0
   19.1055   29.1560   49.4367 C   0  0  0  0  0  0  0  0  0  0  0  0
   17.8607   27.8802   52.6511 C   0  0  0  0  0  0  0  0  0  0  0  0
   16.9971   26.9398   52.1194 O   0  0  0  0  0  0  0  0  0  0  0  0
   16.4627   25.9229   52.9609 C   0  0  0  0  0  0  0  0  0  0  0  0
   18.1083   28.0139   54.0302 C   0  0  0  0  0  0  0  0  0  0  0  0
   21.8257   32.7275   56.3134 C   0  0  0  0  0  0  0  0  0  0  0  0
   23.4582   30.5821   47.8675 H   0  0  0  0  0  0  0  0  0  0  0  0
   25.2470   30.4256   47.9138 H   0  0  0  0  0  0  0  0  0  0  0  0
   24.3763   31.1892   49.2870 H   0  0  0  0  0  0  0  0  0  0  0  0
   24.5465   32.3025   46.4259 H   0  0  0  0  0  0  0  0  0  0  0  0
   23.6758   33.0661   47.7991 H   0  0  0  0  0  0  0  0  0  0  0  0
   26.6533   33.0606   45.9516 H   0  0  0  0  0  0  0  0  0  0  0  0
   25.9544   34.6473   46.4211 H   0  0  0  0  0  0  0  0  0  0  0  0
   28.4295   34.7713   46.2507 H   0  0  0  0  0  0  0  0  0  0  0  0
   27.8849   35.0484   47.9398 H   0  0  0  0  0  0  0  0  0  0  0  0
   28.5839   33.4617   47.4703 H   0  0  0  0  0  0  0  0  0  0  0  0
   26.7115   34.3909   49.4991 H   0  0  0  0  0  0  0  0  0  0  0  0
   25.1321   34.9638   48.8635 H   0  0  0  0  0  0  0  0  0  0  0  0
   23.9362   33.2697   50.1160 H   0  0  0  0  0  0  0  0  0  0  0  0
   25.4710   32.4755   50.6063 H   0  0  0  0  0  0  0  0  0  0  0  0
   26.0769   34.2947   52.0398 H   0  0  0  0  0  0  0  0  0  0  0  0
   24.8403   35.3797   51.3183 H   0  0  0  0  0  0  0  0  0  0  0  0
   25.1411   33.4286   56.5563 H   0  0  0  0  0  0  0  0  0  0  0  0
   24.7101   32.7364   58.8890 H   0  0  0  0  0  0  0  0  0  0  0  0
   22.4373   32.0567   59.5820 H   0  0  0  0  0  0  0  0  0  0  0  0
   20.0696   32.0935   59.1499 H   0  0  0  0  0  0  0  0  0  0  0  0
   19.4397   32.5707   57.5368 H   0  0  0  0  0  0  0  0  0  0  0  0
   18.7640   30.8376   56.2565 H   0  0  0  0  0  0  0  0  0  0  0  0
   18.5583   26.9794   56.4968 H   0  0  0  0  0  0  0  0  0  0  0  0
   20.3177   30.5797   53.9646 H   0  0  0  0  0  0  0  0  0  0  0  0
   19.9065   30.3633   51.5500 H   0  0  0  0  0  0  0  0  0  0  0  0
   18.7414   28.9223   48.4254 H   0  0  0  0  0  0  0  0  0  0  0  0
   19.1180   30.2467   49.5789 H   0  0  0  0  0  0  0  0  0  0  0  0
   20.1236   28.7584   49.5607 H   0  0  0  0  0  0  0  0  0  0  0  0
   15.8012   25.2697   52.3729 H   0  0  0  0  0  0  0  0  0  0  0  0
   17.2852   25.3270   53.3833 H   0  0  0  0  0  0  0  0  0  0  0  0
   15.8890   26.3864   53.7770 H   0  0  0  0  0  0  0  0  0  0  0  0
   17.6066   27.3550   54.7234 H   0  0  0  0  0  0  0  0  0  0  0  0
   21.1544   33.5729   56.1022 H   0  0  0  0  0  0  0  0  0  0  0  0
   21.5493   31.8724   55.6790 H   0  0  0  0  0  0  0  0  0  0  0  0
  1  2  1  0  0  0  0
  2  3  1  0  0  0  0
  3  4  1  0  0  0  0
  3  6  1  0  0  0  0
  4  5  1  0  0  0  0
  6  7  1  0  0  0  0
  7  8  1  0  0  0  0
  8  9  1  0  0  0  0
  9 10  1  0  0  0  0
 10 11  2  0  0  0  0
 10 12  1  0  0  0  0
 12 13  2  0  0  0  0
 13 14  1  0  0  0  0
 13 36  1  0  0  0  0
 14 15  2  0  0  0  0
 15 16  1  0  0  0  0
 16 17  2  0  0  0  0
 17 18  1  0  0  0  0
 17 36  1  0  0  0  0
 18 19  1  0  0  0  0
 19 20  1  0  0  0  0
 19 24  1  0  0  0  0
 20 21  1  0  0  0  0
 21 22  2  0  0  0  0
 21 26  1  0  0  0  0
 22 23  1  0  0  0  0
 23 24  1  0  0  0  0
 24 25  2  0  0  0  0
 26 27  2  0  0  0  0
 26 35  1  0  0  0  0
 27 28  1  0  0  0  0
 28 29  2  0  0  0  0
 29 30  1  0  0  0  0
 29 32  1  0  0  0  0
 30 31  1  0  0  0  0
 32 33  1  0  0  0  0
 32 35  2  0  0  0  0
 33 34  1  0  0  0  0
  1 37  1  0  0  0  0
  1 38  1  0  0  0  0
  1 39  1  0  0  0  0
  2 40  1  0  0  0  0
  2 41  1  0  0  0  0
  4 42  1  0  0  0  0
  4 43  1  0  0  0  0
  5 44  1  0  0  0  0
  5 45  1  0  0  0  0
  5 46  1  0  0  0  0
  6 47  1  0  0  0  0
  6 48  1  0  0  0  0
  7 49  1  0  0  0  0
  7 50  1  0  0  0  0
  8 51  1  0  0  0  0
  8 52  1  0  0  0  0
 14 53  1  0  0  0  0
 15 54  1  0  0  0  0
 16 55  1  0  0  0  0
 18 56  1  0  0  0  0
 18 57  1  0  0  0  0
 20 58  1  0  0  0  0
 22 59  1  0  0  0  0
 27 60  1  0  0  0  0
 28 61  1  0  0  0  0
 31 62  1  0  0  0  0
 31 63  1  0  0  0  0
 31 64  1  0  0  0  0
 34 65  1  0  0  0  0
 34 66  1  0  0  0  0
 34 67  1  0  0  0  0
 35 68  1  0  0  0  0
 36 69  1  0  0  0  0
 36 70  1  0  0  0  0
M  END
> <s_user_Name>
CHEMBL3402741_400

> <IC50[nM]>
400

$$$$
