CHEMBL3402758_10
  -OEChem-05192314313D
 Structure written by MMmdl.
 59 62  0     0  0  0  0  0  0999 V2000
   22.9152   29.8931   48.1561 C   0  0  0  0  0  0  0  0  0  0  0  0
   24.2551   30.6483   48.3008 N   0  0  0  0  0  0  0  0  0  0  0  0
   25.1218   30.4724   47.0330 C   0  0  0  0  0  0  0  0  0  0  0  0
   24.0434   32.1319   48.6858 C   0  0  0  0  0  0  0  0  0  0  0  0
   25.3059   32.6758   49.3763 C   0  0  0  0  0  0  0  0  0  0  0  0
   25.1552   34.0797   49.9601 C   0  0  0  0  0  0  0  0  0  0  0  0
   23.9394   34.1774   50.6857 O   0  0  0  0  0  0  0  0  0  0  0  0
   23.8832   33.7800   52.0009 C   0  0  0  0  0  0  0  0  0  0  0  0
   24.9026   33.9265   52.9536 C   0  0  0  0  0  0  0  0  0  0  0  0
   24.7110   33.6572   54.2732 N   0  0  0  0  0  0  0  0  0  0  0  0
   23.4739   33.2169   54.6422 C   0  0  0  0  0  0  0  0  0  0  0  0
   22.4457   33.0003   53.7775 N   0  0  0  0  0  0  0  0  0  0  0  0
   22.6711   33.2812   52.4732 C   0  0  0  0  0  0  0  0  0  0  0  0
   23.2175   32.9270   56.0926 C   0  0  0  0  0  0  0  0  0  0  0  0
   24.2484   32.9698   57.0452 C   0  0  0  0  0  0  0  0  0  0  0  0
   24.0210   32.6233   58.3754 C   0  0  0  0  0  0  0  0  0  0  0  0
   22.7528   32.2188   58.7787 C   0  0  0  0  0  0  0  0  0  0  0  0
   21.6995   32.1904   57.8666 C   0  0  0  0  0  0  0  0  0  0  0  0
   20.3003   31.7816   58.3130 C   0  0  0  0  0  0  0  0  0  0  0  0
   19.9556   30.3998   57.9322 N   0  0  0  0  0  0  0  0  0  0  0  0
   19.4383   30.2304   56.6462 N   0  0  0  0  0  0  0  0  0  0  0  0
   19.0792   29.0738   56.1867 C   0  0  0  0  0  0  0  0  0  0  0  0
   19.3118   27.9338   57.0630 C   0  0  0  0  0  0  0  0  0  0  0  0
   19.8456   28.0864   58.2961 C   0  0  0  0  0  0  0  0  0  0  0  0
   20.1994   29.3881   58.8358 C   0  0  0  0  0  0  0  0  0  0  0  0
   20.6461   29.5264   59.9758 O   0  0  0  0  0  0  0  0  0  0  0  0
   18.4684   28.9016   54.8476 C   0  0  0  0  0  0  0  0  0  0  0  0
   18.2473   27.6429   54.2625 C   0  0  0  0  0  0  0  0  0  0  0  0
   17.6426   27.5449   53.0095 C   0  0  0  0  0  0  0  0  0  0  0  0
   17.2575   28.7188   52.3615 C   0  0  0  0  0  0  0  0  0  0  0  0
   17.4530   29.9497   52.8941 N   0  0  0  0  0  0  0  0  0  0  0  0
   18.0494   30.0246   54.1102 C   0  0  0  0  0  0  0  0  0  0  0  0
   21.9345   32.5596   56.5416 C   0  0  0  0  0  0  0  0  0  0  0  0
   22.3154   30.0315   49.0677 H   0  0  0  0  0  0  0  0  0  0  0  0
   22.3632   30.2884   47.2906 H   0  0  0  0  0  0  0  0  0  0  0  0
   23.1128   28.8214   48.0066 H   0  0  0  0  0  0  0  0  0  0  0  0
   26.0693   31.0172   47.1574 H   0  0  0  0  0  0  0  0  0  0  0  0
   25.3312   29.4038   46.8775 H   0  0  0  0  0  0  0  0  0  0  0  0
   24.5816   30.8708   46.1615 H   0  0  0  0  0  0  0  0  0  0  0  0
   23.8416   32.7196   47.7781 H   0  0  0  0  0  0  0  0  0  0  0  0
   23.1879   32.2126   49.3726 H   0  0  0  0  0  0  0  0  0  0  0  0
   25.5720   31.9904   50.1945 H   0  0  0  0  0  0  0  0  0  0  0  0
   26.1197   32.6971   48.6365 H   0  0  0  0  0  0  0  0  0  0  0  0
   25.9992   34.2859   50.6347 H   0  0  0  0  0  0  0  0  0  0  0  0
   25.1512   34.8154   49.1424 H   0  0  0  0  0  0  0  0  0  0  0  0
   25.8748   34.2654   52.6275 H   0  0  0  0  0  0  0  0  0  0  0  0
   21.8738   33.1107   51.7649 H   0  0  0  0  0  0  0  0  0  0  0  0
   25.2377   33.2776   56.7405 H   0  0  0  0  0  0  0  0  0  0  0  0
   24.8278   32.6687   59.0919 H   0  0  0  0  0  0  0  0  0  0  0  0
   22.5834   31.9252   59.8041 H   0  0  0  0  0  0  0  0  0  0  0  0
   20.2422   31.8684   59.4080 H   0  0  0  0  0  0  0  0  0  0  0  0
   19.5716   32.4645   57.8519 H   0  0  0  0  0  0  0  0  0  0  0  0
   19.0518   26.9433   56.7199 H   0  0  0  0  0  0  0  0  0  0  0  0
   20.0151   27.2085   58.9019 H   0  0  0  0  0  0  0  0  0  0  0  0
   18.5472   26.7470   54.7858 H   0  0  0  0  0  0  0  0  0  0  0  0
   17.4761   26.5814   52.5509 H   0  0  0  0  0  0  0  0  0  0  0  0
   16.7833   28.6435   51.3941 H   0  0  0  0  0  0  0  0  0  0  0  0
   18.2122   31.0031   54.5374 H   0  0  0  0  0  0  0  0  0  0  0  0
   21.1112   32.5637   55.8426 H   0  0  0  0  0  0  0  0  0  0  0  0
  1  2  1  0  0  0  0
  2  3  1  0  0  0  0
  2  4  1  0  0  0  0
  4  5  1  0  0  0  0
  5  6  1  0  0  0  0
  6  7  1  0  0  0  0
  7  8  1  0  0  0  0
  8  9  2  0  0  0  0
  8 13  1  0  0  0  0
  9 10  1  0  0  0  0
 10 11  2  0  0  0  0
 11 12  1  0  0  0  0
 11 14  1  0  0  0  0
 12 13  2  0  0  0  0
 14 15  2  0  0  0  0
 14 33  1  0  0  0  0
 15 16  1  0  0  0  0
 16 17  2  0  0  0  0
 17 18  1  0  0  0  0
 18 19  1  0  0  0  0
 18 33  2  0  0  0  0
 19 20  1  0  0  0  0
 20 21  1  0  0  0  0
 20 25  1  0  0  0  0
 21 22  2  0  0  0  0
 22 23  1  0  0  0  0
 22 27  1  0  0  0  0
 23 24  2  0  0  0  0
 24 25  1  0  0  0  0
 25 26  2  0  0  0  0
 27 28  2  0  0  0  0
 27 32  1  0  0  0  0
 28 29  1  0  0  0  0
 29 30  2  0  0  0  0
 30 31  1  0  0  0  0
 31 32  2  0  0  0  0
  1 34  1  0  0  0  0
  1 35  1  0  0  0  0
  1 36  1  0  0  0  0
  3 37  1  0  0  0  0
  3 38  1  0  0  0  0
  3 39  1  0  0  0  0
  4 40  1  0  0  0  0
  4 41  1  0  0  0  0
  5 42  1  0  0  0  0
  5 43  1  0  0  0  0
  6 44  1  0  0  0  0
  6 45  1  0  0  0  0
  9 46  1  0  0  0  0
 13 47  1  0  0  0  0
 15 48  1  0  0  0  0
 16 49  1  0  0  0  0
 17 50  1  0  0  0  0
 19 51  1  0  0  0  0
 19 52  1  0  0  0  0
 23 53  1  0  0  0  0
 24 54  1  0  0  0  0
 28 55  1  0  0  0  0
 29 56  1  0  0  0  0
 30 57  1  0  0  0  0
 32 58  1  0  0  0  0
 33 59  1  0  0  0  0
M  END
> <s_user_Name>
CHEMBL3402758_10

> <IC50[nM]>
10

$$$$
