CHEMBL3402765_11-charged-pKa-8.1
  -OEChem-05192314313D
 Structure written by MMmdl.
 61 64  0     0  0  0  0  0  0999 V2000
   17.2816   31.0754   52.1112 F   0  0  0  0  0  0  0  0  0  0  0  0
   17.5663   29.9576   52.8176 C   0  0  0  0  0  0  0  0  0  0  0  0
   17.2204   28.7069   52.3169 C   0  0  0  0  0  0  0  0  0  0  0  0
   17.5045   27.5609   53.0572 C   0  0  0  0  0  0  0  0  0  0  0  0
   17.1492   26.3482   52.5773 F   0  0  0  0  0  0  0  0  0  0  0  0
   18.1372   27.6641   54.2964 C   0  0  0  0  0  0  0  0  0  0  0  0
   18.4805   28.9202   54.8291 C   0  0  0  0  0  0  0  0  0  0  0  0
   18.1932   30.0628   54.0561 C   0  0  0  0  0  0  0  0  0  0  0  0
   19.0915   29.0865   56.1754 C   0  0  0  0  0  0  0  0  0  0  0  0
   19.4480   30.2440   56.6384 N   0  0  0  0  0  0  0  0  0  0  0  0
   19.9872   30.4154   57.9169 N   0  0  0  0  0  0  0  0  0  0  0  0
   20.3516   31.7988   58.2814 C   0  0  0  0  0  0  0  0  0  0  0  0
   21.7041   32.2478   57.7248 C   0  0  0  0  0  0  0  0  0  0  0  0
   22.8361   32.2592   58.5463 C   0  0  0  0  0  0  0  0  0  0  0  0
   24.0614   32.6950   58.0440 C   0  0  0  0  0  0  0  0  0  0  0  0
   24.1708   33.1134   56.7180 C   0  0  0  0  0  0  0  0  0  0  0  0
   23.0463   33.1012   55.8772 C   0  0  0  0  0  0  0  0  0  0  0  0
   23.0717   33.4390   54.5115 N   0  0  0  0  0  0  0  0  0  0  0  0
   24.1496   33.7673   53.6964 C   0  0  0  0  0  0  0  0  0  0  0  0
   25.3229   33.9268   54.0317 O   0  0  0  0  0  0  0  0  0  0  0  0
   23.6922   33.9229   52.4360 O   0  0  0  0  0  0  0  0  0  0  0  0
   24.5555   34.3241   51.3706 C   0  0  0  0  0  0  0  0  0  0  0  0
   24.9605   33.1210   50.5062 C   0  0  0  0  0  0  0  0  0  0  0  0
   23.7698   32.4740   49.7769 C   0  0  0  0  0  0  0  0  0  0  0  0
   24.2474   31.2754   48.9228 N   0  0  0  0  0  0  0  0  0  0  0  0
   24.9826   31.7341   47.6405 C   0  0  0  0  0  0  0  0  0  0  0  0
   25.3999   30.4887   46.8374 C   0  0  0  0  0  0  0  0  0  0  0  0
   24.2725   29.6655   46.5504 O   0  0  0  0  0  0  0  0  0  0  0  0
   23.5838   29.1848   47.7005 C   0  0  0  0  0  0  0  0  0  0  0  0
   23.0596   30.3553   48.5561 C   0  0  0  0  0  0  0  0  0  0  0  0
   21.8149   32.6843   56.3986 C   0  0  0  0  0  0  0  0  0  0  0  0
   20.2116   29.4040   58.8272 C   0  0  0  0  0  0  0  0  0  0  0  0
   20.6467   29.5340   59.9745 O   0  0  0  0  0  0  0  0  0  0  0  0
   19.8462   28.1043   58.2906 C   0  0  0  0  0  0  0  0  0  0  0  0
   19.3150   27.9488   57.0557 C   0  0  0  0  0  0  0  0  0  0  0  0
   16.7329   28.6241   51.3568 H   0  0  0  0  0  0  0  0  0  0  0  0
   18.3664   26.7680   54.8540 H   0  0  0  0  0  0  0  0  0  0  0  0
   18.4644   31.0384   54.4315 H   0  0  0  0  0  0  0  0  0  0  0  0
   19.5754   32.4754   57.8944 H   0  0  0  0  0  0  0  0  0  0  0  0
   20.3869   31.8706   59.3785 H   0  0  0  0  0  0  0  0  0  0  0  0
   22.7608   31.9297   59.5720 H   0  0  0  0  0  0  0  0  0  0  0  0
   24.9305   32.7087   58.6850 H   0  0  0  0  0  0  0  0  0  0  0  0
   25.1241   33.4481   56.3365 H   0  0  0  0  0  0  0  0  0  0  0  0
   22.1801   33.4437   54.0587 H   0  0  0  0  0  0  0  0  0  0  0  0
   24.0323   35.0591   50.7413 H   0  0  0  0  0  0  0  0  0  0  0  0
   25.4607   34.7830   51.7948 H   0  0  0  0  0  0  0  0  0  0  0  0
   25.6894   33.4591   49.7550 H   0  0  0  0  0  0  0  0  0  0  0  0
   25.4266   32.3648   51.1550 H   0  0  0  0  0  0  0  0  0  0  0  0
   23.0382   32.1217   50.5190 H   0  0  0  0  0  0  0  0  0  0  0  0
   23.2970   33.2204   49.1217 H   0  0  0  0  0  0  0  0  0  0  0  0
   24.3115   32.3586   47.0326 H   0  0  0  0  0  0  0  0  0  0  0  0
   25.8761   32.3146   47.9139 H   0  0  0  0  0  0  0  0  0  0  0  0
   25.8620   30.8085   45.8918 H   0  0  0  0  0  0  0  0  0  0  0  0
   26.1283   29.9096   47.4240 H   0  0  0  0  0  0  0  0  0  0  0  0
   22.7340   28.5649   47.3787 H   0  0  0  0  0  0  0  0  0  0  0  0
   24.2729   28.5769   48.3052 H   0  0  0  0  0  0  0  0  0  0  0  0
   22.5977   29.9641   49.4746 H   0  0  0  0  0  0  0  0  0  0  0  0
   22.3128   30.9258   47.9844 H   0  0  0  0  0  0  0  0  0  0  0  0
   20.9378   32.6997   55.7686 H   0  0  0  0  0  0  0  0  0  0  0  0
   20.0047   27.2277   58.9013 H   0  0  0  0  0  0  0  0  0  0  0  0
   19.0509   26.9584   56.7156 H   0  0  0  0  0  0  0  0  0  0  0  0
  1  2  1  0  0  0  0
  2  3  2  0  0  0  0
  2  8  1  0  0  0  0
  3  4  1  0  0  0  0
  4  5  1  0  0  0  0
  4  6  2  0  0  0  0
  6  7  1  0  0  0  0
  7  8  2  0  0  0  0
  7  9  1  0  0  0  0
  9 10  2  0  0  0  0
  9 35  1  0  0  0  0
 10 11  1  0  0  0  0
 11 12  1  0  0  0  0
 11 32  1  0  0  0  0
 12 13  1  0  0  0  0
 13 14  2  0  0  0  0
 13 31  1  0  0  0  0
 14 15  1  0  0  0  0
 15 16  2  0  0  0  0
 16 17  1  0  0  0  0
 17 18  1  0  0  0  0
 17 31  2  0  0  0  0
 18 19  1  0  0  0  0
 19 20  2  0  0  0  0
 19 21  1  0  0  0  0
 21 22  1  0  0  0  0
 22 23  1  0  0  0  0
 23 24  1  0  0  0  0
 24 25  1  0  0  0  0
 25 26  1  0  0  0  0
 25 30  1  0  0  0  0
 26 27  1  0  0  0  0
 27 28  1  0  0  0  0
 28 29  1  0  0  0  0
 29 30  1  0  0  0  0
 32 33  2  0  0  0  0
 32 34  1  0  0  0  0
 34 35  2  0  0  0  0
  3 36  1  0  0  0  0
  6 37  1  0  0  0  0
  8 38  1  0  0  0  0
 12 39  1  0  0  0  0
 12 40  1  0  0  0  0
 14 41  1  0  0  0  0
 15 42  1  0  0  0  0
 16 43  1  0  0  0  0
 18 44  1  0  0  0  0
 22 45  1  0  0  0  0
 22 46  1  0  0  0  0
 23 47  1  0  0  0  0
 23 48  1  0  0  0  0
 24 49  1  0  0  0  0
 24 50  1  0  0  0  0
 26 51  1  0  0  0  0
 26 52  1  0  0  0  0
 27 53  1  0  0  0  0
 27 54  1  0  0  0  0
 29 55  1  0  0  0  0
 29 56  1  0  0  0  0
 30 57  1  0  0  0  0
 30 58  1  0  0  0  0
 31 59  1  0  0  0  0
 34 60  1  0  0  0  0
 35 61  1  0  0  0  0
M  END
> <s_user_Name>
CHEMBL3402765_11-charged-pKa-8.1

> <IC50[nM]>
11

$$$$
CHEMBL3402765_11-charged-pKa-8.1
  -OEChem-05192314313D
 Structure written by MMmdl.
 61 64  0     0  0  0  0  0  0999 V2000
   17.2816   31.0754   52.1112 F   0  0  0  0  0  0  0  0  0  0  0  0
   17.5663   29.9576   52.8176 C   0  0  0  0  0  0  0  0  0  0  0  0
   17.2204   28.7069   52.3169 C   0  0  0  0  0  0  0  0  0  0  0  0
   17.5045   27.5609   53.0572 C   0  0  0  0  0  0  0  0  0  0  0  0
   17.1492   26.3482   52.5773 F   0  0  0  0  0  0  0  0  0  0  0  0
   18.1372   27.6641   54.2964 C   0  0  0  0  0  0  0  0  0  0  0  0
   18.4805   28.9202   54.8291 C   0  0  0  0  0  0  0  0  0  0  0  0
   18.1932   30.0628   54.0561 C   0  0  0  0  0  0  0  0  0  0  0  0
   19.0915   29.0865   56.1754 C   0  0  0  0  0  0  0  0  0  0  0  0
   19.4480   30.2440   56.6384 N   0  0  0  0  0  0  0  0  0  0  0  0
   19.9872   30.4154   57.9169 N   0  0  0  0  0  0  0  0  0  0  0  0
   20.3516   31.7988   58.2814 C   0  0  0  0  0  0  0  0  0  0  0  0
   21.7041   32.2478   57.7248 C   0  0  0  0  0  0  0  0  0  0  0  0
   22.8361   32.2592   58.5463 C   0  0  0  0  0  0  0  0  0  0  0  0
   24.0614   32.6950   58.0440 C   0  0  0  0  0  0  0  0  0  0  0  0
   24.1708   33.1134   56.7180 C   0  0  0  0  0  0  0  0  0  0  0  0
   23.0463   33.1012   55.8772 C   0  0  0  0  0  0  0  0  0  0  0  0
   23.0717   33.4390   54.5115 N   0  0  0  0  0  0  0  0  0  0  0  0
   24.1496   33.7673   53.6964 C   0  0  0  0  0  0  0  0  0  0  0  0
   25.3229   33.9268   54.0317 O   0  0  0  0  0  0  0  0  0  0  0  0
   23.6922   33.9229   52.4360 O   0  0  0  0  0  0  0  0  0  0  0  0
   24.5555   34.3241   51.3706 C   0  0  0  0  0  0  0  0  0  0  0  0
   24.9605   33.1210   50.5062 C   0  0  0  0  0  0  0  0  0  0  0  0
   23.7698   32.4740   49.7769 C   0  0  0  0  0  0  0  0  0  0  0  0
   24.2474   31.2754   48.9228 N   0  0  0  0  0  0  0  0  0  0  0  0
   24.9826   31.7341   47.6405 C   0  0  0  0  0  0  0  0  0  0  0  0
   25.3999   30.4887   46.8374 C   0  0  0  0  0  0  0  0  0  0  0  0
   24.2725   29.6655   46.5504 O   0  0  0  0  0  0  0  0  0  0  0  0
   23.5838   29.1848   47.7005 C   0  0  0  0  0  0  0  0  0  0  0  0
   23.0596   30.3553   48.5561 C   0  0  0  0  0  0  0  0  0  0  0  0
   21.8149   32.6843   56.3986 C   0  0  0  0  0  0  0  0  0  0  0  0
   20.2116   29.4040   58.8272 C   0  0  0  0  0  0  0  0  0  0  0  0
   20.6467   29.5340   59.9745 O   0  0  0  0  0  0  0  0  0  0  0  0
   19.8462   28.1043   58.2906 C   0  0  0  0  0  0  0  0  0  0  0  0
   19.3150   27.9488   57.0557 C   0  0  0  0  0  0  0  0  0  0  0  0
   16.7329   28.6241   51.3568 H   0  0  0  0  0  0  0  0  0  0  0  0
   18.3664   26.7680   54.8540 H   0  0  0  0  0  0  0  0  0  0  0  0
   18.4644   31.0384   54.4315 H   0  0  0  0  0  0  0  0  0  0  0  0
   19.5754   32.4754   57.8944 H   0  0  0  0  0  0  0  0  0  0  0  0
   20.3869   31.8706   59.3785 H   0  0  0  0  0  0  0  0  0  0  0  0
   22.7608   31.9297   59.5720 H   0  0  0  0  0  0  0  0  0  0  0  0
   24.9305   32.7087   58.6850 H   0  0  0  0  0  0  0  0  0  0  0  0
   25.1241   33.4481   56.3365 H   0  0  0  0  0  0  0  0  0  0  0  0
   25.8440   34.1453   53.2681 H   0  0  0  0  0  0  0  0  0  0  0  0
   24.0323   35.0591   50.7413 H   0  0  0  0  0  0  0  0  0  0  0  0
   25.4607   34.7830   51.7948 H   0  0  0  0  0  0  0  0  0  0  0  0
   25.6894   33.4591   49.7550 H   0  0  0  0  0  0  0  0  0  0  0  0
   25.4266   32.3648   51.1550 H   0  0  0  0  0  0  0  0  0  0  0  0
   23.0382   32.1217   50.5190 H   0  0  0  0  0  0  0  0  0  0  0  0
   23.2970   33.2204   49.1217 H   0  0  0  0  0  0  0  0  0  0  0  0
   24.3115   32.3586   47.0326 H   0  0  0  0  0  0  0  0  0  0  0  0
   25.8761   32.3146   47.9139 H   0  0  0  0  0  0  0  0  0  0  0  0
   25.8620   30.8085   45.8918 H   0  0  0  0  0  0  0  0  0  0  0  0
   26.1283   29.9096   47.4240 H   0  0  0  0  0  0  0  0  0  0  0  0
   22.7340   28.5649   47.3787 H   0  0  0  0  0  0  0  0  0  0  0  0
   24.2729   28.5769   48.3052 H   0  0  0  0  0  0  0  0  0  0  0  0
   22.5977   29.9641   49.4746 H   0  0  0  0  0  0  0  0  0  0  0  0
   22.3128   30.9258   47.9844 H   0  0  0  0  0  0  0  0  0  0  0  0
   20.9378   32.6997   55.7686 H   0  0  0  0  0  0  0  0  0  0  0  0
   20.0047   27.2277   58.9013 H   0  0  0  0  0  0  0  0  0  0  0  0
   19.0509   26.9584   56.7156 H   0  0  0  0  0  0  0  0  0  0  0  0
  1  2  1  0  0  0  0
  2  3  2  0  0  0  0
  2  8  1  0  0  0  0
  3  4  1  0  0  0  0
  4  5  1  0  0  0  0
  4  6  2  0  0  0  0
  6  7  1  0  0  0  0
  7  8  2  0  0  0  0
  7  9  1  0  0  0  0
  9 10  2  0  0  0  0
  9 35  1  0  0  0  0
 10 11  1  0  0  0  0
 11 12  1  0  0  0  0
 11 32  1  0  0  0  0
 12 13  1  0  0  0  0
 13 14  2  0  0  0  0
 13 31  1  0  0  0  0
 14 15  1  0  0  0  0
 15 16  2  0  0  0  0
 16 17  1  0  0  0  0
 17 18  1  0  0  0  0
 17 31  2  0  0  0  0
 18 19  2  0  0  0  0
 19 20  1  0  0  0  0
 19 21  1  0  0  0  0
 21 22  1  0  0  0  0
 22 23  1  0  0  0  0
 23 24  1  0  0  0  0
 24 25  1  0  0  0  0
 25 26  1  0  0  0  0
 25 30  1  0  0  0  0
 26 27  1  0  0  0  0
 27 28  1  0  0  0  0
 28 29  1  0  0  0  0
 29 30  1  0  0  0  0
 32 33  2  0  0  0  0
 32 34  1  0  0  0  0
 34 35  2  0  0  0  0
  3 36  1  0  0  0  0
  6 37  1  0  0  0  0
  8 38  1  0  0  0  0
 12 39  1  0  0  0  0
 12 40  1  0  0  0  0
 14 41  1  0  0  0  0
 15 42  1  0  0  0  0
 16 43  1  0  0  0  0
 20 44  1  0  0  0  0
 22 45  1  0  0  0  0
 22 46  1  0  0  0  0
 23 47  1  0  0  0  0
 23 48  1  0  0  0  0
 24 49  1  0  0  0  0
 24 50  1  0  0  0  0
 26 51  1  0  0  0  0
 26 52  1  0  0  0  0
 27 53  1  0  0  0  0
 27 54  1  0  0  0  0
 29 55  1  0  0  0  0
 29 56  1  0  0  0  0
 30 57  1  0  0  0  0
 30 58  1  0  0  0  0
 31 59  1  0  0  0  0
 34 60  1  0  0  0  0
 35 61  1  0  0  0  0
M  END
> <s_user_Name>
CHEMBL3402765_11-charged-pKa-8.1

> <IC50[nM]>
11

$$$$
CHEMBL3402765_11-charged-pKa-8.1
  -OEChem-05192314313D
 Structure written by MMmdl.
 61 64  0     0  0  0  0  0  0999 V2000
   17.2816   31.0754   52.1112 F   0  0  0  0  0  0  0  0  0  0  0  0
   17.5663   29.9576   52.8176 C   0  0  0  0  0  0  0  0  0  0  0  0
   17.2204   28.7069   52.3169 C   0  0  0  0  0  0  0  0  0  0  0  0
   17.5045   27.5609   53.0572 C   0  0  0  0  0  0  0  0  0  0  0  0
   17.1492   26.3482   52.5773 F   0  0  0  0  0  0  0  0  0  0  0  0
   18.1372   27.6641   54.2964 C   0  0  0  0  0  0  0  0  0  0  0  0
   18.4805   28.9202   54.8291 C   0  0  0  0  0  0  0  0  0  0  0  0
   18.1932   30.0628   54.0561 C   0  0  0  0  0  0  0  0  0  0  0  0
   19.0915   29.0865   56.1754 C   0  0  0  0  0  0  0  0  0  0  0  0
   19.4480   30.2440   56.6384 N   0  0  0  0  0  0  0  0  0  0  0  0
   19.9872   30.4154   57.9169 N   0  0  0  0  0  0  0  0  0  0  0  0
   20.3516   31.7988   58.2814 C   0  0  0  0  0  0  0  0  0  0  0  0
   21.7041   32.2478   57.7248 C   0  0  0  0  0  0  0  0  0  0  0  0
   22.8361   32.2592   58.5463 C   0  0  0  0  0  0  0  0  0  0  0  0
   24.0614   32.6950   58.0440 C   0  0  0  0  0  0  0  0  0  0  0  0
   24.1708   33.1134   56.7180 C   0  0  0  0  0  0  0  0  0  0  0  0
   23.0463   33.1012   55.8772 C   0  0  0  0  0  0  0  0  0  0  0  0
   23.0717   33.4390   54.5115 N   0  0  0  0  0  0  0  0  0  0  0  0
   24.1496   33.7673   53.6964 C   0  0  0  0  0  0  0  0  0  0  0  0
   25.3229   33.9268   54.0317 O   0  0  0  0  0  0  0  0  0  0  0  0
   23.6922   33.9229   52.4360 O   0  0  0  0  0  0  0  0  0  0  0  0
   24.5555   34.3241   51.3706 C   0  0  0  0  0  0  0  0  0  0  0  0
   24.9605   33.1210   50.5062 C   0  0  0  0  0  0  0  0  0  0  0  0
   23.7698   32.4740   49.7769 C   0  0  0  0  0  0  0  0  0  0  0  0
   24.2474   31.2754   48.9228 N   0  0  0  0  0  0  0  0  0  0  0  0
   24.9826   31.7341   47.6405 C   0  0  0  0  0  0  0  0  0  0  0  0
   25.3999   30.4887   46.8374 C   0  0  0  0  0  0  0  0  0  0  0  0
   24.2725   29.6655   46.5504 O   0  0  0  0  0  0  0  0  0  0  0  0
   23.5838   29.1848   47.7005 C   0  0  0  0  0  0  0  0  0  0  0  0
   23.0596   30.3553   48.5561 C   0  0  0  0  0  0  0  0  0  0  0  0
   21.8149   32.6843   56.3986 C   0  0  0  0  0  0  0  0  0  0  0  0
   20.2116   29.4040   58.8272 C   0  0  0  0  0  0  0  0  0  0  0  0
   20.6467   29.5340   59.9745 O   0  0  0  0  0  0  0  0  0  0  0  0
   19.8462   28.1043   58.2906 C   0  0  0  0  0  0  0  0  0  0  0  0
   19.3150   27.9488   57.0557 C   0  0  0  0  0  0  0  0  0  0  0  0
   16.7329   28.6241   51.3568 H   0  0  0  0  0  0  0  0  0  0  0  0
   18.3664   26.7680   54.8540 H   0  0  0  0  0  0  0  0  0  0  0  0
   18.4644   31.0384   54.4315 H   0  0  0  0  0  0  0  0  0  0  0  0
   19.5754   32.4754   57.8944 H   0  0  0  0  0  0  0  0  0  0  0  0
   20.3869   31.8706   59.3785 H   0  0  0  0  0  0  0  0  0  0  0  0
   22.7608   31.9297   59.5720 H   0  0  0  0  0  0  0  0  0  0  0  0
   24.9305   32.7087   58.6850 H   0  0  0  0  0  0  0  0  0  0  0  0
   24.5360   34.1507   56.7427 H   0  0  0  0  0  0  0  0  0  0  0  0
   24.9268   32.4697   56.2445 H   0  0  0  0  0  0  0  0  0  0  0  0
   24.0323   35.0591   50.7413 H   0  0  0  0  0  0  0  0  0  0  0  0
   25.4607   34.7830   51.7948 H   0  0  0  0  0  0  0  0  0  0  0  0
   25.6894   33.4591   49.7550 H   0  0  0  0  0  0  0  0  0  0  0  0
   25.4266   32.3648   51.1550 H   0  0  0  0  0  0  0  0  0  0  0  0
   23.0382   32.1217   50.5190 H   0  0  0  0  0  0  0  0  0  0  0  0
   23.2970   33.2204   49.1217 H   0  0  0  0  0  0  0  0  0  0  0  0
   24.3115   32.3586   47.0326 H   0  0  0  0  0  0  0  0  0  0  0  0
   25.8761   32.3146   47.9139 H   0  0  0  0  0  0  0  0  0  0  0  0
   25.8620   30.8085   45.8918 H   0  0  0  0  0  0  0  0  0  0  0  0
   26.1283   29.9096   47.4240 H   0  0  0  0  0  0  0  0  0  0  0  0
   22.7340   28.5649   47.3787 H   0  0  0  0  0  0  0  0  0  0  0  0
   24.2729   28.5769   48.3052 H   0  0  0  0  0  0  0  0  0  0  0  0
   22.5977   29.9641   49.4746 H   0  0  0  0  0  0  0  0  0  0  0  0
   22.3128   30.9258   47.9844 H   0  0  0  0  0  0  0  0  0  0  0  0
   20.9378   32.6997   55.7686 H   0  0  0  0  0  0  0  0  0  0  0  0
   20.0047   27.2277   58.9013 H   0  0  0  0  0  0  0  0  0  0  0  0
   19.0509   26.9584   56.7156 H   0  0  0  0  0  0  0  0  0  0  0  0
  1  2  1  0  0  0  0
  2  3  2  0  0  0  0
  2  8  1  0  0  0  0
  3  4  1  0  0  0  0
  4  5  1  0  0  0  0
  4  6  2  0  0  0  0
  6  7  1  0  0  0  0
  7  8  2  0  0  0  0
  7  9  1  0  0  0  0
  9 10  2  0  0  0  0
  9 35  1  0  0  0  0
 10 11  1  0  0  0  0
 11 12  1  0  0  0  0
 11 32  1  0  0  0  0
 12 13  1  0  0  0  0
 13 14  1  0  0  0  0
 13 31  2  0  0  0  0
 14 15  2  0  0  0  0
 15 16  1  0  0  0  0
 16 17  1  0  0  0  0
 17 18  2  0  0  0  0
 17 31  1  0  0  0  0
 18 19  1  0  0  0  0
 19 20  2  0  0  0  0
 19 21  1  0  0  0  0
 21 22  1  0  0  0  0
 22 23  1  0  0  0  0
 23 24  1  0  0  0  0
 24 25  1  0  0  0  0
 25 26  1  0  0  0  0
 25 30  1  0  0  0  0
 26 27  1  0  0  0  0
 27 28  1  0  0  0  0
 28 29  1  0  0  0  0
 29 30  1  0  0  0  0
 32 33  2  0  0  0  0
 32 34  1  0  0  0  0
 34 35  2  0  0  0  0
  3 36  1  0  0  0  0
  6 37  1  0  0  0  0
  8 38  1  0  0  0  0
 12 39  1  0  0  0  0
 12 40  1  0  0  0  0
 14 41  1  0  0  0  0
 15 42  1  0  0  0  0
 16 43  1  0  0  0  0
 16 44  1  0  0  0  0
 22 45  1  0  0  0  0
 22 46  1  0  0  0  0
 23 47  1  0  0  0  0
 23 48  1  0  0  0  0
 24 49  1  0  0  0  0
 24 50  1  0  0  0  0
 26 51  1  0  0  0  0
 26 52  1  0  0  0  0
 27 53  1  0  0  0  0
 27 54  1  0  0  0  0
 29 55  1  0  0  0  0
 29 56  1  0  0  0  0
 30 57  1  0  0  0  0
 30 58  1  0  0  0  0
 31 59  1  0  0  0  0
 34 60  1  0  0  0  0
 35 61  1  0  0  0  0
M  END
> <s_user_Name>
CHEMBL3402765_11-charged-pKa-8.1

> <IC50[nM]>
11

$$$$
CHEMBL3402765_11-charged-pKa-8.1
  -OEChem-05192314313D
 Structure written by MMmdl.
 61 64  0     0  0  0  0  0  0999 V2000
   17.2816   31.0754   52.1112 F   0  0  0  0  0  0  0  0  0  0  0  0
   17.5663   29.9576   52.8176 C   0  0  0  0  0  0  0  0  0  0  0  0
   17.2204   28.7069   52.3169 C   0  0  0  0  0  0  0  0  0  0  0  0
   17.5045   27.5609   53.0572 C   0  0  0  0  0  0  0  0  0  0  0  0
   17.1492   26.3482   52.5773 F   0  0  0  0  0  0  0  0  0  0  0  0
   18.1372   27.6641   54.2964 C   0  0  0  0  0  0  0  0  0  0  0  0
   18.4805   28.9202   54.8291 C   0  0  0  0  0  0  0  0  0  0  0  0
   18.1932   30.0628   54.0561 C   0  0  0  0  0  0  0  0  0  0  0  0
   19.0915   29.0865   56.1754 C   0  0  0  0  0  0  0  0  0  0  0  0
   19.4480   30.2440   56.6384 N   0  0  0  0  0  0  0  0  0  0  0  0
   19.9872   30.4154   57.9169 N   0  0  0  0  0  0  0  0  0  0  0  0
   20.3516   31.7988   58.2814 C   0  0  0  0  0  0  0  0  0  0  0  0
   21.7041   32.2478   57.7248 C   0  0  0  0  0  0  0  0  0  0  0  0
   22.8361   32.2592   58.5463 C   0  0  0  0  0  0  0  0  0  0  0  0
   24.0614   32.6950   58.0440 C   0  0  0  0  0  0  0  0  0  0  0  0
   24.1708   33.1134   56.7180 C   0  0  0  0  0  0  0  0  0  0  0  0
   23.0463   33.1012   55.8772 C   0  0  0  0  0  0  0  0  0  0  0  0
   23.0717   33.4390   54.5115 N   0  0  0  0  0  0  0  0  0  0  0  0
   24.1496   33.7673   53.6964 C   0  0  0  0  0  0  0  0  0  0  0  0
   25.3229   33.9268   54.0317 O   0  0  0  0  0  0  0  0  0  0  0  0
   23.6922   33.9229   52.4360 O   0  0  0  0  0  0  0  0  0  0  0  0
   24.5555   34.3241   51.3706 C   0  0  0  0  0  0  0  0  0  0  0  0
   24.9605   33.1210   50.5062 C   0  0  0  0  0  0  0  0  0  0  0  0
   23.7698   32.4740   49.7769 C   0  0  0  0  0  0  0  0  0  0  0  0
   24.2474   31.2754   48.9228 N   0  0  0  0  0  0  0  0  0  0  0  0
   24.9826   31.7341   47.6405 C   0  0  0  0  0  0  0  0  0  0  0  0
   25.3999   30.4887   46.8374 C   0  0  0  0  0  0  0  0  0  0  0  0
   24.2725   29.6655   46.5504 O   0  0  0  0  0  0  0  0  0  0  0  0
   23.5838   29.1848   47.7005 C   0  0  0  0  0  0  0  0  0  0  0  0
   23.0596   30.3553   48.5561 C   0  0  0  0  0  0  0  0  0  0  0  0
   21.8149   32.6843   56.3986 C   0  0  0  0  0  0  0  0  0  0  0  0
   20.2116   29.4040   58.8272 C   0  0  0  0  0  0  0  0  0  0  0  0
   20.6467   29.5340   59.9745 O   0  0  0  0  0  0  0  0  0  0  0  0
   19.8462   28.1043   58.2906 C   0  0  0  0  0  0  0  0  0  0  0  0
   19.3150   27.9488   57.0557 C   0  0  0  0  0  0  0  0  0  0  0  0
   16.7329   28.6241   51.3568 H   0  0  0  0  0  0  0  0  0  0  0  0
   18.3664   26.7680   54.8540 H   0  0  0  0  0  0  0  0  0  0  0  0
   18.4644   31.0384   54.4315 H   0  0  0  0  0  0  0  0  0  0  0  0
   19.5754   32.4754   57.8944 H   0  0  0  0  0  0  0  0  0  0  0  0
   20.3869   31.8706   59.3785 H   0  0  0  0  0  0  0  0  0  0  0  0
   22.5981   32.9044   59.4048 H   0  0  0  0  0  0  0  0  0  0  0  0
   22.9855   31.2264   58.8941 H   0  0  0  0  0  0  0  0  0  0  0  0
   24.9305   32.7087   58.6850 H   0  0  0  0  0  0  0  0  0  0  0  0
   25.1241   33.4481   56.3365 H   0  0  0  0  0  0  0  0  0  0  0  0
   24.0323   35.0591   50.7413 H   0  0  0  0  0  0  0  0  0  0  0  0
   25.4607   34.7830   51.7948 H   0  0  0  0  0  0  0  0  0  0  0  0
   25.6894   33.4591   49.7550 H   0  0  0  0  0  0  0  0  0  0  0  0
   25.4266   32.3648   51.1550 H   0  0  0  0  0  0  0  0  0  0  0  0
   23.0382   32.1217   50.5190 H   0  0  0  0  0  0  0  0  0  0  0  0
   23.2970   33.2204   49.1217 H   0  0  0  0  0  0  0  0  0  0  0  0
   24.3115   32.3586   47.0326 H   0  0  0  0  0  0  0  0  0  0  0  0
   25.8761   32.3146   47.9139 H   0  0  0  0  0  0  0  0  0  0  0  0
   25.8620   30.8085   45.8918 H   0  0  0  0  0  0  0  0  0  0  0  0
   26.1283   29.9096   47.4240 H   0  0  0  0  0  0  0  0  0  0  0  0
   22.7340   28.5649   47.3787 H   0  0  0  0  0  0  0  0  0  0  0  0
   24.2729   28.5769   48.3052 H   0  0  0  0  0  0  0  0  0  0  0  0
   22.5977   29.9641   49.4746 H   0  0  0  0  0  0  0  0  0  0  0  0
   22.3128   30.9258   47.9844 H   0  0  0  0  0  0  0  0  0  0  0  0
   20.9378   32.6997   55.7686 H   0  0  0  0  0  0  0  0  0  0  0  0
   20.0047   27.2277   58.9013 H   0  0  0  0  0  0  0  0  0  0  0  0
   19.0509   26.9584   56.7156 H   0  0  0  0  0  0  0  0  0  0  0  0
  1  2  1  0  0  0  0
  2  3  2  0  0  0  0
  2  8  1  0  0  0  0
  3  4  1  0  0  0  0
  4  5  1  0  0  0  0
  4  6  2  0  0  0  0
  6  7  1  0  0  0  0
  7  8  2  0  0  0  0
  7  9  1  0  0  0  0
  9 10  2  0  0  0  0
  9 35  1  0  0  0  0
 10 11  1  0  0  0  0
 11 12  1  0  0  0  0
 11 32  1  0  0  0  0
 12 13  1  0  0  0  0
 13 14  1  0  0  0  0
 13 31  2  0  0  0  0
 14 15  1  0  0  0  0
 15 16  2  0  0  0  0
 16 17  1  0  0  0  0
 17 18  2  0  0  0  0
 17 31  1  0  0  0  0
 18 19  1  0  0  0  0
 19 20  2  0  0  0  0
 19 21  1  0  0  0  0
 21 22  1  0  0  0  0
 22 23  1  0  0  0  0
 23 24  1  0  0  0  0
 24 25  1  0  0  0  0
 25 26  1  0  0  0  0
 25 30  1  0  0  0  0
 26 27  1  0  0  0  0
 27 28  1  0  0  0  0
 28 29  1  0  0  0  0
 29 30  1  0  0  0  0
 32 33  2  0  0  0  0
 32 34  1  0  0  0  0
 34 35  2  0  0  0  0
  3 36  1  0  0  0  0
  6 37  1  0  0  0  0
  8 38  1  0  0  0  0
 12 39  1  0  0  0  0
 12 40  1  0  0  0  0
 14 41  1  0  0  0  0
 14 42  1  0  0  0  0
 15 43  1  0  0  0  0
 16 44  1  0  0  0  0
 22 45  1  0  0  0  0
 22 46  1  0  0  0  0
 23 47  1  0  0  0  0
 23 48  1  0  0  0  0
 24 49  1  0  0  0  0
 24 50  1  0  0  0  0
 26 51  1  0  0  0  0
 26 52  1  0  0  0  0
 27 53  1  0  0  0  0
 27 54  1  0  0  0  0
 29 55  1  0  0  0  0
 29 56  1  0  0  0  0
 30 57  1  0  0  0  0
 30 58  1  0  0  0  0
 31 59  1  0  0  0  0
 34 60  1  0  0  0  0
 35 61  1  0  0  0  0
M  END
> <s_user_Name>
CHEMBL3402765_11-charged-pKa-8.1

> <IC50[nM]>
11

$$$$
CHEMBL3402765_11-charged-pKa-8.1
  -OEChem-05192314313D
 Structure written by MMmdl.
 61 64  0     0  0  0  0  0  0999 V2000
   17.2816   31.0754   52.1112 F   0  0  0  0  0  0  0  0  0  0  0  0
   17.5663   29.9576   52.8176 C   0  0  0  0  0  0  0  0  0  0  0  0
   17.2204   28.7069   52.3169 C   0  0  0  0  0  0  0  0  0  0  0  0
   17.5045   27.5609   53.0572 C   0  0  0  0  0  0  0  0  0  0  0  0
   17.1492   26.3482   52.5773 F   0  0  0  0  0  0  0  0  0  0  0  0
   18.1372   27.6641   54.2964 C   0  0  0  0  0  0  0  0  0  0  0  0
   18.4805   28.9202   54.8291 C   0  0  0  0  0  0  0  0  0  0  0  0
   18.1932   30.0628   54.0561 C   0  0  0  0  0  0  0  0  0  0  0  0
   19.0915   29.0865   56.1754 C   0  0  0  0  0  0  0  0  0  0  0  0
   19.4480   30.2440   56.6384 N   0  0  0  0  0  0  0  0  0  0  0  0
   19.9872   30.4154   57.9169 N   0  0  0  0  0  0  0  0  0  0  0  0
   20.3516   31.7988   58.2814 C   0  0  0  0  0  0  0  0  0  0  0  0
   21.7041   32.2478   57.7248 C   0  0  0  0  0  0  0  0  0  0  0  0
   22.8361   32.2592   58.5463 C   0  0  0  0  0  0  0  0  0  0  0  0
   24.0614   32.6950   58.0440 C   0  0  0  0  0  0  0  0  0  0  0  0
   24.1708   33.1134   56.7180 C   0  0  0  0  0  0  0  0  0  0  0  0
   23.0463   33.1012   55.8772 C   0  0  0  0  0  0  0  0  0  0  0  0
   23.0717   33.4390   54.5115 N   0  0  0  0  0  0  0  0  0  0  0  0
   24.1496   33.7673   53.6964 C   0  0  0  0  0  0  0  0  0  0  0  0
   25.3229   33.9268   54.0317 O   0  0  0  0  0  0  0  0  0  0  0  0
   23.6922   33.9229   52.4360 O   0  0  0  0  0  0  0  0  0  0  0  0
   24.5555   34.3241   51.3706 C   0  0  0  0  0  0  0  0  0  0  0  0
   24.9605   33.1210   50.5062 C   0  0  0  0  0  0  0  0  0  0  0  0
   23.7698   32.4740   49.7769 C   0  0  0  0  0  0  0  0  0  0  0  0
   24.2474   31.2754   48.9228 N   0  0  0  0  0  0  0  0  0  0  0  0
   24.9826   31.7341   47.6405 C   0  0  0  0  0  0  0  0  0  0  0  0
   25.3999   30.4887   46.8374 C   0  0  0  0  0  0  0  0  0  0  0  0
   24.2725   29.6655   46.5504 O   0  0  0  0  0  0  0  0  0  0  0  0
   23.5838   29.1848   47.7005 C   0  0  0  0  0  0  0  0  0  0  0  0
   23.0596   30.3553   48.5561 C   0  0  0  0  0  0  0  0  0  0  0  0
   21.8149   32.6843   56.3986 C   0  0  0  0  0  0  0  0  0  0  0  0
   20.2116   29.4040   58.8272 C   0  0  0  0  0  0  0  0  0  0  0  0
   20.6467   29.5340   59.9745 O   0  0  0  0  0  0  0  0  0  0  0  0
   19.8462   28.1043   58.2906 C   0  0  0  0  0  0  0  0  0  0  0  0
   19.3150   27.9488   57.0557 C   0  0  0  0  0  0  0  0  0  0  0  0
   16.7329   28.6241   51.3568 H   0  0  0  0  0  0  0  0  0  0  0  0
   18.3664   26.7680   54.8540 H   0  0  0  0  0  0  0  0  0  0  0  0
   18.4644   31.0384   54.4315 H   0  0  0  0  0  0  0  0  0  0  0  0
   19.5754   32.4754   57.8944 H   0  0  0  0  0  0  0  0  0  0  0  0
   20.3869   31.8706   59.3785 H   0  0  0  0  0  0  0  0  0  0  0  0
   22.7608   31.9297   59.5720 H   0  0  0  0  0  0  0  0  0  0  0  0
   24.9305   32.7087   58.6850 H   0  0  0  0  0  0  0  0  0  0  0  0
   25.1241   33.4481   56.3365 H   0  0  0  0  0  0  0  0  0  0  0  0
   24.0323   35.0591   50.7413 H   0  0  0  0  0  0  0  0  0  0  0  0
   25.4607   34.7830   51.7948 H   0  0  0  0  0  0  0  0  0  0  0  0
   25.6894   33.4591   49.7550 H   0  0  0  0  0  0  0  0  0  0  0  0
   25.4266   32.3648   51.1550 H   0  0  0  0  0  0  0  0  0  0  0  0
   23.0382   32.1217   50.5190 H   0  0  0  0  0  0  0  0  0  0  0  0
   23.2970   33.2204   49.1217 H   0  0  0  0  0  0  0  0  0  0  0  0
   24.3115   32.3586   47.0326 H   0  0  0  0  0  0  0  0  0  0  0  0
   25.8761   32.3146   47.9139 H   0  0  0  0  0  0  0  0  0  0  0  0
   25.8620   30.8085   45.8918 H   0  0  0  0  0  0  0  0  0  0  0  0
   26.1283   29.9096   47.4240 H   0  0  0  0  0  0  0  0  0  0  0  0
   22.7340   28.5649   47.3787 H   0  0  0  0  0  0  0  0  0  0  0  0
   24.2729   28.5769   48.3052 H   0  0  0  0  0  0  0  0  0  0  0  0
   22.5977   29.9641   49.4746 H   0  0  0  0  0  0  0  0  0  0  0  0
   22.3128   30.9258   47.9844 H   0  0  0  0  0  0  0  0  0  0  0  0
   21.4729   31.8521   55.7658 H   0  0  0  0  0  0  0  0  0  0  0  0
   21.1254   33.5346   56.2905 H   0  0  0  0  0  0  0  0  0  0  0  0
   20.0047   27.2277   58.9013 H   0  0  0  0  0  0  0  0  0  0  0  0
   19.0509   26.9584   56.7156 H   0  0  0  0  0  0  0  0  0  0  0  0
  1  2  1  0  0  0  0
  2  3  2  0  0  0  0
  2  8  1  0  0  0  0
  3  4  1  0  0  0  0
  4  5  1  0  0  0  0
  4  6  2  0  0  0  0
  6  7  1  0  0  0  0
  7  8  2  0  0  0  0
  7  9  1  0  0  0  0
  9 10  2  0  0  0  0
  9 35  1  0  0  0  0
 10 11  1  0  0  0  0
 11 12  1  0  0  0  0
 11 32  1  0  0  0  0
 12 13  1  0  0  0  0
 13 14  2  0  0  0  0
 13 31  1  0  0  0  0
 14 15  1  0  0  0  0
 15 16  2  0  0  0  0
 16 17  1  0  0  0  0
 17 18  2  0  0  0  0
 17 31  1  0  0  0  0
 18 19  1  0  0  0  0
 19 20  2  0  0  0  0
 19 21  1  0  0  0  0
 21 22  1  0  0  0  0
 22 23  1  0  0  0  0
 23 24  1  0  0  0  0
 24 25  1  0  0  0  0
 25 26  1  0  0  0  0
 25 30  1  0  0  0  0
 26 27  1  0  0  0  0
 27 28  1  0  0  0  0
 28 29  1  0  0  0  0
 29 30  1  0  0  0  0
 32 33  2  0  0  0  0
 32 34  1  0  0  0  0
 34 35  2  0  0  0  0
  3 36  1  0  0  0  0
  6 37  1  0  0  0  0
  8 38  1  0  0  0  0
 12 39  1  0  0  0  0
 12 40  1  0  0  0  0
 14 41  1  0  0  0  0
 15 42  1  0  0  0  0
 16 43  1  0  0  0  0
 22 44  1  0  0  0  0
 22 45  1  0  0  0  0
 23 46  1  0  0  0  0
 23 47  1  0  0  0  0
 24 48  1  0  0  0  0
 24 49  1  0  0  0  0
 26 50  1  0  0  0  0
 26 51  1  0  0  0  0
 27 52  1  0  0  0  0
 27 53  1  0  0  0  0
 29 54  1  0  0  0  0
 29 55  1  0  0  0  0
 30 56  1  0  0  0  0
 30 57  1  0  0  0  0
 31 58  1  0  0  0  0
 31 59  1  0  0  0  0
 34 60  1  0  0  0  0
 35 61  1  0  0  0  0
M  END
> <s_user_Name>
CHEMBL3402765_11-charged-pKa-8.1

> <IC50[nM]>
11

$$$$
