CHEMBL3402748_5300
  -OEChem-05192314313D
 Structure written by MMmdl.
 44 47  0     0  0  0  0  0  0999 V2000
   24.3564   33.6113   52.8448 C   0  0  0  0  0  0  0  0  0  0  0  0
   23.0183   33.4975   52.5099 C   0  0  0  0  0  0  0  0  0  0  0  0
   22.3767   33.2602   53.6894 N   0  0  0  0  0  0  0  0  0  0  0  0
   23.3432   33.2295   54.6627 C   0  0  0  0  0  0  0  0  0  0  0  0
   24.5366   33.4320   54.1451 N   0  0  0  0  0  0  0  0  0  0  0  0
   23.0804   32.9514   56.1082 C   0  0  0  0  0  0  0  0  0  0  0  0
   24.1299   32.9871   57.0396 C   0  0  0  0  0  0  0  0  0  0  0  0
   23.9111   32.6334   58.3678 C   0  0  0  0  0  0  0  0  0  0  0  0
   22.6434   32.2299   58.7760 C   0  0  0  0  0  0  0  0  0  0  0  0
   21.5787   32.2132   57.8761 C   0  0  0  0  0  0  0  0  0  0  0  0
   20.1881   31.7866   58.3387 C   0  0  0  0  0  0  0  0  0  0  0  0
   19.8602   30.4029   57.9603 N   0  0  0  0  0  0  0  0  0  0  0  0
   19.3499   30.2301   56.6724 N   0  0  0  0  0  0  0  0  0  0  0  0
   19.0474   29.0660   56.1901 C   0  0  0  0  0  0  0  0  0  0  0  0
   19.3238   27.9262   57.0522 C   0  0  0  0  0  0  0  0  0  0  0  0
   19.8480   28.0844   58.2899 C   0  0  0  0  0  0  0  0  0  0  0  0
   20.1660   29.3879   58.8437 C   0  0  0  0  0  0  0  0  0  0  0  0
   20.6457   29.5266   59.9726 O   0  0  0  0  0  0  0  0  0  0  0  0
   18.4259   28.8961   54.8518 C   0  0  0  0  0  0  0  0  0  0  0  0
   18.2460   27.6349   54.2566 C   0  0  0  0  0  0  0  0  0  0  0  0
   17.5752   27.5079   53.0404 C   0  0  0  0  0  0  0  0  0  0  0  0
   17.3791   26.2837   52.5028 F   0  0  0  0  0  0  0  0  0  0  0  0
   17.0894   28.6363   52.3852 C   0  0  0  0  0  0  0  0  0  0  0  0
   17.2733   29.8953   52.9468 C   0  0  0  0  0  0  0  0  0  0  0  0
   16.7952   30.9967   52.3254 F   0  0  0  0  0  0  0  0  0  0  0  0
   17.9353   30.0226   54.1664 C   0  0  0  0  0  0  0  0  0  0  0  0
   21.8002   32.5881   56.5482 C   0  0  0  0  0  0  0  0  0  0  0  0
   22.2516   33.6272   51.1806 C   0  0  0  0  0  0  0  0  0  0  0  0
   25.1481   33.8186   52.1401 H   0  0  0  0  0  0  0  0  0  0  0  0
   21.3934   33.1333   53.8196 H   0  0  0  0  0  0  0  0  0  0  0  0
   25.1163   33.2919   56.7226 H   0  0  0  0  0  0  0  0  0  0  0  0
   24.7226   32.6720   59.0794 H   0  0  0  0  0  0  0  0  0  0  0  0
   22.4827   31.9267   59.8000 H   0  0  0  0  0  0  0  0  0  0  0  0
   20.1408   31.8718   59.4344 H   0  0  0  0  0  0  0  0  0  0  0  0
   19.4453   32.4600   57.8862 H   0  0  0  0  0  0  0  0  0  0  0  0
   19.1053   26.9304   56.6956 H   0  0  0  0  0  0  0  0  0  0  0  0
   20.0372   27.2061   58.8892 H   0  0  0  0  0  0  0  0  0  0  0  0
   18.6320   26.7537   54.7473 H   0  0  0  0  0  0  0  0  0  0  0  0
   16.5711   28.5342   51.4432 H   0  0  0  0  0  0  0  0  0  0  0  0
   18.0744   31.0047   54.5936 H   0  0  0  0  0  0  0  0  0  0  0  0
   20.9745   32.5980   55.8522 H   0  0  0  0  0  0  0  0  0  0  0  0
   22.1773   32.6397   50.7017 H   0  0  0  0  0  0  0  0  0  0  0  0
   21.2416   34.0165   51.3765 H   0  0  0  0  0  0  0  0  0  0  0  0
   22.7881   34.3184   50.5140 H   0  0  0  0  0  0  0  0  0  0  0  0
  1  2  2  0  0  0  0
  1  5  1  0  0  0  0
  2 28  1  0  0  0  0
  2  3  1  0  0  0  0
  3  4  1  0  0  0  0
  4  6  1  0  0  0  0
  4  5  2  0  0  0  0
  6  7  2  0  0  0  0
  6 27  1  0  0  0  0
  7  8  1  0  0  0  0
  8  9  2  0  0  0  0
  9 10  1  0  0  0  0
 10 11  1  0  0  0  0
 10 27  2  0  0  0  0
 11 12  1  0  0  0  0
 12 13  1  0  0  0  0
 12 17  1  0  0  0  0
 13 14  2  0  0  0  0
 14 15  1  0  0  0  0
 14 19  1  0  0  0  0
 15 16  2  0  0  0  0
 16 17  1  0  0  0  0
 17 18  2  0  0  0  0
 19 20  2  0  0  0  0
 19 26  1  0  0  0  0
 20 21  1  0  0  0  0
 21 22  1  0  0  0  0
 21 23  2  0  0  0  0
 23 24  1  0  0  0  0
 24 25  1  0  0  0  0
 24 26  2  0  0  0  0
  1 29  1  0  0  0  0
  3 30  1  0  0  0  0
  7 31  1  0  0  0  0
  8 32  1  0  0  0  0
  9 33  1  0  0  0  0
 11 34  1  0  0  0  0
 11 35  1  0  0  0  0
 15 36  1  0  0  0  0
 16 37  1  0  0  0  0
 20 38  1  0  0  0  0
 23 39  1  0  0  0  0
 26 40  1  0  0  0  0
 27 41  1  0  0  0  0
 28 42  1  0  0  0  0
 28 43  1  0  0  0  0
 28 44  1  0  0  0  0
M  END
> <s_user_Name>
CHEMBL3402748_5300

> <IC50[nM]>
5300

$$$$
CHEMBL3402748_5300
  -OEChem-05192314313D
 Structure written by MMmdl.
 44 47  0     0  0  0  0  0  0999 V2000
   24.3564   33.6113   52.8448 C   0  0  0  0  0  0  0  0  0  0  0  0
   23.0183   33.4975   52.5099 C   0  0  0  0  0  0  0  0  0  0  0  0
   22.3767   33.2602   53.6894 N   0  0  0  0  0  0  0  0  0  0  0  0
   23.3432   33.2295   54.6627 C   0  0  0  0  0  0  0  0  0  0  0  0
   24.5366   33.4320   54.1451 N   0  0  0  0  0  0  0  0  0  0  0  0
   23.0804   32.9514   56.1082 C   0  0  0  0  0  0  0  0  0  0  0  0
   24.1299   32.9871   57.0396 C   0  0  0  0  0  0  0  0  0  0  0  0
   23.9111   32.6334   58.3678 C   0  0  0  0  0  0  0  0  0  0  0  0
   22.6434   32.2299   58.7760 C   0  0  0  0  0  0  0  0  0  0  0  0
   21.5787   32.2132   57.8761 C   0  0  0  0  0  0  0  0  0  0  0  0
   20.1881   31.7866   58.3387 C   0  0  0  0  0  0  0  0  0  0  0  0
   19.8602   30.4029   57.9603 N   0  0  0  0  0  0  0  0  0  0  0  0
   19.3499   30.2301   56.6724 N   0  0  0  0  0  0  0  0  0  0  0  0
   19.0474   29.0660   56.1901 C   0  0  0  0  0  0  0  0  0  0  0  0
   19.3238   27.9262   57.0522 C   0  0  0  0  0  0  0  0  0  0  0  0
   19.8480   28.0844   58.2899 C   0  0  0  0  0  0  0  0  0  0  0  0
   20.1660   29.3879   58.8437 C   0  0  0  0  0  0  0  0  0  0  0  0
   20.6457   29.5266   59.9726 O   0  0  0  0  0  0  0  0  0  0  0  0
   18.4259   28.8961   54.8518 C   0  0  0  0  0  0  0  0  0  0  0  0
   18.2460   27.6349   54.2566 C   0  0  0  0  0  0  0  0  0  0  0  0
   17.5752   27.5079   53.0404 C   0  0  0  0  0  0  0  0  0  0  0  0
   17.3791   26.2837   52.5028 F   0  0  0  0  0  0  0  0  0  0  0  0
   17.0894   28.6363   52.3852 C   0  0  0  0  0  0  0  0  0  0  0  0
   17.2733   29.8953   52.9468 C   0  0  0  0  0  0  0  0  0  0  0  0
   16.7952   30.9967   52.3254 F   0  0  0  0  0  0  0  0  0  0  0  0
   17.9353   30.0226   54.1664 C   0  0  0  0  0  0  0  0  0  0  0  0
   21.8002   32.5881   56.5482 C   0  0  0  0  0  0  0  0  0  0  0  0
   22.2516   33.6272   51.1806 C   0  0  0  0  0  0  0  0  0  0  0  0
   25.1481   33.8186   52.1401 H   0  0  0  0  0  0  0  0  0  0  0  0
   25.4074   33.4474   54.6365 H   0  0  0  0  0  0  0  0  0  0  0  0
   25.1163   33.2919   56.7226 H   0  0  0  0  0  0  0  0  0  0  0  0
   24.7226   32.6720   59.0794 H   0  0  0  0  0  0  0  0  0  0  0  0
   22.4827   31.9267   59.8000 H   0  0  0  0  0  0  0  0  0  0  0  0
   20.1408   31.8718   59.4344 H   0  0  0  0  0  0  0  0  0  0  0  0
   19.4453   32.4600   57.8862 H   0  0  0  0  0  0  0  0  0  0  0  0
   19.1053   26.9304   56.6956 H   0  0  0  0  0  0  0  0  0  0  0  0
   20.0372   27.2061   58.8892 H   0  0  0  0  0  0  0  0  0  0  0  0
   18.6320   26.7537   54.7473 H   0  0  0  0  0  0  0  0  0  0  0  0
   16.5711   28.5342   51.4432 H   0  0  0  0  0  0  0  0  0  0  0  0
   18.0744   31.0047   54.5936 H   0  0  0  0  0  0  0  0  0  0  0  0
   20.9745   32.5980   55.8522 H   0  0  0  0  0  0  0  0  0  0  0  0
   21.1745   33.4999   51.3640 H   0  0  0  0  0  0  0  0  0  0  0  0
   22.4347   34.6216   50.7474 H   0  0  0  0  0  0  0  0  0  0  0  0
   22.5982   32.8528   50.4805 H   0  0  0  0  0  0  0  0  0  0  0  0
  1  2  2  0  0  0  0
  1  5  1  0  0  0  0
  2 28  1  0  0  0  0
  2  3  1  0  0  0  0
  3  4  2  0  0  0  0
  4  6  1  0  0  0  0
  4  5  1  0  0  0  0
  6  7  2  0  0  0  0
  6 27  1  0  0  0  0
  7  8  1  0  0  0  0
  8  9  2  0  0  0  0
  9 10  1  0  0  0  0
 10 11  1  0  0  0  0
 10 27  2  0  0  0  0
 11 12  1  0  0  0  0
 12 13  1  0  0  0  0
 12 17  1  0  0  0  0
 13 14  2  0  0  0  0
 14 15  1  0  0  0  0
 14 19  1  0  0  0  0
 15 16  2  0  0  0  0
 16 17  1  0  0  0  0
 17 18  2  0  0  0  0
 19 20  2  0  0  0  0
 19 26  1  0  0  0  0
 20 21  1  0  0  0  0
 21 22  1  0  0  0  0
 21 23  2  0  0  0  0
 23 24  1  0  0  0  0
 24 25  1  0  0  0  0
 24 26  2  0  0  0  0
  1 29  1  0  0  0  0
  5 30  1  0  0  0  0
  7 31  1  0  0  0  0
  8 32  1  0  0  0  0
  9 33  1  0  0  0  0
 11 34  1  0  0  0  0
 11 35  1  0  0  0  0
 15 36  1  0  0  0  0
 16 37  1  0  0  0  0
 20 38  1  0  0  0  0
 23 39  1  0  0  0  0
 26 40  1  0  0  0  0
 27 41  1  0  0  0  0
 28 42  1  0  0  0  0
 28 43  1  0  0  0  0
 28 44  1  0  0  0  0
M  END
> <s_user_Name>
CHEMBL3402748_5300

> <IC50[nM]>
5300

$$$$
CHEMBL3402748_5300
  -OEChem-05192314313D
 Structure written by MMmdl.
 44 47  0     1  0  0  0  0  0999 V2000
   24.3564   33.6113   52.8448 C   0  0  0  0  0  0  0  0  0  0  0  0
   23.0183   33.4975   52.5099 C   0  0  3  0  0  0  0  0  0  0  0  0
   22.3767   33.2602   53.6894 N   0  0  0  0  0  0  0  0  0  0  0  0
   23.3432   33.2295   54.6627 C   0  0  0  0  0  0  0  0  0  0  0  0
   24.5366   33.4320   54.1451 N   0  0  0  0  0  0  0  0  0  0  0  0
   23.0804   32.9514   56.1082 C   0  0  0  0  0  0  0  0  0  0  0  0
   24.1299   32.9871   57.0396 C   0  0  0  0  0  0  0  0  0  0  0  0
   23.9111   32.6334   58.3678 C   0  0  0  0  0  0  0  0  0  0  0  0
   22.6434   32.2299   58.7760 C   0  0  0  0  0  0  0  0  0  0  0  0
   21.5787   32.2132   57.8761 C   0  0  0  0  0  0  0  0  0  0  0  0
   20.1881   31.7866   58.3387 C   0  0  0  0  0  0  0  0  0  0  0  0
   19.8602   30.4029   57.9603 N   0  0  0  0  0  0  0  0  0  0  0  0
   19.3499   30.2301   56.6724 N   0  0  0  0  0  0  0  0  0  0  0  0
   19.0474   29.0660   56.1901 C   0  0  0  0  0  0  0  0  0  0  0  0
   19.3238   27.9262   57.0522 C   0  0  0  0  0  0  0  0  0  0  0  0
   19.8480   28.0844   58.2899 C   0  0  0  0  0  0  0  0  0  0  0  0
   20.1660   29.3879   58.8437 C   0  0  0  0  0  0  0  0  0  0  0  0
   20.6457   29.5266   59.9726 O   0  0  0  0  0  0  0  0  0  0  0  0
   18.4259   28.8961   54.8518 C   0  0  0  0  0  0  0  0  0  0  0  0
   18.2460   27.6349   54.2566 C   0  0  0  0  0  0  0  0  0  0  0  0
   17.5752   27.5079   53.0404 C   0  0  0  0  0  0  0  0  0  0  0  0
   17.3791   26.2837   52.5028 F   0  0  0  0  0  0  0  0  0  0  0  0
   17.0894   28.6363   52.3852 C   0  0  0  0  0  0  0  0  0  0  0  0
   17.2733   29.8953   52.9468 C   0  0  0  0  0  0  0  0  0  0  0  0
   16.7952   30.9967   52.3254 F   0  0  0  0  0  0  0  0  0  0  0  0
   17.9353   30.0226   54.1664 C   0  0  0  0  0  0  0  0  0  0  0  0
   21.8002   32.5881   56.5482 C   0  0  0  0  0  0  0  0  0  0  0  0
   22.2516   33.6272   51.1806 C   0  0  0  0  0  0  0  0  0  0  0  0
   25.1481   33.8186   52.1401 H   0  0  0  0  0  0  0  0  0  0  0  0
   23.1399   32.4166   52.3457 H   0  0  0  0  0  0  0  0  0  0  0  0
   25.1163   33.2919   56.7226 H   0  0  0  0  0  0  0  0  0  0  0  0
   24.7226   32.6720   59.0794 H   0  0  0  0  0  0  0  0  0  0  0  0
   22.4827   31.9267   59.8000 H   0  0  0  0  0  0  0  0  0  0  0  0
   20.1408   31.8718   59.4344 H   0  0  0  0  0  0  0  0  0  0  0  0
   19.4453   32.4600   57.8862 H   0  0  0  0  0  0  0  0  0  0  0  0
   19.1053   26.9304   56.6956 H   0  0  0  0  0  0  0  0  0  0  0  0
   20.0372   27.2061   58.8892 H   0  0  0  0  0  0  0  0  0  0  0  0
   18.6320   26.7537   54.7473 H   0  0  0  0  0  0  0  0  0  0  0  0
   16.5711   28.5342   51.4432 H   0  0  0  0  0  0  0  0  0  0  0  0
   18.0744   31.0047   54.5936 H   0  0  0  0  0  0  0  0  0  0  0  0
   20.9745   32.5980   55.8522 H   0  0  0  0  0  0  0  0  0  0  0  0
   21.1789   33.4597   51.3575 H   0  0  0  0  0  0  0  0  0  0  0  0
   22.4018   34.6356   50.7677 H   0  0  0  0  0  0  0  0  0  0  0  0
   22.6266   32.8791   50.4667 H   0  0  0  0  0  0  0  0  0  0  0  0
  1  2  1  0  0  0  0
  1  5  2  0  0  0  0
  2 28  1  0  0  0  0
  2  3  1  0  0  0  0
  3  4  2  0  0  0  0
  4  6  1  0  0  0  0
  4  5  1  0  0  0  0
  6  7  2  0  0  0  0
  6 27  1  0  0  0  0
  7  8  1  0  0  0  0
  8  9  2  0  0  0  0
  9 10  1  0  0  0  0
 10 11  1  0  0  0  0
 10 27  2  0  0  0  0
 11 12  1  0  0  0  0
 12 13  1  0  0  0  0
 12 17  1  0  0  0  0
 13 14  2  0  0  0  0
 14 15  1  0  0  0  0
 14 19  1  0  0  0  0
 15 16  2  0  0  0  0
 16 17  1  0  0  0  0
 17 18  2  0  0  0  0
 19 20  2  0  0  0  0
 19 26  1  0  0  0  0
 20 21  1  0  0  0  0
 21 22  1  0  0  0  0
 21 23  2  0  0  0  0
 23 24  1  0  0  0  0
 24 25  1  0  0  0  0
 24 26  2  0  0  0  0
  1 29  1  0  0  0  0
  2 30  1  0  0  0  0
  7 31  1  0  0  0  0
  8 32  1  0  0  0  0
  9 33  1  0  0  0  0
 11 34  1  0  0  0  0
 11 35  1  0  0  0  0
 15 36  1  0  0  0  0
 16 37  1  0  0  0  0
 20 38  1  0  0  0  0
 23 39  1  0  0  0  0
 26 40  1  0  0  0  0
 27 41  1  0  0  0  0
 28 42  1  0  0  0  0
 28 43  1  0  0  0  0
 28 44  1  0  0  0  0
M  END
> <s_user_Name>
CHEMBL3402748_5300

> <IC50[nM]>
5300

$$$$
CHEMBL3402748_5300
  -OEChem-05192314313D
 Structure written by MMmdl.
 44 47  0     1  0  0  0  0  0999 V2000
   24.3564   33.6113   52.8448 C   0  0  0  0  0  0  0  0  0  0  0  0
   23.0183   33.4975   52.5099 C   0  0  0  0  0  0  0  0  0  0  0  0
   22.3767   33.2602   53.6894 N   0  0  0  0  0  0  0  0  0  0  0  0
   23.3432   33.2295   54.6627 C   0  0  3  0  0  0  0  0  0  0  0  0
   24.5366   33.4320   54.1451 N   0  0  0  0  0  0  0  0  0  0  0  0
   23.0804   32.9514   56.1082 C   0  0  0  0  0  0  0  0  0  0  0  0
   24.1299   32.9871   57.0396 C   0  0  0  0  0  0  0  0  0  0  0  0
   23.9111   32.6334   58.3678 C   0  0  0  0  0  0  0  0  0  0  0  0
   22.6434   32.2299   58.7760 C   0  0  0  0  0  0  0  0  0  0  0  0
   21.5787   32.2132   57.8761 C   0  0  0  0  0  0  0  0  0  0  0  0
   20.1881   31.7866   58.3387 C   0  0  0  0  0  0  0  0  0  0  0  0
   19.8602   30.4029   57.9603 N   0  0  0  0  0  0  0  0  0  0  0  0
   19.3499   30.2301   56.6724 N   0  0  0  0  0  0  0  0  0  0  0  0
   19.0474   29.0660   56.1901 C   0  0  0  0  0  0  0  0  0  0  0  0
   19.3238   27.9262   57.0522 C   0  0  0  0  0  0  0  0  0  0  0  0
   19.8480   28.0844   58.2899 C   0  0  0  0  0  0  0  0  0  0  0  0
   20.1660   29.3879   58.8437 C   0  0  0  0  0  0  0  0  0  0  0  0
   20.6457   29.5266   59.9726 O   0  0  0  0  0  0  0  0  0  0  0  0
   18.4259   28.8961   54.8518 C   0  0  0  0  0  0  0  0  0  0  0  0
   18.2460   27.6349   54.2566 C   0  0  0  0  0  0  0  0  0  0  0  0
   17.5752   27.5079   53.0404 C   0  0  0  0  0  0  0  0  0  0  0  0
   17.3791   26.2837   52.5028 F   0  0  0  0  0  0  0  0  0  0  0  0
   17.0894   28.6363   52.3852 C   0  0  0  0  0  0  0  0  0  0  0  0
   17.2733   29.8953   52.9468 C   0  0  0  0  0  0  0  0  0  0  0  0
   16.7952   30.9967   52.3254 F   0  0  0  0  0  0  0  0  0  0  0  0
   17.9353   30.0226   54.1664 C   0  0  0  0  0  0  0  0  0  0  0  0
   21.8002   32.5881   56.5482 C   0  0  0  0  0  0  0  0  0  0  0  0
   22.2516   33.6272   51.1806 C   0  0  0  0  0  0  0  0  0  0  0  0
   25.1481   33.8186   52.1401 H   0  0  0  0  0  0  0  0  0  0  0  0
   23.2208   34.3088   54.8361 H   0  0  0  0  0  0  0  0  0  0  0  0
   25.1163   33.2919   56.7226 H   0  0  0  0  0  0  0  0  0  0  0  0
   24.7226   32.6720   59.0794 H   0  0  0  0  0  0  0  0  0  0  0  0
   22.4827   31.9267   59.8000 H   0  0  0  0  0  0  0  0  0  0  0  0
   20.1408   31.8718   59.4344 H   0  0  0  0  0  0  0  0  0  0  0  0
   19.4453   32.4600   57.8862 H   0  0  0  0  0  0  0  0  0  0  0  0
   19.1053   26.9304   56.6956 H   0  0  0  0  0  0  0  0  0  0  0  0
   20.0372   27.2061   58.8892 H   0  0  0  0  0  0  0  0  0  0  0  0
   18.6320   26.7537   54.7473 H   0  0  0  0  0  0  0  0  0  0  0  0
   16.5711   28.5342   51.4432 H   0  0  0  0  0  0  0  0  0  0  0  0
   18.0744   31.0047   54.5936 H   0  0  0  0  0  0  0  0  0  0  0  0
   20.9745   32.5980   55.8522 H   0  0  0  0  0  0  0  0  0  0  0  0
   21.1745   33.4999   51.3640 H   0  0  0  0  0  0  0  0  0  0  0  0
   22.4347   34.6216   50.7474 H   0  0  0  0  0  0  0  0  0  0  0  0
   22.5982   32.8528   50.4805 H   0  0  0  0  0  0  0  0  0  0  0  0
  1  2  1  0  0  0  0
  1  5  2  0  0  0  0
  2 28  1  0  0  0  0
  2  3  2  0  0  0  0
  3  4  1  0  0  0  0
  4  6  1  0  0  0  0
  4  5  1  0  0  0  0
  6  7  2  0  0  0  0
  6 27  1  0  0  0  0
  7  8  1  0  0  0  0
  8  9  2  0  0  0  0
  9 10  1  0  0  0  0
 10 11  1  0  0  0  0
 10 27  2  0  0  0  0
 11 12  1  0  0  0  0
 12 13  1  0  0  0  0
 12 17  1  0  0  0  0
 13 14  2  0  0  0  0
 14 15  1  0  0  0  0
 14 19  1  0  0  0  0
 15 16  2  0  0  0  0
 16 17  1  0  0  0  0
 17 18  2  0  0  0  0
 19 20  2  0  0  0  0
 19 26  1  0  0  0  0
 20 21  1  0  0  0  0
 21 22  1  0  0  0  0
 21 23  2  0  0  0  0
 23 24  1  0  0  0  0
 24 25  1  0  0  0  0
 24 26  2  0  0  0  0
  1 29  1  0  0  0  0
  4 30  1  0  0  0  0
  7 31  1  0  0  0  0
  8 32  1  0  0  0  0
  9 33  1  0  0  0  0
 11 34  1  0  0  0  0
 11 35  1  0  0  0  0
 15 36  1  0  0  0  0
 16 37  1  0  0  0  0
 20 38  1  0  0  0  0
 23 39  1  0  0  0  0
 26 40  1  0  0  0  0
 27 41  1  0  0  0  0
 28 42  1  0  0  0  0
 28 43  1  0  0  0  0
 28 44  1  0  0  0  0
M  END
> <s_user_Name>
CHEMBL3402748_5300

> <IC50[nM]>
5300

$$$$
CHEMBL3402748_5300
  -OEChem-05192314313D
 Structure written by MMmdl.
 44 47  0     0  0  0  0  0  0999 V2000
   24.3564   33.6113   52.8448 C   0  0  0  0  0  0  0  0  0  0  0  0
   23.0183   33.4975   52.5099 C   0  0  0  0  0  0  0  0  0  0  0  0
   22.3767   33.2602   53.6894 N   0  0  0  0  0  0  0  0  0  0  0  0
   23.3432   33.2295   54.6627 C   0  0  0  0  0  0  0  0  0  0  0  0
   24.5366   33.4320   54.1451 N   0  0  0  0  0  0  0  0  0  0  0  0
   23.0804   32.9514   56.1082 C   0  0  0  0  0  0  0  0  0  0  0  0
   24.1299   32.9871   57.0396 C   0  0  0  0  0  0  0  0  0  0  0  0
   23.9111   32.6334   58.3678 C   0  0  0  0  0  0  0  0  0  0  0  0
   22.6434   32.2299   58.7760 C   0  0  0  0  0  0  0  0  0  0  0  0
   21.5787   32.2132   57.8761 C   0  0  0  0  0  0  0  0  0  0  0  0
   20.1881   31.7866   58.3387 C   0  0  0  0  0  0  0  0  0  0  0  0
   19.8602   30.4029   57.9603 N   0  0  0  0  0  0  0  0  0  0  0  0
   19.3499   30.2301   56.6724 N   0  0  0  0  0  0  0  0  0  0  0  0
   19.0474   29.0660   56.1901 C   0  0  0  0  0  0  0  0  0  0  0  0
   19.3238   27.9262   57.0522 C   0  0  0  0  0  0  0  0  0  0  0  0
   19.8480   28.0844   58.2899 C   0  0  0  0  0  0  0  0  0  0  0  0
   20.1660   29.3879   58.8437 C   0  0  0  0  0  0  0  0  0  0  0  0
   20.6457   29.5266   59.9726 O   0  0  0  0  0  0  0  0  0  0  0  0
   18.4259   28.8961   54.8518 C   0  0  0  0  0  0  0  0  0  0  0  0
   18.2460   27.6349   54.2566 C   0  0  0  0  0  0  0  0  0  0  0  0
   17.5752   27.5079   53.0404 C   0  0  0  0  0  0  0  0  0  0  0  0
   17.3791   26.2837   52.5028 F   0  0  0  0  0  0  0  0  0  0  0  0
   17.0894   28.6363   52.3852 C   0  0  0  0  0  0  0  0  0  0  0  0
   17.2733   29.8953   52.9468 C   0  0  0  0  0  0  0  0  0  0  0  0
   16.7952   30.9967   52.3254 F   0  0  0  0  0  0  0  0  0  0  0  0
   17.9353   30.0226   54.1664 C   0  0  0  0  0  0  0  0  0  0  0  0
   21.8002   32.5881   56.5482 C   0  0  0  0  0  0  0  0  0  0  0  0
   22.2516   33.6272   51.1806 C   0  0  0  0  0  0  0  0  0  0  0  0
   24.9311   32.8522   52.2938 H   0  0  0  0  0  0  0  0  0  0  0  0
   24.7129   34.6142   52.5670 H   0  0  0  0  0  0  0  0  0  0  0  0
   25.1163   33.2919   56.7226 H   0  0  0  0  0  0  0  0  0  0  0  0
   24.7226   32.6720   59.0794 H   0  0  0  0  0  0  0  0  0  0  0  0
   22.4827   31.9267   59.8000 H   0  0  0  0  0  0  0  0  0  0  0  0
   20.1408   31.8718   59.4344 H   0  0  0  0  0  0  0  0  0  0  0  0
   19.4453   32.4600   57.8862 H   0  0  0  0  0  0  0  0  0  0  0  0
   19.1053   26.9304   56.6956 H   0  0  0  0  0  0  0  0  0  0  0  0
   20.0372   27.2061   58.8892 H   0  0  0  0  0  0  0  0  0  0  0  0
   18.6320   26.7537   54.7473 H   0  0  0  0  0  0  0  0  0  0  0  0
   16.5711   28.5342   51.4432 H   0  0  0  0  0  0  0  0  0  0  0  0
   18.0744   31.0047   54.5936 H   0  0  0  0  0  0  0  0  0  0  0  0
   20.9745   32.5980   55.8522 H   0  0  0  0  0  0  0  0  0  0  0  0
   21.1745   33.4999   51.3640 H   0  0  0  0  0  0  0  0  0  0  0  0
   22.4347   34.6216   50.7474 H   0  0  0  0  0  0  0  0  0  0  0  0
   22.5982   32.8528   50.4805 H   0  0  0  0  0  0  0  0  0  0  0  0
  1  2  1  0  0  0  0
  1  5  1  0  0  0  0
  2 28  1  0  0  0  0
  2  3  2  0  0  0  0
  3  4  1  0  0  0  0
  4  6  1  0  0  0  0
  4  5  2  0  0  0  0
  6  7  2  0  0  0  0
  6 27  1  0  0  0  0
  7  8  1  0  0  0  0
  8  9  2  0  0  0  0
  9 10  1  0  0  0  0
 10 11  1  0  0  0  0
 10 27  2  0  0  0  0
 11 12  1  0  0  0  0
 12 13  1  0  0  0  0
 12 17  1  0  0  0  0
 13 14  2  0  0  0  0
 14 15  1  0  0  0  0
 14 19  1  0  0  0  0
 15 16  2  0  0  0  0
 16 17  1  0  0  0  0
 17 18  2  0  0  0  0
 19 20  2  0  0  0  0
 19 26  1  0  0  0  0
 20 21  1  0  0  0  0
 21 22  1  0  0  0  0
 21 23  2  0  0  0  0
 23 24  1  0  0  0  0
 24 25  1  0  0  0  0
 24 26  2  0  0  0  0
  1 29  1  0  0  0  0
  1 30  1  0  0  0  0
  7 31  1  0  0  0  0
  8 32  1  0  0  0  0
  9 33  1  0  0  0  0
 11 34  1  0  0  0  0
 11 35  1  0  0  0  0
 15 36  1  0  0  0  0
 16 37  1  0  0  0  0
 20 38  1  0  0  0  0
 23 39  1  0  0  0  0
 26 40  1  0  0  0  0
 27 41  1  0  0  0  0
 28 42  1  0  0  0  0
 28 43  1  0  0  0  0
 28 44  1  0  0  0  0
M  END
> <s_user_Name>
CHEMBL3402748_5300

> <IC50[nM]>
5300

$$$$
CHEMBL3402748_5300
  -OEChem-05192314313D
 Structure written by MMmdl.
 44 47  0     1  0  0  0  0  0999 V2000
   24.3564   33.6113   52.8448 C   0  0  0  0  0  0  0  0  0  0  0  0
   23.0183   33.4975   52.5099 C   0  0  0  0  0  0  0  0  0  0  0  0
   22.3767   33.2602   53.6894 N   0  0  0  0  0  0  0  0  0  0  0  0
   23.3432   33.2295   54.6627 C   0  0  3  0  0  0  0  0  0  0  0  0
   24.5366   33.4320   54.1451 N   0  0  0  0  0  0  0  0  0  0  0  0
   23.0804   32.9514   56.1082 C   0  0  0  0  0  0  0  0  0  0  0  0
   24.1299   32.9871   57.0396 C   0  0  0  0  0  0  0  0  0  0  0  0
   23.9111   32.6334   58.3678 C   0  0  0  0  0  0  0  0  0  0  0  0
   22.6434   32.2299   58.7760 C   0  0  0  0  0  0  0  0  0  0  0  0
   21.5787   32.2132   57.8761 C   0  0  0  0  0  0  0  0  0  0  0  0
   20.1881   31.7866   58.3387 C   0  0  0  0  0  0  0  0  0  0  0  0
   19.8602   30.4029   57.9603 N   0  0  0  0  0  0  0  0  0  0  0  0
   19.3499   30.2301   56.6724 N   0  0  0  0  0  0  0  0  0  0  0  0
   19.0474   29.0660   56.1901 C   0  0  0  0  0  0  0  0  0  0  0  0
   19.3238   27.9262   57.0522 C   0  0  0  0  0  0  0  0  0  0  0  0
   19.8480   28.0844   58.2899 C   0  0  0  0  0  0  0  0  0  0  0  0
   20.1660   29.3879   58.8437 C   0  0  0  0  0  0  0  0  0  0  0  0
   20.6457   29.5266   59.9726 O   0  0  0  0  0  0  0  0  0  0  0  0
   18.4259   28.8961   54.8518 C   0  0  0  0  0  0  0  0  0  0  0  0
   18.2460   27.6349   54.2566 C   0  0  0  0  0  0  0  0  0  0  0  0
   17.5752   27.5079   53.0404 C   0  0  0  0  0  0  0  0  0  0  0  0
   17.3791   26.2837   52.5028 F   0  0  0  0  0  0  0  0  0  0  0  0
   17.0894   28.6363   52.3852 C   0  0  0  0  0  0  0  0  0  0  0  0
   17.2733   29.8953   52.9468 C   0  0  0  0  0  0  0  0  0  0  0  0
   16.7952   30.9967   52.3254 F   0  0  0  0  0  0  0  0  0  0  0  0
   17.9353   30.0226   54.1664 C   0  0  0  0  0  0  0  0  0  0  0  0
   21.8002   32.5881   56.5482 C   0  0  0  0  0  0  0  0  0  0  0  0
   22.2516   33.6272   51.1806 C   0  0  0  0  0  0  0  0  0  0  0  0
   25.1481   33.8186   52.1401 H   0  0  0  0  0  0  0  0  0  0  0  0
   21.7203   33.9906   53.8780 H   0  0  0  0  0  0  0  0  0  0  0  0
   23.2208   34.3088   54.8361 H   0  0  0  0  0  0  0  0  0  0  0  0
   25.1163   33.2919   56.7226 H   0  0  0  0  0  0  0  0  0  0  0  0
   24.7226   32.6720   59.0794 H   0  0  0  0  0  0  0  0  0  0  0  0
   22.4827   31.9267   59.8000 H   0  0  0  0  0  0  0  0  0  0  0  0
   20.1408   31.8718   59.4344 H   0  0  0  0  0  0  0  0  0  0  0  0
   19.4453   32.4600   57.8862 H   0  0  0  0  0  0  0  0  0  0  0  0
   19.1053   26.9304   56.6956 H   0  0  0  0  0  0  0  0  0  0  0  0
   20.0372   27.2061   58.8892 H   0  0  0  0  0  0  0  0  0  0  0  0
   18.6320   26.7537   54.7473 H   0  0  0  0  0  0  0  0  0  0  0  0
   16.5711   28.5342   51.4432 H   0  0  0  0  0  0  0  0  0  0  0  0
   18.0744   31.0047   54.5936 H   0  0  0  0  0  0  0  0  0  0  0  0
   20.9745   32.5980   55.8522 H   0  0  0  0  0  0  0  0  0  0  0  0
   21.1761   33.5300   51.1658 H   0  0  0  0  0  0  0  0  0  0  0  0
   22.7894   33.8154   50.2631 H   0  0  0  0  0  0  0  0  0  0  0  0
  1  2  1  0  0  0  0
  1  5  2  0  0  0  0
  2 28  2  0  0  0  0
  2  3  1  0  0  0  0
  3  4  1  0  0  0  0
  4  6  1  0  0  0  0
  4  5  1  0  0  0  0
  6  7  2  0  0  0  0
  6 27  1  0  0  0  0
  7  8  1  0  0  0  0
  8  9  2  0  0  0  0
  9 10  1  0  0  0  0
 10 11  1  0  0  0  0
 10 27  2  0  0  0  0
 11 12  1  0  0  0  0
 12 13  1  0  0  0  0
 12 17  1  0  0  0  0
 13 14  2  0  0  0  0
 14 15  1  0  0  0  0
 14 19  1  0  0  0  0
 15 16  2  0  0  0  0
 16 17  1  0  0  0  0
 17 18  2  0  0  0  0
 19 20  2  0  0  0  0
 19 26  1  0  0  0  0
 20 21  1  0  0  0  0
 21 22  1  0  0  0  0
 21 23  2  0  0  0  0
 23 24  1  0  0  0  0
 24 25  1  0  0  0  0
 24 26  2  0  0  0  0
  1 29  1  0  0  0  0
  3 30  1  0  0  0  0
  4 31  1  0  0  0  0
  7 32  1  0  0  0  0
  8 33  1  0  0  0  0
  9 34  1  0  0  0  0
 11 35  1  0  0  0  0
 11 36  1  0  0  0  0
 15 37  1  0  0  0  0
 16 38  1  0  0  0  0
 20 39  1  0  0  0  0
 23 40  1  0  0  0  0
 26 41  1  0  0  0  0
 27 42  1  0  0  0  0
 28 43  1  0  0  0  0
 28 44  1  0  0  0  0
M  END
> <s_user_Name>
CHEMBL3402748_5300

> <IC50[nM]>
5300

$$$$
CHEMBL3402748_5300
  -OEChem-05192314313D
 Structure written by MMmdl.
 44 47  0     0  0  0  0  0  0999 V2000
   24.3564   33.6113   52.8448 C   0  0  0  0  0  0  0  0  0  0  0  0
   23.0183   33.4975   52.5099 C   0  0  0  0  0  0  0  0  0  0  0  0
   22.3767   33.2602   53.6894 N   0  0  0  0  0  0  0  0  0  0  0  0
   23.3432   33.2295   54.6627 C   0  0  0  0  0  0  0  0  0  0  0  0
   24.5366   33.4320   54.1451 N   0  0  0  0  0  0  0  0  0  0  0  0
   23.0804   32.9514   56.1082 C   0  0  0  0  0  0  0  0  0  0  0  0
   24.1299   32.9871   57.0396 C   0  0  0  0  0  0  0  0  0  0  0  0
   23.9111   32.6334   58.3678 C   0  0  0  0  0  0  0  0  0  0  0  0
   22.6434   32.2299   58.7760 C   0  0  0  0  0  0  0  0  0  0  0  0
   21.5787   32.2132   57.8761 C   0  0  0  0  0  0  0  0  0  0  0  0
   20.1881   31.7866   58.3387 C   0  0  0  0  0  0  0  0  0  0  0  0
   19.8602   30.4029   57.9603 N   0  0  0  0  0  0  0  0  0  0  0  0
   19.3499   30.2301   56.6724 N   0  0  0  0  0  0  0  0  0  0  0  0
   19.0474   29.0660   56.1901 C   0  0  0  0  0  0  0  0  0  0  0  0
   19.3238   27.9262   57.0522 C   0  0  0  0  0  0  0  0  0  0  0  0
   19.8480   28.0844   58.2899 C   0  0  0  0  0  0  0  0  0  0  0  0
   20.1660   29.3879   58.8437 C   0  0  0  0  0  0  0  0  0  0  0  0
   20.6457   29.5266   59.9726 O   0  0  0  0  0  0  0  0  0  0  0  0
   18.4259   28.8961   54.8518 C   0  0  0  0  0  0  0  0  0  0  0  0
   18.2460   27.6349   54.2566 C   0  0  0  0  0  0  0  0  0  0  0  0
   17.5752   27.5079   53.0404 C   0  0  0  0  0  0  0  0  0  0  0  0
   17.3791   26.2837   52.5028 F   0  0  0  0  0  0  0  0  0  0  0  0
   17.0894   28.6363   52.3852 C   0  0  0  0  0  0  0  0  0  0  0  0
   17.2733   29.8953   52.9468 C   0  0  0  0  0  0  0  0  0  0  0  0
   16.7952   30.9967   52.3254 F   0  0  0  0  0  0  0  0  0  0  0  0
   17.9353   30.0226   54.1664 C   0  0  0  0  0  0  0  0  0  0  0  0
   21.8002   32.5881   56.5482 C   0  0  0  0  0  0  0  0  0  0  0  0
   22.2516   33.6272   51.1806 C   0  0  0  0  0  0  0  0  0  0  0  0
   24.9311   32.8522   52.2938 H   0  0  0  0  0  0  0  0  0  0  0  0
   24.7129   34.6142   52.5670 H   0  0  0  0  0  0  0  0  0  0  0  0
   21.3934   33.1333   53.8196 H   0  0  0  0  0  0  0  0  0  0  0  0
   25.1163   33.2919   56.7226 H   0  0  0  0  0  0  0  0  0  0  0  0
   24.7226   32.6720   59.0794 H   0  0  0  0  0  0  0  0  0  0  0  0
   22.4827   31.9267   59.8000 H   0  0  0  0  0  0  0  0  0  0  0  0
   20.1408   31.8718   59.4344 H   0  0  0  0  0  0  0  0  0  0  0  0
   19.4453   32.4600   57.8862 H   0  0  0  0  0  0  0  0  0  0  0  0
   19.1053   26.9304   56.6956 H   0  0  0  0  0  0  0  0  0  0  0  0
   20.0372   27.2061   58.8892 H   0  0  0  0  0  0  0  0  0  0  0  0
   18.6320   26.7537   54.7473 H   0  0  0  0  0  0  0  0  0  0  0  0
   16.5711   28.5342   51.4432 H   0  0  0  0  0  0  0  0  0  0  0  0
   18.0744   31.0047   54.5936 H   0  0  0  0  0  0  0  0  0  0  0  0
   20.9745   32.5980   55.8522 H   0  0  0  0  0  0  0  0  0  0  0  0
   21.1761   33.5300   51.1658 H   0  0  0  0  0  0  0  0  0  0  0  0
   22.7894   33.8154   50.2631 H   0  0  0  0  0  0  0  0  0  0  0  0
  1  2  1  0  0  0  0
  1  5  1  0  0  0  0
  2 28  2  0  0  0  0
  2  3  1  0  0  0  0
  3  4  1  0  0  0  0
  4  6  1  0  0  0  0
  4  5  2  0  0  0  0
  6  7  2  0  0  0  0
  6 27  1  0  0  0  0
  7  8  1  0  0  0  0
  8  9  2  0  0  0  0
  9 10  1  0  0  0  0
 10 11  1  0  0  0  0
 10 27  2  0  0  0  0
 11 12  1  0  0  0  0
 12 13  1  0  0  0  0
 12 17  1  0  0  0  0
 13 14  2  0  0  0  0
 14 15  1  0  0  0  0
 14 19  1  0  0  0  0
 15 16  2  0  0  0  0
 16 17  1  0  0  0  0
 17 18  2  0  0  0  0
 19 20  2  0  0  0  0
 19 26  1  0  0  0  0
 20 21  1  0  0  0  0
 21 22  1  0  0  0  0
 21 23  2  0  0  0  0
 23 24  1  0  0  0  0
 24 25  1  0  0  0  0
 24 26  2  0  0  0  0
  1 29  1  0  0  0  0
  1 30  1  0  0  0  0
  3 31  1  0  0  0  0
  7 32  1  0  0  0  0
  8 33  1  0  0  0  0
  9 34  1  0  0  0  0
 11 35  1  0  0  0  0
 11 36  1  0  0  0  0
 15 37  1  0  0  0  0
 16 38  1  0  0  0  0
 20 39  1  0  0  0  0
 23 40  1  0  0  0  0
 26 41  1  0  0  0  0
 27 42  1  0  0  0  0
 28 43  1  0  0  0  0
 28 44  1  0  0  0  0
M  END
> <s_user_Name>
CHEMBL3402748_5300

> <IC50[nM]>
5300

$$$$
CHEMBL3402748_5300
  -OEChem-05192314313D
 Structure written by MMmdl.
 44 47  0     0  0  0  0  0  0999 V2000
   24.3564   33.6113   52.8448 C   0  0  0  0  0  0  0  0  0  0  0  0
   23.0183   33.4975   52.5099 C   0  0  0  0  0  0  0  0  0  0  0  0
   22.3767   33.2602   53.6894 N   0  0  0  0  0  0  0  0  0  0  0  0
   23.3432   33.2295   54.6627 C   0  0  0  0  0  0  0  0  0  0  0  0
   24.5366   33.4320   54.1451 N   0  0  0  0  0  0  0  0  0  0  0  0
   23.0804   32.9514   56.1082 C   0  0  0  0  0  0  0  0  0  0  0  0
   24.1299   32.9871   57.0396 C   0  0  0  0  0  0  0  0  0  0  0  0
   23.9111   32.6334   58.3678 C   0  0  0  0  0  0  0  0  0  0  0  0
   22.6434   32.2299   58.7760 C   0  0  0  0  0  0  0  0  0  0  0  0
   21.5787   32.2132   57.8761 C   0  0  0  0  0  0  0  0  0  0  0  0
   20.1881   31.7866   58.3387 C   0  0  0  0  0  0  0  0  0  0  0  0
   19.8602   30.4029   57.9603 N   0  0  0  0  0  0  0  0  0  0  0  0
   19.3499   30.2301   56.6724 N   0  0  0  0  0  0  0  0  0  0  0  0
   19.0474   29.0660   56.1901 C   0  0  0  0  0  0  0  0  0  0  0  0
   19.3238   27.9262   57.0522 C   0  0  0  0  0  0  0  0  0  0  0  0
   19.8480   28.0844   58.2899 C   0  0  0  0  0  0  0  0  0  0  0  0
   20.1660   29.3879   58.8437 C   0  0  0  0  0  0  0  0  0  0  0  0
   20.6457   29.5266   59.9726 O   0  0  0  0  0  0  0  0  0  0  0  0
   18.4259   28.8961   54.8518 C   0  0  0  0  0  0  0  0  0  0  0  0
   18.2460   27.6349   54.2566 C   0  0  0  0  0  0  0  0  0  0  0  0
   17.5752   27.5079   53.0404 C   0  0  0  0  0  0  0  0  0  0  0  0
   17.3791   26.2837   52.5028 F   0  0  0  0  0  0  0  0  0  0  0  0
   17.0894   28.6363   52.3852 C   0  0  0  0  0  0  0  0  0  0  0  0
   17.2733   29.8953   52.9468 C   0  0  0  0  0  0  0  0  0  0  0  0
   16.7952   30.9967   52.3254 F   0  0  0  0  0  0  0  0  0  0  0  0
   17.9353   30.0226   54.1664 C   0  0  0  0  0  0  0  0  0  0  0  0
   21.8002   32.5881   56.5482 C   0  0  0  0  0  0  0  0  0  0  0  0
   22.2516   33.6272   51.1806 C   0  0  0  0  0  0  0  0  0  0  0  0
   24.9311   32.8522   52.2938 H   0  0  0  0  0  0  0  0  0  0  0  0
   24.7129   34.6142   52.5670 H   0  0  0  0  0  0  0  0  0  0  0  0
   25.4074   33.4474   54.6365 H   0  0  0  0  0  0  0  0  0  0  0  0
   25.1163   33.2919   56.7226 H   0  0  0  0  0  0  0  0  0  0  0  0
   24.7226   32.6720   59.0794 H   0  0  0  0  0  0  0  0  0  0  0  0
   22.4827   31.9267   59.8000 H   0  0  0  0  0  0  0  0  0  0  0  0
   20.1408   31.8718   59.4344 H   0  0  0  0  0  0  0  0  0  0  0  0
   19.4453   32.4600   57.8862 H   0  0  0  0  0  0  0  0  0  0  0  0
   19.1053   26.9304   56.6956 H   0  0  0  0  0  0  0  0  0  0  0  0
   20.0372   27.2061   58.8892 H   0  0  0  0  0  0  0  0  0  0  0  0
   18.6320   26.7537   54.7473 H   0  0  0  0  0  0  0  0  0  0  0  0
   16.5711   28.5342   51.4432 H   0  0  0  0  0  0  0  0  0  0  0  0
   18.0744   31.0047   54.5936 H   0  0  0  0  0  0  0  0  0  0  0  0
   20.9745   32.5980   55.8522 H   0  0  0  0  0  0  0  0  0  0  0  0
   21.1761   33.5300   51.1658 H   0  0  0  0  0  0  0  0  0  0  0  0
   22.7894   33.8154   50.2631 H   0  0  0  0  0  0  0  0  0  0  0  0
  1  2  1  0  0  0  0
  1  5  1  0  0  0  0
  2 28  2  0  0  0  0
  2  3  1  0  0  0  0
  3  4  2  0  0  0  0
  4  6  1  0  0  0  0
  4  5  1  0  0  0  0
  6  7  2  0  0  0  0
  6 27  1  0  0  0  0
  7  8  1  0  0  0  0
  8  9  2  0  0  0  0
  9 10  1  0  0  0  0
 10 11  1  0  0  0  0
 10 27  2  0  0  0  0
 11 12  1  0  0  0  0
 12 13  1  0  0  0  0
 12 17  1  0  0  0  0
 13 14  2  0  0  0  0
 14 15  1  0  0  0  0
 14 19  1  0  0  0  0
 15 16  2  0  0  0  0
 16 17  1  0  0  0  0
 17 18  2  0  0  0  0
 19 20  2  0  0  0  0
 19 26  1  0  0  0  0
 20 21  1  0  0  0  0
 21 22  1  0  0  0  0
 21 23  2  0  0  0  0
 23 24  1  0  0  0  0
 24 25  1  0  0  0  0
 24 26  2  0  0  0  0
  1 29  1  0  0  0  0
  1 30  1  0  0  0  0
  5 31  1  0  0  0  0
  7 32  1  0  0  0  0
  8 33  1  0  0  0  0
  9 34  1  0  0  0  0
 11 35  1  0  0  0  0
 11 36  1  0  0  0  0
 15 37  1  0  0  0  0
 16 38  1  0  0  0  0
 20 39  1  0  0  0  0
 23 40  1  0  0  0  0
 26 41  1  0  0  0  0
 27 42  1  0  0  0  0
 28 43  1  0  0  0  0
 28 44  1  0  0  0  0
M  END
> <s_user_Name>
CHEMBL3402748_5300

> <IC50[nM]>
5300

$$$$
CHEMBL3402748_5300
  -OEChem-05192314313D
 Structure written by MMmdl.
 44 47  0     0  0  0  0  0  0999 V2000
   24.3564   33.6113   52.8448 C   0  0  0  0  0  0  0  0  0  0  0  0
   23.0183   33.4975   52.5099 C   0  0  0  0  0  0  0  0  0  0  0  0
   22.3767   33.2602   53.6894 N   0  0  0  0  0  0  0  0  0  0  0  0
   23.3432   33.2295   54.6627 C   0  0  0  0  0  0  0  0  0  0  0  0
   24.5366   33.4320   54.1451 N   0  0  0  0  0  0  0  0  0  0  0  0
   23.0804   32.9514   56.1082 C   0  0  0  0  0  0  0  0  0  0  0  0
   24.1299   32.9871   57.0396 C   0  0  0  0  0  0  0  0  0  0  0  0
   23.9111   32.6334   58.3678 C   0  0  0  0  0  0  0  0  0  0  0  0
   22.6434   32.2299   58.7760 C   0  0  0  0  0  0  0  0  0  0  0  0
   21.5787   32.2132   57.8761 C   0  0  0  0  0  0  0  0  0  0  0  0
   20.1881   31.7866   58.3387 C   0  0  0  0  0  0  0  0  0  0  0  0
   19.8602   30.4029   57.9603 N   0  0  0  0  0  0  0  0  0  0  0  0
   19.3499   30.2301   56.6724 N   0  0  0  0  0  0  0  0  0  0  0  0
   19.0474   29.0660   56.1901 C   0  0  0  0  0  0  0  0  0  0  0  0
   19.3238   27.9262   57.0522 C   0  0  0  0  0  0  0  0  0  0  0  0
   19.8480   28.0844   58.2899 C   0  0  0  0  0  0  0  0  0  0  0  0
   20.1660   29.3879   58.8437 C   0  0  0  0  0  0  0  0  0  0  0  0
   20.6457   29.5266   59.9726 O   0  0  0  0  0  0  0  0  0  0  0  0
   18.4259   28.8961   54.8518 C   0  0  0  0  0  0  0  0  0  0  0  0
   18.2460   27.6349   54.2566 C   0  0  0  0  0  0  0  0  0  0  0  0
   17.5752   27.5079   53.0404 C   0  0  0  0  0  0  0  0  0  0  0  0
   17.3791   26.2837   52.5028 F   0  0  0  0  0  0  0  0  0  0  0  0
   17.0894   28.6363   52.3852 C   0  0  0  0  0  0  0  0  0  0  0  0
   17.2733   29.8953   52.9468 C   0  0  0  0  0  0  0  0  0  0  0  0
   16.7952   30.9967   52.3254 F   0  0  0  0  0  0  0  0  0  0  0  0
   17.9353   30.0226   54.1664 C   0  0  0  0  0  0  0  0  0  0  0  0
   21.8002   32.5881   56.5482 C   0  0  0  0  0  0  0  0  0  0  0  0
   22.2516   33.6272   51.1806 C   0  0  0  0  0  0  0  0  0  0  0  0
   25.1481   33.8186   52.1401 H   0  0  0  0  0  0  0  0  0  0  0  0
   21.3934   33.1333   53.8196 H   0  0  0  0  0  0  0  0  0  0  0  0
   24.9113   32.3128   56.6591 H   0  0  0  0  0  0  0  0  0  0  0  0
   24.5087   34.0198   57.0473 H   0  0  0  0  0  0  0  0  0  0  0  0
   24.7226   32.6720   59.0794 H   0  0  0  0  0  0  0  0  0  0  0  0
   22.4827   31.9267   59.8000 H   0  0  0  0  0  0  0  0  0  0  0  0
   20.1408   31.8718   59.4344 H   0  0  0  0  0  0  0  0  0  0  0  0
   19.4453   32.4600   57.8862 H   0  0  0  0  0  0  0  0  0  0  0  0
   19.1053   26.9304   56.6956 H   0  0  0  0  0  0  0  0  0  0  0  0
   20.0372   27.2061   58.8892 H   0  0  0  0  0  0  0  0  0  0  0  0
   18.6320   26.7537   54.7473 H   0  0  0  0  0  0  0  0  0  0  0  0
   16.5711   28.5342   51.4432 H   0  0  0  0  0  0  0  0  0  0  0  0
   18.0744   31.0047   54.5936 H   0  0  0  0  0  0  0  0  0  0  0  0
   20.9745   32.5980   55.8522 H   0  0  0  0  0  0  0  0  0  0  0  0
   21.1761   33.5300   51.1658 H   0  0  0  0  0  0  0  0  0  0  0  0
   22.7894   33.8154   50.2631 H   0  0  0  0  0  0  0  0  0  0  0  0
  1  2  1  0  0  0  0
  1  5  2  0  0  0  0
  2 28  2  0  0  0  0
  2  3  1  0  0  0  0
  3  4  1  0  0  0  0
  4  6  2  0  0  0  0
  4  5  1  0  0  0  0
  6  7  1  0  0  0  0
  6 27  1  0  0  0  0
  7  8  1  0  0  0  0
  8  9  2  0  0  0  0
  9 10  1  0  0  0  0
 10 11  1  0  0  0  0
 10 27  2  0  0  0  0
 11 12  1  0  0  0  0
 12 13  1  0  0  0  0
 12 17  1  0  0  0  0
 13 14  2  0  0  0  0
 14 15  1  0  0  0  0
 14 19  1  0  0  0  0
 15 16  2  0  0  0  0
 16 17  1  0  0  0  0
 17 18  2  0  0  0  0
 19 20  2  0  0  0  0
 19 26  1  0  0  0  0
 20 21  1  0  0  0  0
 21 22  1  0  0  0  0
 21 23  2  0  0  0  0
 23 24  1  0  0  0  0
 24 25  1  0  0  0  0
 24 26  2  0  0  0  0
  1 29  1  0  0  0  0
  3 30  1  0  0  0  0
  7 31  1  0  0  0  0
  7 32  1  0  0  0  0
  8 33  1  0  0  0  0
  9 34  1  0  0  0  0
 11 35  1  0  0  0  0
 11 36  1  0  0  0  0
 15 37  1  0  0  0  0
 16 38  1  0  0  0  0
 20 39  1  0  0  0  0
 23 40  1  0  0  0  0
 26 41  1  0  0  0  0
 27 42  1  0  0  0  0
 28 43  1  0  0  0  0
 28 44  1  0  0  0  0
M  END
> <s_user_Name>
CHEMBL3402748_5300

> <IC50[nM]>
5300

$$$$
CHEMBL3402748_5300
  -OEChem-05192314313D
 Structure written by MMmdl.
 44 47  0     0  0  0  0  0  0999 V2000
   24.3564   33.6113   52.8448 C   0  0  0  0  0  0  0  0  0  0  0  0
   23.0183   33.4975   52.5099 C   0  0  0  0  0  0  0  0  0  0  0  0
   22.3767   33.2602   53.6894 N   0  0  0  0  0  0  0  0  0  0  0  0
   23.3432   33.2295   54.6627 C   0  0  0  0  0  0  0  0  0  0  0  0
   24.5366   33.4320   54.1451 N   0  0  0  0  0  0  0  0  0  0  0  0
   23.0804   32.9514   56.1082 C   0  0  0  0  0  0  0  0  0  0  0  0
   24.1299   32.9871   57.0396 C   0  0  0  0  0  0  0  0  0  0  0  0
   23.9111   32.6334   58.3678 C   0  0  0  0  0  0  0  0  0  0  0  0
   22.6434   32.2299   58.7760 C   0  0  0  0  0  0  0  0  0  0  0  0
   21.5787   32.2132   57.8761 C   0  0  0  0  0  0  0  0  0  0  0  0
   20.1881   31.7866   58.3387 C   0  0  0  0  0  0  0  0  0  0  0  0
   19.8602   30.4029   57.9603 N   0  0  0  0  0  0  0  0  0  0  0  0
   19.3499   30.2301   56.6724 N   0  0  0  0  0  0  0  0  0  0  0  0
   19.0474   29.0660   56.1901 C   0  0  0  0  0  0  0  0  0  0  0  0
   19.3238   27.9262   57.0522 C   0  0  0  0  0  0  0  0  0  0  0  0
   19.8480   28.0844   58.2899 C   0  0  0  0  0  0  0  0  0  0  0  0
   20.1660   29.3879   58.8437 C   0  0  0  0  0  0  0  0  0  0  0  0
   20.6457   29.5266   59.9726 O   0  0  0  0  0  0  0  0  0  0  0  0
   18.4259   28.8961   54.8518 C   0  0  0  0  0  0  0  0  0  0  0  0
   18.2460   27.6349   54.2566 C   0  0  0  0  0  0  0  0  0  0  0  0
   17.5752   27.5079   53.0404 C   0  0  0  0  0  0  0  0  0  0  0  0
   17.3791   26.2837   52.5028 F   0  0  0  0  0  0  0  0  0  0  0  0
   17.0894   28.6363   52.3852 C   0  0  0  0  0  0  0  0  0  0  0  0
   17.2733   29.8953   52.9468 C   0  0  0  0  0  0  0  0  0  0  0  0
   16.7952   30.9967   52.3254 F   0  0  0  0  0  0  0  0  0  0  0  0
   17.9353   30.0226   54.1664 C   0  0  0  0  0  0  0  0  0  0  0  0
   21.8002   32.5881   56.5482 C   0  0  0  0  0  0  0  0  0  0  0  0
   22.2516   33.6272   51.1806 C   0  0  0  0  0  0  0  0  0  0  0  0
   25.1481   33.8186   52.1401 H   0  0  0  0  0  0  0  0  0  0  0  0
   21.3934   33.1333   53.8196 H   0  0  0  0  0  0  0  0  0  0  0  0
   25.1163   33.2919   56.7226 H   0  0  0  0  0  0  0  0  0  0  0  0
   24.7226   32.6720   59.0794 H   0  0  0  0  0  0  0  0  0  0  0  0
   22.7480   31.2038   59.1584 H   0  0  0  0  0  0  0  0  0  0  0  0
   22.3499   32.8994   59.5980 H   0  0  0  0  0  0  0  0  0  0  0  0
   20.1408   31.8718   59.4344 H   0  0  0  0  0  0  0  0  0  0  0  0
   19.4453   32.4600   57.8862 H   0  0  0  0  0  0  0  0  0  0  0  0
   19.1053   26.9304   56.6956 H   0  0  0  0  0  0  0  0  0  0  0  0
   20.0372   27.2061   58.8892 H   0  0  0  0  0  0  0  0  0  0  0  0
   18.6320   26.7537   54.7473 H   0  0  0  0  0  0  0  0  0  0  0  0
   16.5711   28.5342   51.4432 H   0  0  0  0  0  0  0  0  0  0  0  0
   18.0744   31.0047   54.5936 H   0  0  0  0  0  0  0  0  0  0  0  0
   20.9745   32.5980   55.8522 H   0  0  0  0  0  0  0  0  0  0  0  0
   21.1761   33.5300   51.1658 H   0  0  0  0  0  0  0  0  0  0  0  0
   22.7894   33.8154   50.2631 H   0  0  0  0  0  0  0  0  0  0  0  0
  1  2  1  0  0  0  0
  1  5  2  0  0  0  0
  2 28  2  0  0  0  0
  2  3  1  0  0  0  0
  3  4  1  0  0  0  0
  4  6  2  0  0  0  0
  4  5  1  0  0  0  0
  6  7  1  0  0  0  0
  6 27  1  0  0  0  0
  7  8  2  0  0  0  0
  8  9  1  0  0  0  0
  9 10  1  0  0  0  0
 10 11  1  0  0  0  0
 10 27  2  0  0  0  0
 11 12  1  0  0  0  0
 12 13  1  0  0  0  0
 12 17  1  0  0  0  0
 13 14  2  0  0  0  0
 14 15  1  0  0  0  0
 14 19  1  0  0  0  0
 15 16  2  0  0  0  0
 16 17  1  0  0  0  0
 17 18  2  0  0  0  0
 19 20  2  0  0  0  0
 19 26  1  0  0  0  0
 20 21  1  0  0  0  0
 21 22  1  0  0  0  0
 21 23  2  0  0  0  0
 23 24  1  0  0  0  0
 24 25  1  0  0  0  0
 24 26  2  0  0  0  0
  1 29  1  0  0  0  0
  3 30  1  0  0  0  0
  7 31  1  0  0  0  0
  8 32  1  0  0  0  0
  9 33  1  0  0  0  0
  9 34  1  0  0  0  0
 11 35  1  0  0  0  0
 11 36  1  0  0  0  0
 15 37  1  0  0  0  0
 16 38  1  0  0  0  0
 20 39  1  0  0  0  0
 23 40  1  0  0  0  0
 26 41  1  0  0  0  0
 27 42  1  0  0  0  0
 28 43  1  0  0  0  0
 28 44  1  0  0  0  0
M  END
> <s_user_Name>
CHEMBL3402748_5300

> <IC50[nM]>
5300

$$$$
CHEMBL3402748_5300
  -OEChem-05192314313D
 Structure written by MMmdl.
 44 47  0     0  0  0  0  0  0999 V2000
   24.3564   33.6113   52.8448 C   0  0  0  0  0  0  0  0  0  0  0  0
   23.0183   33.4975   52.5099 C   0  0  0  0  0  0  0  0  0  0  0  0
   22.3767   33.2602   53.6894 N   0  0  0  0  0  0  0  0  0  0  0  0
   23.3432   33.2295   54.6627 C   0  0  0  0  0  0  0  0  0  0  0  0
   24.5366   33.4320   54.1451 N   0  0  0  0  0  0  0  0  0  0  0  0
   23.0804   32.9514   56.1082 C   0  0  0  0  0  0  0  0  0  0  0  0
   24.1299   32.9871   57.0396 C   0  0  0  0  0  0  0  0  0  0  0  0
   23.9111   32.6334   58.3678 C   0  0  0  0  0  0  0  0  0  0  0  0
   22.6434   32.2299   58.7760 C   0  0  0  0  0  0  0  0  0  0  0  0
   21.5787   32.2132   57.8761 C   0  0  0  0  0  0  0  0  0  0  0  0
   20.1881   31.7866   58.3387 C   0  0  0  0  0  0  0  0  0  0  0  0
   19.8602   30.4029   57.9603 N   0  0  0  0  0  0  0  0  0  0  0  0
   19.3499   30.2301   56.6724 N   0  0  0  0  0  0  0  0  0  0  0  0
   19.0474   29.0660   56.1901 C   0  0  0  0  0  0  0  0  0  0  0  0
   19.3238   27.9262   57.0522 C   0  0  0  0  0  0  0  0  0  0  0  0
   19.8480   28.0844   58.2899 C   0  0  0  0  0  0  0  0  0  0  0  0
   20.1660   29.3879   58.8437 C   0  0  0  0  0  0  0  0  0  0  0  0
   20.6457   29.5266   59.9726 O   0  0  0  0  0  0  0  0  0  0  0  0
   18.4259   28.8961   54.8518 C   0  0  0  0  0  0  0  0  0  0  0  0
   18.2460   27.6349   54.2566 C   0  0  0  0  0  0  0  0  0  0  0  0
   17.5752   27.5079   53.0404 C   0  0  0  0  0  0  0  0  0  0  0  0
   17.3791   26.2837   52.5028 F   0  0  0  0  0  0  0  0  0  0  0  0
   17.0894   28.6363   52.3852 C   0  0  0  0  0  0  0  0  0  0  0  0
   17.2733   29.8953   52.9468 C   0  0  0  0  0  0  0  0  0  0  0  0
   16.7952   30.9967   52.3254 F   0  0  0  0  0  0  0  0  0  0  0  0
   17.9353   30.0226   54.1664 C   0  0  0  0  0  0  0  0  0  0  0  0
   21.8002   32.5881   56.5482 C   0  0  0  0  0  0  0  0  0  0  0  0
   22.2516   33.6272   51.1806 C   0  0  0  0  0  0  0  0  0  0  0  0
   25.1481   33.8186   52.1401 H   0  0  0  0  0  0  0  0  0  0  0  0
   21.3934   33.1333   53.8196 H   0  0  0  0  0  0  0  0  0  0  0  0
   25.1163   33.2919   56.7226 H   0  0  0  0  0  0  0  0  0  0  0  0
   24.7226   32.6720   59.0794 H   0  0  0  0  0  0  0  0  0  0  0  0
   22.4827   31.9267   59.8000 H   0  0  0  0  0  0  0  0  0  0  0  0
   20.1408   31.8718   59.4344 H   0  0  0  0  0  0  0  0  0  0  0  0
   19.4453   32.4600   57.8862 H   0  0  0  0  0  0  0  0  0  0  0  0
   19.1053   26.9304   56.6956 H   0  0  0  0  0  0  0  0  0  0  0  0
   20.0372   27.2061   58.8892 H   0  0  0  0  0  0  0  0  0  0  0  0
   18.6320   26.7537   54.7473 H   0  0  0  0  0  0  0  0  0  0  0  0
   16.5711   28.5342   51.4432 H   0  0  0  0  0  0  0  0  0  0  0  0
   18.0744   31.0047   54.5936 H   0  0  0  0  0  0  0  0  0  0  0  0
   21.1451   33.4497   56.3522 H   0  0  0  0  0  0  0  0  0  0  0  0
   21.4842   31.7381   55.9256 H   0  0  0  0  0  0  0  0  0  0  0  0
   21.1761   33.5300   51.1658 H   0  0  0  0  0  0  0  0  0  0  0  0
   22.7894   33.8154   50.2631 H   0  0  0  0  0  0  0  0  0  0  0  0
  1  2  1  0  0  0  0
  1  5  2  0  0  0  0
  2 28  2  0  0  0  0
  2  3  1  0  0  0  0
  3  4  1  0  0  0  0
  4  6  2  0  0  0  0
  4  5  1  0  0  0  0
  6  7  1  0  0  0  0
  6 27  1  0  0  0  0
  7  8  2  0  0  0  0
  8  9  1  0  0  0  0
  9 10  2  0  0  0  0
 10 11  1  0  0  0  0
 10 27  1  0  0  0  0
 11 12  1  0  0  0  0
 12 13  1  0  0  0  0
 12 17  1  0  0  0  0
 13 14  2  0  0  0  0
 14 15  1  0  0  0  0
 14 19  1  0  0  0  0
 15 16  2  0  0  0  0
 16 17  1  0  0  0  0
 17 18  2  0  0  0  0
 19 20  2  0  0  0  0
 19 26  1  0  0  0  0
 20 21  1  0  0  0  0
 21 22  1  0  0  0  0
 21 23  2  0  0  0  0
 23 24  1  0  0  0  0
 24 25  1  0  0  0  0
 24 26  2  0  0  0  0
  1 29  1  0  0  0  0
  3 30  1  0  0  0  0
  7 31  1  0  0  0  0
  8 32  1  0  0  0  0
  9 33  1  0  0  0  0
 11 34  1  0  0  0  0
 11 35  1  0  0  0  0
 15 36  1  0  0  0  0
 16 37  1  0  0  0  0
 20 38  1  0  0  0  0
 23 39  1  0  0  0  0
 26 40  1  0  0  0  0
 27 41  1  0  0  0  0
 27 42  1  0  0  0  0
 28 43  1  0  0  0  0
 28 44  1  0  0  0  0
M  END
> <s_user_Name>
CHEMBL3402748_5300

> <IC50[nM]>
5300

$$$$
CHEMBL3402748_5300
  -OEChem-05192314313D
 Structure written by MMmdl.
 44 47  0     0  0  0  0  0  0999 V2000
   24.3564   33.6113   52.8448 C   0  0  0  0  0  0  0  0  0  0  0  0
   23.0183   33.4975   52.5099 C   0  0  0  0  0  0  0  0  0  0  0  0
   22.3767   33.2602   53.6894 N   0  0  0  0  0  0  0  0  0  0  0  0
   23.3432   33.2295   54.6627 C   0  0  0  0  0  0  0  0  0  0  0  0
   24.5366   33.4320   54.1451 N   0  0  0  0  0  0  0  0  0  0  0  0
   23.0804   32.9514   56.1082 C   0  0  0  0  0  0  0  0  0  0  0  0
   24.1299   32.9871   57.0396 C   0  0  0  0  0  0  0  0  0  0  0  0
   23.9111   32.6334   58.3678 C   0  0  0  0  0  0  0  0  0  0  0  0
   22.6434   32.2299   58.7760 C   0  0  0  0  0  0  0  0  0  0  0  0
   21.5787   32.2132   57.8761 C   0  0  0  0  0  0  0  0  0  0  0  0
   20.1881   31.7866   58.3387 C   0  0  0  0  0  0  0  0  0  0  0  0
   19.8602   30.4029   57.9603 N   0  0  0  0  0  0  0  0  0  0  0  0
   19.3499   30.2301   56.6724 N   0  0  0  0  0  0  0  0  0  0  0  0
   19.0474   29.0660   56.1901 C   0  0  0  0  0  0  0  0  0  0  0  0
   19.3238   27.9262   57.0522 C   0  0  0  0  0  0  0  0  0  0  0  0
   19.8480   28.0844   58.2899 C   0  0  0  0  0  0  0  0  0  0  0  0
   20.1660   29.3879   58.8437 C   0  0  0  0  0  0  0  0  0  0  0  0
   20.6457   29.5266   59.9726 O   0  0  0  0  0  0  0  0  0  0  0  0
   18.4259   28.8961   54.8518 C   0  0  0  0  0  0  0  0  0  0  0  0
   18.2460   27.6349   54.2566 C   0  0  0  0  0  0  0  0  0  0  0  0
   17.5752   27.5079   53.0404 C   0  0  0  0  0  0  0  0  0  0  0  0
   17.3791   26.2837   52.5028 F   0  0  0  0  0  0  0  0  0  0  0  0
   17.0894   28.6363   52.3852 C   0  0  0  0  0  0  0  0  0  0  0  0
   17.2733   29.8953   52.9468 C   0  0  0  0  0  0  0  0  0  0  0  0
   16.7952   30.9967   52.3254 F   0  0  0  0  0  0  0  0  0  0  0  0
   17.9353   30.0226   54.1664 C   0  0  0  0  0  0  0  0  0  0  0  0
   21.8002   32.5881   56.5482 C   0  0  0  0  0  0  0  0  0  0  0  0
   22.2516   33.6272   51.1806 C   0  0  0  0  0  0  0  0  0  0  0  0
   25.1481   33.8186   52.1401 H   0  0  0  0  0  0  0  0  0  0  0  0
   24.9113   32.3128   56.6591 H   0  0  0  0  0  0  0  0  0  0  0  0
   24.5087   34.0198   57.0473 H   0  0  0  0  0  0  0  0  0  0  0  0
   24.7226   32.6720   59.0794 H   0  0  0  0  0  0  0  0  0  0  0  0
   22.4827   31.9267   59.8000 H   0  0  0  0  0  0  0  0  0  0  0  0
   20.1408   31.8718   59.4344 H   0  0  0  0  0  0  0  0  0  0  0  0
   19.4453   32.4600   57.8862 H   0  0  0  0  0  0  0  0  0  0  0  0
   19.1053   26.9304   56.6956 H   0  0  0  0  0  0  0  0  0  0  0  0
   20.0372   27.2061   58.8892 H   0  0  0  0  0  0  0  0  0  0  0  0
   18.6320   26.7537   54.7473 H   0  0  0  0  0  0  0  0  0  0  0  0
   16.5711   28.5342   51.4432 H   0  0  0  0  0  0  0  0  0  0  0  0
   18.0744   31.0047   54.5936 H   0  0  0  0  0  0  0  0  0  0  0  0
   20.9745   32.5980   55.8522 H   0  0  0  0  0  0  0  0  0  0  0  0
   21.1745   33.4999   51.3640 H   0  0  0  0  0  0  0  0  0  0  0  0
   22.4347   34.6216   50.7474 H   0  0  0  0  0  0  0  0  0  0  0  0
   22.5982   32.8528   50.4805 H   0  0  0  0  0  0  0  0  0  0  0  0
  1  2  1  0  0  0  0
  1  5  2  0  0  0  0
  2 28  1  0  0  0  0
  2  3  2  0  0  0  0
  3  4  1  0  0  0  0
  4  6  2  0  0  0  0
  4  5  1  0  0  0  0
  6  7  1  0  0  0  0
  6 27  1  0  0  0  0
  7  8  1  0  0  0  0
  8  9  2  0  0  0  0
  9 10  1  0  0  0  0
 10 11  1  0  0  0  0
 10 27  2  0  0  0  0
 11 12  1  0  0  0  0
 12 13  1  0  0  0  0
 12 17  1  0  0  0  0
 13 14  2  0  0  0  0
 14 15  1  0  0  0  0
 14 19  1  0  0  0  0
 15 16  2  0  0  0  0
 16 17  1  0  0  0  0
 17 18  2  0  0  0  0
 19 20  2  0  0  0  0
 19 26  1  0  0  0  0
 20 21  1  0  0  0  0
 21 22  1  0  0  0  0
 21 23  2  0  0  0  0
 23 24  1  0  0  0  0
 24 25  1  0  0  0  0
 24 26  2  0  0  0  0
  1 29  1  0  0  0  0
  7 30  1  0  0  0  0
  7 31  1  0  0  0  0
  8 32  1  0  0  0  0
  9 33  1  0  0  0  0
 11 34  1  0  0  0  0
 11 35  1  0  0  0  0
 15 36  1  0  0  0  0
 16 37  1  0  0  0  0
 20 38  1  0  0  0  0
 23 39  1  0  0  0  0
 26 40  1  0  0  0  0
 27 41  1  0  0  0  0
 28 42  1  0  0  0  0
 28 43  1  0  0  0  0
 28 44  1  0  0  0  0
M  END
> <s_user_Name>
CHEMBL3402748_5300

> <IC50[nM]>
5300

$$$$
CHEMBL3402748_5300
  -OEChem-05192314313D
 Structure written by MMmdl.
 44 47  0     0  0  0  0  0  0999 V2000
   24.3564   33.6113   52.8448 C   0  0  0  0  0  0  0  0  0  0  0  0
   23.0183   33.4975   52.5099 C   0  0  0  0  0  0  0  0  0  0  0  0
   22.3767   33.2602   53.6894 N   0  0  0  0  0  0  0  0  0  0  0  0
   23.3432   33.2295   54.6627 C   0  0  0  0  0  0  0  0  0  0  0  0
   24.5366   33.4320   54.1451 N   0  0  0  0  0  0  0  0  0  0  0  0
   23.0804   32.9514   56.1082 C   0  0  0  0  0  0  0  0  0  0  0  0
   24.1299   32.9871   57.0396 C   0  0  0  0  0  0  0  0  0  0  0  0
   23.9111   32.6334   58.3678 C   0  0  0  0  0  0  0  0  0  0  0  0
   22.6434   32.2299   58.7760 C   0  0  0  0  0  0  0  0  0  0  0  0
   21.5787   32.2132   57.8761 C   0  0  0  0  0  0  0  0  0  0  0  0
   20.1881   31.7866   58.3387 C   0  0  0  0  0  0  0  0  0  0  0  0
   19.8602   30.4029   57.9603 N   0  0  0  0  0  0  0  0  0  0  0  0
   19.3499   30.2301   56.6724 N   0  0  0  0  0  0  0  0  0  0  0  0
   19.0474   29.0660   56.1901 C   0  0  0  0  0  0  0  0  0  0  0  0
   19.3238   27.9262   57.0522 C   0  0  0  0  0  0  0  0  0  0  0  0
   19.8480   28.0844   58.2899 C   0  0  0  0  0  0  0  0  0  0  0  0
   20.1660   29.3879   58.8437 C   0  0  0  0  0  0  0  0  0  0  0  0
   20.6457   29.5266   59.9726 O   0  0  0  0  0  0  0  0  0  0  0  0
   18.4259   28.8961   54.8518 C   0  0  0  0  0  0  0  0  0  0  0  0
   18.2460   27.6349   54.2566 C   0  0  0  0  0  0  0  0  0  0  0  0
   17.5752   27.5079   53.0404 C   0  0  0  0  0  0  0  0  0  0  0  0
   17.3791   26.2837   52.5028 F   0  0  0  0  0  0  0  0  0  0  0  0
   17.0894   28.6363   52.3852 C   0  0  0  0  0  0  0  0  0  0  0  0
   17.2733   29.8953   52.9468 C   0  0  0  0  0  0  0  0  0  0  0  0
   16.7952   30.9967   52.3254 F   0  0  0  0  0  0  0  0  0  0  0  0
   17.9353   30.0226   54.1664 C   0  0  0  0  0  0  0  0  0  0  0  0
   21.8002   32.5881   56.5482 C   0  0  0  0  0  0  0  0  0  0  0  0
   22.2516   33.6272   51.1806 C   0  0  0  0  0  0  0  0  0  0  0  0
   25.1481   33.8186   52.1401 H   0  0  0  0  0  0  0  0  0  0  0  0
   25.1163   33.2919   56.7226 H   0  0  0  0  0  0  0  0  0  0  0  0
   24.7226   32.6720   59.0794 H   0  0  0  0  0  0  0  0  0  0  0  0
   22.7480   31.2038   59.1584 H   0  0  0  0  0  0  0  0  0  0  0  0
   22.3499   32.8994   59.5980 H   0  0  0  0  0  0  0  0  0  0  0  0
   20.1408   31.8718   59.4344 H   0  0  0  0  0  0  0  0  0  0  0  0
   19.4453   32.4600   57.8862 H   0  0  0  0  0  0  0  0  0  0  0  0
   19.1053   26.9304   56.6956 H   0  0  0  0  0  0  0  0  0  0  0  0
   20.0372   27.2061   58.8892 H   0  0  0  0  0  0  0  0  0  0  0  0
   18.6320   26.7537   54.7473 H   0  0  0  0  0  0  0  0  0  0  0  0
   16.5711   28.5342   51.4432 H   0  0  0  0  0  0  0  0  0  0  0  0
   18.0744   31.0047   54.5936 H   0  0  0  0  0  0  0  0  0  0  0  0
   20.9745   32.5980   55.8522 H   0  0  0  0  0  0  0  0  0  0  0  0
   21.1745   33.4999   51.3640 H   0  0  0  0  0  0  0  0  0  0  0  0
   22.4347   34.6216   50.7474 H   0  0  0  0  0  0  0  0  0  0  0  0
   22.5982   32.8528   50.4805 H   0  0  0  0  0  0  0  0  0  0  0  0
  1  2  1  0  0  0  0
  1  5  2  0  0  0  0
  2 28  1  0  0  0  0
  2  3  2  0  0  0  0
  3  4  1  0  0  0  0
  4  6  2  0  0  0  0
  4  5  1  0  0  0  0
  6  7  1  0  0  0  0
  6 27  1  0  0  0  0
  7  8  2  0  0  0  0
  8  9  1  0  0  0  0
  9 10  1  0  0  0  0
 10 11  1  0  0  0  0
 10 27  2  0  0  0  0
 11 12  1  0  0  0  0
 12 13  1  0  0  0  0
 12 17  1  0  0  0  0
 13 14  2  0  0  0  0
 14 15  1  0  0  0  0
 14 19  1  0  0  0  0
 15 16  2  0  0  0  0
 16 17  1  0  0  0  0
 17 18  2  0  0  0  0
 19 20  2  0  0  0  0
 19 26  1  0  0  0  0
 20 21  1  0  0  0  0
 21 22  1  0  0  0  0
 21 23  2  0  0  0  0
 23 24  1  0  0  0  0
 24 25  1  0  0  0  0
 24 26  2  0  0  0  0
  1 29  1  0  0  0  0
  7 30  1  0  0  0  0
  8 31  1  0  0  0  0
  9 32  1  0  0  0  0
  9 33  1  0  0  0  0
 11 34  1  0  0  0  0
 11 35  1  0  0  0  0
 15 36  1  0  0  0  0
 16 37  1  0  0  0  0
 20 38  1  0  0  0  0
 23 39  1  0  0  0  0
 26 40  1  0  0  0  0
 27 41  1  0  0  0  0
 28 42  1  0  0  0  0
 28 43  1  0  0  0  0
 28 44  1  0  0  0  0
M  END
> <s_user_Name>
CHEMBL3402748_5300

> <IC50[nM]>
5300

$$$$
CHEMBL3402748_5300
  -OEChem-05192314313D
 Structure written by MMmdl.
 44 47  0     0  0  0  0  0  0999 V2000
   24.3564   33.6113   52.8448 C   0  0  0  0  0  0  0  0  0  0  0  0
   23.0183   33.4975   52.5099 C   0  0  0  0  0  0  0  0  0  0  0  0
   22.3767   33.2602   53.6894 N   0  0  0  0  0  0  0  0  0  0  0  0
   23.3432   33.2295   54.6627 C   0  0  0  0  0  0  0  0  0  0  0  0
   24.5366   33.4320   54.1451 N   0  0  0  0  0  0  0  0  0  0  0  0
   23.0804   32.9514   56.1082 C   0  0  0  0  0  0  0  0  0  0  0  0
   24.1299   32.9871   57.0396 C   0  0  0  0  0  0  0  0  0  0  0  0
   23.9111   32.6334   58.3678 C   0  0  0  0  0  0  0  0  0  0  0  0
   22.6434   32.2299   58.7760 C   0  0  0  0  0  0  0  0  0  0  0  0
   21.5787   32.2132   57.8761 C   0  0  0  0  0  0  0  0  0  0  0  0
   20.1881   31.7866   58.3387 C   0  0  0  0  0  0  0  0  0  0  0  0
   19.8602   30.4029   57.9603 N   0  0  0  0  0  0  0  0  0  0  0  0
   19.3499   30.2301   56.6724 N   0  0  0  0  0  0  0  0  0  0  0  0
   19.0474   29.0660   56.1901 C   0  0  0  0  0  0  0  0  0  0  0  0
   19.3238   27.9262   57.0522 C   0  0  0  0  0  0  0  0  0  0  0  0
   19.8480   28.0844   58.2899 C   0  0  0  0  0  0  0  0  0  0  0  0
   20.1660   29.3879   58.8437 C   0  0  0  0  0  0  0  0  0  0  0  0
   20.6457   29.5266   59.9726 O   0  0  0  0  0  0  0  0  0  0  0  0
   18.4259   28.8961   54.8518 C   0  0  0  0  0  0  0  0  0  0  0  0
   18.2460   27.6349   54.2566 C   0  0  0  0  0  0  0  0  0  0  0  0
   17.5752   27.5079   53.0404 C   0  0  0  0  0  0  0  0  0  0  0  0
   17.3791   26.2837   52.5028 F   0  0  0  0  0  0  0  0  0  0  0  0
   17.0894   28.6363   52.3852 C   0  0  0  0  0  0  0  0  0  0  0  0
   17.2733   29.8953   52.9468 C   0  0  0  0  0  0  0  0  0  0  0  0
   16.7952   30.9967   52.3254 F   0  0  0  0  0  0  0  0  0  0  0  0
   17.9353   30.0226   54.1664 C   0  0  0  0  0  0  0  0  0  0  0  0
   21.8002   32.5881   56.5482 C   0  0  0  0  0  0  0  0  0  0  0  0
   22.2516   33.6272   51.1806 C   0  0  0  0  0  0  0  0  0  0  0  0
   25.1481   33.8186   52.1401 H   0  0  0  0  0  0  0  0  0  0  0  0
   25.1163   33.2919   56.7226 H   0  0  0  0  0  0  0  0  0  0  0  0
   24.7226   32.6720   59.0794 H   0  0  0  0  0  0  0  0  0  0  0  0
   22.4827   31.9267   59.8000 H   0  0  0  0  0  0  0  0  0  0  0  0
   20.1408   31.8718   59.4344 H   0  0  0  0  0  0  0  0  0  0  0  0
   19.4453   32.4600   57.8862 H   0  0  0  0  0  0  0  0  0  0  0  0
   19.1053   26.9304   56.6956 H   0  0  0  0  0  0  0  0  0  0  0  0
   20.0372   27.2061   58.8892 H   0  0  0  0  0  0  0  0  0  0  0  0
   18.6320   26.7537   54.7473 H   0  0  0  0  0  0  0  0  0  0  0  0
   16.5711   28.5342   51.4432 H   0  0  0  0  0  0  0  0  0  0  0  0
   18.0744   31.0047   54.5936 H   0  0  0  0  0  0  0  0  0  0  0  0
   21.1451   33.4497   56.3522 H   0  0  0  0  0  0  0  0  0  0  0  0
   21.4842   31.7381   55.9256 H   0  0  0  0  0  0  0  0  0  0  0  0
   21.1745   33.4999   51.3640 H   0  0  0  0  0  0  0  0  0  0  0  0
   22.4347   34.6216   50.7474 H   0  0  0  0  0  0  0  0  0  0  0  0
   22.5982   32.8528   50.4805 H   0  0  0  0  0  0  0  0  0  0  0  0
  1  2  1  0  0  0  0
  1  5  2  0  0  0  0
  2 28  1  0  0  0  0
  2  3  2  0  0  0  0
  3  4  1  0  0  0  0
  4  6  2  0  0  0  0
  4  5  1  0  0  0  0
  6  7  1  0  0  0  0
  6 27  1  0  0  0  0
  7  8  2  0  0  0  0
  8  9  1  0  0  0  0
  9 10  2  0  0  0  0
 10 11  1  0  0  0  0
 10 27  1  0  0  0  0
 11 12  1  0  0  0  0
 12 13  1  0  0  0  0
 12 17  1  0  0  0  0
 13 14  2  0  0  0  0
 14 15  1  0  0  0  0
 14 19  1  0  0  0  0
 15 16  2  0  0  0  0
 16 17  1  0  0  0  0
 17 18  2  0  0  0  0
 19 20  2  0  0  0  0
 19 26  1  0  0  0  0
 20 21  1  0  0  0  0
 21 22  1  0  0  0  0
 21 23  2  0  0  0  0
 23 24  1  0  0  0  0
 24 25  1  0  0  0  0
 24 26  2  0  0  0  0
  1 29  1  0  0  0  0
  7 30  1  0  0  0  0
  8 31  1  0  0  0  0
  9 32  1  0  0  0  0
 11 33  1  0  0  0  0
 11 34  1  0  0  0  0
 15 35  1  0  0  0  0
 16 36  1  0  0  0  0
 20 37  1  0  0  0  0
 23 38  1  0  0  0  0
 26 39  1  0  0  0  0
 27 40  1  0  0  0  0
 27 41  1  0  0  0  0
 28 42  1  0  0  0  0
 28 43  1  0  0  0  0
 28 44  1  0  0  0  0
M  END
> <s_user_Name>
CHEMBL3402748_5300

> <IC50[nM]>
5300

$$$$
CHEMBL3402748_5300
  -OEChem-05192314313D
 Structure written by MMmdl.
 44 47  0     1  0  0  0  0  0999 V2000
   24.3564   33.6113   52.8448 C   0  0  0  0  0  0  0  0  0  0  0  0
   23.0183   33.4975   52.5099 C   0  0  0  0  0  0  0  0  0  0  0  0
   22.3767   33.2602   53.6894 N   0  0  0  0  0  0  0  0  0  0  0  0
   23.3432   33.2295   54.6627 C   0  0  0  0  0  0  0  0  0  0  0  0
   24.5366   33.4320   54.1451 N   0  0  0  0  0  0  0  0  0  0  0  0
   23.0804   32.9514   56.1082 C   0  0  0  0  0  0  0  0  0  0  0  0
   24.1299   32.9871   57.0396 C   0  0  0  0  0  0  0  0  0  0  0  0
   23.9111   32.6334   58.3678 C   0  0  0  0  0  0  0  0  0  0  0  0
   22.6434   32.2299   58.7760 C   0  0  0  0  0  0  0  0  0  0  0  0
   21.5787   32.2132   57.8761 C   0  0  3  0  0  0  0  0  0  0  0  0
   20.1881   31.7866   58.3387 C   0  0  0  0  0  0  0  0  0  0  0  0
   19.8602   30.4029   57.9603 N   0  0  0  0  0  0  0  0  0  0  0  0
   19.3499   30.2301   56.6724 N   0  0  0  0  0  0  0  0  0  0  0  0
   19.0474   29.0660   56.1901 C   0  0  0  0  0  0  0  0  0  0  0  0
   19.3238   27.9262   57.0522 C   0  0  0  0  0  0  0  0  0  0  0  0
   19.8480   28.0844   58.2899 C   0  0  0  0  0  0  0  0  0  0  0  0
   20.1660   29.3879   58.8437 C   0  0  0  0  0  0  0  0  0  0  0  0
   20.6457   29.5266   59.9726 O   0  0  0  0  0  0  0  0  0  0  0  0
   18.4259   28.8961   54.8518 C   0  0  0  0  0  0  0  0  0  0  0  0
   18.2460   27.6349   54.2566 C   0  0  0  0  0  0  0  0  0  0  0  0
   17.5752   27.5079   53.0404 C   0  0  0  0  0  0  0  0  0  0  0  0
   17.3791   26.2837   52.5028 F   0  0  0  0  0  0  0  0  0  0  0  0
   17.0894   28.6363   52.3852 C   0  0  0  0  0  0  0  0  0  0  0  0
   17.2733   29.8953   52.9468 C   0  0  0  0  0  0  0  0  0  0  0  0
   16.7952   30.9967   52.3254 F   0  0  0  0  0  0  0  0  0  0  0  0
   17.9353   30.0226   54.1664 C   0  0  0  0  0  0  0  0  0  0  0  0
   21.8002   32.5881   56.5482 C   0  0  0  0  0  0  0  0  0  0  0  0
   22.2516   33.6272   51.1806 C   0  0  0  0  0  0  0  0  0  0  0  0
   25.1481   33.8186   52.1401 H   0  0  0  0  0  0  0  0  0  0  0  0
   24.9113   32.3128   56.6591 H   0  0  0  0  0  0  0  0  0  0  0  0
   24.5087   34.0198   57.0473 H   0  0  0  0  0  0  0  0  0  0  0  0
   24.7226   32.6720   59.0794 H   0  0  0  0  0  0  0  0  0  0  0  0
   22.4827   31.9267   59.8000 H   0  0  0  0  0  0  0  0  0  0  0  0
   21.3446   33.2570   58.1325 H   0  0  0  0  0  0  0  0  0  0  0  0
   20.1408   31.8718   59.4344 H   0  0  0  0  0  0  0  0  0  0  0  0
   19.4453   32.4600   57.8862 H   0  0  0  0  0  0  0  0  0  0  0  0
   19.1053   26.9304   56.6956 H   0  0  0  0  0  0  0  0  0  0  0  0
   20.0372   27.2061   58.8892 H   0  0  0  0  0  0  0  0  0  0  0  0
   18.6320   26.7537   54.7473 H   0  0  0  0  0  0  0  0  0  0  0  0
   16.5711   28.5342   51.4432 H   0  0  0  0  0  0  0  0  0  0  0  0
   18.0744   31.0047   54.5936 H   0  0  0  0  0  0  0  0  0  0  0  0
   20.9745   32.5980   55.8522 H   0  0  0  0  0  0  0  0  0  0  0  0
   21.1761   33.5300   51.1658 H   0  0  0  0  0  0  0  0  0  0  0  0
   22.7894   33.8154   50.2631 H   0  0  0  0  0  0  0  0  0  0  0  0
  1  2  1  0  0  0  0
  1  5  2  0  0  0  0
  2 28  2  0  0  0  0
  2  3  1  0  0  0  0
  3  4  2  0  0  0  0
  4  6  1  0  0  0  0
  4  5  1  0  0  0  0
  6  7  1  0  0  0  0
  6 27  2  0  0  0  0
  7  8  1  0  0  0  0
  8  9  2  0  0  0  0
  9 10  1  0  0  0  0
 10 11  1  0  0  0  0
 10 27  1  0  0  0  0
 11 12  1  0  0  0  0
 12 13  1  0  0  0  0
 12 17  1  0  0  0  0
 13 14  2  0  0  0  0
 14 15  1  0  0  0  0
 14 19  1  0  0  0  0
 15 16  2  0  0  0  0
 16 17  1  0  0  0  0
 17 18  2  0  0  0  0
 19 20  2  0  0  0  0
 19 26  1  0  0  0  0
 20 21  1  0  0  0  0
 21 22  1  0  0  0  0
 21 23  2  0  0  0  0
 23 24  1  0  0  0  0
 24 25  1  0  0  0  0
 24 26  2  0  0  0  0
  1 29  1  0  0  0  0
  7 30  1  0  0  0  0
  7 31  1  0  0  0  0
  8 32  1  0  0  0  0
  9 33  1  0  0  0  0
 10 34  1  0  0  0  0
 11 35  1  0  0  0  0
 11 36  1  0  0  0  0
 15 37  1  0  0  0  0
 16 38  1  0  0  0  0
 20 39  1  0  0  0  0
 23 40  1  0  0  0  0
 26 41  1  0  0  0  0
 27 42  1  0  0  0  0
 28 43  1  0  0  0  0
 28 44  1  0  0  0  0
M  END
> <s_user_Name>
CHEMBL3402748_5300

> <IC50[nM]>
5300

$$$$
CHEMBL3402748_5300
  -OEChem-05192314313D
 Structure written by MMmdl.
 44 47  0     1  0  0  0  0  0999 V2000
   24.3564   33.6113   52.8448 C   0  0  0  0  0  0  0  0  0  0  0  0
   23.0183   33.4975   52.5099 C   0  0  0  0  0  0  0  0  0  0  0  0
   22.3767   33.2602   53.6894 N   0  0  0  0  0  0  0  0  0  0  0  0
   23.3432   33.2295   54.6627 C   0  0  0  0  0  0  0  0  0  0  0  0
   24.5366   33.4320   54.1451 N   0  0  0  0  0  0  0  0  0  0  0  0
   23.0804   32.9514   56.1082 C   0  0  3  0  0  0  0  0  0  0  0  0
   24.1299   32.9871   57.0396 C   0  0  0  0  0  0  0  0  0  0  0  0
   23.9111   32.6334   58.3678 C   0  0  0  0  0  0  0  0  0  0  0  0
   22.6434   32.2299   58.7760 C   0  0  0  0  0  0  0  0  0  0  0  0
   21.5787   32.2132   57.8761 C   0  0  0  0  0  0  0  0  0  0  0  0
   20.1881   31.7866   58.3387 C   0  0  0  0  0  0  0  0  0  0  0  0
   19.8602   30.4029   57.9603 N   0  0  0  0  0  0  0  0  0  0  0  0
   19.3499   30.2301   56.6724 N   0  0  0  0  0  0  0  0  0  0  0  0
   19.0474   29.0660   56.1901 C   0  0  0  0  0  0  0  0  0  0  0  0
   19.3238   27.9262   57.0522 C   0  0  0  0  0  0  0  0  0  0  0  0
   19.8480   28.0844   58.2899 C   0  0  0  0  0  0  0  0  0  0  0  0
   20.1660   29.3879   58.8437 C   0  0  0  0  0  0  0  0  0  0  0  0
   20.6457   29.5266   59.9726 O   0  0  0  0  0  0  0  0  0  0  0  0
   18.4259   28.8961   54.8518 C   0  0  0  0  0  0  0  0  0  0  0  0
   18.2460   27.6349   54.2566 C   0  0  0  0  0  0  0  0  0  0  0  0
   17.5752   27.5079   53.0404 C   0  0  0  0  0  0  0  0  0  0  0  0
   17.3791   26.2837   52.5028 F   0  0  0  0  0  0  0  0  0  0  0  0
   17.0894   28.6363   52.3852 C   0  0  0  0  0  0  0  0  0  0  0  0
   17.2733   29.8953   52.9468 C   0  0  0  0  0  0  0  0  0  0  0  0
   16.7952   30.9967   52.3254 F   0  0  0  0  0  0  0  0  0  0  0  0
   17.9353   30.0226   54.1664 C   0  0  0  0  0  0  0  0  0  0  0  0
   21.8002   32.5881   56.5482 C   0  0  0  0  0  0  0  0  0  0  0  0
   22.2516   33.6272   51.1806 C   0  0  0  0  0  0  0  0  0  0  0  0
   25.1481   33.8186   52.1401 H   0  0  0  0  0  0  0  0  0  0  0  0
   22.8602   34.0138   56.2894 H   0  0  0  0  0  0  0  0  0  0  0  0
   24.9113   32.3128   56.6591 H   0  0  0  0  0  0  0  0  0  0  0  0
   24.5087   34.0198   57.0473 H   0  0  0  0  0  0  0  0  0  0  0  0
   24.7226   32.6720   59.0794 H   0  0  0  0  0  0  0  0  0  0  0  0
   22.4827   31.9267   59.8000 H   0  0  0  0  0  0  0  0  0  0  0  0
   20.1408   31.8718   59.4344 H   0  0  0  0  0  0  0  0  0  0  0  0
   19.4453   32.4600   57.8862 H   0  0  0  0  0  0  0  0  0  0  0  0
   19.1053   26.9304   56.6956 H   0  0  0  0  0  0  0  0  0  0  0  0
   20.0372   27.2061   58.8892 H   0  0  0  0  0  0  0  0  0  0  0  0
   18.6320   26.7537   54.7473 H   0  0  0  0  0  0  0  0  0  0  0  0
   16.5711   28.5342   51.4432 H   0  0  0  0  0  0  0  0  0  0  0  0
   18.0744   31.0047   54.5936 H   0  0  0  0  0  0  0  0  0  0  0  0
   20.9745   32.5980   55.8522 H   0  0  0  0  0  0  0  0  0  0  0  0
   21.1761   33.5300   51.1658 H   0  0  0  0  0  0  0  0  0  0  0  0
   22.7894   33.8154   50.2631 H   0  0  0  0  0  0  0  0  0  0  0  0
  1  2  1  0  0  0  0
  1  5  2  0  0  0  0
  2 28  2  0  0  0  0
  2  3  1  0  0  0  0
  3  4  2  0  0  0  0
  4  6  1  0  0  0  0
  4  5  1  0  0  0  0
  6  7  1  0  0  0  0
  6 27  1  0  0  0  0
  7  8  1  0  0  0  0
  8  9  2  0  0  0  0
  9 10  1  0  0  0  0
 10 11  1  0  0  0  0
 10 27  2  0  0  0  0
 11 12  1  0  0  0  0
 12 13  1  0  0  0  0
 12 17  1  0  0  0  0
 13 14  2  0  0  0  0
 14 15  1  0  0  0  0
 14 19  1  0  0  0  0
 15 16  2  0  0  0  0
 16 17  1  0  0  0  0
 17 18  2  0  0  0  0
 19 20  2  0  0  0  0
 19 26  1  0  0  0  0
 20 21  1  0  0  0  0
 21 22  1  0  0  0  0
 21 23  2  0  0  0  0
 23 24  1  0  0  0  0
 24 25  1  0  0  0  0
 24 26  2  0  0  0  0
  1 29  1  0  0  0  0
  6 30  1  0  0  0  0
  7 31  1  0  0  0  0
  7 32  1  0  0  0  0
  8 33  1  0  0  0  0
  9 34  1  0  0  0  0
 11 35  1  0  0  0  0
 11 36  1  0  0  0  0
 15 37  1  0  0  0  0
 16 38  1  0  0  0  0
 20 39  1  0  0  0  0
 23 40  1  0  0  0  0
 26 41  1  0  0  0  0
 27 42  1  0  0  0  0
 28 43  1  0  0  0  0
 28 44  1  0  0  0  0
M  END
> <s_user_Name>
CHEMBL3402748_5300

> <IC50[nM]>
5300

$$$$
CHEMBL3402748_5300
  -OEChem-05192314313D
 Structure written by MMmdl.
 44 47  0     0  0  0  0  0  0999 V2000
   24.3564   33.6113   52.8448 C   0  0  0  0  0  0  0  0  0  0  0  0
   23.0183   33.4975   52.5099 C   0  0  0  0  0  0  0  0  0  0  0  0
   22.3767   33.2602   53.6894 N   0  0  0  0  0  0  0  0  0  0  0  0
   23.3432   33.2295   54.6627 C   0  0  0  0  0  0  0  0  0  0  0  0
   24.5366   33.4320   54.1451 N   0  0  0  0  0  0  0  0  0  0  0  0
   23.0804   32.9514   56.1082 C   0  0  0  0  0  0  0  0  0  0  0  0
   24.1299   32.9871   57.0396 C   0  0  0  0  0  0  0  0  0  0  0  0
   23.9111   32.6334   58.3678 C   0  0  0  0  0  0  0  0  0  0  0  0
   22.6434   32.2299   58.7760 C   0  0  0  0  0  0  0  0  0  0  0  0
   21.5787   32.2132   57.8761 C   0  0  0  0  0  0  0  0  0  0  0  0
   20.1881   31.7866   58.3387 C   0  0  0  0  0  0  0  0  0  0  0  0
   19.8602   30.4029   57.9603 N   0  0  0  0  0  0  0  0  0  0  0  0
   19.3499   30.2301   56.6724 N   0  0  0  0  0  0  0  0  0  0  0  0
   19.0474   29.0660   56.1901 C   0  0  0  0  0  0  0  0  0  0  0  0
   19.3238   27.9262   57.0522 C   0  0  0  0  0  0  0  0  0  0  0  0
   19.8480   28.0844   58.2899 C   0  0  0  0  0  0  0  0  0  0  0  0
   20.1660   29.3879   58.8437 C   0  0  0  0  0  0  0  0  0  0  0  0
   20.6457   29.5266   59.9726 O   0  0  0  0  0  0  0  0  0  0  0  0
   18.4259   28.8961   54.8518 C   0  0  0  0  0  0  0  0  0  0  0  0
   18.2460   27.6349   54.2566 C   0  0  0  0  0  0  0  0  0  0  0  0
   17.5752   27.5079   53.0404 C   0  0  0  0  0  0  0  0  0  0  0  0
   17.3791   26.2837   52.5028 F   0  0  0  0  0  0  0  0  0  0  0  0
   17.0894   28.6363   52.3852 C   0  0  0  0  0  0  0  0  0  0  0  0
   17.2733   29.8953   52.9468 C   0  0  0  0  0  0  0  0  0  0  0  0
   16.7952   30.9967   52.3254 F   0  0  0  0  0  0  0  0  0  0  0  0
   17.9353   30.0226   54.1664 C   0  0  0  0  0  0  0  0  0  0  0  0
   21.8002   32.5881   56.5482 C   0  0  0  0  0  0  0  0  0  0  0  0
   22.2516   33.6272   51.1806 C   0  0  0  0  0  0  0  0  0  0  0  0
   25.1481   33.8186   52.1401 H   0  0  0  0  0  0  0  0  0  0  0  0
   24.9113   32.3128   56.6591 H   0  0  0  0  0  0  0  0  0  0  0  0
   24.5087   34.0198   57.0473 H   0  0  0  0  0  0  0  0  0  0  0  0
   24.5975   31.8041   58.5938 H   0  0  0  0  0  0  0  0  0  0  0  0
   24.1791   33.5081   58.9787 H   0  0  0  0  0  0  0  0  0  0  0  0
   22.4827   31.9267   59.8000 H   0  0  0  0  0  0  0  0  0  0  0  0
   20.1408   31.8718   59.4344 H   0  0  0  0  0  0  0  0  0  0  0  0
   19.4453   32.4600   57.8862 H   0  0  0  0  0  0  0  0  0  0  0  0
   19.1053   26.9304   56.6956 H   0  0  0  0  0  0  0  0  0  0  0  0
   20.0372   27.2061   58.8892 H   0  0  0  0  0  0  0  0  0  0  0  0
   18.6320   26.7537   54.7473 H   0  0  0  0  0  0  0  0  0  0  0  0
   16.5711   28.5342   51.4432 H   0  0  0  0  0  0  0  0  0  0  0  0
   18.0744   31.0047   54.5936 H   0  0  0  0  0  0  0  0  0  0  0  0
   20.9745   32.5980   55.8522 H   0  0  0  0  0  0  0  0  0  0  0  0
   21.1761   33.5300   51.1658 H   0  0  0  0  0  0  0  0  0  0  0  0
   22.7894   33.8154   50.2631 H   0  0  0  0  0  0  0  0  0  0  0  0
  1  2  1  0  0  0  0
  1  5  2  0  0  0  0
  2 28  2  0  0  0  0
  2  3  1  0  0  0  0
  3  4  2  0  0  0  0
  4  6  1  0  0  0  0
  4  5  1  0  0  0  0
  6  7  1  0  0  0  0
  6 27  2  0  0  0  0
  7  8  1  0  0  0  0
  8  9  1  0  0  0  0
  9 10  2  0  0  0  0
 10 11  1  0  0  0  0
 10 27  1  0  0  0  0
 11 12  1  0  0  0  0
 12 13  1  0  0  0  0
 12 17  1  0  0  0  0
 13 14  2  0  0  0  0
 14 15  1  0  0  0  0
 14 19  1  0  0  0  0
 15 16  2  0  0  0  0
 16 17  1  0  0  0  0
 17 18  2  0  0  0  0
 19 20  2  0  0  0  0
 19 26  1  0  0  0  0
 20 21  1  0  0  0  0
 21 22  1  0  0  0  0
 21 23  2  0  0  0  0
 23 24  1  0  0  0  0
 24 25  1  0  0  0  0
 24 26  2  0  0  0  0
  1 29  1  0  0  0  0
  7 30  1  0  0  0  0
  7 31  1  0  0  0  0
  8 32  1  0  0  0  0
  8 33  1  0  0  0  0
  9 34  1  0  0  0  0
 11 35  1  0  0  0  0
 11 36  1  0  0  0  0
 15 37  1  0  0  0  0
 16 38  1  0  0  0  0
 20 39  1  0  0  0  0
 23 40  1  0  0  0  0
 26 41  1  0  0  0  0
 27 42  1  0  0  0  0
 28 43  1  0  0  0  0
 28 44  1  0  0  0  0
M  END
> <s_user_Name>
CHEMBL3402748_5300

> <IC50[nM]>
5300

$$$$
CHEMBL3402748_5300
  -OEChem-05192314313D
 Structure written by MMmdl.
 44 47  0     1  0  0  0  0  0999 V2000
   24.3564   33.6113   52.8448 C   0  0  0  0  0  0  0  0  0  0  0  0
   23.0183   33.4975   52.5099 C   0  0  0  0  0  0  0  0  0  0  0  0
   22.3767   33.2602   53.6894 N   0  0  0  0  0  0  0  0  0  0  0  0
   23.3432   33.2295   54.6627 C   0  0  0  0  0  0  0  0  0  0  0  0
   24.5366   33.4320   54.1451 N   0  0  0  0  0  0  0  0  0  0  0  0
   23.0804   32.9514   56.1082 C   0  0  0  0  0  0  0  0  0  0  0  0
   24.1299   32.9871   57.0396 C   0  0  0  0  0  0  0  0  0  0  0  0
   23.9111   32.6334   58.3678 C   0  0  0  0  0  0  0  0  0  0  0  0
   22.6434   32.2299   58.7760 C   0  0  0  0  0  0  0  0  0  0  0  0
   21.5787   32.2132   57.8761 C   0  0  3  0  0  0  0  0  0  0  0  0
   20.1881   31.7866   58.3387 C   0  0  0  0  0  0  0  0  0  0  0  0
   19.8602   30.4029   57.9603 N   0  0  0  0  0  0  0  0  0  0  0  0
   19.3499   30.2301   56.6724 N   0  0  0  0  0  0  0  0  0  0  0  0
   19.0474   29.0660   56.1901 C   0  0  0  0  0  0  0  0  0  0  0  0
   19.3238   27.9262   57.0522 C   0  0  0  0  0  0  0  0  0  0  0  0
   19.8480   28.0844   58.2899 C   0  0  0  0  0  0  0  0  0  0  0  0
   20.1660   29.3879   58.8437 C   0  0  0  0  0  0  0  0  0  0  0  0
   20.6457   29.5266   59.9726 O   0  0  0  0  0  0  0  0  0  0  0  0
   18.4259   28.8961   54.8518 C   0  0  0  0  0  0  0  0  0  0  0  0
   18.2460   27.6349   54.2566 C   0  0  0  0  0  0  0  0  0  0  0  0
   17.5752   27.5079   53.0404 C   0  0  0  0  0  0  0  0  0  0  0  0
   17.3791   26.2837   52.5028 F   0  0  0  0  0  0  0  0  0  0  0  0
   17.0894   28.6363   52.3852 C   0  0  0  0  0  0  0  0  0  0  0  0
   17.2733   29.8953   52.9468 C   0  0  0  0  0  0  0  0  0  0  0  0
   16.7952   30.9967   52.3254 F   0  0  0  0  0  0  0  0  0  0  0  0
   17.9353   30.0226   54.1664 C   0  0  0  0  0  0  0  0  0  0  0  0
   21.8002   32.5881   56.5482 C   0  0  0  0  0  0  0  0  0  0  0  0
   22.2516   33.6272   51.1806 C   0  0  0  0  0  0  0  0  0  0  0  0
   25.1481   33.8186   52.1401 H   0  0  0  0  0  0  0  0  0  0  0  0
   25.1163   33.2919   56.7226 H   0  0  0  0  0  0  0  0  0  0  0  0
   24.7226   32.6720   59.0794 H   0  0  0  0  0  0  0  0  0  0  0  0
   22.7480   31.2038   59.1584 H   0  0  0  0  0  0  0  0  0  0  0  0
   22.3499   32.8994   59.5980 H   0  0  0  0  0  0  0  0  0  0  0  0
   21.3446   33.2570   58.1325 H   0  0  0  0  0  0  0  0  0  0  0  0
   20.1408   31.8718   59.4344 H   0  0  0  0  0  0  0  0  0  0  0  0
   19.4453   32.4600   57.8862 H   0  0  0  0  0  0  0  0  0  0  0  0
   19.1053   26.9304   56.6956 H   0  0  0  0  0  0  0  0  0  0  0  0
   20.0372   27.2061   58.8892 H   0  0  0  0  0  0  0  0  0  0  0  0
   18.6320   26.7537   54.7473 H   0  0  0  0  0  0  0  0  0  0  0  0
   16.5711   28.5342   51.4432 H   0  0  0  0  0  0  0  0  0  0  0  0
   18.0744   31.0047   54.5936 H   0  0  0  0  0  0  0  0  0  0  0  0
   20.9745   32.5980   55.8522 H   0  0  0  0  0  0  0  0  0  0  0  0
   21.1761   33.5300   51.1658 H   0  0  0  0  0  0  0  0  0  0  0  0
   22.7894   33.8154   50.2631 H   0  0  0  0  0  0  0  0  0  0  0  0
  1  2  1  0  0  0  0
  1  5  2  0  0  0  0
  2 28  2  0  0  0  0
  2  3  1  0  0  0  0
  3  4  2  0  0  0  0
  4  6  1  0  0  0  0
  4  5  1  0  0  0  0
  6  7  1  0  0  0  0
  6 27  2  0  0  0  0
  7  8  2  0  0  0  0
  8  9  1  0  0  0  0
  9 10  1  0  0  0  0
 10 11  1  0  0  0  0
 10 27  1  0  0  0  0
 11 12  1  0  0  0  0
 12 13  1  0  0  0  0
 12 17  1  0  0  0  0
 13 14  2  0  0  0  0
 14 15  1  0  0  0  0
 14 19  1  0  0  0  0
 15 16  2  0  0  0  0
 16 17  1  0  0  0  0
 17 18  2  0  0  0  0
 19 20  2  0  0  0  0
 19 26  1  0  0  0  0
 20 21  1  0  0  0  0
 21 22  1  0  0  0  0
 21 23  2  0  0  0  0
 23 24  1  0  0  0  0
 24 25  1  0  0  0  0
 24 26  2  0  0  0  0
  1 29  1  0  0  0  0
  7 30  1  0  0  0  0
  8 31  1  0  0  0  0
  9 32  1  0  0  0  0
  9 33  1  0  0  0  0
 10 34  1  0  0  0  0
 11 35  1  0  0  0  0
 11 36  1  0  0  0  0
 15 37  1  0  0  0  0
 16 38  1  0  0  0  0
 20 39  1  0  0  0  0
 23 40  1  0  0  0  0
 26 41  1  0  0  0  0
 27 42  1  0  0  0  0
 28 43  1  0  0  0  0
 28 44  1  0  0  0  0
M  END
> <s_user_Name>
CHEMBL3402748_5300

> <IC50[nM]>
5300

$$$$
CHEMBL3402748_5300
  -OEChem-05192314313D
 Structure written by MMmdl.
 44 47  0     1  0  0  0  0  0999 V2000
   24.3564   33.6113   52.8448 C   0  0  0  0  0  0  0  0  0  0  0  0
   23.0183   33.4975   52.5099 C   0  0  0  0  0  0  0  0  0  0  0  0
   22.3767   33.2602   53.6894 N   0  0  0  0  0  0  0  0  0  0  0  0
   23.3432   33.2295   54.6627 C   0  0  0  0  0  0  0  0  0  0  0  0
   24.5366   33.4320   54.1451 N   0  0  0  0  0  0  0  0  0  0  0  0
   23.0804   32.9514   56.1082 C   0  0  3  0  0  0  0  0  0  0  0  0
   24.1299   32.9871   57.0396 C   0  0  0  0  0  0  0  0  0  0  0  0
   23.9111   32.6334   58.3678 C   0  0  0  0  0  0  0  0  0  0  0  0
   22.6434   32.2299   58.7760 C   0  0  0  0  0  0  0  0  0  0  0  0
   21.5787   32.2132   57.8761 C   0  0  0  0  0  0  0  0  0  0  0  0
   20.1881   31.7866   58.3387 C   0  0  0  0  0  0  0  0  0  0  0  0
   19.8602   30.4029   57.9603 N   0  0  0  0  0  0  0  0  0  0  0  0
   19.3499   30.2301   56.6724 N   0  0  0  0  0  0  0  0  0  0  0  0
   19.0474   29.0660   56.1901 C   0  0  0  0  0  0  0  0  0  0  0  0
   19.3238   27.9262   57.0522 C   0  0  0  0  0  0  0  0  0  0  0  0
   19.8480   28.0844   58.2899 C   0  0  0  0  0  0  0  0  0  0  0  0
   20.1660   29.3879   58.8437 C   0  0  0  0  0  0  0  0  0  0  0  0
   20.6457   29.5266   59.9726 O   0  0  0  0  0  0  0  0  0  0  0  0
   18.4259   28.8961   54.8518 C   0  0  0  0  0  0  0  0  0  0  0  0
   18.2460   27.6349   54.2566 C   0  0  0  0  0  0  0  0  0  0  0  0
   17.5752   27.5079   53.0404 C   0  0  0  0  0  0  0  0  0  0  0  0
   17.3791   26.2837   52.5028 F   0  0  0  0  0  0  0  0  0  0  0  0
   17.0894   28.6363   52.3852 C   0  0  0  0  0  0  0  0  0  0  0  0
   17.2733   29.8953   52.9468 C   0  0  0  0  0  0  0  0  0  0  0  0
   16.7952   30.9967   52.3254 F   0  0  0  0  0  0  0  0  0  0  0  0
   17.9353   30.0226   54.1664 C   0  0  0  0  0  0  0  0  0  0  0  0
   21.8002   32.5881   56.5482 C   0  0  0  0  0  0  0  0  0  0  0  0
   22.2516   33.6272   51.1806 C   0  0  0  0  0  0  0  0  0  0  0  0
   25.1481   33.8186   52.1401 H   0  0  0  0  0  0  0  0  0  0  0  0
   22.8602   34.0138   56.2894 H   0  0  0  0  0  0  0  0  0  0  0  0
   25.1163   33.2919   56.7226 H   0  0  0  0  0  0  0  0  0  0  0  0
   24.7226   32.6720   59.0794 H   0  0  0  0  0  0  0  0  0  0  0  0
   22.7480   31.2038   59.1584 H   0  0  0  0  0  0  0  0  0  0  0  0
   22.3499   32.8994   59.5980 H   0  0  0  0  0  0  0  0  0  0  0  0
   20.1408   31.8718   59.4344 H   0  0  0  0  0  0  0  0  0  0  0  0
   19.4453   32.4600   57.8862 H   0  0  0  0  0  0  0  0  0  0  0  0
   19.1053   26.9304   56.6956 H   0  0  0  0  0  0  0  0  0  0  0  0
   20.0372   27.2061   58.8892 H   0  0  0  0  0  0  0  0  0  0  0  0
   18.6320   26.7537   54.7473 H   0  0  0  0  0  0  0  0  0  0  0  0
   16.5711   28.5342   51.4432 H   0  0  0  0  0  0  0  0  0  0  0  0
   18.0744   31.0047   54.5936 H   0  0  0  0  0  0  0  0  0  0  0  0
   20.9745   32.5980   55.8522 H   0  0  0  0  0  0  0  0  0  0  0  0
   21.1761   33.5300   51.1658 H   0  0  0  0  0  0  0  0  0  0  0  0
   22.7894   33.8154   50.2631 H   0  0  0  0  0  0  0  0  0  0  0  0
  1  2  1  0  0  0  0
  1  5  2  0  0  0  0
  2 28  2  0  0  0  0
  2  3  1  0  0  0  0
  3  4  2  0  0  0  0
  4  6  1  0  0  0  0
  4  5  1  0  0  0  0
  6  7  1  0  0  0  0
  6 27  1  0  0  0  0
  7  8  2  0  0  0  0
  8  9  1  0  0  0  0
  9 10  1  0  0  0  0
 10 11  1  0  0  0  0
 10 27  2  0  0  0  0
 11 12  1  0  0  0  0
 12 13  1  0  0  0  0
 12 17  1  0  0  0  0
 13 14  2  0  0  0  0
 14 15  1  0  0  0  0
 14 19  1  0  0  0  0
 15 16  2  0  0  0  0
 16 17  1  0  0  0  0
 17 18  2  0  0  0  0
 19 20  2  0  0  0  0
 19 26  1  0  0  0  0
 20 21  1  0  0  0  0
 21 22  1  0  0  0  0
 21 23  2  0  0  0  0
 23 24  1  0  0  0  0
 24 25  1  0  0  0  0
 24 26  2  0  0  0  0
  1 29  1  0  0  0  0
  6 30  1  0  0  0  0
  7 31  1  0  0  0  0
  8 32  1  0  0  0  0
  9 33  1  0  0  0  0
  9 34  1  0  0  0  0
 11 35  1  0  0  0  0
 11 36  1  0  0  0  0
 15 37  1  0  0  0  0
 16 38  1  0  0  0  0
 20 39  1  0  0  0  0
 23 40  1  0  0  0  0
 26 41  1  0  0  0  0
 27 42  1  0  0  0  0
 28 43  1  0  0  0  0
 28 44  1  0  0  0  0
M  END
> <s_user_Name>
CHEMBL3402748_5300

> <IC50[nM]>
5300

$$$$
CHEMBL3402748_5300
  -OEChem-05192314313D
 Structure written by MMmdl.
 44 47  0     0  0  0  0  0  0999 V2000
   24.3564   33.6113   52.8448 C   0  0  0  0  0  0  0  0  0  0  0  0
   23.0183   33.4975   52.5099 C   0  0  0  0  0  0  0  0  0  0  0  0
   22.3767   33.2602   53.6894 N   0  0  0  0  0  0  0  0  0  0  0  0
   23.3432   33.2295   54.6627 C   0  0  0  0  0  0  0  0  0  0  0  0
   24.5366   33.4320   54.1451 N   0  0  0  0  0  0  0  0  0  0  0  0
   23.0804   32.9514   56.1082 C   0  0  0  0  0  0  0  0  0  0  0  0
   24.1299   32.9871   57.0396 C   0  0  0  0  0  0  0  0  0  0  0  0
   23.9111   32.6334   58.3678 C   0  0  0  0  0  0  0  0  0  0  0  0
   22.6434   32.2299   58.7760 C   0  0  0  0  0  0  0  0  0  0  0  0
   21.5787   32.2132   57.8761 C   0  0  0  0  0  0  0  0  0  0  0  0
   20.1881   31.7866   58.3387 C   0  0  0  0  0  0  0  0  0  0  0  0
   19.8602   30.4029   57.9603 N   0  0  0  0  0  0  0  0  0  0  0  0
   19.3499   30.2301   56.6724 N   0  0  0  0  0  0  0  0  0  0  0  0
   19.0474   29.0660   56.1901 C   0  0  0  0  0  0  0  0  0  0  0  0
   19.3238   27.9262   57.0522 C   0  0  0  0  0  0  0  0  0  0  0  0
   19.8480   28.0844   58.2899 C   0  0  0  0  0  0  0  0  0  0  0  0
   20.1660   29.3879   58.8437 C   0  0  0  0  0  0  0  0  0  0  0  0
   20.6457   29.5266   59.9726 O   0  0  0  0  0  0  0  0  0  0  0  0
   18.4259   28.8961   54.8518 C   0  0  0  0  0  0  0  0  0  0  0  0
   18.2460   27.6349   54.2566 C   0  0  0  0  0  0  0  0  0  0  0  0
   17.5752   27.5079   53.0404 C   0  0  0  0  0  0  0  0  0  0  0  0
   17.3791   26.2837   52.5028 F   0  0  0  0  0  0  0  0  0  0  0  0
   17.0894   28.6363   52.3852 C   0  0  0  0  0  0  0  0  0  0  0  0
   17.2733   29.8953   52.9468 C   0  0  0  0  0  0  0  0  0  0  0  0
   16.7952   30.9967   52.3254 F   0  0  0  0  0  0  0  0  0  0  0  0
   17.9353   30.0226   54.1664 C   0  0  0  0  0  0  0  0  0  0  0  0
   21.8002   32.5881   56.5482 C   0  0  0  0  0  0  0  0  0  0  0  0
   22.2516   33.6272   51.1806 C   0  0  0  0  0  0  0  0  0  0  0  0
   25.1481   33.8186   52.1401 H   0  0  0  0  0  0  0  0  0  0  0  0
   25.1163   33.2919   56.7226 H   0  0  0  0  0  0  0  0  0  0  0  0
   24.5975   31.8041   58.5938 H   0  0  0  0  0  0  0  0  0  0  0  0
   24.1791   33.5081   58.9787 H   0  0  0  0  0  0  0  0  0  0  0  0
   22.7480   31.2038   59.1584 H   0  0  0  0  0  0  0  0  0  0  0  0
   22.3499   32.8994   59.5980 H   0  0  0  0  0  0  0  0  0  0  0  0
   20.1408   31.8718   59.4344 H   0  0  0  0  0  0  0  0  0  0  0  0
   19.4453   32.4600   57.8862 H   0  0  0  0  0  0  0  0  0  0  0  0
   19.1053   26.9304   56.6956 H   0  0  0  0  0  0  0  0  0  0  0  0
   20.0372   27.2061   58.8892 H   0  0  0  0  0  0  0  0  0  0  0  0
   18.6320   26.7537   54.7473 H   0  0  0  0  0  0  0  0  0  0  0  0
   16.5711   28.5342   51.4432 H   0  0  0  0  0  0  0  0  0  0  0  0
   18.0744   31.0047   54.5936 H   0  0  0  0  0  0  0  0  0  0  0  0
   20.9745   32.5980   55.8522 H   0  0  0  0  0  0  0  0  0  0  0  0
   21.1761   33.5300   51.1658 H   0  0  0  0  0  0  0  0  0  0  0  0
   22.7894   33.8154   50.2631 H   0  0  0  0  0  0  0  0  0  0  0  0
  1  2  1  0  0  0  0
  1  5  2  0  0  0  0
  2 28  2  0  0  0  0
  2  3  1  0  0  0  0
  3  4  2  0  0  0  0
  4  6  1  0  0  0  0
  4  5  1  0  0  0  0
  6  7  2  0  0  0  0
  6 27  1  0  0  0  0
  7  8  1  0  0  0  0
  8  9  1  0  0  0  0
  9 10  1  0  0  0  0
 10 11  1  0  0  0  0
 10 27  2  0  0  0  0
 11 12  1  0  0  0  0
 12 13  1  0  0  0  0
 12 17  1  0  0  0  0
 13 14  2  0  0  0  0
 14 15  1  0  0  0  0
 14 19  1  0  0  0  0
 15 16  2  0  0  0  0
 16 17  1  0  0  0  0
 17 18  2  0  0  0  0
 19 20  2  0  0  0  0
 19 26  1  0  0  0  0
 20 21  1  0  0  0  0
 21 22  1  0  0  0  0
 21 23  2  0  0  0  0
 23 24  1  0  0  0  0
 24 25  1  0  0  0  0
 24 26  2  0  0  0  0
  1 29  1  0  0  0  0
  7 30  1  0  0  0  0
  8 31  1  0  0  0  0
  8 32  1  0  0  0  0
  9 33  1  0  0  0  0
  9 34  1  0  0  0  0
 11 35  1  0  0  0  0
 11 36  1  0  0  0  0
 15 37  1  0  0  0  0
 16 38  1  0  0  0  0
 20 39  1  0  0  0  0
 23 40  1  0  0  0  0
 26 41  1  0  0  0  0
 27 42  1  0  0  0  0
 28 43  1  0  0  0  0
 28 44  1  0  0  0  0
M  END
> <s_user_Name>
CHEMBL3402748_5300

> <IC50[nM]>
5300

$$$$
CHEMBL3402748_5300
  -OEChem-05192314313D
 Structure written by MMmdl.
 44 47  0     1  0  0  0  0  0999 V2000
   24.3564   33.6113   52.8448 C   0  0  0  0  0  0  0  0  0  0  0  0
   23.0183   33.4975   52.5099 C   0  0  0  0  0  0  0  0  0  0  0  0
   22.3767   33.2602   53.6894 N   0  0  0  0  0  0  0  0  0  0  0  0
   23.3432   33.2295   54.6627 C   0  0  0  0  0  0  0  0  0  0  0  0
   24.5366   33.4320   54.1451 N   0  0  0  0  0  0  0  0  0  0  0  0
   23.0804   32.9514   56.1082 C   0  0  0  0  0  0  0  0  0  0  0  0
   24.1299   32.9871   57.0396 C   0  0  0  0  0  0  0  0  0  0  0  0
   23.9111   32.6334   58.3678 C   0  0  0  0  0  0  0  0  0  0  0  0
   22.6434   32.2299   58.7760 C   0  0  0  0  0  0  0  0  0  0  0  0
   21.5787   32.2132   57.8761 C   0  0  3  0  0  0  0  0  0  0  0  0
   20.1881   31.7866   58.3387 C   0  0  0  0  0  0  0  0  0  0  0  0
   19.8602   30.4029   57.9603 N   0  0  0  0  0  0  0  0  0  0  0  0
   19.3499   30.2301   56.6724 N   0  0  0  0  0  0  0  0  0  0  0  0
   19.0474   29.0660   56.1901 C   0  0  0  0  0  0  0  0  0  0  0  0
   19.3238   27.9262   57.0522 C   0  0  0  0  0  0  0  0  0  0  0  0
   19.8480   28.0844   58.2899 C   0  0  0  0  0  0  0  0  0  0  0  0
   20.1660   29.3879   58.8437 C   0  0  0  0  0  0  0  0  0  0  0  0
   20.6457   29.5266   59.9726 O   0  0  0  0  0  0  0  0  0  0  0  0
   18.4259   28.8961   54.8518 C   0  0  0  0  0  0  0  0  0  0  0  0
   18.2460   27.6349   54.2566 C   0  0  0  0  0  0  0  0  0  0  0  0
   17.5752   27.5079   53.0404 C   0  0  0  0  0  0  0  0  0  0  0  0
   17.3791   26.2837   52.5028 F   0  0  0  0  0  0  0  0  0  0  0  0
   17.0894   28.6363   52.3852 C   0  0  0  0  0  0  0  0  0  0  0  0
   17.2733   29.8953   52.9468 C   0  0  0  0  0  0  0  0  0  0  0  0
   16.7952   30.9967   52.3254 F   0  0  0  0  0  0  0  0  0  0  0  0
   17.9353   30.0226   54.1664 C   0  0  0  0  0  0  0  0  0  0  0  0
   21.8002   32.5881   56.5482 C   0  0  0  0  0  0  0  0  0  0  0  0
   22.2516   33.6272   51.1806 C   0  0  0  0  0  0  0  0  0  0  0  0
   25.1481   33.8186   52.1401 H   0  0  0  0  0  0  0  0  0  0  0  0
   25.1163   33.2919   56.7226 H   0  0  0  0  0  0  0  0  0  0  0  0
   24.7226   32.6720   59.0794 H   0  0  0  0  0  0  0  0  0  0  0  0
   22.4827   31.9267   59.8000 H   0  0  0  0  0  0  0  0  0  0  0  0
   21.3446   33.2570   58.1325 H   0  0  0  0  0  0  0  0  0  0  0  0
   20.1408   31.8718   59.4344 H   0  0  0  0  0  0  0  0  0  0  0  0
   19.4453   32.4600   57.8862 H   0  0  0  0  0  0  0  0  0  0  0  0
   19.1053   26.9304   56.6956 H   0  0  0  0  0  0  0  0  0  0  0  0
   20.0372   27.2061   58.8892 H   0  0  0  0  0  0  0  0  0  0  0  0
   18.6320   26.7537   54.7473 H   0  0  0  0  0  0  0  0  0  0  0  0
   16.5711   28.5342   51.4432 H   0  0  0  0  0  0  0  0  0  0  0  0
   18.0744   31.0047   54.5936 H   0  0  0  0  0  0  0  0  0  0  0  0
   21.1451   33.4497   56.3522 H   0  0  0  0  0  0  0  0  0  0  0  0
   21.4842   31.7381   55.9256 H   0  0  0  0  0  0  0  0  0  0  0  0
   21.1761   33.5300   51.1658 H   0  0  0  0  0  0  0  0  0  0  0  0
   22.7894   33.8154   50.2631 H   0  0  0  0  0  0  0  0  0  0  0  0
  1  2  1  0  0  0  0
  1  5  2  0  0  0  0
  2 28  2  0  0  0  0
  2  3  1  0  0  0  0
  3  4  2  0  0  0  0
  4  6  1  0  0  0  0
  4  5  1  0  0  0  0
  6  7  2  0  0  0  0
  6 27  1  0  0  0  0
  7  8  1  0  0  0  0
  8  9  2  0  0  0  0
  9 10  1  0  0  0  0
 10 11  1  0  0  0  0
 10 27  1  0  0  0  0
 11 12  1  0  0  0  0
 12 13  1  0  0  0  0
 12 17  1  0  0  0  0
 13 14  2  0  0  0  0
 14 15  1  0  0  0  0
 14 19  1  0  0  0  0
 15 16  2  0  0  0  0
 16 17  1  0  0  0  0
 17 18  2  0  0  0  0
 19 20  2  0  0  0  0
 19 26  1  0  0  0  0
 20 21  1  0  0  0  0
 21 22  1  0  0  0  0
 21 23  2  0  0  0  0
 23 24  1  0  0  0  0
 24 25  1  0  0  0  0
 24 26  2  0  0  0  0
  1 29  1  0  0  0  0
  7 30  1  0  0  0  0
  8 31  1  0  0  0  0
  9 32  1  0  0  0  0
 10 33  1  0  0  0  0
 11 34  1  0  0  0  0
 11 35  1  0  0  0  0
 15 36  1  0  0  0  0
 16 37  1  0  0  0  0
 20 38  1  0  0  0  0
 23 39  1  0  0  0  0
 26 40  1  0  0  0  0
 27 41  1  0  0  0  0
 27 42  1  0  0  0  0
 28 43  1  0  0  0  0
 28 44  1  0  0  0  0
M  END
> <s_user_Name>
CHEMBL3402748_5300

> <IC50[nM]>
5300

$$$$
CHEMBL3402748_5300
  -OEChem-05192314313D
 Structure written by MMmdl.
 44 47  0     1  0  0  0  0  0999 V2000
   24.3564   33.6113   52.8448 C   0  0  0  0  0  0  0  0  0  0  0  0
   23.0183   33.4975   52.5099 C   0  0  0  0  0  0  0  0  0  0  0  0
   22.3767   33.2602   53.6894 N   0  0  0  0  0  0  0  0  0  0  0  0
   23.3432   33.2295   54.6627 C   0  0  0  0  0  0  0  0  0  0  0  0
   24.5366   33.4320   54.1451 N   0  0  0  0  0  0  0  0  0  0  0  0
   23.0804   32.9514   56.1082 C   0  0  3  0  0  0  0  0  0  0  0  0
   24.1299   32.9871   57.0396 C   0  0  0  0  0  0  0  0  0  0  0  0
   23.9111   32.6334   58.3678 C   0  0  0  0  0  0  0  0  0  0  0  0
   22.6434   32.2299   58.7760 C   0  0  0  0  0  0  0  0  0  0  0  0
   21.5787   32.2132   57.8761 C   0  0  0  0  0  0  0  0  0  0  0  0
   20.1881   31.7866   58.3387 C   0  0  0  0  0  0  0  0  0  0  0  0
   19.8602   30.4029   57.9603 N   0  0  0  0  0  0  0  0  0  0  0  0
   19.3499   30.2301   56.6724 N   0  0  0  0  0  0  0  0  0  0  0  0
   19.0474   29.0660   56.1901 C   0  0  0  0  0  0  0  0  0  0  0  0
   19.3238   27.9262   57.0522 C   0  0  0  0  0  0  0  0  0  0  0  0
   19.8480   28.0844   58.2899 C   0  0  0  0  0  0  0  0  0  0  0  0
   20.1660   29.3879   58.8437 C   0  0  0  0  0  0  0  0  0  0  0  0
   20.6457   29.5266   59.9726 O   0  0  0  0  0  0  0  0  0  0  0  0
   18.4259   28.8961   54.8518 C   0  0  0  0  0  0  0  0  0  0  0  0
   18.2460   27.6349   54.2566 C   0  0  0  0  0  0  0  0  0  0  0  0
   17.5752   27.5079   53.0404 C   0  0  0  0  0  0  0  0  0  0  0  0
   17.3791   26.2837   52.5028 F   0  0  0  0  0  0  0  0  0  0  0  0
   17.0894   28.6363   52.3852 C   0  0  0  0  0  0  0  0  0  0  0  0
   17.2733   29.8953   52.9468 C   0  0  0  0  0  0  0  0  0  0  0  0
   16.7952   30.9967   52.3254 F   0  0  0  0  0  0  0  0  0  0  0  0
   17.9353   30.0226   54.1664 C   0  0  0  0  0  0  0  0  0  0  0  0
   21.8002   32.5881   56.5482 C   0  0  0  0  0  0  0  0  0  0  0  0
   22.2516   33.6272   51.1806 C   0  0  0  0  0  0  0  0  0  0  0  0
   25.1481   33.8186   52.1401 H   0  0  0  0  0  0  0  0  0  0  0  0
   22.8602   34.0138   56.2894 H   0  0  0  0  0  0  0  0  0  0  0  0
   25.1163   33.2919   56.7226 H   0  0  0  0  0  0  0  0  0  0  0  0
   24.7226   32.6720   59.0794 H   0  0  0  0  0  0  0  0  0  0  0  0
   22.4827   31.9267   59.8000 H   0  0  0  0  0  0  0  0  0  0  0  0
   20.1408   31.8718   59.4344 H   0  0  0  0  0  0  0  0  0  0  0  0
   19.4453   32.4600   57.8862 H   0  0  0  0  0  0  0  0  0  0  0  0
   19.1053   26.9304   56.6956 H   0  0  0  0  0  0  0  0  0  0  0  0
   20.0372   27.2061   58.8892 H   0  0  0  0  0  0  0  0  0  0  0  0
   18.6320   26.7537   54.7473 H   0  0  0  0  0  0  0  0  0  0  0  0
   16.5711   28.5342   51.4432 H   0  0  0  0  0  0  0  0  0  0  0  0
   18.0744   31.0047   54.5936 H   0  0  0  0  0  0  0  0  0  0  0  0
   21.1451   33.4497   56.3522 H   0  0  0  0  0  0  0  0  0  0  0  0
   21.4842   31.7381   55.9256 H   0  0  0  0  0  0  0  0  0  0  0  0
   21.1761   33.5300   51.1658 H   0  0  0  0  0  0  0  0  0  0  0  0
   22.7894   33.8154   50.2631 H   0  0  0  0  0  0  0  0  0  0  0  0
  1  2  1  0  0  0  0
  1  5  2  0  0  0  0
  2 28  2  0  0  0  0
  2  3  1  0  0  0  0
  3  4  2  0  0  0  0
  4  6  1  0  0  0  0
  4  5  1  0  0  0  0
  6  7  1  0  0  0  0
  6 27  1  0  0  0  0
  7  8  2  0  0  0  0
  8  9  1  0  0  0  0
  9 10  2  0  0  0  0
 10 11  1  0  0  0  0
 10 27  1  0  0  0  0
 11 12  1  0  0  0  0
 12 13  1  0  0  0  0
 12 17  1  0  0  0  0
 13 14  2  0  0  0  0
 14 15  1  0  0  0  0
 14 19  1  0  0  0  0
 15 16  2  0  0  0  0
 16 17  1  0  0  0  0
 17 18  2  0  0  0  0
 19 20  2  0  0  0  0
 19 26  1  0  0  0  0
 20 21  1  0  0  0  0
 21 22  1  0  0  0  0
 21 23  2  0  0  0  0
 23 24  1  0  0  0  0
 24 25  1  0  0  0  0
 24 26  2  0  0  0  0
  1 29  1  0  0  0  0
  6 30  1  0  0  0  0
  7 31  1  0  0  0  0
  8 32  1  0  0  0  0
  9 33  1  0  0  0  0
 11 34  1  0  0  0  0
 11 35  1  0  0  0  0
 15 36  1  0  0  0  0
 16 37  1  0  0  0  0
 20 38  1  0  0  0  0
 23 39  1  0  0  0  0
 26 40  1  0  0  0  0
 27 41  1  0  0  0  0
 27 42  1  0  0  0  0
 28 43  1  0  0  0  0
 28 44  1  0  0  0  0
M  END
> <s_user_Name>
CHEMBL3402748_5300

> <IC50[nM]>
5300

$$$$
CHEMBL3402748_5300
  -OEChem-05192314313D
 Structure written by MMmdl.
 44 47  0     0  0  0  0  0  0999 V2000
   24.3564   33.6113   52.8448 C   0  0  0  0  0  0  0  0  0  0  0  0
   23.0183   33.4975   52.5099 C   0  0  0  0  0  0  0  0  0  0  0  0
   22.3767   33.2602   53.6894 N   0  0  0  0  0  0  0  0  0  0  0  0
   23.3432   33.2295   54.6627 C   0  0  0  0  0  0  0  0  0  0  0  0
   24.5366   33.4320   54.1451 N   0  0  0  0  0  0  0  0  0  0  0  0
   23.0804   32.9514   56.1082 C   0  0  0  0  0  0  0  0  0  0  0  0
   24.1299   32.9871   57.0396 C   0  0  0  0  0  0  0  0  0  0  0  0
   23.9111   32.6334   58.3678 C   0  0  0  0  0  0  0  0  0  0  0  0
   22.6434   32.2299   58.7760 C   0  0  0  0  0  0  0  0  0  0  0  0
   21.5787   32.2132   57.8761 C   0  0  0  0  0  0  0  0  0  0  0  0
   20.1881   31.7866   58.3387 C   0  0  0  0  0  0  0  0  0  0  0  0
   19.8602   30.4029   57.9603 N   0  0  0  0  0  0  0  0  0  0  0  0
   19.3499   30.2301   56.6724 N   0  0  0  0  0  0  0  0  0  0  0  0
   19.0474   29.0660   56.1901 C   0  0  0  0  0  0  0  0  0  0  0  0
   19.3238   27.9262   57.0522 C   0  0  0  0  0  0  0  0  0  0  0  0
   19.8480   28.0844   58.2899 C   0  0  0  0  0  0  0  0  0  0  0  0
   20.1660   29.3879   58.8437 C   0  0  0  0  0  0  0  0  0  0  0  0
   20.6457   29.5266   59.9726 O   0  0  0  0  0  0  0  0  0  0  0  0
   18.4259   28.8961   54.8518 C   0  0  0  0  0  0  0  0  0  0  0  0
   18.2460   27.6349   54.2566 C   0  0  0  0  0  0  0  0  0  0  0  0
   17.5752   27.5079   53.0404 C   0  0  0  0  0  0  0  0  0  0  0  0
   17.3791   26.2837   52.5028 F   0  0  0  0  0  0  0  0  0  0  0  0
   17.0894   28.6363   52.3852 C   0  0  0  0  0  0  0  0  0  0  0  0
   17.2733   29.8953   52.9468 C   0  0  0  0  0  0  0  0  0  0  0  0
   16.7952   30.9967   52.3254 F   0  0  0  0  0  0  0  0  0  0  0  0
   17.9353   30.0226   54.1664 C   0  0  0  0  0  0  0  0  0  0  0  0
   21.8002   32.5881   56.5482 C   0  0  0  0  0  0  0  0  0  0  0  0
   22.2516   33.6272   51.1806 C   0  0  0  0  0  0  0  0  0  0  0  0
   25.1481   33.8186   52.1401 H   0  0  0  0  0  0  0  0  0  0  0  0
   25.1163   33.2919   56.7226 H   0  0  0  0  0  0  0  0  0  0  0  0
   24.5975   31.8041   58.5938 H   0  0  0  0  0  0  0  0  0  0  0  0
   24.1791   33.5081   58.9787 H   0  0  0  0  0  0  0  0  0  0  0  0
   22.4827   31.9267   59.8000 H   0  0  0  0  0  0  0  0  0  0  0  0
   20.1408   31.8718   59.4344 H   0  0  0  0  0  0  0  0  0  0  0  0
   19.4453   32.4600   57.8862 H   0  0  0  0  0  0  0  0  0  0  0  0
   19.1053   26.9304   56.6956 H   0  0  0  0  0  0  0  0  0  0  0  0
   20.0372   27.2061   58.8892 H   0  0  0  0  0  0  0  0  0  0  0  0
   18.6320   26.7537   54.7473 H   0  0  0  0  0  0  0  0  0  0  0  0
   16.5711   28.5342   51.4432 H   0  0  0  0  0  0  0  0  0  0  0  0
   18.0744   31.0047   54.5936 H   0  0  0  0  0  0  0  0  0  0  0  0
   21.1451   33.4497   56.3522 H   0  0  0  0  0  0  0  0  0  0  0  0
   21.4842   31.7381   55.9256 H   0  0  0  0  0  0  0  0  0  0  0  0
   21.1761   33.5300   51.1658 H   0  0  0  0  0  0  0  0  0  0  0  0
   22.7894   33.8154   50.2631 H   0  0  0  0  0  0  0  0  0  0  0  0
  1  2  1  0  0  0  0
  1  5  2  0  0  0  0
  2 28  2  0  0  0  0
  2  3  1  0  0  0  0
  3  4  2  0  0  0  0
  4  6  1  0  0  0  0
  4  5  1  0  0  0  0
  6  7  2  0  0  0  0
  6 27  1  0  0  0  0
  7  8  1  0  0  0  0
  8  9  1  0  0  0  0
  9 10  2  0  0  0  0
 10 11  1  0  0  0  0
 10 27  1  0  0  0  0
 11 12  1  0  0  0  0
 12 13  1  0  0  0  0
 12 17  1  0  0  0  0
 13 14  2  0  0  0  0
 14 15  1  0  0  0  0
 14 19  1  0  0  0  0
 15 16  2  0  0  0  0
 16 17  1  0  0  0  0
 17 18  2  0  0  0  0
 19 20  2  0  0  0  0
 19 26  1  0  0  0  0
 20 21  1  0  0  0  0
 21 22  1  0  0  0  0
 21 23  2  0  0  0  0
 23 24  1  0  0  0  0
 24 25  1  0  0  0  0
 24 26  2  0  0  0  0
  1 29  1  0  0  0  0
  7 30  1  0  0  0  0
  8 31  1  0  0  0  0
  8 32  1  0  0  0  0
  9 33  1  0  0  0  0
 11 34  1  0  0  0  0
 11 35  1  0  0  0  0
 15 36  1  0  0  0  0
 16 37  1  0  0  0  0
 20 38  1  0  0  0  0
 23 39  1  0  0  0  0
 26 40  1  0  0  0  0
 27 41  1  0  0  0  0
 27 42  1  0  0  0  0
 28 43  1  0  0  0  0
 28 44  1  0  0  0  0
M  END
> <s_user_Name>
CHEMBL3402748_5300

> <IC50[nM]>
5300

$$$$
