CHEMBL3402763_90
  -OEChem-05192314313D
 Structure written by MMmdl.
 62 64  0     0  0  0  0  0  0999 V2000
   24.4727   31.0016   48.0036 C   0  0  0  0  0  0  0  0  0  0  0  0
   24.5300   32.4421   47.4625 C   0  0  0  0  0  0  0  0  0  0  0  0
   25.8471   33.1263   47.9174 N   0  0  0  0  0  0  0  0  0  0  0  0
   26.5582   33.8236   46.7267 C   0  0  0  0  0  0  0  0  0  0  0  0
   27.9680   34.3135   47.0983 C   0  0  0  0  0  0  0  0  0  0  0  0
   25.7037   34.0574   49.1505 C   0  0  0  0  0  0  0  0  0  0  0  0
   25.0196   33.3694   50.3406 C   0  0  0  0  0  0  0  0  0  0  0  0
   25.1207   34.2204   51.6096 C   0  0  0  0  0  0  0  0  0  0  0  0
   24.2089   33.7070   52.5694 O   0  0  0  0  0  0  0  0  0  0  0  0
   24.4274   33.8425   53.8818 C   0  0  0  0  0  0  0  0  0  0  0  0
   25.4468   34.3262   54.3758 O   0  0  0  0  0  0  0  0  0  0  0  0
   23.3143   33.3489   54.5431 N   0  0  0  0  0  0  0  0  0  0  0  0
   23.1199   33.0979   55.9090 C   0  0  0  0  0  0  0  0  0  0  0  0
   24.1414   33.1258   56.8692 C   0  0  0  0  0  0  0  0  0  0  0  0
   23.8696   32.7659   58.1897 C   0  0  0  0  0  0  0  0  0  0  0  0
   22.5879   32.3615   58.5569 C   0  0  0  0  0  0  0  0  0  0  0  0
   21.5635   32.3202   57.6077 C   0  0  0  0  0  0  0  0  0  0  0  0
   20.1562   31.8850   58.0078 C   0  0  0  0  0  0  0  0  0  0  0  0
   19.8644   30.4717   57.6936 N   0  0  0  0  0  0  0  0  0  0  0  0
   19.3890   30.2278   56.4402 N   0  0  0  0  0  0  0  0  0  0  0  0
   19.0442   29.0918   55.9519 C   0  0  0  0  0  0  0  0  0  0  0  0
   19.2131   27.7463   56.6825 C   0  0  0  0  0  0  0  0  0  0  0  0
   19.8987   27.7561   58.3757 S   0  0  0  0  0  0  0  0  0  0  0  0
   20.1827   29.5317   58.6864 C   0  0  0  0  0  0  0  0  0  0  0  0
   20.6467   29.8222   59.7923 O   0  0  0  0  0  0  0  0  0  0  0  0
   18.4155   29.0391   54.5996 C   0  0  0  0  0  0  0  0  0  0  0  0
   17.9456   30.2139   53.9817 C   0  0  0  0  0  0  0  0  0  0  0  0
   17.3441   30.1691   52.7261 C   0  0  0  0  0  0  0  0  0  0  0  0
   17.2051   28.9511   52.0696 C   0  0  0  0  0  0  0  0  0  0  0  0
   16.4736   28.8975   50.5073 Cl  0  0  0  0  0  0  0  0  0  0  0  0
   17.6526   27.7758   52.6640 C   0  0  0  0  0  0  0  0  0  0  0  0
   18.2471   27.8189   53.9222 C   0  0  0  0  0  0  0  0  0  0  0  0
   21.8327   32.7061   56.2913 C   0  0  0  0  0  0  0  0  0  0  0  0
   23.5372   30.5237   47.6773 H   0  0  0  0  0  0  0  0  0  0  0  0
   25.3300   30.4307   47.6175 H   0  0  0  0  0  0  0  0  0  0  0  0
   24.5103   31.0212   49.1028 H   0  0  0  0  0  0  0  0  0  0  0  0
   24.4911   32.4205   46.3634 H   0  0  0  0  0  0  0  0  0  0  0  0
   23.6714   33.0110   47.8487 H   0  0  0  0  0  0  0  0  0  0  0  0
   26.6394   33.1087   45.8947 H   0  0  0  0  0  0  0  0  0  0  0  0
   25.9549   34.6873   46.4104 H   0  0  0  0  0  0  0  0  0  0  0  0
   28.4299   34.7988   46.2259 H   0  0  0  0  0  0  0  0  0  0  0  0
   27.8990   35.0353   47.9254 H   0  0  0  0  0  0  0  0  0  0  0  0
   28.5835   33.4567   47.4097 H   0  0  0  0  0  0  0  0  0  0  0  0
   26.7067   34.3839   49.4626 H   0  0  0  0  0  0  0  0  0  0  0  0
   25.1062   34.9344   48.8608 H   0  0  0  0  0  0  0  0  0  0  0  0
   23.9582   33.2096   50.1002 H   0  0  0  0  0  0  0  0  0  0  0  0
   25.5050   32.3988   50.5206 H   0  0  0  0  0  0  0  0  0  0  0  0
   26.1449   34.1726   52.0079 H   0  0  0  0  0  0  0  0  0  0  0  0
   24.8660   35.2650   51.3773 H   0  0  0  0  0  0  0  0  0  0  0  0
   22.5310   33.1400   53.9576 H   0  0  0  0  0  0  0  0  0  0  0  0
   25.1395   33.4261   56.5864 H   0  0  0  0  0  0  0  0  0  0  0  0
   24.6555   32.8009   58.9297 H   0  0  0  0  0  0  0  0  0  0  0  0
   22.3854   32.0788   59.5794 H   0  0  0  0  0  0  0  0  0  0  0  0
   20.0416   32.0314   59.0920 H   0  0  0  0  0  0  0  0  0  0  0  0
   19.4314   32.5171   57.4739 H   0  0  0  0  0  0  0  0  0  0  0  0
   18.2188   27.2790   56.7371 H   0  0  0  0  0  0  0  0  0  0  0  0
   19.8778   27.1230   56.0663 H   0  0  0  0  0  0  0  0  0  0  0  0
   18.0529   31.1619   54.4878 H   0  0  0  0  0  0  0  0  0  0  0  0
   16.9868   31.0775   52.2639 H   0  0  0  0  0  0  0  0  0  0  0  0
   17.5392   26.8323   52.1508 H   0  0  0  0  0  0  0  0  0  0  0  0
   18.5835   26.9024   54.3841 H   0  0  0  0  0  0  0  0  0  0  0  0
   21.0373   32.7017   55.5607 H   0  0  0  0  0  0  0  0  0  0  0  0
  1  2  1  0  0  0  0
  2  3  1  0  0  0  0
  3  4  1  0  0  0  0
  3  6  1  0  0  0  0
  4  5  1  0  0  0  0
  6  7  1  0  0  0  0
  7  8  1  0  0  0  0
  8  9  1  0  0  0  0
  9 10  1  0  0  0  0
 10 11  2  0  0  0  0
 10 12  1  0  0  0  0
 12 13  1  0  0  0  0
 13 14  2  0  0  0  0
 13 33  1  0  0  0  0
 14 15  1  0  0  0  0
 15 16  2  0  0  0  0
 16 17  1  0  0  0  0
 17 18  1  0  0  0  0
 17 33  2  0  0  0  0
 18 19  1  0  0  0  0
 19 20  1  0  0  0  0
 19 24  1  0  0  0  0
 20 21  2  0  0  0  0
 21 22  1  0  0  0  0
 21 26  1  0  0  0  0
 22 23  1  0  0  0  0
 23 24  1  0  0  0  0
 24 25  2  0  0  0  0
 26 27  2  0  0  0  0
 26 32  1  0  0  0  0
 27 28  1  0  0  0  0
 28 29  2  0  0  0  0
 29 30  1  0  0  0  0
 29 31  1  0  0  0  0
 31 32  2  0  0  0  0
  1 34  1  0  0  0  0
  1 35  1  0  0  0  0
  1 36  1  0  0  0  0
  2 37  1  0  0  0  0
  2 38  1  0  0  0  0
  4 39  1  0  0  0  0
  4 40  1  0  0  0  0
  5 41  1  0  0  0  0
  5 42  1  0  0  0  0
  5 43  1  0  0  0  0
  6 44  1  0  0  0  0
  6 45  1  0  0  0  0
  7 46  1  0  0  0  0
  7 47  1  0  0  0  0
  8 48  1  0  0  0  0
  8 49  1  0  0  0  0
 12 50  1  0  0  0  0
 14 51  1  0  0  0  0
 15 52  1  0  0  0  0
 16 53  1  0  0  0  0
 18 54  1  0  0  0  0
 18 55  1  0  0  0  0
 22 56  1  0  0  0  0
 22 57  1  0  0  0  0
 27 58  1  0  0  0  0
 28 59  1  0  0  0  0
 31 60  1  0  0  0  0
 32 61  1  0  0  0  0
 33 62  1  0  0  0  0
M  END
> <s_user_Name>
CHEMBL3402763_90

> <IC50[nM]>
90

$$$$
CHEMBL3402763_90
  -OEChem-05192314313D
 Structure written by MMmdl.
 62 64  0     0  0  0  0  0  0999 V2000
   24.4727   31.0016   48.0036 C   0  0  0  0  0  0  0  0  0  0  0  0
   24.5300   32.4421   47.4625 C   0  0  0  0  0  0  0  0  0  0  0  0
   25.8471   33.1263   47.9174 N   0  0  0  0  0  0  0  0  0  0  0  0
   26.5582   33.8236   46.7267 C   0  0  0  0  0  0  0  0  0  0  0  0
   27.9680   34.3135   47.0983 C   0  0  0  0  0  0  0  0  0  0  0  0
   25.7037   34.0574   49.1505 C   0  0  0  0  0  0  0  0  0  0  0  0
   25.0196   33.3694   50.3406 C   0  0  0  0  0  0  0  0  0  0  0  0
   25.1207   34.2204   51.6096 C   0  0  0  0  0  0  0  0  0  0  0  0
   24.2089   33.7070   52.5694 O   0  0  0  0  0  0  0  0  0  0  0  0
   24.4274   33.8425   53.8818 C   0  0  0  0  0  0  0  0  0  0  0  0
   25.4468   34.3262   54.3758 O   0  0  0  0  0  0  0  0  0  0  0  0
   23.3143   33.3489   54.5431 N   0  0  0  0  0  0  0  0  0  0  0  0
   23.1199   33.0979   55.9090 C   0  0  0  0  0  0  0  0  0  0  0  0
   24.1414   33.1258   56.8692 C   0  0  0  0  0  0  0  0  0  0  0  0
   23.8696   32.7659   58.1897 C   0  0  0  0  0  0  0  0  0  0  0  0
   22.5879   32.3615   58.5569 C   0  0  0  0  0  0  0  0  0  0  0  0
   21.5635   32.3202   57.6077 C   0  0  0  0  0  0  0  0  0  0  0  0
   20.1562   31.8850   58.0078 C   0  0  0  0  0  0  0  0  0  0  0  0
   19.8644   30.4717   57.6936 N   0  0  0  0  0  0  0  0  0  0  0  0
   19.3890   30.2278   56.4402 N   0  0  0  0  0  0  0  0  0  0  0  0
   19.0442   29.0918   55.9519 C   0  0  0  0  0  0  0  0  0  0  0  0
   19.2131   27.7463   56.6825 C   0  0  0  0  0  0  0  0  0  0  0  0
   19.8987   27.7561   58.3757 S   0  0  0  0  0  0  0  0  0  0  0  0
   20.1827   29.5317   58.6864 C   0  0  0  0  0  0  0  0  0  0  0  0
   20.6467   29.8222   59.7923 O   0  0  0  0  0  0  0  0  0  0  0  0
   18.4155   29.0391   54.5996 C   0  0  0  0  0  0  0  0  0  0  0  0
   17.9456   30.2139   53.9817 C   0  0  0  0  0  0  0  0  0  0  0  0
   17.3441   30.1691   52.7261 C   0  0  0  0  0  0  0  0  0  0  0  0
   17.2051   28.9511   52.0696 C   0  0  0  0  0  0  0  0  0  0  0  0
   16.4736   28.8975   50.5073 Cl  0  0  0  0  0  0  0  0  0  0  0  0
   17.6526   27.7758   52.6640 C   0  0  0  0  0  0  0  0  0  0  0  0
   18.2471   27.8189   53.9222 C   0  0  0  0  0  0  0  0  0  0  0  0
   21.8327   32.7061   56.2913 C   0  0  0  0  0  0  0  0  0  0  0  0
   23.5372   30.5237   47.6773 H   0  0  0  0  0  0  0  0  0  0  0  0
   25.3300   30.4307   47.6175 H   0  0  0  0  0  0  0  0  0  0  0  0
   24.5103   31.0212   49.1028 H   0  0  0  0  0  0  0  0  0  0  0  0
   24.4911   32.4205   46.3634 H   0  0  0  0  0  0  0  0  0  0  0  0
   23.6714   33.0110   47.8487 H   0  0  0  0  0  0  0  0  0  0  0  0
   26.6394   33.1087   45.8947 H   0  0  0  0  0  0  0  0  0  0  0  0
   25.9549   34.6873   46.4104 H   0  0  0  0  0  0  0  0  0  0  0  0
   28.4299   34.7988   46.2259 H   0  0  0  0  0  0  0  0  0  0  0  0
   27.8990   35.0353   47.9254 H   0  0  0  0  0  0  0  0  0  0  0  0
   28.5835   33.4567   47.4097 H   0  0  0  0  0  0  0  0  0  0  0  0
   26.7067   34.3839   49.4626 H   0  0  0  0  0  0  0  0  0  0  0  0
   25.1062   34.9344   48.8608 H   0  0  0  0  0  0  0  0  0  0  0  0
   23.9582   33.2096   50.1002 H   0  0  0  0  0  0  0  0  0  0  0  0
   25.5050   32.3988   50.5206 H   0  0  0  0  0  0  0  0  0  0  0  0
   26.1449   34.1726   52.0079 H   0  0  0  0  0  0  0  0  0  0  0  0
   24.8660   35.2650   51.3773 H   0  0  0  0  0  0  0  0  0  0  0  0
   25.3749   34.3180   55.3230 H   0  0  0  0  0  0  0  0  0  0  0  0
   25.1395   33.4261   56.5864 H   0  0  0  0  0  0  0  0  0  0  0  0
   24.6555   32.8009   58.9297 H   0  0  0  0  0  0  0  0  0  0  0  0
   22.3854   32.0788   59.5794 H   0  0  0  0  0  0  0  0  0  0  0  0
   20.0416   32.0314   59.0920 H   0  0  0  0  0  0  0  0  0  0  0  0
   19.4314   32.5171   57.4739 H   0  0  0  0  0  0  0  0  0  0  0  0
   18.2188   27.2790   56.7371 H   0  0  0  0  0  0  0  0  0  0  0  0
   19.8778   27.1230   56.0663 H   0  0  0  0  0  0  0  0  0  0  0  0
   18.0529   31.1619   54.4878 H   0  0  0  0  0  0  0  0  0  0  0  0
   16.9868   31.0775   52.2639 H   0  0  0  0  0  0  0  0  0  0  0  0
   17.5392   26.8323   52.1508 H   0  0  0  0  0  0  0  0  0  0  0  0
   18.5835   26.9024   54.3841 H   0  0  0  0  0  0  0  0  0  0  0  0
   21.0373   32.7017   55.5607 H   0  0  0  0  0  0  0  0  0  0  0  0
  1  2  1  0  0  0  0
  2  3  1  0  0  0  0
  3  4  1  0  0  0  0
  3  6  1  0  0  0  0
  4  5  1  0  0  0  0
  6  7  1  0  0  0  0
  7  8  1  0  0  0  0
  8  9  1  0  0  0  0
  9 10  1  0  0  0  0
 10 11  1  0  0  0  0
 10 12  2  0  0  0  0
 12 13  1  0  0  0  0
 13 14  2  0  0  0  0
 13 33  1  0  0  0  0
 14 15  1  0  0  0  0
 15 16  2  0  0  0  0
 16 17  1  0  0  0  0
 17 18  1  0  0  0  0
 17 33  2  0  0  0  0
 18 19  1  0  0  0  0
 19 20  1  0  0  0  0
 19 24  1  0  0  0  0
 20 21  2  0  0  0  0
 21 22  1  0  0  0  0
 21 26  1  0  0  0  0
 22 23  1  0  0  0  0
 23 24  1  0  0  0  0
 24 25  2  0  0  0  0
 26 27  2  0  0  0  0
 26 32  1  0  0  0  0
 27 28  1  0  0  0  0
 28 29  2  0  0  0  0
 29 30  1  0  0  0  0
 29 31  1  0  0  0  0
 31 32  2  0  0  0  0
  1 34  1  0  0  0  0
  1 35  1  0  0  0  0
  1 36  1  0  0  0  0
  2 37  1  0  0  0  0
  2 38  1  0  0  0  0
  4 39  1  0  0  0  0
  4 40  1  0  0  0  0
  5 41  1  0  0  0  0
  5 42  1  0  0  0  0
  5 43  1  0  0  0  0
  6 44  1  0  0  0  0
  6 45  1  0  0  0  0
  7 46  1  0  0  0  0
  7 47  1  0  0  0  0
  8 48  1  0  0  0  0
  8 49  1  0  0  0  0
 11 50  1  0  0  0  0
 14 51  1  0  0  0  0
 15 52  1  0  0  0  0
 16 53  1  0  0  0  0
 18 54  1  0  0  0  0
 18 55  1  0  0  0  0
 22 56  1  0  0  0  0
 22 57  1  0  0  0  0
 27 58  1  0  0  0  0
 28 59  1  0  0  0  0
 31 60  1  0  0  0  0
 32 61  1  0  0  0  0
 33 62  1  0  0  0  0
M  END
> <s_user_Name>
CHEMBL3402763_90

> <IC50[nM]>
90

$$$$
CHEMBL3402763_90
  -OEChem-05192314313D
 Structure written by MMmdl.
 62 64  0     0  0  0  0  0  0999 V2000
   24.4727   31.0016   48.0036 C   0  0  0  0  0  0  0  0  0  0  0  0
   24.5300   32.4421   47.4625 C   0  0  0  0  0  0  0  0  0  0  0  0
   25.8471   33.1263   47.9174 N   0  0  0  0  0  0  0  0  0  0  0  0
   26.5582   33.8236   46.7267 C   0  0  0  0  0  0  0  0  0  0  0  0
   27.9680   34.3135   47.0983 C   0  0  0  0  0  0  0  0  0  0  0  0
   25.7037   34.0574   49.1505 C   0  0  0  0  0  0  0  0  0  0  0  0
   25.0196   33.3694   50.3406 C   0  0  0  0  0  0  0  0  0  0  0  0
   25.1207   34.2204   51.6096 C   0  0  0  0  0  0  0  0  0  0  0  0
   24.2089   33.7070   52.5694 O   0  0  0  0  0  0  0  0  0  0  0  0
   24.4274   33.8425   53.8818 C   0  0  0  0  0  0  0  0  0  0  0  0
   25.4468   34.3262   54.3758 O   0  0  0  0  0  0  0  0  0  0  0  0
   23.3143   33.3489   54.5431 N   0  0  0  0  0  0  0  0  0  0  0  0
   23.1199   33.0979   55.9090 C   0  0  0  0  0  0  0  0  0  0  0  0
   24.1414   33.1258   56.8692 C   0  0  0  0  0  0  0  0  0  0  0  0
   23.8696   32.7659   58.1897 C   0  0  0  0  0  0  0  0  0  0  0  0
   22.5879   32.3615   58.5569 C   0  0  0  0  0  0  0  0  0  0  0  0
   21.5635   32.3202   57.6077 C   0  0  0  0  0  0  0  0  0  0  0  0
   20.1562   31.8850   58.0078 C   0  0  0  0  0  0  0  0  0  0  0  0
   19.8644   30.4717   57.6936 N   0  0  0  0  0  0  0  0  0  0  0  0
   19.3890   30.2278   56.4402 N   0  0  0  0  0  0  0  0  0  0  0  0
   19.0442   29.0918   55.9519 C   0  0  0  0  0  0  0  0  0  0  0  0
   19.2131   27.7463   56.6825 C   0  0  0  0  0  0  0  0  0  0  0  0
   19.8987   27.7561   58.3757 S   0  0  0  0  0  0  0  0  0  0  0  0
   20.1827   29.5317   58.6864 C   0  0  0  0  0  0  0  0  0  0  0  0
   20.6467   29.8222   59.7923 O   0  0  0  0  0  0  0  0  0  0  0  0
   18.4155   29.0391   54.5996 C   0  0  0  0  0  0  0  0  0  0  0  0
   17.9456   30.2139   53.9817 C   0  0  0  0  0  0  0  0  0  0  0  0
   17.3441   30.1691   52.7261 C   0  0  0  0  0  0  0  0  0  0  0  0
   17.2051   28.9511   52.0696 C   0  0  0  0  0  0  0  0  0  0  0  0
   16.4736   28.8975   50.5073 Cl  0  0  0  0  0  0  0  0  0  0  0  0
   17.6526   27.7758   52.6640 C   0  0  0  0  0  0  0  0  0  0  0  0
   18.2471   27.8189   53.9222 C   0  0  0  0  0  0  0  0  0  0  0  0
   21.8327   32.7061   56.2913 C   0  0  0  0  0  0  0  0  0  0  0  0
   23.5372   30.5237   47.6773 H   0  0  0  0  0  0  0  0  0  0  0  0
   25.3300   30.4307   47.6175 H   0  0  0  0  0  0  0  0  0  0  0  0
   24.5103   31.0212   49.1028 H   0  0  0  0  0  0  0  0  0  0  0  0
   24.4911   32.4205   46.3634 H   0  0  0  0  0  0  0  0  0  0  0  0
   23.6714   33.0110   47.8487 H   0  0  0  0  0  0  0  0  0  0  0  0
   26.6394   33.1087   45.8947 H   0  0  0  0  0  0  0  0  0  0  0  0
   25.9549   34.6873   46.4104 H   0  0  0  0  0  0  0  0  0  0  0  0
   28.4299   34.7988   46.2259 H   0  0  0  0  0  0  0  0  0  0  0  0
   27.8990   35.0353   47.9254 H   0  0  0  0  0  0  0  0  0  0  0  0
   28.5835   33.4567   47.4097 H   0  0  0  0  0  0  0  0  0  0  0  0
   26.7067   34.3839   49.4626 H   0  0  0  0  0  0  0  0  0  0  0  0
   25.1062   34.9344   48.8608 H   0  0  0  0  0  0  0  0  0  0  0  0
   23.9582   33.2096   50.1002 H   0  0  0  0  0  0  0  0  0  0  0  0
   25.5050   32.3988   50.5206 H   0  0  0  0  0  0  0  0  0  0  0  0
   26.1449   34.1726   52.0079 H   0  0  0  0  0  0  0  0  0  0  0  0
   24.8660   35.2650   51.3773 H   0  0  0  0  0  0  0  0  0  0  0  0
   22.5310   33.1400   53.9576 H   0  0  0  0  0  0  0  0  0  0  0  0
   25.1395   33.4261   56.5864 H   0  0  0  0  0  0  0  0  0  0  0  0
   24.6555   32.8009   58.9297 H   0  0  0  0  0  0  0  0  0  0  0  0
   22.3854   32.0788   59.5794 H   0  0  0  0  0  0  0  0  0  0  0  0
   20.0416   32.0314   59.0920 H   0  0  0  0  0  0  0  0  0  0  0  0
   19.4314   32.5171   57.4739 H   0  0  0  0  0  0  0  0  0  0  0  0
   18.5742   30.8016   56.3576 H   0  0  0  0  0  0  0  0  0  0  0  0
   18.9328   26.8190   56.2050 H   0  0  0  0  0  0  0  0  0  0  0  0
   18.0529   31.1619   54.4878 H   0  0  0  0  0  0  0  0  0  0  0  0
   16.9868   31.0775   52.2639 H   0  0  0  0  0  0  0  0  0  0  0  0
   17.5392   26.8323   52.1508 H   0  0  0  0  0  0  0  0  0  0  0  0
   18.5835   26.9024   54.3841 H   0  0  0  0  0  0  0  0  0  0  0  0
   21.0373   32.7017   55.5607 H   0  0  0  0  0  0  0  0  0  0  0  0
  1  2  1  0  0  0  0
  2  3  1  0  0  0  0
  3  4  1  0  0  0  0
  3  6  1  0  0  0  0
  4  5  1  0  0  0  0
  6  7  1  0  0  0  0
  7  8  1  0  0  0  0
  8  9  1  0  0  0  0
  9 10  1  0  0  0  0
 10 11  2  0  0  0  0
 10 12  1  0  0  0  0
 12 13  1  0  0  0  0
 13 14  2  0  0  0  0
 13 33  1  0  0  0  0
 14 15  1  0  0  0  0
 15 16  2  0  0  0  0
 16 17  1  0  0  0  0
 17 18  1  0  0  0  0
 17 33  2  0  0  0  0
 18 19  1  0  0  0  0
 19 20  1  0  0  0  0
 19 24  1  0  0  0  0
 20 21  1  0  0  0  0
 21 22  2  0  0  0  0
 21 26  1  0  0  0  0
 22 23  1  0  0  0  0
 23 24  1  0  0  0  0
 24 25  2  0  0  0  0
 26 27  2  0  0  0  0
 26 32  1  0  0  0  0
 27 28  1  0  0  0  0
 28 29  2  0  0  0  0
 29 30  1  0  0  0  0
 29 31  1  0  0  0  0
 31 32  2  0  0  0  0
  1 34  1  0  0  0  0
  1 35  1  0  0  0  0
  1 36  1  0  0  0  0
  2 37  1  0  0  0  0
  2 38  1  0  0  0  0
  4 39  1  0  0  0  0
  4 40  1  0  0  0  0
  5 41  1  0  0  0  0
  5 42  1  0  0  0  0
  5 43  1  0  0  0  0
  6 44  1  0  0  0  0
  6 45  1  0  0  0  0
  7 46  1  0  0  0  0
  7 47  1  0  0  0  0
  8 48  1  0  0  0  0
  8 49  1  0  0  0  0
 12 50  1  0  0  0  0
 14 51  1  0  0  0  0
 15 52  1  0  0  0  0
 16 53  1  0  0  0  0
 18 54  1  0  0  0  0
 18 55  1  0  0  0  0
 20 56  1  0  0  0  0
 22 57  1  0  0  0  0
 27 58  1  0  0  0  0
 28 59  1  0  0  0  0
 31 60  1  0  0  0  0
 32 61  1  0  0  0  0
 33 62  1  0  0  0  0
M  END
> <s_user_Name>
CHEMBL3402763_90

> <IC50[nM]>
90

$$$$
CHEMBL3402763_90
  -OEChem-05192314313D
 Structure written by MMmdl.
 62 64  0     0  0  0  0  0  0999 V2000
   24.4727   31.0016   48.0036 C   0  0  0  0  0  0  0  0  0  0  0  0
   24.5300   32.4421   47.4625 C   0  0  0  0  0  0  0  0  0  0  0  0
   25.8471   33.1263   47.9174 N   0  0  0  0  0  0  0  0  0  0  0  0
   26.5582   33.8236   46.7267 C   0  0  0  0  0  0  0  0  0  0  0  0
   27.9680   34.3135   47.0983 C   0  0  0  0  0  0  0  0  0  0  0  0
   25.7037   34.0574   49.1505 C   0  0  0  0  0  0  0  0  0  0  0  0
   25.0196   33.3694   50.3406 C   0  0  0  0  0  0  0  0  0  0  0  0
   25.1207   34.2204   51.6096 C   0  0  0  0  0  0  0  0  0  0  0  0
   24.2089   33.7070   52.5694 O   0  0  0  0  0  0  0  0  0  0  0  0
   24.4274   33.8425   53.8818 C   0  0  0  0  0  0  0  0  0  0  0  0
   25.4468   34.3262   54.3758 O   0  0  0  0  0  0  0  0  0  0  0  0
   23.3143   33.3489   54.5431 N   0  0  0  0  0  0  0  0  0  0  0  0
   23.1199   33.0979   55.9090 C   0  0  0  0  0  0  0  0  0  0  0  0
   24.1414   33.1258   56.8692 C   0  0  0  0  0  0  0  0  0  0  0  0
   23.8696   32.7659   58.1897 C   0  0  0  0  0  0  0  0  0  0  0  0
   22.5879   32.3615   58.5569 C   0  0  0  0  0  0  0  0  0  0  0  0
   21.5635   32.3202   57.6077 C   0  0  0  0  0  0  0  0  0  0  0  0
   20.1562   31.8850   58.0078 C   0  0  0  0  0  0  0  0  0  0  0  0
   19.8644   30.4717   57.6936 N   0  0  0  0  0  0  0  0  0  0  0  0
   19.3890   30.2278   56.4402 N   0  0  0  0  0  0  0  0  0  0  0  0
   19.0442   29.0918   55.9519 C   0  0  0  0  0  0  0  0  0  0  0  0
   19.2131   27.7463   56.6825 C   0  0  0  0  0  0  0  0  0  0  0  0
   19.8987   27.7561   58.3757 S   0  0  0  0  0  0  0  0  0  0  0  0
   20.1827   29.5317   58.6864 C   0  0  0  0  0  0  0  0  0  0  0  0
   20.6467   29.8222   59.7923 O   0  0  0  0  0  0  0  0  0  0  0  0
   18.4155   29.0391   54.5996 C   0  0  0  0  0  0  0  0  0  0  0  0
   17.9456   30.2139   53.9817 C   0  0  0  0  0  0  0  0  0  0  0  0
   17.3441   30.1691   52.7261 C   0  0  0  0  0  0  0  0  0  0  0  0
   17.2051   28.9511   52.0696 C   0  0  0  0  0  0  0  0  0  0  0  0
   16.4736   28.8975   50.5073 Cl  0  0  0  0  0  0  0  0  0  0  0  0
   17.6526   27.7758   52.6640 C   0  0  0  0  0  0  0  0  0  0  0  0
   18.2471   27.8189   53.9222 C   0  0  0  0  0  0  0  0  0  0  0  0
   21.8327   32.7061   56.2913 C   0  0  0  0  0  0  0  0  0  0  0  0
   23.5372   30.5237   47.6773 H   0  0  0  0  0  0  0  0  0  0  0  0
   25.3300   30.4307   47.6175 H   0  0  0  0  0  0  0  0  0  0  0  0
   24.5103   31.0212   49.1028 H   0  0  0  0  0  0  0  0  0  0  0  0
   24.4911   32.4205   46.3634 H   0  0  0  0  0  0  0  0  0  0  0  0
   23.6714   33.0110   47.8487 H   0  0  0  0  0  0  0  0  0  0  0  0
   26.6394   33.1087   45.8947 H   0  0  0  0  0  0  0  0  0  0  0  0
   25.9549   34.6873   46.4104 H   0  0  0  0  0  0  0  0  0  0  0  0
   28.4299   34.7988   46.2259 H   0  0  0  0  0  0  0  0  0  0  0  0
   27.8990   35.0353   47.9254 H   0  0  0  0  0  0  0  0  0  0  0  0
   28.5835   33.4567   47.4097 H   0  0  0  0  0  0  0  0  0  0  0  0
   26.7067   34.3839   49.4626 H   0  0  0  0  0  0  0  0  0  0  0  0
   25.1062   34.9344   48.8608 H   0  0  0  0  0  0  0  0  0  0  0  0
   23.9582   33.2096   50.1002 H   0  0  0  0  0  0  0  0  0  0  0  0
   25.5050   32.3988   50.5206 H   0  0  0  0  0  0  0  0  0  0  0  0
   26.1449   34.1726   52.0079 H   0  0  0  0  0  0  0  0  0  0  0  0
   24.8660   35.2650   51.3773 H   0  0  0  0  0  0  0  0  0  0  0  0
   25.3749   34.3180   55.3230 H   0  0  0  0  0  0  0  0  0  0  0  0
   25.1395   33.4261   56.5864 H   0  0  0  0  0  0  0  0  0  0  0  0
   24.6555   32.8009   58.9297 H   0  0  0  0  0  0  0  0  0  0  0  0
   22.3854   32.0788   59.5794 H   0  0  0  0  0  0  0  0  0  0  0  0
   20.0416   32.0314   59.0920 H   0  0  0  0  0  0  0  0  0  0  0  0
   19.4314   32.5171   57.4739 H   0  0  0  0  0  0  0  0  0  0  0  0
   18.5742   30.8016   56.3576 H   0  0  0  0  0  0  0  0  0  0  0  0
   18.9328   26.8190   56.2050 H   0  0  0  0  0  0  0  0  0  0  0  0
   18.0529   31.1619   54.4878 H   0  0  0  0  0  0  0  0  0  0  0  0
   16.9868   31.0775   52.2639 H   0  0  0  0  0  0  0  0  0  0  0  0
   17.5392   26.8323   52.1508 H   0  0  0  0  0  0  0  0  0  0  0  0
   18.5835   26.9024   54.3841 H   0  0  0  0  0  0  0  0  0  0  0  0
   21.0373   32.7017   55.5607 H   0  0  0  0  0  0  0  0  0  0  0  0
  1  2  1  0  0  0  0
  2  3  1  0  0  0  0
  3  4  1  0  0  0  0
  3  6  1  0  0  0  0
  4  5  1  0  0  0  0
  6  7  1  0  0  0  0
  7  8  1  0  0  0  0
  8  9  1  0  0  0  0
  9 10  1  0  0  0  0
 10 11  1  0  0  0  0
 10 12  2  0  0  0  0
 12 13  1  0  0  0  0
 13 14  2  0  0  0  0
 13 33  1  0  0  0  0
 14 15  1  0  0  0  0
 15 16  2  0  0  0  0
 16 17  1  0  0  0  0
 17 18  1  0  0  0  0
 17 33  2  0  0  0  0
 18 19  1  0  0  0  0
 19 20  1  0  0  0  0
 19 24  1  0  0  0  0
 20 21  1  0  0  0  0
 21 22  2  0  0  0  0
 21 26  1  0  0  0  0
 22 23  1  0  0  0  0
 23 24  1  0  0  0  0
 24 25  2  0  0  0  0
 26 27  2  0  0  0  0
 26 32  1  0  0  0  0
 27 28  1  0  0  0  0
 28 29  2  0  0  0  0
 29 30  1  0  0  0  0
 29 31  1  0  0  0  0
 31 32  2  0  0  0  0
  1 34  1  0  0  0  0
  1 35  1  0  0  0  0
  1 36  1  0  0  0  0
  2 37  1  0  0  0  0
  2 38  1  0  0  0  0
  4 39  1  0  0  0  0
  4 40  1  0  0  0  0
  5 41  1  0  0  0  0
  5 42  1  0  0  0  0
  5 43  1  0  0  0  0
  6 44  1  0  0  0  0
  6 45  1  0  0  0  0
  7 46  1  0  0  0  0
  7 47  1  0  0  0  0
  8 48  1  0  0  0  0
  8 49  1  0  0  0  0
 11 50  1  0  0  0  0
 14 51  1  0  0  0  0
 15 52  1  0  0  0  0
 16 53  1  0  0  0  0
 18 54  1  0  0  0  0
 18 55  1  0  0  0  0
 20 56  1  0  0  0  0
 22 57  1  0  0  0  0
 27 58  1  0  0  0  0
 28 59  1  0  0  0  0
 31 60  1  0  0  0  0
 32 61  1  0  0  0  0
 33 62  1  0  0  0  0
M  END
> <s_user_Name>
CHEMBL3402763_90

> <IC50[nM]>
90

$$$$
CHEMBL3402763_90
  -OEChem-05192314313D
 Structure written by MMmdl.
 62 64  0     0  0  0  0  0  0999 V2000
   24.4727   31.0016   48.0036 C   0  0  0  0  0  0  0  0  0  0  0  0
   24.5300   32.4421   47.4625 C   0  0  0  0  0  0  0  0  0  0  0  0
   25.8471   33.1263   47.9174 N   0  0  0  0  0  0  0  0  0  0  0  0
   26.5582   33.8236   46.7267 C   0  0  0  0  0  0  0  0  0  0  0  0
   27.9680   34.3135   47.0983 C   0  0  0  0  0  0  0  0  0  0  0  0
   25.7037   34.0574   49.1505 C   0  0  0  0  0  0  0  0  0  0  0  0
   25.0196   33.3694   50.3406 C   0  0  0  0  0  0  0  0  0  0  0  0
   25.1207   34.2204   51.6096 C   0  0  0  0  0  0  0  0  0  0  0  0
   24.2089   33.7070   52.5694 O   0  0  0  0  0  0  0  0  0  0  0  0
   24.4274   33.8425   53.8818 C   0  0  0  0  0  0  0  0  0  0  0  0
   25.4468   34.3262   54.3758 O   0  0  0  0  0  0  0  0  0  0  0  0
   23.3143   33.3489   54.5431 N   0  0  0  0  0  0  0  0  0  0  0  0
   23.1199   33.0979   55.9090 C   0  0  0  0  0  0  0  0  0  0  0  0
   24.1414   33.1258   56.8692 C   0  0  0  0  0  0  0  0  0  0  0  0
   23.8696   32.7659   58.1897 C   0  0  0  0  0  0  0  0  0  0  0  0
   22.5879   32.3615   58.5569 C   0  0  0  0  0  0  0  0  0  0  0  0
   21.5635   32.3202   57.6077 C   0  0  0  0  0  0  0  0  0  0  0  0
   20.1562   31.8850   58.0078 C   0  0  0  0  0  0  0  0  0  0  0  0
   19.8644   30.4717   57.6936 N   0  0  0  0  0  0  0  0  0  0  0  0
   19.3890   30.2278   56.4402 N   0  0  0  0  0  0  0  0  0  0  0  0
   19.0442   29.0918   55.9519 C   0  0  0  0  0  0  0  0  0  0  0  0
   19.2131   27.7463   56.6825 C   0  0  0  0  0  0  0  0  0  0  0  0
   19.8987   27.7561   58.3757 S   0  0  0  0  0  0  0  0  0  0  0  0
   20.1827   29.5317   58.6864 C   0  0  0  0  0  0  0  0  0  0  0  0
   20.6467   29.8222   59.7923 O   0  0  0  0  0  0  0  0  0  0  0  0
   18.4155   29.0391   54.5996 C   0  0  0  0  0  0  0  0  0  0  0  0
   17.9456   30.2139   53.9817 C   0  0  0  0  0  0  0  0  0  0  0  0
   17.3441   30.1691   52.7261 C   0  0  0  0  0  0  0  0  0  0  0  0
   17.2051   28.9511   52.0696 C   0  0  0  0  0  0  0  0  0  0  0  0
   16.4736   28.8975   50.5073 Cl  0  0  0  0  0  0  0  0  0  0  0  0
   17.6526   27.7758   52.6640 C   0  0  0  0  0  0  0  0  0  0  0  0
   18.2471   27.8189   53.9222 C   0  0  0  0  0  0  0  0  0  0  0  0
   21.8327   32.7061   56.2913 C   0  0  0  0  0  0  0  0  0  0  0  0
   23.5372   30.5237   47.6773 H   0  0  0  0  0  0  0  0  0  0  0  0
   25.3300   30.4307   47.6175 H   0  0  0  0  0  0  0  0  0  0  0  0
   24.5103   31.0212   49.1028 H   0  0  0  0  0  0  0  0  0  0  0  0
   24.4911   32.4205   46.3634 H   0  0  0  0  0  0  0  0  0  0  0  0
   23.6714   33.0110   47.8487 H   0  0  0  0  0  0  0  0  0  0  0  0
   26.6394   33.1087   45.8947 H   0  0  0  0  0  0  0  0  0  0  0  0
   25.9549   34.6873   46.4104 H   0  0  0  0  0  0  0  0  0  0  0  0
   28.4299   34.7988   46.2259 H   0  0  0  0  0  0  0  0  0  0  0  0
   27.8990   35.0353   47.9254 H   0  0  0  0  0  0  0  0  0  0  0  0
   28.5835   33.4567   47.4097 H   0  0  0  0  0  0  0  0  0  0  0  0
   26.7067   34.3839   49.4626 H   0  0  0  0  0  0  0  0  0  0  0  0
   25.1062   34.9344   48.8608 H   0  0  0  0  0  0  0  0  0  0  0  0
   23.9582   33.2096   50.1002 H   0  0  0  0  0  0  0  0  0  0  0  0
   25.5050   32.3988   50.5206 H   0  0  0  0  0  0  0  0  0  0  0  0
   26.1449   34.1726   52.0079 H   0  0  0  0  0  0  0  0  0  0  0  0
   24.8660   35.2650   51.3773 H   0  0  0  0  0  0  0  0  0  0  0  0
   24.9312   32.4486   56.5120 H   0  0  0  0  0  0  0  0  0  0  0  0
   24.5255   34.1563   56.8939 H   0  0  0  0  0  0  0  0  0  0  0  0
   24.6555   32.8009   58.9297 H   0  0  0  0  0  0  0  0  0  0  0  0
   22.3854   32.0788   59.5794 H   0  0  0  0  0  0  0  0  0  0  0  0
   20.0416   32.0314   59.0920 H   0  0  0  0  0  0  0  0  0  0  0  0
   19.4314   32.5171   57.4739 H   0  0  0  0  0  0  0  0  0  0  0  0
   18.2188   27.2790   56.7371 H   0  0  0  0  0  0  0  0  0  0  0  0
   19.8778   27.1230   56.0663 H   0  0  0  0  0  0  0  0  0  0  0  0
   18.0529   31.1619   54.4878 H   0  0  0  0  0  0  0  0  0  0  0  0
   16.9868   31.0775   52.2639 H   0  0  0  0  0  0  0  0  0  0  0  0
   17.5392   26.8323   52.1508 H   0  0  0  0  0  0  0  0  0  0  0  0
   18.5835   26.9024   54.3841 H   0  0  0  0  0  0  0  0  0  0  0  0
   21.0373   32.7017   55.5607 H   0  0  0  0  0  0  0  0  0  0  0  0
  1  2  1  0  0  0  0
  2  3  1  0  0  0  0
  3  4  1  0  0  0  0
  3  6  1  0  0  0  0
  4  5  1  0  0  0  0
  6  7  1  0  0  0  0
  7  8  1  0  0  0  0
  8  9  1  0  0  0  0
  9 10  1  0  0  0  0
 10 11  2  0  0  0  0
 10 12  1  0  0  0  0
 12 13  2  0  0  0  0
 13 14  1  0  0  0  0
 13 33  1  0  0  0  0
 14 15  1  0  0  0  0
 15 16  2  0  0  0  0
 16 17  1  0  0  0  0
 17 18  1  0  0  0  0
 17 33  2  0  0  0  0
 18 19  1  0  0  0  0
 19 20  1  0  0  0  0
 19 24  1  0  0  0  0
 20 21  2  0  0  0  0
 21 22  1  0  0  0  0
 21 26  1  0  0  0  0
 22 23  1  0  0  0  0
 23 24  1  0  0  0  0
 24 25  2  0  0  0  0
 26 27  2  0  0  0  0
 26 32  1  0  0  0  0
 27 28  1  0  0  0  0
 28 29  2  0  0  0  0
 29 30  1  0  0  0  0
 29 31  1  0  0  0  0
 31 32  2  0  0  0  0
  1 34  1  0  0  0  0
  1 35  1  0  0  0  0
  1 36  1  0  0  0  0
  2 37  1  0  0  0  0
  2 38  1  0  0  0  0
  4 39  1  0  0  0  0
  4 40  1  0  0  0  0
  5 41  1  0  0  0  0
  5 42  1  0  0  0  0
  5 43  1  0  0  0  0
  6 44  1  0  0  0  0
  6 45  1  0  0  0  0
  7 46  1  0  0  0  0
  7 47  1  0  0  0  0
  8 48  1  0  0  0  0
  8 49  1  0  0  0  0
 14 50  1  0  0  0  0
 14 51  1  0  0  0  0
 15 52  1  0  0  0  0
 16 53  1  0  0  0  0
 18 54  1  0  0  0  0
 18 55  1  0  0  0  0
 22 56  1  0  0  0  0
 22 57  1  0  0  0  0
 27 58  1  0  0  0  0
 28 59  1  0  0  0  0
 31 60  1  0  0  0  0
 32 61  1  0  0  0  0
 33 62  1  0  0  0  0
M  END
> <s_user_Name>
CHEMBL3402763_90

> <IC50[nM]>
90

$$$$
CHEMBL3402763_90
  -OEChem-05192314313D
 Structure written by MMmdl.
 62 64  0     0  0  0  0  0  0999 V2000
   24.4727   31.0016   48.0036 C   0  0  0  0  0  0  0  0  0  0  0  0
   24.5300   32.4421   47.4625 C   0  0  0  0  0  0  0  0  0  0  0  0
   25.8471   33.1263   47.9174 N   0  0  0  0  0  0  0  0  0  0  0  0
   26.5582   33.8236   46.7267 C   0  0  0  0  0  0  0  0  0  0  0  0
   27.9680   34.3135   47.0983 C   0  0  0  0  0  0  0  0  0  0  0  0
   25.7037   34.0574   49.1505 C   0  0  0  0  0  0  0  0  0  0  0  0
   25.0196   33.3694   50.3406 C   0  0  0  0  0  0  0  0  0  0  0  0
   25.1207   34.2204   51.6096 C   0  0  0  0  0  0  0  0  0  0  0  0
   24.2089   33.7070   52.5694 O   0  0  0  0  0  0  0  0  0  0  0  0
   24.4274   33.8425   53.8818 C   0  0  0  0  0  0  0  0  0  0  0  0
   25.4468   34.3262   54.3758 O   0  0  0  0  0  0  0  0  0  0  0  0
   23.3143   33.3489   54.5431 N   0  0  0  0  0  0  0  0  0  0  0  0
   23.1199   33.0979   55.9090 C   0  0  0  0  0  0  0  0  0  0  0  0
   24.1414   33.1258   56.8692 C   0  0  0  0  0  0  0  0  0  0  0  0
   23.8696   32.7659   58.1897 C   0  0  0  0  0  0  0  0  0  0  0  0
   22.5879   32.3615   58.5569 C   0  0  0  0  0  0  0  0  0  0  0  0
   21.5635   32.3202   57.6077 C   0  0  0  0  0  0  0  0  0  0  0  0
   20.1562   31.8850   58.0078 C   0  0  0  0  0  0  0  0  0  0  0  0
   19.8644   30.4717   57.6936 N   0  0  0  0  0  0  0  0  0  0  0  0
   19.3890   30.2278   56.4402 N   0  0  0  0  0  0  0  0  0  0  0  0
   19.0442   29.0918   55.9519 C   0  0  0  0  0  0  0  0  0  0  0  0
   19.2131   27.7463   56.6825 C   0  0  0  0  0  0  0  0  0  0  0  0
   19.8987   27.7561   58.3757 S   0  0  0  0  0  0  0  0  0  0  0  0
   20.1827   29.5317   58.6864 C   0  0  0  0  0  0  0  0  0  0  0  0
   20.6467   29.8222   59.7923 O   0  0  0  0  0  0  0  0  0  0  0  0
   18.4155   29.0391   54.5996 C   0  0  0  0  0  0  0  0  0  0  0  0
   17.9456   30.2139   53.9817 C   0  0  0  0  0  0  0  0  0  0  0  0
   17.3441   30.1691   52.7261 C   0  0  0  0  0  0  0  0  0  0  0  0
   17.2051   28.9511   52.0696 C   0  0  0  0  0  0  0  0  0  0  0  0
   16.4736   28.8975   50.5073 Cl  0  0  0  0  0  0  0  0  0  0  0  0
   17.6526   27.7758   52.6640 C   0  0  0  0  0  0  0  0  0  0  0  0
   18.2471   27.8189   53.9222 C   0  0  0  0  0  0  0  0  0  0  0  0
   21.8327   32.7061   56.2913 C   0  0  0  0  0  0  0  0  0  0  0  0
   23.5372   30.5237   47.6773 H   0  0  0  0  0  0  0  0  0  0  0  0
   25.3300   30.4307   47.6175 H   0  0  0  0  0  0  0  0  0  0  0  0
   24.5103   31.0212   49.1028 H   0  0  0  0  0  0  0  0  0  0  0  0
   24.4911   32.4205   46.3634 H   0  0  0  0  0  0  0  0  0  0  0  0
   23.6714   33.0110   47.8487 H   0  0  0  0  0  0  0  0  0  0  0  0
   26.6394   33.1087   45.8947 H   0  0  0  0  0  0  0  0  0  0  0  0
   25.9549   34.6873   46.4104 H   0  0  0  0  0  0  0  0  0  0  0  0
   28.4299   34.7988   46.2259 H   0  0  0  0  0  0  0  0  0  0  0  0
   27.8990   35.0353   47.9254 H   0  0  0  0  0  0  0  0  0  0  0  0
   28.5835   33.4567   47.4097 H   0  0  0  0  0  0  0  0  0  0  0  0
   26.7067   34.3839   49.4626 H   0  0  0  0  0  0  0  0  0  0  0  0
   25.1062   34.9344   48.8608 H   0  0  0  0  0  0  0  0  0  0  0  0
   23.9582   33.2096   50.1002 H   0  0  0  0  0  0  0  0  0  0  0  0
   25.5050   32.3988   50.5206 H   0  0  0  0  0  0  0  0  0  0  0  0
   26.1449   34.1726   52.0079 H   0  0  0  0  0  0  0  0  0  0  0  0
   24.8660   35.2650   51.3773 H   0  0  0  0  0  0  0  0  0  0  0  0
   25.1395   33.4261   56.5864 H   0  0  0  0  0  0  0  0  0  0  0  0
   24.6555   32.8009   58.9297 H   0  0  0  0  0  0  0  0  0  0  0  0
   22.6820   31.3444   58.9651 H   0  0  0  0  0  0  0  0  0  0  0  0
   22.2557   33.0461   59.3512 H   0  0  0  0  0  0  0  0  0  0  0  0
   20.0416   32.0314   59.0920 H   0  0  0  0  0  0  0  0  0  0  0  0
   19.4314   32.5171   57.4739 H   0  0  0  0  0  0  0  0  0  0  0  0
   18.2188   27.2790   56.7371 H   0  0  0  0  0  0  0  0  0  0  0  0
   19.8778   27.1230   56.0663 H   0  0  0  0  0  0  0  0  0  0  0  0
   18.0529   31.1619   54.4878 H   0  0  0  0  0  0  0  0  0  0  0  0
   16.9868   31.0775   52.2639 H   0  0  0  0  0  0  0  0  0  0  0  0
   17.5392   26.8323   52.1508 H   0  0  0  0  0  0  0  0  0  0  0  0
   18.5835   26.9024   54.3841 H   0  0  0  0  0  0  0  0  0  0  0  0
   21.0373   32.7017   55.5607 H   0  0  0  0  0  0  0  0  0  0  0  0
  1  2  1  0  0  0  0
  2  3  1  0  0  0  0
  3  4  1  0  0  0  0
  3  6  1  0  0  0  0
  4  5  1  0  0  0  0
  6  7  1  0  0  0  0
  7  8  1  0  0  0  0
  8  9  1  0  0  0  0
  9 10  1  0  0  0  0
 10 11  2  0  0  0  0
 10 12  1  0  0  0  0
 12 13  2  0  0  0  0
 13 14  1  0  0  0  0
 13 33  1  0  0  0  0
 14 15  2  0  0  0  0
 15 16  1  0  0  0  0
 16 17  1  0  0  0  0
 17 18  1  0  0  0  0
 17 33  2  0  0  0  0
 18 19  1  0  0  0  0
 19 20  1  0  0  0  0
 19 24  1  0  0  0  0
 20 21  2  0  0  0  0
 21 22  1  0  0  0  0
 21 26  1  0  0  0  0
 22 23  1  0  0  0  0
 23 24  1  0  0  0  0
 24 25  2  0  0  0  0
 26 27  2  0  0  0  0
 26 32  1  0  0  0  0
 27 28  1  0  0  0  0
 28 29  2  0  0  0  0
 29 30  1  0  0  0  0
 29 31  1  0  0  0  0
 31 32  2  0  0  0  0
  1 34  1  0  0  0  0
  1 35  1  0  0  0  0
  1 36  1  0  0  0  0
  2 37  1  0  0  0  0
  2 38  1  0  0  0  0
  4 39  1  0  0  0  0
  4 40  1  0  0  0  0
  5 41  1  0  0  0  0
  5 42  1  0  0  0  0
  5 43  1  0  0  0  0
  6 44  1  0  0  0  0
  6 45  1  0  0  0  0
  7 46  1  0  0  0  0
  7 47  1  0  0  0  0
  8 48  1  0  0  0  0
  8 49  1  0  0  0  0
 14 50  1  0  0  0  0
 15 51  1  0  0  0  0
 16 52  1  0  0  0  0
 16 53  1  0  0  0  0
 18 54  1  0  0  0  0
 18 55  1  0  0  0  0
 22 56  1  0  0  0  0
 22 57  1  0  0  0  0
 27 58  1  0  0  0  0
 28 59  1  0  0  0  0
 31 60  1  0  0  0  0
 32 61  1  0  0  0  0
 33 62  1  0  0  0  0
M  END
> <s_user_Name>
CHEMBL3402763_90

> <IC50[nM]>
90

$$$$
CHEMBL3402763_90
  -OEChem-05192314313D
 Structure written by MMmdl.
 62 64  0     0  0  0  0  0  0999 V2000
   24.4727   31.0016   48.0036 C   0  0  0  0  0  0  0  0  0  0  0  0
   24.5300   32.4421   47.4625 C   0  0  0  0  0  0  0  0  0  0  0  0
   25.8471   33.1263   47.9174 N   0  0  0  0  0  0  0  0  0  0  0  0
   26.5582   33.8236   46.7267 C   0  0  0  0  0  0  0  0  0  0  0  0
   27.9680   34.3135   47.0983 C   0  0  0  0  0  0  0  0  0  0  0  0
   25.7037   34.0574   49.1505 C   0  0  0  0  0  0  0  0  0  0  0  0
   25.0196   33.3694   50.3406 C   0  0  0  0  0  0  0  0  0  0  0  0
   25.1207   34.2204   51.6096 C   0  0  0  0  0  0  0  0  0  0  0  0
   24.2089   33.7070   52.5694 O   0  0  0  0  0  0  0  0  0  0  0  0
   24.4274   33.8425   53.8818 C   0  0  0  0  0  0  0  0  0  0  0  0
   25.4468   34.3262   54.3758 O   0  0  0  0  0  0  0  0  0  0  0  0
   23.3143   33.3489   54.5431 N   0  0  0  0  0  0  0  0  0  0  0  0
   23.1199   33.0979   55.9090 C   0  0  0  0  0  0  0  0  0  0  0  0
   24.1414   33.1258   56.8692 C   0  0  0  0  0  0  0  0  0  0  0  0
   23.8696   32.7659   58.1897 C   0  0  0  0  0  0  0  0  0  0  0  0
   22.5879   32.3615   58.5569 C   0  0  0  0  0  0  0  0  0  0  0  0
   21.5635   32.3202   57.6077 C   0  0  0  0  0  0  0  0  0  0  0  0
   20.1562   31.8850   58.0078 C   0  0  0  0  0  0  0  0  0  0  0  0
   19.8644   30.4717   57.6936 N   0  0  0  0  0  0  0  0  0  0  0  0
   19.3890   30.2278   56.4402 N   0  0  0  0  0  0  0  0  0  0  0  0
   19.0442   29.0918   55.9519 C   0  0  0  0  0  0  0  0  0  0  0  0
   19.2131   27.7463   56.6825 C   0  0  0  0  0  0  0  0  0  0  0  0
   19.8987   27.7561   58.3757 S   0  0  0  0  0  0  0  0  0  0  0  0
   20.1827   29.5317   58.6864 C   0  0  0  0  0  0  0  0  0  0  0  0
   20.6467   29.8222   59.7923 O   0  0  0  0  0  0  0  0  0  0  0  0
   18.4155   29.0391   54.5996 C   0  0  0  0  0  0  0  0  0  0  0  0
   17.9456   30.2139   53.9817 C   0  0  0  0  0  0  0  0  0  0  0  0
   17.3441   30.1691   52.7261 C   0  0  0  0  0  0  0  0  0  0  0  0
   17.2051   28.9511   52.0696 C   0  0  0  0  0  0  0  0  0  0  0  0
   16.4736   28.8975   50.5073 Cl  0  0  0  0  0  0  0  0  0  0  0  0
   17.6526   27.7758   52.6640 C   0  0  0  0  0  0  0  0  0  0  0  0
   18.2471   27.8189   53.9222 C   0  0  0  0  0  0  0  0  0  0  0  0
   21.8327   32.7061   56.2913 C   0  0  0  0  0  0  0  0  0  0  0  0
   23.5372   30.5237   47.6773 H   0  0  0  0  0  0  0  0  0  0  0  0
   25.3300   30.4307   47.6175 H   0  0  0  0  0  0  0  0  0  0  0  0
   24.5103   31.0212   49.1028 H   0  0  0  0  0  0  0  0  0  0  0  0
   24.4911   32.4205   46.3634 H   0  0  0  0  0  0  0  0  0  0  0  0
   23.6714   33.0110   47.8487 H   0  0  0  0  0  0  0  0  0  0  0  0
   26.6394   33.1087   45.8947 H   0  0  0  0  0  0  0  0  0  0  0  0
   25.9549   34.6873   46.4104 H   0  0  0  0  0  0  0  0  0  0  0  0
   28.4299   34.7988   46.2259 H   0  0  0  0  0  0  0  0  0  0  0  0
   27.8990   35.0353   47.9254 H   0  0  0  0  0  0  0  0  0  0  0  0
   28.5835   33.4567   47.4097 H   0  0  0  0  0  0  0  0  0  0  0  0
   26.7067   34.3839   49.4626 H   0  0  0  0  0  0  0  0  0  0  0  0
   25.1062   34.9344   48.8608 H   0  0  0  0  0  0  0  0  0  0  0  0
   23.9582   33.2096   50.1002 H   0  0  0  0  0  0  0  0  0  0  0  0
   25.5050   32.3988   50.5206 H   0  0  0  0  0  0  0  0  0  0  0  0
   26.1449   34.1726   52.0079 H   0  0  0  0  0  0  0  0  0  0  0  0
   24.8660   35.2650   51.3773 H   0  0  0  0  0  0  0  0  0  0  0  0
   25.1395   33.4261   56.5864 H   0  0  0  0  0  0  0  0  0  0  0  0
   24.6555   32.8009   58.9297 H   0  0  0  0  0  0  0  0  0  0  0  0
   22.3854   32.0788   59.5794 H   0  0  0  0  0  0  0  0  0  0  0  0
   20.0416   32.0314   59.0920 H   0  0  0  0  0  0  0  0  0  0  0  0
   19.4314   32.5171   57.4739 H   0  0  0  0  0  0  0  0  0  0  0  0
   18.2188   27.2790   56.7371 H   0  0  0  0  0  0  0  0  0  0  0  0
   19.8778   27.1230   56.0663 H   0  0  0  0  0  0  0  0  0  0  0  0
   18.0529   31.1619   54.4878 H   0  0  0  0  0  0  0  0  0  0  0  0
   16.9868   31.0775   52.2639 H   0  0  0  0  0  0  0  0  0  0  0  0
   17.5392   26.8323   52.1508 H   0  0  0  0  0  0  0  0  0  0  0  0
   18.5835   26.9024   54.3841 H   0  0  0  0  0  0  0  0  0  0  0  0
   21.1681   33.5545   56.0709 H   0  0  0  0  0  0  0  0  0  0  0  0
   21.5619   31.8525   55.6525 H   0  0  0  0  0  0  0  0  0  0  0  0
  1  2  1  0  0  0  0
  2  3  1  0  0  0  0
  3  4  1  0  0  0  0
  3  6  1  0  0  0  0
  4  5  1  0  0  0  0
  6  7  1  0  0  0  0
  7  8  1  0  0  0  0
  8  9  1  0  0  0  0
  9 10  1  0  0  0  0
 10 11  2  0  0  0  0
 10 12  1  0  0  0  0
 12 13  2  0  0  0  0
 13 14  1  0  0  0  0
 13 33  1  0  0  0  0
 14 15  2  0  0  0  0
 15 16  1  0  0  0  0
 16 17  2  0  0  0  0
 17 18  1  0  0  0  0
 17 33  1  0  0  0  0
 18 19  1  0  0  0  0
 19 20  1  0  0  0  0
 19 24  1  0  0  0  0
 20 21  2  0  0  0  0
 21 22  1  0  0  0  0
 21 26  1  0  0  0  0
 22 23  1  0  0  0  0
 23 24  1  0  0  0  0
 24 25  2  0  0  0  0
 26 27  2  0  0  0  0
 26 32  1  0  0  0  0
 27 28  1  0  0  0  0
 28 29  2  0  0  0  0
 29 30  1  0  0  0  0
 29 31  1  0  0  0  0
 31 32  2  0  0  0  0
  1 34  1  0  0  0  0
  1 35  1  0  0  0  0
  1 36  1  0  0  0  0
  2 37  1  0  0  0  0
  2 38  1  0  0  0  0
  4 39  1  0  0  0  0
  4 40  1  0  0  0  0
  5 41  1  0  0  0  0
  5 42  1  0  0  0  0
  5 43  1  0  0  0  0
  6 44  1  0  0  0  0
  6 45  1  0  0  0  0
  7 46  1  0  0  0  0
  7 47  1  0  0  0  0
  8 48  1  0  0  0  0
  8 49  1  0  0  0  0
 14 50  1  0  0  0  0
 15 51  1  0  0  0  0
 16 52  1  0  0  0  0
 18 53  1  0  0  0  0
 18 54  1  0  0  0  0
 22 55  1  0  0  0  0
 22 56  1  0  0  0  0
 27 57  1  0  0  0  0
 28 58  1  0  0  0  0
 31 59  1  0  0  0  0
 32 60  1  0  0  0  0
 33 61  1  0  0  0  0
 33 62  1  0  0  0  0
M  END
> <s_user_Name>
CHEMBL3402763_90

> <IC50[nM]>
90

$$$$
CHEMBL3402763_90
  -OEChem-05192314313D
 Structure written by MMmdl.
 62 64  0     0  0  0  0  0  0999 V2000
   24.4727   31.0016   48.0036 C   0  0  0  0  0  0  0  0  0  0  0  0
   24.5300   32.4421   47.4625 C   0  0  0  0  0  0  0  0  0  0  0  0
   25.8471   33.1263   47.9174 N   0  0  0  0  0  0  0  0  0  0  0  0
   26.5582   33.8236   46.7267 C   0  0  0  0  0  0  0  0  0  0  0  0
   27.9680   34.3135   47.0983 C   0  0  0  0  0  0  0  0  0  0  0  0
   25.7037   34.0574   49.1505 C   0  0  0  0  0  0  0  0  0  0  0  0
   25.0196   33.3694   50.3406 C   0  0  0  0  0  0  0  0  0  0  0  0
   25.1207   34.2204   51.6096 C   0  0  0  0  0  0  0  0  0  0  0  0
   24.2089   33.7070   52.5694 O   0  0  0  0  0  0  0  0  0  0  0  0
   24.4274   33.8425   53.8818 C   0  0  0  0  0  0  0  0  0  0  0  0
   25.4468   34.3262   54.3758 O   0  0  0  0  0  0  0  0  0  0  0  0
   23.3143   33.3489   54.5431 N   0  0  0  0  0  0  0  0  0  0  0  0
   23.1199   33.0979   55.9090 C   0  0  0  0  0  0  0  0  0  0  0  0
   24.1414   33.1258   56.8692 C   0  0  0  0  0  0  0  0  0  0  0  0
   23.8696   32.7659   58.1897 C   0  0  0  0  0  0  0  0  0  0  0  0
   22.5879   32.3615   58.5569 C   0  0  0  0  0  0  0  0  0  0  0  0
   21.5635   32.3202   57.6077 C   0  0  0  0  0  0  0  0  0  0  0  0
   20.1562   31.8850   58.0078 C   0  0  0  0  0  0  0  0  0  0  0  0
   19.8644   30.4717   57.6936 N   0  0  0  0  0  0  0  0  0  0  0  0
   19.3890   30.2278   56.4402 N   0  0  0  0  0  0  0  0  0  0  0  0
   19.0442   29.0918   55.9519 C   0  0  0  0  0  0  0  0  0  0  0  0
   19.2131   27.7463   56.6825 C   0  0  0  0  0  0  0  0  0  0  0  0
   19.8987   27.7561   58.3757 S   0  0  0  0  0  0  0  0  0  0  0  0
   20.1827   29.5317   58.6864 C   0  0  0  0  0  0  0  0  0  0  0  0
   20.6467   29.8222   59.7923 O   0  0  0  0  0  0  0  0  0  0  0  0
   18.4155   29.0391   54.5996 C   0  0  0  0  0  0  0  0  0  0  0  0
   17.9456   30.2139   53.9817 C   0  0  0  0  0  0  0  0  0  0  0  0
   17.3441   30.1691   52.7261 C   0  0  0  0  0  0  0  0  0  0  0  0
   17.2051   28.9511   52.0696 C   0  0  0  0  0  0  0  0  0  0  0  0
   16.4736   28.8975   50.5073 Cl  0  0  0  0  0  0  0  0  0  0  0  0
   17.6526   27.7758   52.6640 C   0  0  0  0  0  0  0  0  0  0  0  0
   18.2471   27.8189   53.9222 C   0  0  0  0  0  0  0  0  0  0  0  0
   21.8327   32.7061   56.2913 C   0  0  0  0  0  0  0  0  0  0  0  0
   23.5372   30.5237   47.6773 H   0  0  0  0  0  0  0  0  0  0  0  0
   25.3300   30.4307   47.6175 H   0  0  0  0  0  0  0  0  0  0  0  0
   24.5103   31.0212   49.1028 H   0  0  0  0  0  0  0  0  0  0  0  0
   24.4911   32.4205   46.3634 H   0  0  0  0  0  0  0  0  0  0  0  0
   23.6714   33.0110   47.8487 H   0  0  0  0  0  0  0  0  0  0  0  0
   26.6394   33.1087   45.8947 H   0  0  0  0  0  0  0  0  0  0  0  0
   25.9549   34.6873   46.4104 H   0  0  0  0  0  0  0  0  0  0  0  0
   28.4299   34.7988   46.2259 H   0  0  0  0  0  0  0  0  0  0  0  0
   27.8990   35.0353   47.9254 H   0  0  0  0  0  0  0  0  0  0  0  0
   28.5835   33.4567   47.4097 H   0  0  0  0  0  0  0  0  0  0  0  0
   26.7067   34.3839   49.4626 H   0  0  0  0  0  0  0  0  0  0  0  0
   25.1062   34.9344   48.8608 H   0  0  0  0  0  0  0  0  0  0  0  0
   23.9582   33.2096   50.1002 H   0  0  0  0  0  0  0  0  0  0  0  0
   25.5050   32.3988   50.5206 H   0  0  0  0  0  0  0  0  0  0  0  0
   26.1449   34.1726   52.0079 H   0  0  0  0  0  0  0  0  0  0  0  0
   24.8660   35.2650   51.3773 H   0  0  0  0  0  0  0  0  0  0  0  0
   24.9312   32.4486   56.5120 H   0  0  0  0  0  0  0  0  0  0  0  0
   24.5255   34.1563   56.8939 H   0  0  0  0  0  0  0  0  0  0  0  0
   24.6555   32.8009   58.9297 H   0  0  0  0  0  0  0  0  0  0  0  0
   22.3854   32.0788   59.5794 H   0  0  0  0  0  0  0  0  0  0  0  0
   20.0416   32.0314   59.0920 H   0  0  0  0  0  0  0  0  0  0  0  0
   19.4314   32.5171   57.4739 H   0  0  0  0  0  0  0  0  0  0  0  0
   18.5742   30.8016   56.3576 H   0  0  0  0  0  0  0  0  0  0  0  0
   18.9328   26.8190   56.2050 H   0  0  0  0  0  0  0  0  0  0  0  0
   18.0529   31.1619   54.4878 H   0  0  0  0  0  0  0  0  0  0  0  0
   16.9868   31.0775   52.2639 H   0  0  0  0  0  0  0  0  0  0  0  0
   17.5392   26.8323   52.1508 H   0  0  0  0  0  0  0  0  0  0  0  0
   18.5835   26.9024   54.3841 H   0  0  0  0  0  0  0  0  0  0  0  0
   21.0373   32.7017   55.5607 H   0  0  0  0  0  0  0  0  0  0  0  0
  1  2  1  0  0  0  0
  2  3  1  0  0  0  0
  3  4  1  0  0  0  0
  3  6  1  0  0  0  0
  4  5  1  0  0  0  0
  6  7  1  0  0  0  0
  7  8  1  0  0  0  0
  8  9  1  0  0  0  0
  9 10  1  0  0  0  0
 10 11  2  0  0  0  0
 10 12  1  0  0  0  0
 12 13  2  0  0  0  0
 13 14  1  0  0  0  0
 13 33  1  0  0  0  0
 14 15  1  0  0  0  0
 15 16  2  0  0  0  0
 16 17  1  0  0  0  0
 17 18  1  0  0  0  0
 17 33  2  0  0  0  0
 18 19  1  0  0  0  0
 19 20  1  0  0  0  0
 19 24  1  0  0  0  0
 20 21  1  0  0  0  0
 21 22  2  0  0  0  0
 21 26  1  0  0  0  0
 22 23  1  0  0  0  0
 23 24  1  0  0  0  0
 24 25  2  0  0  0  0
 26 27  2  0  0  0  0
 26 32  1  0  0  0  0
 27 28  1  0  0  0  0
 28 29  2  0  0  0  0
 29 30  1  0  0  0  0
 29 31  1  0  0  0  0
 31 32  2  0  0  0  0
  1 34  1  0  0  0  0
  1 35  1  0  0  0  0
  1 36  1  0  0  0  0
  2 37  1  0  0  0  0
  2 38  1  0  0  0  0
  4 39  1  0  0  0  0
  4 40  1  0  0  0  0
  5 41  1  0  0  0  0
  5 42  1  0  0  0  0
  5 43  1  0  0  0  0
  6 44  1  0  0  0  0
  6 45  1  0  0  0  0
  7 46  1  0  0  0  0
  7 47  1  0  0  0  0
  8 48  1  0  0  0  0
  8 49  1  0  0  0  0
 14 50  1  0  0  0  0
 14 51  1  0  0  0  0
 15 52  1  0  0  0  0
 16 53  1  0  0  0  0
 18 54  1  0  0  0  0
 18 55  1  0  0  0  0
 20 56  1  0  0  0  0
 22 57  1  0  0  0  0
 27 58  1  0  0  0  0
 28 59  1  0  0  0  0
 31 60  1  0  0  0  0
 32 61  1  0  0  0  0
 33 62  1  0  0  0  0
M  END
> <s_user_Name>
CHEMBL3402763_90

> <IC50[nM]>
90

$$$$
CHEMBL3402763_90
  -OEChem-05192314313D
 Structure written by MMmdl.
 62 64  0     0  0  0  0  0  0999 V2000
   24.4727   31.0016   48.0036 C   0  0  0  0  0  0  0  0  0  0  0  0
   24.5300   32.4421   47.4625 C   0  0  0  0  0  0  0  0  0  0  0  0
   25.8471   33.1263   47.9174 N   0  0  0  0  0  0  0  0  0  0  0  0
   26.5582   33.8236   46.7267 C   0  0  0  0  0  0  0  0  0  0  0  0
   27.9680   34.3135   47.0983 C   0  0  0  0  0  0  0  0  0  0  0  0
   25.7037   34.0574   49.1505 C   0  0  0  0  0  0  0  0  0  0  0  0
   25.0196   33.3694   50.3406 C   0  0  0  0  0  0  0  0  0  0  0  0
   25.1207   34.2204   51.6096 C   0  0  0  0  0  0  0  0  0  0  0  0
   24.2089   33.7070   52.5694 O   0  0  0  0  0  0  0  0  0  0  0  0
   24.4274   33.8425   53.8818 C   0  0  0  0  0  0  0  0  0  0  0  0
   25.4468   34.3262   54.3758 O   0  0  0  0  0  0  0  0  0  0  0  0
   23.3143   33.3489   54.5431 N   0  0  0  0  0  0  0  0  0  0  0  0
   23.1199   33.0979   55.9090 C   0  0  0  0  0  0  0  0  0  0  0  0
   24.1414   33.1258   56.8692 C   0  0  0  0  0  0  0  0  0  0  0  0
   23.8696   32.7659   58.1897 C   0  0  0  0  0  0  0  0  0  0  0  0
   22.5879   32.3615   58.5569 C   0  0  0  0  0  0  0  0  0  0  0  0
   21.5635   32.3202   57.6077 C   0  0  0  0  0  0  0  0  0  0  0  0
   20.1562   31.8850   58.0078 C   0  0  0  0  0  0  0  0  0  0  0  0
   19.8644   30.4717   57.6936 N   0  0  0  0  0  0  0  0  0  0  0  0
   19.3890   30.2278   56.4402 N   0  0  0  0  0  0  0  0  0  0  0  0
   19.0442   29.0918   55.9519 C   0  0  0  0  0  0  0  0  0  0  0  0
   19.2131   27.7463   56.6825 C   0  0  0  0  0  0  0  0  0  0  0  0
   19.8987   27.7561   58.3757 S   0  0  0  0  0  0  0  0  0  0  0  0
   20.1827   29.5317   58.6864 C   0  0  0  0  0  0  0  0  0  0  0  0
   20.6467   29.8222   59.7923 O   0  0  0  0  0  0  0  0  0  0  0  0
   18.4155   29.0391   54.5996 C   0  0  0  0  0  0  0  0  0  0  0  0
   17.9456   30.2139   53.9817 C   0  0  0  0  0  0  0  0  0  0  0  0
   17.3441   30.1691   52.7261 C   0  0  0  0  0  0  0  0  0  0  0  0
   17.2051   28.9511   52.0696 C   0  0  0  0  0  0  0  0  0  0  0  0
   16.4736   28.8975   50.5073 Cl  0  0  0  0  0  0  0  0  0  0  0  0
   17.6526   27.7758   52.6640 C   0  0  0  0  0  0  0  0  0  0  0  0
   18.2471   27.8189   53.9222 C   0  0  0  0  0  0  0  0  0  0  0  0
   21.8327   32.7061   56.2913 C   0  0  0  0  0  0  0  0  0  0  0  0
   23.5372   30.5237   47.6773 H   0  0  0  0  0  0  0  0  0  0  0  0
   25.3300   30.4307   47.6175 H   0  0  0  0  0  0  0  0  0  0  0  0
   24.5103   31.0212   49.1028 H   0  0  0  0  0  0  0  0  0  0  0  0
   24.4911   32.4205   46.3634 H   0  0  0  0  0  0  0  0  0  0  0  0
   23.6714   33.0110   47.8487 H   0  0  0  0  0  0  0  0  0  0  0  0
   26.6394   33.1087   45.8947 H   0  0  0  0  0  0  0  0  0  0  0  0
   25.9549   34.6873   46.4104 H   0  0  0  0  0  0  0  0  0  0  0  0
   28.4299   34.7988   46.2259 H   0  0  0  0  0  0  0  0  0  0  0  0
   27.8990   35.0353   47.9254 H   0  0  0  0  0  0  0  0  0  0  0  0
   28.5835   33.4567   47.4097 H   0  0  0  0  0  0  0  0  0  0  0  0
   26.7067   34.3839   49.4626 H   0  0  0  0  0  0  0  0  0  0  0  0
   25.1062   34.9344   48.8608 H   0  0  0  0  0  0  0  0  0  0  0  0
   23.9582   33.2096   50.1002 H   0  0  0  0  0  0  0  0  0  0  0  0
   25.5050   32.3988   50.5206 H   0  0  0  0  0  0  0  0  0  0  0  0
   26.1449   34.1726   52.0079 H   0  0  0  0  0  0  0  0  0  0  0  0
   24.8660   35.2650   51.3773 H   0  0  0  0  0  0  0  0  0  0  0  0
   25.1395   33.4261   56.5864 H   0  0  0  0  0  0  0  0  0  0  0  0
   24.6555   32.8009   58.9297 H   0  0  0  0  0  0  0  0  0  0  0  0
   22.6820   31.3444   58.9651 H   0  0  0  0  0  0  0  0  0  0  0  0
   22.2557   33.0461   59.3512 H   0  0  0  0  0  0  0  0  0  0  0  0
   20.0416   32.0314   59.0920 H   0  0  0  0  0  0  0  0  0  0  0  0
   19.4314   32.5171   57.4739 H   0  0  0  0  0  0  0  0  0  0  0  0
   18.5742   30.8016   56.3576 H   0  0  0  0  0  0  0  0  0  0  0  0
   18.9328   26.8190   56.2050 H   0  0  0  0  0  0  0  0  0  0  0  0
   18.0529   31.1619   54.4878 H   0  0  0  0  0  0  0  0  0  0  0  0
   16.9868   31.0775   52.2639 H   0  0  0  0  0  0  0  0  0  0  0  0
   17.5392   26.8323   52.1508 H   0  0  0  0  0  0  0  0  0  0  0  0
   18.5835   26.9024   54.3841 H   0  0  0  0  0  0  0  0  0  0  0  0
   21.0373   32.7017   55.5607 H   0  0  0  0  0  0  0  0  0  0  0  0
  1  2  1  0  0  0  0
  2  3  1  0  0  0  0
  3  4  1  0  0  0  0
  3  6  1  0  0  0  0
  4  5  1  0  0  0  0
  6  7  1  0  0  0  0
  7  8  1  0  0  0  0
  8  9  1  0  0  0  0
  9 10  1  0  0  0  0
 10 11  2  0  0  0  0
 10 12  1  0  0  0  0
 12 13  2  0  0  0  0
 13 14  1  0  0  0  0
 13 33  1  0  0  0  0
 14 15  2  0  0  0  0
 15 16  1  0  0  0  0
 16 17  1  0  0  0  0
 17 18  1  0  0  0  0
 17 33  2  0  0  0  0
 18 19  1  0  0  0  0
 19 20  1  0  0  0  0
 19 24  1  0  0  0  0
 20 21  1  0  0  0  0
 21 22  2  0  0  0  0
 21 26  1  0  0  0  0
 22 23  1  0  0  0  0
 23 24  1  0  0  0  0
 24 25  2  0  0  0  0
 26 27  2  0  0  0  0
 26 32  1  0  0  0  0
 27 28  1  0  0  0  0
 28 29  2  0  0  0  0
 29 30  1  0  0  0  0
 29 31  1  0  0  0  0
 31 32  2  0  0  0  0
  1 34  1  0  0  0  0
  1 35  1  0  0  0  0
  1 36  1  0  0  0  0
  2 37  1  0  0  0  0
  2 38  1  0  0  0  0
  4 39  1  0  0  0  0
  4 40  1  0  0  0  0
  5 41  1  0  0  0  0
  5 42  1  0  0  0  0
  5 43  1  0  0  0  0
  6 44  1  0  0  0  0
  6 45  1  0  0  0  0
  7 46  1  0  0  0  0
  7 47  1  0  0  0  0
  8 48  1  0  0  0  0
  8 49  1  0  0  0  0
 14 50  1  0  0  0  0
 15 51  1  0  0  0  0
 16 52  1  0  0  0  0
 16 53  1  0  0  0  0
 18 54  1  0  0  0  0
 18 55  1  0  0  0  0
 20 56  1  0  0  0  0
 22 57  1  0  0  0  0
 27 58  1  0  0  0  0
 28 59  1  0  0  0  0
 31 60  1  0  0  0  0
 32 61  1  0  0  0  0
 33 62  1  0  0  0  0
M  END
> <s_user_Name>
CHEMBL3402763_90

> <IC50[nM]>
90

$$$$
CHEMBL3402763_90
  -OEChem-05192314313D
 Structure written by MMmdl.
 62 64  0     0  0  0  0  0  0999 V2000
   24.4727   31.0016   48.0036 C   0  0  0  0  0  0  0  0  0  0  0  0
   24.5300   32.4421   47.4625 C   0  0  0  0  0  0  0  0  0  0  0  0
   25.8471   33.1263   47.9174 N   0  0  0  0  0  0  0  0  0  0  0  0
   26.5582   33.8236   46.7267 C   0  0  0  0  0  0  0  0  0  0  0  0
   27.9680   34.3135   47.0983 C   0  0  0  0  0  0  0  0  0  0  0  0
   25.7037   34.0574   49.1505 C   0  0  0  0  0  0  0  0  0  0  0  0
   25.0196   33.3694   50.3406 C   0  0  0  0  0  0  0  0  0  0  0  0
   25.1207   34.2204   51.6096 C   0  0  0  0  0  0  0  0  0  0  0  0
   24.2089   33.7070   52.5694 O   0  0  0  0  0  0  0  0  0  0  0  0
   24.4274   33.8425   53.8818 C   0  0  0  0  0  0  0  0  0  0  0  0
   25.4468   34.3262   54.3758 O   0  0  0  0  0  0  0  0  0  0  0  0
   23.3143   33.3489   54.5431 N   0  0  0  0  0  0  0  0  0  0  0  0
   23.1199   33.0979   55.9090 C   0  0  0  0  0  0  0  0  0  0  0  0
   24.1414   33.1258   56.8692 C   0  0  0  0  0  0  0  0  0  0  0  0
   23.8696   32.7659   58.1897 C   0  0  0  0  0  0  0  0  0  0  0  0
   22.5879   32.3615   58.5569 C   0  0  0  0  0  0  0  0  0  0  0  0
   21.5635   32.3202   57.6077 C   0  0  0  0  0  0  0  0  0  0  0  0
   20.1562   31.8850   58.0078 C   0  0  0  0  0  0  0  0  0  0  0  0
   19.8644   30.4717   57.6936 N   0  0  0  0  0  0  0  0  0  0  0  0
   19.3890   30.2278   56.4402 N   0  0  0  0  0  0  0  0  0  0  0  0
   19.0442   29.0918   55.9519 C   0  0  0  0  0  0  0  0  0  0  0  0
   19.2131   27.7463   56.6825 C   0  0  0  0  0  0  0  0  0  0  0  0
   19.8987   27.7561   58.3757 S   0  0  0  0  0  0  0  0  0  0  0  0
   20.1827   29.5317   58.6864 C   0  0  0  0  0  0  0  0  0  0  0  0
   20.6467   29.8222   59.7923 O   0  0  0  0  0  0  0  0  0  0  0  0
   18.4155   29.0391   54.5996 C   0  0  0  0  0  0  0  0  0  0  0  0
   17.9456   30.2139   53.9817 C   0  0  0  0  0  0  0  0  0  0  0  0
   17.3441   30.1691   52.7261 C   0  0  0  0  0  0  0  0  0  0  0  0
   17.2051   28.9511   52.0696 C   0  0  0  0  0  0  0  0  0  0  0  0
   16.4736   28.8975   50.5073 Cl  0  0  0  0  0  0  0  0  0  0  0  0
   17.6526   27.7758   52.6640 C   0  0  0  0  0  0  0  0  0  0  0  0
   18.2471   27.8189   53.9222 C   0  0  0  0  0  0  0  0  0  0  0  0
   21.8327   32.7061   56.2913 C   0  0  0  0  0  0  0  0  0  0  0  0
   23.5372   30.5237   47.6773 H   0  0  0  0  0  0  0  0  0  0  0  0
   25.3300   30.4307   47.6175 H   0  0  0  0  0  0  0  0  0  0  0  0
   24.5103   31.0212   49.1028 H   0  0  0  0  0  0  0  0  0  0  0  0
   24.4911   32.4205   46.3634 H   0  0  0  0  0  0  0  0  0  0  0  0
   23.6714   33.0110   47.8487 H   0  0  0  0  0  0  0  0  0  0  0  0
   26.6394   33.1087   45.8947 H   0  0  0  0  0  0  0  0  0  0  0  0
   25.9549   34.6873   46.4104 H   0  0  0  0  0  0  0  0  0  0  0  0
   28.4299   34.7988   46.2259 H   0  0  0  0  0  0  0  0  0  0  0  0
   27.8990   35.0353   47.9254 H   0  0  0  0  0  0  0  0  0  0  0  0
   28.5835   33.4567   47.4097 H   0  0  0  0  0  0  0  0  0  0  0  0
   26.7067   34.3839   49.4626 H   0  0  0  0  0  0  0  0  0  0  0  0
   25.1062   34.9344   48.8608 H   0  0  0  0  0  0  0  0  0  0  0  0
   23.9582   33.2096   50.1002 H   0  0  0  0  0  0  0  0  0  0  0  0
   25.5050   32.3988   50.5206 H   0  0  0  0  0  0  0  0  0  0  0  0
   26.1449   34.1726   52.0079 H   0  0  0  0  0  0  0  0  0  0  0  0
   24.8660   35.2650   51.3773 H   0  0  0  0  0  0  0  0  0  0  0  0
   25.1395   33.4261   56.5864 H   0  0  0  0  0  0  0  0  0  0  0  0
   24.6555   32.8009   58.9297 H   0  0  0  0  0  0  0  0  0  0  0  0
   22.3854   32.0788   59.5794 H   0  0  0  0  0  0  0  0  0  0  0  0
   20.0416   32.0314   59.0920 H   0  0  0  0  0  0  0  0  0  0  0  0
   19.4314   32.5171   57.4739 H   0  0  0  0  0  0  0  0  0  0  0  0
   18.5742   30.8016   56.3576 H   0  0  0  0  0  0  0  0  0  0  0  0
   18.9328   26.8190   56.2050 H   0  0  0  0  0  0  0  0  0  0  0  0
   18.0529   31.1619   54.4878 H   0  0  0  0  0  0  0  0  0  0  0  0
   16.9868   31.0775   52.2639 H   0  0  0  0  0  0  0  0  0  0  0  0
   17.5392   26.8323   52.1508 H   0  0  0  0  0  0  0  0  0  0  0  0
   18.5835   26.9024   54.3841 H   0  0  0  0  0  0  0  0  0  0  0  0
   21.1681   33.5545   56.0709 H   0  0  0  0  0  0  0  0  0  0  0  0
   21.5619   31.8525   55.6525 H   0  0  0  0  0  0  0  0  0  0  0  0
  1  2  1  0  0  0  0
  2  3  1  0  0  0  0
  3  4  1  0  0  0  0
  3  6  1  0  0  0  0
  4  5  1  0  0  0  0
  6  7  1  0  0  0  0
  7  8  1  0  0  0  0
  8  9  1  0  0  0  0
  9 10  1  0  0  0  0
 10 11  2  0  0  0  0
 10 12  1  0  0  0  0
 12 13  2  0  0  0  0
 13 14  1  0  0  0  0
 13 33  1  0  0  0  0
 14 15  2  0  0  0  0
 15 16  1  0  0  0  0
 16 17  2  0  0  0  0
 17 18  1  0  0  0  0
 17 33  1  0  0  0  0
 18 19  1  0  0  0  0
 19 20  1  0  0  0  0
 19 24  1  0  0  0  0
 20 21  1  0  0  0  0
 21 22  2  0  0  0  0
 21 26  1  0  0  0  0
 22 23  1  0  0  0  0
 23 24  1  0  0  0  0
 24 25  2  0  0  0  0
 26 27  2  0  0  0  0
 26 32  1  0  0  0  0
 27 28  1  0  0  0  0
 28 29  2  0  0  0  0
 29 30  1  0  0  0  0
 29 31  1  0  0  0  0
 31 32  2  0  0  0  0
  1 34  1  0  0  0  0
  1 35  1  0  0  0  0
  1 36  1  0  0  0  0
  2 37  1  0  0  0  0
  2 38  1  0  0  0  0
  4 39  1  0  0  0  0
  4 40  1  0  0  0  0
  5 41  1  0  0  0  0
  5 42  1  0  0  0  0
  5 43  1  0  0  0  0
  6 44  1  0  0  0  0
  6 45  1  0  0  0  0
  7 46  1  0  0  0  0
  7 47  1  0  0  0  0
  8 48  1  0  0  0  0
  8 49  1  0  0  0  0
 14 50  1  0  0  0  0
 15 51  1  0  0  0  0
 16 52  1  0  0  0  0
 18 53  1  0  0  0  0
 18 54  1  0  0  0  0
 20 55  1  0  0  0  0
 22 56  1  0  0  0  0
 27 57  1  0  0  0  0
 28 58  1  0  0  0  0
 31 59  1  0  0  0  0
 32 60  1  0  0  0  0
 33 61  1  0  0  0  0
 33 62  1  0  0  0  0
M  END
> <s_user_Name>
CHEMBL3402763_90

> <IC50[nM]>
90

$$$$
