36
  -OEChem-05192314333D
 Structure written by MMmdl.
 53 57  0     0  0  0  0  0  0999 V2000
   -6.3988   12.3548  -12.0167 C   0  0  0  0  0  0  0  0  0  0  0  0
   -6.5634   11.7828  -10.7362 C   0  0  0  0  0  0  0  0  0  0  0  0
   -7.7338   10.5694  -13.0370 C   0  0  0  0  0  0  0  0  0  0  0  0
   -6.9985   11.7556  -13.1278 C   0  0  0  0  0  0  0  0  0  0  0  0
   -7.8247    9.9971  -11.7595 C   0  0  0  0  0  0  0  0  0  0  0  0
   -7.2595   10.6059  -10.6156 C   0  0  0  0  0  0  0  0  0  0  0  0
   -7.6196    9.7377   -9.5218 C   0  0  0  0  0  0  0  0  0  0  0  0
   -8.2737    8.7166   -9.9897 N   0  0  0  0  0  0  0  0  0  0  0  0
   -8.4125    8.8485  -11.3029 N   0  0  0  0  0  0  0  0  0  0  0  0
   -7.3396    9.8926   -8.0318 C   0  0  0  0  0  0  0  0  0  0  0  0
   -4.5445   13.8618  -11.3707 N   0  0  0  0  0  0  0  0  0  0  0  0
   -5.5979   13.6472  -12.1806 C   0  0  0  0  0  0  0  0  0  0  0  0
   -5.9190   14.4711  -13.0424 O   0  0  0  0  0  0  0  0  0  0  0  0
   -5.9590   10.4852   -7.7375 C   0  0  0  0  0  0  0  0  0  0  0  0
   -5.8471   11.7541   -7.1585 C   0  0  0  0  0  0  0  0  0  0  0  0
   -4.5907   12.3017   -6.9141 C   0  0  0  0  0  0  0  0  0  0  0  0
   -3.4394   11.5818   -7.2374 C   0  0  0  0  0  0  0  0  0  0  0  0
   -3.5527   10.3083   -7.8066 C   0  0  0  0  0  0  0  0  0  0  0  0
   -4.8082    9.7633   -8.0562 C   0  0  0  0  0  0  0  0  0  0  0  0
   -2.0898   12.1596   -6.9778 C   0  0  0  0  0  0  0  0  0  0  0  0
   -1.7390   13.4130   -6.4881 C   0  0  0  0  0  0  0  0  0  0  0  0
   -0.3978   13.4480   -6.4305 N   0  0  0  0  0  0  0  0  0  0  0  0
    0.1868   12.3491   -6.8198 N   0  0  0  0  0  0  0  0  0  0  0  0
   -0.8044   11.5467   -7.1770 C   0  0  0  0  0  0  0  0  0  0  0  0
    0.4420   14.5581   -5.9859 C   0  0  0  0  0  0  0  0  0  0  0  0
   -3.7035   15.0408  -11.2447 C   0  0  0  0  0  0  0  0  0  0  0  0
   -3.1688   14.3872   -9.9709 C   0  0  0  0  0  0  0  0  0  0  0  0
   -4.1668   13.2516  -10.0984 C   0  0  0  0  0  0  0  0  0  0  0  0
   -1.8336   13.9158  -10.0706 O   0  0  0  0  0  0  0  0  0  0  0  0
   -0.8619   14.9477  -10.1504 C   0  0  0  0  0  0  0  0  0  0  0  0
   -6.1473   12.2646   -9.8638 H   0  0  0  0  0  0  0  0  0  0  0  0
   -8.2039   10.1205  -13.8995 H   0  0  0  0  0  0  0  0  0  0  0  0
   -6.8899   12.2266  -14.0936 H   0  0  0  0  0  0  0  0  0  0  0  0
   -8.6183    7.9516   -9.4455 H   0  0  0  0  0  0  0  0  0  0  0  0
   -8.1040   10.5547   -7.5991 H   0  0  0  0  0  0  0  0  0  0  0  0
   -7.4029    8.9014   -7.5590 H   0  0  0  0  0  0  0  0  0  0  0  0
   -6.7368   12.3095   -6.9008 H   0  0  0  0  0  0  0  0  0  0  0  0
   -4.5068   13.2844   -6.4740 H   0  0  0  0  0  0  0  0  0  0  0  0
   -2.6633    9.7472   -8.0527 H   0  0  0  0  0  0  0  0  0  0  0  0
   -4.8922    8.7809   -8.4969 H   0  0  0  0  0  0  0  0  0  0  0  0
   -2.4158   14.2066   -6.2077 H   0  0  0  0  0  0  0  0  0  0  0  0
   -0.6640   10.5509   -7.5709 H   0  0  0  0  0  0  0  0  0  0  0  0
    1.5009   14.2685   -6.0560 H   0  0  0  0  0  0  0  0  0  0  0  0
    0.2588   15.4349   -6.6244 H   0  0  0  0  0  0  0  0  0  0  0  0
    0.1984   14.8070   -4.9425 H   0  0  0  0  0  0  0  0  0  0  0  0
   -2.9622   15.1711  -12.0469 H   0  0  0  0  0  0  0  0  0  0  0  0
   -4.2464   15.9849  -11.0903 H   0  0  0  0  0  0  0  0  0  0  0  0
   -3.3555   15.0059   -9.0807 H   0  0  0  0  0  0  0  0  0  0  0  0
   -4.9587   13.2414   -9.3350 H   0  0  0  0  0  0  0  0  0  0  0  0
   -3.7216   12.2489  -10.1783 H   0  0  0  0  0  0  0  0  0  0  0  0
    0.1412   14.5025  -10.2248 H   0  0  0  0  0  0  0  0  0  0  0  0
   -1.0556   15.5656  -11.0396 H   0  0  0  0  0  0  0  0  0  0  0  0
   -0.9185   15.5750   -9.2486 H   0  0  0  0  0  0  0  0  0  0  0  0
  1  2  2  0  0  0  0
  1  4  1  0  0  0  0
  1 12  1  0  0  0  0
  2  6  1  0  0  0  0
  3  4  2  0  0  0  0
  3  5  1  0  0  0  0
  5  6  1  0  0  0  0
  5  9  2  0  0  0  0
  6  7  2  0  0  0  0
  7  8  1  0  0  0  0
  7 10  1  0  0  0  0
  8  9  1  0  0  0  0
 10 14  1  0  0  0  0
 11 12  1  0  0  0  0
 11 26  1  0  0  0  0
 11 28  1  0  0  0  0
 12 13  2  0  0  0  0
 14 15  2  0  0  0  0
 14 19  1  0  0  0  0
 15 16  1  0  0  0  0
 16 17  2  0  0  0  0
 17 18  1  0  0  0  0
 17 20  1  0  0  0  0
 18 19  2  0  0  0  0
 20 21  2  0  0  0  0
 20 24  1  0  0  0  0
 21 22  1  0  0  0  0
 22 23  1  0  0  0  0
 22 25  1  0  0  0  0
 23 24  2  0  0  0  0
 26 27  1  0  0  0  0
 27 28  1  0  0  0  0
 27 29  1  0  0  0  0
 29 30  1  0  0  0  0
  2 31  1  0  0  0  0
  3 32  1  0  0  0  0
  4 33  1  0  0  0  0
  8 34  1  0  0  0  0
 10 35  1  0  0  0  0
 10 36  1  0  0  0  0
 15 37  1  0  0  0  0
 16 38  1  0  0  0  0
 18 39  1  0  0  0  0
 19 40  1  0  0  0  0
 21 41  1  0  0  0  0
 24 42  1  0  0  0  0
 25 43  1  0  0  0  0
 25 44  1  0  0  0  0
 25 45  1  0  0  0  0
 26 46  1  0  0  0  0
 26 47  1  0  0  0  0
 27 48  1  0  0  0  0
 28 49  1  0  0  0  0
 28 50  1  0  0  0  0
 30 51  1  0  0  0  0
 30 52  1  0  0  0  0
 30 53  1  0  0  0  0
M  END
> <Name>
36

> <IC50[uM]>
0.006

$$$$
36
  -OEChem-05192314333D
 Structure written by MMmdl.
 53 57  0     0  0  0  0  0  0999 V2000
   -6.3988   12.3548  -12.0167 C   0  0  0  0  0  0  0  0  0  0  0  0
   -6.5634   11.7828  -10.7362 C   0  0  0  0  0  0  0  0  0  0  0  0
   -7.7338   10.5694  -13.0370 C   0  0  0  0  0  0  0  0  0  0  0  0
   -6.9985   11.7556  -13.1278 C   0  0  0  0  0  0  0  0  0  0  0  0
   -7.8247    9.9971  -11.7595 C   0  0  0  0  0  0  0  0  0  0  0  0
   -7.2595   10.6059  -10.6156 C   0  0  0  0  0  0  0  0  0  0  0  0
   -7.6196    9.7377   -9.5218 C   0  0  0  0  0  0  0  0  0  0  0  0
   -8.2737    8.7166   -9.9897 N   0  0  0  0  0  0  0  0  0  0  0  0
   -8.4125    8.8485  -11.3029 N   0  0  0  0  0  0  0  0  0  0  0  0
   -7.3396    9.8926   -8.0318 C   0  0  0  0  0  0  0  0  0  0  0  0
   -4.5445   13.8618  -11.3707 N   0  0  0  0  0  0  0  0  0  0  0  0
   -5.5979   13.6472  -12.1806 C   0  0  0  0  0  0  0  0  0  0  0  0
   -5.9190   14.4711  -13.0424 O   0  0  0  0  0  0  0  0  0  0  0  0
   -5.9590   10.4852   -7.7375 C   0  0  0  0  0  0  0  0  0  0  0  0
   -5.8471   11.7541   -7.1585 C   0  0  0  0  0  0  0  0  0  0  0  0
   -4.5907   12.3017   -6.9141 C   0  0  0  0  0  0  0  0  0  0  0  0
   -3.4394   11.5818   -7.2374 C   0  0  0  0  0  0  0  0  0  0  0  0
   -3.5527   10.3083   -7.8066 C   0  0  0  0  0  0  0  0  0  0  0  0
   -4.8082    9.7633   -8.0562 C   0  0  0  0  0  0  0  0  0  0  0  0
   -2.0898   12.1596   -6.9778 C   0  0  0  0  0  0  0  0  0  0  0  0
   -1.7390   13.4130   -6.4881 C   0  0  0  0  0  0  0  0  0  0  0  0
   -0.3978   13.4480   -6.4305 N   0  0  0  0  0  0  0  0  0  0  0  0
    0.1868   12.3491   -6.8198 N   0  0  0  0  0  0  0  0  0  0  0  0
   -0.8044   11.5467   -7.1770 C   0  0  0  0  0  0  0  0  0  0  0  0
    0.4420   14.5581   -5.9859 C   0  0  0  0  0  0  0  0  0  0  0  0
   -3.7035   15.0408  -11.2447 C   0  0  0  0  0  0  0  0  0  0  0  0
   -3.1688   14.3872   -9.9709 C   0  0  0  0  0  0  0  0  0  0  0  0
   -4.1668   13.2516  -10.0984 C   0  0  0  0  0  0  0  0  0  0  0  0
   -1.8336   13.9158  -10.0706 O   0  0  0  0  0  0  0  0  0  0  0  0
   -0.8619   14.9477  -10.1504 C   0  0  0  0  0  0  0  0  0  0  0  0
   -6.1473   12.2646   -9.8638 H   0  0  0  0  0  0  0  0  0  0  0  0
   -8.2039   10.1205  -13.8995 H   0  0  0  0  0  0  0  0  0  0  0  0
   -6.8899   12.2266  -14.0936 H   0  0  0  0  0  0  0  0  0  0  0  0
   -8.8878    8.1901  -11.8866 H   0  0  0  0  0  0  0  0  0  0  0  0
   -8.1040   10.5547   -7.5991 H   0  0  0  0  0  0  0  0  0  0  0  0
   -7.4029    8.9014   -7.5590 H   0  0  0  0  0  0  0  0  0  0  0  0
   -6.7368   12.3095   -6.9008 H   0  0  0  0  0  0  0  0  0  0  0  0
   -4.5068   13.2844   -6.4740 H   0  0  0  0  0  0  0  0  0  0  0  0
   -2.6633    9.7472   -8.0527 H   0  0  0  0  0  0  0  0  0  0  0  0
   -4.8922    8.7809   -8.4969 H   0  0  0  0  0  0  0  0  0  0  0  0
   -2.4158   14.2066   -6.2077 H   0  0  0  0  0  0  0  0  0  0  0  0
   -0.6640   10.5509   -7.5709 H   0  0  0  0  0  0  0  0  0  0  0  0
    1.5009   14.2685   -6.0560 H   0  0  0  0  0  0  0  0  0  0  0  0
    0.2588   15.4349   -6.6244 H   0  0  0  0  0  0  0  0  0  0  0  0
    0.1984   14.8070   -4.9425 H   0  0  0  0  0  0  0  0  0  0  0  0
   -2.9622   15.1711  -12.0469 H   0  0  0  0  0  0  0  0  0  0  0  0
   -4.2464   15.9849  -11.0903 H   0  0  0  0  0  0  0  0  0  0  0  0
   -3.3555   15.0059   -9.0807 H   0  0  0  0  0  0  0  0  0  0  0  0
   -4.9587   13.2414   -9.3350 H   0  0  0  0  0  0  0  0  0  0  0  0
   -3.7216   12.2489  -10.1783 H   0  0  0  0  0  0  0  0  0  0  0  0
    0.1412   14.5025  -10.2248 H   0  0  0  0  0  0  0  0  0  0  0  0
   -1.0556   15.5656  -11.0396 H   0  0  0  0  0  0  0  0  0  0  0  0
   -0.9185   15.5750   -9.2486 H   0  0  0  0  0  0  0  0  0  0  0  0
  1  2  2  0  0  0  0
  1  4  1  0  0  0  0
  1 12  1  0  0  0  0
  2  6  1  0  0  0  0
  3  4  2  0  0  0  0
  3  5  1  0  0  0  0
  5  6  2  0  0  0  0
  5  9  1  0  0  0  0
  6  7  1  0  0  0  0
  7  8  2  0  0  0  0
  7 10  1  0  0  0  0
  8  9  1  0  0  0  0
 10 14  1  0  0  0  0
 11 12  1  0  0  0  0
 11 26  1  0  0  0  0
 11 28  1  0  0  0  0
 12 13  2  0  0  0  0
 14 15  2  0  0  0  0
 14 19  1  0  0  0  0
 15 16  1  0  0  0  0
 16 17  2  0  0  0  0
 17 18  1  0  0  0  0
 17 20  1  0  0  0  0
 18 19  2  0  0  0  0
 20 21  2  0  0  0  0
 20 24  1  0  0  0  0
 21 22  1  0  0  0  0
 22 23  1  0  0  0  0
 22 25  1  0  0  0  0
 23 24  2  0  0  0  0
 26 27  1  0  0  0  0
 27 28  1  0  0  0  0
 27 29  1  0  0  0  0
 29 30  1  0  0  0  0
  2 31  1  0  0  0  0
  3 32  1  0  0  0  0
  4 33  1  0  0  0  0
  9 34  1  0  0  0  0
 10 35  1  0  0  0  0
 10 36  1  0  0  0  0
 15 37  1  0  0  0  0
 16 38  1  0  0  0  0
 18 39  1  0  0  0  0
 19 40  1  0  0  0  0
 21 41  1  0  0  0  0
 24 42  1  0  0  0  0
 25 43  1  0  0  0  0
 25 44  1  0  0  0  0
 25 45  1  0  0  0  0
 26 46  1  0  0  0  0
 26 47  1  0  0  0  0
 27 48  1  0  0  0  0
 28 49  1  0  0  0  0
 28 50  1  0  0  0  0
 30 51  1  0  0  0  0
 30 52  1  0  0  0  0
 30 53  1  0  0  0  0
M  END
> <Name>
36

> <IC50[uM]>
0.006

$$$$
36
  -OEChem-05192314333D
 Structure written by MMmdl.
 53 57  0     1  0  0  0  0  0999 V2000
   -6.3988   12.3548  -12.0167 C   0  0  0  0  0  0  0  0  0  0  0  0
   -6.5634   11.7828  -10.7362 C   0  0  0  0  0  0  0  0  0  0  0  0
   -7.7338   10.5694  -13.0370 C   0  0  0  0  0  0  0  0  0  0  0  0
   -6.9985   11.7556  -13.1278 C   0  0  0  0  0  0  0  0  0  0  0  0
   -7.8247    9.9971  -11.7595 C   0  0  0  0  0  0  0  0  0  0  0  0
   -7.2595   10.6059  -10.6156 C   0  0  0  0  0  0  0  0  0  0  0  0
   -7.6196    9.7377   -9.5218 C   0  0  3  0  0  0  0  0  0  0  0  0
   -8.2737    8.7166   -9.9897 N   0  0  0  0  0  0  0  0  0  0  0  0
   -8.4125    8.8485  -11.3029 N   0  0  0  0  0  0  0  0  0  0  0  0
   -7.3396    9.8926   -8.0318 C   0  0  0  0  0  0  0  0  0  0  0  0
   -4.5445   13.8618  -11.3707 N   0  0  0  0  0  0  0  0  0  0  0  0
   -5.5979   13.6472  -12.1806 C   0  0  0  0  0  0  0  0  0  0  0  0
   -5.9190   14.4711  -13.0424 O   0  0  0  0  0  0  0  0  0  0  0  0
   -5.9590   10.4852   -7.7375 C   0  0  0  0  0  0  0  0  0  0  0  0
   -5.8471   11.7541   -7.1585 C   0  0  0  0  0  0  0  0  0  0  0  0
   -4.5907   12.3017   -6.9141 C   0  0  0  0  0  0  0  0  0  0  0  0
   -3.4394   11.5818   -7.2374 C   0  0  0  0  0  0  0  0  0  0  0  0
   -3.5527   10.3083   -7.8066 C   0  0  0  0  0  0  0  0  0  0  0  0
   -4.8082    9.7633   -8.0562 C   0  0  0  0  0  0  0  0  0  0  0  0
   -2.0898   12.1596   -6.9778 C   0  0  0  0  0  0  0  0  0  0  0  0
   -1.7390   13.4130   -6.4881 C   0  0  0  0  0  0  0  0  0  0  0  0
   -0.3978   13.4480   -6.4305 N   0  0  0  0  0  0  0  0  0  0  0  0
    0.1868   12.3491   -6.8198 N   0  0  0  0  0  0  0  0  0  0  0  0
   -0.8044   11.5467   -7.1770 C   0  0  0  0  0  0  0  0  0  0  0  0
    0.4420   14.5581   -5.9859 C   0  0  0  0  0  0  0  0  0  0  0  0
   -3.7035   15.0408  -11.2447 C   0  0  0  0  0  0  0  0  0  0  0  0
   -3.1688   14.3872   -9.9709 C   0  0  0  0  0  0  0  0  0  0  0  0
   -4.1668   13.2516  -10.0984 C   0  0  0  0  0  0  0  0  0  0  0  0
   -1.8336   13.9158  -10.0706 O   0  0  0  0  0  0  0  0  0  0  0  0
   -0.8619   14.9477  -10.1504 C   0  0  0  0  0  0  0  0  0  0  0  0
   -6.1473   12.2646   -9.8638 H   0  0  0  0  0  0  0  0  0  0  0  0
   -8.2039   10.1205  -13.8995 H   0  0  0  0  0  0  0  0  0  0  0  0
   -6.8899   12.2266  -14.0936 H   0  0  0  0  0  0  0  0  0  0  0  0
   -6.6738    9.1895   -9.6438 H   0  0  0  0  0  0  0  0  0  0  0  0
   -8.1040   10.5547   -7.5991 H   0  0  0  0  0  0  0  0  0  0  0  0
   -7.4029    8.9014   -7.5590 H   0  0  0  0  0  0  0  0  0  0  0  0
   -6.7368   12.3095   -6.9008 H   0  0  0  0  0  0  0  0  0  0  0  0
   -4.5068   13.2844   -6.4740 H   0  0  0  0  0  0  0  0  0  0  0  0
   -2.6633    9.7472   -8.0527 H   0  0  0  0  0  0  0  0  0  0  0  0
   -4.8922    8.7809   -8.4969 H   0  0  0  0  0  0  0  0  0  0  0  0
   -2.4158   14.2066   -6.2077 H   0  0  0  0  0  0  0  0  0  0  0  0
   -0.6640   10.5509   -7.5709 H   0  0  0  0  0  0  0  0  0  0  0  0
    1.5009   14.2685   -6.0560 H   0  0  0  0  0  0  0  0  0  0  0  0
    0.2588   15.4349   -6.6244 H   0  0  0  0  0  0  0  0  0  0  0  0
    0.1984   14.8070   -4.9425 H   0  0  0  0  0  0  0  0  0  0  0  0
   -2.9622   15.1711  -12.0469 H   0  0  0  0  0  0  0  0  0  0  0  0
   -4.2464   15.9849  -11.0903 H   0  0  0  0  0  0  0  0  0  0  0  0
   -3.3555   15.0059   -9.0807 H   0  0  0  0  0  0  0  0  0  0  0  0
   -4.9587   13.2414   -9.3350 H   0  0  0  0  0  0  0  0  0  0  0  0
   -3.7216   12.2489  -10.1783 H   0  0  0  0  0  0  0  0  0  0  0  0
    0.1412   14.5025  -10.2248 H   0  0  0  0  0  0  0  0  0  0  0  0
   -1.0556   15.5656  -11.0396 H   0  0  0  0  0  0  0  0  0  0  0  0
   -0.9185   15.5750   -9.2486 H   0  0  0  0  0  0  0  0  0  0  0  0
  1  2  2  0  0  0  0
  1  4  1  0  0  0  0
  1 12  1  0  0  0  0
  2  6  1  0  0  0  0
  3  4  2  0  0  0  0
  3  5  1  0  0  0  0
  5  6  2  0  0  0  0
  5  9  1  0  0  0  0
  6  7  1  0  0  0  0
  7  8  1  0  0  0  0
  7 10  1  0  0  0  0
  8  9  2  0  0  0  0
 10 14  1  0  0  0  0
 11 12  1  0  0  0  0
 11 26  1  0  0  0  0
 11 28  1  0  0  0  0
 12 13  2  0  0  0  0
 14 15  2  0  0  0  0
 14 19  1  0  0  0  0
 15 16  1  0  0  0  0
 16 17  2  0  0  0  0
 17 18  1  0  0  0  0
 17 20  1  0  0  0  0
 18 19  2  0  0  0  0
 20 21  2  0  0  0  0
 20 24  1  0  0  0  0
 21 22  1  0  0  0  0
 22 23  1  0  0  0  0
 22 25  1  0  0  0  0
 23 24  2  0  0  0  0
 26 27  1  0  0  0  0
 27 28  1  0  0  0  0
 27 29  1  0  0  0  0
 29 30  1  0  0  0  0
  2 31  1  0  0  0  0
  3 32  1  0  0  0  0
  4 33  1  0  0  0  0
  7 34  1  0  0  0  0
 10 35  1  0  0  0  0
 10 36  1  0  0  0  0
 15 37  1  0  0  0  0
 16 38  1  0  0  0  0
 18 39  1  0  0  0  0
 19 40  1  0  0  0  0
 21 41  1  0  0  0  0
 24 42  1  0  0  0  0
 25 43  1  0  0  0  0
 25 44  1  0  0  0  0
 25 45  1  0  0  0  0
 26 46  1  0  0  0  0
 26 47  1  0  0  0  0
 27 48  1  0  0  0  0
 28 49  1  0  0  0  0
 28 50  1  0  0  0  0
 30 51  1  0  0  0  0
 30 52  1  0  0  0  0
 30 53  1  0  0  0  0
M  END
> <Name>
36

> <IC50[uM]>
0.006

$$$$
36
  -OEChem-05192314333D
 Structure written by MMmdl.
 53 57  0     0  0  0  0  0  0999 V2000
   -6.3988   12.3548  -12.0167 C   0  0  0  0  0  0  0  0  0  0  0  0
   -6.5634   11.7828  -10.7362 C   0  0  0  0  0  0  0  0  0  0  0  0
   -7.7338   10.5694  -13.0370 C   0  0  0  0  0  0  0  0  0  0  0  0
   -6.9985   11.7556  -13.1278 C   0  0  0  0  0  0  0  0  0  0  0  0
   -7.8247    9.9971  -11.7595 C   0  0  0  0  0  0  0  0  0  0  0  0
   -7.2595   10.6059  -10.6156 C   0  0  0  0  0  0  0  0  0  0  0  0
   -7.6196    9.7377   -9.5218 C   0  0  0  0  0  0  0  0  0  0  0  0
   -8.2737    8.7166   -9.9897 N   0  0  0  0  0  0  0  0  0  0  0  0
   -8.4125    8.8485  -11.3029 N   0  0  0  0  0  0  0  0  0  0  0  0
   -7.3396    9.8926   -8.0318 C   0  0  0  0  0  0  0  0  0  0  0  0
   -4.5445   13.8618  -11.3707 N   0  0  0  0  0  0  0  0  0  0  0  0
   -5.5979   13.6472  -12.1806 C   0  0  0  0  0  0  0  0  0  0  0  0
   -5.9190   14.4711  -13.0424 O   0  0  0  0  0  0  0  0  0  0  0  0
   -5.9590   10.4852   -7.7375 C   0  0  0  0  0  0  0  0  0  0  0  0
   -5.8471   11.7541   -7.1585 C   0  0  0  0  0  0  0  0  0  0  0  0
   -4.5907   12.3017   -6.9141 C   0  0  0  0  0  0  0  0  0  0  0  0
   -3.4394   11.5818   -7.2374 C   0  0  0  0  0  0  0  0  0  0  0  0
   -3.5527   10.3083   -7.8066 C   0  0  0  0  0  0  0  0  0  0  0  0
   -4.8082    9.7633   -8.0562 C   0  0  0  0  0  0  0  0  0  0  0  0
   -2.0898   12.1596   -6.9778 C   0  0  0  0  0  0  0  0  0  0  0  0
   -1.7390   13.4130   -6.4881 C   0  0  0  0  0  0  0  0  0  0  0  0
   -0.3978   13.4480   -6.4305 N   0  0  0  0  0  0  0  0  0  0  0  0
    0.1868   12.3491   -6.8198 N   0  0  0  0  0  0  0  0  0  0  0  0
   -0.8044   11.5467   -7.1770 C   0  0  0  0  0  0  0  0  0  0  0  0
    0.4420   14.5581   -5.9859 C   0  0  0  0  0  0  0  0  0  0  0  0
   -3.7035   15.0408  -11.2447 C   0  0  0  0  0  0  0  0  0  0  0  0
   -3.1688   14.3872   -9.9709 C   0  0  0  0  0  0  0  0  0  0  0  0
   -4.1668   13.2516  -10.0984 C   0  0  0  0  0  0  0  0  0  0  0  0
   -1.8336   13.9158  -10.0706 O   0  0  0  0  0  0  0  0  0  0  0  0
   -0.8619   14.9477  -10.1504 C   0  0  0  0  0  0  0  0  0  0  0  0
   -6.1473   12.2646   -9.8638 H   0  0  0  0  0  0  0  0  0  0  0  0
   -8.2039   10.1205  -13.8995 H   0  0  0  0  0  0  0  0  0  0  0  0
   -6.8899   12.2266  -14.0936 H   0  0  0  0  0  0  0  0  0  0  0  0
   -7.7691    7.8767   -9.7899 H   0  0  0  0  0  0  0  0  0  0  0  0
   -9.3872    8.8723  -11.5253 H   0  0  0  0  0  0  0  0  0  0  0  0
   -8.0434    9.6128   -7.2619 H   0  0  0  0  0  0  0  0  0  0  0  0
   -6.7368   12.3095   -6.9008 H   0  0  0  0  0  0  0  0  0  0  0  0
   -4.5068   13.2844   -6.4740 H   0  0  0  0  0  0  0  0  0  0  0  0
   -2.6633    9.7472   -8.0527 H   0  0  0  0  0  0  0  0  0  0  0  0
   -4.8922    8.7809   -8.4969 H   0  0  0  0  0  0  0  0  0  0  0  0
   -2.4158   14.2066   -6.2077 H   0  0  0  0  0  0  0  0  0  0  0  0
   -0.6640   10.5509   -7.5709 H   0  0  0  0  0  0  0  0  0  0  0  0
    1.5009   14.2685   -6.0560 H   0  0  0  0  0  0  0  0  0  0  0  0
    0.2588   15.4349   -6.6244 H   0  0  0  0  0  0  0  0  0  0  0  0
    0.1984   14.8070   -4.9425 H   0  0  0  0  0  0  0  0  0  0  0  0
   -2.9622   15.1711  -12.0469 H   0  0  0  0  0  0  0  0  0  0  0  0
   -4.2464   15.9849  -11.0903 H   0  0  0  0  0  0  0  0  0  0  0  0
   -3.3555   15.0059   -9.0807 H   0  0  0  0  0  0  0  0  0  0  0  0
   -4.9587   13.2414   -9.3350 H   0  0  0  0  0  0  0  0  0  0  0  0
   -3.7216   12.2489  -10.1783 H   0  0  0  0  0  0  0  0  0  0  0  0
    0.1412   14.5025  -10.2248 H   0  0  0  0  0  0  0  0  0  0  0  0
   -1.0556   15.5656  -11.0396 H   0  0  0  0  0  0  0  0  0  0  0  0
   -0.9185   15.5750   -9.2486 H   0  0  0  0  0  0  0  0  0  0  0  0
  1  2  2  0  0  0  0
  1  4  1  0  0  0  0
  1 12  1  0  0  0  0
  2  6  1  0  0  0  0
  3  4  2  0  0  0  0
  3  5  1  0  0  0  0
  5  6  2  0  0  0  0
  5  9  1  0  0  0  0
  6  7  1  0  0  0  0
  7  8  1  0  0  0  0
  7 10  2  3  0  0  0
  8  9  1  0  0  0  0
 10 14  1  0  0  0  0
 11 12  1  0  0  0  0
 11 26  1  0  0  0  0
 11 28  1  0  0  0  0
 12 13  2  0  0  0  0
 14 15  2  0  0  0  0
 14 19  1  0  0  0  0
 15 16  1  0  0  0  0
 16 17  2  0  0  0  0
 17 18  1  0  0  0  0
 17 20  1  0  0  0  0
 18 19  2  0  0  0  0
 20 21  2  0  0  0  0
 20 24  1  0  0  0  0
 21 22  1  0  0  0  0
 22 23  1  0  0  0  0
 22 25  1  0  0  0  0
 23 24  2  0  0  0  0
 26 27  1  0  0  0  0
 27 28  1  0  0  0  0
 27 29  1  0  0  0  0
 29 30  1  0  0  0  0
  2 31  1  0  0  0  0
  3 32  1  0  0  0  0
  4 33  1  0  0  0  0
  8 34  1  0  0  0  0
  9 35  1  0  0  0  0
 10 36  1  0  0  0  0
 15 37  1  0  0  0  0
 16 38  1  0  0  0  0
 18 39  1  0  0  0  0
 19 40  1  0  0  0  0
 21 41  1  0  0  0  0
 24 42  1  0  0  0  0
 25 43  1  0  0  0  0
 25 44  1  0  0  0  0
 25 45  1  0  0  0  0
 26 46  1  0  0  0  0
 26 47  1  0  0  0  0
 27 48  1  0  0  0  0
 28 49  1  0  0  0  0
 28 50  1  0  0  0  0
 30 51  1  0  0  0  0
 30 52  1  0  0  0  0
 30 53  1  0  0  0  0
M  END
> <Name>
36

> <IC50[uM]>
0.006

$$$$
36
  -OEChem-05192314333D
 Structure written by MMmdl.
 53 57  0     1  0  0  0  0  0999 V2000
   -6.3988   12.3548  -12.0167 C   0  0  3  0  0  0  0  0  0  0  0  0
   -6.5634   11.7828  -10.7362 C   0  0  0  0  0  0  0  0  0  0  0  0
   -7.7338   10.5694  -13.0370 C   0  0  0  0  0  0  0  0  0  0  0  0
   -6.9985   11.7556  -13.1278 C   0  0  0  0  0  0  0  0  0  0  0  0
   -7.8247    9.9971  -11.7595 C   0  0  0  0  0  0  0  0  0  0  0  0
   -7.2595   10.6059  -10.6156 C   0  0  0  0  0  0  0  0  0  0  0  0
   -7.6196    9.7377   -9.5218 C   0  0  0  0  0  0  0  0  0  0  0  0
   -8.2737    8.7166   -9.9897 N   0  0  0  0  0  0  0  0  0  0  0  0
   -8.4125    8.8485  -11.3029 N   0  0  0  0  0  0  0  0  0  0  0  0
   -7.3396    9.8926   -8.0318 C   0  0  0  0  0  0  0  0  0  0  0  0
   -4.5445   13.8618  -11.3707 N   0  0  0  0  0  0  0  0  0  0  0  0
   -5.5979   13.6472  -12.1806 C   0  0  0  0  0  0  0  0  0  0  0  0
   -5.9190   14.4711  -13.0424 O   0  0  0  0  0  0  0  0  0  0  0  0
   -5.9590   10.4852   -7.7375 C   0  0  0  0  0  0  0  0  0  0  0  0
   -5.8471   11.7541   -7.1585 C   0  0  0  0  0  0  0  0  0  0  0  0
   -4.5907   12.3017   -6.9141 C   0  0  0  0  0  0  0  0  0  0  0  0
   -3.4394   11.5818   -7.2374 C   0  0  0  0  0  0  0  0  0  0  0  0
   -3.5527   10.3083   -7.8066 C   0  0  0  0  0  0  0  0  0  0  0  0
   -4.8082    9.7633   -8.0562 C   0  0  0  0  0  0  0  0  0  0  0  0
   -2.0898   12.1596   -6.9778 C   0  0  0  0  0  0  0  0  0  0  0  0
   -1.7390   13.4130   -6.4881 C   0  0  0  0  0  0  0  0  0  0  0  0
   -0.3978   13.4480   -6.4305 N   0  0  0  0  0  0  0  0  0  0  0  0
    0.1868   12.3491   -6.8198 N   0  0  0  0  0  0  0  0  0  0  0  0
   -0.8044   11.5467   -7.1770 C   0  0  0  0  0  0  0  0  0  0  0  0
    0.4420   14.5581   -5.9859 C   0  0  0  0  0  0  0  0  0  0  0  0
   -3.7035   15.0408  -11.2447 C   0  0  0  0  0  0  0  0  0  0  0  0
   -3.1688   14.3872   -9.9709 C   0  0  0  0  0  0  0  0  0  0  0  0
   -4.1668   13.2516  -10.0984 C   0  0  0  0  0  0  0  0  0  0  0  0
   -1.8336   13.9158  -10.0706 O   0  0  0  0  0  0  0  0  0  0  0  0
   -0.8619   14.9477  -10.1504 C   0  0  0  0  0  0  0  0  0  0  0  0
   -5.4875   11.7597  -12.1757 H   0  0  0  0  0  0  0  0  0  0  0  0
   -6.1473   12.2646   -9.8638 H   0  0  0  0  0  0  0  0  0  0  0  0
   -8.2039   10.1205  -13.8995 H   0  0  0  0  0  0  0  0  0  0  0  0
   -6.8899   12.2266  -14.0936 H   0  0  0  0  0  0  0  0  0  0  0  0
   -8.6183    7.9516   -9.4455 H   0  0  0  0  0  0  0  0  0  0  0  0
   -8.0434    9.6128   -7.2619 H   0  0  0  0  0  0  0  0  0  0  0  0
   -6.7368   12.3095   -6.9008 H   0  0  0  0  0  0  0  0  0  0  0  0
   -4.5068   13.2844   -6.4740 H   0  0  0  0  0  0  0  0  0  0  0  0
   -2.6633    9.7472   -8.0527 H   0  0  0  0  0  0  0  0  0  0  0  0
   -4.8922    8.7809   -8.4969 H   0  0  0  0  0  0  0  0  0  0  0  0
   -2.4158   14.2066   -6.2077 H   0  0  0  0  0  0  0  0  0  0  0  0
   -0.6640   10.5509   -7.5709 H   0  0  0  0  0  0  0  0  0  0  0  0
    1.5009   14.2685   -6.0560 H   0  0  0  0  0  0  0  0  0  0  0  0
    0.2588   15.4349   -6.6244 H   0  0  0  0  0  0  0  0  0  0  0  0
    0.1984   14.8070   -4.9425 H   0  0  0  0  0  0  0  0  0  0  0  0
   -2.9622   15.1711  -12.0469 H   0  0  0  0  0  0  0  0  0  0  0  0
   -4.2464   15.9849  -11.0903 H   0  0  0  0  0  0  0  0  0  0  0  0
   -3.3555   15.0059   -9.0807 H   0  0  0  0  0  0  0  0  0  0  0  0
   -4.9587   13.2414   -9.3350 H   0  0  0  0  0  0  0  0  0  0  0  0
   -3.7216   12.2489  -10.1783 H   0  0  0  0  0  0  0  0  0  0  0  0
    0.1412   14.5025  -10.2248 H   0  0  0  0  0  0  0  0  0  0  0  0
   -1.0556   15.5656  -11.0396 H   0  0  0  0  0  0  0  0  0  0  0  0
   -0.9185   15.5750   -9.2486 H   0  0  0  0  0  0  0  0  0  0  0  0
  1  2  1  0  0  0  0
  1  4  1  0  0  0  0
  1 12  1  0  0  0  0
  2  6  2  0  0  0  0
  3  4  2  0  0  0  0
  3  5  1  0  0  0  0
  5  6  1  0  0  0  0
  5  9  2  0  0  0  0
  6  7  1  0  0  0  0
  7  8  1  0  0  0  0
  7 10  2  3  0  0  0
  8  9  1  0  0  0  0
 10 14  1  0  0  0  0
 11 12  1  0  0  0  0
 11 26  1  0  0  0  0
 11 28  1  0  0  0  0
 12 13  2  0  0  0  0
 14 15  2  0  0  0  0
 14 19  1  0  0  0  0
 15 16  1  0  0  0  0
 16 17  2  0  0  0  0
 17 18  1  0  0  0  0
 17 20  1  0  0  0  0
 18 19  2  0  0  0  0
 20 21  2  0  0  0  0
 20 24  1  0  0  0  0
 21 22  1  0  0  0  0
 22 23  1  0  0  0  0
 22 25  1  0  0  0  0
 23 24  2  0  0  0  0
 26 27  1  0  0  0  0
 27 28  1  0  0  0  0
 27 29  1  0  0  0  0
 29 30  1  0  0  0  0
  1 31  1  0  0  0  0
  2 32  1  0  0  0  0
  3 33  1  0  0  0  0
  4 34  1  0  0  0  0
  8 35  1  0  0  0  0
 10 36  1  0  0  0  0
 15 37  1  0  0  0  0
 16 38  1  0  0  0  0
 18 39  1  0  0  0  0
 19 40  1  0  0  0  0
 21 41  1  0  0  0  0
 24 42  1  0  0  0  0
 25 43  1  0  0  0  0
 25 44  1  0  0  0  0
 25 45  1  0  0  0  0
 26 46  1  0  0  0  0
 26 47  1  0  0  0  0
 27 48  1  0  0  0  0
 28 49  1  0  0  0  0
 28 50  1  0  0  0  0
 30 51  1  0  0  0  0
 30 52  1  0  0  0  0
 30 53  1  0  0  0  0
M  END
> <Name>
36

> <IC50[uM]>
0.006

$$$$
36
  -OEChem-05192314333D
 Structure written by MMmdl.
 53 57  0     0  0  0  0  0  0999 V2000
   -6.3988   12.3548  -12.0167 C   0  0  0  0  0  0  0  0  0  0  0  0
   -6.5634   11.7828  -10.7362 C   0  0  0  0  0  0  0  0  0  0  0  0
   -7.7338   10.5694  -13.0370 C   0  0  0  0  0  0  0  0  0  0  0  0
   -6.9985   11.7556  -13.1278 C   0  0  0  0  0  0  0  0  0  0  0  0
   -7.8247    9.9971  -11.7595 C   0  0  0  0  0  0  0  0  0  0  0  0
   -7.2595   10.6059  -10.6156 C   0  0  0  0  0  0  0  0  0  0  0  0
   -7.6196    9.7377   -9.5218 C   0  0  0  0  0  0  0  0  0  0  0  0
   -8.2737    8.7166   -9.9897 N   0  0  0  0  0  0  0  0  0  0  0  0
   -8.4125    8.8485  -11.3029 N   0  0  0  0  0  0  0  0  0  0  0  0
   -7.3396    9.8926   -8.0318 C   0  0  0  0  0  0  0  0  0  0  0  0
   -4.5445   13.8618  -11.3707 N   0  0  0  0  0  0  0  0  0  0  0  0
   -5.5979   13.6472  -12.1806 C   0  0  0  0  0  0  0  0  0  0  0  0
   -5.9190   14.4711  -13.0424 O   0  0  0  0  0  0  0  0  0  0  0  0
   -5.9590   10.4852   -7.7375 C   0  0  0  0  0  0  0  0  0  0  0  0
   -5.8471   11.7541   -7.1585 C   0  0  0  0  0  0  0  0  0  0  0  0
   -4.5907   12.3017   -6.9141 C   0  0  0  0  0  0  0  0  0  0  0  0
   -3.4394   11.5818   -7.2374 C   0  0  0  0  0  0  0  0  0  0  0  0
   -3.5527   10.3083   -7.8066 C   0  0  0  0  0  0  0  0  0  0  0  0
   -4.8082    9.7633   -8.0562 C   0  0  0  0  0  0  0  0  0  0  0  0
   -2.0898   12.1596   -6.9778 C   0  0  0  0  0  0  0  0  0  0  0  0
   -1.7390   13.4130   -6.4881 C   0  0  0  0  0  0  0  0  0  0  0  0
   -0.3978   13.4480   -6.4305 N   0  0  0  0  0  0  0  0  0  0  0  0
    0.1868   12.3491   -6.8198 N   0  0  0  0  0  0  0  0  0  0  0  0
   -0.8044   11.5467   -7.1770 C   0  0  0  0  0  0  0  0  0  0  0  0
    0.4420   14.5581   -5.9859 C   0  0  0  0  0  0  0  0  0  0  0  0
   -3.7035   15.0408  -11.2447 C   0  0  0  0  0  0  0  0  0  0  0  0
   -3.1688   14.3872   -9.9709 C   0  0  0  0  0  0  0  0  0  0  0  0
   -4.1668   13.2516  -10.0984 C   0  0  0  0  0  0  0  0  0  0  0  0
   -1.8336   13.9158  -10.0706 O   0  0  0  0  0  0  0  0  0  0  0  0
   -0.8619   14.9477  -10.1504 C   0  0  0  0  0  0  0  0  0  0  0  0
   -6.1473   12.2646   -9.8638 H   0  0  0  0  0  0  0  0  0  0  0  0
   -8.7560   10.7799  -13.3847 H   0  0  0  0  0  0  0  0  0  0  0  0
   -7.2645    9.8310  -13.7037 H   0  0  0  0  0  0  0  0  0  0  0  0
   -6.8899   12.2266  -14.0936 H   0  0  0  0  0  0  0  0  0  0  0  0
   -8.6183    7.9516   -9.4455 H   0  0  0  0  0  0  0  0  0  0  0  0
   -8.0434    9.6128   -7.2619 H   0  0  0  0  0  0  0  0  0  0  0  0
   -6.7368   12.3095   -6.9008 H   0  0  0  0  0  0  0  0  0  0  0  0
   -4.5068   13.2844   -6.4740 H   0  0  0  0  0  0  0  0  0  0  0  0
   -2.6633    9.7472   -8.0527 H   0  0  0  0  0  0  0  0  0  0  0  0
   -4.8922    8.7809   -8.4969 H   0  0  0  0  0  0  0  0  0  0  0  0
   -2.4158   14.2066   -6.2077 H   0  0  0  0  0  0  0  0  0  0  0  0
   -0.6640   10.5509   -7.5709 H   0  0  0  0  0  0  0  0  0  0  0  0
    1.5009   14.2685   -6.0560 H   0  0  0  0  0  0  0  0  0  0  0  0
    0.2588   15.4349   -6.6244 H   0  0  0  0  0  0  0  0  0  0  0  0
    0.1984   14.8070   -4.9425 H   0  0  0  0  0  0  0  0  0  0  0  0
   -2.9622   15.1711  -12.0469 H   0  0  0  0  0  0  0  0  0  0  0  0
   -4.2464   15.9849  -11.0903 H   0  0  0  0  0  0  0  0  0  0  0  0
   -3.3555   15.0059   -9.0807 H   0  0  0  0  0  0  0  0  0  0  0  0
   -4.9587   13.2414   -9.3350 H   0  0  0  0  0  0  0  0  0  0  0  0
   -3.7216   12.2489  -10.1783 H   0  0  0  0  0  0  0  0  0  0  0  0
    0.1412   14.5025  -10.2248 H   0  0  0  0  0  0  0  0  0  0  0  0
   -1.0556   15.5656  -11.0396 H   0  0  0  0  0  0  0  0  0  0  0  0
   -0.9185   15.5750   -9.2486 H   0  0  0  0  0  0  0  0  0  0  0  0
  1  2  1  0  0  0  0
  1  4  2  0  0  0  0
  1 12  1  0  0  0  0
  2  6  2  0  0  0  0
  3  4  1  0  0  0  0
  3  5  1  0  0  0  0
  5  6  1  0  0  0  0
  5  9  2  0  0  0  0
  6  7  1  0  0  0  0
  7  8  1  0  0  0  0
  7 10  2  3  0  0  0
  8  9  1  0  0  0  0
 10 14  1  0  0  0  0
 11 12  1  0  0  0  0
 11 26  1  0  0  0  0
 11 28  1  0  0  0  0
 12 13  2  0  0  0  0
 14 15  2  0  0  0  0
 14 19  1  0  0  0  0
 15 16  1  0  0  0  0
 16 17  2  0  0  0  0
 17 18  1  0  0  0  0
 17 20  1  0  0  0  0
 18 19  2  0  0  0  0
 20 21  2  0  0  0  0
 20 24  1  0  0  0  0
 21 22  1  0  0  0  0
 22 23  1  0  0  0  0
 22 25  1  0  0  0  0
 23 24  2  0  0  0  0
 26 27  1  0  0  0  0
 27 28  1  0  0  0  0
 27 29  1  0  0  0  0
 29 30  1  0  0  0  0
  2 31  1  0  0  0  0
  3 32  1  0  0  0  0
  3 33  1  0  0  0  0
  4 34  1  0  0  0  0
  8 35  1  0  0  0  0
 10 36  1  0  0  0  0
 15 37  1  0  0  0  0
 16 38  1  0  0  0  0
 18 39  1  0  0  0  0
 19 40  1  0  0  0  0
 21 41  1  0  0  0  0
 24 42  1  0  0  0  0
 25 43  1  0  0  0  0
 25 44  1  0  0  0  0
 25 45  1  0  0  0  0
 26 46  1  0  0  0  0
 26 47  1  0  0  0  0
 27 48  1  0  0  0  0
 28 49  1  0  0  0  0
 28 50  1  0  0  0  0
 30 51  1  0  0  0  0
 30 52  1  0  0  0  0
 30 53  1  0  0  0  0
M  END
> <Name>
36

> <IC50[uM]>
0.006

$$$$
36
  -OEChem-05192314333D
 Structure written by MMmdl.
 53 57  0     1  0  0  0  0  0999 V2000
   -6.3988   12.3548  -12.0167 C   0  0  0  0  0  0  0  0  0  0  0  0
   -6.5634   11.7828  -10.7362 C   0  0  0  0  0  0  0  0  0  0  0  0
   -7.7338   10.5694  -13.0370 C   0  0  0  0  0  0  0  0  0  0  0  0
   -6.9985   11.7556  -13.1278 C   0  0  0  0  0  0  0  0  0  0  0  0
   -7.8247    9.9971  -11.7595 C   0  0  0  0  0  0  0  0  0  0  0  0
   -7.2595   10.6059  -10.6156 C   0  0  0  0  0  0  0  0  0  0  0  0
   -7.6196    9.7377   -9.5218 C   0  0  0  0  0  0  0  0  0  0  0  0
   -8.2737    8.7166   -9.9897 N   0  0  0  0  0  0  0  0  0  0  0  0
   -8.4125    8.8485  -11.3029 N   0  0  0  0  0  0  0  0  0  0  0  0
   -7.3396    9.8926   -8.0318 C   0  0  0  0  0  0  0  0  0  0  0  0
   -4.5445   13.8618  -11.3707 N   0  0  0  0  0  0  0  0  0  0  0  0
   -5.5979   13.6472  -12.1806 C   0  0  0  0  0  0  0  0  0  0  0  0
   -5.9190   14.4711  -13.0424 O   0  0  0  0  0  0  0  0  0  0  0  0
   -5.9590   10.4852   -7.7375 C   0  0  0  0  0  0  0  0  0  0  0  0
   -5.8471   11.7541   -7.1585 C   0  0  0  0  0  0  0  0  0  0  0  0
   -4.5907   12.3017   -6.9141 C   0  0  0  0  0  0  0  0  0  0  0  0
   -3.4394   11.5818   -7.2374 C   0  0  0  0  0  0  0  0  0  0  0  0
   -3.5527   10.3083   -7.8066 C   0  0  0  0  0  0  0  0  0  0  0  0
   -4.8082    9.7633   -8.0562 C   0  0  0  0  0  0  0  0  0  0  0  0
   -2.0898   12.1596   -6.9778 C   0  0  0  0  0  0  0  0  0  0  0  0
   -1.7390   13.4130   -6.4881 C   0  0  0  0  0  0  0  0  0  0  0  0
   -0.3978   13.4480   -6.4305 N   0  0  3  0  0  0  0  0  0  0  0  0
    0.1868   12.3491   -6.8198 N   0  0  0  0  0  0  0  0  0  0  0  0
   -0.8044   11.5467   -7.1770 C   0  0  0  0  0  0  0  0  0  0  0  0
    0.4420   14.5581   -5.9859 C   0  0  0  0  0  0  0  0  0  0  0  0
   -3.7035   15.0408  -11.2447 C   0  0  0  0  0  0  0  0  0  0  0  0
   -3.1688   14.3872   -9.9709 C   0  0  0  0  0  0  0  0  0  0  0  0
   -4.1668   13.2516  -10.0984 C   0  0  0  0  0  0  0  0  0  0  0  0
   -1.8336   13.9158  -10.0706 O   0  0  0  0  0  0  0  0  0  0  0  0
   -0.8619   14.9477  -10.1504 C   0  0  0  0  0  0  0  0  0  0  0  0
   -6.1473   12.2646   -9.8638 H   0  0  0  0  0  0  0  0  0  0  0  0
   -8.2039   10.1205  -13.8995 H   0  0  0  0  0  0  0  0  0  0  0  0
   -6.8899   12.2266  -14.0936 H   0  0  0  0  0  0  0  0  0  0  0  0
   -8.6183    7.9516   -9.4455 H   0  0  0  0  0  0  0  0  0  0  0  0
   -8.0434    9.6128   -7.2619 H   0  0  0  0  0  0  0  0  0  0  0  0
   -6.7368   12.3095   -6.9008 H   0  0  0  0  0  0  0  0  0  0  0  0
   -4.5068   13.2844   -6.4740 H   0  0  0  0  0  0  0  0  0  0  0  0
   -2.6633    9.7472   -8.0527 H   0  0  0  0  0  0  0  0  0  0  0  0
   -4.8922    8.7809   -8.4969 H   0  0  0  0  0  0  0  0  0  0  0  0
   -2.1093   14.1996   -7.1620 H   0  0  0  0  0  0  0  0  0  0  0  0
   -2.1647   13.5597   -5.4845 H   0  0  0  0  0  0  0  0  0  0  0  0
   -0.6640   10.5509   -7.5709 H   0  0  0  0  0  0  0  0  0  0  0  0
    1.5009   14.2685   -6.0560 H   0  0  0  0  0  0  0  0  0  0  0  0
    0.2588   15.4349   -6.6244 H   0  0  0  0  0  0  0  0  0  0  0  0
    0.1984   14.8070   -4.9425 H   0  0  0  0  0  0  0  0  0  0  0  0
   -2.9622   15.1711  -12.0469 H   0  0  0  0  0  0  0  0  0  0  0  0
   -4.2464   15.9849  -11.0903 H   0  0  0  0  0  0  0  0  0  0  0  0
   -3.3555   15.0059   -9.0807 H   0  0  0  0  0  0  0  0  0  0  0  0
   -4.9587   13.2414   -9.3350 H   0  0  0  0  0  0  0  0  0  0  0  0
   -3.7216   12.2489  -10.1783 H   0  0  0  0  0  0  0  0  0  0  0  0
    0.1412   14.5025  -10.2248 H   0  0  0  0  0  0  0  0  0  0  0  0
   -1.0556   15.5656  -11.0396 H   0  0  0  0  0  0  0  0  0  0  0  0
   -0.9185   15.5750   -9.2486 H   0  0  0  0  0  0  0  0  0  0  0  0
  1  2  2  0  0  0  0
  1  4  1  0  0  0  0
  1 12  1  0  0  0  0
  2  6  1  0  0  0  0
  3  4  2  0  0  0  0
  3  5  1  0  0  0  0
  5  6  1  0  0  0  0
  5  9  2  0  0  0  0
  6  7  2  0  0  0  0
  7  8  1  0  0  0  0
  7 10  1  0  0  0  0
  8  9  1  0  0  0  0
 10 14  2  0  0  0  0
 11 12  1  0  0  0  0
 11 26  1  0  0  0  0
 11 28  1  0  0  0  0
 12 13  2  0  0  0  0
 14 15  1  0  0  0  0
 14 19  1  0  0  0  0
 15 16  2  0  0  0  0
 16 17  1  0  0  0  0
 17 18  1  0  0  0  0
 17 20  2  0  0  0  0
 18 19  2  0  0  0  0
 20 21  1  0  0  0  0
 20 24  1  0  0  0  0
 21 22  1  0  0  0  0
 22 23  1  0  0  0  0
 22 25  1  0  0  0  0
 23 24  2  0  0  0  0
 26 27  1  0  0  0  0
 27 28  1  0  0  0  0
 27 29  1  0  0  0  0
 29 30  1  0  0  0  0
  2 31  1  0  0  0  0
  3 32  1  0  0  0  0
  4 33  1  0  0  0  0
  8 34  1  0  0  0  0
 10 35  1  0  0  0  0
 15 36  1  0  0  0  0
 16 37  1  0  0  0  0
 18 38  1  0  0  0  0
 19 39  1  0  0  0  0
 21 40  1  0  0  0  0
 21 41  1  0  0  0  0
 24 42  1  0  0  0  0
 25 43  1  0  0  0  0
 25 44  1  0  0  0  0
 25 45  1  0  0  0  0
 26 46  1  0  0  0  0
 26 47  1  0  0  0  0
 27 48  1  0  0  0  0
 28 49  1  0  0  0  0
 28 50  1  0  0  0  0
 30 51  1  0  0  0  0
 30 52  1  0  0  0  0
 30 53  1  0  0  0  0
M  END
> <Name>
36

> <IC50[uM]>
0.006

$$$$
36
  -OEChem-05192314333D
 Structure written by MMmdl.
 53 57  0     1  0  0  0  0  0999 V2000
   -6.3988   12.3548  -12.0167 C   0  0  0  0  0  0  0  0  0  0  0  0
   -6.5634   11.7828  -10.7362 C   0  0  0  0  0  0  0  0  0  0  0  0
   -7.7338   10.5694  -13.0370 C   0  0  0  0  0  0  0  0  0  0  0  0
   -6.9985   11.7556  -13.1278 C   0  0  0  0  0  0  0  0  0  0  0  0
   -7.8247    9.9971  -11.7595 C   0  0  0  0  0  0  0  0  0  0  0  0
   -7.2595   10.6059  -10.6156 C   0  0  0  0  0  0  0  0  0  0  0  0
   -7.6196    9.7377   -9.5218 C   0  0  0  0  0  0  0  0  0  0  0  0
   -8.2737    8.7166   -9.9897 N   0  0  0  0  0  0  0  0  0  0  0  0
   -8.4125    8.8485  -11.3029 N   0  0  0  0  0  0  0  0  0  0  0  0
   -7.3396    9.8926   -8.0318 C   0  0  0  0  0  0  0  0  0  0  0  0
   -4.5445   13.8618  -11.3707 N   0  0  0  0  0  0  0  0  0  0  0  0
   -5.5979   13.6472  -12.1806 C   0  0  0  0  0  0  0  0  0  0  0  0
   -5.9190   14.4711  -13.0424 O   0  0  0  0  0  0  0  0  0  0  0  0
   -5.9590   10.4852   -7.7375 C   0  0  0  0  0  0  0  0  0  0  0  0
   -5.8471   11.7541   -7.1585 C   0  0  0  0  0  0  0  0  0  0  0  0
   -4.5907   12.3017   -6.9141 C   0  0  0  0  0  0  0  0  0  0  0  0
   -3.4394   11.5818   -7.2374 C   0  0  0  0  0  0  0  0  0  0  0  0
   -3.5527   10.3083   -7.8066 C   0  0  0  0  0  0  0  0  0  0  0  0
   -4.8082    9.7633   -8.0562 C   0  0  0  0  0  0  0  0  0  0  0  0
   -2.0898   12.1596   -6.9778 C   0  0  0  0  0  0  0  0  0  0  0  0
   -1.7390   13.4130   -6.4881 C   0  0  0  0  0  0  0  0  0  0  0  0
   -0.3978   13.4480   -6.4305 N   0  0  3  0  0  0  0  0  0  0  0  0
    0.1868   12.3491   -6.8198 N   0  0  0  0  0  0  0  0  0  0  0  0
   -0.8044   11.5467   -7.1770 C   0  0  0  0  0  0  0  0  0  0  0  0
    0.4420   14.5581   -5.9859 C   0  0  0  0  0  0  0  0  0  0  0  0
   -3.7035   15.0408  -11.2447 C   0  0  0  0  0  0  0  0  0  0  0  0
   -3.1688   14.3872   -9.9709 C   0  0  0  0  0  0  0  0  0  0  0  0
   -4.1668   13.2516  -10.0984 C   0  0  0  0  0  0  0  0  0  0  0  0
   -1.8336   13.9158  -10.0706 O   0  0  0  0  0  0  0  0  0  0  0  0
   -0.8619   14.9477  -10.1504 C   0  0  0  0  0  0  0  0  0  0  0  0
   -6.1473   12.2646   -9.8638 H   0  0  0  0  0  0  0  0  0  0  0  0
   -8.2039   10.1205  -13.8995 H   0  0  0  0  0  0  0  0  0  0  0  0
   -6.8899   12.2266  -14.0936 H   0  0  0  0  0  0  0  0  0  0  0  0
   -8.8878    8.1901  -11.8866 H   0  0  0  0  0  0  0  0  0  0  0  0
   -8.0434    9.6128   -7.2619 H   0  0  0  0  0  0  0  0  0  0  0  0
   -6.7368   12.3095   -6.9008 H   0  0  0  0  0  0  0  0  0  0  0  0
   -4.5068   13.2844   -6.4740 H   0  0  0  0  0  0  0  0  0  0  0  0
   -2.6633    9.7472   -8.0527 H   0  0  0  0  0  0  0  0  0  0  0  0
   -4.8922    8.7809   -8.4969 H   0  0  0  0  0  0  0  0  0  0  0  0
   -2.1093   14.1996   -7.1620 H   0  0  0  0  0  0  0  0  0  0  0  0
   -2.1647   13.5597   -5.4845 H   0  0  0  0  0  0  0  0  0  0  0  0
   -0.6640   10.5509   -7.5709 H   0  0  0  0  0  0  0  0  0  0  0  0
    1.5009   14.2685   -6.0560 H   0  0  0  0  0  0  0  0  0  0  0  0
    0.2588   15.4349   -6.6244 H   0  0  0  0  0  0  0  0  0  0  0  0
    0.1984   14.8070   -4.9425 H   0  0  0  0  0  0  0  0  0  0  0  0
   -2.9622   15.1711  -12.0469 H   0  0  0  0  0  0  0  0  0  0  0  0
   -4.2464   15.9849  -11.0903 H   0  0  0  0  0  0  0  0  0  0  0  0
   -3.3555   15.0059   -9.0807 H   0  0  0  0  0  0  0  0  0  0  0  0
   -4.9587   13.2414   -9.3350 H   0  0  0  0  0  0  0  0  0  0  0  0
   -3.7216   12.2489  -10.1783 H   0  0  0  0  0  0  0  0  0  0  0  0
    0.1412   14.5025  -10.2248 H   0  0  0  0  0  0  0  0  0  0  0  0
   -1.0556   15.5656  -11.0396 H   0  0  0  0  0  0  0  0  0  0  0  0
   -0.9185   15.5750   -9.2486 H   0  0  0  0  0  0  0  0  0  0  0  0
  1  2  2  0  0  0  0
  1  4  1  0  0  0  0
  1 12  1  0  0  0  0
  2  6  1  0  0  0  0
  3  4  2  0  0  0  0
  3  5  1  0  0  0  0
  5  6  2  0  0  0  0
  5  9  1  0  0  0  0
  6  7  1  0  0  0  0
  7  8  2  0  0  0  0
  7 10  1  0  0  0  0
  8  9  1  0  0  0  0
 10 14  2  0  0  0  0
 11 12  1  0  0  0  0
 11 26  1  0  0  0  0
 11 28  1  0  0  0  0
 12 13  2  0  0  0  0
 14 15  1  0  0  0  0
 14 19  1  0  0  0  0
 15 16  2  0  0  0  0
 16 17  1  0  0  0  0
 17 18  1  0  0  0  0
 17 20  2  0  0  0  0
 18 19  2  0  0  0  0
 20 21  1  0  0  0  0
 20 24  1  0  0  0  0
 21 22  1  0  0  0  0
 22 23  1  0  0  0  0
 22 25  1  0  0  0  0
 23 24  2  0  0  0  0
 26 27  1  0  0  0  0
 27 28  1  0  0  0  0
 27 29  1  0  0  0  0
 29 30  1  0  0  0  0
  2 31  1  0  0  0  0
  3 32  1  0  0  0  0
  4 33  1  0  0  0  0
  9 34  1  0  0  0  0
 10 35  1  0  0  0  0
 15 36  1  0  0  0  0
 16 37  1  0  0  0  0
 18 38  1  0  0  0  0
 19 39  1  0  0  0  0
 21 40  1  0  0  0  0
 21 41  1  0  0  0  0
 24 42  1  0  0  0  0
 25 43  1  0  0  0  0
 25 44  1  0  0  0  0
 25 45  1  0  0  0  0
 26 46  1  0  0  0  0
 26 47  1  0  0  0  0
 27 48  1  0  0  0  0
 28 49  1  0  0  0  0
 28 50  1  0  0  0  0
 30 51  1  0  0  0  0
 30 52  1  0  0  0  0
 30 53  1  0  0  0  0
M  END
> <Name>
36

> <IC50[uM]>
0.006

$$$$
36
  -OEChem-05192314333D
 Structure written by MMmdl.
 53 57  0     0  0  0  0  0  0999 V2000
   -6.3988   12.3548  -12.0167 C   0  0  0  0  0  0  0  0  0  0  0  0
   -6.5634   11.7828  -10.7362 C   0  0  0  0  0  0  0  0  0  0  0  0
   -7.7338   10.5694  -13.0370 C   0  0  0  0  0  0  0  0  0  0  0  0
   -6.9985   11.7556  -13.1278 C   0  0  0  0  0  0  0  0  0  0  0  0
   -7.8247    9.9971  -11.7595 C   0  0  0  0  0  0  0  0  0  0  0  0
   -7.2595   10.6059  -10.6156 C   0  0  0  0  0  0  0  0  0  0  0  0
   -7.6196    9.7377   -9.5218 C   0  0  0  0  0  0  0  0  0  0  0  0
   -8.2737    8.7166   -9.9897 N   0  0  0  0  0  0  0  0  0  0  0  0
   -8.4125    8.8485  -11.3029 N   0  0  0  0  0  0  0  0  0  0  0  0
   -7.3396    9.8926   -8.0318 C   0  0  0  0  0  0  0  0  0  0  0  0
   -4.5445   13.8618  -11.3707 N   0  0  0  0  0  0  0  0  0  0  0  0
   -5.5979   13.6472  -12.1806 C   0  0  0  0  0  0  0  0  0  0  0  0
   -5.9190   14.4711  -13.0424 O   0  0  0  0  0  0  0  0  0  0  0  0
   -5.9590   10.4852   -7.7375 C   0  0  0  0  0  0  0  0  0  0  0  0
   -5.8471   11.7541   -7.1585 C   0  0  0  0  0  0  0  0  0  0  0  0
   -4.5907   12.3017   -6.9141 C   0  0  0  0  0  0  0  0  0  0  0  0
   -3.4394   11.5818   -7.2374 C   0  0  0  0  0  0  0  0  0  0  0  0
   -3.5527   10.3083   -7.8066 C   0  0  0  0  0  0  0  0  0  0  0  0
   -4.8082    9.7633   -8.0562 C   0  0  0  0  0  0  0  0  0  0  0  0
   -2.0898   12.1596   -6.9778 C   0  0  0  0  0  0  0  0  0  0  0  0
   -1.7390   13.4130   -6.4881 C   0  0  0  0  0  0  0  0  0  0  0  0
   -0.3978   13.4480   -6.4305 N   0  0  0  0  0  0  0  0  0  0  0  0
    0.1868   12.3491   -6.8198 N   0  0  0  0  0  0  0  0  0  0  0  0
   -0.8044   11.5467   -7.1770 C   0  0  0  0  0  0  0  0  0  0  0  0
    0.4420   14.5581   -5.9859 C   0  0  0  0  0  0  0  0  0  0  0  0
   -3.7035   15.0408  -11.2447 C   0  0  0  0  0  0  0  0  0  0  0  0
   -3.1688   14.3872   -9.9709 C   0  0  0  0  0  0  0  0  0  0  0  0
   -4.1668   13.2516  -10.0984 C   0  0  0  0  0  0  0  0  0  0  0  0
   -1.8336   13.9158  -10.0706 O   0  0  0  0  0  0  0  0  0  0  0  0
   -0.8619   14.9477  -10.1504 C   0  0  0  0  0  0  0  0  0  0  0  0
   -6.1473   12.2646   -9.8638 H   0  0  0  0  0  0  0  0  0  0  0  0
   -8.2039   10.1205  -13.8995 H   0  0  0  0  0  0  0  0  0  0  0  0
   -6.8899   12.2266  -14.0936 H   0  0  0  0  0  0  0  0  0  0  0  0
   -8.6183    7.9516   -9.4455 H   0  0  0  0  0  0  0  0  0  0  0  0
   -8.0434    9.6128   -7.2619 H   0  0  0  0  0  0  0  0  0  0  0  0
   -6.7368   12.3095   -6.9008 H   0  0  0  0  0  0  0  0  0  0  0  0
   -4.5068   13.2844   -6.4740 H   0  0  0  0  0  0  0  0  0  0  0  0
   -3.4394   12.0313   -8.2414 H   0  0  0  0  0  0  0  0  0  0  0  0
   -2.6633    9.7472   -8.0527 H   0  0  0  0  0  0  0  0  0  0  0  0
   -4.8922    8.7809   -8.4969 H   0  0  0  0  0  0  0  0  0  0  0  0
   -2.4158   14.2066   -6.2077 H   0  0  0  0  0  0  0  0  0  0  0  0
   -0.6640   10.5509   -7.5709 H   0  0  0  0  0  0  0  0  0  0  0  0
    1.5009   14.2685   -6.0560 H   0  0  0  0  0  0  0  0  0  0  0  0
    0.2588   15.4349   -6.6244 H   0  0  0  0  0  0  0  0  0  0  0  0
    0.1984   14.8070   -4.9425 H   0  0  0  0  0  0  0  0  0  0  0  0
   -2.9622   15.1711  -12.0469 H   0  0  0  0  0  0  0  0  0  0  0  0
   -4.2464   15.9849  -11.0903 H   0  0  0  0  0  0  0  0  0  0  0  0
   -3.3555   15.0059   -9.0807 H   0  0  0  0  0  0  0  0  0  0  0  0
   -4.9587   13.2414   -9.3350 H   0  0  0  0  0  0  0  0  0  0  0  0
   -3.7216   12.2489  -10.1783 H   0  0  0  0  0  0  0  0  0  0  0  0
    0.1412   14.5025  -10.2248 H   0  0  0  0  0  0  0  0  0  0  0  0
   -1.0556   15.5656  -11.0396 H   0  0  0  0  0  0  0  0  0  0  0  0
   -0.9185   15.5750   -9.2486 H   0  0  0  0  0  0  0  0  0  0  0  0
  1  2  2  0  0  0  0
  1  4  1  0  0  0  0
  1 12  1  0  0  0  0
  2  6  1  0  0  0  0
  3  4  2  0  0  0  0
  3  5  1  0  0  0  0
  5  6  1  0  0  0  0
  5  9  2  0  0  0  0
  6  7  2  0  0  0  0
  7  8  1  0  0  0  0
  7 10  1  0  0  0  0
  8  9  1  0  0  0  0
 10 14  2  0  0  0  0
 11 12  1  0  0  0  0
 11 26  1  0  0  0  0
 11 28  1  0  0  0  0
 12 13  2  0  0  0  0
 14 15  1  0  0  0  0
 14 19  1  0  0  0  0
 15 16  2  0  0  0  0
 16 17  1  0  0  0  0
 17 18  1  0  0  0  0
 17 20  1  0  0  0  0
 18 19  2  0  0  0  0
 20 21  2  0  0  0  0
 20 24  1  0  0  0  0
 21 22  1  0  0  0  0
 22 23  1  0  0  0  0
 22 25  1  0  0  0  0
 23 24  2  0  0  0  0
 26 27  1  0  0  0  0
 27 28  1  0  0  0  0
 27 29  1  0  0  0  0
 29 30  1  0  0  0  0
  2 31  1  0  0  0  0
  3 32  1  0  0  0  0
  4 33  1  0  0  0  0
  8 34  1  0  0  0  0
 10 35  1  0  0  0  0
 15 36  1  0  0  0  0
 16 37  1  0  0  0  0
 17 38  1  0  0  0  0
 18 39  1  0  0  0  0
 19 40  1  0  0  0  0
 21 41  1  0  0  0  0
 24 42  1  0  0  0  0
 25 43  1  0  0  0  0
 25 44  1  0  0  0  0
 25 45  1  0  0  0  0
 26 46  1  0  0  0  0
 26 47  1  0  0  0  0
 27 48  1  0  0  0  0
 28 49  1  0  0  0  0
 28 50  1  0  0  0  0
 30 51  1  0  0  0  0
 30 52  1  0  0  0  0
 30 53  1  0  0  0  0
M  END
> <Name>
36

> <IC50[uM]>
0.006

$$$$
36
  -OEChem-05192314333D
 Structure written by MMmdl.
 53 57  0     0  0  0  0  0  0999 V2000
   -6.3988   12.3548  -12.0167 C   0  0  0  0  0  0  0  0  0  0  0  0
   -6.5634   11.7828  -10.7362 C   0  0  0  0  0  0  0  0  0  0  0  0
   -7.7338   10.5694  -13.0370 C   0  0  0  0  0  0  0  0  0  0  0  0
   -6.9985   11.7556  -13.1278 C   0  0  0  0  0  0  0  0  0  0  0  0
   -7.8247    9.9971  -11.7595 C   0  0  0  0  0  0  0  0  0  0  0  0
   -7.2595   10.6059  -10.6156 C   0  0  0  0  0  0  0  0  0  0  0  0
   -7.6196    9.7377   -9.5218 C   0  0  0  0  0  0  0  0  0  0  0  0
   -8.2737    8.7166   -9.9897 N   0  0  0  0  0  0  0  0  0  0  0  0
   -8.4125    8.8485  -11.3029 N   0  0  0  0  0  0  0  0  0  0  0  0
   -7.3396    9.8926   -8.0318 C   0  0  0  0  0  0  0  0  0  0  0  0
   -4.5445   13.8618  -11.3707 N   0  0  0  0  0  0  0  0  0  0  0  0
   -5.5979   13.6472  -12.1806 C   0  0  0  0  0  0  0  0  0  0  0  0
   -5.9190   14.4711  -13.0424 O   0  0  0  0  0  0  0  0  0  0  0  0
   -5.9590   10.4852   -7.7375 C   0  0  0  0  0  0  0  0  0  0  0  0
   -5.8471   11.7541   -7.1585 C   0  0  0  0  0  0  0  0  0  0  0  0
   -4.5907   12.3017   -6.9141 C   0  0  0  0  0  0  0  0  0  0  0  0
   -3.4394   11.5818   -7.2374 C   0  0  0  0  0  0  0  0  0  0  0  0
   -3.5527   10.3083   -7.8066 C   0  0  0  0  0  0  0  0  0  0  0  0
   -4.8082    9.7633   -8.0562 C   0  0  0  0  0  0  0  0  0  0  0  0
   -2.0898   12.1596   -6.9778 C   0  0  0  0  0  0  0  0  0  0  0  0
   -1.7390   13.4130   -6.4881 C   0  0  0  0  0  0  0  0  0  0  0  0
   -0.3978   13.4480   -6.4305 N   0  0  0  0  0  0  0  0  0  0  0  0
    0.1868   12.3491   -6.8198 N   0  0  0  0  0  0  0  0  0  0  0  0
   -0.8044   11.5467   -7.1770 C   0  0  0  0  0  0  0  0  0  0  0  0
    0.4420   14.5581   -5.9859 C   0  0  0  0  0  0  0  0  0  0  0  0
   -3.7035   15.0408  -11.2447 C   0  0  0  0  0  0  0  0  0  0  0  0
   -3.1688   14.3872   -9.9709 C   0  0  0  0  0  0  0  0  0  0  0  0
   -4.1668   13.2516  -10.0984 C   0  0  0  0  0  0  0  0  0  0  0  0
   -1.8336   13.9158  -10.0706 O   0  0  0  0  0  0  0  0  0  0  0  0
   -0.8619   14.9477  -10.1504 C   0  0  0  0  0  0  0  0  0  0  0  0
   -6.1473   12.2646   -9.8638 H   0  0  0  0  0  0  0  0  0  0  0  0
   -8.2039   10.1205  -13.8995 H   0  0  0  0  0  0  0  0  0  0  0  0
   -6.8899   12.2266  -14.0936 H   0  0  0  0  0  0  0  0  0  0  0  0
   -8.8878    8.1901  -11.8866 H   0  0  0  0  0  0  0  0  0  0  0  0
   -8.0434    9.6128   -7.2619 H   0  0  0  0  0  0  0  0  0  0  0  0
   -6.7368   12.3095   -6.9008 H   0  0  0  0  0  0  0  0  0  0  0  0
   -4.5068   13.2844   -6.4740 H   0  0  0  0  0  0  0  0  0  0  0  0
   -3.4394   12.0313   -8.2414 H   0  0  0  0  0  0  0  0  0  0  0  0
   -2.6633    9.7472   -8.0527 H   0  0  0  0  0  0  0  0  0  0  0  0
   -4.8922    8.7809   -8.4969 H   0  0  0  0  0  0  0  0  0  0  0  0
   -2.4158   14.2066   -6.2077 H   0  0  0  0  0  0  0  0  0  0  0  0
   -0.6640   10.5509   -7.5709 H   0  0  0  0  0  0  0  0  0  0  0  0
    1.5009   14.2685   -6.0560 H   0  0  0  0  0  0  0  0  0  0  0  0
    0.2588   15.4349   -6.6244 H   0  0  0  0  0  0  0  0  0  0  0  0
    0.1984   14.8070   -4.9425 H   0  0  0  0  0  0  0  0  0  0  0  0
   -2.9622   15.1711  -12.0469 H   0  0  0  0  0  0  0  0  0  0  0  0
   -4.2464   15.9849  -11.0903 H   0  0  0  0  0  0  0  0  0  0  0  0
   -3.3555   15.0059   -9.0807 H   0  0  0  0  0  0  0  0  0  0  0  0
   -4.9587   13.2414   -9.3350 H   0  0  0  0  0  0  0  0  0  0  0  0
   -3.7216   12.2489  -10.1783 H   0  0  0  0  0  0  0  0  0  0  0  0
    0.1412   14.5025  -10.2248 H   0  0  0  0  0  0  0  0  0  0  0  0
   -1.0556   15.5656  -11.0396 H   0  0  0  0  0  0  0  0  0  0  0  0
   -0.9185   15.5750   -9.2486 H   0  0  0  0  0  0  0  0  0  0  0  0
  1  2  2  0  0  0  0
  1  4  1  0  0  0  0
  1 12  1  0  0  0  0
  2  6  1  0  0  0  0
  3  4  2  0  0  0  0
  3  5  1  0  0  0  0
  5  6  2  0  0  0  0
  5  9  1  0  0  0  0
  6  7  1  0  0  0  0
  7  8  2  0  0  0  0
  7 10  1  0  0  0  0
  8  9  1  0  0  0  0
 10 14  2  0  0  0  0
 11 12  1  0  0  0  0
 11 26  1  0  0  0  0
 11 28  1  0  0  0  0
 12 13  2  0  0  0  0
 14 15  1  0  0  0  0
 14 19  1  0  0  0  0
 15 16  2  0  0  0  0
 16 17  1  0  0  0  0
 17 18  1  0  0  0  0
 17 20  1  0  0  0  0
 18 19  2  0  0  0  0
 20 21  2  0  0  0  0
 20 24  1  0  0  0  0
 21 22  1  0  0  0  0
 22 23  1  0  0  0  0
 22 25  1  0  0  0  0
 23 24  2  0  0  0  0
 26 27  1  0  0  0  0
 27 28  1  0  0  0  0
 27 29  1  0  0  0  0
 29 30  1  0  0  0  0
  2 31  1  0  0  0  0
  3 32  1  0  0  0  0
  4 33  1  0  0  0  0
  9 34  1  0  0  0  0
 10 35  1  0  0  0  0
 15 36  1  0  0  0  0
 16 37  1  0  0  0  0
 17 38  1  0  0  0  0
 18 39  1  0  0  0  0
 19 40  1  0  0  0  0
 21 41  1  0  0  0  0
 24 42  1  0  0  0  0
 25 43  1  0  0  0  0
 25 44  1  0  0  0  0
 25 45  1  0  0  0  0
 26 46  1  0  0  0  0
 26 47  1  0  0  0  0
 27 48  1  0  0  0  0
 28 49  1  0  0  0  0
 28 50  1  0  0  0  0
 30 51  1  0  0  0  0
 30 52  1  0  0  0  0
 30 53  1  0  0  0  0
M  END
> <Name>
36

> <IC50[uM]>
0.006

$$$$
36
  -OEChem-05192314333D
 Structure written by MMmdl.
 53 57  0     0  0  0  0  0  0999 V2000
   -6.3988   12.3548  -12.0167 C   0  0  0  0  0  0  0  0  0  0  0  0
   -6.5634   11.7828  -10.7362 C   0  0  0  0  0  0  0  0  0  0  0  0
   -7.7338   10.5694  -13.0370 C   0  0  0  0  0  0  0  0  0  0  0  0
   -6.9985   11.7556  -13.1278 C   0  0  0  0  0  0  0  0  0  0  0  0
   -7.8247    9.9971  -11.7595 C   0  0  0  0  0  0  0  0  0  0  0  0
   -7.2595   10.6059  -10.6156 C   0  0  0  0  0  0  0  0  0  0  0  0
   -7.6196    9.7377   -9.5218 C   0  0  0  0  0  0  0  0  0  0  0  0
   -8.2737    8.7166   -9.9897 N   0  0  0  0  0  0  0  0  0  0  0  0
   -8.4125    8.8485  -11.3029 N   0  0  0  0  0  0  0  0  0  0  0  0
   -7.3396    9.8926   -8.0318 C   0  0  0  0  0  0  0  0  0  0  0  0
   -4.5445   13.8618  -11.3707 N   0  0  0  0  0  0  0  0  0  0  0  0
   -5.5979   13.6472  -12.1806 C   0  0  0  0  0  0  0  0  0  0  0  0
   -5.9190   14.4711  -13.0424 O   0  0  0  0  0  0  0  0  0  0  0  0
   -5.9590   10.4852   -7.7375 C   0  0  0  0  0  0  0  0  0  0  0  0
   -5.8471   11.7541   -7.1585 C   0  0  0  0  0  0  0  0  0  0  0  0
   -4.5907   12.3017   -6.9141 C   0  0  0  0  0  0  0  0  0  0  0  0
   -3.4394   11.5818   -7.2374 C   0  0  0  0  0  0  0  0  0  0  0  0
   -3.5527   10.3083   -7.8066 C   0  0  0  0  0  0  0  0  0  0  0  0
   -4.8082    9.7633   -8.0562 C   0  0  0  0  0  0  0  0  0  0  0  0
   -2.0898   12.1596   -6.9778 C   0  0  0  0  0  0  0  0  0  0  0  0
   -1.7390   13.4130   -6.4881 C   0  0  0  0  0  0  0  0  0  0  0  0
   -0.3978   13.4480   -6.4305 N   0  0  0  0  0  0  0  0  0  0  0  0
    0.1868   12.3491   -6.8198 N   0  0  0  0  0  0  0  0  0  0  0  0
   -0.8044   11.5467   -7.1770 C   0  0  0  0  0  0  0  0  0  0  0  0
    0.4420   14.5581   -5.9859 C   0  0  0  0  0  0  0  0  0  0  0  0
   -3.7035   15.0408  -11.2447 C   0  0  0  0  0  0  0  0  0  0  0  0
   -3.1688   14.3872   -9.9709 C   0  0  0  0  0  0  0  0  0  0  0  0
   -4.1668   13.2516  -10.0984 C   0  0  0  0  0  0  0  0  0  0  0  0
   -1.8336   13.9158  -10.0706 O   0  0  0  0  0  0  0  0  0  0  0  0
   -0.8619   14.9477  -10.1504 C   0  0  0  0  0  0  0  0  0  0  0  0
   -6.1473   12.2646   -9.8638 H   0  0  0  0  0  0  0  0  0  0  0  0
   -8.2039   10.1205  -13.8995 H   0  0  0  0  0  0  0  0  0  0  0  0
   -6.8899   12.2266  -14.0936 H   0  0  0  0  0  0  0  0  0  0  0  0
   -8.6183    7.9516   -9.4455 H   0  0  0  0  0  0  0  0  0  0  0  0
   -8.0434    9.6128   -7.2619 H   0  0  0  0  0  0  0  0  0  0  0  0
   -6.7368   12.3095   -6.9008 H   0  0  0  0  0  0  0  0  0  0  0  0
   -4.5068   13.2844   -6.4740 H   0  0  0  0  0  0  0  0  0  0  0  0
   -2.6633    9.7472   -8.0527 H   0  0  0  0  0  0  0  0  0  0  0  0
   -4.8610    8.8182   -7.4958 H   0  0  0  0  0  0  0  0  0  0  0  0
   -4.8541    9.5530   -9.1349 H   0  0  0  0  0  0  0  0  0  0  0  0
   -2.4158   14.2066   -6.2077 H   0  0  0  0  0  0  0  0  0  0  0  0
   -0.6640   10.5509   -7.5709 H   0  0  0  0  0  0  0  0  0  0  0  0
    1.5009   14.2685   -6.0560 H   0  0  0  0  0  0  0  0  0  0  0  0
    0.2588   15.4349   -6.6244 H   0  0  0  0  0  0  0  0  0  0  0  0
    0.1984   14.8070   -4.9425 H   0  0  0  0  0  0  0  0  0  0  0  0
   -2.9622   15.1711  -12.0469 H   0  0  0  0  0  0  0  0  0  0  0  0
   -4.2464   15.9849  -11.0903 H   0  0  0  0  0  0  0  0  0  0  0  0
   -3.3555   15.0059   -9.0807 H   0  0  0  0  0  0  0  0  0  0  0  0
   -4.9587   13.2414   -9.3350 H   0  0  0  0  0  0  0  0  0  0  0  0
   -3.7216   12.2489  -10.1783 H   0  0  0  0  0  0  0  0  0  0  0  0
    0.1412   14.5025  -10.2248 H   0  0  0  0  0  0  0  0  0  0  0  0
   -1.0556   15.5656  -11.0396 H   0  0  0  0  0  0  0  0  0  0  0  0
   -0.9185   15.5750   -9.2486 H   0  0  0  0  0  0  0  0  0  0  0  0
  1  2  2  0  0  0  0
  1  4  1  0  0  0  0
  1 12  1  0  0  0  0
  2  6  1  0  0  0  0
  3  4  2  0  0  0  0
  3  5  1  0  0  0  0
  5  6  1  0  0  0  0
  5  9  2  0  0  0  0
  6  7  2  0  0  0  0
  7  8  1  0  0  0  0
  7 10  1  0  0  0  0
  8  9  1  0  0  0  0
 10 14  2  3  0  0  0
 11 12  1  0  0  0  0
 11 26  1  0  0  0  0
 11 28  1  0  0  0  0
 12 13  2  0  0  0  0
 14 15  1  0  0  0  0
 14 19  1  0  0  0  0
 15 16  2  0  0  0  0
 16 17  1  0  0  0  0
 17 18  2  0  0  0  0
 17 20  1  0  0  0  0
 18 19  1  0  0  0  0
 20 21  2  0  0  0  0
 20 24  1  0  0  0  0
 21 22  1  0  0  0  0
 22 23  1  0  0  0  0
 22 25  1  0  0  0  0
 23 24  2  0  0  0  0
 26 27  1  0  0  0  0
 27 28  1  0  0  0  0
 27 29  1  0  0  0  0
 29 30  1  0  0  0  0
  2 31  1  0  0  0  0
  3 32  1  0  0  0  0
  4 33  1  0  0  0  0
  8 34  1  0  0  0  0
 10 35  1  0  0  0  0
 15 36  1  0  0  0  0
 16 37  1  0  0  0  0
 18 38  1  0  0  0  0
 19 39  1  0  0  0  0
 19 40  1  0  0  0  0
 21 41  1  0  0  0  0
 24 42  1  0  0  0  0
 25 43  1  0  0  0  0
 25 44  1  0  0  0  0
 25 45  1  0  0  0  0
 26 46  1  0  0  0  0
 26 47  1  0  0  0  0
 27 48  1  0  0  0  0
 28 49  1  0  0  0  0
 28 50  1  0  0  0  0
 30 51  1  0  0  0  0
 30 52  1  0  0  0  0
 30 53  1  0  0  0  0
M  END
> <Name>
36

> <IC50[uM]>
0.006

$$$$
36
  -OEChem-05192314333D
 Structure written by MMmdl.
 53 57  0     0  0  0  0  0  0999 V2000
   -6.3988   12.3548  -12.0167 C   0  0  0  0  0  0  0  0  0  0  0  0
   -6.5634   11.7828  -10.7362 C   0  0  0  0  0  0  0  0  0  0  0  0
   -7.7338   10.5694  -13.0370 C   0  0  0  0  0  0  0  0  0  0  0  0
   -6.9985   11.7556  -13.1278 C   0  0  0  0  0  0  0  0  0  0  0  0
   -7.8247    9.9971  -11.7595 C   0  0  0  0  0  0  0  0  0  0  0  0
   -7.2595   10.6059  -10.6156 C   0  0  0  0  0  0  0  0  0  0  0  0
   -7.6196    9.7377   -9.5218 C   0  0  0  0  0  0  0  0  0  0  0  0
   -8.2737    8.7166   -9.9897 N   0  0  0  0  0  0  0  0  0  0  0  0
   -8.4125    8.8485  -11.3029 N   0  0  0  0  0  0  0  0  0  0  0  0
   -7.3396    9.8926   -8.0318 C   0  0  0  0  0  0  0  0  0  0  0  0
   -4.5445   13.8618  -11.3707 N   0  0  0  0  0  0  0  0  0  0  0  0
   -5.5979   13.6472  -12.1806 C   0  0  0  0  0  0  0  0  0  0  0  0
   -5.9190   14.4711  -13.0424 O   0  0  0  0  0  0  0  0  0  0  0  0
   -5.9590   10.4852   -7.7375 C   0  0  0  0  0  0  0  0  0  0  0  0
   -5.8471   11.7541   -7.1585 C   0  0  0  0  0  0  0  0  0  0  0  0
   -4.5907   12.3017   -6.9141 C   0  0  0  0  0  0  0  0  0  0  0  0
   -3.4394   11.5818   -7.2374 C   0  0  0  0  0  0  0  0  0  0  0  0
   -3.5527   10.3083   -7.8066 C   0  0  0  0  0  0  0  0  0  0  0  0
   -4.8082    9.7633   -8.0562 C   0  0  0  0  0  0  0  0  0  0  0  0
   -2.0898   12.1596   -6.9778 C   0  0  0  0  0  0  0  0  0  0  0  0
   -1.7390   13.4130   -6.4881 C   0  0  0  0  0  0  0  0  0  0  0  0
   -0.3978   13.4480   -6.4305 N   0  0  0  0  0  0  0  0  0  0  0  0
    0.1868   12.3491   -6.8198 N   0  0  0  0  0  0  0  0  0  0  0  0
   -0.8044   11.5467   -7.1770 C   0  0  0  0  0  0  0  0  0  0  0  0
    0.4420   14.5581   -5.9859 C   0  0  0  0  0  0  0  0  0  0  0  0
   -3.7035   15.0408  -11.2447 C   0  0  0  0  0  0  0  0  0  0  0  0
   -3.1688   14.3872   -9.9709 C   0  0  0  0  0  0  0  0  0  0  0  0
   -4.1668   13.2516  -10.0984 C   0  0  0  0  0  0  0  0  0  0  0  0
   -1.8336   13.9158  -10.0706 O   0  0  0  0  0  0  0  0  0  0  0  0
   -0.8619   14.9477  -10.1504 C   0  0  0  0  0  0  0  0  0  0  0  0
   -6.1473   12.2646   -9.8638 H   0  0  0  0  0  0  0  0  0  0  0  0
   -8.2039   10.1205  -13.8995 H   0  0  0  0  0  0  0  0  0  0  0  0
   -6.8899   12.2266  -14.0936 H   0  0  0  0  0  0  0  0  0  0  0  0
   -8.8878    8.1901  -11.8866 H   0  0  0  0  0  0  0  0  0  0  0  0
   -8.0434    9.6128   -7.2619 H   0  0  0  0  0  0  0  0  0  0  0  0
   -6.7368   12.3095   -6.9008 H   0  0  0  0  0  0  0  0  0  0  0  0
   -4.5068   13.2844   -6.4740 H   0  0  0  0  0  0  0  0  0  0  0  0
   -2.6633    9.7472   -8.0527 H   0  0  0  0  0  0  0  0  0  0  0  0
   -4.8610    8.8182   -7.4958 H   0  0  0  0  0  0  0  0  0  0  0  0
   -4.8541    9.5530   -9.1349 H   0  0  0  0  0  0  0  0  0  0  0  0
   -2.4158   14.2066   -6.2077 H   0  0  0  0  0  0  0  0  0  0  0  0
   -0.6640   10.5509   -7.5709 H   0  0  0  0  0  0  0  0  0  0  0  0
    1.5009   14.2685   -6.0560 H   0  0  0  0  0  0  0  0  0  0  0  0
    0.2588   15.4349   -6.6244 H   0  0  0  0  0  0  0  0  0  0  0  0
    0.1984   14.8070   -4.9425 H   0  0  0  0  0  0  0  0  0  0  0  0
   -2.9622   15.1711  -12.0469 H   0  0  0  0  0  0  0  0  0  0  0  0
   -4.2464   15.9849  -11.0903 H   0  0  0  0  0  0  0  0  0  0  0  0
   -3.3555   15.0059   -9.0807 H   0  0  0  0  0  0  0  0  0  0  0  0
   -4.9587   13.2414   -9.3350 H   0  0  0  0  0  0  0  0  0  0  0  0
   -3.7216   12.2489  -10.1783 H   0  0  0  0  0  0  0  0  0  0  0  0
    0.1412   14.5025  -10.2248 H   0  0  0  0  0  0  0  0  0  0  0  0
   -1.0556   15.5656  -11.0396 H   0  0  0  0  0  0  0  0  0  0  0  0
   -0.9185   15.5750   -9.2486 H   0  0  0  0  0  0  0  0  0  0  0  0
  1  2  2  0  0  0  0
  1  4  1  0  0  0  0
  1 12  1  0  0  0  0
  2  6  1  0  0  0  0
  3  4  2  0  0  0  0
  3  5  1  0  0  0  0
  5  6  2  0  0  0  0
  5  9  1  0  0  0  0
  6  7  1  0  0  0  0
  7  8  2  0  0  0  0
  7 10  1  0  0  0  0
  8  9  1  0  0  0  0
 10 14  2  3  0  0  0
 11 12  1  0  0  0  0
 11 26  1  0  0  0  0
 11 28  1  0  0  0  0
 12 13  2  0  0  0  0
 14 15  1  0  0  0  0
 14 19  1  0  0  0  0
 15 16  2  0  0  0  0
 16 17  1  0  0  0  0
 17 18  2  0  0  0  0
 17 20  1  0  0  0  0
 18 19  1  0  0  0  0
 20 21  2  0  0  0  0
 20 24  1  0  0  0  0
 21 22  1  0  0  0  0
 22 23  1  0  0  0  0
 22 25  1  0  0  0  0
 23 24  2  0  0  0  0
 26 27  1  0  0  0  0
 27 28  1  0  0  0  0
 27 29  1  0  0  0  0
 29 30  1  0  0  0  0
  2 31  1  0  0  0  0
  3 32  1  0  0  0  0
  4 33  1  0  0  0  0
  9 34  1  0  0  0  0
 10 35  1  0  0  0  0
 15 36  1  0  0  0  0
 16 37  1  0  0  0  0
 18 38  1  0  0  0  0
 19 39  1  0  0  0  0
 19 40  1  0  0  0  0
 21 41  1  0  0  0  0
 24 42  1  0  0  0  0
 25 43  1  0  0  0  0
 25 44  1  0  0  0  0
 25 45  1  0  0  0  0
 26 46  1  0  0  0  0
 26 47  1  0  0  0  0
 27 48  1  0  0  0  0
 28 49  1  0  0  0  0
 28 50  1  0  0  0  0
 30 51  1  0  0  0  0
 30 52  1  0  0  0  0
 30 53  1  0  0  0  0
M  END
> <Name>
36

> <IC50[uM]>
0.006

$$$$
36
  -OEChem-05192314333D
 Structure written by MMmdl.
 53 57  0     1  0  0  0  0  0999 V2000
   -6.3988   12.3548  -12.0167 C   0  0  0  0  0  0  0  0  0  0  0  0
   -6.5634   11.7828  -10.7362 C   0  0  0  0  0  0  0  0  0  0  0  0
   -7.7338   10.5694  -13.0370 C   0  0  0  0  0  0  0  0  0  0  0  0
   -6.9985   11.7556  -13.1278 C   0  0  0  0  0  0  0  0  0  0  0  0
   -7.8247    9.9971  -11.7595 C   0  0  0  0  0  0  0  0  0  0  0  0
   -7.2595   10.6059  -10.6156 C   0  0  0  0  0  0  0  0  0  0  0  0
   -7.6196    9.7377   -9.5218 C   0  0  0  0  0  0  0  0  0  0  0  0
   -8.2737    8.7166   -9.9897 N   0  0  0  0  0  0  0  0  0  0  0  0
   -8.4125    8.8485  -11.3029 N   0  0  0  0  0  0  0  0  0  0  0  0
   -7.3396    9.8926   -8.0318 C   0  0  0  0  0  0  0  0  0  0  0  0
   -4.5445   13.8618  -11.3707 N   0  0  0  0  0  0  0  0  0  0  0  0
   -5.5979   13.6472  -12.1806 C   0  0  0  0  0  0  0  0  0  0  0  0
   -5.9190   14.4711  -13.0424 O   0  0  0  0  0  0  0  0  0  0  0  0
   -5.9590   10.4852   -7.7375 C   0  0  0  0  0  0  0  0  0  0  0  0
   -5.8471   11.7541   -7.1585 C   0  0  0  0  0  0  0  0  0  0  0  0
   -4.5907   12.3017   -6.9141 C   0  0  0  0  0  0  0  0  0  0  0  0
   -3.4394   11.5818   -7.2374 C   0  0  0  0  0  0  0  0  0  0  0  0
   -3.5527   10.3083   -7.8066 C   0  0  0  0  0  0  0  0  0  0  0  0
   -4.8082    9.7633   -8.0562 C   0  0  0  0  0  0  0  0  0  0  0  0
   -2.0898   12.1596   -6.9778 C   0  0  3  0  0  0  0  0  0  0  0  0
   -1.7390   13.4130   -6.4881 C   0  0  0  0  0  0  0  0  0  0  0  0
   -0.3978   13.4480   -6.4305 N   0  0  3  0  0  0  0  0  0  0  0  0
    0.1868   12.3491   -6.8198 N   0  0  0  0  0  0  0  0  0  0  0  0
   -0.8044   11.5467   -7.1770 C   0  0  0  0  0  0  0  0  0  0  0  0
    0.4420   14.5581   -5.9859 C   0  0  0  0  0  0  0  0  0  0  0  0
   -3.7035   15.0408  -11.2447 C   0  0  0  0  0  0  0  0  0  0  0  0
   -3.1688   14.3872   -9.9709 C   0  0  0  0  0  0  0  0  0  0  0  0
   -4.1668   13.2516  -10.0984 C   0  0  0  0  0  0  0  0  0  0  0  0
   -1.8336   13.9158  -10.0706 O   0  0  0  0  0  0  0  0  0  0  0  0
   -0.8619   14.9477  -10.1504 C   0  0  0  0  0  0  0  0  0  0  0  0
   -6.1473   12.2646   -9.8638 H   0  0  0  0  0  0  0  0  0  0  0  0
   -8.2039   10.1205  -13.8995 H   0  0  0  0  0  0  0  0  0  0  0  0
   -6.8899   12.2266  -14.0936 H   0  0  0  0  0  0  0  0  0  0  0  0
   -8.0434    9.6128   -7.2619 H   0  0  0  0  0  0  0  0  0  0  0  0
   -6.7368   12.3095   -6.9008 H   0  0  0  0  0  0  0  0  0  0  0  0
   -4.5068   13.2844   -6.4740 H   0  0  0  0  0  0  0  0  0  0  0  0
   -2.6633    9.7472   -8.0527 H   0  0  0  0  0  0  0  0  0  0  0  0
   -4.8922    8.7809   -8.4969 H   0  0  0  0  0  0  0  0  0  0  0  0
   -2.1186   11.7662   -5.9510 H   0  0  0  0  0  0  0  0  0  0  0  0
   -2.1093   14.1996   -7.1620 H   0  0  0  0  0  0  0  0  0  0  0  0
   -2.1647   13.5597   -5.4845 H   0  0  0  0  0  0  0  0  0  0  0  0
   -0.6640   10.5509   -7.5709 H   0  0  0  0  0  0  0  0  0  0  0  0
    1.5009   14.2685   -6.0560 H   0  0  0  0  0  0  0  0  0  0  0  0
    0.2588   15.4349   -6.6244 H   0  0  0  0  0  0  0  0  0  0  0  0
    0.1984   14.8070   -4.9425 H   0  0  0  0  0  0  0  0  0  0  0  0
   -2.9622   15.1711  -12.0469 H   0  0  0  0  0  0  0  0  0  0  0  0
   -4.2464   15.9849  -11.0903 H   0  0  0  0  0  0  0  0  0  0  0  0
   -3.3555   15.0059   -9.0807 H   0  0  0  0  0  0  0  0  0  0  0  0
   -4.9587   13.2414   -9.3350 H   0  0  0  0  0  0  0  0  0  0  0  0
   -3.7216   12.2489  -10.1783 H   0  0  0  0  0  0  0  0  0  0  0  0
    0.1412   14.5025  -10.2248 H   0  0  0  0  0  0  0  0  0  0  0  0
   -1.0556   15.5656  -11.0396 H   0  0  0  0  0  0  0  0  0  0  0  0
   -0.9185   15.5750   -9.2486 H   0  0  0  0  0  0  0  0  0  0  0  0
  1  2  2  0  0  0  0
  1  4  1  0  0  0  0
  1 12  1  0  0  0  0
  2  6  1  0  0  0  0
  3  4  2  0  0  0  0
  3  5  1  0  0  0  0
  5  6  2  0  0  0  0
  5  9  1  0  0  0  0
  6  7  1  0  0  0  0
  7  8  1  0  0  0  0
  7 10  2  3  0  0  0
  8  9  2  0  0  0  0
 10 14  1  0  0  0  0
 11 12  1  0  0  0  0
 11 26  1  0  0  0  0
 11 28  1  0  0  0  0
 12 13  2  0  0  0  0
 14 15  2  0  0  0  0
 14 19  1  0  0  0  0
 15 16  1  0  0  0  0
 16 17  2  0  0  0  0
 17 18  1  0  0  0  0
 17 20  1  0  0  0  0
 18 19  2  0  0  0  0
 20 21  1  0  0  0  0
 20 24  1  0  0  0  0
 21 22  1  0  0  0  0
 22 23  1  0  0  0  0
 22 25  1  0  0  0  0
 23 24  2  0  0  0  0
 26 27  1  0  0  0  0
 27 28  1  0  0  0  0
 27 29  1  0  0  0  0
 29 30  1  0  0  0  0
  2 31  1  0  0  0  0
  3 32  1  0  0  0  0
  4 33  1  0  0  0  0
 10 34  1  0  0  0  0
 15 35  1  0  0  0  0
 16 36  1  0  0  0  0
 18 37  1  0  0  0  0
 19 38  1  0  0  0  0
 20 39  1  0  0  0  0
 21 40  1  0  0  0  0
 21 41  1  0  0  0  0
 24 42  1  0  0  0  0
 25 43  1  0  0  0  0
 25 44  1  0  0  0  0
 25 45  1  0  0  0  0
 26 46  1  0  0  0  0
 26 47  1  0  0  0  0
 27 48  1  0  0  0  0
 28 49  1  0  0  0  0
 28 50  1  0  0  0  0
 30 51  1  0  0  0  0
 30 52  1  0  0  0  0
 30 53  1  0  0  0  0
M  END
> <Name>
36

> <IC50[uM]>
0.006

$$$$
36
  -OEChem-05192314333D
 Structure written by MMmdl.
 53 57  0     1  0  0  0  0  0999 V2000
   -6.3988   12.3548  -12.0167 C   0  0  0  0  0  0  0  0  0  0  0  0
   -6.5634   11.7828  -10.7362 C   0  0  0  0  0  0  0  0  0  0  0  0
   -7.7338   10.5694  -13.0370 C   0  0  0  0  0  0  0  0  0  0  0  0
   -6.9985   11.7556  -13.1278 C   0  0  0  0  0  0  0  0  0  0  0  0
   -7.8247    9.9971  -11.7595 C   0  0  0  0  0  0  0  0  0  0  0  0
   -7.2595   10.6059  -10.6156 C   0  0  0  0  0  0  0  0  0  0  0  0
   -7.6196    9.7377   -9.5218 C   0  0  0  0  0  0  0  0  0  0  0  0
   -8.2737    8.7166   -9.9897 N   0  0  0  0  0  0  0  0  0  0  0  0
   -8.4125    8.8485  -11.3029 N   0  0  0  0  0  0  0  0  0  0  0  0
   -7.3396    9.8926   -8.0318 C   0  0  0  0  0  0  0  0  0  0  0  0
   -4.5445   13.8618  -11.3707 N   0  0  0  0  0  0  0  0  0  0  0  0
   -5.5979   13.6472  -12.1806 C   0  0  0  0  0  0  0  0  0  0  0  0
   -5.9190   14.4711  -13.0424 O   0  0  0  0  0  0  0  0  0  0  0  0
   -5.9590   10.4852   -7.7375 C   0  0  0  0  0  0  0  0  0  0  0  0
   -5.8471   11.7541   -7.1585 C   0  0  0  0  0  0  0  0  0  0  0  0
   -4.5907   12.3017   -6.9141 C   0  0  0  0  0  0  0  0  0  0  0  0
   -3.4394   11.5818   -7.2374 C   0  0  0  0  0  0  0  0  0  0  0  0
   -3.5527   10.3083   -7.8066 C   0  0  0  0  0  0  0  0  0  0  0  0
   -4.8082    9.7633   -8.0562 C   0  0  0  0  0  0  0  0  0  0  0  0
   -2.0898   12.1596   -6.9778 C   0  0  0  0  0  0  0  0  0  0  0  0
   -1.7390   13.4130   -6.4881 C   0  0  0  0  0  0  0  0  0  0  0  0
   -0.3978   13.4480   -6.4305 N   0  0  3  0  0  0  0  0  0  0  0  0
    0.1868   12.3491   -6.8198 N   0  0  0  0  0  0  0  0  0  0  0  0
   -0.8044   11.5467   -7.1770 C   0  0  0  0  0  0  0  0  0  0  0  0
    0.4420   14.5581   -5.9859 C   0  0  0  0  0  0  0  0  0  0  0  0
   -3.7035   15.0408  -11.2447 C   0  0  0  0  0  0  0  0  0  0  0  0
   -3.1688   14.3872   -9.9709 C   0  0  0  0  0  0  0  0  0  0  0  0
   -4.1668   13.2516  -10.0984 C   0  0  0  0  0  0  0  0  0  0  0  0
   -1.8336   13.9158  -10.0706 O   0  0  0  0  0  0  0  0  0  0  0  0
   -0.8619   14.9477  -10.1504 C   0  0  0  0  0  0  0  0  0  0  0  0
   -6.1473   12.2646   -9.8638 H   0  0  0  0  0  0  0  0  0  0  0  0
   -8.2039   10.1205  -13.8995 H   0  0  0  0  0  0  0  0  0  0  0  0
   -6.8899   12.2266  -14.0936 H   0  0  0  0  0  0  0  0  0  0  0  0
   -8.0434    9.6128   -7.2619 H   0  0  0  0  0  0  0  0  0  0  0  0
   -6.7368   12.3095   -6.9008 H   0  0  0  0  0  0  0  0  0  0  0  0
   -4.5068   13.2844   -6.4740 H   0  0  0  0  0  0  0  0  0  0  0  0
   -2.6633    9.7472   -8.0527 H   0  0  0  0  0  0  0  0  0  0  0  0
   -4.8922    8.7809   -8.4969 H   0  0  0  0  0  0  0  0  0  0  0  0
   -2.4158   14.2066   -6.2077 H   0  0  0  0  0  0  0  0  0  0  0  0
    0.7922   12.5279   -7.5954 H   0  0  0  0  0  0  0  0  0  0  0  0
   -0.7519   10.6273   -6.5754 H   0  0  0  0  0  0  0  0  0  0  0  0
   -0.6918   11.2950   -8.2419 H   0  0  0  0  0  0  0  0  0  0  0  0
    1.5010   14.2696   -6.0591 H   0  0  0  0  0  0  0  0  0  0  0  0
    0.2564   15.4359   -6.6223 H   0  0  0  0  0  0  0  0  0  0  0  0
    0.2007   14.8048   -4.9414 H   0  0  0  0  0  0  0  0  0  0  0  0
   -2.9622   15.1711  -12.0469 H   0  0  0  0  0  0  0  0  0  0  0  0
   -4.2464   15.9849  -11.0903 H   0  0  0  0  0  0  0  0  0  0  0  0
   -3.3555   15.0059   -9.0807 H   0  0  0  0  0  0  0  0  0  0  0  0
   -4.9587   13.2414   -9.3350 H   0  0  0  0  0  0  0  0  0  0  0  0
   -3.7216   12.2489  -10.1783 H   0  0  0  0  0  0  0  0  0  0  0  0
    0.1412   14.5025  -10.2248 H   0  0  0  0  0  0  0  0  0  0  0  0
   -1.0556   15.5656  -11.0396 H   0  0  0  0  0  0  0  0  0  0  0  0
   -0.9185   15.5750   -9.2486 H   0  0  0  0  0  0  0  0  0  0  0  0
  1  2  2  0  0  0  0
  1  4  1  0  0  0  0
  1 12  1  0  0  0  0
  2  6  1  0  0  0  0
  3  4  2  0  0  0  0
  3  5  1  0  0  0  0
  5  6  2  0  0  0  0
  5  9  1  0  0  0  0
  6  7  1  0  0  0  0
  7  8  1  0  0  0  0
  7 10  2  3  0  0  0
  8  9  2  0  0  0  0
 10 14  1  0  0  0  0
 11 12  1  0  0  0  0
 11 26  1  0  0  0  0
 11 28  1  0  0  0  0
 12 13  2  0  0  0  0
 14 15  2  0  0  0  0
 14 19  1  0  0  0  0
 15 16  1  0  0  0  0
 16 17  2  0  0  0  0
 17 18  1  0  0  0  0
 17 20  1  0  0  0  0
 18 19  2  0  0  0  0
 20 21  2  0  0  0  0
 20 24  1  0  0  0  0
 21 22  1  0  0  0  0
 22 23  1  0  0  0  0
 22 25  1  0  0  0  0
 23 24  1  0  0  0  0
 26 27  1  0  0  0  0
 27 28  1  0  0  0  0
 27 29  1  0  0  0  0
 29 30  1  0  0  0  0
  2 31  1  0  0  0  0
  3 32  1  0  0  0  0
  4 33  1  0  0  0  0
 10 34  1  0  0  0  0
 15 35  1  0  0  0  0
 16 36  1  0  0  0  0
 18 37  1  0  0  0  0
 19 38  1  0  0  0  0
 21 39  1  0  0  0  0
 23 40  1  0  0  0  0
 24 41  1  0  0  0  0
 24 42  1  0  0  0  0
 25 43  1  0  0  0  0
 25 44  1  0  0  0  0
 25 45  1  0  0  0  0
 26 46  1  0  0  0  0
 26 47  1  0  0  0  0
 27 48  1  0  0  0  0
 28 49  1  0  0  0  0
 28 50  1  0  0  0  0
 30 51  1  0  0  0  0
 30 52  1  0  0  0  0
 30 53  1  0  0  0  0
M  END
> <Name>
36

> <IC50[uM]>
0.006

$$$$
36
  -OEChem-05192314333D
 Structure written by MMmdl.
 53 57  0     1  0  0  0  0  0999 V2000
   -6.3988   12.3548  -12.0167 C   0  0  0  0  0  0  0  0  0  0  0  0
   -6.5634   11.7828  -10.7362 C   0  0  0  0  0  0  0  0  0  0  0  0
   -7.7338   10.5694  -13.0370 C   0  0  0  0  0  0  0  0  0  0  0  0
   -6.9985   11.7556  -13.1278 C   0  0  0  0  0  0  0  0  0  0  0  0
   -7.8247    9.9971  -11.7595 C   0  0  0  0  0  0  0  0  0  0  0  0
   -7.2595   10.6059  -10.6156 C   0  0  0  0  0  0  0  0  0  0  0  0
   -7.6196    9.7377   -9.5218 C   0  0  0  0  0  0  0  0  0  0  0  0
   -8.2737    8.7166   -9.9897 N   0  0  0  0  0  0  0  0  0  0  0  0
   -8.4125    8.8485  -11.3029 N   0  0  0  0  0  0  0  0  0  0  0  0
   -7.3396    9.8926   -8.0318 C   0  0  0  0  0  0  0  0  0  0  0  0
   -4.5445   13.8618  -11.3707 N   0  0  0  0  0  0  0  0  0  0  0  0
   -5.5979   13.6472  -12.1806 C   0  0  0  0  0  0  0  0  0  0  0  0
   -5.9190   14.4711  -13.0424 O   0  0  0  0  0  0  0  0  0  0  0  0
   -5.9590   10.4852   -7.7375 C   0  0  0  0  0  0  0  0  0  0  0  0
   -5.8471   11.7541   -7.1585 C   0  0  0  0  0  0  0  0  0  0  0  0
   -4.5907   12.3017   -6.9141 C   0  0  0  0  0  0  0  0  0  0  0  0
   -3.4394   11.5818   -7.2374 C   0  0  0  0  0  0  0  0  0  0  0  0
   -3.5527   10.3083   -7.8066 C   0  0  0  0  0  0  0  0  0  0  0  0
   -4.8082    9.7633   -8.0562 C   0  0  0  0  0  0  0  0  0  0  0  0
   -2.0898   12.1596   -6.9778 C   0  0  0  0  0  0  0  0  0  0  0  0
   -1.7390   13.4130   -6.4881 C   0  0  0  0  0  0  0  0  0  0  0  0
   -0.3978   13.4480   -6.4305 N   0  0  3  0  0  0  0  0  0  0  0  0
    0.1868   12.3491   -6.8198 N   0  0  0  0  0  0  0  0  0  0  0  0
   -0.8044   11.5467   -7.1770 C   0  0  0  0  0  0  0  0  0  0  0  0
    0.4420   14.5581   -5.9859 C   0  0  0  0  0  0  0  0  0  0  0  0
   -3.7035   15.0408  -11.2447 C   0  0  0  0  0  0  0  0  0  0  0  0
   -3.1688   14.3872   -9.9709 C   0  0  0  0  0  0  0  0  0  0  0  0
   -4.1668   13.2516  -10.0984 C   0  0  0  0  0  0  0  0  0  0  0  0
   -1.8336   13.9158  -10.0706 O   0  0  0  0  0  0  0  0  0  0  0  0
   -0.8619   14.9477  -10.1504 C   0  0  0  0  0  0  0  0  0  0  0  0
   -6.1473   12.2646   -9.8638 H   0  0  0  0  0  0  0  0  0  0  0  0
   -8.2039   10.1205  -13.8995 H   0  0  0  0  0  0  0  0  0  0  0  0
   -6.8899   12.2266  -14.0936 H   0  0  0  0  0  0  0  0  0  0  0  0
   -8.0434    9.6128   -7.2619 H   0  0  0  0  0  0  0  0  0  0  0  0
   -6.7368   12.3095   -6.9008 H   0  0  0  0  0  0  0  0  0  0  0  0
   -4.5068   13.2844   -6.4740 H   0  0  0  0  0  0  0  0  0  0  0  0
   -2.6633    9.7472   -8.0527 H   0  0  0  0  0  0  0  0  0  0  0  0
   -4.8922    8.7809   -8.4969 H   0  0  0  0  0  0  0  0  0  0  0  0
   -2.1093   14.1996   -7.1620 H   0  0  0  0  0  0  0  0  0  0  0  0
   -2.1647   13.5597   -5.4845 H   0  0  0  0  0  0  0  0  0  0  0  0
    0.7922   12.5279   -7.5954 H   0  0  0  0  0  0  0  0  0  0  0  0
   -0.6640   10.5509   -7.5709 H   0  0  0  0  0  0  0  0  0  0  0  0
    1.5010   14.2696   -6.0591 H   0  0  0  0  0  0  0  0  0  0  0  0
    0.2564   15.4359   -6.6223 H   0  0  0  0  0  0  0  0  0  0  0  0
    0.2007   14.8048   -4.9414 H   0  0  0  0  0  0  0  0  0  0  0  0
   -2.9622   15.1711  -12.0469 H   0  0  0  0  0  0  0  0  0  0  0  0
   -4.2464   15.9849  -11.0903 H   0  0  0  0  0  0  0  0  0  0  0  0
   -3.3555   15.0059   -9.0807 H   0  0  0  0  0  0  0  0  0  0  0  0
   -4.9587   13.2414   -9.3350 H   0  0  0  0  0  0  0  0  0  0  0  0
   -3.7216   12.2489  -10.1783 H   0  0  0  0  0  0  0  0  0  0  0  0
    0.1412   14.5025  -10.2248 H   0  0  0  0  0  0  0  0  0  0  0  0
   -1.0556   15.5656  -11.0396 H   0  0  0  0  0  0  0  0  0  0  0  0
   -0.9185   15.5750   -9.2486 H   0  0  0  0  0  0  0  0  0  0  0  0
  1  2  2  0  0  0  0
  1  4  1  0  0  0  0
  1 12  1  0  0  0  0
  2  6  1  0  0  0  0
  3  4  2  0  0  0  0
  3  5  1  0  0  0  0
  5  6  2  0  0  0  0
  5  9  1  0  0  0  0
  6  7  1  0  0  0  0
  7  8  1  0  0  0  0
  7 10  2  3  0  0  0
  8  9  2  0  0  0  0
 10 14  1  0  0  0  0
 11 12  1  0  0  0  0
 11 26  1  0  0  0  0
 11 28  1  0  0  0  0
 12 13  2  0  0  0  0
 14 15  2  0  0  0  0
 14 19  1  0  0  0  0
 15 16  1  0  0  0  0
 16 17  2  0  0  0  0
 17 18  1  0  0  0  0
 17 20  1  0  0  0  0
 18 19  2  0  0  0  0
 20 21  1  0  0  0  0
 20 24  2  0  0  0  0
 21 22  1  0  0  0  0
 22 23  1  0  0  0  0
 22 25  1  0  0  0  0
 23 24  1  0  0  0  0
 26 27  1  0  0  0  0
 27 28  1  0  0  0  0
 27 29  1  0  0  0  0
 29 30  1  0  0  0  0
  2 31  1  0  0  0  0
  3 32  1  0  0  0  0
  4 33  1  0  0  0  0
 10 34  1  0  0  0  0
 15 35  1  0  0  0  0
 16 36  1  0  0  0  0
 18 37  1  0  0  0  0
 19 38  1  0  0  0  0
 21 39  1  0  0  0  0
 21 40  1  0  0  0  0
 23 41  1  0  0  0  0
 24 42  1  0  0  0  0
 25 43  1  0  0  0  0
 25 44  1  0  0  0  0
 25 45  1  0  0  0  0
 26 46  1  0  0  0  0
 26 47  1  0  0  0  0
 27 48  1  0  0  0  0
 28 49  1  0  0  0  0
 28 50  1  0  0  0  0
 30 51  1  0  0  0  0
 30 52  1  0  0  0  0
 30 53  1  0  0  0  0
M  END
> <Name>
36

> <IC50[uM]>
0.006

$$$$
36
  -OEChem-05192314333D
 Structure written by MMmdl.
 53 57  0     1  0  0  0  0  0999 V2000
   -6.3988   12.3548  -12.0167 C   0  0  0  0  0  0  0  0  0  0  0  0
   -6.5634   11.7828  -10.7362 C   0  0  0  0  0  0  0  0  0  0  0  0
   -7.7338   10.5694  -13.0370 C   0  0  0  0  0  0  0  0  0  0  0  0
   -6.9985   11.7556  -13.1278 C   0  0  0  0  0  0  0  0  0  0  0  0
   -7.8247    9.9971  -11.7595 C   0  0  0  0  0  0  0  0  0  0  0  0
   -7.2595   10.6059  -10.6156 C   0  0  0  0  0  0  0  0  0  0  0  0
   -7.6196    9.7377   -9.5218 C   0  0  3  0  0  0  0  0  0  0  0  0
   -8.2737    8.7166   -9.9897 N   0  0  0  0  0  0  0  0  0  0  0  0
   -8.4125    8.8485  -11.3029 N   0  0  0  0  0  0  0  0  0  0  0  0
   -7.3396    9.8926   -8.0318 C   0  0  0  0  0  0  0  0  0  0  0  0
   -4.5445   13.8618  -11.3707 N   0  0  0  0  0  0  0  0  0  0  0  0
   -5.5979   13.6472  -12.1806 C   0  0  0  0  0  0  0  0  0  0  0  0
   -5.9190   14.4711  -13.0424 O   0  0  0  0  0  0  0  0  0  0  0  0
   -5.9590   10.4852   -7.7375 C   0  0  0  0  0  0  0  0  0  0  0  0
   -5.8471   11.7541   -7.1585 C   0  0  0  0  0  0  0  0  0  0  0  0
   -4.5907   12.3017   -6.9141 C   0  0  0  0  0  0  0  0  0  0  0  0
   -3.4394   11.5818   -7.2374 C   0  0  0  0  0  0  0  0  0  0  0  0
   -3.5527   10.3083   -7.8066 C   0  0  0  0  0  0  0  0  0  0  0  0
   -4.8082    9.7633   -8.0562 C   0  0  0  0  0  0  0  0  0  0  0  0
   -2.0898   12.1596   -6.9778 C   0  0  0  0  0  0  0  0  0  0  0  0
   -1.7390   13.4130   -6.4881 C   0  0  0  0  0  0  0  0  0  0  0  0
   -0.3978   13.4480   -6.4305 N   0  0  3  0  0  0  0  0  0  0  0  0
    0.1868   12.3491   -6.8198 N   0  0  0  0  0  0  0  0  0  0  0  0
   -0.8044   11.5467   -7.1770 C   0  0  0  0  0  0  0  0  0  0  0  0
    0.4420   14.5581   -5.9859 C   0  0  0  0  0  0  0  0  0  0  0  0
   -3.7035   15.0408  -11.2447 C   0  0  0  0  0  0  0  0  0  0  0  0
   -3.1688   14.3872   -9.9709 C   0  0  0  0  0  0  0  0  0  0  0  0
   -4.1668   13.2516  -10.0984 C   0  0  0  0  0  0  0  0  0  0  0  0
   -1.8336   13.9158  -10.0706 O   0  0  0  0  0  0  0  0  0  0  0  0
   -0.8619   14.9477  -10.1504 C   0  0  0  0  0  0  0  0  0  0  0  0
   -6.1473   12.2646   -9.8638 H   0  0  0  0  0  0  0  0  0  0  0  0
   -8.2039   10.1205  -13.8995 H   0  0  0  0  0  0  0  0  0  0  0  0
   -6.8899   12.2266  -14.0936 H   0  0  0  0  0  0  0  0  0  0  0  0
   -6.6738    9.1895   -9.6438 H   0  0  0  0  0  0  0  0  0  0  0  0
   -8.0434    9.6128   -7.2619 H   0  0  0  0  0  0  0  0  0  0  0  0
   -6.7368   12.3095   -6.9008 H   0  0  0  0  0  0  0  0  0  0  0  0
   -4.5068   13.2844   -6.4740 H   0  0  0  0  0  0  0  0  0  0  0  0
   -2.6633    9.7472   -8.0527 H   0  0  0  0  0  0  0  0  0  0  0  0
   -4.8922    8.7809   -8.4969 H   0  0  0  0  0  0  0  0  0  0  0  0
   -2.1093   14.1996   -7.1620 H   0  0  0  0  0  0  0  0  0  0  0  0
   -2.1647   13.5597   -5.4845 H   0  0  0  0  0  0  0  0  0  0  0  0
   -0.6640   10.5509   -7.5709 H   0  0  0  0  0  0  0  0  0  0  0  0
    1.5009   14.2685   -6.0560 H   0  0  0  0  0  0  0  0  0  0  0  0
    0.2588   15.4349   -6.6244 H   0  0  0  0  0  0  0  0  0  0  0  0
    0.1984   14.8070   -4.9425 H   0  0  0  0  0  0  0  0  0  0  0  0
   -2.9622   15.1711  -12.0469 H   0  0  0  0  0  0  0  0  0  0  0  0
   -4.2464   15.9849  -11.0903 H   0  0  0  0  0  0  0  0  0  0  0  0
   -3.3555   15.0059   -9.0807 H   0  0  0  0  0  0  0  0  0  0  0  0
   -4.9587   13.2414   -9.3350 H   0  0  0  0  0  0  0  0  0  0  0  0
   -3.7216   12.2489  -10.1783 H   0  0  0  0  0  0  0  0  0  0  0  0
    0.1412   14.5025  -10.2248 H   0  0  0  0  0  0  0  0  0  0  0  0
   -1.0556   15.5656  -11.0396 H   0  0  0  0  0  0  0  0  0  0  0  0
   -0.9185   15.5750   -9.2486 H   0  0  0  0  0  0  0  0  0  0  0  0
  1  2  2  0  0  0  0
  1  4  1  0  0  0  0
  1 12  1  0  0  0  0
  2  6  1  0  0  0  0
  3  4  2  0  0  0  0
  3  5  1  0  0  0  0
  5  6  2  0  0  0  0
  5  9  1  0  0  0  0
  6  7  1  0  0  0  0
  7  8  1  0  0  0  0
  7 10  1  0  0  0  0
  8  9  2  0  0  0  0
 10 14  2  0  0  0  0
 11 12  1  0  0  0  0
 11 26  1  0  0  0  0
 11 28  1  0  0  0  0
 12 13  2  0  0  0  0
 14 15  1  0  0  0  0
 14 19  1  0  0  0  0
 15 16  2  0  0  0  0
 16 17  1  0  0  0  0
 17 18  1  0  0  0  0
 17 20  2  0  0  0  0
 18 19  2  0  0  0  0
 20 21  1  0  0  0  0
 20 24  1  0  0  0  0
 21 22  1  0  0  0  0
 22 23  1  0  0  0  0
 22 25  1  0  0  0  0
 23 24  2  0  0  0  0
 26 27  1  0  0  0  0
 27 28  1  0  0  0  0
 27 29  1  0  0  0  0
 29 30  1  0  0  0  0
  2 31  1  0  0  0  0
  3 32  1  0  0  0  0
  4 33  1  0  0  0  0
  7 34  1  0  0  0  0
 10 35  1  0  0  0  0
 15 36  1  0  0  0  0
 16 37  1  0  0  0  0
 18 38  1  0  0  0  0
 19 39  1  0  0  0  0
 21 40  1  0  0  0  0
 21 41  1  0  0  0  0
 24 42  1  0  0  0  0
 25 43  1  0  0  0  0
 25 44  1  0  0  0  0
 25 45  1  0  0  0  0
 26 46  1  0  0  0  0
 26 47  1  0  0  0  0
 27 48  1  0  0  0  0
 28 49  1  0  0  0  0
 28 50  1  0  0  0  0
 30 51  1  0  0  0  0
 30 52  1  0  0  0  0
 30 53  1  0  0  0  0
M  END
> <Name>
36

> <IC50[uM]>
0.006

$$$$
36
  -OEChem-05192314333D
 Structure written by MMmdl.
 53 57  0     1  0  0  0  0  0999 V2000
   -6.3988   12.3548  -12.0167 C   0  0  3  0  0  0  0  0  0  0  0  0
   -6.5634   11.7828  -10.7362 C   0  0  0  0  0  0  0  0  0  0  0  0
   -7.7338   10.5694  -13.0370 C   0  0  0  0  0  0  0  0  0  0  0  0
   -6.9985   11.7556  -13.1278 C   0  0  0  0  0  0  0  0  0  0  0  0
   -7.8247    9.9971  -11.7595 C   0  0  0  0  0  0  0  0  0  0  0  0
   -7.2595   10.6059  -10.6156 C   0  0  0  0  0  0  0  0  0  0  0  0
   -7.6196    9.7377   -9.5218 C   0  0  0  0  0  0  0  0  0  0  0  0
   -8.2737    8.7166   -9.9897 N   0  0  0  0  0  0  0  0  0  0  0  0
   -8.4125    8.8485  -11.3029 N   0  0  0  0  0  0  0  0  0  0  0  0
   -7.3396    9.8926   -8.0318 C   0  0  0  0  0  0  0  0  0  0  0  0
   -4.5445   13.8618  -11.3707 N   0  0  0  0  0  0  0  0  0  0  0  0
   -5.5979   13.6472  -12.1806 C   0  0  0  0  0  0  0  0  0  0  0  0
   -5.9190   14.4711  -13.0424 O   0  0  0  0  0  0  0  0  0  0  0  0
   -5.9590   10.4852   -7.7375 C   0  0  0  0  0  0  0  0  0  0  0  0
   -5.8471   11.7541   -7.1585 C   0  0  0  0  0  0  0  0  0  0  0  0
   -4.5907   12.3017   -6.9141 C   0  0  0  0  0  0  0  0  0  0  0  0
   -3.4394   11.5818   -7.2374 C   0  0  0  0  0  0  0  0  0  0  0  0
   -3.5527   10.3083   -7.8066 C   0  0  0  0  0  0  0  0  0  0  0  0
   -4.8082    9.7633   -8.0562 C   0  0  0  0  0  0  0  0  0  0  0  0
   -2.0898   12.1596   -6.9778 C   0  0  0  0  0  0  0  0  0  0  0  0
   -1.7390   13.4130   -6.4881 C   0  0  0  0  0  0  0  0  0  0  0  0
   -0.3978   13.4480   -6.4305 N   0  0  0  0  0  0  0  0  0  0  0  0
    0.1868   12.3491   -6.8198 N   0  0  0  0  0  0  0  0  0  0  0  0
   -0.8044   11.5467   -7.1770 C   0  0  0  0  0  0  0  0  0  0  0  0
    0.4420   14.5581   -5.9859 C   0  0  0  0  0  0  0  0  0  0  0  0
   -3.7035   15.0408  -11.2447 C   0  0  0  0  0  0  0  0  0  0  0  0
   -3.1688   14.3872   -9.9709 C   0  0  0  0  0  0  0  0  0  0  0  0
   -4.1668   13.2516  -10.0984 C   0  0  0  0  0  0  0  0  0  0  0  0
   -1.8336   13.9158  -10.0706 O   0  0  0  0  0  0  0  0  0  0  0  0
   -0.8619   14.9477  -10.1504 C   0  0  0  0  0  0  0  0  0  0  0  0
   -5.4875   11.7597  -12.1757 H   0  0  0  0  0  0  0  0  0  0  0  0
   -6.1473   12.2646   -9.8638 H   0  0  0  0  0  0  0  0  0  0  0  0
   -8.2039   10.1205  -13.8995 H   0  0  0  0  0  0  0  0  0  0  0  0
   -6.8899   12.2266  -14.0936 H   0  0  0  0  0  0  0  0  0  0  0  0
   -8.1040   10.5547   -7.5991 H   0  0  0  0  0  0  0  0  0  0  0  0
   -7.4029    8.9014   -7.5590 H   0  0  0  0  0  0  0  0  0  0  0  0
   -6.7368   12.3095   -6.9008 H   0  0  0  0  0  0  0  0  0  0  0  0
   -4.5068   13.2844   -6.4740 H   0  0  0  0  0  0  0  0  0  0  0  0
   -2.6633    9.7472   -8.0527 H   0  0  0  0  0  0  0  0  0  0  0  0
   -4.8922    8.7809   -8.4969 H   0  0  0  0  0  0  0  0  0  0  0  0
   -2.4158   14.2066   -6.2077 H   0  0  0  0  0  0  0  0  0  0  0  0
   -0.6640   10.5509   -7.5709 H   0  0  0  0  0  0  0  0  0  0  0  0
    1.5009   14.2685   -6.0560 H   0  0  0  0  0  0  0  0  0  0  0  0
    0.2588   15.4349   -6.6244 H   0  0  0  0  0  0  0  0  0  0  0  0
    0.1984   14.8070   -4.9425 H   0  0  0  0  0  0  0  0  0  0  0  0
   -2.9622   15.1711  -12.0469 H   0  0  0  0  0  0  0  0  0  0  0  0
   -4.2464   15.9849  -11.0903 H   0  0  0  0  0  0  0  0  0  0  0  0
   -3.3555   15.0059   -9.0807 H   0  0  0  0  0  0  0  0  0  0  0  0
   -4.9587   13.2414   -9.3350 H   0  0  0  0  0  0  0  0  0  0  0  0
   -3.7216   12.2489  -10.1783 H   0  0  0  0  0  0  0  0  0  0  0  0
    0.1412   14.5025  -10.2248 H   0  0  0  0  0  0  0  0  0  0  0  0
   -1.0556   15.5656  -11.0396 H   0  0  0  0  0  0  0  0  0  0  0  0
   -0.9185   15.5750   -9.2486 H   0  0  0  0  0  0  0  0  0  0  0  0
  1  2  1  0  0  0  0
  1  4  1  0  0  0  0
  1 12  1  0  0  0  0
  2  6  2  0  0  0  0
  3  4  2  0  0  0  0
  3  5  1  0  0  0  0
  5  6  1  0  0  0  0
  5  9  2  0  0  0  0
  6  7  1  0  0  0  0
  7  8  2  0  0  0  0
  7 10  1  0  0  0  0
  8  9  1  0  0  0  0
 10 14  1  0  0  0  0
 11 12  1  0  0  0  0
 11 26  1  0  0  0  0
 11 28  1  0  0  0  0
 12 13  2  0  0  0  0
 14 15  2  0  0  0  0
 14 19  1  0  0  0  0
 15 16  1  0  0  0  0
 16 17  2  0  0  0  0
 17 18  1  0  0  0  0
 17 20  1  0  0  0  0
 18 19  2  0  0  0  0
 20 21  2  0  0  0  0
 20 24  1  0  0  0  0
 21 22  1  0  0  0  0
 22 23  1  0  0  0  0
 22 25  1  0  0  0  0
 23 24  2  0  0  0  0
 26 27  1  0  0  0  0
 27 28  1  0  0  0  0
 27 29  1  0  0  0  0
 29 30  1  0  0  0  0
  1 31  1  0  0  0  0
  2 32  1  0  0  0  0
  3 33  1  0  0  0  0
  4 34  1  0  0  0  0
 10 35  1  0  0  0  0
 10 36  1  0  0  0  0
 15 37  1  0  0  0  0
 16 38  1  0  0  0  0
 18 39  1  0  0  0  0
 19 40  1  0  0  0  0
 21 41  1  0  0  0  0
 24 42  1  0  0  0  0
 25 43  1  0  0  0  0
 25 44  1  0  0  0  0
 25 45  1  0  0  0  0
 26 46  1  0  0  0  0
 26 47  1  0  0  0  0
 27 48  1  0  0  0  0
 28 49  1  0  0  0  0
 28 50  1  0  0  0  0
 30 51  1  0  0  0  0
 30 52  1  0  0  0  0
 30 53  1  0  0  0  0
M  END
> <Name>
36

> <IC50[uM]>
0.006

$$$$
36
  -OEChem-05192314333D
 Structure written by MMmdl.
 53 57  0     1  0  0  0  0  0999 V2000
   -6.3988   12.3548  -12.0167 C   0  0  0  0  0  0  0  0  0  0  0  0
   -6.5634   11.7828  -10.7362 C   0  0  0  0  0  0  0  0  0  0  0  0
   -7.7338   10.5694  -13.0370 C   0  0  0  0  0  0  0  0  0  0  0  0
   -6.9985   11.7556  -13.1278 C   0  0  0  0  0  0  0  0  0  0  0  0
   -7.8247    9.9971  -11.7595 C   0  0  0  0  0  0  0  0  0  0  0  0
   -7.2595   10.6059  -10.6156 C   0  0  3  0  0  0  0  0  0  0  0  0
   -7.6196    9.7377   -9.5218 C   0  0  0  0  0  0  0  0  0  0  0  0
   -8.2737    8.7166   -9.9897 N   0  0  0  0  0  0  0  0  0  0  0  0
   -8.4125    8.8485  -11.3029 N   0  0  0  0  0  0  0  0  0  0  0  0
   -7.3396    9.8926   -8.0318 C   0  0  0  0  0  0  0  0  0  0  0  0
   -4.5445   13.8618  -11.3707 N   0  0  0  0  0  0  0  0  0  0  0  0
   -5.5979   13.6472  -12.1806 C   0  0  0  0  0  0  0  0  0  0  0  0
   -5.9190   14.4711  -13.0424 O   0  0  0  0  0  0  0  0  0  0  0  0
   -5.9590   10.4852   -7.7375 C   0  0  0  0  0  0  0  0  0  0  0  0
   -5.8471   11.7541   -7.1585 C   0  0  0  0  0  0  0  0  0  0  0  0
   -4.5907   12.3017   -6.9141 C   0  0  0  0  0  0  0  0  0  0  0  0
   -3.4394   11.5818   -7.2374 C   0  0  0  0  0  0  0  0  0  0  0  0
   -3.5527   10.3083   -7.8066 C   0  0  0  0  0  0  0  0  0  0  0  0
   -4.8082    9.7633   -8.0562 C   0  0  0  0  0  0  0  0  0  0  0  0
   -2.0898   12.1596   -6.9778 C   0  0  0  0  0  0  0  0  0  0  0  0
   -1.7390   13.4130   -6.4881 C   0  0  0  0  0  0  0  0  0  0  0  0
   -0.3978   13.4480   -6.4305 N   0  0  0  0  0  0  0  0  0  0  0  0
    0.1868   12.3491   -6.8198 N   0  0  0  0  0  0  0  0  0  0  0  0
   -0.8044   11.5467   -7.1770 C   0  0  0  0  0  0  0  0  0  0  0  0
    0.4420   14.5581   -5.9859 C   0  0  0  0  0  0  0  0  0  0  0  0
   -3.7035   15.0408  -11.2447 C   0  0  0  0  0  0  0  0  0  0  0  0
   -3.1688   14.3872   -9.9709 C   0  0  0  0  0  0  0  0  0  0  0  0
   -4.1668   13.2516  -10.0984 C   0  0  0  0  0  0  0  0  0  0  0  0
   -1.8336   13.9158  -10.0706 O   0  0  0  0  0  0  0  0  0  0  0  0
   -0.8619   14.9477  -10.1504 C   0  0  0  0  0  0  0  0  0  0  0  0
   -6.1473   12.2646   -9.8638 H   0  0  0  0  0  0  0  0  0  0  0  0
   -8.2039   10.1205  -13.8995 H   0  0  0  0  0  0  0  0  0  0  0  0
   -6.8899   12.2266  -14.0936 H   0  0  0  0  0  0  0  0  0  0  0  0
   -6.3306   10.0364  -10.7668 H   0  0  0  0  0  0  0  0  0  0  0  0
   -8.1040   10.5547   -7.5991 H   0  0  0  0  0  0  0  0  0  0  0  0
   -7.4029    8.9014   -7.5590 H   0  0  0  0  0  0  0  0  0  0  0  0
   -6.7368   12.3095   -6.9008 H   0  0  0  0  0  0  0  0  0  0  0  0
   -4.5068   13.2844   -6.4740 H   0  0  0  0  0  0  0  0  0  0  0  0
   -2.6633    9.7472   -8.0527 H   0  0  0  0  0  0  0  0  0  0  0  0
   -4.8922    8.7809   -8.4969 H   0  0  0  0  0  0  0  0  0  0  0  0
   -2.4158   14.2066   -6.2077 H   0  0  0  0  0  0  0  0  0  0  0  0
   -0.6640   10.5509   -7.5709 H   0  0  0  0  0  0  0  0  0  0  0  0
    1.5009   14.2685   -6.0560 H   0  0  0  0  0  0  0  0  0  0  0  0
    0.2588   15.4349   -6.6244 H   0  0  0  0  0  0  0  0  0  0  0  0
    0.1984   14.8070   -4.9425 H   0  0  0  0  0  0  0  0  0  0  0  0
   -2.9622   15.1711  -12.0469 H   0  0  0  0  0  0  0  0  0  0  0  0
   -4.2464   15.9849  -11.0903 H   0  0  0  0  0  0  0  0  0  0  0  0
   -3.3555   15.0059   -9.0807 H   0  0  0  0  0  0  0  0  0  0  0  0
   -4.9587   13.2414   -9.3350 H   0  0  0  0  0  0  0  0  0  0  0  0
   -3.7216   12.2489  -10.1783 H   0  0  0  0  0  0  0  0  0  0  0  0
    0.1412   14.5025  -10.2248 H   0  0  0  0  0  0  0  0  0  0  0  0
   -1.0556   15.5656  -11.0396 H   0  0  0  0  0  0  0  0  0  0  0  0
   -0.9185   15.5750   -9.2486 H   0  0  0  0  0  0  0  0  0  0  0  0
  1  2  2  0  0  0  0
  1  4  1  0  0  0  0
  1 12  1  0  0  0  0
  2  6  1  0  0  0  0
  3  4  2  0  0  0  0
  3  5  1  0  0  0  0
  5  6  1  0  0  0  0
  5  9  2  0  0  0  0
  6  7  1  0  0  0  0
  7  8  2  0  0  0  0
  7 10  1  0  0  0  0
  8  9  1  0  0  0  0
 10 14  1  0  0  0  0
 11 12  1  0  0  0  0
 11 26  1  0  0  0  0
 11 28  1  0  0  0  0
 12 13  2  0  0  0  0
 14 15  2  0  0  0  0
 14 19  1  0  0  0  0
 15 16  1  0  0  0  0
 16 17  2  0  0  0  0
 17 18  1  0  0  0  0
 17 20  1  0  0  0  0
 18 19  2  0  0  0  0
 20 21  2  0  0  0  0
 20 24  1  0  0  0  0
 21 22  1  0  0  0  0
 22 23  1  0  0  0  0
 22 25  1  0  0  0  0
 23 24  2  0  0  0  0
 26 27  1  0  0  0  0
 27 28  1  0  0  0  0
 27 29  1  0  0  0  0
 29 30  1  0  0  0  0
  2 31  1  0  0  0  0
  3 32  1  0  0  0  0
  4 33  1  0  0  0  0
  6 34  1  0  0  0  0
 10 35  1  0  0  0  0
 10 36  1  0  0  0  0
 15 37  1  0  0  0  0
 16 38  1  0  0  0  0
 18 39  1  0  0  0  0
 19 40  1  0  0  0  0
 21 41  1  0  0  0  0
 24 42  1  0  0  0  0
 25 43  1  0  0  0  0
 25 44  1  0  0  0  0
 25 45  1  0  0  0  0
 26 46  1  0  0  0  0
 26 47  1  0  0  0  0
 27 48  1  0  0  0  0
 28 49  1  0  0  0  0
 28 50  1  0  0  0  0
 30 51  1  0  0  0  0
 30 52  1  0  0  0  0
 30 53  1  0  0  0  0
M  END
> <Name>
36

> <IC50[uM]>
0.006

$$$$
36
  -OEChem-05192314333D
 Structure written by MMmdl.
 53 57  0     0  0  0  0  0  0999 V2000
   -6.3988   12.3548  -12.0167 C   0  0  0  0  0  0  0  0  0  0  0  0
   -6.5634   11.7828  -10.7362 C   0  0  0  0  0  0  0  0  0  0  0  0
   -7.7338   10.5694  -13.0370 C   0  0  0  0  0  0  0  0  0  0  0  0
   -6.9985   11.7556  -13.1278 C   0  0  0  0  0  0  0  0  0  0  0  0
   -7.8247    9.9971  -11.7595 C   0  0  0  0  0  0  0  0  0  0  0  0
   -7.2595   10.6059  -10.6156 C   0  0  0  0  0  0  0  0  0  0  0  0
   -7.6196    9.7377   -9.5218 C   0  0  0  0  0  0  0  0  0  0  0  0
   -8.2737    8.7166   -9.9897 N   0  0  0  0  0  0  0  0  0  0  0  0
   -8.4125    8.8485  -11.3029 N   0  0  0  0  0  0  0  0  0  0  0  0
   -7.3396    9.8926   -8.0318 C   0  0  0  0  0  0  0  0  0  0  0  0
   -4.5445   13.8618  -11.3707 N   0  0  0  0  0  0  0  0  0  0  0  0
   -5.5979   13.6472  -12.1806 C   0  0  0  0  0  0  0  0  0  0  0  0
   -5.9190   14.4711  -13.0424 O   0  0  0  0  0  0  0  0  0  0  0  0
   -5.9590   10.4852   -7.7375 C   0  0  0  0  0  0  0  0  0  0  0  0
   -5.8471   11.7541   -7.1585 C   0  0  0  0  0  0  0  0  0  0  0  0
   -4.5907   12.3017   -6.9141 C   0  0  0  0  0  0  0  0  0  0  0  0
   -3.4394   11.5818   -7.2374 C   0  0  0  0  0  0  0  0  0  0  0  0
   -3.5527   10.3083   -7.8066 C   0  0  0  0  0  0  0  0  0  0  0  0
   -4.8082    9.7633   -8.0562 C   0  0  0  0  0  0  0  0  0  0  0  0
   -2.0898   12.1596   -6.9778 C   0  0  0  0  0  0  0  0  0  0  0  0
   -1.7390   13.4130   -6.4881 C   0  0  0  0  0  0  0  0  0  0  0  0
   -0.3978   13.4480   -6.4305 N   0  0  0  0  0  0  0  0  0  0  0  0
    0.1868   12.3491   -6.8198 N   0  0  0  0  0  0  0  0  0  0  0  0
   -0.8044   11.5467   -7.1770 C   0  0  0  0  0  0  0  0  0  0  0  0
    0.4420   14.5581   -5.9859 C   0  0  0  0  0  0  0  0  0  0  0  0
   -3.7035   15.0408  -11.2447 C   0  0  0  0  0  0  0  0  0  0  0  0
   -3.1688   14.3872   -9.9709 C   0  0  0  0  0  0  0  0  0  0  0  0
   -4.1668   13.2516  -10.0984 C   0  0  0  0  0  0  0  0  0  0  0  0
   -1.8336   13.9158  -10.0706 O   0  0  0  0  0  0  0  0  0  0  0  0
   -0.8619   14.9477  -10.1504 C   0  0  0  0  0  0  0  0  0  0  0  0
   -6.1473   12.2646   -9.8638 H   0  0  0  0  0  0  0  0  0  0  0  0
   -8.7560   10.7799  -13.3847 H   0  0  0  0  0  0  0  0  0  0  0  0
   -7.2645    9.8310  -13.7037 H   0  0  0  0  0  0  0  0  0  0  0  0
   -6.8899   12.2266  -14.0936 H   0  0  0  0  0  0  0  0  0  0  0  0
   -8.1040   10.5547   -7.5991 H   0  0  0  0  0  0  0  0  0  0  0  0
   -7.4029    8.9014   -7.5590 H   0  0  0  0  0  0  0  0  0  0  0  0
   -6.7368   12.3095   -6.9008 H   0  0  0  0  0  0  0  0  0  0  0  0
   -4.5068   13.2844   -6.4740 H   0  0  0  0  0  0  0  0  0  0  0  0
   -2.6633    9.7472   -8.0527 H   0  0  0  0  0  0  0  0  0  0  0  0
   -4.8922    8.7809   -8.4969 H   0  0  0  0  0  0  0  0  0  0  0  0
   -2.4158   14.2066   -6.2077 H   0  0  0  0  0  0  0  0  0  0  0  0
   -0.6640   10.5509   -7.5709 H   0  0  0  0  0  0  0  0  0  0  0  0
    1.5009   14.2685   -6.0560 H   0  0  0  0  0  0  0  0  0  0  0  0
    0.2588   15.4349   -6.6244 H   0  0  0  0  0  0  0  0  0  0  0  0
    0.1984   14.8070   -4.9425 H   0  0  0  0  0  0  0  0  0  0  0  0
   -2.9622   15.1711  -12.0469 H   0  0  0  0  0  0  0  0  0  0  0  0
   -4.2464   15.9849  -11.0903 H   0  0  0  0  0  0  0  0  0  0  0  0
   -3.3555   15.0059   -9.0807 H   0  0  0  0  0  0  0  0  0  0  0  0
   -4.9587   13.2414   -9.3350 H   0  0  0  0  0  0  0  0  0  0  0  0
   -3.7216   12.2489  -10.1783 H   0  0  0  0  0  0  0  0  0  0  0  0
    0.1412   14.5025  -10.2248 H   0  0  0  0  0  0  0  0  0  0  0  0
   -1.0556   15.5656  -11.0396 H   0  0  0  0  0  0  0  0  0  0  0  0
   -0.9185   15.5750   -9.2486 H   0  0  0  0  0  0  0  0  0  0  0  0
  1  2  1  0  0  0  0
  1  4  2  0  0  0  0
  1 12  1  0  0  0  0
  2  6  2  0  0  0  0
  3  4  1  0  0  0  0
  3  5  1  0  0  0  0
  5  6  1  0  0  0  0
  5  9  2  0  0  0  0
  6  7  1  0  0  0  0
  7  8  2  0  0  0  0
  7 10  1  0  0  0  0
  8  9  1  0  0  0  0
 10 14  1  0  0  0  0
 11 12  1  0  0  0  0
 11 26  1  0  0  0  0
 11 28  1  0  0  0  0
 12 13  2  0  0  0  0
 14 15  2  0  0  0  0
 14 19  1  0  0  0  0
 15 16  1  0  0  0  0
 16 17  2  0  0  0  0
 17 18  1  0  0  0  0
 17 20  1  0  0  0  0
 18 19  2  0  0  0  0
 20 21  2  0  0  0  0
 20 24  1  0  0  0  0
 21 22  1  0  0  0  0
 22 23  1  0  0  0  0
 22 25  1  0  0  0  0
 23 24  2  0  0  0  0
 26 27  1  0  0  0  0
 27 28  1  0  0  0  0
 27 29  1  0  0  0  0
 29 30  1  0  0  0  0
  2 31  1  0  0  0  0
  3 32  1  0  0  0  0
  3 33  1  0  0  0  0
  4 34  1  0  0  0  0
 10 35  1  0  0  0  0
 10 36  1  0  0  0  0
 15 37  1  0  0  0  0
 16 38  1  0  0  0  0
 18 39  1  0  0  0  0
 19 40  1  0  0  0  0
 21 41  1  0  0  0  0
 24 42  1  0  0  0  0
 25 43  1  0  0  0  0
 25 44  1  0  0  0  0
 25 45  1  0  0  0  0
 26 46  1  0  0  0  0
 26 47  1  0  0  0  0
 27 48  1  0  0  0  0
 28 49  1  0  0  0  0
 28 50  1  0  0  0  0
 30 51  1  0  0  0  0
 30 52  1  0  0  0  0
 30 53  1  0  0  0  0
M  END
> <Name>
36

> <IC50[uM]>
0.006

$$$$
36
  -OEChem-05192314333D
 Structure written by MMmdl.
 53 57  0     0  0  0  0  0  0999 V2000
   -6.3988   12.3548  -12.0167 C   0  0  0  0  0  0  0  0  0  0  0  0
   -6.5634   11.7828  -10.7362 C   0  0  0  0  0  0  0  0  0  0  0  0
   -7.7338   10.5694  -13.0370 C   0  0  0  0  0  0  0  0  0  0  0  0
   -6.9985   11.7556  -13.1278 C   0  0  0  0  0  0  0  0  0  0  0  0
   -7.8247    9.9971  -11.7595 C   0  0  0  0  0  0  0  0  0  0  0  0
   -7.2595   10.6059  -10.6156 C   0  0  0  0  0  0  0  0  0  0  0  0
   -7.6196    9.7377   -9.5218 C   0  0  0  0  0  0  0  0  0  0  0  0
   -8.2737    8.7166   -9.9897 N   0  0  0  0  0  0  0  0  0  0  0  0
   -8.4125    8.8485  -11.3029 N   0  0  0  0  0  0  0  0  0  0  0  0
   -7.3396    9.8926   -8.0318 C   0  0  0  0  0  0  0  0  0  0  0  0
   -4.5445   13.8618  -11.3707 N   0  0  0  0  0  0  0  0  0  0  0  0
   -5.5979   13.6472  -12.1806 C   0  0  0  0  0  0  0  0  0  0  0  0
   -5.9190   14.4711  -13.0424 O   0  0  0  0  0  0  0  0  0  0  0  0
   -5.9590   10.4852   -7.7375 C   0  0  0  0  0  0  0  0  0  0  0  0
   -5.8471   11.7541   -7.1585 C   0  0  0  0  0  0  0  0  0  0  0  0
   -4.5907   12.3017   -6.9141 C   0  0  0  0  0  0  0  0  0  0  0  0
   -3.4394   11.5818   -7.2374 C   0  0  0  0  0  0  0  0  0  0  0  0
   -3.5527   10.3083   -7.8066 C   0  0  0  0  0  0  0  0  0  0  0  0
   -4.8082    9.7633   -8.0562 C   0  0  0  0  0  0  0  0  0  0  0  0
   -2.0898   12.1596   -6.9778 C   0  0  0  0  0  0  0  0  0  0  0  0
   -1.7390   13.4130   -6.4881 C   0  0  0  0  0  0  0  0  0  0  0  0
   -0.3978   13.4480   -6.4305 N   0  0  0  0  0  0  0  0  0  0  0  0
    0.1868   12.3491   -6.8198 N   0  0  0  0  0  0  0  0  0  0  0  0
   -0.8044   11.5467   -7.1770 C   0  0  0  0  0  0  0  0  0  0  0  0
    0.4420   14.5581   -5.9859 C   0  0  0  0  0  0  0  0  0  0  0  0
   -3.7035   15.0408  -11.2447 C   0  0  0  0  0  0  0  0  0  0  0  0
   -3.1688   14.3872   -9.9709 C   0  0  0  0  0  0  0  0  0  0  0  0
   -4.1668   13.2516  -10.0984 C   0  0  0  0  0  0  0  0  0  0  0  0
   -1.8336   13.9158  -10.0706 O   0  0  0  0  0  0  0  0  0  0  0  0
   -0.8619   14.9477  -10.1504 C   0  0  0  0  0  0  0  0  0  0  0  0
   -6.1473   12.2646   -9.8638 H   0  0  0  0  0  0  0  0  0  0  0  0
   -8.2039   10.1205  -13.8995 H   0  0  0  0  0  0  0  0  0  0  0  0
   -6.8899   12.2266  -14.0936 H   0  0  0  0  0  0  0  0  0  0  0  0
   -8.0434    9.6128   -7.2619 H   0  0  0  0  0  0  0  0  0  0  0  0
   -5.9728   10.0271   -6.7375 H   0  0  0  0  0  0  0  0  0  0  0  0
   -6.7368   12.3095   -6.9008 H   0  0  0  0  0  0  0  0  0  0  0  0
   -4.5068   13.2844   -6.4740 H   0  0  0  0  0  0  0  0  0  0  0  0
   -3.4394   12.0313   -8.2414 H   0  0  0  0  0  0  0  0  0  0  0  0
   -2.6633    9.7472   -8.0527 H   0  0  0  0  0  0  0  0  0  0  0  0
   -4.8922    8.7809   -8.4969 H   0  0  0  0  0  0  0  0  0  0  0  0
   -2.4158   14.2066   -6.2077 H   0  0  0  0  0  0  0  0  0  0  0  0
   -0.6640   10.5509   -7.5709 H   0  0  0  0  0  0  0  0  0  0  0  0
    1.5009   14.2685   -6.0560 H   0  0  0  0  0  0  0  0  0  0  0  0
    0.2588   15.4349   -6.6244 H   0  0  0  0  0  0  0  0  0  0  0  0
    0.1984   14.8070   -4.9425 H   0  0  0  0  0  0  0  0  0  0  0  0
   -2.9622   15.1711  -12.0469 H   0  0  0  0  0  0  0  0  0  0  0  0
   -4.2464   15.9849  -11.0903 H   0  0  0  0  0  0  0  0  0  0  0  0
   -3.3555   15.0059   -9.0807 H   0  0  0  0  0  0  0  0  0  0  0  0
   -4.9587   13.2414   -9.3350 H   0  0  0  0  0  0  0  0  0  0  0  0
   -3.7216   12.2489  -10.1783 H   0  0  0  0  0  0  0  0  0  0  0  0
    0.1412   14.5025  -10.2248 H   0  0  0  0  0  0  0  0  0  0  0  0
   -1.0556   15.5656  -11.0396 H   0  0  0  0  0  0  0  0  0  0  0  0
   -0.9185   15.5750   -9.2486 H   0  0  0  0  0  0  0  0  0  0  0  0
  1  2  2  0  0  0  0
  1  4  1  0  0  0  0
  1 12  1  0  0  0  0
  2  6  1  0  0  0  0
  3  4  2  0  0  0  0
  3  5  1  0  0  0  0
  5  6  2  0  0  0  0
  5  9  1  0  0  0  0
  6  7  1  0  0  0  0
  7  8  1  0  0  0  0
  7 10  2  3  0  0  0
  8  9  2  0  0  0  0
 10 14  1  0  0  0  0
 11 12  1  0  0  0  0
 11 26  1  0  0  0  0
 11 28  1  0  0  0  0
 12 13  2  0  0  0  0
 14 15  1  0  0  0  0
 14 19  1  0  0  0  0
 15 16  2  0  0  0  0
 16 17  1  0  0  0  0
 17 18  1  0  0  0  0
 17 20  1  0  0  0  0
 18 19  2  0  0  0  0
 20 21  2  0  0  0  0
 20 24  1  0  0  0  0
 21 22  1  0  0  0  0
 22 23  1  0  0  0  0
 22 25  1  0  0  0  0
 23 24  2  0  0  0  0
 26 27  1  0  0  0  0
 27 28  1  0  0  0  0
 27 29  1  0  0  0  0
 29 30  1  0  0  0  0
  2 31  1  0  0  0  0
  3 32  1  0  0  0  0
  4 33  1  0  0  0  0
 10 34  1  0  0  0  0
 14 35  1  0  0  0  0
 15 36  1  0  0  0  0
 16 37  1  0  0  0  0
 17 38  1  0  0  0  0
 18 39  1  0  0  0  0
 19 40  1  0  0  0  0
 21 41  1  0  0  0  0
 24 42  1  0  0  0  0
 25 43  1  0  0  0  0
 25 44  1  0  0  0  0
 25 45  1  0  0  0  0
 26 46  1  0  0  0  0
 26 47  1  0  0  0  0
 27 48  1  0  0  0  0
 28 49  1  0  0  0  0
 28 50  1  0  0  0  0
 30 51  1  0  0  0  0
 30 52  1  0  0  0  0
 30 53  1  0  0  0  0
M  END
> <Name>
36

> <IC50[uM]>
0.006

$$$$
36
  -OEChem-05192314333D
 Structure written by MMmdl.
 53 57  0     1  0  0  0  0  0999 V2000
   -6.3988   12.3548  -12.0167 C   0  0  0  0  0  0  0  0  0  0  0  0
   -6.5634   11.7828  -10.7362 C   0  0  0  0  0  0  0  0  0  0  0  0
   -7.7338   10.5694  -13.0370 C   0  0  0  0  0  0  0  0  0  0  0  0
   -6.9985   11.7556  -13.1278 C   0  0  0  0  0  0  0  0  0  0  0  0
   -7.8247    9.9971  -11.7595 C   0  0  0  0  0  0  0  0  0  0  0  0
   -7.2595   10.6059  -10.6156 C   0  0  0  0  0  0  0  0  0  0  0  0
   -7.6196    9.7377   -9.5218 C   0  0  3  0  0  0  0  0  0  0  0  0
   -8.2737    8.7166   -9.9897 N   0  0  0  0  0  0  0  0  0  0  0  0
   -8.4125    8.8485  -11.3029 N   0  0  0  0  0  0  0  0  0  0  0  0
   -7.3396    9.8926   -8.0318 C   0  0  0  0  0  0  0  0  0  0  0  0
   -4.5445   13.8618  -11.3707 N   0  0  0  0  0  0  0  0  0  0  0  0
   -5.5979   13.6472  -12.1806 C   0  0  0  0  0  0  0  0  0  0  0  0
   -5.9190   14.4711  -13.0424 O   0  0  0  0  0  0  0  0  0  0  0  0
   -5.9590   10.4852   -7.7375 C   0  0  0  0  0  0  0  0  0  0  0  0
   -5.8471   11.7541   -7.1585 C   0  0  0  0  0  0  0  0  0  0  0  0
   -4.5907   12.3017   -6.9141 C   0  0  0  0  0  0  0  0  0  0  0  0
   -3.4394   11.5818   -7.2374 C   0  0  0  0  0  0  0  0  0  0  0  0
   -3.5527   10.3083   -7.8066 C   0  0  0  0  0  0  0  0  0  0  0  0
   -4.8082    9.7633   -8.0562 C   0  0  0  0  0  0  0  0  0  0  0  0
   -2.0898   12.1596   -6.9778 C   0  0  0  0  0  0  0  0  0  0  0  0
   -1.7390   13.4130   -6.4881 C   0  0  0  0  0  0  0  0  0  0  0  0
   -0.3978   13.4480   -6.4305 N   0  0  0  0  0  0  0  0  0  0  0  0
    0.1868   12.3491   -6.8198 N   0  0  0  0  0  0  0  0  0  0  0  0
   -0.8044   11.5467   -7.1770 C   0  0  0  0  0  0  0  0  0  0  0  0
    0.4420   14.5581   -5.9859 C   0  0  0  0  0  0  0  0  0  0  0  0
   -3.7035   15.0408  -11.2447 C   0  0  0  0  0  0  0  0  0  0  0  0
   -3.1688   14.3872   -9.9709 C   0  0  0  0  0  0  0  0  0  0  0  0
   -4.1668   13.2516  -10.0984 C   0  0  0  0  0  0  0  0  0  0  0  0
   -1.8336   13.9158  -10.0706 O   0  0  0  0  0  0  0  0  0  0  0  0
   -0.8619   14.9477  -10.1504 C   0  0  0  0  0  0  0  0  0  0  0  0
   -6.1473   12.2646   -9.8638 H   0  0  0  0  0  0  0  0  0  0  0  0
   -8.2039   10.1205  -13.8995 H   0  0  0  0  0  0  0  0  0  0  0  0
   -6.8899   12.2266  -14.0936 H   0  0  0  0  0  0  0  0  0  0  0  0
   -6.6738    9.1895   -9.6438 H   0  0  0  0  0  0  0  0  0  0  0  0
   -8.0434    9.6128   -7.2619 H   0  0  0  0  0  0  0  0  0  0  0  0
   -6.7368   12.3095   -6.9008 H   0  0  0  0  0  0  0  0  0  0  0  0
   -4.5068   13.2844   -6.4740 H   0  0  0  0  0  0  0  0  0  0  0  0
   -3.4394   12.0313   -8.2414 H   0  0  0  0  0  0  0  0  0  0  0  0
   -2.6633    9.7472   -8.0527 H   0  0  0  0  0  0  0  0  0  0  0  0
   -4.8922    8.7809   -8.4969 H   0  0  0  0  0  0  0  0  0  0  0  0
   -2.4158   14.2066   -6.2077 H   0  0  0  0  0  0  0  0  0  0  0  0
   -0.6640   10.5509   -7.5709 H   0  0  0  0  0  0  0  0  0  0  0  0
    1.5009   14.2685   -6.0560 H   0  0  0  0  0  0  0  0  0  0  0  0
    0.2588   15.4349   -6.6244 H   0  0  0  0  0  0  0  0  0  0  0  0
    0.1984   14.8070   -4.9425 H   0  0  0  0  0  0  0  0  0  0  0  0
   -2.9622   15.1711  -12.0469 H   0  0  0  0  0  0  0  0  0  0  0  0
   -4.2464   15.9849  -11.0903 H   0  0  0  0  0  0  0  0  0  0  0  0
   -3.3555   15.0059   -9.0807 H   0  0  0  0  0  0  0  0  0  0  0  0
   -4.9587   13.2414   -9.3350 H   0  0  0  0  0  0  0  0  0  0  0  0
   -3.7216   12.2489  -10.1783 H   0  0  0  0  0  0  0  0  0  0  0  0
    0.1412   14.5025  -10.2248 H   0  0  0  0  0  0  0  0  0  0  0  0
   -1.0556   15.5656  -11.0396 H   0  0  0  0  0  0  0  0  0  0  0  0
   -0.9185   15.5750   -9.2486 H   0  0  0  0  0  0  0  0  0  0  0  0
  1  2  2  0  0  0  0
  1  4  1  0  0  0  0
  1 12  1  0  0  0  0
  2  6  1  0  0  0  0
  3  4  2  0  0  0  0
  3  5  1  0  0  0  0
  5  6  2  0  0  0  0
  5  9  1  0  0  0  0
  6  7  1  0  0  0  0
  7  8  1  0  0  0  0
  7 10  1  0  0  0  0
  8  9  2  0  0  0  0
 10 14  2  0  0  0  0
 11 12  1  0  0  0  0
 11 26  1  0  0  0  0
 11 28  1  0  0  0  0
 12 13  2  0  0  0  0
 14 15  1  0  0  0  0
 14 19  1  0  0  0  0
 15 16  2  0  0  0  0
 16 17  1  0  0  0  0
 17 18  1  0  0  0  0
 17 20  1  0  0  0  0
 18 19  2  0  0  0  0
 20 21  2  0  0  0  0
 20 24  1  0  0  0  0
 21 22  1  0  0  0  0
 22 23  1  0  0  0  0
 22 25  1  0  0  0  0
 23 24  2  0  0  0  0
 26 27  1  0  0  0  0
 27 28  1  0  0  0  0
 27 29  1  0  0  0  0
 29 30  1  0  0  0  0
  2 31  1  0  0  0  0
  3 32  1  0  0  0  0
  4 33  1  0  0  0  0
  7 34  1  0  0  0  0
 10 35  1  0  0  0  0
 15 36  1  0  0  0  0
 16 37  1  0  0  0  0
 17 38  1  0  0  0  0
 18 39  1  0  0  0  0
 19 40  1  0  0  0  0
 21 41  1  0  0  0  0
 24 42  1  0  0  0  0
 25 43  1  0  0  0  0
 25 44  1  0  0  0  0
 25 45  1  0  0  0  0
 26 46  1  0  0  0  0
 26 47  1  0  0  0  0
 27 48  1  0  0  0  0
 28 49  1  0  0  0  0
 28 50  1  0  0  0  0
 30 51  1  0  0  0  0
 30 52  1  0  0  0  0
 30 53  1  0  0  0  0
M  END
> <Name>
36

> <IC50[uM]>
0.006

$$$$
36
  -OEChem-05192314333D
 Structure written by MMmdl.
 53 57  0     1  0  0  0  0  0999 V2000
   -6.3988   12.3548  -12.0167 C   0  0  3  0  0  0  0  0  0  0  0  0
   -6.5634   11.7828  -10.7362 C   0  0  0  0  0  0  0  0  0  0  0  0
   -7.7338   10.5694  -13.0370 C   0  0  0  0  0  0  0  0  0  0  0  0
   -6.9985   11.7556  -13.1278 C   0  0  0  0  0  0  0  0  0  0  0  0
   -7.8247    9.9971  -11.7595 C   0  0  3  0  0  0  0  0  0  0  0  0
   -7.2595   10.6059  -10.6156 C   0  0  0  0  0  0  0  0  0  0  0  0
   -7.6196    9.7377   -9.5218 C   0  0  0  0  0  0  0  0  0  0  0  0
   -8.2737    8.7166   -9.9897 N   0  0  0  0  0  0  0  0  0  0  0  0
   -8.4125    8.8485  -11.3029 N   0  0  0  0  0  0  0  0  0  0  0  0
   -7.3396    9.8926   -8.0318 C   0  0  0  0  0  0  0  0  0  0  0  0
   -4.5445   13.8618  -11.3707 N   0  0  0  0  0  0  0  0  0  0  0  0
   -5.5979   13.6472  -12.1806 C   0  0  0  0  0  0  0  0  0  0  0  0
   -5.9190   14.4711  -13.0424 O   0  0  0  0  0  0  0  0  0  0  0  0
   -5.9590   10.4852   -7.7375 C   0  0  0  0  0  0  0  0  0  0  0  0
   -5.8471   11.7541   -7.1585 C   0  0  0  0  0  0  0  0  0  0  0  0
   -4.5907   12.3017   -6.9141 C   0  0  0  0  0  0  0  0  0  0  0  0
   -3.4394   11.5818   -7.2374 C   0  0  0  0  0  0  0  0  0  0  0  0
   -3.5527   10.3083   -7.8066 C   0  0  0  0  0  0  0  0  0  0  0  0
   -4.8082    9.7633   -8.0562 C   0  0  0  0  0  0  0  0  0  0  0  0
   -2.0898   12.1596   -6.9778 C   0  0  0  0  0  0  0  0  0  0  0  0
   -1.7390   13.4130   -6.4881 C   0  0  0  0  0  0  0  0  0  0  0  0
   -0.3978   13.4480   -6.4305 N   0  0  0  0  0  0  0  0  0  0  0  0
    0.1868   12.3491   -6.8198 N   0  0  0  0  0  0  0  0  0  0  0  0
   -0.8044   11.5467   -7.1770 C   0  0  0  0  0  0  0  0  0  0  0  0
    0.4420   14.5581   -5.9859 C   0  0  0  0  0  0  0  0  0  0  0  0
   -3.7035   15.0408  -11.2447 C   0  0  0  0  0  0  0  0  0  0  0  0
   -3.1688   14.3872   -9.9709 C   0  0  0  0  0  0  0  0  0  0  0  0
   -4.1668   13.2516  -10.0984 C   0  0  0  0  0  0  0  0  0  0  0  0
   -1.8336   13.9158  -10.0706 O   0  0  0  0  0  0  0  0  0  0  0  0
   -0.8619   14.9477  -10.1504 C   0  0  0  0  0  0  0  0  0  0  0  0
   -5.4875   11.7597  -12.1757 H   0  0  0  0  0  0  0  0  0  0  0  0
   -6.1473   12.2646   -9.8638 H   0  0  0  0  0  0  0  0  0  0  0  0
   -8.2039   10.1205  -13.8995 H   0  0  0  0  0  0  0  0  0  0  0  0
   -6.8899   12.2266  -14.0936 H   0  0  0  0  0  0  0  0  0  0  0  0
   -6.8865    9.4502  -11.9350 H   0  0  0  0  0  0  0  0  0  0  0  0
   -8.0434    9.6128   -7.2619 H   0  0  0  0  0  0  0  0  0  0  0  0
   -6.7368   12.3095   -6.9008 H   0  0  0  0  0  0  0  0  0  0  0  0
   -4.5068   13.2844   -6.4740 H   0  0  0  0  0  0  0  0  0  0  0  0
   -2.6633    9.7472   -8.0527 H   0  0  0  0  0  0  0  0  0  0  0  0
   -4.8922    8.7809   -8.4969 H   0  0  0  0  0  0  0  0  0  0  0  0
   -2.4158   14.2066   -6.2077 H   0  0  0  0  0  0  0  0  0  0  0  0
   -0.6640   10.5509   -7.5709 H   0  0  0  0  0  0  0  0  0  0  0  0
    1.5009   14.2685   -6.0560 H   0  0  0  0  0  0  0  0  0  0  0  0
    0.2588   15.4349   -6.6244 H   0  0  0  0  0  0  0  0  0  0  0  0
    0.1984   14.8070   -4.9425 H   0  0  0  0  0  0  0  0  0  0  0  0
   -2.9622   15.1711  -12.0469 H   0  0  0  0  0  0  0  0  0  0  0  0
   -4.2464   15.9849  -11.0903 H   0  0  0  0  0  0  0  0  0  0  0  0
   -3.3555   15.0059   -9.0807 H   0  0  0  0  0  0  0  0  0  0  0  0
   -4.9587   13.2414   -9.3350 H   0  0  0  0  0  0  0  0  0  0  0  0
   -3.7216   12.2489  -10.1783 H   0  0  0  0  0  0  0  0  0  0  0  0
    0.1412   14.5025  -10.2248 H   0  0  0  0  0  0  0  0  0  0  0  0
   -1.0556   15.5656  -11.0396 H   0  0  0  0  0  0  0  0  0  0  0  0
   -0.9185   15.5750   -9.2486 H   0  0  0  0  0  0  0  0  0  0  0  0
  1  2  1  0  0  0  0
  1  4  1  0  0  0  0
  1 12  1  0  0  0  0
  2  6  2  0  0  0  0
  3  4  2  0  0  0  0
  3  5  1  0  0  0  0
  5  6  1  0  0  0  0
  5  9  1  0  0  0  0
  6  7  1  0  0  0  0
  7  8  1  0  0  0  0
  7 10  2  3  0  0  0
  8  9  2  0  0  0  0
 10 14  1  0  0  0  0
 11 12  1  0  0  0  0
 11 26  1  0  0  0  0
 11 28  1  0  0  0  0
 12 13  2  0  0  0  0
 14 15  2  0  0  0  0
 14 19  1  0  0  0  0
 15 16  1  0  0  0  0
 16 17  2  0  0  0  0
 17 18  1  0  0  0  0
 17 20  1  0  0  0  0
 18 19  2  0  0  0  0
 20 21  2  0  0  0  0
 20 24  1  0  0  0  0
 21 22  1  0  0  0  0
 22 23  1  0  0  0  0
 22 25  1  0  0  0  0
 23 24  2  0  0  0  0
 26 27  1  0  0  0  0
 27 28  1  0  0  0  0
 27 29  1  0  0  0  0
 29 30  1  0  0  0  0
  1 31  1  0  0  0  0
  2 32  1  0  0  0  0
  3 33  1  0  0  0  0
  4 34  1  0  0  0  0
  5 35  1  0  0  0  0
 10 36  1  0  0  0  0
 15 37  1  0  0  0  0
 16 38  1  0  0  0  0
 18 39  1  0  0  0  0
 19 40  1  0  0  0  0
 21 41  1  0  0  0  0
 24 42  1  0  0  0  0
 25 43  1  0  0  0  0
 25 44  1  0  0  0  0
 25 45  1  0  0  0  0
 26 46  1  0  0  0  0
 26 47  1  0  0  0  0
 27 48  1  0  0  0  0
 28 49  1  0  0  0  0
 28 50  1  0  0  0  0
 30 51  1  0  0  0  0
 30 52  1  0  0  0  0
 30 53  1  0  0  0  0
M  END
> <Name>
36

> <IC50[uM]>
0.006

$$$$
36
  -OEChem-05192314333D
 Structure written by MMmdl.
 53 57  0     1  0  0  0  0  0999 V2000
   -6.3988   12.3548  -12.0167 C   0  0  0  0  0  0  0  0  0  0  0  0
   -6.5634   11.7828  -10.7362 C   0  0  0  0  0  0  0  0  0  0  0  0
   -7.7338   10.5694  -13.0370 C   0  0  0  0  0  0  0  0  0  0  0  0
   -6.9985   11.7556  -13.1278 C   0  0  0  0  0  0  0  0  0  0  0  0
   -7.8247    9.9971  -11.7595 C   0  0  3  0  0  0  0  0  0  0  0  0
   -7.2595   10.6059  -10.6156 C   0  0  3  0  0  0  0  0  0  0  0  0
   -7.6196    9.7377   -9.5218 C   0  0  0  0  0  0  0  0  0  0  0  0
   -8.2737    8.7166   -9.9897 N   0  0  0  0  0  0  0  0  0  0  0  0
   -8.4125    8.8485  -11.3029 N   0  0  0  0  0  0  0  0  0  0  0  0
   -7.3396    9.8926   -8.0318 C   0  0  0  0  0  0  0  0  0  0  0  0
   -4.5445   13.8618  -11.3707 N   0  0  0  0  0  0  0  0  0  0  0  0
   -5.5979   13.6472  -12.1806 C   0  0  0  0  0  0  0  0  0  0  0  0
   -5.9190   14.4711  -13.0424 O   0  0  0  0  0  0  0  0  0  0  0  0
   -5.9590   10.4852   -7.7375 C   0  0  0  0  0  0  0  0  0  0  0  0
   -5.8471   11.7541   -7.1585 C   0  0  0  0  0  0  0  0  0  0  0  0
   -4.5907   12.3017   -6.9141 C   0  0  0  0  0  0  0  0  0  0  0  0
   -3.4394   11.5818   -7.2374 C   0  0  0  0  0  0  0  0  0  0  0  0
   -3.5527   10.3083   -7.8066 C   0  0  0  0  0  0  0  0  0  0  0  0
   -4.8082    9.7633   -8.0562 C   0  0  0  0  0  0  0  0  0  0  0  0
   -2.0898   12.1596   -6.9778 C   0  0  0  0  0  0  0  0  0  0  0  0
   -1.7390   13.4130   -6.4881 C   0  0  0  0  0  0  0  0  0  0  0  0
   -0.3978   13.4480   -6.4305 N   0  0  0  0  0  0  0  0  0  0  0  0
    0.1868   12.3491   -6.8198 N   0  0  0  0  0  0  0  0  0  0  0  0
   -0.8044   11.5467   -7.1770 C   0  0  0  0  0  0  0  0  0  0  0  0
    0.4420   14.5581   -5.9859 C   0  0  0  0  0  0  0  0  0  0  0  0
   -3.7035   15.0408  -11.2447 C   0  0  0  0  0  0  0  0  0  0  0  0
   -3.1688   14.3872   -9.9709 C   0  0  0  0  0  0  0  0  0  0  0  0
   -4.1668   13.2516  -10.0984 C   0  0  0  0  0  0  0  0  0  0  0  0
   -1.8336   13.9158  -10.0706 O   0  0  0  0  0  0  0  0  0  0  0  0
   -0.8619   14.9477  -10.1504 C   0  0  0  0  0  0  0  0  0  0  0  0
   -6.1473   12.2646   -9.8638 H   0  0  0  0  0  0  0  0  0  0  0  0
   -8.2039   10.1205  -13.8995 H   0  0  0  0  0  0  0  0  0  0  0  0
   -6.8899   12.2266  -14.0936 H   0  0  0  0  0  0  0  0  0  0  0  0
   -6.8865    9.4502  -11.9350 H   0  0  0  0  0  0  0  0  0  0  0  0
   -6.3306   10.0364  -10.7668 H   0  0  0  0  0  0  0  0  0  0  0  0
   -8.0434    9.6128   -7.2619 H   0  0  0  0  0  0  0  0  0  0  0  0
   -6.7368   12.3095   -6.9008 H   0  0  0  0  0  0  0  0  0  0  0  0
   -4.5068   13.2844   -6.4740 H   0  0  0  0  0  0  0  0  0  0  0  0
   -2.6633    9.7472   -8.0527 H   0  0  0  0  0  0  0  0  0  0  0  0
   -4.8922    8.7809   -8.4969 H   0  0  0  0  0  0  0  0  0  0  0  0
   -2.4158   14.2066   -6.2077 H   0  0  0  0  0  0  0  0  0  0  0  0
   -0.6640   10.5509   -7.5709 H   0  0  0  0  0  0  0  0  0  0  0  0
    1.5009   14.2685   -6.0560 H   0  0  0  0  0  0  0  0  0  0  0  0
    0.2588   15.4349   -6.6244 H   0  0  0  0  0  0  0  0  0  0  0  0
    0.1984   14.8070   -4.9425 H   0  0  0  0  0  0  0  0  0  0  0  0
   -2.9622   15.1711  -12.0469 H   0  0  0  0  0  0  0  0  0  0  0  0
   -4.2464   15.9849  -11.0903 H   0  0  0  0  0  0  0  0  0  0  0  0
   -3.3555   15.0059   -9.0807 H   0  0  0  0  0  0  0  0  0  0  0  0
   -4.9587   13.2414   -9.3350 H   0  0  0  0  0  0  0  0  0  0  0  0
   -3.7216   12.2489  -10.1783 H   0  0  0  0  0  0  0  0  0  0  0  0
    0.1412   14.5025  -10.2248 H   0  0  0  0  0  0  0  0  0  0  0  0
   -1.0556   15.5656  -11.0396 H   0  0  0  0  0  0  0  0  0  0  0  0
   -0.9185   15.5750   -9.2486 H   0  0  0  0  0  0  0  0  0  0  0  0
  1  2  2  0  0  0  0
  1  4  1  0  0  0  0
  1 12  1  0  0  0  0
  2  6  1  0  0  0  0
  3  4  2  0  0  0  0
  3  5  1  0  0  0  0
  5  6  1  0  0  0  0
  5  9  1  0  0  0  0
  6  7  1  0  0  0  0
  7  8  1  0  0  0  0
  7 10  2  3  0  0  0
  8  9  2  0  0  0  0
 10 14  1  0  0  0  0
 11 12  1  0  0  0  0
 11 26  1  0  0  0  0
 11 28  1  0  0  0  0
 12 13  2  0  0  0  0
 14 15  2  0  0  0  0
 14 19  1  0  0  0  0
 15 16  1  0  0  0  0
 16 17  2  0  0  0  0
 17 18  1  0  0  0  0
 17 20  1  0  0  0  0
 18 19  2  0  0  0  0
 20 21  2  0  0  0  0
 20 24  1  0  0  0  0
 21 22  1  0  0  0  0
 22 23  1  0  0  0  0
 22 25  1  0  0  0  0
 23 24  2  0  0  0  0
 26 27  1  0  0  0  0
 27 28  1  0  0  0  0
 27 29  1  0  0  0  0
 29 30  1  0  0  0  0
  2 31  1  0  0  0  0
  3 32  1  0  0  0  0
  4 33  1  0  0  0  0
  5 34  1  0  0  0  0
  6 35  1  0  0  0  0
 10 36  1  0  0  0  0
 15 37  1  0  0  0  0
 16 38  1  0  0  0  0
 18 39  1  0  0  0  0
 19 40  1  0  0  0  0
 21 41  1  0  0  0  0
 24 42  1  0  0  0  0
 25 43  1  0  0  0  0
 25 44  1  0  0  0  0
 25 45  1  0  0  0  0
 26 46  1  0  0  0  0
 26 47  1  0  0  0  0
 27 48  1  0  0  0  0
 28 49  1  0  0  0  0
 28 50  1  0  0  0  0
 30 51  1  0  0  0  0
 30 52  1  0  0  0  0
 30 53  1  0  0  0  0
M  END
> <Name>
36

> <IC50[uM]>
0.006

$$$$
36
  -OEChem-05192314333D
 Structure written by MMmdl.
 53 57  0     1  0  0  0  0  0999 V2000
   -6.3988   12.3548  -12.0167 C   0  0  0  0  0  0  0  0  0  0  0  0
   -6.5634   11.7828  -10.7362 C   0  0  0  0  0  0  0  0  0  0  0  0
   -7.7338   10.5694  -13.0370 C   0  0  0  0  0  0  0  0  0  0  0  0
   -6.9985   11.7556  -13.1278 C   0  0  0  0  0  0  0  0  0  0  0  0
   -7.8247    9.9971  -11.7595 C   0  0  3  0  0  0  0  0  0  0  0  0
   -7.2595   10.6059  -10.6156 C   0  0  0  0  0  0  0  0  0  0  0  0
   -7.6196    9.7377   -9.5218 C   0  0  0  0  0  0  0  0  0  0  0  0
   -8.2737    8.7166   -9.9897 N   0  0  0  0  0  0  0  0  0  0  0  0
   -8.4125    8.8485  -11.3029 N   0  0  0  0  0  0  0  0  0  0  0  0
   -7.3396    9.8926   -8.0318 C   0  0  0  0  0  0  0  0  0  0  0  0
   -4.5445   13.8618  -11.3707 N   0  0  0  0  0  0  0  0  0  0  0  0
   -5.5979   13.6472  -12.1806 C   0  0  0  0  0  0  0  0  0  0  0  0
   -5.9190   14.4711  -13.0424 O   0  0  0  0  0  0  0  0  0  0  0  0
   -5.9590   10.4852   -7.7375 C   0  0  0  0  0  0  0  0  0  0  0  0
   -5.8471   11.7541   -7.1585 C   0  0  0  0  0  0  0  0  0  0  0  0
   -4.5907   12.3017   -6.9141 C   0  0  0  0  0  0  0  0  0  0  0  0
   -3.4394   11.5818   -7.2374 C   0  0  0  0  0  0  0  0  0  0  0  0
   -3.5527   10.3083   -7.8066 C   0  0  0  0  0  0  0  0  0  0  0  0
   -4.8082    9.7633   -8.0562 C   0  0  0  0  0  0  0  0  0  0  0  0
   -2.0898   12.1596   -6.9778 C   0  0  0  0  0  0  0  0  0  0  0  0
   -1.7390   13.4130   -6.4881 C   0  0  0  0  0  0  0  0  0  0  0  0
   -0.3978   13.4480   -6.4305 N   0  0  0  0  0  0  0  0  0  0  0  0
    0.1868   12.3491   -6.8198 N   0  0  0  0  0  0  0  0  0  0  0  0
   -0.8044   11.5467   -7.1770 C   0  0  0  0  0  0  0  0  0  0  0  0
    0.4420   14.5581   -5.9859 C   0  0  0  0  0  0  0  0  0  0  0  0
   -3.7035   15.0408  -11.2447 C   0  0  0  0  0  0  0  0  0  0  0  0
   -3.1688   14.3872   -9.9709 C   0  0  0  0  0  0  0  0  0  0  0  0
   -4.1668   13.2516  -10.0984 C   0  0  0  0  0  0  0  0  0  0  0  0
   -1.8336   13.9158  -10.0706 O   0  0  0  0  0  0  0  0  0  0  0  0
   -0.8619   14.9477  -10.1504 C   0  0  0  0  0  0  0  0  0  0  0  0
   -6.1473   12.2646   -9.8638 H   0  0  0  0  0  0  0  0  0  0  0  0
   -8.7560   10.7799  -13.3847 H   0  0  0  0  0  0  0  0  0  0  0  0
   -7.2645    9.8310  -13.7037 H   0  0  0  0  0  0  0  0  0  0  0  0
   -6.8899   12.2266  -14.0936 H   0  0  0  0  0  0  0  0  0  0  0  0
   -6.8865    9.4502  -11.9350 H   0  0  0  0  0  0  0  0  0  0  0  0
   -8.0434    9.6128   -7.2619 H   0  0  0  0  0  0  0  0  0  0  0  0
   -6.7368   12.3095   -6.9008 H   0  0  0  0  0  0  0  0  0  0  0  0
   -4.5068   13.2844   -6.4740 H   0  0  0  0  0  0  0  0  0  0  0  0
   -2.6633    9.7472   -8.0527 H   0  0  0  0  0  0  0  0  0  0  0  0
   -4.8922    8.7809   -8.4969 H   0  0  0  0  0  0  0  0  0  0  0  0
   -2.4158   14.2066   -6.2077 H   0  0  0  0  0  0  0  0  0  0  0  0
   -0.6640   10.5509   -7.5709 H   0  0  0  0  0  0  0  0  0  0  0  0
    1.5009   14.2685   -6.0560 H   0  0  0  0  0  0  0  0  0  0  0  0
    0.2588   15.4349   -6.6244 H   0  0  0  0  0  0  0  0  0  0  0  0
    0.1984   14.8070   -4.9425 H   0  0  0  0  0  0  0  0  0  0  0  0
   -2.9622   15.1711  -12.0469 H   0  0  0  0  0  0  0  0  0  0  0  0
   -4.2464   15.9849  -11.0903 H   0  0  0  0  0  0  0  0  0  0  0  0
   -3.3555   15.0059   -9.0807 H   0  0  0  0  0  0  0  0  0  0  0  0
   -4.9587   13.2414   -9.3350 H   0  0  0  0  0  0  0  0  0  0  0  0
   -3.7216   12.2489  -10.1783 H   0  0  0  0  0  0  0  0  0  0  0  0
    0.1412   14.5025  -10.2248 H   0  0  0  0  0  0  0  0  0  0  0  0
   -1.0556   15.5656  -11.0396 H   0  0  0  0  0  0  0  0  0  0  0  0
   -0.9185   15.5750   -9.2486 H   0  0  0  0  0  0  0  0  0  0  0  0
  1  2  1  0  0  0  0
  1  4  2  0  0  0  0
  1 12  1  0  0  0  0
  2  6  2  0  0  0  0
  3  4  1  0  0  0  0
  3  5  1  0  0  0  0
  5  6  1  0  0  0  0
  5  9  1  0  0  0  0
  6  7  1  0  0  0  0
  7  8  1  0  0  0  0
  7 10  2  3  0  0  0
  8  9  2  0  0  0  0
 10 14  1  0  0  0  0
 11 12  1  0  0  0  0
 11 26  1  0  0  0  0
 11 28  1  0  0  0  0
 12 13  2  0  0  0  0
 14 15  2  0  0  0  0
 14 19  1  0  0  0  0
 15 16  1  0  0  0  0
 16 17  2  0  0  0  0
 17 18  1  0  0  0  0
 17 20  1  0  0  0  0
 18 19  2  0  0  0  0
 20 21  2  0  0  0  0
 20 24  1  0  0  0  0
 21 22  1  0  0  0  0
 22 23  1  0  0  0  0
 22 25  1  0  0  0  0
 23 24  2  0  0  0  0
 26 27  1  0  0  0  0
 27 28  1  0  0  0  0
 27 29  1  0  0  0  0
 29 30  1  0  0  0  0
  2 31  1  0  0  0  0
  3 32  1  0  0  0  0
  3 33  1  0  0  0  0
  4 34  1  0  0  0  0
  5 35  1  0  0  0  0
 10 36  1  0  0  0  0
 15 37  1  0  0  0  0
 16 38  1  0  0  0  0
 18 39  1  0  0  0  0
 19 40  1  0  0  0  0
 21 41  1  0  0  0  0
 24 42  1  0  0  0  0
 25 43  1  0  0  0  0
 25 44  1  0  0  0  0
 25 45  1  0  0  0  0
 26 46  1  0  0  0  0
 26 47  1  0  0  0  0
 27 48  1  0  0  0  0
 28 49  1  0  0  0  0
 28 50  1  0  0  0  0
 30 51  1  0  0  0  0
 30 52  1  0  0  0  0
 30 53  1  0  0  0  0
M  END
> <Name>
36

> <IC50[uM]>
0.006

$$$$
36
  -OEChem-05192314333D
 Structure written by MMmdl.
 53 57  0     1  0  0  0  0  0999 V2000
   -6.3988   12.3548  -12.0167 C   0  0  0  0  0  0  0  0  0  0  0  0
   -6.5634   11.7828  -10.7362 C   0  0  0  0  0  0  0  0  0  0  0  0
   -7.7338   10.5694  -13.0370 C   0  0  0  0  0  0  0  0  0  0  0  0
   -6.9985   11.7556  -13.1278 C   0  0  0  0  0  0  0  0  0  0  0  0
   -7.8247    9.9971  -11.7595 C   0  0  0  0  0  0  0  0  0  0  0  0
   -7.2595   10.6059  -10.6156 C   0  0  0  0  0  0  0  0  0  0  0  0
   -7.6196    9.7377   -9.5218 C   0  0  0  0  0  0  0  0  0  0  0  0
   -8.2737    8.7166   -9.9897 N   0  0  0  0  0  0  0  0  0  0  0  0
   -8.4125    8.8485  -11.3029 N   0  0  0  0  0  0  0  0  0  0  0  0
   -7.3396    9.8926   -8.0318 C   0  0  0  0  0  0  0  0  0  0  0  0
   -4.5445   13.8618  -11.3707 N   0  0  0  0  0  0  0  0  0  0  0  0
   -5.5979   13.6472  -12.1806 C   0  0  0  0  0  0  0  0  0  0  0  0
   -5.9190   14.4711  -13.0424 O   0  0  0  0  0  0  0  0  0  0  0  0
   -5.9590   10.4852   -7.7375 C   0  0  0  0  0  0  0  0  0  0  0  0
   -5.8471   11.7541   -7.1585 C   0  0  0  0  0  0  0  0  0  0  0  0
   -4.5907   12.3017   -6.9141 C   0  0  0  0  0  0  0  0  0  0  0  0
   -3.4394   11.5818   -7.2374 C   0  0  3  0  0  0  0  0  0  0  0  0
   -3.5527   10.3083   -7.8066 C   0  0  0  0  0  0  0  0  0  0  0  0
   -4.8082    9.7633   -8.0562 C   0  0  0  0  0  0  0  0  0  0  0  0
   -2.0898   12.1596   -6.9778 C   0  0  0  0  0  0  0  0  0  0  0  0
   -1.7390   13.4130   -6.4881 C   0  0  0  0  0  0  0  0  0  0  0  0
   -0.3978   13.4480   -6.4305 N   0  0  0  0  0  0  0  0  0  0  0  0
    0.1868   12.3491   -6.8198 N   0  0  0  0  0  0  0  0  0  0  0  0
   -0.8044   11.5467   -7.1770 C   0  0  0  0  0  0  0  0  0  0  0  0
    0.4420   14.5581   -5.9859 C   0  0  0  0  0  0  0  0  0  0  0  0
   -3.7035   15.0408  -11.2447 C   0  0  0  0  0  0  0  0  0  0  0  0
   -3.1688   14.3872   -9.9709 C   0  0  0  0  0  0  0  0  0  0  0  0
   -4.1668   13.2516  -10.0984 C   0  0  0  0  0  0  0  0  0  0  0  0
   -1.8336   13.9158  -10.0706 O   0  0  0  0  0  0  0  0  0  0  0  0
   -0.8619   14.9477  -10.1504 C   0  0  0  0  0  0  0  0  0  0  0  0
   -6.1473   12.2646   -9.8638 H   0  0  0  0  0  0  0  0  0  0  0  0
   -8.2039   10.1205  -13.8995 H   0  0  0  0  0  0  0  0  0  0  0  0
   -6.8899   12.2266  -14.0936 H   0  0  0  0  0  0  0  0  0  0  0  0
   -8.0434    9.6128   -7.2619 H   0  0  0  0  0  0  0  0  0  0  0  0
   -6.7368   12.3095   -6.9008 H   0  0  0  0  0  0  0  0  0  0  0  0
   -4.5419   13.2467   -7.4750 H   0  0  0  0  0  0  0  0  0  0  0  0
   -4.5408   12.5124   -5.8356 H   0  0  0  0  0  0  0  0  0  0  0  0
   -3.4394   12.0313   -8.2414 H   0  0  0  0  0  0  0  0  0  0  0  0
   -2.6633    9.7472   -8.0527 H   0  0  0  0  0  0  0  0  0  0  0  0
   -4.8922    8.7809   -8.4969 H   0  0  0  0  0  0  0  0  0  0  0  0
   -2.4158   14.2066   -6.2077 H   0  0  0  0  0  0  0  0  0  0  0  0
   -0.6640   10.5509   -7.5709 H   0  0  0  0  0  0  0  0  0  0  0  0
    1.5009   14.2685   -6.0560 H   0  0  0  0  0  0  0  0  0  0  0  0
    0.2588   15.4349   -6.6244 H   0  0  0  0  0  0  0  0  0  0  0  0
    0.1984   14.8070   -4.9425 H   0  0  0  0  0  0  0  0  0  0  0  0
   -2.9622   15.1711  -12.0469 H   0  0  0  0  0  0  0  0  0  0  0  0
   -4.2464   15.9849  -11.0903 H   0  0  0  0  0  0  0  0  0  0  0  0
   -3.3555   15.0059   -9.0807 H   0  0  0  0  0  0  0  0  0  0  0  0
   -4.9587   13.2414   -9.3350 H   0  0  0  0  0  0  0  0  0  0  0  0
   -3.7216   12.2489  -10.1783 H   0  0  0  0  0  0  0  0  0  0  0  0
    0.1412   14.5025  -10.2248 H   0  0  0  0  0  0  0  0  0  0  0  0
   -1.0556   15.5656  -11.0396 H   0  0  0  0  0  0  0  0  0  0  0  0
   -0.9185   15.5750   -9.2486 H   0  0  0  0  0  0  0  0  0  0  0  0
  1  2  2  0  0  0  0
  1  4  1  0  0  0  0
  1 12  1  0  0  0  0
  2  6  1  0  0  0  0
  3  4  2  0  0  0  0
  3  5  1  0  0  0  0
  5  6  2  0  0  0  0
  5  9  1  0  0  0  0
  6  7  1  0  0  0  0
  7  8  1  0  0  0  0
  7 10  2  3  0  0  0
  8  9  2  0  0  0  0
 10 14  1  0  0  0  0
 11 12  1  0  0  0  0
 11 26  1  0  0  0  0
 11 28  1  0  0  0  0
 12 13  2  0  0  0  0
 14 15  2  0  0  0  0
 14 19  1  0  0  0  0
 15 16  1  0  0  0  0
 16 17  1  0  0  0  0
 17 18  1  0  0  0  0
 17 20  1  0  0  0  0
 18 19  2  0  0  0  0
 20 21  2  0  0  0  0
 20 24  1  0  0  0  0
 21 22  1  0  0  0  0
 22 23  1  0  0  0  0
 22 25  1  0  0  0  0
 23 24  2  0  0  0  0
 26 27  1  0  0  0  0
 27 28  1  0  0  0  0
 27 29  1  0  0  0  0
 29 30  1  0  0  0  0
  2 31  1  0  0  0  0
  3 32  1  0  0  0  0
  4 33  1  0  0  0  0
 10 34  1  0  0  0  0
 15 35  1  0  0  0  0
 16 36  1  0  0  0  0
 16 37  1  0  0  0  0
 17 38  1  0  0  0  0
 18 39  1  0  0  0  0
 19 40  1  0  0  0  0
 21 41  1  0  0  0  0
 24 42  1  0  0  0  0
 25 43  1  0  0  0  0
 25 44  1  0  0  0  0
 25 45  1  0  0  0  0
 26 46  1  0  0  0  0
 26 47  1  0  0  0  0
 27 48  1  0  0  0  0
 28 49  1  0  0  0  0
 28 50  1  0  0  0  0
 30 51  1  0  0  0  0
 30 52  1  0  0  0  0
 30 53  1  0  0  0  0
M  END
> <Name>
36

> <IC50[uM]>
0.006

$$$$
36
  -OEChem-05192314333D
 Structure written by MMmdl.
 53 57  0     1  0  0  0  0  0999 V2000
   -6.3988   12.3548  -12.0167 C   0  0  3  0  0  0  0  0  0  0  0  0
   -6.5634   11.7828  -10.7362 C   0  0  0  0  0  0  0  0  0  0  0  0
   -7.7338   10.5694  -13.0370 C   0  0  0  0  0  0  0  0  0  0  0  0
   -6.9985   11.7556  -13.1278 C   0  0  0  0  0  0  0  0  0  0  0  0
   -7.8247    9.9971  -11.7595 C   0  0  0  0  0  0  0  0  0  0  0  0
   -7.2595   10.6059  -10.6156 C   0  0  0  0  0  0  0  0  0  0  0  0
   -7.6196    9.7377   -9.5218 C   0  0  0  0  0  0  0  0  0  0  0  0
   -8.2737    8.7166   -9.9897 N   0  0  0  0  0  0  0  0  0  0  0  0
   -8.4125    8.8485  -11.3029 N   0  0  0  0  0  0  0  0  0  0  0  0
   -7.3396    9.8926   -8.0318 C   0  0  0  0  0  0  0  0  0  0  0  0
   -4.5445   13.8618  -11.3707 N   0  0  0  0  0  0  0  0  0  0  0  0
   -5.5979   13.6472  -12.1806 C   0  0  0  0  0  0  0  0  0  0  0  0
   -5.9190   14.4711  -13.0424 O   0  0  0  0  0  0  0  0  0  0  0  0
   -5.9590   10.4852   -7.7375 C   0  0  0  0  0  0  0  0  0  0  0  0
   -5.8471   11.7541   -7.1585 C   0  0  0  0  0  0  0  0  0  0  0  0
   -4.5907   12.3017   -6.9141 C   0  0  0  0  0  0  0  0  0  0  0  0
   -3.4394   11.5818   -7.2374 C   0  0  0  0  0  0  0  0  0  0  0  0
   -3.5527   10.3083   -7.8066 C   0  0  0  0  0  0  0  0  0  0  0  0
   -4.8082    9.7633   -8.0562 C   0  0  0  0  0  0  0  0  0  0  0  0
   -2.0898   12.1596   -6.9778 C   0  0  0  0  0  0  0  0  0  0  0  0
   -1.7390   13.4130   -6.4881 C   0  0  0  0  0  0  0  0  0  0  0  0
   -0.3978   13.4480   -6.4305 N   0  0  0  0  0  0  0  0  0  0  0  0
    0.1868   12.3491   -6.8198 N   0  0  0  0  0  0  0  0  0  0  0  0
   -0.8044   11.5467   -7.1770 C   0  0  0  0  0  0  0  0  0  0  0  0
    0.4420   14.5581   -5.9859 C   0  0  0  0  0  0  0  0  0  0  0  0
   -3.7035   15.0408  -11.2447 C   0  0  0  0  0  0  0  0  0  0  0  0
   -3.1688   14.3872   -9.9709 C   0  0  0  0  0  0  0  0  0  0  0  0
   -4.1668   13.2516  -10.0984 C   0  0  0  0  0  0  0  0  0  0  0  0
   -1.8336   13.9158  -10.0706 O   0  0  0  0  0  0  0  0  0  0  0  0
   -0.8619   14.9477  -10.1504 C   0  0  0  0  0  0  0  0  0  0  0  0
   -5.4875   11.7597  -12.1757 H   0  0  0  0  0  0  0  0  0  0  0  0
   -6.1473   12.2646   -9.8638 H   0  0  0  0  0  0  0  0  0  0  0  0
   -8.2039   10.1205  -13.8995 H   0  0  0  0  0  0  0  0  0  0  0  0
   -7.6826   12.5075  -13.5482 H   0  0  0  0  0  0  0  0  0  0  0  0
   -6.1868   11.5577  -13.8433 H   0  0  0  0  0  0  0  0  0  0  0  0
   -8.0434    9.6128   -7.2619 H   0  0  0  0  0  0  0  0  0  0  0  0
   -6.7368   12.3095   -6.9008 H   0  0  0  0  0  0  0  0  0  0  0  0
   -4.5068   13.2844   -6.4740 H   0  0  0  0  0  0  0  0  0  0  0  0
   -2.6633    9.7472   -8.0527 H   0  0  0  0  0  0  0  0  0  0  0  0
   -4.8922    8.7809   -8.4969 H   0  0  0  0  0  0  0  0  0  0  0  0
   -2.4158   14.2066   -6.2077 H   0  0  0  0  0  0  0  0  0  0  0  0
   -0.6640   10.5509   -7.5709 H   0  0  0  0  0  0  0  0  0  0  0  0
    1.5009   14.2685   -6.0560 H   0  0  0  0  0  0  0  0  0  0  0  0
    0.2588   15.4349   -6.6244 H   0  0  0  0  0  0  0  0  0  0  0  0
    0.1984   14.8070   -4.9425 H   0  0  0  0  0  0  0  0  0  0  0  0
   -2.9622   15.1711  -12.0469 H   0  0  0  0  0  0  0  0  0  0  0  0
   -4.2464   15.9849  -11.0903 H   0  0  0  0  0  0  0  0  0  0  0  0
   -3.3555   15.0059   -9.0807 H   0  0  0  0  0  0  0  0  0  0  0  0
   -4.9587   13.2414   -9.3350 H   0  0  0  0  0  0  0  0  0  0  0  0
   -3.7216   12.2489  -10.1783 H   0  0  0  0  0  0  0  0  0  0  0  0
    0.1412   14.5025  -10.2248 H   0  0  0  0  0  0  0  0  0  0  0  0
   -1.0556   15.5656  -11.0396 H   0  0  0  0  0  0  0  0  0  0  0  0
   -0.9185   15.5750   -9.2486 H   0  0  0  0  0  0  0  0  0  0  0  0
  1  2  1  0  0  0  0
  1  4  1  0  0  0  0
  1 12  1  0  0  0  0
  2  6  2  0  0  0  0
  3  4  1  0  0  0  0
  3  5  2  0  0  0  0
  5  6  1  0  0  0  0
  5  9  1  0  0  0  0
  6  7  1  0  0  0  0
  7  8  1  0  0  0  0
  7 10  2  3  0  0  0
  8  9  2  0  0  0  0
 10 14  1  0  0  0  0
 11 12  1  0  0  0  0
 11 26  1  0  0  0  0
 11 28  1  0  0  0  0
 12 13  2  0  0  0  0
 14 15  2  0  0  0  0
 14 19  1  0  0  0  0
 15 16  1  0  0  0  0
 16 17  2  0  0  0  0
 17 18  1  0  0  0  0
 17 20  1  0  0  0  0
 18 19  2  0  0  0  0
 20 21  2  0  0  0  0
 20 24  1  0  0  0  0
 21 22  1  0  0  0  0
 22 23  1  0  0  0  0
 22 25  1  0  0  0  0
 23 24  2  0  0  0  0
 26 27  1  0  0  0  0
 27 28  1  0  0  0  0
 27 29  1  0  0  0  0
 29 30  1  0  0  0  0
  1 31  1  0  0  0  0
  2 32  1  0  0  0  0
  3 33  1  0  0  0  0
  4 34  1  0  0  0  0
  4 35  1  0  0  0  0
 10 36  1  0  0  0  0
 15 37  1  0  0  0  0
 16 38  1  0  0  0  0
 18 39  1  0  0  0  0
 19 40  1  0  0  0  0
 21 41  1  0  0  0  0
 24 42  1  0  0  0  0
 25 43  1  0  0  0  0
 25 44  1  0  0  0  0
 25 45  1  0  0  0  0
 26 46  1  0  0  0  0
 26 47  1  0  0  0  0
 27 48  1  0  0  0  0
 28 49  1  0  0  0  0
 28 50  1  0  0  0  0
 30 51  1  0  0  0  0
 30 52  1  0  0  0  0
 30 53  1  0  0  0  0
M  END
> <Name>
36

> <IC50[uM]>
0.006

$$$$
36
  -OEChem-05192314333D
 Structure written by MMmdl.
 53 57  0     1  0  0  0  0  0999 V2000
   -6.3988   12.3548  -12.0167 C   0  0  0  0  0  0  0  0  0  0  0  0
   -6.5634   11.7828  -10.7362 C   0  0  0  0  0  0  0  0  0  0  0  0
   -7.7338   10.5694  -13.0370 C   0  0  0  0  0  0  0  0  0  0  0  0
   -6.9985   11.7556  -13.1278 C   0  0  0  0  0  0  0  0  0  0  0  0
   -7.8247    9.9971  -11.7595 C   0  0  0  0  0  0  0  0  0  0  0  0
   -7.2595   10.6059  -10.6156 C   0  0  3  0  0  0  0  0  0  0  0  0
   -7.6196    9.7377   -9.5218 C   0  0  0  0  0  0  0  0  0  0  0  0
   -8.2737    8.7166   -9.9897 N   0  0  0  0  0  0  0  0  0  0  0  0
   -8.4125    8.8485  -11.3029 N   0  0  0  0  0  0  0  0  0  0  0  0
   -7.3396    9.8926   -8.0318 C   0  0  0  0  0  0  0  0  0  0  0  0
   -4.5445   13.8618  -11.3707 N   0  0  0  0  0  0  0  0  0  0  0  0
   -5.5979   13.6472  -12.1806 C   0  0  0  0  0  0  0  0  0  0  0  0
   -5.9190   14.4711  -13.0424 O   0  0  0  0  0  0  0  0  0  0  0  0
   -5.9590   10.4852   -7.7375 C   0  0  0  0  0  0  0  0  0  0  0  0
   -5.8471   11.7541   -7.1585 C   0  0  0  0  0  0  0  0  0  0  0  0
   -4.5907   12.3017   -6.9141 C   0  0  0  0  0  0  0  0  0  0  0  0
   -3.4394   11.5818   -7.2374 C   0  0  0  0  0  0  0  0  0  0  0  0
   -3.5527   10.3083   -7.8066 C   0  0  0  0  0  0  0  0  0  0  0  0
   -4.8082    9.7633   -8.0562 C   0  0  0  0  0  0  0  0  0  0  0  0
   -2.0898   12.1596   -6.9778 C   0  0  0  0  0  0  0  0  0  0  0  0
   -1.7390   13.4130   -6.4881 C   0  0  0  0  0  0  0  0  0  0  0  0
   -0.3978   13.4480   -6.4305 N   0  0  0  0  0  0  0  0  0  0  0  0
    0.1868   12.3491   -6.8198 N   0  0  0  0  0  0  0  0  0  0  0  0
   -0.8044   11.5467   -7.1770 C   0  0  0  0  0  0  0  0  0  0  0  0
    0.4420   14.5581   -5.9859 C   0  0  0  0  0  0  0  0  0  0  0  0
   -3.7035   15.0408  -11.2447 C   0  0  0  0  0  0  0  0  0  0  0  0
   -3.1688   14.3872   -9.9709 C   0  0  0  0  0  0  0  0  0  0  0  0
   -4.1668   13.2516  -10.0984 C   0  0  0  0  0  0  0  0  0  0  0  0
   -1.8336   13.9158  -10.0706 O   0  0  0  0  0  0  0  0  0  0  0  0
   -0.8619   14.9477  -10.1504 C   0  0  0  0  0  0  0  0  0  0  0  0
   -6.1473   12.2646   -9.8638 H   0  0  0  0  0  0  0  0  0  0  0  0
   -8.2039   10.1205  -13.8995 H   0  0  0  0  0  0  0  0  0  0  0  0
   -7.6826   12.5075  -13.5482 H   0  0  0  0  0  0  0  0  0  0  0  0
   -6.1868   11.5577  -13.8433 H   0  0  0  0  0  0  0  0  0  0  0  0
   -6.3306   10.0364  -10.7668 H   0  0  0  0  0  0  0  0  0  0  0  0
   -8.0434    9.6128   -7.2619 H   0  0  0  0  0  0  0  0  0  0  0  0
   -6.7368   12.3095   -6.9008 H   0  0  0  0  0  0  0  0  0  0  0  0
   -4.5068   13.2844   -6.4740 H   0  0  0  0  0  0  0  0  0  0  0  0
   -2.6633    9.7472   -8.0527 H   0  0  0  0  0  0  0  0  0  0  0  0
   -4.8922    8.7809   -8.4969 H   0  0  0  0  0  0  0  0  0  0  0  0
   -2.4158   14.2066   -6.2077 H   0  0  0  0  0  0  0  0  0  0  0  0
   -0.6640   10.5509   -7.5709 H   0  0  0  0  0  0  0  0  0  0  0  0
    1.5009   14.2685   -6.0560 H   0  0  0  0  0  0  0  0  0  0  0  0
    0.2588   15.4349   -6.6244 H   0  0  0  0  0  0  0  0  0  0  0  0
    0.1984   14.8070   -4.9425 H   0  0  0  0  0  0  0  0  0  0  0  0
   -2.9622   15.1711  -12.0469 H   0  0  0  0  0  0  0  0  0  0  0  0
   -4.2464   15.9849  -11.0903 H   0  0  0  0  0  0  0  0  0  0  0  0
   -3.3555   15.0059   -9.0807 H   0  0  0  0  0  0  0  0  0  0  0  0
   -4.9587   13.2414   -9.3350 H   0  0  0  0  0  0  0  0  0  0  0  0
   -3.7216   12.2489  -10.1783 H   0  0  0  0  0  0  0  0  0  0  0  0
    0.1412   14.5025  -10.2248 H   0  0  0  0  0  0  0  0  0  0  0  0
   -1.0556   15.5656  -11.0396 H   0  0  0  0  0  0  0  0  0  0  0  0
   -0.9185   15.5750   -9.2486 H   0  0  0  0  0  0  0  0  0  0  0  0
  1  2  2  0  0  0  0
  1  4  1  0  0  0  0
  1 12  1  0  0  0  0
  2  6  1  0  0  0  0
  3  4  1  0  0  0  0
  3  5  2  0  0  0  0
  5  6  1  0  0  0  0
  5  9  1  0  0  0  0
  6  7  1  0  0  0  0
  7  8  1  0  0  0  0
  7 10  2  3  0  0  0
  8  9  2  0  0  0  0
 10 14  1  0  0  0  0
 11 12  1  0  0  0  0
 11 26  1  0  0  0  0
 11 28  1  0  0  0  0
 12 13  2  0  0  0  0
 14 15  2  0  0  0  0
 14 19  1  0  0  0  0
 15 16  1  0  0  0  0
 16 17  2  0  0  0  0
 17 18  1  0  0  0  0
 17 20  1  0  0  0  0
 18 19  2  0  0  0  0
 20 21  2  0  0  0  0
 20 24  1  0  0  0  0
 21 22  1  0  0  0  0
 22 23  1  0  0  0  0
 22 25  1  0  0  0  0
 23 24  2  0  0  0  0
 26 27  1  0  0  0  0
 27 28  1  0  0  0  0
 27 29  1  0  0  0  0
 29 30  1  0  0  0  0
  2 31  1  0  0  0  0
  3 32  1  0  0  0  0
  4 33  1  0  0  0  0
  4 34  1  0  0  0  0
  6 35  1  0  0  0  0
 10 36  1  0  0  0  0
 15 37  1  0  0  0  0
 16 38  1  0  0  0  0
 18 39  1  0  0  0  0
 19 40  1  0  0  0  0
 21 41  1  0  0  0  0
 24 42  1  0  0  0  0
 25 43  1  0  0  0  0
 25 44  1  0  0  0  0
 25 45  1  0  0  0  0
 26 46  1  0  0  0  0
 26 47  1  0  0  0  0
 27 48  1  0  0  0  0
 28 49  1  0  0  0  0
 28 50  1  0  0  0  0
 30 51  1  0  0  0  0
 30 52  1  0  0  0  0
 30 53  1  0  0  0  0
M  END
> <Name>
36

> <IC50[uM]>
0.006

$$$$
36
  -OEChem-05192314333D
 Structure written by MMmdl.
 53 57  0     0  0  0  0  0  0999 V2000
   -6.3988   12.3548  -12.0167 C   0  0  0  0  0  0  0  0  0  0  0  0
   -6.5634   11.7828  -10.7362 C   0  0  0  0  0  0  0  0  0  0  0  0
   -7.7338   10.5694  -13.0370 C   0  0  0  0  0  0  0  0  0  0  0  0
   -6.9985   11.7556  -13.1278 C   0  0  0  0  0  0  0  0  0  0  0  0
   -7.8247    9.9971  -11.7595 C   0  0  0  0  0  0  0  0  0  0  0  0
   -7.2595   10.6059  -10.6156 C   0  0  0  0  0  0  0  0  0  0  0  0
   -7.6196    9.7377   -9.5218 C   0  0  0  0  0  0  0  0  0  0  0  0
   -8.2737    8.7166   -9.9897 N   0  0  0  0  0  0  0  0  0  0  0  0
   -8.4125    8.8485  -11.3029 N   0  0  0  0  0  0  0  0  0  0  0  0
   -7.3396    9.8926   -8.0318 C   0  0  0  0  0  0  0  0  0  0  0  0
   -4.5445   13.8618  -11.3707 N   0  0  0  0  0  0  0  0  0  0  0  0
   -5.5979   13.6472  -12.1806 C   0  0  0  0  0  0  0  0  0  0  0  0
   -5.9190   14.4711  -13.0424 O   0  0  0  0  0  0  0  0  0  0  0  0
   -5.9590   10.4852   -7.7375 C   0  0  0  0  0  0  0  0  0  0  0  0
   -5.8471   11.7541   -7.1585 C   0  0  0  0  0  0  0  0  0  0  0  0
   -4.5907   12.3017   -6.9141 C   0  0  0  0  0  0  0  0  0  0  0  0
   -3.4394   11.5818   -7.2374 C   0  0  0  0  0  0  0  0  0  0  0  0
   -3.5527   10.3083   -7.8066 C   0  0  0  0  0  0  0  0  0  0  0  0
   -4.8082    9.7633   -8.0562 C   0  0  0  0  0  0  0  0  0  0  0  0
   -2.0898   12.1596   -6.9778 C   0  0  0  0  0  0  0  0  0  0  0  0
   -1.7390   13.4130   -6.4881 C   0  0  0  0  0  0  0  0  0  0  0  0
   -0.3978   13.4480   -6.4305 N   0  0  0  0  0  0  0  0  0  0  0  0
    0.1868   12.3491   -6.8198 N   0  0  0  0  0  0  0  0  0  0  0  0
   -0.8044   11.5467   -7.1770 C   0  0  0  0  0  0  0  0  0  0  0  0
    0.4420   14.5581   -5.9859 C   0  0  0  0  0  0  0  0  0  0  0  0
   -3.7035   15.0408  -11.2447 C   0  0  0  0  0  0  0  0  0  0  0  0
   -3.1688   14.3872   -9.9709 C   0  0  0  0  0  0  0  0  0  0  0  0
   -4.1668   13.2516  -10.0984 C   0  0  0  0  0  0  0  0  0  0  0  0
   -1.8336   13.9158  -10.0706 O   0  0  0  0  0  0  0  0  0  0  0  0
   -0.8619   14.9477  -10.1504 C   0  0  0  0  0  0  0  0  0  0  0  0
   -6.1473   12.2646   -9.8638 H   0  0  0  0  0  0  0  0  0  0  0  0
   -8.7560   10.7799  -13.3847 H   0  0  0  0  0  0  0  0  0  0  0  0
   -7.2645    9.8310  -13.7037 H   0  0  0  0  0  0  0  0  0  0  0  0
   -7.6826   12.5075  -13.5482 H   0  0  0  0  0  0  0  0  0  0  0  0
   -6.1868   11.5577  -13.8433 H   0  0  0  0  0  0  0  0  0  0  0  0
   -8.0434    9.6128   -7.2619 H   0  0  0  0  0  0  0  0  0  0  0  0
   -6.7368   12.3095   -6.9008 H   0  0  0  0  0  0  0  0  0  0  0  0
   -4.5068   13.2844   -6.4740 H   0  0  0  0  0  0  0  0  0  0  0  0
   -2.6633    9.7472   -8.0527 H   0  0  0  0  0  0  0  0  0  0  0  0
   -4.8922    8.7809   -8.4969 H   0  0  0  0  0  0  0  0  0  0  0  0
   -2.4158   14.2066   -6.2077 H   0  0  0  0  0  0  0  0  0  0  0  0
   -0.6640   10.5509   -7.5709 H   0  0  0  0  0  0  0  0  0  0  0  0
    1.5009   14.2685   -6.0560 H   0  0  0  0  0  0  0  0  0  0  0  0
    0.2588   15.4349   -6.6244 H   0  0  0  0  0  0  0  0  0  0  0  0
    0.1984   14.8070   -4.9425 H   0  0  0  0  0  0  0  0  0  0  0  0
   -2.9622   15.1711  -12.0469 H   0  0  0  0  0  0  0  0  0  0  0  0
   -4.2464   15.9849  -11.0903 H   0  0  0  0  0  0  0  0  0  0  0  0
   -3.3555   15.0059   -9.0807 H   0  0  0  0  0  0  0  0  0  0  0  0
   -4.9587   13.2414   -9.3350 H   0  0  0  0  0  0  0  0  0  0  0  0
   -3.7216   12.2489  -10.1783 H   0  0  0  0  0  0  0  0  0  0  0  0
    0.1412   14.5025  -10.2248 H   0  0  0  0  0  0  0  0  0  0  0  0
   -1.0556   15.5656  -11.0396 H   0  0  0  0  0  0  0  0  0  0  0  0
   -0.9185   15.5750   -9.2486 H   0  0  0  0  0  0  0  0  0  0  0  0
  1  2  2  0  0  0  0
  1  4  1  0  0  0  0
  1 12  1  0  0  0  0
  2  6  1  0  0  0  0
  3  4  1  0  0  0  0
  3  5  1  0  0  0  0
  5  6  2  0  0  0  0
  5  9  1  0  0  0  0
  6  7  1  0  0  0  0
  7  8  1  0  0  0  0
  7 10  2  3  0  0  0
  8  9  2  0  0  0  0
 10 14  1  0  0  0  0
 11 12  1  0  0  0  0
 11 26  1  0  0  0  0
 11 28  1  0  0  0  0
 12 13  2  0  0  0  0
 14 15  2  0  0  0  0
 14 19  1  0  0  0  0
 15 16  1  0  0  0  0
 16 17  2  0  0  0  0
 17 18  1  0  0  0  0
 17 20  1  0  0  0  0
 18 19  2  0  0  0  0
 20 21  2  0  0  0  0
 20 24  1  0  0  0  0
 21 22  1  0  0  0  0
 22 23  1  0  0  0  0
 22 25  1  0  0  0  0
 23 24  2  0  0  0  0
 26 27  1  0  0  0  0
 27 28  1  0  0  0  0
 27 29  1  0  0  0  0
 29 30  1  0  0  0  0
  2 31  1  0  0  0  0
  3 32  1  0  0  0  0
  3 33  1  0  0  0  0
  4 34  1  0  0  0  0
  4 35  1  0  0  0  0
 10 36  1  0  0  0  0
 15 37  1  0  0  0  0
 16 38  1  0  0  0  0
 18 39  1  0  0  0  0
 19 40  1  0  0  0  0
 21 41  1  0  0  0  0
 24 42  1  0  0  0  0
 25 43  1  0  0  0  0
 25 44  1  0  0  0  0
 25 45  1  0  0  0  0
 26 46  1  0  0  0  0
 26 47  1  0  0  0  0
 27 48  1  0  0  0  0
 28 49  1  0  0  0  0
 28 50  1  0  0  0  0
 30 51  1  0  0  0  0
 30 52  1  0  0  0  0
 30 53  1  0  0  0  0
M  END
> <Name>
36

> <IC50[uM]>
0.006

$$$$
36
  -OEChem-05192314333D
 Structure written by MMmdl.
 53 57  0     1  0  0  0  0  0999 V2000
   -6.3988   12.3548  -12.0167 C   0  0  0  0  0  0  0  0  0  0  0  0
   -6.5634   11.7828  -10.7362 C   0  0  0  0  0  0  0  0  0  0  0  0
   -7.7338   10.5694  -13.0370 C   0  0  0  0  0  0  0  0  0  0  0  0
   -6.9985   11.7556  -13.1278 C   0  0  0  0  0  0  0  0  0  0  0  0
   -7.8247    9.9971  -11.7595 C   0  0  0  0  0  0  0  0  0  0  0  0
   -7.2595   10.6059  -10.6156 C   0  0  0  0  0  0  0  0  0  0  0  0
   -7.6196    9.7377   -9.5218 C   0  0  0  0  0  0  0  0  0  0  0  0
   -8.2737    8.7166   -9.9897 N   0  0  0  0  0  0  0  0  0  0  0  0
   -8.4125    8.8485  -11.3029 N   0  0  0  0  0  0  0  0  0  0  0  0
   -7.3396    9.8926   -8.0318 C   0  0  0  0  0  0  0  0  0  0  0  0
   -4.5445   13.8618  -11.3707 N   0  0  0  0  0  0  0  0  0  0  0  0
   -5.5979   13.6472  -12.1806 C   0  0  0  0  0  0  0  0  0  0  0  0
   -5.9190   14.4711  -13.0424 O   0  0  0  0  0  0  0  0  0  0  0  0
   -5.9590   10.4852   -7.7375 C   0  0  3  0  0  0  0  0  0  0  0  0
   -5.8471   11.7541   -7.1585 C   0  0  0  0  0  0  0  0  0  0  0  0
   -4.5907   12.3017   -6.9141 C   0  0  0  0  0  0  0  0  0  0  0  0
   -3.4394   11.5818   -7.2374 C   0  0  0  0  0  0  0  0  0  0  0  0
   -3.5527   10.3083   -7.8066 C   0  0  0  0  0  0  0  0  0  0  0  0
   -4.8082    9.7633   -8.0562 C   0  0  0  0  0  0  0  0  0  0  0  0
   -2.0898   12.1596   -6.9778 C   0  0  0  0  0  0  0  0  0  0  0  0
   -1.7390   13.4130   -6.4881 C   0  0  0  0  0  0  0  0  0  0  0  0
   -0.3978   13.4480   -6.4305 N   0  0  0  0  0  0  0  0  0  0  0  0
    0.1868   12.3491   -6.8198 N   0  0  0  0  0  0  0  0  0  0  0  0
   -0.8044   11.5467   -7.1770 C   0  0  0  0  0  0  0  0  0  0  0  0
    0.4420   14.5581   -5.9859 C   0  0  0  0  0  0  0  0  0  0  0  0
   -3.7035   15.0408  -11.2447 C   0  0  0  0  0  0  0  0  0  0  0  0
   -3.1688   14.3872   -9.9709 C   0  0  0  0  0  0  0  0  0  0  0  0
   -4.1668   13.2516  -10.0984 C   0  0  0  0  0  0  0  0  0  0  0  0
   -1.8336   13.9158  -10.0706 O   0  0  0  0  0  0  0  0  0  0  0  0
   -0.8619   14.9477  -10.1504 C   0  0  0  0  0  0  0  0  0  0  0  0
   -6.1473   12.2646   -9.8638 H   0  0  0  0  0  0  0  0  0  0  0  0
   -8.2039   10.1205  -13.8995 H   0  0  0  0  0  0  0  0  0  0  0  0
   -6.8899   12.2266  -14.0936 H   0  0  0  0  0  0  0  0  0  0  0  0
   -8.0434    9.6128   -7.2619 H   0  0  0  0  0  0  0  0  0  0  0  0
   -5.9728   10.0271   -6.7375 H   0  0  0  0  0  0  0  0  0  0  0  0
   -6.7368   12.3095   -6.9008 H   0  0  0  0  0  0  0  0  0  0  0  0
   -4.5068   13.2844   -6.4740 H   0  0  0  0  0  0  0  0  0  0  0  0
   -2.6633    9.7472   -8.0527 H   0  0  0  0  0  0  0  0  0  0  0  0
   -4.8610    8.8182   -7.4958 H   0  0  0  0  0  0  0  0  0  0  0  0
   -4.8541    9.5530   -9.1349 H   0  0  0  0  0  0  0  0  0  0  0  0
   -2.4158   14.2066   -6.2077 H   0  0  0  0  0  0  0  0  0  0  0  0
   -0.6640   10.5509   -7.5709 H   0  0  0  0  0  0  0  0  0  0  0  0
    1.5009   14.2685   -6.0560 H   0  0  0  0  0  0  0  0  0  0  0  0
    0.2588   15.4349   -6.6244 H   0  0  0  0  0  0  0  0  0  0  0  0
    0.1984   14.8070   -4.9425 H   0  0  0  0  0  0  0  0  0  0  0  0
   -2.9622   15.1711  -12.0469 H   0  0  0  0  0  0  0  0  0  0  0  0
   -4.2464   15.9849  -11.0903 H   0  0  0  0  0  0  0  0  0  0  0  0
   -3.3555   15.0059   -9.0807 H   0  0  0  0  0  0  0  0  0  0  0  0
   -4.9587   13.2414   -9.3350 H   0  0  0  0  0  0  0  0  0  0  0  0
   -3.7216   12.2489  -10.1783 H   0  0  0  0  0  0  0  0  0  0  0  0
    0.1412   14.5025  -10.2248 H   0  0  0  0  0  0  0  0  0  0  0  0
   -1.0556   15.5656  -11.0396 H   0  0  0  0  0  0  0  0  0  0  0  0
   -0.9185   15.5750   -9.2486 H   0  0  0  0  0  0  0  0  0  0  0  0
  1  2  2  0  0  0  0
  1  4  1  0  0  0  0
  1 12  1  0  0  0  0
  2  6  1  0  0  0  0
  3  4  2  0  0  0  0
  3  5  1  0  0  0  0
  5  6  2  0  0  0  0
  5  9  1  0  0  0  0
  6  7  1  0  0  0  0
  7  8  1  0  0  0  0
  7 10  2  3  0  0  0
  8  9  2  0  0  0  0
 10 14  1  0  0  0  0
 11 12  1  0  0  0  0
 11 26  1  0  0  0  0
 11 28  1  0  0  0  0
 12 13  2  0  0  0  0
 14 15  1  0  0  0  0
 14 19  1  0  0  0  0
 15 16  2  0  0  0  0
 16 17  1  0  0  0  0
 17 18  2  0  0  0  0
 17 20  1  0  0  0  0
 18 19  1  0  0  0  0
 20 21  2  0  0  0  0
 20 24  1  0  0  0  0
 21 22  1  0  0  0  0
 22 23  1  0  0  0  0
 22 25  1  0  0  0  0
 23 24  2  0  0  0  0
 26 27  1  0  0  0  0
 27 28  1  0  0  0  0
 27 29  1  0  0  0  0
 29 30  1  0  0  0  0
  2 31  1  0  0  0  0
  3 32  1  0  0  0  0
  4 33  1  0  0  0  0
 10 34  1  0  0  0  0
 14 35  1  0  0  0  0
 15 36  1  0  0  0  0
 16 37  1  0  0  0  0
 18 38  1  0  0  0  0
 19 39  1  0  0  0  0
 19 40  1  0  0  0  0
 21 41  1  0  0  0  0
 24 42  1  0  0  0  0
 25 43  1  0  0  0  0
 25 44  1  0  0  0  0
 25 45  1  0  0  0  0
 26 46  1  0  0  0  0
 26 47  1  0  0  0  0
 27 48  1  0  0  0  0
 28 49  1  0  0  0  0
 28 50  1  0  0  0  0
 30 51  1  0  0  0  0
 30 52  1  0  0  0  0
 30 53  1  0  0  0  0
M  END
> <Name>
36

> <IC50[uM]>
0.006

$$$$
36
  -OEChem-05192314333D
 Structure written by MMmdl.
 53 57  0     1  0  0  0  0  0999 V2000
   -6.3988   12.3548  -12.0167 C   0  0  0  0  0  0  0  0  0  0  0  0
   -6.5634   11.7828  -10.7362 C   0  0  0  0  0  0  0  0  0  0  0  0
   -7.7338   10.5694  -13.0370 C   0  0  0  0  0  0  0  0  0  0  0  0
   -6.9985   11.7556  -13.1278 C   0  0  0  0  0  0  0  0  0  0  0  0
   -7.8247    9.9971  -11.7595 C   0  0  0  0  0  0  0  0  0  0  0  0
   -7.2595   10.6059  -10.6156 C   0  0  0  0  0  0  0  0  0  0  0  0
   -7.6196    9.7377   -9.5218 C   0  0  3  0  0  0  0  0  0  0  0  0
   -8.2737    8.7166   -9.9897 N   0  0  0  0  0  0  0  0  0  0  0  0
   -8.4125    8.8485  -11.3029 N   0  0  0  0  0  0  0  0  0  0  0  0
   -7.3396    9.8926   -8.0318 C   0  0  0  0  0  0  0  0  0  0  0  0
   -4.5445   13.8618  -11.3707 N   0  0  0  0  0  0  0  0  0  0  0  0
   -5.5979   13.6472  -12.1806 C   0  0  0  0  0  0  0  0  0  0  0  0
   -5.9190   14.4711  -13.0424 O   0  0  0  0  0  0  0  0  0  0  0  0
   -5.9590   10.4852   -7.7375 C   0  0  0  0  0  0  0  0  0  0  0  0
   -5.8471   11.7541   -7.1585 C   0  0  0  0  0  0  0  0  0  0  0  0
   -4.5907   12.3017   -6.9141 C   0  0  0  0  0  0  0  0  0  0  0  0
   -3.4394   11.5818   -7.2374 C   0  0  0  0  0  0  0  0  0  0  0  0
   -3.5527   10.3083   -7.8066 C   0  0  0  0  0  0  0  0  0  0  0  0
   -4.8082    9.7633   -8.0562 C   0  0  0  0  0  0  0  0  0  0  0  0
   -2.0898   12.1596   -6.9778 C   0  0  0  0  0  0  0  0  0  0  0  0
   -1.7390   13.4130   -6.4881 C   0  0  0  0  0  0  0  0  0  0  0  0
   -0.3978   13.4480   -6.4305 N   0  0  0  0  0  0  0  0  0  0  0  0
    0.1868   12.3491   -6.8198 N   0  0  0  0  0  0  0  0  0  0  0  0
   -0.8044   11.5467   -7.1770 C   0  0  0  0  0  0  0  0  0  0  0  0
    0.4420   14.5581   -5.9859 C   0  0  0  0  0  0  0  0  0  0  0  0
   -3.7035   15.0408  -11.2447 C   0  0  0  0  0  0  0  0  0  0  0  0
   -3.1688   14.3872   -9.9709 C   0  0  0  0  0  0  0  0  0  0  0  0
   -4.1668   13.2516  -10.0984 C   0  0  0  0  0  0  0  0  0  0  0  0
   -1.8336   13.9158  -10.0706 O   0  0  0  0  0  0  0  0  0  0  0  0
   -0.8619   14.9477  -10.1504 C   0  0  0  0  0  0  0  0  0  0  0  0
   -6.1473   12.2646   -9.8638 H   0  0  0  0  0  0  0  0  0  0  0  0
   -8.2039   10.1205  -13.8995 H   0  0  0  0  0  0  0  0  0  0  0  0
   -6.8899   12.2266  -14.0936 H   0  0  0  0  0  0  0  0  0  0  0  0
   -6.6738    9.1895   -9.6438 H   0  0  0  0  0  0  0  0  0  0  0  0
   -8.0434    9.6128   -7.2619 H   0  0  0  0  0  0  0  0  0  0  0  0
   -6.7368   12.3095   -6.9008 H   0  0  0  0  0  0  0  0  0  0  0  0
   -4.5068   13.2844   -6.4740 H   0  0  0  0  0  0  0  0  0  0  0  0
   -2.6633    9.7472   -8.0527 H   0  0  0  0  0  0  0  0  0  0  0  0
   -4.8610    8.8182   -7.4958 H   0  0  0  0  0  0  0  0  0  0  0  0
   -4.8541    9.5530   -9.1349 H   0  0  0  0  0  0  0  0  0  0  0  0
   -2.4158   14.2066   -6.2077 H   0  0  0  0  0  0  0  0  0  0  0  0
   -0.6640   10.5509   -7.5709 H   0  0  0  0  0  0  0  0  0  0  0  0
    1.5009   14.2685   -6.0560 H   0  0  0  0  0  0  0  0  0  0  0  0
    0.2588   15.4349   -6.6244 H   0  0  0  0  0  0  0  0  0  0  0  0
    0.1984   14.8070   -4.9425 H   0  0  0  0  0  0  0  0  0  0  0  0
   -2.9622   15.1711  -12.0469 H   0  0  0  0  0  0  0  0  0  0  0  0
   -4.2464   15.9849  -11.0903 H   0  0  0  0  0  0  0  0  0  0  0  0
   -3.3555   15.0059   -9.0807 H   0  0  0  0  0  0  0  0  0  0  0  0
   -4.9587   13.2414   -9.3350 H   0  0  0  0  0  0  0  0  0  0  0  0
   -3.7216   12.2489  -10.1783 H   0  0  0  0  0  0  0  0  0  0  0  0
    0.1412   14.5025  -10.2248 H   0  0  0  0  0  0  0  0  0  0  0  0
   -1.0556   15.5656  -11.0396 H   0  0  0  0  0  0  0  0  0  0  0  0
   -0.9185   15.5750   -9.2486 H   0  0  0  0  0  0  0  0  0  0  0  0
  1  2  2  0  0  0  0
  1  4  1  0  0  0  0
  1 12  1  0  0  0  0
  2  6  1  0  0  0  0
  3  4  2  0  0  0  0
  3  5  1  0  0  0  0
  5  6  2  0  0  0  0
  5  9  1  0  0  0  0
  6  7  1  0  0  0  0
  7  8  1  0  0  0  0
  7 10  1  0  0  0  0
  8  9  2  0  0  0  0
 10 14  2  3  0  0  0
 11 12  1  0  0  0  0
 11 26  1  0  0  0  0
 11 28  1  0  0  0  0
 12 13  2  0  0  0  0
 14 15  1  0  0  0  0
 14 19  1  0  0  0  0
 15 16  2  0  0  0  0
 16 17  1  0  0  0  0
 17 18  2  0  0  0  0
 17 20  1  0  0  0  0
 18 19  1  0  0  0  0
 20 21  2  0  0  0  0
 20 24  1  0  0  0  0
 21 22  1  0  0  0  0
 22 23  1  0  0  0  0
 22 25  1  0  0  0  0
 23 24  2  0  0  0  0
 26 27  1  0  0  0  0
 27 28  1  0  0  0  0
 27 29  1  0  0  0  0
 29 30  1  0  0  0  0
  2 31  1  0  0  0  0
  3 32  1  0  0  0  0
  4 33  1  0  0  0  0
  7 34  1  0  0  0  0
 10 35  1  0  0  0  0
 15 36  1  0  0  0  0
 16 37  1  0  0  0  0
 18 38  1  0  0  0  0
 19 39  1  0  0  0  0
 19 40  1  0  0  0  0
 21 41  1  0  0  0  0
 24 42  1  0  0  0  0
 25 43  1  0  0  0  0
 25 44  1  0  0  0  0
 25 45  1  0  0  0  0
 26 46  1  0  0  0  0
 26 47  1  0  0  0  0
 27 48  1  0  0  0  0
 28 49  1  0  0  0  0
 28 50  1  0  0  0  0
 30 51  1  0  0  0  0
 30 52  1  0  0  0  0
 30 53  1  0  0  0  0
M  END
> <Name>
36

> <IC50[uM]>
0.006

$$$$
36
  -OEChem-05192314333D
 Structure written by MMmdl.
 53 57  0     0  0  0  0  0  0999 V2000
   -6.3988   12.3548  -12.0167 C   0  0  0  0  0  0  0  0  0  0  0  0
   -6.5634   11.7828  -10.7362 C   0  0  0  0  0  0  0  0  0  0  0  0
   -7.7338   10.5694  -13.0370 C   0  0  0  0  0  0  0  0  0  0  0  0
   -6.9985   11.7556  -13.1278 C   0  0  0  0  0  0  0  0  0  0  0  0
   -7.8247    9.9971  -11.7595 C   0  0  0  0  0  0  0  0  0  0  0  0
   -7.2595   10.6059  -10.6156 C   0  0  0  0  0  0  0  0  0  0  0  0
   -7.6196    9.7377   -9.5218 C   0  0  0  0  0  0  0  0  0  0  0  0
   -8.2737    8.7166   -9.9897 N   0  0  0  0  0  0  0  0  0  0  0  0
   -8.4125    8.8485  -11.3029 N   0  0  0  0  0  0  0  0  0  0  0  0
   -7.3396    9.8926   -8.0318 C   0  0  0  0  0  0  0  0  0  0  0  0
   -4.5445   13.8618  -11.3707 N   0  0  0  0  0  0  0  0  0  0  0  0
   -5.5979   13.6472  -12.1806 C   0  0  0  0  0  0  0  0  0  0  0  0
   -5.9190   14.4711  -13.0424 O   0  0  0  0  0  0  0  0  0  0  0  0
   -5.9590   10.4852   -7.7375 C   0  0  0  0  0  0  0  0  0  0  0  0
   -5.8471   11.7541   -7.1585 C   0  0  0  0  0  0  0  0  0  0  0  0
   -4.5907   12.3017   -6.9141 C   0  0  0  0  0  0  0  0  0  0  0  0
   -3.4394   11.5818   -7.2374 C   0  0  0  0  0  0  0  0  0  0  0  0
   -3.5527   10.3083   -7.8066 C   0  0  0  0  0  0  0  0  0  0  0  0
   -4.8082    9.7633   -8.0562 C   0  0  0  0  0  0  0  0  0  0  0  0
   -2.0898   12.1596   -6.9778 C   0  0  0  0  0  0  0  0  0  0  0  0
   -1.7390   13.4130   -6.4881 C   0  0  0  0  0  0  0  0  0  0  0  0
   -0.3978   13.4480   -6.4305 N   0  0  0  0  0  0  0  0  0  0  0  0
    0.1868   12.3491   -6.8198 N   0  0  0  0  0  0  0  0  0  0  0  0
   -0.8044   11.5467   -7.1770 C   0  0  0  0  0  0  0  0  0  0  0  0
    0.4420   14.5581   -5.9859 C   0  0  0  0  0  0  0  0  0  0  0  0
   -3.7035   15.0408  -11.2447 C   0  0  0  0  0  0  0  0  0  0  0  0
   -3.1688   14.3872   -9.9709 C   0  0  0  0  0  0  0  0  0  0  0  0
   -4.1668   13.2516  -10.0984 C   0  0  0  0  0  0  0  0  0  0  0  0
   -1.8336   13.9158  -10.0706 O   0  0  0  0  0  0  0  0  0  0  0  0
   -0.8619   14.9477  -10.1504 C   0  0  0  0  0  0  0  0  0  0  0  0
   -6.1473   12.2646   -9.8638 H   0  0  0  0  0  0  0  0  0  0  0  0
   -8.2039   10.1205  -13.8995 H   0  0  0  0  0  0  0  0  0  0  0  0
   -6.8899   12.2266  -14.0936 H   0  0  0  0  0  0  0  0  0  0  0  0
   -8.0434    9.6128   -7.2619 H   0  0  0  0  0  0  0  0  0  0  0  0
   -6.7368   12.3095   -6.9008 H   0  0  0  0  0  0  0  0  0  0  0  0
   -4.5419   13.2467   -7.4750 H   0  0  0  0  0  0  0  0  0  0  0  0
   -4.5408   12.5124   -5.8356 H   0  0  0  0  0  0  0  0  0  0  0  0
   -2.6633    9.7472   -8.0527 H   0  0  0  0  0  0  0  0  0  0  0  0
   -4.8610    8.8182   -7.4958 H   0  0  0  0  0  0  0  0  0  0  0  0
   -4.8541    9.5530   -9.1349 H   0  0  0  0  0  0  0  0  0  0  0  0
   -2.4158   14.2066   -6.2077 H   0  0  0  0  0  0  0  0  0  0  0  0
   -0.6640   10.5509   -7.5709 H   0  0  0  0  0  0  0  0  0  0  0  0
    1.5009   14.2685   -6.0560 H   0  0  0  0  0  0  0  0  0  0  0  0
    0.2588   15.4349   -6.6244 H   0  0  0  0  0  0  0  0  0  0  0  0
    0.1984   14.8070   -4.9425 H   0  0  0  0  0  0  0  0  0  0  0  0
   -2.9622   15.1711  -12.0469 H   0  0  0  0  0  0  0  0  0  0  0  0
   -4.2464   15.9849  -11.0903 H   0  0  0  0  0  0  0  0  0  0  0  0
   -3.3555   15.0059   -9.0807 H   0  0  0  0  0  0  0  0  0  0  0  0
   -4.9587   13.2414   -9.3350 H   0  0  0  0  0  0  0  0  0  0  0  0
   -3.7216   12.2489  -10.1783 H   0  0  0  0  0  0  0  0  0  0  0  0
    0.1412   14.5025  -10.2248 H   0  0  0  0  0  0  0  0  0  0  0  0
   -1.0556   15.5656  -11.0396 H   0  0  0  0  0  0  0  0  0  0  0  0
   -0.9185   15.5750   -9.2486 H   0  0  0  0  0  0  0  0  0  0  0  0
  1  2  2  0  0  0  0
  1  4  1  0  0  0  0
  1 12  1  0  0  0  0
  2  6  1  0  0  0  0
  3  4  2  0  0  0  0
  3  5  1  0  0  0  0
  5  6  2  0  0  0  0
  5  9  1  0  0  0  0
  6  7  1  0  0  0  0
  7  8  1  0  0  0  0
  7 10  2  3  0  0  0
  8  9  2  0  0  0  0
 10 14  1  0  0  0  0
 11 12  1  0  0  0  0
 11 26  1  0  0  0  0
 11 28  1  0  0  0  0
 12 13  2  0  0  0  0
 14 15  2  0  0  0  0
 14 19  1  0  0  0  0
 15 16  1  0  0  0  0
 16 17  1  0  0  0  0
 17 18  2  0  0  0  0
 17 20  1  0  0  0  0
 18 19  1  0  0  0  0
 20 21  2  0  0  0  0
 20 24  1  0  0  0  0
 21 22  1  0  0  0  0
 22 23  1  0  0  0  0
 22 25  1  0  0  0  0
 23 24  2  0  0  0  0
 26 27  1  0  0  0  0
 27 28  1  0  0  0  0
 27 29  1  0  0  0  0
 29 30  1  0  0  0  0
  2 31  1  0  0  0  0
  3 32  1  0  0  0  0
  4 33  1  0  0  0  0
 10 34  1  0  0  0  0
 15 35  1  0  0  0  0
 16 36  1  0  0  0  0
 16 37  1  0  0  0  0
 18 38  1  0  0  0  0
 19 39  1  0  0  0  0
 19 40  1  0  0  0  0
 21 41  1  0  0  0  0
 24 42  1  0  0  0  0
 25 43  1  0  0  0  0
 25 44  1  0  0  0  0
 25 45  1  0  0  0  0
 26 46  1  0  0  0  0
 26 47  1  0  0  0  0
 27 48  1  0  0  0  0
 28 49  1  0  0  0  0
 28 50  1  0  0  0  0
 30 51  1  0  0  0  0
 30 52  1  0  0  0  0
 30 53  1  0  0  0  0
M  END
> <Name>
36

> <IC50[uM]>
0.006

$$$$
36
  -OEChem-05192314333D
 Structure written by MMmdl.
 53 57  0     0  0  0  0  0  0999 V2000
   -6.3988   12.3548  -12.0167 C   0  0  0  0  0  0  0  0  0  0  0  0
   -6.5634   11.7828  -10.7362 C   0  0  0  0  0  0  0  0  0  0  0  0
   -7.7338   10.5694  -13.0370 C   0  0  0  0  0  0  0  0  0  0  0  0
   -6.9985   11.7556  -13.1278 C   0  0  0  0  0  0  0  0  0  0  0  0
   -7.8247    9.9971  -11.7595 C   0  0  0  0  0  0  0  0  0  0  0  0
   -7.2595   10.6059  -10.6156 C   0  0  0  0  0  0  0  0  0  0  0  0
   -7.6196    9.7377   -9.5218 C   0  0  0  0  0  0  0  0  0  0  0  0
   -8.2737    8.7166   -9.9897 N   0  0  0  0  0  0  0  0  0  0  0  0
   -8.4125    8.8485  -11.3029 N   0  0  0  0  0  0  0  0  0  0  0  0
   -7.3396    9.8926   -8.0318 C   0  0  0  0  0  0  0  0  0  0  0  0
   -4.5445   13.8618  -11.3707 N   0  0  0  0  0  0  0  0  0  0  0  0
   -5.5979   13.6472  -12.1806 C   0  0  0  0  0  0  0  0  0  0  0  0
   -5.9190   14.4711  -13.0424 O   0  0  0  0  0  0  0  0  0  0  0  0
   -5.9590   10.4852   -7.7375 C   0  0  0  0  0  0  0  0  0  0  0  0
   -5.8471   11.7541   -7.1585 C   0  0  0  0  0  0  0  0  0  0  0  0
   -4.5907   12.3017   -6.9141 C   0  0  0  0  0  0  0  0  0  0  0  0
   -3.4394   11.5818   -7.2374 C   0  0  0  0  0  0  0  0  0  0  0  0
   -3.5527   10.3083   -7.8066 C   0  0  0  0  0  0  0  0  0  0  0  0
   -4.8082    9.7633   -8.0562 C   0  0  0  0  0  0  0  0  0  0  0  0
   -2.0898   12.1596   -6.9778 C   0  0  0  0  0  0  0  0  0  0  0  0
   -1.7390   13.4130   -6.4881 C   0  0  0  0  0  0  0  0  0  0  0  0
   -0.3978   13.4480   -6.4305 N   0  0  0  0  0  0  0  0  0  0  0  0
    0.1868   12.3491   -6.8198 N   0  0  0  0  0  0  0  0  0  0  0  0
   -0.8044   11.5467   -7.1770 C   0  0  0  0  0  0  0  0  0  0  0  0
    0.4420   14.5581   -5.9859 C   0  0  0  0  0  0  0  0  0  0  0  0
   -3.7035   15.0408  -11.2447 C   0  0  0  0  0  0  0  0  0  0  0  0
   -3.1688   14.3872   -9.9709 C   0  0  0  0  0  0  0  0  0  0  0  0
   -4.1668   13.2516  -10.0984 C   0  0  0  0  0  0  0  0  0  0  0  0
   -1.8336   13.9158  -10.0706 O   0  0  0  0  0  0  0  0  0  0  0  0
   -0.8619   14.9477  -10.1504 C   0  0  0  0  0  0  0  0  0  0  0  0
   -6.1473   12.2646   -9.8638 H   0  0  0  0  0  0  0  0  0  0  0  0
   -8.2039   10.1205  -13.8995 H   0  0  0  0  0  0  0  0  0  0  0  0
   -6.8899   12.2266  -14.0936 H   0  0  0  0  0  0  0  0  0  0  0  0
   -8.0434    9.6128   -7.2619 H   0  0  0  0  0  0  0  0  0  0  0  0
   -6.7368   12.3095   -6.9008 H   0  0  0  0  0  0  0  0  0  0  0  0
   -4.5068   13.2844   -6.4740 H   0  0  0  0  0  0  0  0  0  0  0  0
   -3.0256   10.3445   -8.7714 H   0  0  0  0  0  0  0  0  0  0  0  0
   -3.0338    9.6122   -7.1312 H   0  0  0  0  0  0  0  0  0  0  0  0
   -4.8610    8.8182   -7.4958 H   0  0  0  0  0  0  0  0  0  0  0  0
   -4.8541    9.5530   -9.1349 H   0  0  0  0  0  0  0  0  0  0  0  0
   -2.4158   14.2066   -6.2077 H   0  0  0  0  0  0  0  0  0  0  0  0
   -0.6640   10.5509   -7.5709 H   0  0  0  0  0  0  0  0  0  0  0  0
    1.5009   14.2685   -6.0560 H   0  0  0  0  0  0  0  0  0  0  0  0
    0.2588   15.4349   -6.6244 H   0  0  0  0  0  0  0  0  0  0  0  0
    0.1984   14.8070   -4.9425 H   0  0  0  0  0  0  0  0  0  0  0  0
   -2.9622   15.1711  -12.0469 H   0  0  0  0  0  0  0  0  0  0  0  0
   -4.2464   15.9849  -11.0903 H   0  0  0  0  0  0  0  0  0  0  0  0
   -3.3555   15.0059   -9.0807 H   0  0  0  0  0  0  0  0  0  0  0  0
   -4.9587   13.2414   -9.3350 H   0  0  0  0  0  0  0  0  0  0  0  0
   -3.7216   12.2489  -10.1783 H   0  0  0  0  0  0  0  0  0  0  0  0
    0.1412   14.5025  -10.2248 H   0  0  0  0  0  0  0  0  0  0  0  0
   -1.0556   15.5656  -11.0396 H   0  0  0  0  0  0  0  0  0  0  0  0
   -0.9185   15.5750   -9.2486 H   0  0  0  0  0  0  0  0  0  0  0  0
  1  2  2  0  0  0  0
  1  4  1  0  0  0  0
  1 12  1  0  0  0  0
  2  6  1  0  0  0  0
  3  4  2  0  0  0  0
  3  5  1  0  0  0  0
  5  6  2  0  0  0  0
  5  9  1  0  0  0  0
  6  7  1  0  0  0  0
  7  8  1  0  0  0  0
  7 10  2  3  0  0  0
  8  9  2  0  0  0  0
 10 14  1  0  0  0  0
 11 12  1  0  0  0  0
 11 26  1  0  0  0  0
 11 28  1  0  0  0  0
 12 13  2  0  0  0  0
 14 15  2  0  0  0  0
 14 19  1  0  0  0  0
 15 16  1  0  0  0  0
 16 17  2  0  0  0  0
 17 18  1  0  0  0  0
 17 20  1  0  0  0  0
 18 19  1  0  0  0  0
 20 21  2  0  0  0  0
 20 24  1  0  0  0  0
 21 22  1  0  0  0  0
 22 23  1  0  0  0  0
 22 25  1  0  0  0  0
 23 24  2  0  0  0  0
 26 27  1  0  0  0  0
 27 28  1  0  0  0  0
 27 29  1  0  0  0  0
 29 30  1  0  0  0  0
  2 31  1  0  0  0  0
  3 32  1  0  0  0  0
  4 33  1  0  0  0  0
 10 34  1  0  0  0  0
 15 35  1  0  0  0  0
 16 36  1  0  0  0  0
 18 37  1  0  0  0  0
 18 38  1  0  0  0  0
 19 39  1  0  0  0  0
 19 40  1  0  0  0  0
 21 41  1  0  0  0  0
 24 42  1  0  0  0  0
 25 43  1  0  0  0  0
 25 44  1  0  0  0  0
 25 45  1  0  0  0  0
 26 46  1  0  0  0  0
 26 47  1  0  0  0  0
 27 48  1  0  0  0  0
 28 49  1  0  0  0  0
 28 50  1  0  0  0  0
 30 51  1  0  0  0  0
 30 52  1  0  0  0  0
 30 53  1  0  0  0  0
M  END
> <Name>
36

> <IC50[uM]>
0.006

$$$$
36
  -OEChem-05192314333D
 Structure written by MMmdl.
 53 57  0     1  0  0  0  0  0999 V2000
   -6.3988   12.3548  -12.0167 C   0  0  3  0  0  0  0  0  0  0  0  0
   -6.5634   11.7828  -10.7362 C   0  0  0  0  0  0  0  0  0  0  0  0
   -7.7338   10.5694  -13.0370 C   0  0  0  0  0  0  0  0  0  0  0  0
   -6.9985   11.7556  -13.1278 C   0  0  0  0  0  0  0  0  0  0  0  0
   -7.8247    9.9971  -11.7595 C   0  0  0  0  0  0  0  0  0  0  0  0
   -7.2595   10.6059  -10.6156 C   0  0  0  0  0  0  0  0  0  0  0  0
   -7.6196    9.7377   -9.5218 C   0  0  0  0  0  0  0  0  0  0  0  0
   -8.2737    8.7166   -9.9897 N   0  0  0  0  0  0  0  0  0  0  0  0
   -8.4125    8.8485  -11.3029 N   0  0  0  0  0  0  0  0  0  0  0  0
   -7.3396    9.8926   -8.0318 C   0  0  0  0  0  0  0  0  0  0  0  0
   -4.5445   13.8618  -11.3707 N   0  0  0  0  0  0  0  0  0  0  0  0
   -5.5979   13.6472  -12.1806 C   0  0  0  0  0  0  0  0  0  0  0  0
   -5.9190   14.4711  -13.0424 O   0  0  0  0  0  0  0  0  0  0  0  0
   -5.9590   10.4852   -7.7375 C   0  0  0  0  0  0  0  0  0  0  0  0
   -5.8471   11.7541   -7.1585 C   0  0  0  0  0  0  0  0  0  0  0  0
   -4.5907   12.3017   -6.9141 C   0  0  0  0  0  0  0  0  0  0  0  0
   -3.4394   11.5818   -7.2374 C   0  0  0  0  0  0  0  0  0  0  0  0
   -3.5527   10.3083   -7.8066 C   0  0  0  0  0  0  0  0  0  0  0  0
   -4.8082    9.7633   -8.0562 C   0  0  0  0  0  0  0  0  0  0  0  0
   -2.0898   12.1596   -6.9778 C   0  0  0  0  0  0  0  0  0  0  0  0
   -1.7390   13.4130   -6.4881 C   0  0  0  0  0  0  0  0  0  0  0  0
   -0.3978   13.4480   -6.4305 N   0  0  0  0  0  0  0  0  0  0  0  0
    0.1868   12.3491   -6.8198 N   0  0  0  0  0  0  0  0  0  0  0  0
   -0.8044   11.5467   -7.1770 C   0  0  0  0  0  0  0  0  0  0  0  0
    0.4420   14.5581   -5.9859 C   0  0  0  0  0  0  0  0  0  0  0  0
   -3.7035   15.0408  -11.2447 C   0  0  0  0  0  0  0  0  0  0  0  0
   -3.1688   14.3872   -9.9709 C   0  0  0  0  0  0  0  0  0  0  0  0
   -4.1668   13.2516  -10.0984 C   0  0  0  0  0  0  0  0  0  0  0  0
   -1.8336   13.9158  -10.0706 O   0  0  0  0  0  0  0  0  0  0  0  0
   -0.8619   14.9477  -10.1504 C   0  0  0  0  0  0  0  0  0  0  0  0
   -5.4875   11.7597  -12.1757 H   0  0  0  0  0  0  0  0  0  0  0  0
   -5.5563   11.6040  -10.3316 H   0  0  0  0  0  0  0  0  0  0  0  0
   -7.0812   12.5282  -10.1148 H   0  0  0  0  0  0  0  0  0  0  0  0
   -8.2039   10.1205  -13.8995 H   0  0  0  0  0  0  0  0  0  0  0  0
   -6.8899   12.2266  -14.0936 H   0  0  0  0  0  0  0  0  0  0  0  0
   -8.0434    9.6128   -7.2619 H   0  0  0  0  0  0  0  0  0  0  0  0
   -6.7368   12.3095   -6.9008 H   0  0  0  0  0  0  0  0  0  0  0  0
   -4.5068   13.2844   -6.4740 H   0  0  0  0  0  0  0  0  0  0  0  0
   -2.6633    9.7472   -8.0527 H   0  0  0  0  0  0  0  0  0  0  0  0
   -4.8922    8.7809   -8.4969 H   0  0  0  0  0  0  0  0  0  0  0  0
   -2.4158   14.2066   -6.2077 H   0  0  0  0  0  0  0  0  0  0  0  0
   -0.6640   10.5509   -7.5709 H   0  0  0  0  0  0  0  0  0  0  0  0
    1.5009   14.2685   -6.0560 H   0  0  0  0  0  0  0  0  0  0  0  0
    0.2588   15.4349   -6.6244 H   0  0  0  0  0  0  0  0  0  0  0  0
    0.1984   14.8070   -4.9425 H   0  0  0  0  0  0  0  0  0  0  0  0
   -2.9622   15.1711  -12.0469 H   0  0  0  0  0  0  0  0  0  0  0  0
   -4.2464   15.9849  -11.0903 H   0  0  0  0  0  0  0  0  0  0  0  0
   -3.3555   15.0059   -9.0807 H   0  0  0  0  0  0  0  0  0  0  0  0
   -4.9587   13.2414   -9.3350 H   0  0  0  0  0  0  0  0  0  0  0  0
   -3.7216   12.2489  -10.1783 H   0  0  0  0  0  0  0  0  0  0  0  0
    0.1412   14.5025  -10.2248 H   0  0  0  0  0  0  0  0  0  0  0  0
   -1.0556   15.5656  -11.0396 H   0  0  0  0  0  0  0  0  0  0  0  0
   -0.9185   15.5750   -9.2486 H   0  0  0  0  0  0  0  0  0  0  0  0
  1  2  1  0  0  0  0
  1  4  1  0  0  0  0
  1 12  1  0  0  0  0
  2  6  1  0  0  0  0
  3  4  2  0  0  0  0
  3  5  1  0  0  0  0
  5  6  2  0  0  0  0
  5  9  1  0  0  0  0
  6  7  1  0  0  0  0
  7  8  1  0  0  0  0
  7 10  2  3  0  0  0
  8  9  2  0  0  0  0
 10 14  1  0  0  0  0
 11 12  1  0  0  0  0
 11 26  1  0  0  0  0
 11 28  1  0  0  0  0
 12 13  2  0  0  0  0
 14 15  2  0  0  0  0
 14 19  1  0  0  0  0
 15 16  1  0  0  0  0
 16 17  2  0  0  0  0
 17 18  1  0  0  0  0
 17 20  1  0  0  0  0
 18 19  2  0  0  0  0
 20 21  2  0  0  0  0
 20 24  1  0  0  0  0
 21 22  1  0  0  0  0
 22 23  1  0  0  0  0
 22 25  1  0  0  0  0
 23 24  2  0  0  0  0
 26 27  1  0  0  0  0
 27 28  1  0  0  0  0
 27 29  1  0  0  0  0
 29 30  1  0  0  0  0
  1 31  1  0  0  0  0
  2 32  1  0  0  0  0
  2 33  1  0  0  0  0
  3 34  1  0  0  0  0
  4 35  1  0  0  0  0
 10 36  1  0  0  0  0
 15 37  1  0  0  0  0
 16 38  1  0  0  0  0
 18 39  1  0  0  0  0
 19 40  1  0  0  0  0
 21 41  1  0  0  0  0
 24 42  1  0  0  0  0
 25 43  1  0  0  0  0
 25 44  1  0  0  0  0
 25 45  1  0  0  0  0
 26 46  1  0  0  0  0
 26 47  1  0  0  0  0
 27 48  1  0  0  0  0
 28 49  1  0  0  0  0
 28 50  1  0  0  0  0
 30 51  1  0  0  0  0
 30 52  1  0  0  0  0
 30 53  1  0  0  0  0
M  END
> <Name>
36

> <IC50[uM]>
0.006

$$$$
36
  -OEChem-05192314333D
 Structure written by MMmdl.
 53 57  0     1  0  0  0  0  0999 V2000
   -6.3988   12.3548  -12.0167 C   0  0  0  0  0  0  0  0  0  0  0  0
   -6.5634   11.7828  -10.7362 C   0  0  0  0  0  0  0  0  0  0  0  0
   -7.7338   10.5694  -13.0370 C   0  0  0  0  0  0  0  0  0  0  0  0
   -6.9985   11.7556  -13.1278 C   0  0  0  0  0  0  0  0  0  0  0  0
   -7.8247    9.9971  -11.7595 C   0  0  0  0  0  0  0  0  0  0  0  0
   -7.2595   10.6059  -10.6156 C   0  0  3  0  0  0  0  0  0  0  0  0
   -7.6196    9.7377   -9.5218 C   0  0  0  0  0  0  0  0  0  0  0  0
   -8.2737    8.7166   -9.9897 N   0  0  0  0  0  0  0  0  0  0  0  0
   -8.4125    8.8485  -11.3029 N   0  0  0  0  0  0  0  0  0  0  0  0
   -7.3396    9.8926   -8.0318 C   0  0  0  0  0  0  0  0  0  0  0  0
   -4.5445   13.8618  -11.3707 N   0  0  0  0  0  0  0  0  0  0  0  0
   -5.5979   13.6472  -12.1806 C   0  0  0  0  0  0  0  0  0  0  0  0
   -5.9190   14.4711  -13.0424 O   0  0  0  0  0  0  0  0  0  0  0  0
   -5.9590   10.4852   -7.7375 C   0  0  0  0  0  0  0  0  0  0  0  0
   -5.8471   11.7541   -7.1585 C   0  0  0  0  0  0  0  0  0  0  0  0
   -4.5907   12.3017   -6.9141 C   0  0  0  0  0  0  0  0  0  0  0  0
   -3.4394   11.5818   -7.2374 C   0  0  0  0  0  0  0  0  0  0  0  0
   -3.5527   10.3083   -7.8066 C   0  0  0  0  0  0  0  0  0  0  0  0
   -4.8082    9.7633   -8.0562 C   0  0  0  0  0  0  0  0  0  0  0  0
   -2.0898   12.1596   -6.9778 C   0  0  0  0  0  0  0  0  0  0  0  0
   -1.7390   13.4130   -6.4881 C   0  0  0  0  0  0  0  0  0  0  0  0
   -0.3978   13.4480   -6.4305 N   0  0  0  0  0  0  0  0  0  0  0  0
    0.1868   12.3491   -6.8198 N   0  0  0  0  0  0  0  0  0  0  0  0
   -0.8044   11.5467   -7.1770 C   0  0  0  0  0  0  0  0  0  0  0  0
    0.4420   14.5581   -5.9859 C   0  0  0  0  0  0  0  0  0  0  0  0
   -3.7035   15.0408  -11.2447 C   0  0  0  0  0  0  0  0  0  0  0  0
   -3.1688   14.3872   -9.9709 C   0  0  0  0  0  0  0  0  0  0  0  0
   -4.1668   13.2516  -10.0984 C   0  0  0  0  0  0  0  0  0  0  0  0
   -1.8336   13.9158  -10.0706 O   0  0  0  0  0  0  0  0  0  0  0  0
   -0.8619   14.9477  -10.1504 C   0  0  0  0  0  0  0  0  0  0  0  0
   -5.5563   11.6040  -10.3316 H   0  0  0  0  0  0  0  0  0  0  0  0
   -7.0812   12.5282  -10.1148 H   0  0  0  0  0  0  0  0  0  0  0  0
   -8.2039   10.1205  -13.8995 H   0  0  0  0  0  0  0  0  0  0  0  0
   -6.8899   12.2266  -14.0936 H   0  0  0  0  0  0  0  0  0  0  0  0
   -6.3306   10.0364  -10.7668 H   0  0  0  0  0  0  0  0  0  0  0  0
   -8.0434    9.6128   -7.2619 H   0  0  0  0  0  0  0  0  0  0  0  0
   -6.7368   12.3095   -6.9008 H   0  0  0  0  0  0  0  0  0  0  0  0
   -4.5068   13.2844   -6.4740 H   0  0  0  0  0  0  0  0  0  0  0  0
   -2.6633    9.7472   -8.0527 H   0  0  0  0  0  0  0  0  0  0  0  0
   -4.8922    8.7809   -8.4969 H   0  0  0  0  0  0  0  0  0  0  0  0
   -2.4158   14.2066   -6.2077 H   0  0  0  0  0  0  0  0  0  0  0  0
   -0.6640   10.5509   -7.5709 H   0  0  0  0  0  0  0  0  0  0  0  0
    1.5009   14.2685   -6.0560 H   0  0  0  0  0  0  0  0  0  0  0  0
    0.2588   15.4349   -6.6244 H   0  0  0  0  0  0  0  0  0  0  0  0
    0.1984   14.8070   -4.9425 H   0  0  0  0  0  0  0  0  0  0  0  0
   -2.9622   15.1711  -12.0469 H   0  0  0  0  0  0  0  0  0  0  0  0
   -4.2464   15.9849  -11.0903 H   0  0  0  0  0  0  0  0  0  0  0  0
   -3.3555   15.0059   -9.0807 H   0  0  0  0  0  0  0  0  0  0  0  0
   -4.9587   13.2414   -9.3350 H   0  0  0  0  0  0  0  0  0  0  0  0
   -3.7216   12.2489  -10.1783 H   0  0  0  0  0  0  0  0  0  0  0  0
    0.1412   14.5025  -10.2248 H   0  0  0  0  0  0  0  0  0  0  0  0
   -1.0556   15.5656  -11.0396 H   0  0  0  0  0  0  0  0  0  0  0  0
   -0.9185   15.5750   -9.2486 H   0  0  0  0  0  0  0  0  0  0  0  0
  1  2  1  0  0  0  0
  1  4  2  0  0  0  0
  1 12  1  0  0  0  0
  2  6  1  0  0  0  0
  3  4  1  0  0  0  0
  3  5  2  0  0  0  0
  5  6  1  0  0  0  0
  5  9  1  0  0  0  0
  6  7  1  0  0  0  0
  7  8  1  0  0  0  0
  7 10  2  3  0  0  0
  8  9  2  0  0  0  0
 10 14  1  0  0  0  0
 11 12  1  0  0  0  0
 11 26  1  0  0  0  0
 11 28  1  0  0  0  0
 12 13  2  0  0  0  0
 14 15  2  0  0  0  0
 14 19  1  0  0  0  0
 15 16  1  0  0  0  0
 16 17  2  0  0  0  0
 17 18  1  0  0  0  0
 17 20  1  0  0  0  0
 18 19  2  0  0  0  0
 20 21  2  0  0  0  0
 20 24  1  0  0  0  0
 21 22  1  0  0  0  0
 22 23  1  0  0  0  0
 22 25  1  0  0  0  0
 23 24  2  0  0  0  0
 26 27  1  0  0  0  0
 27 28  1  0  0  0  0
 27 29  1  0  0  0  0
 29 30  1  0  0  0  0
  2 31  1  0  0  0  0
  2 32  1  0  0  0  0
  3 33  1  0  0  0  0
  4 34  1  0  0  0  0
  6 35  1  0  0  0  0
 10 36  1  0  0  0  0
 15 37  1  0  0  0  0
 16 38  1  0  0  0  0
 18 39  1  0  0  0  0
 19 40  1  0  0  0  0
 21 41  1  0  0  0  0
 24 42  1  0  0  0  0
 25 43  1  0  0  0  0
 25 44  1  0  0  0  0
 25 45  1  0  0  0  0
 26 46  1  0  0  0  0
 26 47  1  0  0  0  0
 27 48  1  0  0  0  0
 28 49  1  0  0  0  0
 28 50  1  0  0  0  0
 30 51  1  0  0  0  0
 30 52  1  0  0  0  0
 30 53  1  0  0  0  0
M  END
> <Name>
36

> <IC50[uM]>
0.006

$$$$
36
  -OEChem-05192314333D
 Structure written by MMmdl.
 53 57  0     0  0  0  0  0  0999 V2000
   -6.3988   12.3548  -12.0167 C   0  0  0  0  0  0  0  0  0  0  0  0
   -6.5634   11.7828  -10.7362 C   0  0  0  0  0  0  0  0  0  0  0  0
   -7.7338   10.5694  -13.0370 C   0  0  0  0  0  0  0  0  0  0  0  0
   -6.9985   11.7556  -13.1278 C   0  0  0  0  0  0  0  0  0  0  0  0
   -7.8247    9.9971  -11.7595 C   0  0  0  0  0  0  0  0  0  0  0  0
   -7.2595   10.6059  -10.6156 C   0  0  0  0  0  0  0  0  0  0  0  0
   -7.6196    9.7377   -9.5218 C   0  0  0  0  0  0  0  0  0  0  0  0
   -8.2737    8.7166   -9.9897 N   0  0  0  0  0  0  0  0  0  0  0  0
   -8.4125    8.8485  -11.3029 N   0  0  0  0  0  0  0  0  0  0  0  0
   -7.3396    9.8926   -8.0318 C   0  0  0  0  0  0  0  0  0  0  0  0
   -4.5445   13.8618  -11.3707 N   0  0  0  0  0  0  0  0  0  0  0  0
   -5.5979   13.6472  -12.1806 C   0  0  0  0  0  0  0  0  0  0  0  0
   -5.9190   14.4711  -13.0424 O   0  0  0  0  0  0  0  0  0  0  0  0
   -5.9590   10.4852   -7.7375 C   0  0  0  0  0  0  0  0  0  0  0  0
   -5.8471   11.7541   -7.1585 C   0  0  0  0  0  0  0  0  0  0  0  0
   -4.5907   12.3017   -6.9141 C   0  0  0  0  0  0  0  0  0  0  0  0
   -3.4394   11.5818   -7.2374 C   0  0  0  0  0  0  0  0  0  0  0  0
   -3.5527   10.3083   -7.8066 C   0  0  0  0  0  0  0  0  0  0  0  0
   -4.8082    9.7633   -8.0562 C   0  0  0  0  0  0  0  0  0  0  0  0
   -2.0898   12.1596   -6.9778 C   0  0  0  0  0  0  0  0  0  0  0  0
   -1.7390   13.4130   -6.4881 C   0  0  0  0  0  0  0  0  0  0  0  0
   -0.3978   13.4480   -6.4305 N   0  0  0  0  0  0  0  0  0  0  0  0
    0.1868   12.3491   -6.8198 N   0  0  0  0  0  0  0  0  0  0  0  0
   -0.8044   11.5467   -7.1770 C   0  0  0  0  0  0  0  0  0  0  0  0
    0.4420   14.5581   -5.9859 C   0  0  0  0  0  0  0  0  0  0  0  0
   -3.7035   15.0408  -11.2447 C   0  0  0  0  0  0  0  0  0  0  0  0
   -3.1688   14.3872   -9.9709 C   0  0  0  0  0  0  0  0  0  0  0  0
   -4.1668   13.2516  -10.0984 C   0  0  0  0  0  0  0  0  0  0  0  0
   -1.8336   13.9158  -10.0706 O   0  0  0  0  0  0  0  0  0  0  0  0
   -0.8619   14.9477  -10.1504 C   0  0  0  0  0  0  0  0  0  0  0  0
   -5.5563   11.6040  -10.3316 H   0  0  0  0  0  0  0  0  0  0  0  0
   -7.0812   12.5282  -10.1148 H   0  0  0  0  0  0  0  0  0  0  0  0
   -8.7560   10.7799  -13.3847 H   0  0  0  0  0  0  0  0  0  0  0  0
   -7.2645    9.8310  -13.7037 H   0  0  0  0  0  0  0  0  0  0  0  0
   -6.8899   12.2266  -14.0936 H   0  0  0  0  0  0  0  0  0  0  0  0
   -8.0434    9.6128   -7.2619 H   0  0  0  0  0  0  0  0  0  0  0  0
   -6.7368   12.3095   -6.9008 H   0  0  0  0  0  0  0  0  0  0  0  0
   -4.5068   13.2844   -6.4740 H   0  0  0  0  0  0  0  0  0  0  0  0
   -2.6633    9.7472   -8.0527 H   0  0  0  0  0  0  0  0  0  0  0  0
   -4.8922    8.7809   -8.4969 H   0  0  0  0  0  0  0  0  0  0  0  0
   -2.4158   14.2066   -6.2077 H   0  0  0  0  0  0  0  0  0  0  0  0
   -0.6640   10.5509   -7.5709 H   0  0  0  0  0  0  0  0  0  0  0  0
    1.5009   14.2685   -6.0560 H   0  0  0  0  0  0  0  0  0  0  0  0
    0.2588   15.4349   -6.6244 H   0  0  0  0  0  0  0  0  0  0  0  0
    0.1984   14.8070   -4.9425 H   0  0  0  0  0  0  0  0  0  0  0  0
   -2.9622   15.1711  -12.0469 H   0  0  0  0  0  0  0  0  0  0  0  0
   -4.2464   15.9849  -11.0903 H   0  0  0  0  0  0  0  0  0  0  0  0
   -3.3555   15.0059   -9.0807 H   0  0  0  0  0  0  0  0  0  0  0  0
   -4.9587   13.2414   -9.3350 H   0  0  0  0  0  0  0  0  0  0  0  0
   -3.7216   12.2489  -10.1783 H   0  0  0  0  0  0  0  0  0  0  0  0
    0.1412   14.5025  -10.2248 H   0  0  0  0  0  0  0  0  0  0  0  0
   -1.0556   15.5656  -11.0396 H   0  0  0  0  0  0  0  0  0  0  0  0
   -0.9185   15.5750   -9.2486 H   0  0  0  0  0  0  0  0  0  0  0  0
  1  2  1  0  0  0  0
  1  4  2  0  0  0  0
  1 12  1  0  0  0  0
  2  6  1  0  0  0  0
  3  4  1  0  0  0  0
  3  5  1  0  0  0  0
  5  6  2  0  0  0  0
  5  9  1  0  0  0  0
  6  7  1  0  0  0  0
  7  8  1  0  0  0  0
  7 10  2  3  0  0  0
  8  9  2  0  0  0  0
 10 14  1  0  0  0  0
 11 12  1  0  0  0  0
 11 26  1  0  0  0  0
 11 28  1  0  0  0  0
 12 13  2  0  0  0  0
 14 15  2  0  0  0  0
 14 19  1  0  0  0  0
 15 16  1  0  0  0  0
 16 17  2  0  0  0  0
 17 18  1  0  0  0  0
 17 20  1  0  0  0  0
 18 19  2  0  0  0  0
 20 21  2  0  0  0  0
 20 24  1  0  0  0  0
 21 22  1  0  0  0  0
 22 23  1  0  0  0  0
 22 25  1  0  0  0  0
 23 24  2  0  0  0  0
 26 27  1  0  0  0  0
 27 28  1  0  0  0  0
 27 29  1  0  0  0  0
 29 30  1  0  0  0  0
  2 31  1  0  0  0  0
  2 32  1  0  0  0  0
  3 33  1  0  0  0  0
  3 34  1  0  0  0  0
  4 35  1  0  0  0  0
 10 36  1  0  0  0  0
 15 37  1  0  0  0  0
 16 38  1  0  0  0  0
 18 39  1  0  0  0  0
 19 40  1  0  0  0  0
 21 41  1  0  0  0  0
 24 42  1  0  0  0  0
 25 43  1  0  0  0  0
 25 44  1  0  0  0  0
 25 45  1  0  0  0  0
 26 46  1  0  0  0  0
 26 47  1  0  0  0  0
 27 48  1  0  0  0  0
 28 49  1  0  0  0  0
 28 50  1  0  0  0  0
 30 51  1  0  0  0  0
 30 52  1  0  0  0  0
 30 53  1  0  0  0  0
M  END
> <Name>
36

> <IC50[uM]>
0.006

$$$$
36
  -OEChem-05192314333D
 Structure written by MMmdl.
 53 57  0     1  0  0  0  0  0999 V2000
   -6.3988   12.3548  -12.0167 C   0  0  0  0  0  0  0  0  0  0  0  0
   -6.5634   11.7828  -10.7362 C   0  0  0  0  0  0  0  0  0  0  0  0
   -7.7338   10.5694  -13.0370 C   0  0  0  0  0  0  0  0  0  0  0  0
   -6.9985   11.7556  -13.1278 C   0  0  0  0  0  0  0  0  0  0  0  0
   -7.8247    9.9971  -11.7595 C   0  0  3  0  0  0  0  0  0  0  0  0
   -7.2595   10.6059  -10.6156 C   0  0  0  0  0  0  0  0  0  0  0  0
   -7.6196    9.7377   -9.5218 C   0  0  0  0  0  0  0  0  0  0  0  0
   -8.2737    8.7166   -9.9897 N   0  0  0  0  0  0  0  0  0  0  0  0
   -8.4125    8.8485  -11.3029 N   0  0  0  0  0  0  0  0  0  0  0  0
   -7.3396    9.8926   -8.0318 C   0  0  0  0  0  0  0  0  0  0  0  0
   -4.5445   13.8618  -11.3707 N   0  0  0  0  0  0  0  0  0  0  0  0
   -5.5979   13.6472  -12.1806 C   0  0  0  0  0  0  0  0  0  0  0  0
   -5.9190   14.4711  -13.0424 O   0  0  0  0  0  0  0  0  0  0  0  0
   -5.9590   10.4852   -7.7375 C   0  0  0  0  0  0  0  0  0  0  0  0
   -5.8471   11.7541   -7.1585 C   0  0  0  0  0  0  0  0  0  0  0  0
   -4.5907   12.3017   -6.9141 C   0  0  0  0  0  0  0  0  0  0  0  0
   -3.4394   11.5818   -7.2374 C   0  0  0  0  0  0  0  0  0  0  0  0
   -3.5527   10.3083   -7.8066 C   0  0  0  0  0  0  0  0  0  0  0  0
   -4.8082    9.7633   -8.0562 C   0  0  0  0  0  0  0  0  0  0  0  0
   -2.0898   12.1596   -6.9778 C   0  0  0  0  0  0  0  0  0  0  0  0
   -1.7390   13.4130   -6.4881 C   0  0  0  0  0  0  0  0  0  0  0  0
   -0.3978   13.4480   -6.4305 N   0  0  0  0  0  0  0  0  0  0  0  0
    0.1868   12.3491   -6.8198 N   0  0  0  0  0  0  0  0  0  0  0  0
   -0.8044   11.5467   -7.1770 C   0  0  0  0  0  0  0  0  0  0  0  0
    0.4420   14.5581   -5.9859 C   0  0  0  0  0  0  0  0  0  0  0  0
   -3.7035   15.0408  -11.2447 C   0  0  0  0  0  0  0  0  0  0  0  0
   -3.1688   14.3872   -9.9709 C   0  0  0  0  0  0  0  0  0  0  0  0
   -4.1668   13.2516  -10.0984 C   0  0  0  0  0  0  0  0  0  0  0  0
   -1.8336   13.9158  -10.0706 O   0  0  0  0  0  0  0  0  0  0  0  0
   -0.8619   14.9477  -10.1504 C   0  0  0  0  0  0  0  0  0  0  0  0
   -6.1473   12.2646   -9.8638 H   0  0  0  0  0  0  0  0  0  0  0  0
   -8.2039   10.1205  -13.8995 H   0  0  0  0  0  0  0  0  0  0  0  0
   -6.8899   12.2266  -14.0936 H   0  0  0  0  0  0  0  0  0  0  0  0
   -6.8865    9.4502  -11.9350 H   0  0  0  0  0  0  0  0  0  0  0  0
   -8.1040   10.5547   -7.5991 H   0  0  0  0  0  0  0  0  0  0  0  0
   -7.4029    8.9014   -7.5590 H   0  0  0  0  0  0  0  0  0  0  0  0
   -6.7368   12.3095   -6.9008 H   0  0  0  0  0  0  0  0  0  0  0  0
   -4.5068   13.2844   -6.4740 H   0  0  0  0  0  0  0  0  0  0  0  0
   -2.6633    9.7472   -8.0527 H   0  0  0  0  0  0  0  0  0  0  0  0
   -4.8922    8.7809   -8.4969 H   0  0  0  0  0  0  0  0  0  0  0  0
   -2.4158   14.2066   -6.2077 H   0  0  0  0  0  0  0  0  0  0  0  0
   -0.6640   10.5509   -7.5709 H   0  0  0  0  0  0  0  0  0  0  0  0
    1.5009   14.2685   -6.0560 H   0  0  0  0  0  0  0  0  0  0  0  0
    0.2588   15.4349   -6.6244 H   0  0  0  0  0  0  0  0  0  0  0  0
    0.1984   14.8070   -4.9425 H   0  0  0  0  0  0  0  0  0  0  0  0
   -2.9622   15.1711  -12.0469 H   0  0  0  0  0  0  0  0  0  0  0  0
   -4.2464   15.9849  -11.0903 H   0  0  0  0  0  0  0  0  0  0  0  0
   -3.3555   15.0059   -9.0807 H   0  0  0  0  0  0  0  0  0  0  0  0
   -4.9587   13.2414   -9.3350 H   0  0  0  0  0  0  0  0  0  0  0  0
   -3.7216   12.2489  -10.1783 H   0  0  0  0  0  0  0  0  0  0  0  0
    0.1412   14.5025  -10.2248 H   0  0  0  0  0  0  0  0  0  0  0  0
   -1.0556   15.5656  -11.0396 H   0  0  0  0  0  0  0  0  0  0  0  0
   -0.9185   15.5750   -9.2486 H   0  0  0  0  0  0  0  0  0  0  0  0
  1  2  2  0  0  0  0
  1  4  1  0  0  0  0
  1 12  1  0  0  0  0
  2  6  1  0  0  0  0
  3  4  2  0  0  0  0
  3  5  1  0  0  0  0
  5  6  1  0  0  0  0
  5  9  1  0  0  0  0
  6  7  2  0  0  0  0
  7  8  1  0  0  0  0
  7 10  1  0  0  0  0
  8  9  2  0  0  0  0
 10 14  1  0  0  0  0
 11 12  1  0  0  0  0
 11 26  1  0  0  0  0
 11 28  1  0  0  0  0
 12 13  2  0  0  0  0
 14 15  2  0  0  0  0
 14 19  1  0  0  0  0
 15 16  1  0  0  0  0
 16 17  2  0  0  0  0
 17 18  1  0  0  0  0
 17 20  1  0  0  0  0
 18 19  2  0  0  0  0
 20 21  2  0  0  0  0
 20 24  1  0  0  0  0
 21 22  1  0  0  0  0
 22 23  1  0  0  0  0
 22 25  1  0  0  0  0
 23 24  2  0  0  0  0
 26 27  1  0  0  0  0
 27 28  1  0  0  0  0
 27 29  1  0  0  0  0
 29 30  1  0  0  0  0
  2 31  1  0  0  0  0
  3 32  1  0  0  0  0
  4 33  1  0  0  0  0
  5 34  1  0  0  0  0
 10 35  1  0  0  0  0
 10 36  1  0  0  0  0
 15 37  1  0  0  0  0
 16 38  1  0  0  0  0
 18 39  1  0  0  0  0
 19 40  1  0  0  0  0
 21 41  1  0  0  0  0
 24 42  1  0  0  0  0
 25 43  1  0  0  0  0
 25 44  1  0  0  0  0
 25 45  1  0  0  0  0
 26 46  1  0  0  0  0
 26 47  1  0  0  0  0
 27 48  1  0  0  0  0
 28 49  1  0  0  0  0
 28 50  1  0  0  0  0
 30 51  1  0  0  0  0
 30 52  1  0  0  0  0
 30 53  1  0  0  0  0
M  END
> <Name>
36

> <IC50[uM]>
0.006

$$$$
36
  -OEChem-05192314333D
 Structure written by MMmdl.
 53 57  0     0  0  0  0  0  0999 V2000
   -6.3988   12.3548  -12.0167 C   0  0  0  0  0  0  0  0  0  0  0  0
   -6.5634   11.7828  -10.7362 C   0  0  0  0  0  0  0  0  0  0  0  0
   -7.7338   10.5694  -13.0370 C   0  0  0  0  0  0  0  0  0  0  0  0
   -6.9985   11.7556  -13.1278 C   0  0  0  0  0  0  0  0  0  0  0  0
   -7.8247    9.9971  -11.7595 C   0  0  0  0  0  0  0  0  0  0  0  0
   -7.2595   10.6059  -10.6156 C   0  0  0  0  0  0  0  0  0  0  0  0
   -7.6196    9.7377   -9.5218 C   0  0  0  0  0  0  0  0  0  0  0  0
   -8.2737    8.7166   -9.9897 N   0  0  0  0  0  0  0  0  0  0  0  0
   -8.4125    8.8485  -11.3029 N   0  0  0  0  0  0  0  0  0  0  0  0
   -7.3396    9.8926   -8.0318 C   0  0  0  0  0  0  0  0  0  0  0  0
   -4.5445   13.8618  -11.3707 N   0  0  0  0  0  0  0  0  0  0  0  0
   -5.5979   13.6472  -12.1806 C   0  0  0  0  0  0  0  0  0  0  0  0
   -5.9190   14.4711  -13.0424 O   0  0  0  0  0  0  0  0  0  0  0  0
   -5.9590   10.4852   -7.7375 C   0  0  0  0  0  0  0  0  0  0  0  0
   -5.8471   11.7541   -7.1585 C   0  0  0  0  0  0  0  0  0  0  0  0
   -4.5907   12.3017   -6.9141 C   0  0  0  0  0  0  0  0  0  0  0  0
   -3.4394   11.5818   -7.2374 C   0  0  0  0  0  0  0  0  0  0  0  0
   -3.5527   10.3083   -7.8066 C   0  0  0  0  0  0  0  0  0  0  0  0
   -4.8082    9.7633   -8.0562 C   0  0  0  0  0  0  0  0  0  0  0  0
   -2.0898   12.1596   -6.9778 C   0  0  0  0  0  0  0  0  0  0  0  0
   -1.7390   13.4130   -6.4881 C   0  0  0  0  0  0  0  0  0  0  0  0
   -0.3978   13.4480   -6.4305 N   0  0  0  0  0  0  0  0  0  0  0  0
    0.1868   12.3491   -6.8198 N   0  0  0  0  0  0  0  0  0  0  0  0
   -0.8044   11.5467   -7.1770 C   0  0  0  0  0  0  0  0  0  0  0  0
    0.4420   14.5581   -5.9859 C   0  0  0  0  0  0  0  0  0  0  0  0
   -3.7035   15.0408  -11.2447 C   0  0  0  0  0  0  0  0  0  0  0  0
   -3.1688   14.3872   -9.9709 C   0  0  0  0  0  0  0  0  0  0  0  0
   -4.1668   13.2516  -10.0984 C   0  0  0  0  0  0  0  0  0  0  0  0
   -1.8336   13.9158  -10.0706 O   0  0  0  0  0  0  0  0  0  0  0  0
   -0.8619   14.9477  -10.1504 C   0  0  0  0  0  0  0  0  0  0  0  0
   -6.1473   12.2646   -9.8638 H   0  0  0  0  0  0  0  0  0  0  0  0
   -8.2039   10.1205  -13.8995 H   0  0  0  0  0  0  0  0  0  0  0  0
   -7.6826   12.5075  -13.5482 H   0  0  0  0  0  0  0  0  0  0  0  0
   -6.1868   11.5577  -13.8433 H   0  0  0  0  0  0  0  0  0  0  0  0
   -8.1040   10.5547   -7.5991 H   0  0  0  0  0  0  0  0  0  0  0  0
   -7.4029    8.9014   -7.5590 H   0  0  0  0  0  0  0  0  0  0  0  0
   -6.7368   12.3095   -6.9008 H   0  0  0  0  0  0  0  0  0  0  0  0
   -4.5068   13.2844   -6.4740 H   0  0  0  0  0  0  0  0  0  0  0  0
   -2.6633    9.7472   -8.0527 H   0  0  0  0  0  0  0  0  0  0  0  0
   -4.8922    8.7809   -8.4969 H   0  0  0  0  0  0  0  0  0  0  0  0
   -2.4158   14.2066   -6.2077 H   0  0  0  0  0  0  0  0  0  0  0  0
   -0.6640   10.5509   -7.5709 H   0  0  0  0  0  0  0  0  0  0  0  0
    1.5009   14.2685   -6.0560 H   0  0  0  0  0  0  0  0  0  0  0  0
    0.2588   15.4349   -6.6244 H   0  0  0  0  0  0  0  0  0  0  0  0
    0.1984   14.8070   -4.9425 H   0  0  0  0  0  0  0  0  0  0  0  0
   -2.9622   15.1711  -12.0469 H   0  0  0  0  0  0  0  0  0  0  0  0
   -4.2464   15.9849  -11.0903 H   0  0  0  0  0  0  0  0  0  0  0  0
   -3.3555   15.0059   -9.0807 H   0  0  0  0  0  0  0  0  0  0  0  0
   -4.9587   13.2414   -9.3350 H   0  0  0  0  0  0  0  0  0  0  0  0
   -3.7216   12.2489  -10.1783 H   0  0  0  0  0  0  0  0  0  0  0  0
    0.1412   14.5025  -10.2248 H   0  0  0  0  0  0  0  0  0  0  0  0
   -1.0556   15.5656  -11.0396 H   0  0  0  0  0  0  0  0  0  0  0  0
   -0.9185   15.5750   -9.2486 H   0  0  0  0  0  0  0  0  0  0  0  0
  1  2  2  0  0  0  0
  1  4  1  0  0  0  0
  1 12  1  0  0  0  0
  2  6  1  0  0  0  0
  3  4  1  0  0  0  0
  3  5  2  0  0  0  0
  5  6  1  0  0  0  0
  5  9  1  0  0  0  0
  6  7  2  0  0  0  0
  7  8  1  0  0  0  0
  7 10  1  0  0  0  0
  8  9  2  0  0  0  0
 10 14  1  0  0  0  0
 11 12  1  0  0  0  0
 11 26  1  0  0  0  0
 11 28  1  0  0  0  0
 12 13  2  0  0  0  0
 14 15  2  0  0  0  0
 14 19  1  0  0  0  0
 15 16  1  0  0  0  0
 16 17  2  0  0  0  0
 17 18  1  0  0  0  0
 17 20  1  0  0  0  0
 18 19  2  0  0  0  0
 20 21  2  0  0  0  0
 20 24  1  0  0  0  0
 21 22  1  0  0  0  0
 22 23  1  0  0  0  0
 22 25  1  0  0  0  0
 23 24  2  0  0  0  0
 26 27  1  0  0  0  0
 27 28  1  0  0  0  0
 27 29  1  0  0  0  0
 29 30  1  0  0  0  0
  2 31  1  0  0  0  0
  3 32  1  0  0  0  0
  4 33  1  0  0  0  0
  4 34  1  0  0  0  0
 10 35  1  0  0  0  0
 10 36  1  0  0  0  0
 15 37  1  0  0  0  0
 16 38  1  0  0  0  0
 18 39  1  0  0  0  0
 19 40  1  0  0  0  0
 21 41  1  0  0  0  0
 24 42  1  0  0  0  0
 25 43  1  0  0  0  0
 25 44  1  0  0  0  0
 25 45  1  0  0  0  0
 26 46  1  0  0  0  0
 26 47  1  0  0  0  0
 27 48  1  0  0  0  0
 28 49  1  0  0  0  0
 28 50  1  0  0  0  0
 30 51  1  0  0  0  0
 30 52  1  0  0  0  0
 30 53  1  0  0  0  0
M  END
> <Name>
36

> <IC50[uM]>
0.006

$$$$
36
  -OEChem-05192314333D
 Structure written by MMmdl.
 53 57  0     0  0  0  0  0  0999 V2000
   -6.3988   12.3548  -12.0167 C   0  0  0  0  0  0  0  0  0  0  0  0
   -6.5634   11.7828  -10.7362 C   0  0  0  0  0  0  0  0  0  0  0  0
   -7.7338   10.5694  -13.0370 C   0  0  0  0  0  0  0  0  0  0  0  0
   -6.9985   11.7556  -13.1278 C   0  0  0  0  0  0  0  0  0  0  0  0
   -7.8247    9.9971  -11.7595 C   0  0  0  0  0  0  0  0  0  0  0  0
   -7.2595   10.6059  -10.6156 C   0  0  0  0  0  0  0  0  0  0  0  0
   -7.6196    9.7377   -9.5218 C   0  0  0  0  0  0  0  0  0  0  0  0
   -8.2737    8.7166   -9.9897 N   0  0  0  0  0  0  0  0  0  0  0  0
   -8.4125    8.8485  -11.3029 N   0  0  0  0  0  0  0  0  0  0  0  0
   -7.3396    9.8926   -8.0318 C   0  0  0  0  0  0  0  0  0  0  0  0
   -4.5445   13.8618  -11.3707 N   0  0  0  0  0  0  0  0  0  0  0  0
   -5.5979   13.6472  -12.1806 C   0  0  0  0  0  0  0  0  0  0  0  0
   -5.9190   14.4711  -13.0424 O   0  0  0  0  0  0  0  0  0  0  0  0
   -5.9590   10.4852   -7.7375 C   0  0  0  0  0  0  0  0  0  0  0  0
   -5.8471   11.7541   -7.1585 C   0  0  0  0  0  0  0  0  0  0  0  0
   -4.5907   12.3017   -6.9141 C   0  0  0  0  0  0  0  0  0  0  0  0
   -3.4394   11.5818   -7.2374 C   0  0  0  0  0  0  0  0  0  0  0  0
   -3.5527   10.3083   -7.8066 C   0  0  0  0  0  0  0  0  0  0  0  0
   -4.8082    9.7633   -8.0562 C   0  0  0  0  0  0  0  0  0  0  0  0
   -2.0898   12.1596   -6.9778 C   0  0  0  0  0  0  0  0  0  0  0  0
   -1.7390   13.4130   -6.4881 C   0  0  0  0  0  0  0  0  0  0  0  0
   -0.3978   13.4480   -6.4305 N   0  0  0  0  0  0  0  0  0  0  0  0
    0.1868   12.3491   -6.8198 N   0  0  0  0  0  0  0  0  0  0  0  0
   -0.8044   11.5467   -7.1770 C   0  0  0  0  0  0  0  0  0  0  0  0
    0.4420   14.5581   -5.9859 C   0  0  0  0  0  0  0  0  0  0  0  0
   -3.7035   15.0408  -11.2447 C   0  0  0  0  0  0  0  0  0  0  0  0
   -3.1688   14.3872   -9.9709 C   0  0  0  0  0  0  0  0  0  0  0  0
   -4.1668   13.2516  -10.0984 C   0  0  0  0  0  0  0  0  0  0  0  0
   -1.8336   13.9158  -10.0706 O   0  0  0  0  0  0  0  0  0  0  0  0
   -0.8619   14.9477  -10.1504 C   0  0  0  0  0  0  0  0  0  0  0  0
   -5.5563   11.6040  -10.3316 H   0  0  0  0  0  0  0  0  0  0  0  0
   -7.0812   12.5282  -10.1148 H   0  0  0  0  0  0  0  0  0  0  0  0
   -8.2039   10.1205  -13.8995 H   0  0  0  0  0  0  0  0  0  0  0  0
   -6.8899   12.2266  -14.0936 H   0  0  0  0  0  0  0  0  0  0  0  0
   -8.1040   10.5547   -7.5991 H   0  0  0  0  0  0  0  0  0  0  0  0
   -7.4029    8.9014   -7.5590 H   0  0  0  0  0  0  0  0  0  0  0  0
   -6.7368   12.3095   -6.9008 H   0  0  0  0  0  0  0  0  0  0  0  0
   -4.5068   13.2844   -6.4740 H   0  0  0  0  0  0  0  0  0  0  0  0
   -2.6633    9.7472   -8.0527 H   0  0  0  0  0  0  0  0  0  0  0  0
   -4.8922    8.7809   -8.4969 H   0  0  0  0  0  0  0  0  0  0  0  0
   -2.4158   14.2066   -6.2077 H   0  0  0  0  0  0  0  0  0  0  0  0
   -0.6640   10.5509   -7.5709 H   0  0  0  0  0  0  0  0  0  0  0  0
    1.5009   14.2685   -6.0560 H   0  0  0  0  0  0  0  0  0  0  0  0
    0.2588   15.4349   -6.6244 H   0  0  0  0  0  0  0  0  0  0  0  0
    0.1984   14.8070   -4.9425 H   0  0  0  0  0  0  0  0  0  0  0  0
   -2.9622   15.1711  -12.0469 H   0  0  0  0  0  0  0  0  0  0  0  0
   -4.2464   15.9849  -11.0903 H   0  0  0  0  0  0  0  0  0  0  0  0
   -3.3555   15.0059   -9.0807 H   0  0  0  0  0  0  0  0  0  0  0  0
   -4.9587   13.2414   -9.3350 H   0  0  0  0  0  0  0  0  0  0  0  0
   -3.7216   12.2489  -10.1783 H   0  0  0  0  0  0  0  0  0  0  0  0
    0.1412   14.5025  -10.2248 H   0  0  0  0  0  0  0  0  0  0  0  0
   -1.0556   15.5656  -11.0396 H   0  0  0  0  0  0  0  0  0  0  0  0
   -0.9185   15.5750   -9.2486 H   0  0  0  0  0  0  0  0  0  0  0  0
  1  2  1  0  0  0  0
  1  4  2  0  0  0  0
  1 12  1  0  0  0  0
  2  6  1  0  0  0  0
  3  4  1  0  0  0  0
  3  5  2  0  0  0  0
  5  6  1  0  0  0  0
  5  9  1  0  0  0  0
  6  7  2  0  0  0  0
  7  8  1  0  0  0  0
  7 10  1  0  0  0  0
  8  9  2  0  0  0  0
 10 14  1  0  0  0  0
 11 12  1  0  0  0  0
 11 26  1  0  0  0  0
 11 28  1  0  0  0  0
 12 13  2  0  0  0  0
 14 15  2  0  0  0  0
 14 19  1  0  0  0  0
 15 16  1  0  0  0  0
 16 17  2  0  0  0  0
 17 18  1  0  0  0  0
 17 20  1  0  0  0  0
 18 19  2  0  0  0  0
 20 21  2  0  0  0  0
 20 24  1  0  0  0  0
 21 22  1  0  0  0  0
 22 23  1  0  0  0  0
 22 25  1  0  0  0  0
 23 24  2  0  0  0  0
 26 27  1  0  0  0  0
 27 28  1  0  0  0  0
 27 29  1  0  0  0  0
 29 30  1  0  0  0  0
  2 31  1  0  0  0  0
  2 32  1  0  0  0  0
  3 33  1  0  0  0  0
  4 34  1  0  0  0  0
 10 35  1  0  0  0  0
 10 36  1  0  0  0  0
 15 37  1  0  0  0  0
 16 38  1  0  0  0  0
 18 39  1  0  0  0  0
 19 40  1  0  0  0  0
 21 41  1  0  0  0  0
 24 42  1  0  0  0  0
 25 43  1  0  0  0  0
 25 44  1  0  0  0  0
 25 45  1  0  0  0  0
 26 46  1  0  0  0  0
 26 47  1  0  0  0  0
 27 48  1  0  0  0  0
 28 49  1  0  0  0  0
 28 50  1  0  0  0  0
 30 51  1  0  0  0  0
 30 52  1  0  0  0  0
 30 53  1  0  0  0  0
M  END
> <Name>
36

> <IC50[uM]>
0.006

$$$$
36
  -OEChem-05192314333D
 Structure written by MMmdl.
 53 57  0     1  0  0  0  0  0999 V2000
   -6.3988   12.3548  -12.0167 C   0  0  0  0  0  0  0  0  0  0  0  0
   -6.5634   11.7828  -10.7362 C   0  0  0  0  0  0  0  0  0  0  0  0
   -7.7338   10.5694  -13.0370 C   0  0  0  0  0  0  0  0  0  0  0  0
   -6.9985   11.7556  -13.1278 C   0  0  0  0  0  0  0  0  0  0  0  0
   -7.8247    9.9971  -11.7595 C   0  0  0  0  0  0  0  0  0  0  0  0
   -7.2595   10.6059  -10.6156 C   0  0  3  0  0  0  0  0  0  0  0  0
   -7.6196    9.7377   -9.5218 C   0  0  0  0  0  0  0  0  0  0  0  0
   -8.2737    8.7166   -9.9897 N   0  0  0  0  0  0  0  0  0  0  0  0
   -8.4125    8.8485  -11.3029 N   0  0  0  0  0  0  0  0  0  0  0  0
   -7.3396    9.8926   -8.0318 C   0  0  0  0  0  0  0  0  0  0  0  0
   -4.5445   13.8618  -11.3707 N   0  0  0  0  0  0  0  0  0  0  0  0
   -5.5979   13.6472  -12.1806 C   0  0  0  0  0  0  0  0  0  0  0  0
   -5.9190   14.4711  -13.0424 O   0  0  0  0  0  0  0  0  0  0  0  0
   -5.9590   10.4852   -7.7375 C   0  0  0  0  0  0  0  0  0  0  0  0
   -5.8471   11.7541   -7.1585 C   0  0  0  0  0  0  0  0  0  0  0  0
   -4.5907   12.3017   -6.9141 C   0  0  0  0  0  0  0  0  0  0  0  0
   -3.4394   11.5818   -7.2374 C   0  0  0  0  0  0  0  0  0  0  0  0
   -3.5527   10.3083   -7.8066 C   0  0  0  0  0  0  0  0  0  0  0  0
   -4.8082    9.7633   -8.0562 C   0  0  0  0  0  0  0  0  0  0  0  0
   -2.0898   12.1596   -6.9778 C   0  0  0  0  0  0  0  0  0  0  0  0
   -1.7390   13.4130   -6.4881 C   0  0  0  0  0  0  0  0  0  0  0  0
   -0.3978   13.4480   -6.4305 N   0  0  0  0  0  0  0  0  0  0  0  0
    0.1868   12.3491   -6.8198 N   0  0  0  0  0  0  0  0  0  0  0  0
   -0.8044   11.5467   -7.1770 C   0  0  0  0  0  0  0  0  0  0  0  0
    0.4420   14.5581   -5.9859 C   0  0  0  0  0  0  0  0  0  0  0  0
   -3.7035   15.0408  -11.2447 C   0  0  0  0  0  0  0  0  0  0  0  0
   -3.1688   14.3872   -9.9709 C   0  0  0  0  0  0  0  0  0  0  0  0
   -4.1668   13.2516  -10.0984 C   0  0  0  0  0  0  0  0  0  0  0  0
   -1.8336   13.9158  -10.0706 O   0  0  0  0  0  0  0  0  0  0  0  0
   -0.8619   14.9477  -10.1504 C   0  0  0  0  0  0  0  0  0  0  0  0
   -6.1473   12.2646   -9.8638 H   0  0  0  0  0  0  0  0  0  0  0  0
   -8.2039   10.1205  -13.8995 H   0  0  0  0  0  0  0  0  0  0  0  0
   -6.8899   12.2266  -14.0936 H   0  0  0  0  0  0  0  0  0  0  0  0
   -6.3306   10.0364  -10.7668 H   0  0  0  0  0  0  0  0  0  0  0  0
   -8.6183    7.9516   -9.4455 H   0  0  0  0  0  0  0  0  0  0  0  0
   -8.0434    9.6128   -7.2619 H   0  0  0  0  0  0  0  0  0  0  0  0
   -6.7368   12.3095   -6.9008 H   0  0  0  0  0  0  0  0  0  0  0  0
   -4.5068   13.2844   -6.4740 H   0  0  0  0  0  0  0  0  0  0  0  0
   -2.6633    9.7472   -8.0527 H   0  0  0  0  0  0  0  0  0  0  0  0
   -4.8922    8.7809   -8.4969 H   0  0  0  0  0  0  0  0  0  0  0  0
   -2.4158   14.2066   -6.2077 H   0  0  0  0  0  0  0  0  0  0  0  0
   -0.6640   10.5509   -7.5709 H   0  0  0  0  0  0  0  0  0  0  0  0
    1.5009   14.2685   -6.0560 H   0  0  0  0  0  0  0  0  0  0  0  0
    0.2588   15.4349   -6.6244 H   0  0  0  0  0  0  0  0  0  0  0  0
    0.1984   14.8070   -4.9425 H   0  0  0  0  0  0  0  0  0  0  0  0
   -2.9622   15.1711  -12.0469 H   0  0  0  0  0  0  0  0  0  0  0  0
   -4.2464   15.9849  -11.0903 H   0  0  0  0  0  0  0  0  0  0  0  0
   -3.3555   15.0059   -9.0807 H   0  0  0  0  0  0  0  0  0  0  0  0
   -4.9587   13.2414   -9.3350 H   0  0  0  0  0  0  0  0  0  0  0  0
   -3.7216   12.2489  -10.1783 H   0  0  0  0  0  0  0  0  0  0  0  0
    0.1412   14.5025  -10.2248 H   0  0  0  0  0  0  0  0  0  0  0  0
   -1.0556   15.5656  -11.0396 H   0  0  0  0  0  0  0  0  0  0  0  0
   -0.9185   15.5750   -9.2486 H   0  0  0  0  0  0  0  0  0  0  0  0
  1  2  2  0  0  0  0
  1  4  1  0  0  0  0
  1 12  1  0  0  0  0
  2  6  1  0  0  0  0
  3  4  2  0  0  0  0
  3  5  1  0  0  0  0
  5  6  1  0  0  0  0
  5  9  2  0  0  0  0
  6  7  1  0  0  0  0
  7  8  1  0  0  0  0
  7 10  2  3  0  0  0
  8  9  1  0  0  0  0
 10 14  1  0  0  0  0
 11 12  1  0  0  0  0
 11 26  1  0  0  0  0
 11 28  1  0  0  0  0
 12 13  2  0  0  0  0
 14 15  2  0  0  0  0
 14 19  1  0  0  0  0
 15 16  1  0  0  0  0
 16 17  2  0  0  0  0
 17 18  1  0  0  0  0
 17 20  1  0  0  0  0
 18 19  2  0  0  0  0
 20 21  2  0  0  0  0
 20 24  1  0  0  0  0
 21 22  1  0  0  0  0
 22 23  1  0  0  0  0
 22 25  1  0  0  0  0
 23 24  2  0  0  0  0
 26 27  1  0  0  0  0
 27 28  1  0  0  0  0
 27 29  1  0  0  0  0
 29 30  1  0  0  0  0
  2 31  1  0  0  0  0
  3 32  1  0  0  0  0
  4 33  1  0  0  0  0
  6 34  1  0  0  0  0
  8 35  1  0  0  0  0
 10 36  1  0  0  0  0
 15 37  1  0  0  0  0
 16 38  1  0  0  0  0
 18 39  1  0  0  0  0
 19 40  1  0  0  0  0
 21 41  1  0  0  0  0
 24 42  1  0  0  0  0
 25 43  1  0  0  0  0
 25 44  1  0  0  0  0
 25 45  1  0  0  0  0
 26 46  1  0  0  0  0
 26 47  1  0  0  0  0
 27 48  1  0  0  0  0
 28 49  1  0  0  0  0
 28 50  1  0  0  0  0
 30 51  1  0  0  0  0
 30 52  1  0  0  0  0
 30 53  1  0  0  0  0
M  END
> <Name>
36

> <IC50[uM]>
0.006

$$$$
36
  -OEChem-05192314333D
 Structure written by MMmdl.
 53 57  0     1  0  0  0  0  0999 V2000
   -6.3988   12.3548  -12.0167 C   0  0  0  0  0  0  0  0  0  0  0  0
   -6.5634   11.7828  -10.7362 C   0  0  0  0  0  0  0  0  0  0  0  0
   -7.7338   10.5694  -13.0370 C   0  0  0  0  0  0  0  0  0  0  0  0
   -6.9985   11.7556  -13.1278 C   0  0  0  0  0  0  0  0  0  0  0  0
   -7.8247    9.9971  -11.7595 C   0  0  0  0  0  0  0  0  0  0  0  0
   -7.2595   10.6059  -10.6156 C   0  0  0  0  0  0  0  0  0  0  0  0
   -7.6196    9.7377   -9.5218 C   0  0  0  0  0  0  0  0  0  0  0  0
   -8.2737    8.7166   -9.9897 N   0  0  0  0  0  0  0  0  0  0  0  0
   -8.4125    8.8485  -11.3029 N   0  0  0  0  0  0  0  0  0  0  0  0
   -7.3396    9.8926   -8.0318 C   0  0  0  0  0  0  0  0  0  0  0  0
   -4.5445   13.8618  -11.3707 N   0  0  0  0  0  0  0  0  0  0  0  0
   -5.5979   13.6472  -12.1806 C   0  0  0  0  0  0  0  0  0  0  0  0
   -5.9190   14.4711  -13.0424 O   0  0  0  0  0  0  0  0  0  0  0  0
   -5.9590   10.4852   -7.7375 C   0  0  0  0  0  0  0  0  0  0  0  0
   -5.8471   11.7541   -7.1585 C   0  0  0  0  0  0  0  0  0  0  0  0
   -4.5907   12.3017   -6.9141 C   0  0  0  0  0  0  0  0  0  0  0  0
   -3.4394   11.5818   -7.2374 C   0  0  0  0  0  0  0  0  0  0  0  0
   -3.5527   10.3083   -7.8066 C   0  0  0  0  0  0  0  0  0  0  0  0
   -4.8082    9.7633   -8.0562 C   0  0  0  0  0  0  0  0  0  0  0  0
   -2.0898   12.1596   -6.9778 C   0  0  0  0  0  0  0  0  0  0  0  0
   -1.7390   13.4130   -6.4881 C   0  0  0  0  0  0  0  0  0  0  0  0
   -0.3978   13.4480   -6.4305 N   0  0  3  0  0  0  0  0  0  0  0  0
    0.1868   12.3491   -6.8198 N   0  0  0  0  0  0  0  0  0  0  0  0
   -0.8044   11.5467   -7.1770 C   0  0  0  0  0  0  0  0  0  0  0  0
    0.4420   14.5581   -5.9859 C   0  0  0  0  0  0  0  0  0  0  0  0
   -3.7035   15.0408  -11.2447 C   0  0  0  0  0  0  0  0  0  0  0  0
   -3.1688   14.3872   -9.9709 C   0  0  0  0  0  0  0  0  0  0  0  0
   -4.1668   13.2516  -10.0984 C   0  0  0  0  0  0  0  0  0  0  0  0
   -1.8336   13.9158  -10.0706 O   0  0  0  0  0  0  0  0  0  0  0  0
   -0.8619   14.9477  -10.1504 C   0  0  0  0  0  0  0  0  0  0  0  0
   -6.1473   12.2646   -9.8638 H   0  0  0  0  0  0  0  0  0  0  0  0
   -8.2039   10.1205  -13.8995 H   0  0  0  0  0  0  0  0  0  0  0  0
   -6.8899   12.2266  -14.0936 H   0  0  0  0  0  0  0  0  0  0  0  0
   -8.0434    9.6128   -7.2619 H   0  0  0  0  0  0  0  0  0  0  0  0
   -5.9728   10.0271   -6.7375 H   0  0  0  0  0  0  0  0  0  0  0  0
   -6.7368   12.3095   -6.9008 H   0  0  0  0  0  0  0  0  0  0  0  0
   -4.5068   13.2844   -6.4740 H   0  0  0  0  0  0  0  0  0  0  0  0
   -2.6633    9.7472   -8.0527 H   0  0  0  0  0  0  0  0  0  0  0  0
   -4.8922    8.7809   -8.4969 H   0  0  0  0  0  0  0  0  0  0  0  0
   -2.1093   14.1996   -7.1620 H   0  0  0  0  0  0  0  0  0  0  0  0
   -2.1647   13.5597   -5.4845 H   0  0  0  0  0  0  0  0  0  0  0  0
   -0.6640   10.5509   -7.5709 H   0  0  0  0  0  0  0  0  0  0  0  0
    1.5009   14.2685   -6.0560 H   0  0  0  0  0  0  0  0  0  0  0  0
    0.2588   15.4349   -6.6244 H   0  0  0  0  0  0  0  0  0  0  0  0
    0.1984   14.8070   -4.9425 H   0  0  0  0  0  0  0  0  0  0  0  0
   -2.9622   15.1711  -12.0469 H   0  0  0  0  0  0  0  0  0  0  0  0
   -4.2464   15.9849  -11.0903 H   0  0  0  0  0  0  0  0  0  0  0  0
   -3.3555   15.0059   -9.0807 H   0  0  0  0  0  0  0  0  0  0  0  0
   -4.9587   13.2414   -9.3350 H   0  0  0  0  0  0  0  0  0  0  0  0
   -3.7216   12.2489  -10.1783 H   0  0  0  0  0  0  0  0  0  0  0  0
    0.1412   14.5025  -10.2248 H   0  0  0  0  0  0  0  0  0  0  0  0
   -1.0556   15.5656  -11.0396 H   0  0  0  0  0  0  0  0  0  0  0  0
   -0.9185   15.5750   -9.2486 H   0  0  0  0  0  0  0  0  0  0  0  0
  1  2  2  0  0  0  0
  1  4  1  0  0  0  0
  1 12  1  0  0  0  0
  2  6  1  0  0  0  0
  3  4  2  0  0  0  0
  3  5  1  0  0  0  0
  5  6  2  0  0  0  0
  5  9  1  0  0  0  0
  6  7  1  0  0  0  0
  7  8  1  0  0  0  0
  7 10  2  3  0  0  0
  8  9  2  0  0  0  0
 10 14  1  0  0  0  0
 11 12  1  0  0  0  0
 11 26  1  0  0  0  0
 11 28  1  0  0  0  0
 12 13  2  0  0  0  0
 14 15  1  0  0  0  0
 14 19  1  0  0  0  0
 15 16  2  0  0  0  0
 16 17  1  0  0  0  0
 17 18  1  0  0  0  0
 17 20  2  0  0  0  0
 18 19  2  0  0  0  0
 20 21  1  0  0  0  0
 20 24  1  0  0  0  0
 21 22  1  0  0  0  0
 22 23  1  0  0  0  0
 22 25  1  0  0  0  0
 23 24  2  0  0  0  0
 26 27  1  0  0  0  0
 27 28  1  0  0  0  0
 27 29  1  0  0  0  0
 29 30  1  0  0  0  0
  2 31  1  0  0  0  0
  3 32  1  0  0  0  0
  4 33  1  0  0  0  0
 10 34  1  0  0  0  0
 14 35  1  0  0  0  0
 15 36  1  0  0  0  0
 16 37  1  0  0  0  0
 18 38  1  0  0  0  0
 19 39  1  0  0  0  0
 21 40  1  0  0  0  0
 21 41  1  0  0  0  0
 24 42  1  0  0  0  0
 25 43  1  0  0  0  0
 25 44  1  0  0  0  0
 25 45  1  0  0  0  0
 26 46  1  0  0  0  0
 26 47  1  0  0  0  0
 27 48  1  0  0  0  0
 28 49  1  0  0  0  0
 28 50  1  0  0  0  0
 30 51  1  0  0  0  0
 30 52  1  0  0  0  0
 30 53  1  0  0  0  0
M  END
> <Name>
36

> <IC50[uM]>
0.006

$$$$
36
  -OEChem-05192314333D
 Structure written by MMmdl.
 53 57  0     1  0  0  0  0  0999 V2000
   -6.3988   12.3548  -12.0167 C   0  0  0  0  0  0  0  0  0  0  0  0
   -6.5634   11.7828  -10.7362 C   0  0  0  0  0  0  0  0  0  0  0  0
   -7.7338   10.5694  -13.0370 C   0  0  0  0  0  0  0  0  0  0  0  0
   -6.9985   11.7556  -13.1278 C   0  0  0  0  0  0  0  0  0  0  0  0
   -7.8247    9.9971  -11.7595 C   0  0  0  0  0  0  0  0  0  0  0  0
   -7.2595   10.6059  -10.6156 C   0  0  0  0  0  0  0  0  0  0  0  0
   -7.6196    9.7377   -9.5218 C   0  0  0  0  0  0  0  0  0  0  0  0
   -8.2737    8.7166   -9.9897 N   0  0  0  0  0  0  0  0  0  0  0  0
   -8.4125    8.8485  -11.3029 N   0  0  0  0  0  0  0  0  0  0  0  0
   -7.3396    9.8926   -8.0318 C   0  0  0  0  0  0  0  0  0  0  0  0
   -4.5445   13.8618  -11.3707 N   0  0  0  0  0  0  0  0  0  0  0  0
   -5.5979   13.6472  -12.1806 C   0  0  0  0  0  0  0  0  0  0  0  0
   -5.9190   14.4711  -13.0424 O   0  0  0  0  0  0  0  0  0  0  0  0
   -5.9590   10.4852   -7.7375 C   0  0  0  0  0  0  0  0  0  0  0  0
   -5.8471   11.7541   -7.1585 C   0  0  0  0  0  0  0  0  0  0  0  0
   -4.5907   12.3017   -6.9141 C   0  0  0  0  0  0  0  0  0  0  0  0
   -3.4394   11.5818   -7.2374 C   0  0  0  0  0  0  0  0  0  0  0  0
   -3.5527   10.3083   -7.8066 C   0  0  0  0  0  0  0  0  0  0  0  0
   -4.8082    9.7633   -8.0562 C   0  0  0  0  0  0  0  0  0  0  0  0
   -2.0898   12.1596   -6.9778 C   0  0  0  0  0  0  0  0  0  0  0  0
   -1.7390   13.4130   -6.4881 C   0  0  0  0  0  0  0  0  0  0  0  0
   -0.3978   13.4480   -6.4305 N   0  0  3  0  0  0  0  0  0  0  0  0
    0.1868   12.3491   -6.8198 N   0  0  0  0  0  0  0  0  0  0  0  0
   -0.8044   11.5467   -7.1770 C   0  0  0  0  0  0  0  0  0  0  0  0
    0.4420   14.5581   -5.9859 C   0  0  0  0  0  0  0  0  0  0  0  0
   -3.7035   15.0408  -11.2447 C   0  0  0  0  0  0  0  0  0  0  0  0
   -3.1688   14.3872   -9.9709 C   0  0  0  0  0  0  0  0  0  0  0  0
   -4.1668   13.2516  -10.0984 C   0  0  0  0  0  0  0  0  0  0  0  0
   -1.8336   13.9158  -10.0706 O   0  0  0  0  0  0  0  0  0  0  0  0
   -0.8619   14.9477  -10.1504 C   0  0  0  0  0  0  0  0  0  0  0  0
   -6.1473   12.2646   -9.8638 H   0  0  0  0  0  0  0  0  0  0  0  0
   -8.2039   10.1205  -13.8995 H   0  0  0  0  0  0  0  0  0  0  0  0
   -6.8899   12.2266  -14.0936 H   0  0  0  0  0  0  0  0  0  0  0  0
   -8.0434    9.6128   -7.2619 H   0  0  0  0  0  0  0  0  0  0  0  0
   -6.7368   12.3095   -6.9008 H   0  0  0  0  0  0  0  0  0  0  0  0
   -4.5419   13.2467   -7.4750 H   0  0  0  0  0  0  0  0  0  0  0  0
   -4.5408   12.5124   -5.8356 H   0  0  0  0  0  0  0  0  0  0  0  0
   -2.6633    9.7472   -8.0527 H   0  0  0  0  0  0  0  0  0  0  0  0
   -4.8922    8.7809   -8.4969 H   0  0  0  0  0  0  0  0  0  0  0  0
   -2.1093   14.1996   -7.1620 H   0  0  0  0  0  0  0  0  0  0  0  0
   -2.1647   13.5597   -5.4845 H   0  0  0  0  0  0  0  0  0  0  0  0
   -0.6640   10.5509   -7.5709 H   0  0  0  0  0  0  0  0  0  0  0  0
    1.5009   14.2685   -6.0560 H   0  0  0  0  0  0  0  0  0  0  0  0
    0.2588   15.4349   -6.6244 H   0  0  0  0  0  0  0  0  0  0  0  0
    0.1984   14.8070   -4.9425 H   0  0  0  0  0  0  0  0  0  0  0  0
   -2.9622   15.1711  -12.0469 H   0  0  0  0  0  0  0  0  0  0  0  0
   -4.2464   15.9849  -11.0903 H   0  0  0  0  0  0  0  0  0  0  0  0
   -3.3555   15.0059   -9.0807 H   0  0  0  0  0  0  0  0  0  0  0  0
   -4.9587   13.2414   -9.3350 H   0  0  0  0  0  0  0  0  0  0  0  0
   -3.7216   12.2489  -10.1783 H   0  0  0  0  0  0  0  0  0  0  0  0
    0.1412   14.5025  -10.2248 H   0  0  0  0  0  0  0  0  0  0  0  0
   -1.0556   15.5656  -11.0396 H   0  0  0  0  0  0  0  0  0  0  0  0
   -0.9185   15.5750   -9.2486 H   0  0  0  0  0  0  0  0  0  0  0  0
  1  2  2  0  0  0  0
  1  4  1  0  0  0  0
  1 12  1  0  0  0  0
  2  6  1  0  0  0  0
  3  4  2  0  0  0  0
  3  5  1  0  0  0  0
  5  6  2  0  0  0  0
  5  9  1  0  0  0  0
  6  7  1  0  0  0  0
  7  8  1  0  0  0  0
  7 10  2  3  0  0  0
  8  9  2  0  0  0  0
 10 14  1  0  0  0  0
 11 12  1  0  0  0  0
 11 26  1  0  0  0  0
 11 28  1  0  0  0  0
 12 13  2  0  0  0  0
 14 15  2  0  0  0  0
 14 19  1  0  0  0  0
 15 16  1  0  0  0  0
 16 17  1  0  0  0  0
 17 18  1  0  0  0  0
 17 20  2  0  0  0  0
 18 19  2  0  0  0  0
 20 21  1  0  0  0  0
 20 24  1  0  0  0  0
 21 22  1  0  0  0  0
 22 23  1  0  0  0  0
 22 25  1  0  0  0  0
 23 24  2  0  0  0  0
 26 27  1  0  0  0  0
 27 28  1  0  0  0  0
 27 29  1  0  0  0  0
 29 30  1  0  0  0  0
  2 31  1  0  0  0  0
  3 32  1  0  0  0  0
  4 33  1  0  0  0  0
 10 34  1  0  0  0  0
 15 35  1  0  0  0  0
 16 36  1  0  0  0  0
 16 37  1  0  0  0  0
 18 38  1  0  0  0  0
 19 39  1  0  0  0  0
 21 40  1  0  0  0  0
 21 41  1  0  0  0  0
 24 42  1  0  0  0  0
 25 43  1  0  0  0  0
 25 44  1  0  0  0  0
 25 45  1  0  0  0  0
 26 46  1  0  0  0  0
 26 47  1  0  0  0  0
 27 48  1  0  0  0  0
 28 49  1  0  0  0  0
 28 50  1  0  0  0  0
 30 51  1  0  0  0  0
 30 52  1  0  0  0  0
 30 53  1  0  0  0  0
M  END
> <Name>
36

> <IC50[uM]>
0.006

$$$$
36
  -OEChem-05192314333D
 Structure written by MMmdl.
 53 57  0     1  0  0  0  0  0999 V2000
   -6.3988   12.3548  -12.0167 C   0  0  3  0  0  0  0  0  0  0  0  0
   -6.5634   11.7828  -10.7362 C   0  0  0  0  0  0  0  0  0  0  0  0
   -7.7338   10.5694  -13.0370 C   0  0  0  0  0  0  0  0  0  0  0  0
   -6.9985   11.7556  -13.1278 C   0  0  0  0  0  0  0  0  0  0  0  0
   -7.8247    9.9971  -11.7595 C   0  0  0  0  0  0  0  0  0  0  0  0
   -7.2595   10.6059  -10.6156 C   0  0  0  0  0  0  0  0  0  0  0  0
   -7.6196    9.7377   -9.5218 C   0  0  0  0  0  0  0  0  0  0  0  0
   -8.2737    8.7166   -9.9897 N   0  0  0  0  0  0  0  0  0  0  0  0
   -8.4125    8.8485  -11.3029 N   0  0  0  0  0  0  0  0  0  0  0  0
   -7.3396    9.8926   -8.0318 C   0  0  0  0  0  0  0  0  0  0  0  0
   -4.5445   13.8618  -11.3707 N   0  0  0  0  0  0  0  0  0  0  0  0
   -5.5979   13.6472  -12.1806 C   0  0  0  0  0  0  0  0  0  0  0  0
   -5.9190   14.4711  -13.0424 O   0  0  0  0  0  0  0  0  0  0  0  0
   -5.9590   10.4852   -7.7375 C   0  0  0  0  0  0  0  0  0  0  0  0
   -5.8471   11.7541   -7.1585 C   0  0  0  0  0  0  0  0  0  0  0  0
   -4.5907   12.3017   -6.9141 C   0  0  0  0  0  0  0  0  0  0  0  0
   -3.4394   11.5818   -7.2374 C   0  0  0  0  0  0  0  0  0  0  0  0
   -3.5527   10.3083   -7.8066 C   0  0  0  0  0  0  0  0  0  0  0  0
   -4.8082    9.7633   -8.0562 C   0  0  0  0  0  0  0  0  0  0  0  0
   -2.0898   12.1596   -6.9778 C   0  0  0  0  0  0  0  0  0  0  0  0
   -1.7390   13.4130   -6.4881 C   0  0  0  0  0  0  0  0  0  0  0  0
   -0.3978   13.4480   -6.4305 N   0  0  3  0  0  0  0  0  0  0  0  0
    0.1868   12.3491   -6.8198 N   0  0  0  0  0  0  0  0  0  0  0  0
   -0.8044   11.5467   -7.1770 C   0  0  0  0  0  0  0  0  0  0  0  0
    0.4420   14.5581   -5.9859 C   0  0  0  0  0  0  0  0  0  0  0  0
   -3.7035   15.0408  -11.2447 C   0  0  0  0  0  0  0  0  0  0  0  0
   -3.1688   14.3872   -9.9709 C   0  0  0  0  0  0  0  0  0  0  0  0
   -4.1668   13.2516  -10.0984 C   0  0  0  0  0  0  0  0  0  0  0  0
   -1.8336   13.9158  -10.0706 O   0  0  0  0  0  0  0  0  0  0  0  0
   -0.8619   14.9477  -10.1504 C   0  0  0  0  0  0  0  0  0  0  0  0
   -5.4875   11.7597  -12.1757 H   0  0  0  0  0  0  0  0  0  0  0  0
   -6.1473   12.2646   -9.8638 H   0  0  0  0  0  0  0  0  0  0  0  0
   -8.2039   10.1205  -13.8995 H   0  0  0  0  0  0  0  0  0  0  0  0
   -6.8899   12.2266  -14.0936 H   0  0  0  0  0  0  0  0  0  0  0  0
   -8.0434    9.6128   -7.2619 H   0  0  0  0  0  0  0  0  0  0  0  0
   -6.7368   12.3095   -6.9008 H   0  0  0  0  0  0  0  0  0  0  0  0
   -4.5068   13.2844   -6.4740 H   0  0  0  0  0  0  0  0  0  0  0  0
   -2.6633    9.7472   -8.0527 H   0  0  0  0  0  0  0  0  0  0  0  0
   -4.8922    8.7809   -8.4969 H   0  0  0  0  0  0  0  0  0  0  0  0
   -2.1093   14.1996   -7.1620 H   0  0  0  0  0  0  0  0  0  0  0  0
   -2.1647   13.5597   -5.4845 H   0  0  0  0  0  0  0  0  0  0  0  0
   -0.6640   10.5509   -7.5709 H   0  0  0  0  0  0  0  0  0  0  0  0
    1.5009   14.2685   -6.0560 H   0  0  0  0  0  0  0  0  0  0  0  0
    0.2588   15.4349   -6.6244 H   0  0  0  0  0  0  0  0  0  0  0  0
    0.1984   14.8070   -4.9425 H   0  0  0  0  0  0  0  0  0  0  0  0
   -2.9622   15.1711  -12.0469 H   0  0  0  0  0  0  0  0  0  0  0  0
   -4.2464   15.9849  -11.0903 H   0  0  0  0  0  0  0  0  0  0  0  0
   -3.3555   15.0059   -9.0807 H   0  0  0  0  0  0  0  0  0  0  0  0
   -4.9587   13.2414   -9.3350 H   0  0  0  0  0  0  0  0  0  0  0  0
   -3.7216   12.2489  -10.1783 H   0  0  0  0  0  0  0  0  0  0  0  0
    0.1412   14.5025  -10.2248 H   0  0  0  0  0  0  0  0  0  0  0  0
   -1.0556   15.5656  -11.0396 H   0  0  0  0  0  0  0  0  0  0  0  0
   -0.9185   15.5750   -9.2486 H   0  0  0  0  0  0  0  0  0  0  0  0
  1  2  1  0  0  0  0
  1  4  1  0  0  0  0
  1 12  1  0  0  0  0
  2  6  2  0  0  0  0
  3  4  2  0  0  0  0
  3  5  1  0  0  0  0
  5  6  1  0  0  0  0
  5  9  2  0  0  0  0
  6  7  1  0  0  0  0
  7  8  2  0  0  0  0
  7 10  1  0  0  0  0
  8  9  1  0  0  0  0
 10 14  2  0  0  0  0
 11 12  1  0  0  0  0
 11 26  1  0  0  0  0
 11 28  1  0  0  0  0
 12 13  2  0  0  0  0
 14 15  1  0  0  0  0
 14 19  1  0  0  0  0
 15 16  2  0  0  0  0
 16 17  1  0  0  0  0
 17 18  1  0  0  0  0
 17 20  2  0  0  0  0
 18 19  2  0  0  0  0
 20 21  1  0  0  0  0
 20 24  1  0  0  0  0
 21 22  1  0  0  0  0
 22 23  1  0  0  0  0
 22 25  1  0  0  0  0
 23 24  2  0  0  0  0
 26 27  1  0  0  0  0
 27 28  1  0  0  0  0
 27 29  1  0  0  0  0
 29 30  1  0  0  0  0
  1 31  1  0  0  0  0
  2 32  1  0  0  0  0
  3 33  1  0  0  0  0
  4 34  1  0  0  0  0
 10 35  1  0  0  0  0
 15 36  1  0  0  0  0
 16 37  1  0  0  0  0
 18 38  1  0  0  0  0
 19 39  1  0  0  0  0
 21 40  1  0  0  0  0
 21 41  1  0  0  0  0
 24 42  1  0  0  0  0
 25 43  1  0  0  0  0
 25 44  1  0  0  0  0
 25 45  1  0  0  0  0
 26 46  1  0  0  0  0
 26 47  1  0  0  0  0
 27 48  1  0  0  0  0
 28 49  1  0  0  0  0
 28 50  1  0  0  0  0
 30 51  1  0  0  0  0
 30 52  1  0  0  0  0
 30 53  1  0  0  0  0
M  END
> <Name>
36

> <IC50[uM]>
0.006

$$$$
36
  -OEChem-05192314333D
 Structure written by MMmdl.
 53 57  0     1  0  0  0  0  0999 V2000
   -6.3988   12.3548  -12.0167 C   0  0  0  0  0  0  0  0  0  0  0  0
   -6.5634   11.7828  -10.7362 C   0  0  0  0  0  0  0  0  0  0  0  0
   -7.7338   10.5694  -13.0370 C   0  0  0  0  0  0  0  0  0  0  0  0
   -6.9985   11.7556  -13.1278 C   0  0  0  0  0  0  0  0  0  0  0  0
   -7.8247    9.9971  -11.7595 C   0  0  0  0  0  0  0  0  0  0  0  0
   -7.2595   10.6059  -10.6156 C   0  0  3  0  0  0  0  0  0  0  0  0
   -7.6196    9.7377   -9.5218 C   0  0  0  0  0  0  0  0  0  0  0  0
   -8.2737    8.7166   -9.9897 N   0  0  0  0  0  0  0  0  0  0  0  0
   -8.4125    8.8485  -11.3029 N   0  0  0  0  0  0  0  0  0  0  0  0
   -7.3396    9.8926   -8.0318 C   0  0  0  0  0  0  0  0  0  0  0  0
   -4.5445   13.8618  -11.3707 N   0  0  0  0  0  0  0  0  0  0  0  0
   -5.5979   13.6472  -12.1806 C   0  0  0  0  0  0  0  0  0  0  0  0
   -5.9190   14.4711  -13.0424 O   0  0  0  0  0  0  0  0  0  0  0  0
   -5.9590   10.4852   -7.7375 C   0  0  0  0  0  0  0  0  0  0  0  0
   -5.8471   11.7541   -7.1585 C   0  0  0  0  0  0  0  0  0  0  0  0
   -4.5907   12.3017   -6.9141 C   0  0  0  0  0  0  0  0  0  0  0  0
   -3.4394   11.5818   -7.2374 C   0  0  0  0  0  0  0  0  0  0  0  0
   -3.5527   10.3083   -7.8066 C   0  0  0  0  0  0  0  0  0  0  0  0
   -4.8082    9.7633   -8.0562 C   0  0  0  0  0  0  0  0  0  0  0  0
   -2.0898   12.1596   -6.9778 C   0  0  0  0  0  0  0  0  0  0  0  0
   -1.7390   13.4130   -6.4881 C   0  0  0  0  0  0  0  0  0  0  0  0
   -0.3978   13.4480   -6.4305 N   0  0  3  0  0  0  0  0  0  0  0  0
    0.1868   12.3491   -6.8198 N   0  0  0  0  0  0  0  0  0  0  0  0
   -0.8044   11.5467   -7.1770 C   0  0  0  0  0  0  0  0  0  0  0  0
    0.4420   14.5581   -5.9859 C   0  0  0  0  0  0  0  0  0  0  0  0
   -3.7035   15.0408  -11.2447 C   0  0  0  0  0  0  0  0  0  0  0  0
   -3.1688   14.3872   -9.9709 C   0  0  0  0  0  0  0  0  0  0  0  0
   -4.1668   13.2516  -10.0984 C   0  0  0  0  0  0  0  0  0  0  0  0
   -1.8336   13.9158  -10.0706 O   0  0  0  0  0  0  0  0  0  0  0  0
   -0.8619   14.9477  -10.1504 C   0  0  0  0  0  0  0  0  0  0  0  0
   -6.1473   12.2646   -9.8638 H   0  0  0  0  0  0  0  0  0  0  0  0
   -8.2039   10.1205  -13.8995 H   0  0  0  0  0  0  0  0  0  0  0  0
   -6.8899   12.2266  -14.0936 H   0  0  0  0  0  0  0  0  0  0  0  0
   -6.3306   10.0364  -10.7668 H   0  0  0  0  0  0  0  0  0  0  0  0
   -8.0434    9.6128   -7.2619 H   0  0  0  0  0  0  0  0  0  0  0  0
   -6.7368   12.3095   -6.9008 H   0  0  0  0  0  0  0  0  0  0  0  0
   -4.5068   13.2844   -6.4740 H   0  0  0  0  0  0  0  0  0  0  0  0
   -2.6633    9.7472   -8.0527 H   0  0  0  0  0  0  0  0  0  0  0  0
   -4.8922    8.7809   -8.4969 H   0  0  0  0  0  0  0  0  0  0  0  0
   -2.1093   14.1996   -7.1620 H   0  0  0  0  0  0  0  0  0  0  0  0
   -2.1647   13.5597   -5.4845 H   0  0  0  0  0  0  0  0  0  0  0  0
   -0.6640   10.5509   -7.5709 H   0  0  0  0  0  0  0  0  0  0  0  0
    1.5009   14.2685   -6.0560 H   0  0  0  0  0  0  0  0  0  0  0  0
    0.2588   15.4349   -6.6244 H   0  0  0  0  0  0  0  0  0  0  0  0
    0.1984   14.8070   -4.9425 H   0  0  0  0  0  0  0  0  0  0  0  0
   -2.9622   15.1711  -12.0469 H   0  0  0  0  0  0  0  0  0  0  0  0
   -4.2464   15.9849  -11.0903 H   0  0  0  0  0  0  0  0  0  0  0  0
   -3.3555   15.0059   -9.0807 H   0  0  0  0  0  0  0  0  0  0  0  0
   -4.9587   13.2414   -9.3350 H   0  0  0  0  0  0  0  0  0  0  0  0
   -3.7216   12.2489  -10.1783 H   0  0  0  0  0  0  0  0  0  0  0  0
    0.1412   14.5025  -10.2248 H   0  0  0  0  0  0  0  0  0  0  0  0
   -1.0556   15.5656  -11.0396 H   0  0  0  0  0  0  0  0  0  0  0  0
   -0.9185   15.5750   -9.2486 H   0  0  0  0  0  0  0  0  0  0  0  0
  1  2  2  0  0  0  0
  1  4  1  0  0  0  0
  1 12  1  0  0  0  0
  2  6  1  0  0  0  0
  3  4  2  0  0  0  0
  3  5  1  0  0  0  0
  5  6  1  0  0  0  0
  5  9  2  0  0  0  0
  6  7  1  0  0  0  0
  7  8  2  0  0  0  0
  7 10  1  0  0  0  0
  8  9  1  0  0  0  0
 10 14  2  0  0  0  0
 11 12  1  0  0  0  0
 11 26  1  0  0  0  0
 11 28  1  0  0  0  0
 12 13  2  0  0  0  0
 14 15  1  0  0  0  0
 14 19  1  0  0  0  0
 15 16  2  0  0  0  0
 16 17  1  0  0  0  0
 17 18  1  0  0  0  0
 17 20  2  0  0  0  0
 18 19  2  0  0  0  0
 20 21  1  0  0  0  0
 20 24  1  0  0  0  0
 21 22  1  0  0  0  0
 22 23  1  0  0  0  0
 22 25  1  0  0  0  0
 23 24  2  0  0  0  0
 26 27  1  0  0  0  0
 27 28  1  0  0  0  0
 27 29  1  0  0  0  0
 29 30  1  0  0  0  0
  2 31  1  0  0  0  0
  3 32  1  0  0  0  0
  4 33  1  0  0  0  0
  6 34  1  0  0  0  0
 10 35  1  0  0  0  0
 15 36  1  0  0  0  0
 16 37  1  0  0  0  0
 18 38  1  0  0  0  0
 19 39  1  0  0  0  0
 21 40  1  0  0  0  0
 21 41  1  0  0  0  0
 24 42  1  0  0  0  0
 25 43  1  0  0  0  0
 25 44  1  0  0  0  0
 25 45  1  0  0  0  0
 26 46  1  0  0  0  0
 26 47  1  0  0  0  0
 27 48  1  0  0  0  0
 28 49  1  0  0  0  0
 28 50  1  0  0  0  0
 30 51  1  0  0  0  0
 30 52  1  0  0  0  0
 30 53  1  0  0  0  0
M  END
> <Name>
36

> <IC50[uM]>
0.006

$$$$
36
  -OEChem-05192314333D
 Structure written by MMmdl.
 53 57  0     1  0  0  0  0  0999 V2000
   -6.3988   12.3548  -12.0167 C   0  0  0  0  0  0  0  0  0  0  0  0
   -6.5634   11.7828  -10.7362 C   0  0  0  0  0  0  0  0  0  0  0  0
   -7.7338   10.5694  -13.0370 C   0  0  0  0  0  0  0  0  0  0  0  0
   -6.9985   11.7556  -13.1278 C   0  0  0  0  0  0  0  0  0  0  0  0
   -7.8247    9.9971  -11.7595 C   0  0  0  0  0  0  0  0  0  0  0  0
   -7.2595   10.6059  -10.6156 C   0  0  0  0  0  0  0  0  0  0  0  0
   -7.6196    9.7377   -9.5218 C   0  0  0  0  0  0  0  0  0  0  0  0
   -8.2737    8.7166   -9.9897 N   0  0  0  0  0  0  0  0  0  0  0  0
   -8.4125    8.8485  -11.3029 N   0  0  0  0  0  0  0  0  0  0  0  0
   -7.3396    9.8926   -8.0318 C   0  0  0  0  0  0  0  0  0  0  0  0
   -4.5445   13.8618  -11.3707 N   0  0  0  0  0  0  0  0  0  0  0  0
   -5.5979   13.6472  -12.1806 C   0  0  0  0  0  0  0  0  0  0  0  0
   -5.9190   14.4711  -13.0424 O   0  0  0  0  0  0  0  0  0  0  0  0
   -5.9590   10.4852   -7.7375 C   0  0  0  0  0  0  0  0  0  0  0  0
   -5.8471   11.7541   -7.1585 C   0  0  0  0  0  0  0  0  0  0  0  0
   -4.5907   12.3017   -6.9141 C   0  0  0  0  0  0  0  0  0  0  0  0
   -3.4394   11.5818   -7.2374 C   0  0  0  0  0  0  0  0  0  0  0  0
   -3.5527   10.3083   -7.8066 C   0  0  0  0  0  0  0  0  0  0  0  0
   -4.8082    9.7633   -8.0562 C   0  0  0  0  0  0  0  0  0  0  0  0
   -2.0898   12.1596   -6.9778 C   0  0  0  0  0  0  0  0  0  0  0  0
   -1.7390   13.4130   -6.4881 C   0  0  0  0  0  0  0  0  0  0  0  0
   -0.3978   13.4480   -6.4305 N   0  0  3  0  0  0  0  0  0  0  0  0
    0.1868   12.3491   -6.8198 N   0  0  0  0  0  0  0  0  0  0  0  0
   -0.8044   11.5467   -7.1770 C   0  0  0  0  0  0  0  0  0  0  0  0
    0.4420   14.5581   -5.9859 C   0  0  0  0  0  0  0  0  0  0  0  0
   -3.7035   15.0408  -11.2447 C   0  0  0  0  0  0  0  0  0  0  0  0
   -3.1688   14.3872   -9.9709 C   0  0  0  0  0  0  0  0  0  0  0  0
   -4.1668   13.2516  -10.0984 C   0  0  0  0  0  0  0  0  0  0  0  0
   -1.8336   13.9158  -10.0706 O   0  0  0  0  0  0  0  0  0  0  0  0
   -0.8619   14.9477  -10.1504 C   0  0  0  0  0  0  0  0  0  0  0  0
   -6.1473   12.2646   -9.8638 H   0  0  0  0  0  0  0  0  0  0  0  0
   -8.7560   10.7799  -13.3847 H   0  0  0  0  0  0  0  0  0  0  0  0
   -7.2645    9.8310  -13.7037 H   0  0  0  0  0  0  0  0  0  0  0  0
   -6.8899   12.2266  -14.0936 H   0  0  0  0  0  0  0  0  0  0  0  0
   -8.0434    9.6128   -7.2619 H   0  0  0  0  0  0  0  0  0  0  0  0
   -6.7368   12.3095   -6.9008 H   0  0  0  0  0  0  0  0  0  0  0  0
   -4.5068   13.2844   -6.4740 H   0  0  0  0  0  0  0  0  0  0  0  0
   -2.6633    9.7472   -8.0527 H   0  0  0  0  0  0  0  0  0  0  0  0
   -4.8922    8.7809   -8.4969 H   0  0  0  0  0  0  0  0  0  0  0  0
   -2.1093   14.1996   -7.1620 H   0  0  0  0  0  0  0  0  0  0  0  0
   -2.1647   13.5597   -5.4845 H   0  0  0  0  0  0  0  0  0  0  0  0
   -0.6640   10.5509   -7.5709 H   0  0  0  0  0  0  0  0  0  0  0  0
    1.5009   14.2685   -6.0560 H   0  0  0  0  0  0  0  0  0  0  0  0
    0.2588   15.4349   -6.6244 H   0  0  0  0  0  0  0  0  0  0  0  0
    0.1984   14.8070   -4.9425 H   0  0  0  0  0  0  0  0  0  0  0  0
   -2.9622   15.1711  -12.0469 H   0  0  0  0  0  0  0  0  0  0  0  0
   -4.2464   15.9849  -11.0903 H   0  0  0  0  0  0  0  0  0  0  0  0
   -3.3555   15.0059   -9.0807 H   0  0  0  0  0  0  0  0  0  0  0  0
   -4.9587   13.2414   -9.3350 H   0  0  0  0  0  0  0  0  0  0  0  0
   -3.7216   12.2489  -10.1783 H   0  0  0  0  0  0  0  0  0  0  0  0
    0.1412   14.5025  -10.2248 H   0  0  0  0  0  0  0  0  0  0  0  0
   -1.0556   15.5656  -11.0396 H   0  0  0  0  0  0  0  0  0  0  0  0
   -0.9185   15.5750   -9.2486 H   0  0  0  0  0  0  0  0  0  0  0  0
  1  2  1  0  0  0  0
  1  4  2  0  0  0  0
  1 12  1  0  0  0  0
  2  6  2  0  0  0  0
  3  4  1  0  0  0  0
  3  5  1  0  0  0  0
  5  6  1  0  0  0  0
  5  9  2  0  0  0  0
  6  7  1  0  0  0  0
  7  8  2  0  0  0  0
  7 10  1  0  0  0  0
  8  9  1  0  0  0  0
 10 14  2  0  0  0  0
 11 12  1  0  0  0  0
 11 26  1  0  0  0  0
 11 28  1  0  0  0  0
 12 13  2  0  0  0  0
 14 15  1  0  0  0  0
 14 19  1  0  0  0  0
 15 16  2  0  0  0  0
 16 17  1  0  0  0  0
 17 18  1  0  0  0  0
 17 20  2  0  0  0  0
 18 19  2  0  0  0  0
 20 21  1  0  0  0  0
 20 24  1  0  0  0  0
 21 22  1  0  0  0  0
 22 23  1  0  0  0  0
 22 25  1  0  0  0  0
 23 24  2  0  0  0  0
 26 27  1  0  0  0  0
 27 28  1  0  0  0  0
 27 29  1  0  0  0  0
 29 30  1  0  0  0  0
  2 31  1  0  0  0  0
  3 32  1  0  0  0  0
  3 33  1  0  0  0  0
  4 34  1  0  0  0  0
 10 35  1  0  0  0  0
 15 36  1  0  0  0  0
 16 37  1  0  0  0  0
 18 38  1  0  0  0  0
 19 39  1  0  0  0  0
 21 40  1  0  0  0  0
 21 41  1  0  0  0  0
 24 42  1  0  0  0  0
 25 43  1  0  0  0  0
 25 44  1  0  0  0  0
 25 45  1  0  0  0  0
 26 46  1  0  0  0  0
 26 47  1  0  0  0  0
 27 48  1  0  0  0  0
 28 49  1  0  0  0  0
 28 50  1  0  0  0  0
 30 51  1  0  0  0  0
 30 52  1  0  0  0  0
 30 53  1  0  0  0  0
M  END
> <Name>
36

> <IC50[uM]>
0.006

$$$$
36
  -OEChem-05192314333D
 Structure written by MMmdl.
 53 57  0     1  0  0  0  0  0999 V2000
   -6.3988   12.3548  -12.0167 C   0  0  0  0  0  0  0  0  0  0  0  0
   -6.5634   11.7828  -10.7362 C   0  0  0  0  0  0  0  0  0  0  0  0
   -7.7338   10.5694  -13.0370 C   0  0  0  0  0  0  0  0  0  0  0  0
   -6.9985   11.7556  -13.1278 C   0  0  0  0  0  0  0  0  0  0  0  0
   -7.8247    9.9971  -11.7595 C   0  0  3  0  0  0  0  0  0  0  0  0
   -7.2595   10.6059  -10.6156 C   0  0  0  0  0  0  0  0  0  0  0  0
   -7.6196    9.7377   -9.5218 C   0  0  0  0  0  0  0  0  0  0  0  0
   -8.2737    8.7166   -9.9897 N   0  0  0  0  0  0  0  0  0  0  0  0
   -8.4125    8.8485  -11.3029 N   0  0  0  0  0  0  0  0  0  0  0  0
   -7.3396    9.8926   -8.0318 C   0  0  0  0  0  0  0  0  0  0  0  0
   -4.5445   13.8618  -11.3707 N   0  0  0  0  0  0  0  0  0  0  0  0
   -5.5979   13.6472  -12.1806 C   0  0  0  0  0  0  0  0  0  0  0  0
   -5.9190   14.4711  -13.0424 O   0  0  0  0  0  0  0  0  0  0  0  0
   -5.9590   10.4852   -7.7375 C   0  0  0  0  0  0  0  0  0  0  0  0
   -5.8471   11.7541   -7.1585 C   0  0  0  0  0  0  0  0  0  0  0  0
   -4.5907   12.3017   -6.9141 C   0  0  0  0  0  0  0  0  0  0  0  0
   -3.4394   11.5818   -7.2374 C   0  0  0  0  0  0  0  0  0  0  0  0
   -3.5527   10.3083   -7.8066 C   0  0  0  0  0  0  0  0  0  0  0  0
   -4.8082    9.7633   -8.0562 C   0  0  0  0  0  0  0  0  0  0  0  0
   -2.0898   12.1596   -6.9778 C   0  0  0  0  0  0  0  0  0  0  0  0
   -1.7390   13.4130   -6.4881 C   0  0  0  0  0  0  0  0  0  0  0  0
   -0.3978   13.4480   -6.4305 N   0  0  3  0  0  0  0  0  0  0  0  0
    0.1868   12.3491   -6.8198 N   0  0  0  0  0  0  0  0  0  0  0  0
   -0.8044   11.5467   -7.1770 C   0  0  0  0  0  0  0  0  0  0  0  0
    0.4420   14.5581   -5.9859 C   0  0  0  0  0  0  0  0  0  0  0  0
   -3.7035   15.0408  -11.2447 C   0  0  0  0  0  0  0  0  0  0  0  0
   -3.1688   14.3872   -9.9709 C   0  0  0  0  0  0  0  0  0  0  0  0
   -4.1668   13.2516  -10.0984 C   0  0  0  0  0  0  0  0  0  0  0  0
   -1.8336   13.9158  -10.0706 O   0  0  0  0  0  0  0  0  0  0  0  0
   -0.8619   14.9477  -10.1504 C   0  0  0  0  0  0  0  0  0  0  0  0
   -6.1473   12.2646   -9.8638 H   0  0  0  0  0  0  0  0  0  0  0  0
   -8.2039   10.1205  -13.8995 H   0  0  0  0  0  0  0  0  0  0  0  0
   -6.8899   12.2266  -14.0936 H   0  0  0  0  0  0  0  0  0  0  0  0
   -6.8865    9.4502  -11.9350 H   0  0  0  0  0  0  0  0  0  0  0  0
   -8.0434    9.6128   -7.2619 H   0  0  0  0  0  0  0  0  0  0  0  0
   -6.7368   12.3095   -6.9008 H   0  0  0  0  0  0  0  0  0  0  0  0
   -4.5068   13.2844   -6.4740 H   0  0  0  0  0  0  0  0  0  0  0  0
   -2.6633    9.7472   -8.0527 H   0  0  0  0  0  0  0  0  0  0  0  0
   -4.8922    8.7809   -8.4969 H   0  0  0  0  0  0  0  0  0  0  0  0
   -2.1093   14.1996   -7.1620 H   0  0  0  0  0  0  0  0  0  0  0  0
   -2.1647   13.5597   -5.4845 H   0  0  0  0  0  0  0  0  0  0  0  0
   -0.6640   10.5509   -7.5709 H   0  0  0  0  0  0  0  0  0  0  0  0
    1.5009   14.2685   -6.0560 H   0  0  0  0  0  0  0  0  0  0  0  0
    0.2588   15.4349   -6.6244 H   0  0  0  0  0  0  0  0  0  0  0  0
    0.1984   14.8070   -4.9425 H   0  0  0  0  0  0  0  0  0  0  0  0
   -2.9622   15.1711  -12.0469 H   0  0  0  0  0  0  0  0  0  0  0  0
   -4.2464   15.9849  -11.0903 H   0  0  0  0  0  0  0  0  0  0  0  0
   -3.3555   15.0059   -9.0807 H   0  0  0  0  0  0  0  0  0  0  0  0
   -4.9587   13.2414   -9.3350 H   0  0  0  0  0  0  0  0  0  0  0  0
   -3.7216   12.2489  -10.1783 H   0  0  0  0  0  0  0  0  0  0  0  0
    0.1412   14.5025  -10.2248 H   0  0  0  0  0  0  0  0  0  0  0  0
   -1.0556   15.5656  -11.0396 H   0  0  0  0  0  0  0  0  0  0  0  0
   -0.9185   15.5750   -9.2486 H   0  0  0  0  0  0  0  0  0  0  0  0
  1  2  2  0  0  0  0
  1  4  1  0  0  0  0
  1 12  1  0  0  0  0
  2  6  1  0  0  0  0
  3  4  2  0  0  0  0
  3  5  1  0  0  0  0
  5  6  1  0  0  0  0
  5  9  1  0  0  0  0
  6  7  2  0  0  0  0
  7  8  1  0  0  0  0
  7 10  1  0  0  0  0
  8  9  2  0  0  0  0
 10 14  2  0  0  0  0
 11 12  1  0  0  0  0
 11 26  1  0  0  0  0
 11 28  1  0  0  0  0
 12 13  2  0  0  0  0
 14 15  1  0  0  0  0
 14 19  1  0  0  0  0
 15 16  2  0  0  0  0
 16 17  1  0  0  0  0
 17 18  1  0  0  0  0
 17 20  2  0  0  0  0
 18 19  2  0  0  0  0
 20 21  1  0  0  0  0
 20 24  1  0  0  0  0
 21 22  1  0  0  0  0
 22 23  1  0  0  0  0
 22 25  1  0  0  0  0
 23 24  2  0  0  0  0
 26 27  1  0  0  0  0
 27 28  1  0  0  0  0
 27 29  1  0  0  0  0
 29 30  1  0  0  0  0
  2 31  1  0  0  0  0
  3 32  1  0  0  0  0
  4 33  1  0  0  0  0
  5 34  1  0  0  0  0
 10 35  1  0  0  0  0
 15 36  1  0  0  0  0
 16 37  1  0  0  0  0
 18 38  1  0  0  0  0
 19 39  1  0  0  0  0
 21 40  1  0  0  0  0
 21 41  1  0  0  0  0
 24 42  1  0  0  0  0
 25 43  1  0  0  0  0
 25 44  1  0  0  0  0
 25 45  1  0  0  0  0
 26 46  1  0  0  0  0
 26 47  1  0  0  0  0
 27 48  1  0  0  0  0
 28 49  1  0  0  0  0
 28 50  1  0  0  0  0
 30 51  1  0  0  0  0
 30 52  1  0  0  0  0
 30 53  1  0  0  0  0
M  END
> <Name>
36

> <IC50[uM]>
0.006

$$$$
36
  -OEChem-05192314333D
 Structure written by MMmdl.
 53 57  0     1  0  0  0  0  0999 V2000
   -6.3988   12.3548  -12.0167 C   0  0  0  0  0  0  0  0  0  0  0  0
   -6.5634   11.7828  -10.7362 C   0  0  0  0  0  0  0  0  0  0  0  0
   -7.7338   10.5694  -13.0370 C   0  0  0  0  0  0  0  0  0  0  0  0
   -6.9985   11.7556  -13.1278 C   0  0  0  0  0  0  0  0  0  0  0  0
   -7.8247    9.9971  -11.7595 C   0  0  0  0  0  0  0  0  0  0  0  0
   -7.2595   10.6059  -10.6156 C   0  0  0  0  0  0  0  0  0  0  0  0
   -7.6196    9.7377   -9.5218 C   0  0  0  0  0  0  0  0  0  0  0  0
   -8.2737    8.7166   -9.9897 N   0  0  0  0  0  0  0  0  0  0  0  0
   -8.4125    8.8485  -11.3029 N   0  0  0  0  0  0  0  0  0  0  0  0
   -7.3396    9.8926   -8.0318 C   0  0  0  0  0  0  0  0  0  0  0  0
   -4.5445   13.8618  -11.3707 N   0  0  0  0  0  0  0  0  0  0  0  0
   -5.5979   13.6472  -12.1806 C   0  0  0  0  0  0  0  0  0  0  0  0
   -5.9190   14.4711  -13.0424 O   0  0  0  0  0  0  0  0  0  0  0  0
   -5.9590   10.4852   -7.7375 C   0  0  0  0  0  0  0  0  0  0  0  0
   -5.8471   11.7541   -7.1585 C   0  0  0  0  0  0  0  0  0  0  0  0
   -4.5907   12.3017   -6.9141 C   0  0  0  0  0  0  0  0  0  0  0  0
   -3.4394   11.5818   -7.2374 C   0  0  0  0  0  0  0  0  0  0  0  0
   -3.5527   10.3083   -7.8066 C   0  0  0  0  0  0  0  0  0  0  0  0
   -4.8082    9.7633   -8.0562 C   0  0  0  0  0  0  0  0  0  0  0  0
   -2.0898   12.1596   -6.9778 C   0  0  0  0  0  0  0  0  0  0  0  0
   -1.7390   13.4130   -6.4881 C   0  0  0  0  0  0  0  0  0  0  0  0
   -0.3978   13.4480   -6.4305 N   0  0  3  0  0  0  0  0  0  0  0  0
    0.1868   12.3491   -6.8198 N   0  0  0  0  0  0  0  0  0  0  0  0
   -0.8044   11.5467   -7.1770 C   0  0  0  0  0  0  0  0  0  0  0  0
    0.4420   14.5581   -5.9859 C   0  0  0  0  0  0  0  0  0  0  0  0
   -3.7035   15.0408  -11.2447 C   0  0  0  0  0  0  0  0  0  0  0  0
   -3.1688   14.3872   -9.9709 C   0  0  0  0  0  0  0  0  0  0  0  0
   -4.1668   13.2516  -10.0984 C   0  0  0  0  0  0  0  0  0  0  0  0
   -1.8336   13.9158  -10.0706 O   0  0  0  0  0  0  0  0  0  0  0  0
   -0.8619   14.9477  -10.1504 C   0  0  0  0  0  0  0  0  0  0  0  0
   -6.1473   12.2646   -9.8638 H   0  0  0  0  0  0  0  0  0  0  0  0
   -8.2039   10.1205  -13.8995 H   0  0  0  0  0  0  0  0  0  0  0  0
   -7.6826   12.5075  -13.5482 H   0  0  0  0  0  0  0  0  0  0  0  0
   -6.1868   11.5577  -13.8433 H   0  0  0  0  0  0  0  0  0  0  0  0
   -8.0434    9.6128   -7.2619 H   0  0  0  0  0  0  0  0  0  0  0  0
   -6.7368   12.3095   -6.9008 H   0  0  0  0  0  0  0  0  0  0  0  0
   -4.5068   13.2844   -6.4740 H   0  0  0  0  0  0  0  0  0  0  0  0
   -2.6633    9.7472   -8.0527 H   0  0  0  0  0  0  0  0  0  0  0  0
   -4.8922    8.7809   -8.4969 H   0  0  0  0  0  0  0  0  0  0  0  0
   -2.1093   14.1996   -7.1620 H   0  0  0  0  0  0  0  0  0  0  0  0
   -2.1647   13.5597   -5.4845 H   0  0  0  0  0  0  0  0  0  0  0  0
   -0.6640   10.5509   -7.5709 H   0  0  0  0  0  0  0  0  0  0  0  0
    1.5009   14.2685   -6.0560 H   0  0  0  0  0  0  0  0  0  0  0  0
    0.2588   15.4349   -6.6244 H   0  0  0  0  0  0  0  0  0  0  0  0
    0.1984   14.8070   -4.9425 H   0  0  0  0  0  0  0  0  0  0  0  0
   -2.9622   15.1711  -12.0469 H   0  0  0  0  0  0  0  0  0  0  0  0
   -4.2464   15.9849  -11.0903 H   0  0  0  0  0  0  0  0  0  0  0  0
   -3.3555   15.0059   -9.0807 H   0  0  0  0  0  0  0  0  0  0  0  0
   -4.9587   13.2414   -9.3350 H   0  0  0  0  0  0  0  0  0  0  0  0
   -3.7216   12.2489  -10.1783 H   0  0  0  0  0  0  0  0  0  0  0  0
    0.1412   14.5025  -10.2248 H   0  0  0  0  0  0  0  0  0  0  0  0
   -1.0556   15.5656  -11.0396 H   0  0  0  0  0  0  0  0  0  0  0  0
   -0.9185   15.5750   -9.2486 H   0  0  0  0  0  0  0  0  0  0  0  0
  1  2  2  0  0  0  0
  1  4  1  0  0  0  0
  1 12  1  0  0  0  0
  2  6  1  0  0  0  0
  3  4  1  0  0  0  0
  3  5  2  0  0  0  0
  5  6  1  0  0  0  0
  5  9  1  0  0  0  0
  6  7  2  0  0  0  0
  7  8  1  0  0  0  0
  7 10  1  0  0  0  0
  8  9  2  0  0  0  0
 10 14  2  0  0  0  0
 11 12  1  0  0  0  0
 11 26  1  0  0  0  0
 11 28  1  0  0  0  0
 12 13  2  0  0  0  0
 14 15  1  0  0  0  0
 14 19  1  0  0  0  0
 15 16  2  0  0  0  0
 16 17  1  0  0  0  0
 17 18  1  0  0  0  0
 17 20  2  0  0  0  0
 18 19  2  0  0  0  0
 20 21  1  0  0  0  0
 20 24  1  0  0  0  0
 21 22  1  0  0  0  0
 22 23  1  0  0  0  0
 22 25  1  0  0  0  0
 23 24  2  0  0  0  0
 26 27  1  0  0  0  0
 27 28  1  0  0  0  0
 27 29  1  0  0  0  0
 29 30  1  0  0  0  0
  2 31  1  0  0  0  0
  3 32  1  0  0  0  0
  4 33  1  0  0  0  0
  4 34  1  0  0  0  0
 10 35  1  0  0  0  0
 15 36  1  0  0  0  0
 16 37  1  0  0  0  0
 18 38  1  0  0  0  0
 19 39  1  0  0  0  0
 21 40  1  0  0  0  0
 21 41  1  0  0  0  0
 24 42  1  0  0  0  0
 25 43  1  0  0  0  0
 25 44  1  0  0  0  0
 25 45  1  0  0  0  0
 26 46  1  0  0  0  0
 26 47  1  0  0  0  0
 27 48  1  0  0  0  0
 28 49  1  0  0  0  0
 28 50  1  0  0  0  0
 30 51  1  0  0  0  0
 30 52  1  0  0  0  0
 30 53  1  0  0  0  0
M  END
> <Name>
36

> <IC50[uM]>
0.006

$$$$
36
  -OEChem-05192314333D
 Structure written by MMmdl.
 53 57  0     1  0  0  0  0  0999 V2000
   -6.3988   12.3548  -12.0167 C   0  0  0  0  0  0  0  0  0  0  0  0
   -6.5634   11.7828  -10.7362 C   0  0  0  0  0  0  0  0  0  0  0  0
   -7.7338   10.5694  -13.0370 C   0  0  0  0  0  0  0  0  0  0  0  0
   -6.9985   11.7556  -13.1278 C   0  0  0  0  0  0  0  0  0  0  0  0
   -7.8247    9.9971  -11.7595 C   0  0  0  0  0  0  0  0  0  0  0  0
   -7.2595   10.6059  -10.6156 C   0  0  0  0  0  0  0  0  0  0  0  0
   -7.6196    9.7377   -9.5218 C   0  0  0  0  0  0  0  0  0  0  0  0
   -8.2737    8.7166   -9.9897 N   0  0  0  0  0  0  0  0  0  0  0  0
   -8.4125    8.8485  -11.3029 N   0  0  0  0  0  0  0  0  0  0  0  0
   -7.3396    9.8926   -8.0318 C   0  0  0  0  0  0  0  0  0  0  0  0
   -4.5445   13.8618  -11.3707 N   0  0  0  0  0  0  0  0  0  0  0  0
   -5.5979   13.6472  -12.1806 C   0  0  0  0  0  0  0  0  0  0  0  0
   -5.9190   14.4711  -13.0424 O   0  0  0  0  0  0  0  0  0  0  0  0
   -5.9590   10.4852   -7.7375 C   0  0  0  0  0  0  0  0  0  0  0  0
   -5.8471   11.7541   -7.1585 C   0  0  0  0  0  0  0  0  0  0  0  0
   -4.5907   12.3017   -6.9141 C   0  0  0  0  0  0  0  0  0  0  0  0
   -3.4394   11.5818   -7.2374 C   0  0  0  0  0  0  0  0  0  0  0  0
   -3.5527   10.3083   -7.8066 C   0  0  0  0  0  0  0  0  0  0  0  0
   -4.8082    9.7633   -8.0562 C   0  0  0  0  0  0  0  0  0  0  0  0
   -2.0898   12.1596   -6.9778 C   0  0  0  0  0  0  0  0  0  0  0  0
   -1.7390   13.4130   -6.4881 C   0  0  0  0  0  0  0  0  0  0  0  0
   -0.3978   13.4480   -6.4305 N   0  0  3  0  0  0  0  0  0  0  0  0
    0.1868   12.3491   -6.8198 N   0  0  0  0  0  0  0  0  0  0  0  0
   -0.8044   11.5467   -7.1770 C   0  0  0  0  0  0  0  0  0  0  0  0
    0.4420   14.5581   -5.9859 C   0  0  0  0  0  0  0  0  0  0  0  0
   -3.7035   15.0408  -11.2447 C   0  0  0  0  0  0  0  0  0  0  0  0
   -3.1688   14.3872   -9.9709 C   0  0  0  0  0  0  0  0  0  0  0  0
   -4.1668   13.2516  -10.0984 C   0  0  0  0  0  0  0  0  0  0  0  0
   -1.8336   13.9158  -10.0706 O   0  0  0  0  0  0  0  0  0  0  0  0
   -0.8619   14.9477  -10.1504 C   0  0  0  0  0  0  0  0  0  0  0  0
   -5.5563   11.6040  -10.3316 H   0  0  0  0  0  0  0  0  0  0  0  0
   -7.0812   12.5282  -10.1148 H   0  0  0  0  0  0  0  0  0  0  0  0
   -8.2039   10.1205  -13.8995 H   0  0  0  0  0  0  0  0  0  0  0  0
   -6.8899   12.2266  -14.0936 H   0  0  0  0  0  0  0  0  0  0  0  0
   -8.0434    9.6128   -7.2619 H   0  0  0  0  0  0  0  0  0  0  0  0
   -6.7368   12.3095   -6.9008 H   0  0  0  0  0  0  0  0  0  0  0  0
   -4.5068   13.2844   -6.4740 H   0  0  0  0  0  0  0  0  0  0  0  0
   -2.6633    9.7472   -8.0527 H   0  0  0  0  0  0  0  0  0  0  0  0
   -4.8922    8.7809   -8.4969 H   0  0  0  0  0  0  0  0  0  0  0  0
   -2.1093   14.1996   -7.1620 H   0  0  0  0  0  0  0  0  0  0  0  0
   -2.1647   13.5597   -5.4845 H   0  0  0  0  0  0  0  0  0  0  0  0
   -0.6640   10.5509   -7.5709 H   0  0  0  0  0  0  0  0  0  0  0  0
    1.5009   14.2685   -6.0560 H   0  0  0  0  0  0  0  0  0  0  0  0
    0.2588   15.4349   -6.6244 H   0  0  0  0  0  0  0  0  0  0  0  0
    0.1984   14.8070   -4.9425 H   0  0  0  0  0  0  0  0  0  0  0  0
   -2.9622   15.1711  -12.0469 H   0  0  0  0  0  0  0  0  0  0  0  0
   -4.2464   15.9849  -11.0903 H   0  0  0  0  0  0  0  0  0  0  0  0
   -3.3555   15.0059   -9.0807 H   0  0  0  0  0  0  0  0  0  0  0  0
   -4.9587   13.2414   -9.3350 H   0  0  0  0  0  0  0  0  0  0  0  0
   -3.7216   12.2489  -10.1783 H   0  0  0  0  0  0  0  0  0  0  0  0
    0.1412   14.5025  -10.2248 H   0  0  0  0  0  0  0  0  0  0  0  0
   -1.0556   15.5656  -11.0396 H   0  0  0  0  0  0  0  0  0  0  0  0
   -0.9185   15.5750   -9.2486 H   0  0  0  0  0  0  0  0  0  0  0  0
  1  2  1  0  0  0  0
  1  4  2  0  0  0  0
  1 12  1  0  0  0  0
  2  6  1  0  0  0  0
  3  4  1  0  0  0  0
  3  5  2  0  0  0  0
  5  6  1  0  0  0  0
  5  9  1  0  0  0  0
  6  7  2  0  0  0  0
  7  8  1  0  0  0  0
  7 10  1  0  0  0  0
  8  9  2  0  0  0  0
 10 14  2  0  0  0  0
 11 12  1  0  0  0  0
 11 26  1  0  0  0  0
 11 28  1  0  0  0  0
 12 13  2  0  0  0  0
 14 15  1  0  0  0  0
 14 19  1  0  0  0  0
 15 16  2  0  0  0  0
 16 17  1  0  0  0  0
 17 18  1  0  0  0  0
 17 20  2  0  0  0  0
 18 19  2  0  0  0  0
 20 21  1  0  0  0  0
 20 24  1  0  0  0  0
 21 22  1  0  0  0  0
 22 23  1  0  0  0  0
 22 25  1  0  0  0  0
 23 24  2  0  0  0  0
 26 27  1  0  0  0  0
 27 28  1  0  0  0  0
 27 29  1  0  0  0  0
 29 30  1  0  0  0  0
  2 31  1  0  0  0  0
  2 32  1  0  0  0  0
  3 33  1  0  0  0  0
  4 34  1  0  0  0  0
 10 35  1  0  0  0  0
 15 36  1  0  0  0  0
 16 37  1  0  0  0  0
 18 38  1  0  0  0  0
 19 39  1  0  0  0  0
 21 40  1  0  0  0  0
 21 41  1  0  0  0  0
 24 42  1  0  0  0  0
 25 43  1  0  0  0  0
 25 44  1  0  0  0  0
 25 45  1  0  0  0  0
 26 46  1  0  0  0  0
 26 47  1  0  0  0  0
 27 48  1  0  0  0  0
 28 49  1  0  0  0  0
 28 50  1  0  0  0  0
 30 51  1  0  0  0  0
 30 52  1  0  0  0  0
 30 53  1  0  0  0  0
M  END
> <Name>
36

> <IC50[uM]>
0.006

$$$$
36
  -OEChem-05192314333D
 Structure written by MMmdl.
 53 57  0     1  0  0  0  0  0999 V2000
   -6.3988   12.3548  -12.0167 C   0  0  3  0  0  0  0  0  0  0  0  0
   -6.5634   11.7828  -10.7362 C   0  0  0  0  0  0  0  0  0  0  0  0
   -7.7338   10.5694  -13.0370 C   0  0  0  0  0  0  0  0  0  0  0  0
   -6.9985   11.7556  -13.1278 C   0  0  0  0  0  0  0  0  0  0  0  0
   -7.8247    9.9971  -11.7595 C   0  0  0  0  0  0  0  0  0  0  0  0
   -7.2595   10.6059  -10.6156 C   0  0  0  0  0  0  0  0  0  0  0  0
   -7.6196    9.7377   -9.5218 C   0  0  0  0  0  0  0  0  0  0  0  0
   -8.2737    8.7166   -9.9897 N   0  0  0  0  0  0  0  0  0  0  0  0
   -8.4125    8.8485  -11.3029 N   0  0  0  0  0  0  0  0  0  0  0  0
   -7.3396    9.8926   -8.0318 C   0  0  0  0  0  0  0  0  0  0  0  0
   -4.5445   13.8618  -11.3707 N   0  0  0  0  0  0  0  0  0  0  0  0
   -5.5979   13.6472  -12.1806 C   0  0  0  0  0  0  0  0  0  0  0  0
   -5.9190   14.4711  -13.0424 O   0  0  0  0  0  0  0  0  0  0  0  0
   -5.9590   10.4852   -7.7375 C   0  0  0  0  0  0  0  0  0  0  0  0
   -5.8471   11.7541   -7.1585 C   0  0  0  0  0  0  0  0  0  0  0  0
   -4.5907   12.3017   -6.9141 C   0  0  0  0  0  0  0  0  0  0  0  0
   -3.4394   11.5818   -7.2374 C   0  0  0  0  0  0  0  0  0  0  0  0
   -3.5527   10.3083   -7.8066 C   0  0  0  0  0  0  0  0  0  0  0  0
   -4.8082    9.7633   -8.0562 C   0  0  0  0  0  0  0  0  0  0  0  0
   -2.0898   12.1596   -6.9778 C   0  0  0  0  0  0  0  0  0  0  0  0
   -1.7390   13.4130   -6.4881 C   0  0  0  0  0  0  0  0  0  0  0  0
   -0.3978   13.4480   -6.4305 N   0  0  0  0  0  0  0  0  0  0  0  0
    0.1868   12.3491   -6.8198 N   0  0  0  0  0  0  0  0  0  0  0  0
   -0.8044   11.5467   -7.1770 C   0  0  0  0  0  0  0  0  0  0  0  0
    0.4420   14.5581   -5.9859 C   0  0  0  0  0  0  0  0  0  0  0  0
   -3.7035   15.0408  -11.2447 C   0  0  0  0  0  0  0  0  0  0  0  0
   -3.1688   14.3872   -9.9709 C   0  0  0  0  0  0  0  0  0  0  0  0
   -4.1668   13.2516  -10.0984 C   0  0  0  0  0  0  0  0  0  0  0  0
   -1.8336   13.9158  -10.0706 O   0  0  0  0  0  0  0  0  0  0  0  0
   -0.8619   14.9477  -10.1504 C   0  0  0  0  0  0  0  0  0  0  0  0
   -5.4875   11.7597  -12.1757 H   0  0  0  0  0  0  0  0  0  0  0  0
   -6.1473   12.2646   -9.8638 H   0  0  0  0  0  0  0  0  0  0  0  0
   -8.2039   10.1205  -13.8995 H   0  0  0  0  0  0  0  0  0  0  0  0
   -6.8899   12.2266  -14.0936 H   0  0  0  0  0  0  0  0  0  0  0  0
   -8.0434    9.6128   -7.2619 H   0  0  0  0  0  0  0  0  0  0  0  0
   -6.7368   12.3095   -6.9008 H   0  0  0  0  0  0  0  0  0  0  0  0
   -4.5068   13.2844   -6.4740 H   0  0  0  0  0  0  0  0  0  0  0  0
   -3.4394   12.0313   -8.2414 H   0  0  0  0  0  0  0  0  0  0  0  0
   -2.6633    9.7472   -8.0527 H   0  0  0  0  0  0  0  0  0  0  0  0
   -4.8922    8.7809   -8.4969 H   0  0  0  0  0  0  0  0  0  0  0  0
   -2.4158   14.2066   -6.2077 H   0  0  0  0  0  0  0  0  0  0  0  0
   -0.6640   10.5509   -7.5709 H   0  0  0  0  0  0  0  0  0  0  0  0
    1.5009   14.2685   -6.0560 H   0  0  0  0  0  0  0  0  0  0  0  0
    0.2588   15.4349   -6.6244 H   0  0  0  0  0  0  0  0  0  0  0  0
    0.1984   14.8070   -4.9425 H   0  0  0  0  0  0  0  0  0  0  0  0
   -2.9622   15.1711  -12.0469 H   0  0  0  0  0  0  0  0  0  0  0  0
   -4.2464   15.9849  -11.0903 H   0  0  0  0  0  0  0  0  0  0  0  0
   -3.3555   15.0059   -9.0807 H   0  0  0  0  0  0  0  0  0  0  0  0
   -4.9587   13.2414   -9.3350 H   0  0  0  0  0  0  0  0  0  0  0  0
   -3.7216   12.2489  -10.1783 H   0  0  0  0  0  0  0  0  0  0  0  0
    0.1412   14.5025  -10.2248 H   0  0  0  0  0  0  0  0  0  0  0  0
   -1.0556   15.5656  -11.0396 H   0  0  0  0  0  0  0  0  0  0  0  0
   -0.9185   15.5750   -9.2486 H   0  0  0  0  0  0  0  0  0  0  0  0
  1  2  1  0  0  0  0
  1  4  1  0  0  0  0
  1 12  1  0  0  0  0
  2  6  2  0  0  0  0
  3  4  2  0  0  0  0
  3  5  1  0  0  0  0
  5  6  1  0  0  0  0
  5  9  2  0  0  0  0
  6  7  1  0  0  0  0
  7  8  2  0  0  0  0
  7 10  1  0  0  0  0
  8  9  1  0  0  0  0
 10 14  2  0  0  0  0
 11 12  1  0  0  0  0
 11 26  1  0  0  0  0
 11 28  1  0  0  0  0
 12 13  2  0  0  0  0
 14 15  1  0  0  0  0
 14 19  1  0  0  0  0
 15 16  2  0  0  0  0
 16 17  1  0  0  0  0
 17 18  1  0  0  0  0
 17 20  1  0  0  0  0
 18 19  2  0  0  0  0
 20 21  2  0  0  0  0
 20 24  1  0  0  0  0
 21 22  1  0  0  0  0
 22 23  1  0  0  0  0
 22 25  1  0  0  0  0
 23 24  2  0  0  0  0
 26 27  1  0  0  0  0
 27 28  1  0  0  0  0
 27 29  1  0  0  0  0
 29 30  1  0  0  0  0
  1 31  1  0  0  0  0
  2 32  1  0  0  0  0
  3 33  1  0  0  0  0
  4 34  1  0  0  0  0
 10 35  1  0  0  0  0
 15 36  1  0  0  0  0
 16 37  1  0  0  0  0
 17 38  1  0  0  0  0
 18 39  1  0  0  0  0
 19 40  1  0  0  0  0
 21 41  1  0  0  0  0
 24 42  1  0  0  0  0
 25 43  1  0  0  0  0
 25 44  1  0  0  0  0
 25 45  1  0  0  0  0
 26 46  1  0  0  0  0
 26 47  1  0  0  0  0
 27 48  1  0  0  0  0
 28 49  1  0  0  0  0
 28 50  1  0  0  0  0
 30 51  1  0  0  0  0
 30 52  1  0  0  0  0
 30 53  1  0  0  0  0
M  END
> <Name>
36

> <IC50[uM]>
0.006

$$$$
36
  -OEChem-05192314333D
 Structure written by MMmdl.
 53 57  0     1  0  0  0  0  0999 V2000
   -6.3988   12.3548  -12.0167 C   0  0  0  0  0  0  0  0  0  0  0  0
   -6.5634   11.7828  -10.7362 C   0  0  0  0  0  0  0  0  0  0  0  0
   -7.7338   10.5694  -13.0370 C   0  0  0  0  0  0  0  0  0  0  0  0
   -6.9985   11.7556  -13.1278 C   0  0  0  0  0  0  0  0  0  0  0  0
   -7.8247    9.9971  -11.7595 C   0  0  0  0  0  0  0  0  0  0  0  0
   -7.2595   10.6059  -10.6156 C   0  0  3  0  0  0  0  0  0  0  0  0
   -7.6196    9.7377   -9.5218 C   0  0  0  0  0  0  0  0  0  0  0  0
   -8.2737    8.7166   -9.9897 N   0  0  0  0  0  0  0  0  0  0  0  0
   -8.4125    8.8485  -11.3029 N   0  0  0  0  0  0  0  0  0  0  0  0
   -7.3396    9.8926   -8.0318 C   0  0  0  0  0  0  0  0  0  0  0  0
   -4.5445   13.8618  -11.3707 N   0  0  0  0  0  0  0  0  0  0  0  0
   -5.5979   13.6472  -12.1806 C   0  0  0  0  0  0  0  0  0  0  0  0
   -5.9190   14.4711  -13.0424 O   0  0  0  0  0  0  0  0  0  0  0  0
   -5.9590   10.4852   -7.7375 C   0  0  0  0  0  0  0  0  0  0  0  0
   -5.8471   11.7541   -7.1585 C   0  0  0  0  0  0  0  0  0  0  0  0
   -4.5907   12.3017   -6.9141 C   0  0  0  0  0  0  0  0  0  0  0  0
   -3.4394   11.5818   -7.2374 C   0  0  0  0  0  0  0  0  0  0  0  0
   -3.5527   10.3083   -7.8066 C   0  0  0  0  0  0  0  0  0  0  0  0
   -4.8082    9.7633   -8.0562 C   0  0  0  0  0  0  0  0  0  0  0  0
   -2.0898   12.1596   -6.9778 C   0  0  0  0  0  0  0  0  0  0  0  0
   -1.7390   13.4130   -6.4881 C   0  0  0  0  0  0  0  0  0  0  0  0
   -0.3978   13.4480   -6.4305 N   0  0  0  0  0  0  0  0  0  0  0  0
    0.1868   12.3491   -6.8198 N   0  0  0  0  0  0  0  0  0  0  0  0
   -0.8044   11.5467   -7.1770 C   0  0  0  0  0  0  0  0  0  0  0  0
    0.4420   14.5581   -5.9859 C   0  0  0  0  0  0  0  0  0  0  0  0
   -3.7035   15.0408  -11.2447 C   0  0  0  0  0  0  0  0  0  0  0  0
   -3.1688   14.3872   -9.9709 C   0  0  0  0  0  0  0  0  0  0  0  0
   -4.1668   13.2516  -10.0984 C   0  0  0  0  0  0  0  0  0  0  0  0
   -1.8336   13.9158  -10.0706 O   0  0  0  0  0  0  0  0  0  0  0  0
   -0.8619   14.9477  -10.1504 C   0  0  0  0  0  0  0  0  0  0  0  0
   -6.1473   12.2646   -9.8638 H   0  0  0  0  0  0  0  0  0  0  0  0
   -8.2039   10.1205  -13.8995 H   0  0  0  0  0  0  0  0  0  0  0  0
   -6.8899   12.2266  -14.0936 H   0  0  0  0  0  0  0  0  0  0  0  0
   -6.3306   10.0364  -10.7668 H   0  0  0  0  0  0  0  0  0  0  0  0
   -8.0434    9.6128   -7.2619 H   0  0  0  0  0  0  0  0  0  0  0  0
   -6.7368   12.3095   -6.9008 H   0  0  0  0  0  0  0  0  0  0  0  0
   -4.5068   13.2844   -6.4740 H   0  0  0  0  0  0  0  0  0  0  0  0
   -3.4394   12.0313   -8.2414 H   0  0  0  0  0  0  0  0  0  0  0  0
   -2.6633    9.7472   -8.0527 H   0  0  0  0  0  0  0  0  0  0  0  0
   -4.8922    8.7809   -8.4969 H   0  0  0  0  0  0  0  0  0  0  0  0
   -2.4158   14.2066   -6.2077 H   0  0  0  0  0  0  0  0  0  0  0  0
   -0.6640   10.5509   -7.5709 H   0  0  0  0  0  0  0  0  0  0  0  0
    1.5009   14.2685   -6.0560 H   0  0  0  0  0  0  0  0  0  0  0  0
    0.2588   15.4349   -6.6244 H   0  0  0  0  0  0  0  0  0  0  0  0
    0.1984   14.8070   -4.9425 H   0  0  0  0  0  0  0  0  0  0  0  0
   -2.9622   15.1711  -12.0469 H   0  0  0  0  0  0  0  0  0  0  0  0
   -4.2464   15.9849  -11.0903 H   0  0  0  0  0  0  0  0  0  0  0  0
   -3.3555   15.0059   -9.0807 H   0  0  0  0  0  0  0  0  0  0  0  0
   -4.9587   13.2414   -9.3350 H   0  0  0  0  0  0  0  0  0  0  0  0
   -3.7216   12.2489  -10.1783 H   0  0  0  0  0  0  0  0  0  0  0  0
    0.1412   14.5025  -10.2248 H   0  0  0  0  0  0  0  0  0  0  0  0
   -1.0556   15.5656  -11.0396 H   0  0  0  0  0  0  0  0  0  0  0  0
   -0.9185   15.5750   -9.2486 H   0  0  0  0  0  0  0  0  0  0  0  0
  1  2  2  0  0  0  0
  1  4  1  0  0  0  0
  1 12  1  0  0  0  0
  2  6  1  0  0  0  0
  3  4  2  0  0  0  0
  3  5  1  0  0  0  0
  5  6  1  0  0  0  0
  5  9  2  0  0  0  0
  6  7  1  0  0  0  0
  7  8  2  0  0  0  0
  7 10  1  0  0  0  0
  8  9  1  0  0  0  0
 10 14  2  0  0  0  0
 11 12  1  0  0  0  0
 11 26  1  0  0  0  0
 11 28  1  0  0  0  0
 12 13  2  0  0  0  0
 14 15  1  0  0  0  0
 14 19  1  0  0  0  0
 15 16  2  0  0  0  0
 16 17  1  0  0  0  0
 17 18  1  0  0  0  0
 17 20  1  0  0  0  0
 18 19  2  0  0  0  0
 20 21  2  0  0  0  0
 20 24  1  0  0  0  0
 21 22  1  0  0  0  0
 22 23  1  0  0  0  0
 22 25  1  0  0  0  0
 23 24  2  0  0  0  0
 26 27  1  0  0  0  0
 27 28  1  0  0  0  0
 27 29  1  0  0  0  0
 29 30  1  0  0  0  0
  2 31  1  0  0  0  0
  3 32  1  0  0  0  0
  4 33  1  0  0  0  0
  6 34  1  0  0  0  0
 10 35  1  0  0  0  0
 15 36  1  0  0  0  0
 16 37  1  0  0  0  0
 17 38  1  0  0  0  0
 18 39  1  0  0  0  0
 19 40  1  0  0  0  0
 21 41  1  0  0  0  0
 24 42  1  0  0  0  0
 25 43  1  0  0  0  0
 25 44  1  0  0  0  0
 25 45  1  0  0  0  0
 26 46  1  0  0  0  0
 26 47  1  0  0  0  0
 27 48  1  0  0  0  0
 28 49  1  0  0  0  0
 28 50  1  0  0  0  0
 30 51  1  0  0  0  0
 30 52  1  0  0  0  0
 30 53  1  0  0  0  0
M  END
> <Name>
36

> <IC50[uM]>
0.006

$$$$
36
  -OEChem-05192314333D
 Structure written by MMmdl.
 53 57  0     0  0  0  0  0  0999 V2000
   -6.3988   12.3548  -12.0167 C   0  0  0  0  0  0  0  0  0  0  0  0
   -6.5634   11.7828  -10.7362 C   0  0  0  0  0  0  0  0  0  0  0  0
   -7.7338   10.5694  -13.0370 C   0  0  0  0  0  0  0  0  0  0  0  0
   -6.9985   11.7556  -13.1278 C   0  0  0  0  0  0  0  0  0  0  0  0
   -7.8247    9.9971  -11.7595 C   0  0  0  0  0  0  0  0  0  0  0  0
   -7.2595   10.6059  -10.6156 C   0  0  0  0  0  0  0  0  0  0  0  0
   -7.6196    9.7377   -9.5218 C   0  0  0  0  0  0  0  0  0  0  0  0
   -8.2737    8.7166   -9.9897 N   0  0  0  0  0  0  0  0  0  0  0  0
   -8.4125    8.8485  -11.3029 N   0  0  0  0  0  0  0  0  0  0  0  0
   -7.3396    9.8926   -8.0318 C   0  0  0  0  0  0  0  0  0  0  0  0
   -4.5445   13.8618  -11.3707 N   0  0  0  0  0  0  0  0  0  0  0  0
   -5.5979   13.6472  -12.1806 C   0  0  0  0  0  0  0  0  0  0  0  0
   -5.9190   14.4711  -13.0424 O   0  0  0  0  0  0  0  0  0  0  0  0
   -5.9590   10.4852   -7.7375 C   0  0  0  0  0  0  0  0  0  0  0  0
   -5.8471   11.7541   -7.1585 C   0  0  0  0  0  0  0  0  0  0  0  0
   -4.5907   12.3017   -6.9141 C   0  0  0  0  0  0  0  0  0  0  0  0
   -3.4394   11.5818   -7.2374 C   0  0  0  0  0  0  0  0  0  0  0  0
   -3.5527   10.3083   -7.8066 C   0  0  0  0  0  0  0  0  0  0  0  0
   -4.8082    9.7633   -8.0562 C   0  0  0  0  0  0  0  0  0  0  0  0
   -2.0898   12.1596   -6.9778 C   0  0  0  0  0  0  0  0  0  0  0  0
   -1.7390   13.4130   -6.4881 C   0  0  0  0  0  0  0  0  0  0  0  0
   -0.3978   13.4480   -6.4305 N   0  0  0  0  0  0  0  0  0  0  0  0
    0.1868   12.3491   -6.8198 N   0  0  0  0  0  0  0  0  0  0  0  0
   -0.8044   11.5467   -7.1770 C   0  0  0  0  0  0  0  0  0  0  0  0
    0.4420   14.5581   -5.9859 C   0  0  0  0  0  0  0  0  0  0  0  0
   -3.7035   15.0408  -11.2447 C   0  0  0  0  0  0  0  0  0  0  0  0
   -3.1688   14.3872   -9.9709 C   0  0  0  0  0  0  0  0  0  0  0  0
   -4.1668   13.2516  -10.0984 C   0  0  0  0  0  0  0  0  0  0  0  0
   -1.8336   13.9158  -10.0706 O   0  0  0  0  0  0  0  0  0  0  0  0
   -0.8619   14.9477  -10.1504 C   0  0  0  0  0  0  0  0  0  0  0  0
   -6.1473   12.2646   -9.8638 H   0  0  0  0  0  0  0  0  0  0  0  0
   -8.7560   10.7799  -13.3847 H   0  0  0  0  0  0  0  0  0  0  0  0
   -7.2645    9.8310  -13.7037 H   0  0  0  0  0  0  0  0  0  0  0  0
   -6.8899   12.2266  -14.0936 H   0  0  0  0  0  0  0  0  0  0  0  0
   -8.0434    9.6128   -7.2619 H   0  0  0  0  0  0  0  0  0  0  0  0
   -6.7368   12.3095   -6.9008 H   0  0  0  0  0  0  0  0  0  0  0  0
   -4.5068   13.2844   -6.4740 H   0  0  0  0  0  0  0  0  0  0  0  0
   -3.4394   12.0313   -8.2414 H   0  0  0  0  0  0  0  0  0  0  0  0
   -2.6633    9.7472   -8.0527 H   0  0  0  0  0  0  0  0  0  0  0  0
   -4.8922    8.7809   -8.4969 H   0  0  0  0  0  0  0  0  0  0  0  0
   -2.4158   14.2066   -6.2077 H   0  0  0  0  0  0  0  0  0  0  0  0
   -0.6640   10.5509   -7.5709 H   0  0  0  0  0  0  0  0  0  0  0  0
    1.5009   14.2685   -6.0560 H   0  0  0  0  0  0  0  0  0  0  0  0
    0.2588   15.4349   -6.6244 H   0  0  0  0  0  0  0  0  0  0  0  0
    0.1984   14.8070   -4.9425 H   0  0  0  0  0  0  0  0  0  0  0  0
   -2.9622   15.1711  -12.0469 H   0  0  0  0  0  0  0  0  0  0  0  0
   -4.2464   15.9849  -11.0903 H   0  0  0  0  0  0  0  0  0  0  0  0
   -3.3555   15.0059   -9.0807 H   0  0  0  0  0  0  0  0  0  0  0  0
   -4.9587   13.2414   -9.3350 H   0  0  0  0  0  0  0  0  0  0  0  0
   -3.7216   12.2489  -10.1783 H   0  0  0  0  0  0  0  0  0  0  0  0
    0.1412   14.5025  -10.2248 H   0  0  0  0  0  0  0  0  0  0  0  0
   -1.0556   15.5656  -11.0396 H   0  0  0  0  0  0  0  0  0  0  0  0
   -0.9185   15.5750   -9.2486 H   0  0  0  0  0  0  0  0  0  0  0  0
  1  2  1  0  0  0  0
  1  4  2  0  0  0  0
  1 12  1  0  0  0  0
  2  6  2  0  0  0  0
  3  4  1  0  0  0  0
  3  5  1  0  0  0  0
  5  6  1  0  0  0  0
  5  9  2  0  0  0  0
  6  7  1  0  0  0  0
  7  8  2  0  0  0  0
  7 10  1  0  0  0  0
  8  9  1  0  0  0  0
 10 14  2  0  0  0  0
 11 12  1  0  0  0  0
 11 26  1  0  0  0  0
 11 28  1  0  0  0  0
 12 13  2  0  0  0  0
 14 15  1  0  0  0  0
 14 19  1  0  0  0  0
 15 16  2  0  0  0  0
 16 17  1  0  0  0  0
 17 18  1  0  0  0  0
 17 20  1  0  0  0  0
 18 19  2  0  0  0  0
 20 21  2  0  0  0  0
 20 24  1  0  0  0  0
 21 22  1  0  0  0  0
 22 23  1  0  0  0  0
 22 25  1  0  0  0  0
 23 24  2  0  0  0  0
 26 27  1  0  0  0  0
 27 28  1  0  0  0  0
 27 29  1  0  0  0  0
 29 30  1  0  0  0  0
  2 31  1  0  0  0  0
  3 32  1  0  0  0  0
  3 33  1  0  0  0  0
  4 34  1  0  0  0  0
 10 35  1  0  0  0  0
 15 36  1  0  0  0  0
 16 37  1  0  0  0  0
 17 38  1  0  0  0  0
 18 39  1  0  0  0  0
 19 40  1  0  0  0  0
 21 41  1  0  0  0  0
 24 42  1  0  0  0  0
 25 43  1  0  0  0  0
 25 44  1  0  0  0  0
 25 45  1  0  0  0  0
 26 46  1  0  0  0  0
 26 47  1  0  0  0  0
 27 48  1  0  0  0  0
 28 49  1  0  0  0  0
 28 50  1  0  0  0  0
 30 51  1  0  0  0  0
 30 52  1  0  0  0  0
 30 53  1  0  0  0  0
M  END
> <Name>
36

> <IC50[uM]>
0.006

$$$$
36
  -OEChem-05192314333D
 Structure written by MMmdl.
 53 57  0     1  0  0  0  0  0999 V2000
   -6.3988   12.3548  -12.0167 C   0  0  3  0  0  0  0  0  0  0  0  0
   -6.5634   11.7828  -10.7362 C   0  0  0  0  0  0  0  0  0  0  0  0
   -7.7338   10.5694  -13.0370 C   0  0  0  0  0  0  0  0  0  0  0  0
   -6.9985   11.7556  -13.1278 C   0  0  0  0  0  0  0  0  0  0  0  0
   -7.8247    9.9971  -11.7595 C   0  0  0  0  0  0  0  0  0  0  0  0
   -7.2595   10.6059  -10.6156 C   0  0  0  0  0  0  0  0  0  0  0  0
   -7.6196    9.7377   -9.5218 C   0  0  0  0  0  0  0  0  0  0  0  0
   -8.2737    8.7166   -9.9897 N   0  0  0  0  0  0  0  0  0  0  0  0
   -8.4125    8.8485  -11.3029 N   0  0  0  0  0  0  0  0  0  0  0  0
   -7.3396    9.8926   -8.0318 C   0  0  0  0  0  0  0  0  0  0  0  0
   -4.5445   13.8618  -11.3707 N   0  0  0  0  0  0  0  0  0  0  0  0
   -5.5979   13.6472  -12.1806 C   0  0  0  0  0  0  0  0  0  0  0  0
   -5.9190   14.4711  -13.0424 O   0  0  0  0  0  0  0  0  0  0  0  0
   -5.9590   10.4852   -7.7375 C   0  0  0  0  0  0  0  0  0  0  0  0
   -5.8471   11.7541   -7.1585 C   0  0  0  0  0  0  0  0  0  0  0  0
   -4.5907   12.3017   -6.9141 C   0  0  0  0  0  0  0  0  0  0  0  0
   -3.4394   11.5818   -7.2374 C   0  0  0  0  0  0  0  0  0  0  0  0
   -3.5527   10.3083   -7.8066 C   0  0  0  0  0  0  0  0  0  0  0  0
   -4.8082    9.7633   -8.0562 C   0  0  0  0  0  0  0  0  0  0  0  0
   -2.0898   12.1596   -6.9778 C   0  0  0  0  0  0  0  0  0  0  0  0
   -1.7390   13.4130   -6.4881 C   0  0  0  0  0  0  0  0  0  0  0  0
   -0.3978   13.4480   -6.4305 N   0  0  0  0  0  0  0  0  0  0  0  0
    0.1868   12.3491   -6.8198 N   0  0  0  0  0  0  0  0  0  0  0  0
   -0.8044   11.5467   -7.1770 C   0  0  0  0  0  0  0  0  0  0  0  0
    0.4420   14.5581   -5.9859 C   0  0  0  0  0  0  0  0  0  0  0  0
   -3.7035   15.0408  -11.2447 C   0  0  0  0  0  0  0  0  0  0  0  0
   -3.1688   14.3872   -9.9709 C   0  0  0  0  0  0  0  0  0  0  0  0
   -4.1668   13.2516  -10.0984 C   0  0  0  0  0  0  0  0  0  0  0  0
   -1.8336   13.9158  -10.0706 O   0  0  0  0  0  0  0  0  0  0  0  0
   -0.8619   14.9477  -10.1504 C   0  0  0  0  0  0  0  0  0  0  0  0
   -5.4875   11.7597  -12.1757 H   0  0  0  0  0  0  0  0  0  0  0  0
   -6.1473   12.2646   -9.8638 H   0  0  0  0  0  0  0  0  0  0  0  0
   -8.2039   10.1205  -13.8995 H   0  0  0  0  0  0  0  0  0  0  0  0
   -6.8899   12.2266  -14.0936 H   0  0  0  0  0  0  0  0  0  0  0  0
   -8.0434    9.6128   -7.2619 H   0  0  0  0  0  0  0  0  0  0  0  0
   -6.7368   12.3095   -6.9008 H   0  0  0  0  0  0  0  0  0  0  0  0
   -4.5068   13.2844   -6.4740 H   0  0  0  0  0  0  0  0  0  0  0  0
   -2.6633    9.7472   -8.0527 H   0  0  0  0  0  0  0  0  0  0  0  0
   -4.8610    8.8182   -7.4958 H   0  0  0  0  0  0  0  0  0  0  0  0
   -4.8541    9.5530   -9.1349 H   0  0  0  0  0  0  0  0  0  0  0  0
   -2.4158   14.2066   -6.2077 H   0  0  0  0  0  0  0  0  0  0  0  0
   -0.6640   10.5509   -7.5709 H   0  0  0  0  0  0  0  0  0  0  0  0
    1.5009   14.2685   -6.0560 H   0  0  0  0  0  0  0  0  0  0  0  0
    0.2588   15.4349   -6.6244 H   0  0  0  0  0  0  0  0  0  0  0  0
    0.1984   14.8070   -4.9425 H   0  0  0  0  0  0  0  0  0  0  0  0
   -2.9622   15.1711  -12.0469 H   0  0  0  0  0  0  0  0  0  0  0  0
   -4.2464   15.9849  -11.0903 H   0  0  0  0  0  0  0  0  0  0  0  0
   -3.3555   15.0059   -9.0807 H   0  0  0  0  0  0  0  0  0  0  0  0
   -4.9587   13.2414   -9.3350 H   0  0  0  0  0  0  0  0  0  0  0  0
   -3.7216   12.2489  -10.1783 H   0  0  0  0  0  0  0  0  0  0  0  0
    0.1412   14.5025  -10.2248 H   0  0  0  0  0  0  0  0  0  0  0  0
   -1.0556   15.5656  -11.0396 H   0  0  0  0  0  0  0  0  0  0  0  0
   -0.9185   15.5750   -9.2486 H   0  0  0  0  0  0  0  0  0  0  0  0
  1  2  1  0  0  0  0
  1  4  1  0  0  0  0
  1 12  1  0  0  0  0
  2  6  2  0  0  0  0
  3  4  2  0  0  0  0
  3  5  1  0  0  0  0
  5  6  1  0  0  0  0
  5  9  2  0  0  0  0
  6  7  1  0  0  0  0
  7  8  2  0  0  0  0
  7 10  1  0  0  0  0
  8  9  1  0  0  0  0
 10 14  2  3  0  0  0
 11 12  1  0  0  0  0
 11 26  1  0  0  0  0
 11 28  1  0  0  0  0
 12 13  2  0  0  0  0
 14 15  1  0  0  0  0
 14 19  1  0  0  0  0
 15 16  2  0  0  0  0
 16 17  1  0  0  0  0
 17 18  2  0  0  0  0
 17 20  1  0  0  0  0
 18 19  1  0  0  0  0
 20 21  2  0  0  0  0
 20 24  1  0  0  0  0
 21 22  1  0  0  0  0
 22 23  1  0  0  0  0
 22 25  1  0  0  0  0
 23 24  2  0  0  0  0
 26 27  1  0  0  0  0
 27 28  1  0  0  0  0
 27 29  1  0  0  0  0
 29 30  1  0  0  0  0
  1 31  1  0  0  0  0
  2 32  1  0  0  0  0
  3 33  1  0  0  0  0
  4 34  1  0  0  0  0
 10 35  1  0  0  0  0
 15 36  1  0  0  0  0
 16 37  1  0  0  0  0
 18 38  1  0  0  0  0
 19 39  1  0  0  0  0
 19 40  1  0  0  0  0
 21 41  1  0  0  0  0
 24 42  1  0  0  0  0
 25 43  1  0  0  0  0
 25 44  1  0  0  0  0
 25 45  1  0  0  0  0
 26 46  1  0  0  0  0
 26 47  1  0  0  0  0
 27 48  1  0  0  0  0
 28 49  1  0  0  0  0
 28 50  1  0  0  0  0
 30 51  1  0  0  0  0
 30 52  1  0  0  0  0
 30 53  1  0  0  0  0
M  END
> <Name>
36

> <IC50[uM]>
0.006

$$$$
36
  -OEChem-05192314333D
 Structure written by MMmdl.
 53 57  0     1  0  0  0  0  0999 V2000
   -6.3988   12.3548  -12.0167 C   0  0  0  0  0  0  0  0  0  0  0  0
   -6.5634   11.7828  -10.7362 C   0  0  0  0  0  0  0  0  0  0  0  0
   -7.7338   10.5694  -13.0370 C   0  0  0  0  0  0  0  0  0  0  0  0
   -6.9985   11.7556  -13.1278 C   0  0  0  0  0  0  0  0  0  0  0  0
   -7.8247    9.9971  -11.7595 C   0  0  0  0  0  0  0  0  0  0  0  0
   -7.2595   10.6059  -10.6156 C   0  0  3  0  0  0  0  0  0  0  0  0
   -7.6196    9.7377   -9.5218 C   0  0  0  0  0  0  0  0  0  0  0  0
   -8.2737    8.7166   -9.9897 N   0  0  0  0  0  0  0  0  0  0  0  0
   -8.4125    8.8485  -11.3029 N   0  0  0  0  0  0  0  0  0  0  0  0
   -7.3396    9.8926   -8.0318 C   0  0  0  0  0  0  0  0  0  0  0  0
   -4.5445   13.8618  -11.3707 N   0  0  0  0  0  0  0  0  0  0  0  0
   -5.5979   13.6472  -12.1806 C   0  0  0  0  0  0  0  0  0  0  0  0
   -5.9190   14.4711  -13.0424 O   0  0  0  0  0  0  0  0  0  0  0  0
   -5.9590   10.4852   -7.7375 C   0  0  0  0  0  0  0  0  0  0  0  0
   -5.8471   11.7541   -7.1585 C   0  0  0  0  0  0  0  0  0  0  0  0
   -4.5907   12.3017   -6.9141 C   0  0  0  0  0  0  0  0  0  0  0  0
   -3.4394   11.5818   -7.2374 C   0  0  0  0  0  0  0  0  0  0  0  0
   -3.5527   10.3083   -7.8066 C   0  0  0  0  0  0  0  0  0  0  0  0
   -4.8082    9.7633   -8.0562 C   0  0  0  0  0  0  0  0  0  0  0  0
   -2.0898   12.1596   -6.9778 C   0  0  0  0  0  0  0  0  0  0  0  0
   -1.7390   13.4130   -6.4881 C   0  0  0  0  0  0  0  0  0  0  0  0
   -0.3978   13.4480   -6.4305 N   0  0  0  0  0  0  0  0  0  0  0  0
    0.1868   12.3491   -6.8198 N   0  0  0  0  0  0  0  0  0  0  0  0
   -0.8044   11.5467   -7.1770 C   0  0  0  0  0  0  0  0  0  0  0  0
    0.4420   14.5581   -5.9859 C   0  0  0  0  0  0  0  0  0  0  0  0
   -3.7035   15.0408  -11.2447 C   0  0  0  0  0  0  0  0  0  0  0  0
   -3.1688   14.3872   -9.9709 C   0  0  0  0  0  0  0  0  0  0  0  0
   -4.1668   13.2516  -10.0984 C   0  0  0  0  0  0  0  0  0  0  0  0
   -1.8336   13.9158  -10.0706 O   0  0  0  0  0  0  0  0  0  0  0  0
   -0.8619   14.9477  -10.1504 C   0  0  0  0  0  0  0  0  0  0  0  0
   -6.1473   12.2646   -9.8638 H   0  0  0  0  0  0  0  0  0  0  0  0
   -8.2039   10.1205  -13.8995 H   0  0  0  0  0  0  0  0  0  0  0  0
   -6.8899   12.2266  -14.0936 H   0  0  0  0  0  0  0  0  0  0  0  0
   -6.3306   10.0364  -10.7668 H   0  0  0  0  0  0  0  0  0  0  0  0
   -8.0434    9.6128   -7.2619 H   0  0  0  0  0  0  0  0  0  0  0  0
   -6.7368   12.3095   -6.9008 H   0  0  0  0  0  0  0  0  0  0  0  0
   -4.5068   13.2844   -6.4740 H   0  0  0  0  0  0  0  0  0  0  0  0
   -2.6633    9.7472   -8.0527 H   0  0  0  0  0  0  0  0  0  0  0  0
   -4.8610    8.8182   -7.4958 H   0  0  0  0  0  0  0  0  0  0  0  0
   -4.8541    9.5530   -9.1349 H   0  0  0  0  0  0  0  0  0  0  0  0
   -2.4158   14.2066   -6.2077 H   0  0  0  0  0  0  0  0  0  0  0  0
   -0.6640   10.5509   -7.5709 H   0  0  0  0  0  0  0  0  0  0  0  0
    1.5009   14.2685   -6.0560 H   0  0  0  0  0  0  0  0  0  0  0  0
    0.2588   15.4349   -6.6244 H   0  0  0  0  0  0  0  0  0  0  0  0
    0.1984   14.8070   -4.9425 H   0  0  0  0  0  0  0  0  0  0  0  0
   -2.9622   15.1711  -12.0469 H   0  0  0  0  0  0  0  0  0  0  0  0
   -4.2464   15.9849  -11.0903 H   0  0  0  0  0  0  0  0  0  0  0  0
   -3.3555   15.0059   -9.0807 H   0  0  0  0  0  0  0  0  0  0  0  0
   -4.9587   13.2414   -9.3350 H   0  0  0  0  0  0  0  0  0  0  0  0
   -3.7216   12.2489  -10.1783 H   0  0  0  0  0  0  0  0  0  0  0  0
    0.1412   14.5025  -10.2248 H   0  0  0  0  0  0  0  0  0  0  0  0
   -1.0556   15.5656  -11.0396 H   0  0  0  0  0  0  0  0  0  0  0  0
   -0.9185   15.5750   -9.2486 H   0  0  0  0  0  0  0  0  0  0  0  0
  1  2  2  0  0  0  0
  1  4  1  0  0  0  0
  1 12  1  0  0  0  0
  2  6  1  0  0  0  0
  3  4  2  0  0  0  0
  3  5  1  0  0  0  0
  5  6  1  0  0  0  0
  5  9  2  0  0  0  0
  6  7  1  0  0  0  0
  7  8  2  0  0  0  0
  7 10  1  0  0  0  0
  8  9  1  0  0  0  0
 10 14  2  3  0  0  0
 11 12  1  0  0  0  0
 11 26  1  0  0  0  0
 11 28  1  0  0  0  0
 12 13  2  0  0  0  0
 14 15  1  0  0  0  0
 14 19  1  0  0  0  0
 15 16  2  0  0  0  0
 16 17  1  0  0  0  0
 17 18  2  0  0  0  0
 17 20  1  0  0  0  0
 18 19  1  0  0  0  0
 20 21  2  0  0  0  0
 20 24  1  0  0  0  0
 21 22  1  0  0  0  0
 22 23  1  0  0  0  0
 22 25  1  0  0  0  0
 23 24  2  0  0  0  0
 26 27  1  0  0  0  0
 27 28  1  0  0  0  0
 27 29  1  0  0  0  0
 29 30  1  0  0  0  0
  2 31  1  0  0  0  0
  3 32  1  0  0  0  0
  4 33  1  0  0  0  0
  6 34  1  0  0  0  0
 10 35  1  0  0  0  0
 15 36  1  0  0  0  0
 16 37  1  0  0  0  0
 18 38  1  0  0  0  0
 19 39  1  0  0  0  0
 19 40  1  0  0  0  0
 21 41  1  0  0  0  0
 24 42  1  0  0  0  0
 25 43  1  0  0  0  0
 25 44  1  0  0  0  0
 25 45  1  0  0  0  0
 26 46  1  0  0  0  0
 26 47  1  0  0  0  0
 27 48  1  0  0  0  0
 28 49  1  0  0  0  0
 28 50  1  0  0  0  0
 30 51  1  0  0  0  0
 30 52  1  0  0  0  0
 30 53  1  0  0  0  0
M  END
> <Name>
36

> <IC50[uM]>
0.006

$$$$
36
  -OEChem-05192314333D
 Structure written by MMmdl.
 53 57  0     0  0  0  0  0  0999 V2000
   -6.3988   12.3548  -12.0167 C   0  0  0  0  0  0  0  0  0  0  0  0
   -6.5634   11.7828  -10.7362 C   0  0  0  0  0  0  0  0  0  0  0  0
   -7.7338   10.5694  -13.0370 C   0  0  0  0  0  0  0  0  0  0  0  0
   -6.9985   11.7556  -13.1278 C   0  0  0  0  0  0  0  0  0  0  0  0
   -7.8247    9.9971  -11.7595 C   0  0  0  0  0  0  0  0  0  0  0  0
   -7.2595   10.6059  -10.6156 C   0  0  0  0  0  0  0  0  0  0  0  0
   -7.6196    9.7377   -9.5218 C   0  0  0  0  0  0  0  0  0  0  0  0
   -8.2737    8.7166   -9.9897 N   0  0  0  0  0  0  0  0  0  0  0  0
   -8.4125    8.8485  -11.3029 N   0  0  0  0  0  0  0  0  0  0  0  0
   -7.3396    9.8926   -8.0318 C   0  0  0  0  0  0  0  0  0  0  0  0
   -4.5445   13.8618  -11.3707 N   0  0  0  0  0  0  0  0  0  0  0  0
   -5.5979   13.6472  -12.1806 C   0  0  0  0  0  0  0  0  0  0  0  0
   -5.9190   14.4711  -13.0424 O   0  0  0  0  0  0  0  0  0  0  0  0
   -5.9590   10.4852   -7.7375 C   0  0  0  0  0  0  0  0  0  0  0  0
   -5.8471   11.7541   -7.1585 C   0  0  0  0  0  0  0  0  0  0  0  0
   -4.5907   12.3017   -6.9141 C   0  0  0  0  0  0  0  0  0  0  0  0
   -3.4394   11.5818   -7.2374 C   0  0  0  0  0  0  0  0  0  0  0  0
   -3.5527   10.3083   -7.8066 C   0  0  0  0  0  0  0  0  0  0  0  0
   -4.8082    9.7633   -8.0562 C   0  0  0  0  0  0  0  0  0  0  0  0
   -2.0898   12.1596   -6.9778 C   0  0  0  0  0  0  0  0  0  0  0  0
   -1.7390   13.4130   -6.4881 C   0  0  0  0  0  0  0  0  0  0  0  0
   -0.3978   13.4480   -6.4305 N   0  0  0  0  0  0  0  0  0  0  0  0
    0.1868   12.3491   -6.8198 N   0  0  0  0  0  0  0  0  0  0  0  0
   -0.8044   11.5467   -7.1770 C   0  0  0  0  0  0  0  0  0  0  0  0
    0.4420   14.5581   -5.9859 C   0  0  0  0  0  0  0  0  0  0  0  0
   -3.7035   15.0408  -11.2447 C   0  0  0  0  0  0  0  0  0  0  0  0
   -3.1688   14.3872   -9.9709 C   0  0  0  0  0  0  0  0  0  0  0  0
   -4.1668   13.2516  -10.0984 C   0  0  0  0  0  0  0  0  0  0  0  0
   -1.8336   13.9158  -10.0706 O   0  0  0  0  0  0  0  0  0  0  0  0
   -0.8619   14.9477  -10.1504 C   0  0  0  0  0  0  0  0  0  0  0  0
   -6.1473   12.2646   -9.8638 H   0  0  0  0  0  0  0  0  0  0  0  0
   -8.7560   10.7799  -13.3847 H   0  0  0  0  0  0  0  0  0  0  0  0
   -7.2645    9.8310  -13.7037 H   0  0  0  0  0  0  0  0  0  0  0  0
   -6.8899   12.2266  -14.0936 H   0  0  0  0  0  0  0  0  0  0  0  0
   -8.0434    9.6128   -7.2619 H   0  0  0  0  0  0  0  0  0  0  0  0
   -6.7368   12.3095   -6.9008 H   0  0  0  0  0  0  0  0  0  0  0  0
   -4.5068   13.2844   -6.4740 H   0  0  0  0  0  0  0  0  0  0  0  0
   -2.6633    9.7472   -8.0527 H   0  0  0  0  0  0  0  0  0  0  0  0
   -4.8610    8.8182   -7.4958 H   0  0  0  0  0  0  0  0  0  0  0  0
   -4.8541    9.5530   -9.1349 H   0  0  0  0  0  0  0  0  0  0  0  0
   -2.4158   14.2066   -6.2077 H   0  0  0  0  0  0  0  0  0  0  0  0
   -0.6640   10.5509   -7.5709 H   0  0  0  0  0  0  0  0  0  0  0  0
    1.5009   14.2685   -6.0560 H   0  0  0  0  0  0  0  0  0  0  0  0
    0.2588   15.4349   -6.6244 H   0  0  0  0  0  0  0  0  0  0  0  0
    0.1984   14.8070   -4.9425 H   0  0  0  0  0  0  0  0  0  0  0  0
   -2.9622   15.1711  -12.0469 H   0  0  0  0  0  0  0  0  0  0  0  0
   -4.2464   15.9849  -11.0903 H   0  0  0  0  0  0  0  0  0  0  0  0
   -3.3555   15.0059   -9.0807 H   0  0  0  0  0  0  0  0  0  0  0  0
   -4.9587   13.2414   -9.3350 H   0  0  0  0  0  0  0  0  0  0  0  0
   -3.7216   12.2489  -10.1783 H   0  0  0  0  0  0  0  0  0  0  0  0
    0.1412   14.5025  -10.2248 H   0  0  0  0  0  0  0  0  0  0  0  0
   -1.0556   15.5656  -11.0396 H   0  0  0  0  0  0  0  0  0  0  0  0
   -0.9185   15.5750   -9.2486 H   0  0  0  0  0  0  0  0  0  0  0  0
  1  2  1  0  0  0  0
  1  4  2  0  0  0  0
  1 12  1  0  0  0  0
  2  6  2  0  0  0  0
  3  4  1  0  0  0  0
  3  5  1  0  0  0  0
  5  6  1  0  0  0  0
  5  9  2  0  0  0  0
  6  7  1  0  0  0  0
  7  8  2  0  0  0  0
  7 10  1  0  0  0  0
  8  9  1  0  0  0  0
 10 14  2  3  0  0  0
 11 12  1  0  0  0  0
 11 26  1  0  0  0  0
 11 28  1  0  0  0  0
 12 13  2  0  0  0  0
 14 15  1  0  0  0  0
 14 19  1  0  0  0  0
 15 16  2  0  0  0  0
 16 17  1  0  0  0  0
 17 18  2  0  0  0  0
 17 20  1  0  0  0  0
 18 19  1  0  0  0  0
 20 21  2  0  0  0  0
 20 24  1  0  0  0  0
 21 22  1  0  0  0  0
 22 23  1  0  0  0  0
 22 25  1  0  0  0  0
 23 24  2  0  0  0  0
 26 27  1  0  0  0  0
 27 28  1  0  0  0  0
 27 29  1  0  0  0  0
 29 30  1  0  0  0  0
  2 31  1  0  0  0  0
  3 32  1  0  0  0  0
  3 33  1  0  0  0  0
  4 34  1  0  0  0  0
 10 35  1  0  0  0  0
 15 36  1  0  0  0  0
 16 37  1  0  0  0  0
 18 38  1  0  0  0  0
 19 39  1  0  0  0  0
 19 40  1  0  0  0  0
 21 41  1  0  0  0  0
 24 42  1  0  0  0  0
 25 43  1  0  0  0  0
 25 44  1  0  0  0  0
 25 45  1  0  0  0  0
 26 46  1  0  0  0  0
 26 47  1  0  0  0  0
 27 48  1  0  0  0  0
 28 49  1  0  0  0  0
 28 50  1  0  0  0  0
 30 51  1  0  0  0  0
 30 52  1  0  0  0  0
 30 53  1  0  0  0  0
M  END
> <Name>
36

> <IC50[uM]>
0.006

$$$$
36
  -OEChem-05192314333D
 Structure written by MMmdl.
 53 57  0     1  0  0  0  0  0999 V2000
   -6.3988   12.3548  -12.0167 C   0  0  0  0  0  0  0  0  0  0  0  0
   -6.5634   11.7828  -10.7362 C   0  0  0  0  0  0  0  0  0  0  0  0
   -7.7338   10.5694  -13.0370 C   0  0  0  0  0  0  0  0  0  0  0  0
   -6.9985   11.7556  -13.1278 C   0  0  0  0  0  0  0  0  0  0  0  0
   -7.8247    9.9971  -11.7595 C   0  0  3  0  0  0  0  0  0  0  0  0
   -7.2595   10.6059  -10.6156 C   0  0  0  0  0  0  0  0  0  0  0  0
   -7.6196    9.7377   -9.5218 C   0  0  0  0  0  0  0  0  0  0  0  0
   -8.2737    8.7166   -9.9897 N   0  0  0  0  0  0  0  0  0  0  0  0
   -8.4125    8.8485  -11.3029 N   0  0  0  0  0  0  0  0  0  0  0  0
   -7.3396    9.8926   -8.0318 C   0  0  0  0  0  0  0  0  0  0  0  0
   -4.5445   13.8618  -11.3707 N   0  0  0  0  0  0  0  0  0  0  0  0
   -5.5979   13.6472  -12.1806 C   0  0  0  0  0  0  0  0  0  0  0  0
   -5.9190   14.4711  -13.0424 O   0  0  0  0  0  0  0  0  0  0  0  0
   -5.9590   10.4852   -7.7375 C   0  0  0  0  0  0  0  0  0  0  0  0
   -5.8471   11.7541   -7.1585 C   0  0  0  0  0  0  0  0  0  0  0  0
   -4.5907   12.3017   -6.9141 C   0  0  0  0  0  0  0  0  0  0  0  0
   -3.4394   11.5818   -7.2374 C   0  0  0  0  0  0  0  0  0  0  0  0
   -3.5527   10.3083   -7.8066 C   0  0  0  0  0  0  0  0  0  0  0  0
   -4.8082    9.7633   -8.0562 C   0  0  0  0  0  0  0  0  0  0  0  0
   -2.0898   12.1596   -6.9778 C   0  0  0  0  0  0  0  0  0  0  0  0
   -1.7390   13.4130   -6.4881 C   0  0  0  0  0  0  0  0  0  0  0  0
   -0.3978   13.4480   -6.4305 N   0  0  0  0  0  0  0  0  0  0  0  0
    0.1868   12.3491   -6.8198 N   0  0  0  0  0  0  0  0  0  0  0  0
   -0.8044   11.5467   -7.1770 C   0  0  0  0  0  0  0  0  0  0  0  0
    0.4420   14.5581   -5.9859 C   0  0  0  0  0  0  0  0  0  0  0  0
   -3.7035   15.0408  -11.2447 C   0  0  0  0  0  0  0  0  0  0  0  0
   -3.1688   14.3872   -9.9709 C   0  0  0  0  0  0  0  0  0  0  0  0
   -4.1668   13.2516  -10.0984 C   0  0  0  0  0  0  0  0  0  0  0  0
   -1.8336   13.9158  -10.0706 O   0  0  0  0  0  0  0  0  0  0  0  0
   -0.8619   14.9477  -10.1504 C   0  0  0  0  0  0  0  0  0  0  0  0
   -6.1473   12.2646   -9.8638 H   0  0  0  0  0  0  0  0  0  0  0  0
   -8.2039   10.1205  -13.8995 H   0  0  0  0  0  0  0  0  0  0  0  0
   -6.8899   12.2266  -14.0936 H   0  0  0  0  0  0  0  0  0  0  0  0
   -6.8865    9.4502  -11.9350 H   0  0  0  0  0  0  0  0  0  0  0  0
   -8.0434    9.6128   -7.2619 H   0  0  0  0  0  0  0  0  0  0  0  0
   -6.7368   12.3095   -6.9008 H   0  0  0  0  0  0  0  0  0  0  0  0
   -4.5068   13.2844   -6.4740 H   0  0  0  0  0  0  0  0  0  0  0  0
   -3.4394   12.0313   -8.2414 H   0  0  0  0  0  0  0  0  0  0  0  0
   -2.6633    9.7472   -8.0527 H   0  0  0  0  0  0  0  0  0  0  0  0
   -4.8922    8.7809   -8.4969 H   0  0  0  0  0  0  0  0  0  0  0  0
   -2.4158   14.2066   -6.2077 H   0  0  0  0  0  0  0  0  0  0  0  0
   -0.6640   10.5509   -7.5709 H   0  0  0  0  0  0  0  0  0  0  0  0
    1.5009   14.2685   -6.0560 H   0  0  0  0  0  0  0  0  0  0  0  0
    0.2588   15.4349   -6.6244 H   0  0  0  0  0  0  0  0  0  0  0  0
    0.1984   14.8070   -4.9425 H   0  0  0  0  0  0  0  0  0  0  0  0
   -2.9622   15.1711  -12.0469 H   0  0  0  0  0  0  0  0  0  0  0  0
   -4.2464   15.9849  -11.0903 H   0  0  0  0  0  0  0  0  0  0  0  0
   -3.3555   15.0059   -9.0807 H   0  0  0  0  0  0  0  0  0  0  0  0
   -4.9587   13.2414   -9.3350 H   0  0  0  0  0  0  0  0  0  0  0  0
   -3.7216   12.2489  -10.1783 H   0  0  0  0  0  0  0  0  0  0  0  0
    0.1412   14.5025  -10.2248 H   0  0  0  0  0  0  0  0  0  0  0  0
   -1.0556   15.5656  -11.0396 H   0  0  0  0  0  0  0  0  0  0  0  0
   -0.9185   15.5750   -9.2486 H   0  0  0  0  0  0  0  0  0  0  0  0
  1  2  2  0  0  0  0
  1  4  1  0  0  0  0
  1 12  1  0  0  0  0
  2  6  1  0  0  0  0
  3  4  2  0  0  0  0
  3  5  1  0  0  0  0
  5  6  1  0  0  0  0
  5  9  1  0  0  0  0
  6  7  2  0  0  0  0
  7  8  1  0  0  0  0
  7 10  1  0  0  0  0
  8  9  2  0  0  0  0
 10 14  2  0  0  0  0
 11 12  1  0  0  0  0
 11 26  1  0  0  0  0
 11 28  1  0  0  0  0
 12 13  2  0  0  0  0
 14 15  1  0  0  0  0
 14 19  1  0  0  0  0
 15 16  2  0  0  0  0
 16 17  1  0  0  0  0
 17 18  1  0  0  0  0
 17 20  1  0  0  0  0
 18 19  2  0  0  0  0
 20 21  2  0  0  0  0
 20 24  1  0  0  0  0
 21 22  1  0  0  0  0
 22 23  1  0  0  0  0
 22 25  1  0  0  0  0
 23 24  2  0  0  0  0
 26 27  1  0  0  0  0
 27 28  1  0  0  0  0
 27 29  1  0  0  0  0
 29 30  1  0  0  0  0
  2 31  1  0  0  0  0
  3 32  1  0  0  0  0
  4 33  1  0  0  0  0
  5 34  1  0  0  0  0
 10 35  1  0  0  0  0
 15 36  1  0  0  0  0
 16 37  1  0  0  0  0
 17 38  1  0  0  0  0
 18 39  1  0  0  0  0
 19 40  1  0  0  0  0
 21 41  1  0  0  0  0
 24 42  1  0  0  0  0
 25 43  1  0  0  0  0
 25 44  1  0  0  0  0
 25 45  1  0  0  0  0
 26 46  1  0  0  0  0
 26 47  1  0  0  0  0
 27 48  1  0  0  0  0
 28 49  1  0  0  0  0
 28 50  1  0  0  0  0
 30 51  1  0  0  0  0
 30 52  1  0  0  0  0
 30 53  1  0  0  0  0
M  END
> <Name>
36

> <IC50[uM]>
0.006

$$$$
36
  -OEChem-05192314333D
 Structure written by MMmdl.
 53 57  0     0  0  0  0  0  0999 V2000
   -6.3988   12.3548  -12.0167 C   0  0  0  0  0  0  0  0  0  0  0  0
   -6.5634   11.7828  -10.7362 C   0  0  0  0  0  0  0  0  0  0  0  0
   -7.7338   10.5694  -13.0370 C   0  0  0  0  0  0  0  0  0  0  0  0
   -6.9985   11.7556  -13.1278 C   0  0  0  0  0  0  0  0  0  0  0  0
   -7.8247    9.9971  -11.7595 C   0  0  0  0  0  0  0  0  0  0  0  0
   -7.2595   10.6059  -10.6156 C   0  0  0  0  0  0  0  0  0  0  0  0
   -7.6196    9.7377   -9.5218 C   0  0  0  0  0  0  0  0  0  0  0  0
   -8.2737    8.7166   -9.9897 N   0  0  0  0  0  0  0  0  0  0  0  0
   -8.4125    8.8485  -11.3029 N   0  0  0  0  0  0  0  0  0  0  0  0
   -7.3396    9.8926   -8.0318 C   0  0  0  0  0  0  0  0  0  0  0  0
   -4.5445   13.8618  -11.3707 N   0  0  0  0  0  0  0  0  0  0  0  0
   -5.5979   13.6472  -12.1806 C   0  0  0  0  0  0  0  0  0  0  0  0
   -5.9190   14.4711  -13.0424 O   0  0  0  0  0  0  0  0  0  0  0  0
   -5.9590   10.4852   -7.7375 C   0  0  0  0  0  0  0  0  0  0  0  0
   -5.8471   11.7541   -7.1585 C   0  0  0  0  0  0  0  0  0  0  0  0
   -4.5907   12.3017   -6.9141 C   0  0  0  0  0  0  0  0  0  0  0  0
   -3.4394   11.5818   -7.2374 C   0  0  0  0  0  0  0  0  0  0  0  0
   -3.5527   10.3083   -7.8066 C   0  0  0  0  0  0  0  0  0  0  0  0
   -4.8082    9.7633   -8.0562 C   0  0  0  0  0  0  0  0  0  0  0  0
   -2.0898   12.1596   -6.9778 C   0  0  0  0  0  0  0  0  0  0  0  0
   -1.7390   13.4130   -6.4881 C   0  0  0  0  0  0  0  0  0  0  0  0
   -0.3978   13.4480   -6.4305 N   0  0  0  0  0  0  0  0  0  0  0  0
    0.1868   12.3491   -6.8198 N   0  0  0  0  0  0  0  0  0  0  0  0
   -0.8044   11.5467   -7.1770 C   0  0  0  0  0  0  0  0  0  0  0  0
    0.4420   14.5581   -5.9859 C   0  0  0  0  0  0  0  0  0  0  0  0
   -3.7035   15.0408  -11.2447 C   0  0  0  0  0  0  0  0  0  0  0  0
   -3.1688   14.3872   -9.9709 C   0  0  0  0  0  0  0  0  0  0  0  0
   -4.1668   13.2516  -10.0984 C   0  0  0  0  0  0  0  0  0  0  0  0
   -1.8336   13.9158  -10.0706 O   0  0  0  0  0  0  0  0  0  0  0  0
   -0.8619   14.9477  -10.1504 C   0  0  0  0  0  0  0  0  0  0  0  0
   -6.1473   12.2646   -9.8638 H   0  0  0  0  0  0  0  0  0  0  0  0
   -8.2039   10.1205  -13.8995 H   0  0  0  0  0  0  0  0  0  0  0  0
   -7.6826   12.5075  -13.5482 H   0  0  0  0  0  0  0  0  0  0  0  0
   -6.1868   11.5577  -13.8433 H   0  0  0  0  0  0  0  0  0  0  0  0
   -8.0434    9.6128   -7.2619 H   0  0  0  0  0  0  0  0  0  0  0  0
   -6.7368   12.3095   -6.9008 H   0  0  0  0  0  0  0  0  0  0  0  0
   -4.5068   13.2844   -6.4740 H   0  0  0  0  0  0  0  0  0  0  0  0
   -3.4394   12.0313   -8.2414 H   0  0  0  0  0  0  0  0  0  0  0  0
   -2.6633    9.7472   -8.0527 H   0  0  0  0  0  0  0  0  0  0  0  0
   -4.8922    8.7809   -8.4969 H   0  0  0  0  0  0  0  0  0  0  0  0
   -2.4158   14.2066   -6.2077 H   0  0  0  0  0  0  0  0  0  0  0  0
   -0.6640   10.5509   -7.5709 H   0  0  0  0  0  0  0  0  0  0  0  0
    1.5009   14.2685   -6.0560 H   0  0  0  0  0  0  0  0  0  0  0  0
    0.2588   15.4349   -6.6244 H   0  0  0  0  0  0  0  0  0  0  0  0
    0.1984   14.8070   -4.9425 H   0  0  0  0  0  0  0  0  0  0  0  0
   -2.9622   15.1711  -12.0469 H   0  0  0  0  0  0  0  0  0  0  0  0
   -4.2464   15.9849  -11.0903 H   0  0  0  0  0  0  0  0  0  0  0  0
   -3.3555   15.0059   -9.0807 H   0  0  0  0  0  0  0  0  0  0  0  0
   -4.9587   13.2414   -9.3350 H   0  0  0  0  0  0  0  0  0  0  0  0
   -3.7216   12.2489  -10.1783 H   0  0  0  0  0  0  0  0  0  0  0  0
    0.1412   14.5025  -10.2248 H   0  0  0  0  0  0  0  0  0  0  0  0
   -1.0556   15.5656  -11.0396 H   0  0  0  0  0  0  0  0  0  0  0  0
   -0.9185   15.5750   -9.2486 H   0  0  0  0  0  0  0  0  0  0  0  0
  1  2  2  0  0  0  0
  1  4  1  0  0  0  0
  1 12  1  0  0  0  0
  2  6  1  0  0  0  0
  3  4  1  0  0  0  0
  3  5  2  0  0  0  0
  5  6  1  0  0  0  0
  5  9  1  0  0  0  0
  6  7  2  0  0  0  0
  7  8  1  0  0  0  0
  7 10  1  0  0  0  0
  8  9  2  0  0  0  0
 10 14  2  0  0  0  0
 11 12  1  0  0  0  0
 11 26  1  0  0  0  0
 11 28  1  0  0  0  0
 12 13  2  0  0  0  0
 14 15  1  0  0  0  0
 14 19  1  0  0  0  0
 15 16  2  0  0  0  0
 16 17  1  0  0  0  0
 17 18  1  0  0  0  0
 17 20  1  0  0  0  0
 18 19  2  0  0  0  0
 20 21  2  0  0  0  0
 20 24  1  0  0  0  0
 21 22  1  0  0  0  0
 22 23  1  0  0  0  0
 22 25  1  0  0  0  0
 23 24  2  0  0  0  0
 26 27  1  0  0  0  0
 27 28  1  0  0  0  0
 27 29  1  0  0  0  0
 29 30  1  0  0  0  0
  2 31  1  0  0  0  0
  3 32  1  0  0  0  0
  4 33  1  0  0  0  0
  4 34  1  0  0  0  0
 10 35  1  0  0  0  0
 15 36  1  0  0  0  0
 16 37  1  0  0  0  0
 17 38  1  0  0  0  0
 18 39  1  0  0  0  0
 19 40  1  0  0  0  0
 21 41  1  0  0  0  0
 24 42  1  0  0  0  0
 25 43  1  0  0  0  0
 25 44  1  0  0  0  0
 25 45  1  0  0  0  0
 26 46  1  0  0  0  0
 26 47  1  0  0  0  0
 27 48  1  0  0  0  0
 28 49  1  0  0  0  0
 28 50  1  0  0  0  0
 30 51  1  0  0  0  0
 30 52  1  0  0  0  0
 30 53  1  0  0  0  0
M  END
> <Name>
36

> <IC50[uM]>
0.006

$$$$
36
  -OEChem-05192314333D
 Structure written by MMmdl.
 53 57  0     1  0  0  0  0  0999 V2000
   -6.3988   12.3548  -12.0167 C   0  0  0  0  0  0  0  0  0  0  0  0
   -6.5634   11.7828  -10.7362 C   0  0  0  0  0  0  0  0  0  0  0  0
   -7.7338   10.5694  -13.0370 C   0  0  0  0  0  0  0  0  0  0  0  0
   -6.9985   11.7556  -13.1278 C   0  0  0  0  0  0  0  0  0  0  0  0
   -7.8247    9.9971  -11.7595 C   0  0  3  0  0  0  0  0  0  0  0  0
   -7.2595   10.6059  -10.6156 C   0  0  0  0  0  0  0  0  0  0  0  0
   -7.6196    9.7377   -9.5218 C   0  0  0  0  0  0  0  0  0  0  0  0
   -8.2737    8.7166   -9.9897 N   0  0  0  0  0  0  0  0  0  0  0  0
   -8.4125    8.8485  -11.3029 N   0  0  0  0  0  0  0  0  0  0  0  0
   -7.3396    9.8926   -8.0318 C   0  0  0  0  0  0  0  0  0  0  0  0
   -4.5445   13.8618  -11.3707 N   0  0  0  0  0  0  0  0  0  0  0  0
   -5.5979   13.6472  -12.1806 C   0  0  0  0  0  0  0  0  0  0  0  0
   -5.9190   14.4711  -13.0424 O   0  0  0  0  0  0  0  0  0  0  0  0
   -5.9590   10.4852   -7.7375 C   0  0  0  0  0  0  0  0  0  0  0  0
   -5.8471   11.7541   -7.1585 C   0  0  0  0  0  0  0  0  0  0  0  0
   -4.5907   12.3017   -6.9141 C   0  0  0  0  0  0  0  0  0  0  0  0
   -3.4394   11.5818   -7.2374 C   0  0  0  0  0  0  0  0  0  0  0  0
   -3.5527   10.3083   -7.8066 C   0  0  0  0  0  0  0  0  0  0  0  0
   -4.8082    9.7633   -8.0562 C   0  0  0  0  0  0  0  0  0  0  0  0
   -2.0898   12.1596   -6.9778 C   0  0  0  0  0  0  0  0  0  0  0  0
   -1.7390   13.4130   -6.4881 C   0  0  0  0  0  0  0  0  0  0  0  0
   -0.3978   13.4480   -6.4305 N   0  0  0  0  0  0  0  0  0  0  0  0
    0.1868   12.3491   -6.8198 N   0  0  0  0  0  0  0  0  0  0  0  0
   -0.8044   11.5467   -7.1770 C   0  0  0  0  0  0  0  0  0  0  0  0
    0.4420   14.5581   -5.9859 C   0  0  0  0  0  0  0  0  0  0  0  0
   -3.7035   15.0408  -11.2447 C   0  0  0  0  0  0  0  0  0  0  0  0
   -3.1688   14.3872   -9.9709 C   0  0  0  0  0  0  0  0  0  0  0  0
   -4.1668   13.2516  -10.0984 C   0  0  0  0  0  0  0  0  0  0  0  0
   -1.8336   13.9158  -10.0706 O   0  0  0  0  0  0  0  0  0  0  0  0
   -0.8619   14.9477  -10.1504 C   0  0  0  0  0  0  0  0  0  0  0  0
   -6.1473   12.2646   -9.8638 H   0  0  0  0  0  0  0  0  0  0  0  0
   -8.2039   10.1205  -13.8995 H   0  0  0  0  0  0  0  0  0  0  0  0
   -6.8899   12.2266  -14.0936 H   0  0  0  0  0  0  0  0  0  0  0  0
   -6.8865    9.4502  -11.9350 H   0  0  0  0  0  0  0  0  0  0  0  0
   -8.0434    9.6128   -7.2619 H   0  0  0  0  0  0  0  0  0  0  0  0
   -6.7368   12.3095   -6.9008 H   0  0  0  0  0  0  0  0  0  0  0  0
   -4.5068   13.2844   -6.4740 H   0  0  0  0  0  0  0  0  0  0  0  0
   -2.6633    9.7472   -8.0527 H   0  0  0  0  0  0  0  0  0  0  0  0
   -4.8610    8.8182   -7.4958 H   0  0  0  0  0  0  0  0  0  0  0  0
   -4.8541    9.5530   -9.1349 H   0  0  0  0  0  0  0  0  0  0  0  0
   -2.4158   14.2066   -6.2077 H   0  0  0  0  0  0  0  0  0  0  0  0
   -0.6640   10.5509   -7.5709 H   0  0  0  0  0  0  0  0  0  0  0  0
    1.5009   14.2685   -6.0560 H   0  0  0  0  0  0  0  0  0  0  0  0
    0.2588   15.4349   -6.6244 H   0  0  0  0  0  0  0  0  0  0  0  0
    0.1984   14.8070   -4.9425 H   0  0  0  0  0  0  0  0  0  0  0  0
   -2.9622   15.1711  -12.0469 H   0  0  0  0  0  0  0  0  0  0  0  0
   -4.2464   15.9849  -11.0903 H   0  0  0  0  0  0  0  0  0  0  0  0
   -3.3555   15.0059   -9.0807 H   0  0  0  0  0  0  0  0  0  0  0  0
   -4.9587   13.2414   -9.3350 H   0  0  0  0  0  0  0  0  0  0  0  0
   -3.7216   12.2489  -10.1783 H   0  0  0  0  0  0  0  0  0  0  0  0
    0.1412   14.5025  -10.2248 H   0  0  0  0  0  0  0  0  0  0  0  0
   -1.0556   15.5656  -11.0396 H   0  0  0  0  0  0  0  0  0  0  0  0
   -0.9185   15.5750   -9.2486 H   0  0  0  0  0  0  0  0  0  0  0  0
  1  2  2  0  0  0  0
  1  4  1  0  0  0  0
  1 12  1  0  0  0  0
  2  6  1  0  0  0  0
  3  4  2  0  0  0  0
  3  5  1  0  0  0  0
  5  6  1  0  0  0  0
  5  9  1  0  0  0  0
  6  7  2  0  0  0  0
  7  8  1  0  0  0  0
  7 10  1  0  0  0  0
  8  9  2  0  0  0  0
 10 14  2  3  0  0  0
 11 12  1  0  0  0  0
 11 26  1  0  0  0  0
 11 28  1  0  0  0  0
 12 13  2  0  0  0  0
 14 15  1  0  0  0  0
 14 19  1  0  0  0  0
 15 16  2  0  0  0  0
 16 17  1  0  0  0  0
 17 18  2  0  0  0  0
 17 20  1  0  0  0  0
 18 19  1  0  0  0  0
 20 21  2  0  0  0  0
 20 24  1  0  0  0  0
 21 22  1  0  0  0  0
 22 23  1  0  0  0  0
 22 25  1  0  0  0  0
 23 24  2  0  0  0  0
 26 27  1  0  0  0  0
 27 28  1  0  0  0  0
 27 29  1  0  0  0  0
 29 30  1  0  0  0  0
  2 31  1  0  0  0  0
  3 32  1  0  0  0  0
  4 33  1  0  0  0  0
  5 34  1  0  0  0  0
 10 35  1  0  0  0  0
 15 36  1  0  0  0  0
 16 37  1  0  0  0  0
 18 38  1  0  0  0  0
 19 39  1  0  0  0  0
 19 40  1  0  0  0  0
 21 41  1  0  0  0  0
 24 42  1  0  0  0  0
 25 43  1  0  0  0  0
 25 44  1  0  0  0  0
 25 45  1  0  0  0  0
 26 46  1  0  0  0  0
 26 47  1  0  0  0  0
 27 48  1  0  0  0  0
 28 49  1  0  0  0  0
 28 50  1  0  0  0  0
 30 51  1  0  0  0  0
 30 52  1  0  0  0  0
 30 53  1  0  0  0  0
M  END
> <Name>
36

> <IC50[uM]>
0.006

$$$$
36
  -OEChem-05192314333D
 Structure written by MMmdl.
 53 57  0     0  0  0  0  0  0999 V2000
   -6.3988   12.3548  -12.0167 C   0  0  0  0  0  0  0  0  0  0  0  0
   -6.5634   11.7828  -10.7362 C   0  0  0  0  0  0  0  0  0  0  0  0
   -7.7338   10.5694  -13.0370 C   0  0  0  0  0  0  0  0  0  0  0  0
   -6.9985   11.7556  -13.1278 C   0  0  0  0  0  0  0  0  0  0  0  0
   -7.8247    9.9971  -11.7595 C   0  0  0  0  0  0  0  0  0  0  0  0
   -7.2595   10.6059  -10.6156 C   0  0  0  0  0  0  0  0  0  0  0  0
   -7.6196    9.7377   -9.5218 C   0  0  0  0  0  0  0  0  0  0  0  0
   -8.2737    8.7166   -9.9897 N   0  0  0  0  0  0  0  0  0  0  0  0
   -8.4125    8.8485  -11.3029 N   0  0  0  0  0  0  0  0  0  0  0  0
   -7.3396    9.8926   -8.0318 C   0  0  0  0  0  0  0  0  0  0  0  0
   -4.5445   13.8618  -11.3707 N   0  0  0  0  0  0  0  0  0  0  0  0
   -5.5979   13.6472  -12.1806 C   0  0  0  0  0  0  0  0  0  0  0  0
   -5.9190   14.4711  -13.0424 O   0  0  0  0  0  0  0  0  0  0  0  0
   -5.9590   10.4852   -7.7375 C   0  0  0  0  0  0  0  0  0  0  0  0
   -5.8471   11.7541   -7.1585 C   0  0  0  0  0  0  0  0  0  0  0  0
   -4.5907   12.3017   -6.9141 C   0  0  0  0  0  0  0  0  0  0  0  0
   -3.4394   11.5818   -7.2374 C   0  0  0  0  0  0  0  0  0  0  0  0
   -3.5527   10.3083   -7.8066 C   0  0  0  0  0  0  0  0  0  0  0  0
   -4.8082    9.7633   -8.0562 C   0  0  0  0  0  0  0  0  0  0  0  0
   -2.0898   12.1596   -6.9778 C   0  0  0  0  0  0  0  0  0  0  0  0
   -1.7390   13.4130   -6.4881 C   0  0  0  0  0  0  0  0  0  0  0  0
   -0.3978   13.4480   -6.4305 N   0  0  0  0  0  0  0  0  0  0  0  0
    0.1868   12.3491   -6.8198 N   0  0  0  0  0  0  0  0  0  0  0  0
   -0.8044   11.5467   -7.1770 C   0  0  0  0  0  0  0  0  0  0  0  0
    0.4420   14.5581   -5.9859 C   0  0  0  0  0  0  0  0  0  0  0  0
   -3.7035   15.0408  -11.2447 C   0  0  0  0  0  0  0  0  0  0  0  0
   -3.1688   14.3872   -9.9709 C   0  0  0  0  0  0  0  0  0  0  0  0
   -4.1668   13.2516  -10.0984 C   0  0  0  0  0  0  0  0  0  0  0  0
   -1.8336   13.9158  -10.0706 O   0  0  0  0  0  0  0  0  0  0  0  0
   -0.8619   14.9477  -10.1504 C   0  0  0  0  0  0  0  0  0  0  0  0
   -6.1473   12.2646   -9.8638 H   0  0  0  0  0  0  0  0  0  0  0  0
   -8.2039   10.1205  -13.8995 H   0  0  0  0  0  0  0  0  0  0  0  0
   -7.6826   12.5075  -13.5482 H   0  0  0  0  0  0  0  0  0  0  0  0
   -6.1868   11.5577  -13.8433 H   0  0  0  0  0  0  0  0  0  0  0  0
   -8.0434    9.6128   -7.2619 H   0  0  0  0  0  0  0  0  0  0  0  0
   -6.7368   12.3095   -6.9008 H   0  0  0  0  0  0  0  0  0  0  0  0
   -4.5068   13.2844   -6.4740 H   0  0  0  0  0  0  0  0  0  0  0  0
   -2.6633    9.7472   -8.0527 H   0  0  0  0  0  0  0  0  0  0  0  0
   -4.8610    8.8182   -7.4958 H   0  0  0  0  0  0  0  0  0  0  0  0
   -4.8541    9.5530   -9.1349 H   0  0  0  0  0  0  0  0  0  0  0  0
   -2.4158   14.2066   -6.2077 H   0  0  0  0  0  0  0  0  0  0  0  0
   -0.6640   10.5509   -7.5709 H   0  0  0  0  0  0  0  0  0  0  0  0
    1.5009   14.2685   -6.0560 H   0  0  0  0  0  0  0  0  0  0  0  0
    0.2588   15.4349   -6.6244 H   0  0  0  0  0  0  0  0  0  0  0  0
    0.1984   14.8070   -4.9425 H   0  0  0  0  0  0  0  0  0  0  0  0
   -2.9622   15.1711  -12.0469 H   0  0  0  0  0  0  0  0  0  0  0  0
   -4.2464   15.9849  -11.0903 H   0  0  0  0  0  0  0  0  0  0  0  0
   -3.3555   15.0059   -9.0807 H   0  0  0  0  0  0  0  0  0  0  0  0
   -4.9587   13.2414   -9.3350 H   0  0  0  0  0  0  0  0  0  0  0  0
   -3.7216   12.2489  -10.1783 H   0  0  0  0  0  0  0  0  0  0  0  0
    0.1412   14.5025  -10.2248 H   0  0  0  0  0  0  0  0  0  0  0  0
   -1.0556   15.5656  -11.0396 H   0  0  0  0  0  0  0  0  0  0  0  0
   -0.9185   15.5750   -9.2486 H   0  0  0  0  0  0  0  0  0  0  0  0
  1  2  2  0  0  0  0
  1  4  1  0  0  0  0
  1 12  1  0  0  0  0
  2  6  1  0  0  0  0
  3  4  1  0  0  0  0
  3  5  2  0  0  0  0
  5  6  1  0  0  0  0
  5  9  1  0  0  0  0
  6  7  2  0  0  0  0
  7  8  1  0  0  0  0
  7 10  1  0  0  0  0
  8  9  2  0  0  0  0
 10 14  2  3  0  0  0
 11 12  1  0  0  0  0
 11 26  1  0  0  0  0
 11 28  1  0  0  0  0
 12 13  2  0  0  0  0
 14 15  1  0  0  0  0
 14 19  1  0  0  0  0
 15 16  2  0  0  0  0
 16 17  1  0  0  0  0
 17 18  2  0  0  0  0
 17 20  1  0  0  0  0
 18 19  1  0  0  0  0
 20 21  2  0  0  0  0
 20 24  1  0  0  0  0
 21 22  1  0  0  0  0
 22 23  1  0  0  0  0
 22 25  1  0  0  0  0
 23 24  2  0  0  0  0
 26 27  1  0  0  0  0
 27 28  1  0  0  0  0
 27 29  1  0  0  0  0
 29 30  1  0  0  0  0
  2 31  1  0  0  0  0
  3 32  1  0  0  0  0
  4 33  1  0  0  0  0
  4 34  1  0  0  0  0
 10 35  1  0  0  0  0
 15 36  1  0  0  0  0
 16 37  1  0  0  0  0
 18 38  1  0  0  0  0
 19 39  1  0  0  0  0
 19 40  1  0  0  0  0
 21 41  1  0  0  0  0
 24 42  1  0  0  0  0
 25 43  1  0  0  0  0
 25 44  1  0  0  0  0
 25 45  1  0  0  0  0
 26 46  1  0  0  0  0
 26 47  1  0  0  0  0
 27 48  1  0  0  0  0
 28 49  1  0  0  0  0
 28 50  1  0  0  0  0
 30 51  1  0  0  0  0
 30 52  1  0  0  0  0
 30 53  1  0  0  0  0
M  END
> <Name>
36

> <IC50[uM]>
0.006

$$$$
36
  -OEChem-05192314333D
 Structure written by MMmdl.
 53 57  0     0  0  0  0  0  0999 V2000
   -6.3988   12.3548  -12.0167 C   0  0  0  0  0  0  0  0  0  0  0  0
   -6.5634   11.7828  -10.7362 C   0  0  0  0  0  0  0  0  0  0  0  0
   -7.7338   10.5694  -13.0370 C   0  0  0  0  0  0  0  0  0  0  0  0
   -6.9985   11.7556  -13.1278 C   0  0  0  0  0  0  0  0  0  0  0  0
   -7.8247    9.9971  -11.7595 C   0  0  0  0  0  0  0  0  0  0  0  0
   -7.2595   10.6059  -10.6156 C   0  0  0  0  0  0  0  0  0  0  0  0
   -7.6196    9.7377   -9.5218 C   0  0  0  0  0  0  0  0  0  0  0  0
   -8.2737    8.7166   -9.9897 N   0  0  0  0  0  0  0  0  0  0  0  0
   -8.4125    8.8485  -11.3029 N   0  0  0  0  0  0  0  0  0  0  0  0
   -7.3396    9.8926   -8.0318 C   0  0  0  0  0  0  0  0  0  0  0  0
   -4.5445   13.8618  -11.3707 N   0  0  0  0  0  0  0  0  0  0  0  0
   -5.5979   13.6472  -12.1806 C   0  0  0  0  0  0  0  0  0  0  0  0
   -5.9190   14.4711  -13.0424 O   0  0  0  0  0  0  0  0  0  0  0  0
   -5.9590   10.4852   -7.7375 C   0  0  0  0  0  0  0  0  0  0  0  0
   -5.8471   11.7541   -7.1585 C   0  0  0  0  0  0  0  0  0  0  0  0
   -4.5907   12.3017   -6.9141 C   0  0  0  0  0  0  0  0  0  0  0  0
   -3.4394   11.5818   -7.2374 C   0  0  0  0  0  0  0  0  0  0  0  0
   -3.5527   10.3083   -7.8066 C   0  0  0  0  0  0  0  0  0  0  0  0
   -4.8082    9.7633   -8.0562 C   0  0  0  0  0  0  0  0  0  0  0  0
   -2.0898   12.1596   -6.9778 C   0  0  0  0  0  0  0  0  0  0  0  0
   -1.7390   13.4130   -6.4881 C   0  0  0  0  0  0  0  0  0  0  0  0
   -0.3978   13.4480   -6.4305 N   0  0  0  0  0  0  0  0  0  0  0  0
    0.1868   12.3491   -6.8198 N   0  0  0  0  0  0  0  0  0  0  0  0
   -0.8044   11.5467   -7.1770 C   0  0  0  0  0  0  0  0  0  0  0  0
    0.4420   14.5581   -5.9859 C   0  0  0  0  0  0  0  0  0  0  0  0
   -3.7035   15.0408  -11.2447 C   0  0  0  0  0  0  0  0  0  0  0  0
   -3.1688   14.3872   -9.9709 C   0  0  0  0  0  0  0  0  0  0  0  0
   -4.1668   13.2516  -10.0984 C   0  0  0  0  0  0  0  0  0  0  0  0
   -1.8336   13.9158  -10.0706 O   0  0  0  0  0  0  0  0  0  0  0  0
   -0.8619   14.9477  -10.1504 C   0  0  0  0  0  0  0  0  0  0  0  0
   -5.5563   11.6040  -10.3316 H   0  0  0  0  0  0  0  0  0  0  0  0
   -7.0812   12.5282  -10.1148 H   0  0  0  0  0  0  0  0  0  0  0  0
   -8.2039   10.1205  -13.8995 H   0  0  0  0  0  0  0  0  0  0  0  0
   -6.8899   12.2266  -14.0936 H   0  0  0  0  0  0  0  0  0  0  0  0
   -8.0434    9.6128   -7.2619 H   0  0  0  0  0  0  0  0  0  0  0  0
   -6.7368   12.3095   -6.9008 H   0  0  0  0  0  0  0  0  0  0  0  0
   -4.5068   13.2844   -6.4740 H   0  0  0  0  0  0  0  0  0  0  0  0
   -3.4394   12.0313   -8.2414 H   0  0  0  0  0  0  0  0  0  0  0  0
   -2.6633    9.7472   -8.0527 H   0  0  0  0  0  0  0  0  0  0  0  0
   -4.8922    8.7809   -8.4969 H   0  0  0  0  0  0  0  0  0  0  0  0
   -2.4158   14.2066   -6.2077 H   0  0  0  0  0  0  0  0  0  0  0  0
   -0.6640   10.5509   -7.5709 H   0  0  0  0  0  0  0  0  0  0  0  0
    1.5009   14.2685   -6.0560 H   0  0  0  0  0  0  0  0  0  0  0  0
    0.2588   15.4349   -6.6244 H   0  0  0  0  0  0  0  0  0  0  0  0
    0.1984   14.8070   -4.9425 H   0  0  0  0  0  0  0  0  0  0  0  0
   -2.9622   15.1711  -12.0469 H   0  0  0  0  0  0  0  0  0  0  0  0
   -4.2464   15.9849  -11.0903 H   0  0  0  0  0  0  0  0  0  0  0  0
   -3.3555   15.0059   -9.0807 H   0  0  0  0  0  0  0  0  0  0  0  0
   -4.9587   13.2414   -9.3350 H   0  0  0  0  0  0  0  0  0  0  0  0
   -3.7216   12.2489  -10.1783 H   0  0  0  0  0  0  0  0  0  0  0  0
    0.1412   14.5025  -10.2248 H   0  0  0  0  0  0  0  0  0  0  0  0
   -1.0556   15.5656  -11.0396 H   0  0  0  0  0  0  0  0  0  0  0  0
   -0.9185   15.5750   -9.2486 H   0  0  0  0  0  0  0  0  0  0  0  0
  1  2  1  0  0  0  0
  1  4  2  0  0  0  0
  1 12  1  0  0  0  0
  2  6  1  0  0  0  0
  3  4  1  0  0  0  0
  3  5  2  0  0  0  0
  5  6  1  0  0  0  0
  5  9  1  0  0  0  0
  6  7  2  0  0  0  0
  7  8  1  0  0  0  0
  7 10  1  0  0  0  0
  8  9  2  0  0  0  0
 10 14  2  0  0  0  0
 11 12  1  0  0  0  0
 11 26  1  0  0  0  0
 11 28  1  0  0  0  0
 12 13  2  0  0  0  0
 14 15  1  0  0  0  0
 14 19  1  0  0  0  0
 15 16  2  0  0  0  0
 16 17  1  0  0  0  0
 17 18  1  0  0  0  0
 17 20  1  0  0  0  0
 18 19  2  0  0  0  0
 20 21  2  0  0  0  0
 20 24  1  0  0  0  0
 21 22  1  0  0  0  0
 22 23  1  0  0  0  0
 22 25  1  0  0  0  0
 23 24  2  0  0  0  0
 26 27  1  0  0  0  0
 27 28  1  0  0  0  0
 27 29  1  0  0  0  0
 29 30  1  0  0  0  0
  2 31  1  0  0  0  0
  2 32  1  0  0  0  0
  3 33  1  0  0  0  0
  4 34  1  0  0  0  0
 10 35  1  0  0  0  0
 15 36  1  0  0  0  0
 16 37  1  0  0  0  0
 17 38  1  0  0  0  0
 18 39  1  0  0  0  0
 19 40  1  0  0  0  0
 21 41  1  0  0  0  0
 24 42  1  0  0  0  0
 25 43  1  0  0  0  0
 25 44  1  0  0  0  0
 25 45  1  0  0  0  0
 26 46  1  0  0  0  0
 26 47  1  0  0  0  0
 27 48  1  0  0  0  0
 28 49  1  0  0  0  0
 28 50  1  0  0  0  0
 30 51  1  0  0  0  0
 30 52  1  0  0  0  0
 30 53  1  0  0  0  0
M  END
> <Name>
36

> <IC50[uM]>
0.006

$$$$
36
  -OEChem-05192314333D
 Structure written by MMmdl.
 53 57  0     0  0  0  0  0  0999 V2000
   -6.3988   12.3548  -12.0167 C   0  0  0  0  0  0  0  0  0  0  0  0
   -6.5634   11.7828  -10.7362 C   0  0  0  0  0  0  0  0  0  0  0  0
   -7.7338   10.5694  -13.0370 C   0  0  0  0  0  0  0  0  0  0  0  0
   -6.9985   11.7556  -13.1278 C   0  0  0  0  0  0  0  0  0  0  0  0
   -7.8247    9.9971  -11.7595 C   0  0  0  0  0  0  0  0  0  0  0  0
   -7.2595   10.6059  -10.6156 C   0  0  0  0  0  0  0  0  0  0  0  0
   -7.6196    9.7377   -9.5218 C   0  0  0  0  0  0  0  0  0  0  0  0
   -8.2737    8.7166   -9.9897 N   0  0  0  0  0  0  0  0  0  0  0  0
   -8.4125    8.8485  -11.3029 N   0  0  0  0  0  0  0  0  0  0  0  0
   -7.3396    9.8926   -8.0318 C   0  0  0  0  0  0  0  0  0  0  0  0
   -4.5445   13.8618  -11.3707 N   0  0  0  0  0  0  0  0  0  0  0  0
   -5.5979   13.6472  -12.1806 C   0  0  0  0  0  0  0  0  0  0  0  0
   -5.9190   14.4711  -13.0424 O   0  0  0  0  0  0  0  0  0  0  0  0
   -5.9590   10.4852   -7.7375 C   0  0  0  0  0  0  0  0  0  0  0  0
   -5.8471   11.7541   -7.1585 C   0  0  0  0  0  0  0  0  0  0  0  0
   -4.5907   12.3017   -6.9141 C   0  0  0  0  0  0  0  0  0  0  0  0
   -3.4394   11.5818   -7.2374 C   0  0  0  0  0  0  0  0  0  0  0  0
   -3.5527   10.3083   -7.8066 C   0  0  0  0  0  0  0  0  0  0  0  0
   -4.8082    9.7633   -8.0562 C   0  0  0  0  0  0  0  0  0  0  0  0
   -2.0898   12.1596   -6.9778 C   0  0  0  0  0  0  0  0  0  0  0  0
   -1.7390   13.4130   -6.4881 C   0  0  0  0  0  0  0  0  0  0  0  0
   -0.3978   13.4480   -6.4305 N   0  0  0  0  0  0  0  0  0  0  0  0
    0.1868   12.3491   -6.8198 N   0  0  0  0  0  0  0  0  0  0  0  0
   -0.8044   11.5467   -7.1770 C   0  0  0  0  0  0  0  0  0  0  0  0
    0.4420   14.5581   -5.9859 C   0  0  0  0  0  0  0  0  0  0  0  0
   -3.7035   15.0408  -11.2447 C   0  0  0  0  0  0  0  0  0  0  0  0
   -3.1688   14.3872   -9.9709 C   0  0  0  0  0  0  0  0  0  0  0  0
   -4.1668   13.2516  -10.0984 C   0  0  0  0  0  0  0  0  0  0  0  0
   -1.8336   13.9158  -10.0706 O   0  0  0  0  0  0  0  0  0  0  0  0
   -0.8619   14.9477  -10.1504 C   0  0  0  0  0  0  0  0  0  0  0  0
   -5.5563   11.6040  -10.3316 H   0  0  0  0  0  0  0  0  0  0  0  0
   -7.0812   12.5282  -10.1148 H   0  0  0  0  0  0  0  0  0  0  0  0
   -8.2039   10.1205  -13.8995 H   0  0  0  0  0  0  0  0  0  0  0  0
   -6.8899   12.2266  -14.0936 H   0  0  0  0  0  0  0  0  0  0  0  0
   -8.0434    9.6128   -7.2619 H   0  0  0  0  0  0  0  0  0  0  0  0
   -6.7368   12.3095   -6.9008 H   0  0  0  0  0  0  0  0  0  0  0  0
   -4.5068   13.2844   -6.4740 H   0  0  0  0  0  0  0  0  0  0  0  0
   -2.6633    9.7472   -8.0527 H   0  0  0  0  0  0  0  0  0  0  0  0
   -4.8610    8.8182   -7.4958 H   0  0  0  0  0  0  0  0  0  0  0  0
   -4.8541    9.5530   -9.1349 H   0  0  0  0  0  0  0  0  0  0  0  0
   -2.4158   14.2066   -6.2077 H   0  0  0  0  0  0  0  0  0  0  0  0
   -0.6640   10.5509   -7.5709 H   0  0  0  0  0  0  0  0  0  0  0  0
    1.5009   14.2685   -6.0560 H   0  0  0  0  0  0  0  0  0  0  0  0
    0.2588   15.4349   -6.6244 H   0  0  0  0  0  0  0  0  0  0  0  0
    0.1984   14.8070   -4.9425 H   0  0  0  0  0  0  0  0  0  0  0  0
   -2.9622   15.1711  -12.0469 H   0  0  0  0  0  0  0  0  0  0  0  0
   -4.2464   15.9849  -11.0903 H   0  0  0  0  0  0  0  0  0  0  0  0
   -3.3555   15.0059   -9.0807 H   0  0  0  0  0  0  0  0  0  0  0  0
   -4.9587   13.2414   -9.3350 H   0  0  0  0  0  0  0  0  0  0  0  0
   -3.7216   12.2489  -10.1783 H   0  0  0  0  0  0  0  0  0  0  0  0
    0.1412   14.5025  -10.2248 H   0  0  0  0  0  0  0  0  0  0  0  0
   -1.0556   15.5656  -11.0396 H   0  0  0  0  0  0  0  0  0  0  0  0
   -0.9185   15.5750   -9.2486 H   0  0  0  0  0  0  0  0  0  0  0  0
  1  2  1  0  0  0  0
  1  4  2  0  0  0  0
  1 12  1  0  0  0  0
  2  6  1  0  0  0  0
  3  4  1  0  0  0  0
  3  5  2  0  0  0  0
  5  6  1  0  0  0  0
  5  9  1  0  0  0  0
  6  7  2  0  0  0  0
  7  8  1  0  0  0  0
  7 10  1  0  0  0  0
  8  9  2  0  0  0  0
 10 14  2  3  0  0  0
 11 12  1  0  0  0  0
 11 26  1  0  0  0  0
 11 28  1  0  0  0  0
 12 13  2  0  0  0  0
 14 15  1  0  0  0  0
 14 19  1  0  0  0  0
 15 16  2  0  0  0  0
 16 17  1  0  0  0  0
 17 18  2  0  0  0  0
 17 20  1  0  0  0  0
 18 19  1  0  0  0  0
 20 21  2  0  0  0  0
 20 24  1  0  0  0  0
 21 22  1  0  0  0  0
 22 23  1  0  0  0  0
 22 25  1  0  0  0  0
 23 24  2  0  0  0  0
 26 27  1  0  0  0  0
 27 28  1  0  0  0  0
 27 29  1  0  0  0  0
 29 30  1  0  0  0  0
  2 31  1  0  0  0  0
  2 32  1  0  0  0  0
  3 33  1  0  0  0  0
  4 34  1  0  0  0  0
 10 35  1  0  0  0  0
 15 36  1  0  0  0  0
 16 37  1  0  0  0  0
 18 38  1  0  0  0  0
 19 39  1  0  0  0  0
 19 40  1  0  0  0  0
 21 41  1  0  0  0  0
 24 42  1  0  0  0  0
 25 43  1  0  0  0  0
 25 44  1  0  0  0  0
 25 45  1  0  0  0  0
 26 46  1  0  0  0  0
 26 47  1  0  0  0  0
 27 48  1  0  0  0  0
 28 49  1  0  0  0  0
 28 50  1  0  0  0  0
 30 51  1  0  0  0  0
 30 52  1  0  0  0  0
 30 53  1  0  0  0  0
M  END
> <Name>
36

> <IC50[uM]>
0.006

$$$$
36
  -OEChem-05192314333D
 Structure written by MMmdl.
 53 57  0     0  0  0  0  0  0999 V2000
   -6.3988   12.3548  -12.0167 C   0  0  0  0  0  0  0  0  0  0  0  0
   -6.5634   11.7828  -10.7362 C   0  0  0  0  0  0  0  0  0  0  0  0
   -7.7338   10.5694  -13.0370 C   0  0  0  0  0  0  0  0  0  0  0  0
   -6.9985   11.7556  -13.1278 C   0  0  0  0  0  0  0  0  0  0  0  0
   -7.8247    9.9971  -11.7595 C   0  0  0  0  0  0  0  0  0  0  0  0
   -7.2595   10.6059  -10.6156 C   0  0  0  0  0  0  0  0  0  0  0  0
   -7.6196    9.7377   -9.5218 C   0  0  0  0  0  0  0  0  0  0  0  0
   -8.2737    8.7166   -9.9897 N   0  0  0  0  0  0  0  0  0  0  0  0
   -8.4125    8.8485  -11.3029 N   0  0  0  0  0  0  0  0  0  0  0  0
   -7.3396    9.8926   -8.0318 C   0  0  0  0  0  0  0  0  0  0  0  0
   -4.5445   13.8618  -11.3707 N   0  0  0  0  0  0  0  0  0  0  0  0
   -5.5979   13.6472  -12.1806 C   0  0  0  0  0  0  0  0  0  0  0  0
   -5.9190   14.4711  -13.0424 O   0  0  0  0  0  0  0  0  0  0  0  0
   -5.9590   10.4852   -7.7375 C   0  0  0  0  0  0  0  0  0  0  0  0
   -5.8471   11.7541   -7.1585 C   0  0  0  0  0  0  0  0  0  0  0  0
   -4.5907   12.3017   -6.9141 C   0  0  0  0  0  0  0  0  0  0  0  0
   -3.4394   11.5818   -7.2374 C   0  0  0  0  0  0  0  0  0  0  0  0
   -3.5527   10.3083   -7.8066 C   0  0  0  0  0  0  0  0  0  0  0  0
   -4.8082    9.7633   -8.0562 C   0  0  0  0  0  0  0  0  0  0  0  0
   -2.0898   12.1596   -6.9778 C   0  0  0  0  0  0  0  0  0  0  0  0
   -1.7390   13.4130   -6.4881 C   0  0  0  0  0  0  0  0  0  0  0  0
   -0.3978   13.4480   -6.4305 N   0  0  0  0  0  0  0  0  0  0  0  0
    0.1868   12.3491   -6.8198 N   0  0  0  0  0  0  0  0  0  0  0  0
   -0.8044   11.5467   -7.1770 C   0  0  0  0  0  0  0  0  0  0  0  0
    0.4420   14.5581   -5.9859 C   0  0  0  0  0  0  0  0  0  0  0  0
   -3.7035   15.0408  -11.2447 C   0  0  0  0  0  0  0  0  0  0  0  0
   -3.1688   14.3872   -9.9709 C   0  0  0  0  0  0  0  0  0  0  0  0
   -4.1668   13.2516  -10.0984 C   0  0  0  0  0  0  0  0  0  0  0  0
   -1.8336   13.9158  -10.0706 O   0  0  0  0  0  0  0  0  0  0  0  0
   -0.8619   14.9477  -10.1504 C   0  0  0  0  0  0  0  0  0  0  0  0
   -6.1473   12.2646   -9.8638 H   0  0  0  0  0  0  0  0  0  0  0  0
   -8.2039   10.1205  -13.8995 H   0  0  0  0  0  0  0  0  0  0  0  0
   -6.8899   12.2266  -14.0936 H   0  0  0  0  0  0  0  0  0  0  0  0
   -8.6183    7.9516   -9.4455 H   0  0  0  0  0  0  0  0  0  0  0  0
   -8.0434    9.6128   -7.2619 H   0  0  0  0  0  0  0  0  0  0  0  0
   -5.3236   15.2108  -13.0115 H   0  0  0  0  0  0  0  0  0  0  0  0
   -6.7368   12.3095   -6.9008 H   0  0  0  0  0  0  0  0  0  0  0  0
   -4.5068   13.2844   -6.4740 H   0  0  0  0  0  0  0  0  0  0  0  0
   -2.6633    9.7472   -8.0527 H   0  0  0  0  0  0  0  0  0  0  0  0
   -4.8922    8.7809   -8.4969 H   0  0  0  0  0  0  0  0  0  0  0  0
   -2.4158   14.2066   -6.2077 H   0  0  0  0  0  0  0  0  0  0  0  0
   -0.6640   10.5509   -7.5709 H   0  0  0  0  0  0  0  0  0  0  0  0
    1.5009   14.2685   -6.0560 H   0  0  0  0  0  0  0  0  0  0  0  0
    0.2588   15.4349   -6.6244 H   0  0  0  0  0  0  0  0  0  0  0  0
    0.1984   14.8070   -4.9425 H   0  0  0  0  0  0  0  0  0  0  0  0
   -2.9622   15.1711  -12.0469 H   0  0  0  0  0  0  0  0  0  0  0  0
   -4.2464   15.9849  -11.0903 H   0  0  0  0  0  0  0  0  0  0  0  0
   -3.3555   15.0059   -9.0807 H   0  0  0  0  0  0  0  0  0  0  0  0
   -4.9587   13.2414   -9.3350 H   0  0  0  0  0  0  0  0  0  0  0  0
   -3.7216   12.2489  -10.1783 H   0  0  0  0  0  0  0  0  0  0  0  0
    0.1412   14.5025  -10.2248 H   0  0  0  0  0  0  0  0  0  0  0  0
   -1.0556   15.5656  -11.0396 H   0  0  0  0  0  0  0  0  0  0  0  0
   -0.9185   15.5750   -9.2486 H   0  0  0  0  0  0  0  0  0  0  0  0
  1  2  1  0  0  0  0
  1  4  1  0  0  0  0
  1 12  2  3  0  0  0
  2  6  2  0  0  0  0
  3  4  2  0  0  0  0
  3  5  1  0  0  0  0
  5  6  1  0  0  0  0
  5  9  2  0  0  0  0
  6  7  1  0  0  0  0
  7  8  1  0  0  0  0
  7 10  2  3  0  0  0
  8  9  1  0  0  0  0
 10 14  1  0  0  0  0
 11 12  1  0  0  0  0
 11 26  1  0  0  0  0
 11 28  1  0  0  0  0
 12 13  1  0  0  0  0
 14 15  2  0  0  0  0
 14 19  1  0  0  0  0
 15 16  1  0  0  0  0
 16 17  2  0  0  0  0
 17 18  1  0  0  0  0
 17 20  1  0  0  0  0
 18 19  2  0  0  0  0
 20 21  2  0  0  0  0
 20 24  1  0  0  0  0
 21 22  1  0  0  0  0
 22 23  1  0  0  0  0
 22 25  1  0  0  0  0
 23 24  2  0  0  0  0
 26 27  1  0  0  0  0
 27 28  1  0  0  0  0
 27 29  1  0  0  0  0
 29 30  1  0  0  0  0
  2 31  1  0  0  0  0
  3 32  1  0  0  0  0
  4 33  1  0  0  0  0
  8 34  1  0  0  0  0
 10 35  1  0  0  0  0
 13 36  1  0  0  0  0
 15 37  1  0  0  0  0
 16 38  1  0  0  0  0
 18 39  1  0  0  0  0
 19 40  1  0  0  0  0
 21 41  1  0  0  0  0
 24 42  1  0  0  0  0
 25 43  1  0  0  0  0
 25 44  1  0  0  0  0
 25 45  1  0  0  0  0
 26 46  1  0  0  0  0
 26 47  1  0  0  0  0
 27 48  1  0  0  0  0
 28 49  1  0  0  0  0
 28 50  1  0  0  0  0
 30 51  1  0  0  0  0
 30 52  1  0  0  0  0
 30 53  1  0  0  0  0
M  END
> <Name>
36

> <IC50[uM]>
0.006

$$$$
36
  -OEChem-05192314333D
 Structure written by MMmdl.
 53 57  0     1  0  0  0  0  0999 V2000
   -6.3988   12.3548  -12.0167 C   0  0  0  0  0  0  0  0  0  0  0  0
   -6.5634   11.7828  -10.7362 C   0  0  0  0  0  0  0  0  0  0  0  0
   -7.7338   10.5694  -13.0370 C   0  0  0  0  0  0  0  0  0  0  0  0
   -6.9985   11.7556  -13.1278 C   0  0  0  0  0  0  0  0  0  0  0  0
   -7.8247    9.9971  -11.7595 C   0  0  0  0  0  0  0  0  0  0  0  0
   -7.2595   10.6059  -10.6156 C   0  0  0  0  0  0  0  0  0  0  0  0
   -7.6196    9.7377   -9.5218 C   0  0  0  0  0  0  0  0  0  0  0  0
   -8.2737    8.7166   -9.9897 N   0  0  0  0  0  0  0  0  0  0  0  0
   -8.4125    8.8485  -11.3029 N   0  0  0  0  0  0  0  0  0  0  0  0
   -7.3396    9.8926   -8.0318 C   0  0  0  0  0  0  0  0  0  0  0  0
   -4.5445   13.8618  -11.3707 N   0  0  0  0  0  0  0  0  0  0  0  0
   -5.5979   13.6472  -12.1806 C   0  0  3  0  0  0  0  0  0  0  0  0
   -5.9190   14.4711  -13.0424 O   0  0  0  0  0  0  0  0  0  0  0  0
   -5.9590   10.4852   -7.7375 C   0  0  0  0  0  0  0  0  0  0  0  0
   -5.8471   11.7541   -7.1585 C   0  0  0  0  0  0  0  0  0  0  0  0
   -4.5907   12.3017   -6.9141 C   0  0  0  0  0  0  0  0  0  0  0  0
   -3.4394   11.5818   -7.2374 C   0  0  0  0  0  0  0  0  0  0  0  0
   -3.5527   10.3083   -7.8066 C   0  0  0  0  0  0  0  0  0  0  0  0
   -4.8082    9.7633   -8.0562 C   0  0  0  0  0  0  0  0  0  0  0  0
   -2.0898   12.1596   -6.9778 C   0  0  0  0  0  0  0  0  0  0  0  0
   -1.7390   13.4130   -6.4881 C   0  0  0  0  0  0  0  0  0  0  0  0
   -0.3978   13.4480   -6.4305 N   0  0  0  0  0  0  0  0  0  0  0  0
    0.1868   12.3491   -6.8198 N   0  0  0  0  0  0  0  0  0  0  0  0
   -0.8044   11.5467   -7.1770 C   0  0  0  0  0  0  0  0  0  0  0  0
    0.4420   14.5581   -5.9859 C   0  0  0  0  0  0  0  0  0  0  0  0
   -3.7035   15.0408  -11.2447 C   0  0  0  0  0  0  0  0  0  0  0  0
   -3.1688   14.3872   -9.9709 C   0  0  0  0  0  0  0  0  0  0  0  0
   -4.1668   13.2516  -10.0984 C   0  0  0  0  0  0  0  0  0  0  0  0
   -1.8336   13.9158  -10.0706 O   0  0  0  0  0  0  0  0  0  0  0  0
   -0.8619   14.9477  -10.1504 C   0  0  0  0  0  0  0  0  0  0  0  0
   -6.1473   12.2646   -9.8638 H   0  0  0  0  0  0  0  0  0  0  0  0
   -8.2039   10.1205  -13.8995 H   0  0  0  0  0  0  0  0  0  0  0  0
   -6.8899   12.2266  -14.0936 H   0  0  0  0  0  0  0  0  0  0  0  0
   -8.0434    9.6128   -7.2619 H   0  0  0  0  0  0  0  0  0  0  0  0
   -6.2571   14.1478  -11.4561 H   0  0  0  0  0  0  0  0  0  0  0  0
   -5.3236   15.2108  -13.0115 H   0  0  0  0  0  0  0  0  0  0  0  0
   -6.7368   12.3095   -6.9008 H   0  0  0  0  0  0  0  0  0  0  0  0
   -4.5068   13.2844   -6.4740 H   0  0  0  0  0  0  0  0  0  0  0  0
   -2.6633    9.7472   -8.0527 H   0  0  0  0  0  0  0  0  0  0  0  0
   -4.8922    8.7809   -8.4969 H   0  0  0  0  0  0  0  0  0  0  0  0
   -2.4158   14.2066   -6.2077 H   0  0  0  0  0  0  0  0  0  0  0  0
   -0.6640   10.5509   -7.5709 H   0  0  0  0  0  0  0  0  0  0  0  0
    1.5009   14.2685   -6.0560 H   0  0  0  0  0  0  0  0  0  0  0  0
    0.2588   15.4349   -6.6244 H   0  0  0  0  0  0  0  0  0  0  0  0
    0.1984   14.8070   -4.9425 H   0  0  0  0  0  0  0  0  0  0  0  0
   -2.9622   15.1711  -12.0469 H   0  0  0  0  0  0  0  0  0  0  0  0
   -4.2464   15.9849  -11.0903 H   0  0  0  0  0  0  0  0  0  0  0  0
   -3.3555   15.0059   -9.0807 H   0  0  0  0  0  0  0  0  0  0  0  0
   -4.9587   13.2414   -9.3350 H   0  0  0  0  0  0  0  0  0  0  0  0
   -3.7216   12.2489  -10.1783 H   0  0  0  0  0  0  0  0  0  0  0  0
    0.1412   14.5025  -10.2248 H   0  0  0  0  0  0  0  0  0  0  0  0
   -1.0556   15.5656  -11.0396 H   0  0  0  0  0  0  0  0  0  0  0  0
   -0.9185   15.5750   -9.2486 H   0  0  0  0  0  0  0  0  0  0  0  0
  1  2  2  0  0  0  0
  1  4  1  0  0  0  0
  1 12  1  0  0  0  0
  2  6  1  0  0  0  0
  3  4  2  0  0  0  0
  3  5  1  0  0  0  0
  5  6  2  0  0  0  0
  5  9  1  0  0  0  0
  6  7  1  0  0  0  0
  7  8  1  0  0  0  0
  7 10  2  3  0  0  0
  8  9  2  0  0  0  0
 10 14  1  0  0  0  0
 11 12  1  0  0  0  0
 11 26  1  0  0  0  0
 11 28  1  0  0  0  0
 12 13  1  0  0  0  0
 14 15  2  0  0  0  0
 14 19  1  0  0  0  0
 15 16  1  0  0  0  0
 16 17  2  0  0  0  0
 17 18  1  0  0  0  0
 17 20  1  0  0  0  0
 18 19  2  0  0  0  0
 20 21  2  0  0  0  0
 20 24  1  0  0  0  0
 21 22  1  0  0  0  0
 22 23  1  0  0  0  0
 22 25  1  0  0  0  0
 23 24  2  0  0  0  0
 26 27  1  0  0  0  0
 27 28  1  0  0  0  0
 27 29  1  0  0  0  0
 29 30  1  0  0  0  0
  2 31  1  0  0  0  0
  3 32  1  0  0  0  0
  4 33  1  0  0  0  0
 10 34  1  0  0  0  0
 12 35  1  0  0  0  0
 13 36  1  0  0  0  0
 15 37  1  0  0  0  0
 16 38  1  0  0  0  0
 18 39  1  0  0  0  0
 19 40  1  0  0  0  0
 21 41  1  0  0  0  0
 24 42  1  0  0  0  0
 25 43  1  0  0  0  0
 25 44  1  0  0  0  0
 25 45  1  0  0  0  0
 26 46  1  0  0  0  0
 26 47  1  0  0  0  0
 27 48  1  0  0  0  0
 28 49  1  0  0  0  0
 28 50  1  0  0  0  0
 30 51  1  0  0  0  0
 30 52  1  0  0  0  0
 30 53  1  0  0  0  0
M  END
> <Name>
36

> <IC50[uM]>
0.006

$$$$
36
  -OEChem-05192314333D
 Structure written by MMmdl.
 53 57  0     0  0  0  0  0  0999 V2000
   -6.3988   12.3548  -12.0167 C   0  0  0  0  0  0  0  0  0  0  0  0
   -6.5634   11.7828  -10.7362 C   0  0  0  0  0  0  0  0  0  0  0  0
   -7.7338   10.5694  -13.0370 C   0  0  0  0  0  0  0  0  0  0  0  0
   -6.9985   11.7556  -13.1278 C   0  0  0  0  0  0  0  0  0  0  0  0
   -7.8247    9.9971  -11.7595 C   0  0  0  0  0  0  0  0  0  0  0  0
   -7.2595   10.6059  -10.6156 C   0  0  0  0  0  0  0  0  0  0  0  0
   -7.6196    9.7377   -9.5218 C   0  0  0  0  0  0  0  0  0  0  0  0
   -8.2737    8.7166   -9.9897 N   0  0  0  0  0  0  0  0  0  0  0  0
   -8.4125    8.8485  -11.3029 N   0  0  0  0  0  0  0  0  0  0  0  0
   -7.3396    9.8926   -8.0318 C   0  0  0  0  0  0  0  0  0  0  0  0
   -4.5445   13.8618  -11.3707 N   0  0  0  0  0  0  0  0  0  0  0  0
   -5.5979   13.6472  -12.1806 C   0  0  0  0  0  0  0  0  0  0  0  0
   -5.9190   14.4711  -13.0424 O   0  0  0  0  0  0  0  0  0  0  0  0
   -5.9590   10.4852   -7.7375 C   0  0  0  0  0  0  0  0  0  0  0  0
   -5.8471   11.7541   -7.1585 C   0  0  0  0  0  0  0  0  0  0  0  0
   -4.5907   12.3017   -6.9141 C   0  0  0  0  0  0  0  0  0  0  0  0
   -3.4394   11.5818   -7.2374 C   0  0  0  0  0  0  0  0  0  0  0  0
   -3.5527   10.3083   -7.8066 C   0  0  0  0  0  0  0  0  0  0  0  0
   -4.8082    9.7633   -8.0562 C   0  0  0  0  0  0  0  0  0  0  0  0
   -2.0898   12.1596   -6.9778 C   0  0  0  0  0  0  0  0  0  0  0  0
   -1.7390   13.4130   -6.4881 C   0  0  0  0  0  0  0  0  0  0  0  0
   -0.3978   13.4480   -6.4305 N   0  0  0  0  0  0  0  0  0  0  0  0
    0.1868   12.3491   -6.8198 N   0  0  0  0  0  0  0  0  0  0  0  0
   -0.8044   11.5467   -7.1770 C   0  0  0  0  0  0  0  0  0  0  0  0
    0.4420   14.5581   -5.9859 C   0  0  0  0  0  0  0  0  0  0  0  0
   -3.7035   15.0408  -11.2447 C   0  0  0  0  0  0  0  0  0  0  0  0
   -3.1688   14.3872   -9.9709 C   0  0  0  0  0  0  0  0  0  0  0  0
   -4.1668   13.2516  -10.0984 C   0  0  0  0  0  0  0  0  0  0  0  0
   -1.8336   13.9158  -10.0706 O   0  0  0  0  0  0  0  0  0  0  0  0
   -0.8619   14.9477  -10.1504 C   0  0  0  0  0  0  0  0  0  0  0  0
   -6.1473   12.2646   -9.8638 H   0  0  0  0  0  0  0  0  0  0  0  0
   -8.2039   10.1205  -13.8995 H   0  0  0  0  0  0  0  0  0  0  0  0
   -6.8899   12.2266  -14.0936 H   0  0  0  0  0  0  0  0  0  0  0  0
   -8.1040   10.5547   -7.5991 H   0  0  0  0  0  0  0  0  0  0  0  0
   -7.4029    8.9014   -7.5590 H   0  0  0  0  0  0  0  0  0  0  0  0
   -5.3236   15.2108  -13.0115 H   0  0  0  0  0  0  0  0  0  0  0  0
   -6.7368   12.3095   -6.9008 H   0  0  0  0  0  0  0  0  0  0  0  0
   -4.5068   13.2844   -6.4740 H   0  0  0  0  0  0  0  0  0  0  0  0
   -2.6633    9.7472   -8.0527 H   0  0  0  0  0  0  0  0  0  0  0  0
   -4.8922    8.7809   -8.4969 H   0  0  0  0  0  0  0  0  0  0  0  0
   -2.4158   14.2066   -6.2077 H   0  0  0  0  0  0  0  0  0  0  0  0
   -0.6640   10.5509   -7.5709 H   0  0  0  0  0  0  0  0  0  0  0  0
    1.5009   14.2685   -6.0560 H   0  0  0  0  0  0  0  0  0  0  0  0
    0.2588   15.4349   -6.6244 H   0  0  0  0  0  0  0  0  0  0  0  0
    0.1984   14.8070   -4.9425 H   0  0  0  0  0  0  0  0  0  0  0  0
   -2.9622   15.1711  -12.0469 H   0  0  0  0  0  0  0  0  0  0  0  0
   -4.2464   15.9849  -11.0903 H   0  0  0  0  0  0  0  0  0  0  0  0
   -3.3555   15.0059   -9.0807 H   0  0  0  0  0  0  0  0  0  0  0  0
   -4.9587   13.2414   -9.3350 H   0  0  0  0  0  0  0  0  0  0  0  0
   -3.7216   12.2489  -10.1783 H   0  0  0  0  0  0  0  0  0  0  0  0
    0.1412   14.5025  -10.2248 H   0  0  0  0  0  0  0  0  0  0  0  0
   -1.0556   15.5656  -11.0396 H   0  0  0  0  0  0  0  0  0  0  0  0
   -0.9185   15.5750   -9.2486 H   0  0  0  0  0  0  0  0  0  0  0  0
  1  2  1  0  0  0  0
  1  4  1  0  0  0  0
  1 12  2  3  0  0  0
  2  6  2  0  0  0  0
  3  4  2  0  0  0  0
  3  5  1  0  0  0  0
  5  6  1  0  0  0  0
  5  9  2  0  0  0  0
  6  7  1  0  0  0  0
  7  8  2  0  0  0  0
  7 10  1  0  0  0  0
  8  9  1  0  0  0  0
 10 14  1  0  0  0  0
 11 12  1  0  0  0  0
 11 26  1  0  0  0  0
 11 28  1  0  0  0  0
 12 13  1  0  0  0  0
 14 15  2  0  0  0  0
 14 19  1  0  0  0  0
 15 16  1  0  0  0  0
 16 17  2  0  0  0  0
 17 18  1  0  0  0  0
 17 20  1  0  0  0  0
 18 19  2  0  0  0  0
 20 21  2  0  0  0  0
 20 24  1  0  0  0  0
 21 22  1  0  0  0  0
 22 23  1  0  0  0  0
 22 25  1  0  0  0  0
 23 24  2  0  0  0  0
 26 27  1  0  0  0  0
 27 28  1  0  0  0  0
 27 29  1  0  0  0  0
 29 30  1  0  0  0  0
  2 31  1  0  0  0  0
  3 32  1  0  0  0  0
  4 33  1  0  0  0  0
 10 34  1  0  0  0  0
 10 35  1  0  0  0  0
 13 36  1  0  0  0  0
 15 37  1  0  0  0  0
 16 38  1  0  0  0  0
 18 39  1  0  0  0  0
 19 40  1  0  0  0  0
 21 41  1  0  0  0  0
 24 42  1  0  0  0  0
 25 43  1  0  0  0  0
 25 44  1  0  0  0  0
 25 45  1  0  0  0  0
 26 46  1  0  0  0  0
 26 47  1  0  0  0  0
 27 48  1  0  0  0  0
 28 49  1  0  0  0  0
 28 50  1  0  0  0  0
 30 51  1  0  0  0  0
 30 52  1  0  0  0  0
 30 53  1  0  0  0  0
M  END
> <Name>
36

> <IC50[uM]>
0.006

$$$$
36
  -OEChem-05192314333D
 Structure written by MMmdl.
 53 57  0     1  0  0  0  0  0999 V2000
   -6.3988   12.3548  -12.0167 C   0  0  0  0  0  0  0  0  0  0  0  0
   -6.5634   11.7828  -10.7362 C   0  0  0  0  0  0  0  0  0  0  0  0
   -7.7338   10.5694  -13.0370 C   0  0  0  0  0  0  0  0  0  0  0  0
   -6.9985   11.7556  -13.1278 C   0  0  0  0  0  0  0  0  0  0  0  0
   -7.8247    9.9971  -11.7595 C   0  0  0  0  0  0  0  0  0  0  0  0
   -7.2595   10.6059  -10.6156 C   0  0  0  0  0  0  0  0  0  0  0  0
   -7.6196    9.7377   -9.5218 C   0  0  0  0  0  0  0  0  0  0  0  0
   -8.2737    8.7166   -9.9897 N   0  0  0  0  0  0  0  0  0  0  0  0
   -8.4125    8.8485  -11.3029 N   0  0  0  0  0  0  0  0  0  0  0  0
   -7.3396    9.8926   -8.0318 C   0  0  0  0  0  0  0  0  0  0  0  0
   -4.5445   13.8618  -11.3707 N   0  0  0  0  0  0  0  0  0  0  0  0
   -5.5979   13.6472  -12.1806 C   0  0  0  0  0  0  0  0  0  0  0  0
   -5.9190   14.4711  -13.0424 O   0  0  0  0  0  0  0  0  0  0  0  0
   -5.9590   10.4852   -7.7375 C   0  0  0  0  0  0  0  0  0  0  0  0
   -5.8471   11.7541   -7.1585 C   0  0  0  0  0  0  0  0  0  0  0  0
   -4.5907   12.3017   -6.9141 C   0  0  0  0  0  0  0  0  0  0  0  0
   -3.4394   11.5818   -7.2374 C   0  0  0  0  0  0  0  0  0  0  0  0
   -3.5527   10.3083   -7.8066 C   0  0  0  0  0  0  0  0  0  0  0  0
   -4.8082    9.7633   -8.0562 C   0  0  0  0  0  0  0  0  0  0  0  0
   -2.0898   12.1596   -6.9778 C   0  0  0  0  0  0  0  0  0  0  0  0
   -1.7390   13.4130   -6.4881 C   0  0  0  0  0  0  0  0  0  0  0  0
   -0.3978   13.4480   -6.4305 N   0  0  3  0  0  0  0  0  0  0  0  0
    0.1868   12.3491   -6.8198 N   0  0  0  0  0  0  0  0  0  0  0  0
   -0.8044   11.5467   -7.1770 C   0  0  0  0  0  0  0  0  0  0  0  0
    0.4420   14.5581   -5.9859 C   0  0  0  0  0  0  0  0  0  0  0  0
   -3.7035   15.0408  -11.2447 C   0  0  0  0  0  0  0  0  0  0  0  0
   -3.1688   14.3872   -9.9709 C   0  0  0  0  0  0  0  0  0  0  0  0
   -4.1668   13.2516  -10.0984 C   0  0  0  0  0  0  0  0  0  0  0  0
   -1.8336   13.9158  -10.0706 O   0  0  0  0  0  0  0  0  0  0  0  0
   -0.8619   14.9477  -10.1504 C   0  0  0  0  0  0  0  0  0  0  0  0
   -6.1473   12.2646   -9.8638 H   0  0  0  0  0  0  0  0  0  0  0  0
   -8.2039   10.1205  -13.8995 H   0  0  0  0  0  0  0  0  0  0  0  0
   -6.8899   12.2266  -14.0936 H   0  0  0  0  0  0  0  0  0  0  0  0
   -8.0434    9.6128   -7.2619 H   0  0  0  0  0  0  0  0  0  0  0  0
   -5.3236   15.2108  -13.0115 H   0  0  0  0  0  0  0  0  0  0  0  0
   -6.7368   12.3095   -6.9008 H   0  0  0  0  0  0  0  0  0  0  0  0
   -4.5068   13.2844   -6.4740 H   0  0  0  0  0  0  0  0  0  0  0  0
   -2.6633    9.7472   -8.0527 H   0  0  0  0  0  0  0  0  0  0  0  0
   -4.8922    8.7809   -8.4969 H   0  0  0  0  0  0  0  0  0  0  0  0
   -2.1093   14.1996   -7.1620 H   0  0  0  0  0  0  0  0  0  0  0  0
   -2.1647   13.5597   -5.4845 H   0  0  0  0  0  0  0  0  0  0  0  0
   -0.6640   10.5509   -7.5709 H   0  0  0  0  0  0  0  0  0  0  0  0
    1.5009   14.2685   -6.0560 H   0  0  0  0  0  0  0  0  0  0  0  0
    0.2588   15.4349   -6.6244 H   0  0  0  0  0  0  0  0  0  0  0  0
    0.1984   14.8070   -4.9425 H   0  0  0  0  0  0  0  0  0  0  0  0
   -2.9622   15.1711  -12.0469 H   0  0  0  0  0  0  0  0  0  0  0  0
   -4.2464   15.9849  -11.0903 H   0  0  0  0  0  0  0  0  0  0  0  0
   -3.3555   15.0059   -9.0807 H   0  0  0  0  0  0  0  0  0  0  0  0
   -4.9587   13.2414   -9.3350 H   0  0  0  0  0  0  0  0  0  0  0  0
   -3.7216   12.2489  -10.1783 H   0  0  0  0  0  0  0  0  0  0  0  0
    0.1412   14.5025  -10.2248 H   0  0  0  0  0  0  0  0  0  0  0  0
   -1.0556   15.5656  -11.0396 H   0  0  0  0  0  0  0  0  0  0  0  0
   -0.9185   15.5750   -9.2486 H   0  0  0  0  0  0  0  0  0  0  0  0
  1  2  1  0  0  0  0
  1  4  1  0  0  0  0
  1 12  2  3  0  0  0
  2  6  2  0  0  0  0
  3  4  2  0  0  0  0
  3  5  1  0  0  0  0
  5  6  1  0  0  0  0
  5  9  2  0  0  0  0
  6  7  1  0  0  0  0
  7  8  2  0  0  0  0
  7 10  1  0  0  0  0
  8  9  1  0  0  0  0
 10 14  2  0  0  0  0
 11 12  1  0  0  0  0
 11 26  1  0  0  0  0
 11 28  1  0  0  0  0
 12 13  1  0  0  0  0
 14 15  1  0  0  0  0
 14 19  1  0  0  0  0
 15 16  2  0  0  0  0
 16 17  1  0  0  0  0
 17 18  1  0  0  0  0
 17 20  2  0  0  0  0
 18 19  2  0  0  0  0
 20 21  1  0  0  0  0
 20 24  1  0  0  0  0
 21 22  1  0  0  0  0
 22 23  1  0  0  0  0
 22 25  1  0  0  0  0
 23 24  2  0  0  0  0
 26 27  1  0  0  0  0
 27 28  1  0  0  0  0
 27 29  1  0  0  0  0
 29 30  1  0  0  0  0
  2 31  1  0  0  0  0
  3 32  1  0  0  0  0
  4 33  1  0  0  0  0
 10 34  1  0  0  0  0
 13 35  1  0  0  0  0
 15 36  1  0  0  0  0
 16 37  1  0  0  0  0
 18 38  1  0  0  0  0
 19 39  1  0  0  0  0
 21 40  1  0  0  0  0
 21 41  1  0  0  0  0
 24 42  1  0  0  0  0
 25 43  1  0  0  0  0
 25 44  1  0  0  0  0
 25 45  1  0  0  0  0
 26 46  1  0  0  0  0
 26 47  1  0  0  0  0
 27 48  1  0  0  0  0
 28 49  1  0  0  0  0
 28 50  1  0  0  0  0
 30 51  1  0  0  0  0
 30 52  1  0  0  0  0
 30 53  1  0  0  0  0
M  END
> <Name>
36

> <IC50[uM]>
0.006

$$$$
36
  -OEChem-05192314333D
 Structure written by MMmdl.
 53 57  0     1  0  0  0  0  0999 V2000
   -6.3988   12.3548  -12.0167 C   0  0  0  0  0  0  0  0  0  0  0  0
   -6.5634   11.7828  -10.7362 C   0  0  0  0  0  0  0  0  0  0  0  0
   -7.7338   10.5694  -13.0370 C   0  0  0  0  0  0  0  0  0  0  0  0
   -6.9985   11.7556  -13.1278 C   0  0  0  0  0  0  0  0  0  0  0  0
   -7.8247    9.9971  -11.7595 C   0  0  3  0  0  0  0  0  0  0  0  0
   -7.2595   10.6059  -10.6156 C   0  0  0  0  0  0  0  0  0  0  0  0
   -7.6196    9.7377   -9.5218 C   0  0  0  0  0  0  0  0  0  0  0  0
   -8.2737    8.7166   -9.9897 N   0  0  0  0  0  0  0  0  0  0  0  0
   -8.4125    8.8485  -11.3029 N   0  0  0  0  0  0  0  0  0  0  0  0
   -7.3396    9.8926   -8.0318 C   0  0  0  0  0  0  0  0  0  0  0  0
   -4.5445   13.8618  -11.3707 N   0  0  0  0  0  0  0  0  0  0  0  0
   -5.5979   13.6472  -12.1806 C   0  0  0  0  0  0  0  0  0  0  0  0
   -5.9190   14.4711  -13.0424 O   0  0  0  0  0  0  0  0  0  0  0  0
   -5.9590   10.4852   -7.7375 C   0  0  0  0  0  0  0  0  0  0  0  0
   -5.8471   11.7541   -7.1585 C   0  0  0  0  0  0  0  0  0  0  0  0
   -4.5907   12.3017   -6.9141 C   0  0  0  0  0  0  0  0  0  0  0  0
   -3.4394   11.5818   -7.2374 C   0  0  0  0  0  0  0  0  0  0  0  0
   -3.5527   10.3083   -7.8066 C   0  0  0  0  0  0  0  0  0  0  0  0
   -4.8082    9.7633   -8.0562 C   0  0  0  0  0  0  0  0  0  0  0  0
   -2.0898   12.1596   -6.9778 C   0  0  0  0  0  0  0  0  0  0  0  0
   -1.7390   13.4130   -6.4881 C   0  0  0  0  0  0  0  0  0  0  0  0
   -0.3978   13.4480   -6.4305 N   0  0  0  0  0  0  0  0  0  0  0  0
    0.1868   12.3491   -6.8198 N   0  0  0  0  0  0  0  0  0  0  0  0
   -0.8044   11.5467   -7.1770 C   0  0  0  0  0  0  0  0  0  0  0  0
    0.4420   14.5581   -5.9859 C   0  0  0  0  0  0  0  0  0  0  0  0
   -3.7035   15.0408  -11.2447 C   0  0  0  0  0  0  0  0  0  0  0  0
   -3.1688   14.3872   -9.9709 C   0  0  0  0  0  0  0  0  0  0  0  0
   -4.1668   13.2516  -10.0984 C   0  0  0  0  0  0  0  0  0  0  0  0
   -1.8336   13.9158  -10.0706 O   0  0  0  0  0  0  0  0  0  0  0  0
   -0.8619   14.9477  -10.1504 C   0  0  0  0  0  0  0  0  0  0  0  0
   -6.1473   12.2646   -9.8638 H   0  0  0  0  0  0  0  0  0  0  0  0
   -8.2039   10.1205  -13.8995 H   0  0  0  0  0  0  0  0  0  0  0  0
   -6.8899   12.2266  -14.0936 H   0  0  0  0  0  0  0  0  0  0  0  0
   -6.8865    9.4502  -11.9350 H   0  0  0  0  0  0  0  0  0  0  0  0
   -8.0434    9.6128   -7.2619 H   0  0  0  0  0  0  0  0  0  0  0  0
   -5.3236   15.2108  -13.0115 H   0  0  0  0  0  0  0  0  0  0  0  0
   -6.7368   12.3095   -6.9008 H   0  0  0  0  0  0  0  0  0  0  0  0
   -4.5068   13.2844   -6.4740 H   0  0  0  0  0  0  0  0  0  0  0  0
   -2.6633    9.7472   -8.0527 H   0  0  0  0  0  0  0  0  0  0  0  0
   -4.8922    8.7809   -8.4969 H   0  0  0  0  0  0  0  0  0  0  0  0
   -2.4158   14.2066   -6.2077 H   0  0  0  0  0  0  0  0  0  0  0  0
   -0.6640   10.5509   -7.5709 H   0  0  0  0  0  0  0  0  0  0  0  0
    1.5009   14.2685   -6.0560 H   0  0  0  0  0  0  0  0  0  0  0  0
    0.2588   15.4349   -6.6244 H   0  0  0  0  0  0  0  0  0  0  0  0
    0.1984   14.8070   -4.9425 H   0  0  0  0  0  0  0  0  0  0  0  0
   -2.9622   15.1711  -12.0469 H   0  0  0  0  0  0  0  0  0  0  0  0
   -4.2464   15.9849  -11.0903 H   0  0  0  0  0  0  0  0  0  0  0  0
   -3.3555   15.0059   -9.0807 H   0  0  0  0  0  0  0  0  0  0  0  0
   -4.9587   13.2414   -9.3350 H   0  0  0  0  0  0  0  0  0  0  0  0
   -3.7216   12.2489  -10.1783 H   0  0  0  0  0  0  0  0  0  0  0  0
    0.1412   14.5025  -10.2248 H   0  0  0  0  0  0  0  0  0  0  0  0
   -1.0556   15.5656  -11.0396 H   0  0  0  0  0  0  0  0  0  0  0  0
   -0.9185   15.5750   -9.2486 H   0  0  0  0  0  0  0  0  0  0  0  0
  1  2  1  0  0  0  0
  1  4  1  0  0  0  0
  1 12  2  3  0  0  0
  2  6  2  0  0  0  0
  3  4  2  0  0  0  0
  3  5  1  0  0  0  0
  5  6  1  0  0  0  0
  5  9  1  0  0  0  0
  6  7  1  0  0  0  0
  7  8  1  0  0  0  0
  7 10  2  3  0  0  0
  8  9  2  0  0  0  0
 10 14  1  0  0  0  0
 11 12  1  0  0  0  0
 11 26  1  0  0  0  0
 11 28  1  0  0  0  0
 12 13  1  0  0  0  0
 14 15  2  0  0  0  0
 14 19  1  0  0  0  0
 15 16  1  0  0  0  0
 16 17  2  0  0  0  0
 17 18  1  0  0  0  0
 17 20  1  0  0  0  0
 18 19  2  0  0  0  0
 20 21  2  0  0  0  0
 20 24  1  0  0  0  0
 21 22  1  0  0  0  0
 22 23  1  0  0  0  0
 22 25  1  0  0  0  0
 23 24  2  0  0  0  0
 26 27  1  0  0  0  0
 27 28  1  0  0  0  0
 27 29  1  0  0  0  0
 29 30  1  0  0  0  0
  2 31  1  0  0  0  0
  3 32  1  0  0  0  0
  4 33  1  0  0  0  0
  5 34  1  0  0  0  0
 10 35  1  0  0  0  0
 13 36  1  0  0  0  0
 15 37  1  0  0  0  0
 16 38  1  0  0  0  0
 18 39  1  0  0  0  0
 19 40  1  0  0  0  0
 21 41  1  0  0  0  0
 24 42  1  0  0  0  0
 25 43  1  0  0  0  0
 25 44  1  0  0  0  0
 25 45  1  0  0  0  0
 26 46  1  0  0  0  0
 26 47  1  0  0  0  0
 27 48  1  0  0  0  0
 28 49  1  0  0  0  0
 28 50  1  0  0  0  0
 30 51  1  0  0  0  0
 30 52  1  0  0  0  0
 30 53  1  0  0  0  0
M  END
> <Name>
36

> <IC50[uM]>
0.006

$$$$
36
  -OEChem-05192314333D
 Structure written by MMmdl.
 53 57  0     0  0  0  0  0  0999 V2000
   -6.3988   12.3548  -12.0167 C   0  0  0  0  0  0  0  0  0  0  0  0
   -6.5634   11.7828  -10.7362 C   0  0  0  0  0  0  0  0  0  0  0  0
   -7.7338   10.5694  -13.0370 C   0  0  0  0  0  0  0  0  0  0  0  0
   -6.9985   11.7556  -13.1278 C   0  0  0  0  0  0  0  0  0  0  0  0
   -7.8247    9.9971  -11.7595 C   0  0  0  0  0  0  0  0  0  0  0  0
   -7.2595   10.6059  -10.6156 C   0  0  0  0  0  0  0  0  0  0  0  0
   -7.6196    9.7377   -9.5218 C   0  0  0  0  0  0  0  0  0  0  0  0
   -8.2737    8.7166   -9.9897 N   0  0  0  0  0  0  0  0  0  0  0  0
   -8.4125    8.8485  -11.3029 N   0  0  0  0  0  0  0  0  0  0  0  0
   -7.3396    9.8926   -8.0318 C   0  0  0  0  0  0  0  0  0  0  0  0
   -4.5445   13.8618  -11.3707 N   0  0  0  0  0  0  0  0  0  0  0  0
   -5.5979   13.6472  -12.1806 C   0  0  0  0  0  0  0  0  0  0  0  0
   -5.9190   14.4711  -13.0424 O   0  0  0  0  0  0  0  0  0  0  0  0
   -5.9590   10.4852   -7.7375 C   0  0  0  0  0  0  0  0  0  0  0  0
   -5.8471   11.7541   -7.1585 C   0  0  0  0  0  0  0  0  0  0  0  0
   -4.5907   12.3017   -6.9141 C   0  0  0  0  0  0  0  0  0  0  0  0
   -3.4394   11.5818   -7.2374 C   0  0  0  0  0  0  0  0  0  0  0  0
   -3.5527   10.3083   -7.8066 C   0  0  0  0  0  0  0  0  0  0  0  0
   -4.8082    9.7633   -8.0562 C   0  0  0  0  0  0  0  0  0  0  0  0
   -2.0898   12.1596   -6.9778 C   0  0  0  0  0  0  0  0  0  0  0  0
   -1.7390   13.4130   -6.4881 C   0  0  0  0  0  0  0  0  0  0  0  0
   -0.3978   13.4480   -6.4305 N   0  0  0  0  0  0  0  0  0  0  0  0
    0.1868   12.3491   -6.8198 N   0  0  0  0  0  0  0  0  0  0  0  0
   -0.8044   11.5467   -7.1770 C   0  0  0  0  0  0  0  0  0  0  0  0
    0.4420   14.5581   -5.9859 C   0  0  0  0  0  0  0  0  0  0  0  0
   -3.7035   15.0408  -11.2447 C   0  0  0  0  0  0  0  0  0  0  0  0
   -3.1688   14.3872   -9.9709 C   0  0  0  0  0  0  0  0  0  0  0  0
   -4.1668   13.2516  -10.0984 C   0  0  0  0  0  0  0  0  0  0  0  0
   -1.8336   13.9158  -10.0706 O   0  0  0  0  0  0  0  0  0  0  0  0
   -0.8619   14.9477  -10.1504 C   0  0  0  0  0  0  0  0  0  0  0  0
   -6.1473   12.2646   -9.8638 H   0  0  0  0  0  0  0  0  0  0  0  0
   -8.2039   10.1205  -13.8995 H   0  0  0  0  0  0  0  0  0  0  0  0
   -7.6826   12.5075  -13.5482 H   0  0  0  0  0  0  0  0  0  0  0  0
   -6.1868   11.5577  -13.8433 H   0  0  0  0  0  0  0  0  0  0  0  0
   -8.0434    9.6128   -7.2619 H   0  0  0  0  0  0  0  0  0  0  0  0
   -5.3236   15.2108  -13.0115 H   0  0  0  0  0  0  0  0  0  0  0  0
   -6.7368   12.3095   -6.9008 H   0  0  0  0  0  0  0  0  0  0  0  0
   -4.5068   13.2844   -6.4740 H   0  0  0  0  0  0  0  0  0  0  0  0
   -2.6633    9.7472   -8.0527 H   0  0  0  0  0  0  0  0  0  0  0  0
   -4.8922    8.7809   -8.4969 H   0  0  0  0  0  0  0  0  0  0  0  0
   -2.4158   14.2066   -6.2077 H   0  0  0  0  0  0  0  0  0  0  0  0
   -0.6640   10.5509   -7.5709 H   0  0  0  0  0  0  0  0  0  0  0  0
    1.5009   14.2685   -6.0560 H   0  0  0  0  0  0  0  0  0  0  0  0
    0.2588   15.4349   -6.6244 H   0  0  0  0  0  0  0  0  0  0  0  0
    0.1984   14.8070   -4.9425 H   0  0  0  0  0  0  0  0  0  0  0  0
   -2.9622   15.1711  -12.0469 H   0  0  0  0  0  0  0  0  0  0  0  0
   -4.2464   15.9849  -11.0903 H   0  0  0  0  0  0  0  0  0  0  0  0
   -3.3555   15.0059   -9.0807 H   0  0  0  0  0  0  0  0  0  0  0  0
   -4.9587   13.2414   -9.3350 H   0  0  0  0  0  0  0  0  0  0  0  0
   -3.7216   12.2489  -10.1783 H   0  0  0  0  0  0  0  0  0  0  0  0
    0.1412   14.5025  -10.2248 H   0  0  0  0  0  0  0  0  0  0  0  0
   -1.0556   15.5656  -11.0396 H   0  0  0  0  0  0  0  0  0  0  0  0
   -0.9185   15.5750   -9.2486 H   0  0  0  0  0  0  0  0  0  0  0  0
  1  2  1  0  0  0  0
  1  4  1  0  0  0  0
  1 12  2  3  0  0  0
  2  6  2  0  0  0  0
  3  4  1  0  0  0  0
  3  5  2  0  0  0  0
  5  6  1  0  0  0  0
  5  9  1  0  0  0  0
  6  7  1  0  0  0  0
  7  8  1  0  0  0  0
  7 10  2  3  0  0  0
  8  9  2  0  0  0  0
 10 14  1  0  0  0  0
 11 12  1  0  0  0  0
 11 26  1  0  0  0  0
 11 28  1  0  0  0  0
 12 13  1  0  0  0  0
 14 15  2  0  0  0  0
 14 19  1  0  0  0  0
 15 16  1  0  0  0  0
 16 17  2  0  0  0  0
 17 18  1  0  0  0  0
 17 20  1  0  0  0  0
 18 19  2  0  0  0  0
 20 21  2  0  0  0  0
 20 24  1  0  0  0  0
 21 22  1  0  0  0  0
 22 23  1  0  0  0  0
 22 25  1  0  0  0  0
 23 24  2  0  0  0  0
 26 27  1  0  0  0  0
 27 28  1  0  0  0  0
 27 29  1  0  0  0  0
 29 30  1  0  0  0  0
  2 31  1  0  0  0  0
  3 32  1  0  0  0  0
  4 33  1  0  0  0  0
  4 34  1  0  0  0  0
 10 35  1  0  0  0  0
 13 36  1  0  0  0  0
 15 37  1  0  0  0  0
 16 38  1  0  0  0  0
 18 39  1  0  0  0  0
 19 40  1  0  0  0  0
 21 41  1  0  0  0  0
 24 42  1  0  0  0  0
 25 43  1  0  0  0  0
 25 44  1  0  0  0  0
 25 45  1  0  0  0  0
 26 46  1  0  0  0  0
 26 47  1  0  0  0  0
 27 48  1  0  0  0  0
 28 49  1  0  0  0  0
 28 50  1  0  0  0  0
 30 51  1  0  0  0  0
 30 52  1  0  0  0  0
 30 53  1  0  0  0  0
M  END
> <Name>
36

> <IC50[uM]>
0.006

$$$$
36
  -OEChem-05192314333D
 Structure written by MMmdl.
 53 57  0     0  0  0  0  0  0999 V2000
   -6.3988   12.3548  -12.0167 C   0  0  0  0  0  0  0  0  0  0  0  0
   -6.5634   11.7828  -10.7362 C   0  0  0  0  0  0  0  0  0  0  0  0
   -7.7338   10.5694  -13.0370 C   0  0  0  0  0  0  0  0  0  0  0  0
   -6.9985   11.7556  -13.1278 C   0  0  0  0  0  0  0  0  0  0  0  0
   -7.8247    9.9971  -11.7595 C   0  0  0  0  0  0  0  0  0  0  0  0
   -7.2595   10.6059  -10.6156 C   0  0  0  0  0  0  0  0  0  0  0  0
   -7.6196    9.7377   -9.5218 C   0  0  0  0  0  0  0  0  0  0  0  0
   -8.2737    8.7166   -9.9897 N   0  0  0  0  0  0  0  0  0  0  0  0
   -8.4125    8.8485  -11.3029 N   0  0  0  0  0  0  0  0  0  0  0  0
   -7.3396    9.8926   -8.0318 C   0  0  0  0  0  0  0  0  0  0  0  0
   -4.5445   13.8618  -11.3707 N   0  0  0  0  0  0  0  0  0  0  0  0
   -5.5979   13.6472  -12.1806 C   0  0  0  0  0  0  0  0  0  0  0  0
   -5.9190   14.4711  -13.0424 O   0  0  0  0  0  0  0  0  0  0  0  0
   -5.9590   10.4852   -7.7375 C   0  0  0  0  0  0  0  0  0  0  0  0
   -5.8471   11.7541   -7.1585 C   0  0  0  0  0  0  0  0  0  0  0  0
   -4.5907   12.3017   -6.9141 C   0  0  0  0  0  0  0  0  0  0  0  0
   -3.4394   11.5818   -7.2374 C   0  0  0  0  0  0  0  0  0  0  0  0
   -3.5527   10.3083   -7.8066 C   0  0  0  0  0  0  0  0  0  0  0  0
   -4.8082    9.7633   -8.0562 C   0  0  0  0  0  0  0  0  0  0  0  0
   -2.0898   12.1596   -6.9778 C   0  0  0  0  0  0  0  0  0  0  0  0
   -1.7390   13.4130   -6.4881 C   0  0  0  0  0  0  0  0  0  0  0  0
   -0.3978   13.4480   -6.4305 N   0  0  0  0  0  0  0  0  0  0  0  0
    0.1868   12.3491   -6.8198 N   0  0  0  0  0  0  0  0  0  0  0  0
   -0.8044   11.5467   -7.1770 C   0  0  0  0  0  0  0  0  0  0  0  0
    0.4420   14.5581   -5.9859 C   0  0  0  0  0  0  0  0  0  0  0  0
   -3.7035   15.0408  -11.2447 C   0  0  0  0  0  0  0  0  0  0  0  0
   -3.1688   14.3872   -9.9709 C   0  0  0  0  0  0  0  0  0  0  0  0
   -4.1668   13.2516  -10.0984 C   0  0  0  0  0  0  0  0  0  0  0  0
   -1.8336   13.9158  -10.0706 O   0  0  0  0  0  0  0  0  0  0  0  0
   -0.8619   14.9477  -10.1504 C   0  0  0  0  0  0  0  0  0  0  0  0
   -5.5563   11.6040  -10.3316 H   0  0  0  0  0  0  0  0  0  0  0  0
   -7.0812   12.5282  -10.1148 H   0  0  0  0  0  0  0  0  0  0  0  0
   -8.2039   10.1205  -13.8995 H   0  0  0  0  0  0  0  0  0  0  0  0
   -6.8899   12.2266  -14.0936 H   0  0  0  0  0  0  0  0  0  0  0  0
   -8.0434    9.6128   -7.2619 H   0  0  0  0  0  0  0  0  0  0  0  0
   -5.3236   15.2108  -13.0115 H   0  0  0  0  0  0  0  0  0  0  0  0
   -6.7368   12.3095   -6.9008 H   0  0  0  0  0  0  0  0  0  0  0  0
   -4.5068   13.2844   -6.4740 H   0  0  0  0  0  0  0  0  0  0  0  0
   -2.6633    9.7472   -8.0527 H   0  0  0  0  0  0  0  0  0  0  0  0
   -4.8922    8.7809   -8.4969 H   0  0  0  0  0  0  0  0  0  0  0  0
   -2.4158   14.2066   -6.2077 H   0  0  0  0  0  0  0  0  0  0  0  0
   -0.6640   10.5509   -7.5709 H   0  0  0  0  0  0  0  0  0  0  0  0
    1.5009   14.2685   -6.0560 H   0  0  0  0  0  0  0  0  0  0  0  0
    0.2588   15.4349   -6.6244 H   0  0  0  0  0  0  0  0  0  0  0  0
    0.1984   14.8070   -4.9425 H   0  0  0  0  0  0  0  0  0  0  0  0
   -2.9622   15.1711  -12.0469 H   0  0  0  0  0  0  0  0  0  0  0  0
   -4.2464   15.9849  -11.0903 H   0  0  0  0  0  0  0  0  0  0  0  0
   -3.3555   15.0059   -9.0807 H   0  0  0  0  0  0  0  0  0  0  0  0
   -4.9587   13.2414   -9.3350 H   0  0  0  0  0  0  0  0  0  0  0  0
   -3.7216   12.2489  -10.1783 H   0  0  0  0  0  0  0  0  0  0  0  0
    0.1412   14.5025  -10.2248 H   0  0  0  0  0  0  0  0  0  0  0  0
   -1.0556   15.5656  -11.0396 H   0  0  0  0  0  0  0  0  0  0  0  0
   -0.9185   15.5750   -9.2486 H   0  0  0  0  0  0  0  0  0  0  0  0
  1  2  1  0  0  0  0
  1  4  1  0  0  0  0
  1 12  2  3  0  0  0
  2  6  1  0  0  0  0
  3  4  2  0  0  0  0
  3  5  1  0  0  0  0
  5  6  2  0  0  0  0
  5  9  1  0  0  0  0
  6  7  1  0  0  0  0
  7  8  1  0  0  0  0
  7 10  2  3  0  0  0
  8  9  2  0  0  0  0
 10 14  1  0  0  0  0
 11 12  1  0  0  0  0
 11 26  1  0  0  0  0
 11 28  1  0  0  0  0
 12 13  1  0  0  0  0
 14 15  2  0  0  0  0
 14 19  1  0  0  0  0
 15 16  1  0  0  0  0
 16 17  2  0  0  0  0
 17 18  1  0  0  0  0
 17 20  1  0  0  0  0
 18 19  2  0  0  0  0
 20 21  2  0  0  0  0
 20 24  1  0  0  0  0
 21 22  1  0  0  0  0
 22 23  1  0  0  0  0
 22 25  1  0  0  0  0
 23 24  2  0  0  0  0
 26 27  1  0  0  0  0
 27 28  1  0  0  0  0
 27 29  1  0  0  0  0
 29 30  1  0  0  0  0
  2 31  1  0  0  0  0
  2 32  1  0  0  0  0
  3 33  1  0  0  0  0
  4 34  1  0  0  0  0
 10 35  1  0  0  0  0
 13 36  1  0  0  0  0
 15 37  1  0  0  0  0
 16 38  1  0  0  0  0
 18 39  1  0  0  0  0
 19 40  1  0  0  0  0
 21 41  1  0  0  0  0
 24 42  1  0  0  0  0
 25 43  1  0  0  0  0
 25 44  1  0  0  0  0
 25 45  1  0  0  0  0
 26 46  1  0  0  0  0
 26 47  1  0  0  0  0
 27 48  1  0  0  0  0
 28 49  1  0  0  0  0
 28 50  1  0  0  0  0
 30 51  1  0  0  0  0
 30 52  1  0  0  0  0
 30 53  1  0  0  0  0
M  END
> <Name>
36

> <IC50[uM]>
0.006

$$$$
36
  -OEChem-05192314333D
 Structure written by MMmdl.
 53 57  0     0  0  0  0  0  0999 V2000
   -6.3988   12.3548  -12.0167 C   0  0  0  0  0  0  0  0  0  0  0  0
   -6.5634   11.7828  -10.7362 C   0  0  0  0  0  0  0  0  0  0  0  0
   -7.7338   10.5694  -13.0370 C   0  0  0  0  0  0  0  0  0  0  0  0
   -6.9985   11.7556  -13.1278 C   0  0  0  0  0  0  0  0  0  0  0  0
   -7.8247    9.9971  -11.7595 C   0  0  0  0  0  0  0  0  0  0  0  0
   -7.2595   10.6059  -10.6156 C   0  0  0  0  0  0  0  0  0  0  0  0
   -7.6196    9.7377   -9.5218 C   0  0  0  0  0  0  0  0  0  0  0  0
   -8.2737    8.7166   -9.9897 N   0  0  0  0  0  0  0  0  0  0  0  0
   -8.4125    8.8485  -11.3029 N   0  0  0  0  0  0  0  0  0  0  0  0
   -7.3396    9.8926   -8.0318 C   0  0  0  0  0  0  0  0  0  0  0  0
   -4.5445   13.8618  -11.3707 N   0  0  0  0  0  0  0  0  0  0  0  0
   -5.5979   13.6472  -12.1806 C   0  0  0  0  0  0  0  0  0  0  0  0
   -5.9190   14.4711  -13.0424 O   0  0  0  0  0  0  0  0  0  0  0  0
   -5.9590   10.4852   -7.7375 C   0  0  0  0  0  0  0  0  0  0  0  0
   -5.8471   11.7541   -7.1585 C   0  0  0  0  0  0  0  0  0  0  0  0
   -4.5907   12.3017   -6.9141 C   0  0  0  0  0  0  0  0  0  0  0  0
   -3.4394   11.5818   -7.2374 C   0  0  0  0  0  0  0  0  0  0  0  0
   -3.5527   10.3083   -7.8066 C   0  0  0  0  0  0  0  0  0  0  0  0
   -4.8082    9.7633   -8.0562 C   0  0  0  0  0  0  0  0  0  0  0  0
   -2.0898   12.1596   -6.9778 C   0  0  0  0  0  0  0  0  0  0  0  0
   -1.7390   13.4130   -6.4881 C   0  0  0  0  0  0  0  0  0  0  0  0
   -0.3978   13.4480   -6.4305 N   0  0  0  0  0  0  0  0  0  0  0  0
    0.1868   12.3491   -6.8198 N   0  0  0  0  0  0  0  0  0  0  0  0
   -0.8044   11.5467   -7.1770 C   0  0  0  0  0  0  0  0  0  0  0  0
    0.4420   14.5581   -5.9859 C   0  0  0  0  0  0  0  0  0  0  0  0
   -3.7035   15.0408  -11.2447 C   0  0  0  0  0  0  0  0  0  0  0  0
   -3.1688   14.3872   -9.9709 C   0  0  0  0  0  0  0  0  0  0  0  0
   -4.1668   13.2516  -10.0984 C   0  0  0  0  0  0  0  0  0  0  0  0
   -1.8336   13.9158  -10.0706 O   0  0  0  0  0  0  0  0  0  0  0  0
   -0.8619   14.9477  -10.1504 C   0  0  0  0  0  0  0  0  0  0  0  0
   -6.1473   12.2646   -9.8638 H   0  0  0  0  0  0  0  0  0  0  0  0
   -8.2039   10.1205  -13.8995 H   0  0  0  0  0  0  0  0  0  0  0  0
   -6.8899   12.2266  -14.0936 H   0  0  0  0  0  0  0  0  0  0  0  0
   -8.0434    9.6128   -7.2619 H   0  0  0  0  0  0  0  0  0  0  0  0
   -5.3236   15.2108  -13.0115 H   0  0  0  0  0  0  0  0  0  0  0  0
   -6.7368   12.3095   -6.9008 H   0  0  0  0  0  0  0  0  0  0  0  0
   -4.5068   13.2844   -6.4740 H   0  0  0  0  0  0  0  0  0  0  0  0
   -3.4394   12.0313   -8.2414 H   0  0  0  0  0  0  0  0  0  0  0  0
   -2.6633    9.7472   -8.0527 H   0  0  0  0  0  0  0  0  0  0  0  0
   -4.8922    8.7809   -8.4969 H   0  0  0  0  0  0  0  0  0  0  0  0
   -2.4158   14.2066   -6.2077 H   0  0  0  0  0  0  0  0  0  0  0  0
   -0.6640   10.5509   -7.5709 H   0  0  0  0  0  0  0  0  0  0  0  0
    1.5009   14.2685   -6.0560 H   0  0  0  0  0  0  0  0  0  0  0  0
    0.2588   15.4349   -6.6244 H   0  0  0  0  0  0  0  0  0  0  0  0
    0.1984   14.8070   -4.9425 H   0  0  0  0  0  0  0  0  0  0  0  0
   -2.9622   15.1711  -12.0469 H   0  0  0  0  0  0  0  0  0  0  0  0
   -4.2464   15.9849  -11.0903 H   0  0  0  0  0  0  0  0  0  0  0  0
   -3.3555   15.0059   -9.0807 H   0  0  0  0  0  0  0  0  0  0  0  0
   -4.9587   13.2414   -9.3350 H   0  0  0  0  0  0  0  0  0  0  0  0
   -3.7216   12.2489  -10.1783 H   0  0  0  0  0  0  0  0  0  0  0  0
    0.1412   14.5025  -10.2248 H   0  0  0  0  0  0  0  0  0  0  0  0
   -1.0556   15.5656  -11.0396 H   0  0  0  0  0  0  0  0  0  0  0  0
   -0.9185   15.5750   -9.2486 H   0  0  0  0  0  0  0  0  0  0  0  0
  1  2  1  0  0  0  0
  1  4  1  0  0  0  0
  1 12  2  3  0  0  0
  2  6  2  0  0  0  0
  3  4  2  0  0  0  0
  3  5  1  0  0  0  0
  5  6  1  0  0  0  0
  5  9  2  0  0  0  0
  6  7  1  0  0  0  0
  7  8  2  0  0  0  0
  7 10  1  0  0  0  0
  8  9  1  0  0  0  0
 10 14  2  0  0  0  0
 11 12  1  0  0  0  0
 11 26  1  0  0  0  0
 11 28  1  0  0  0  0
 12 13  1  0  0  0  0
 14 15  1  0  0  0  0
 14 19  1  0  0  0  0
 15 16  2  0  0  0  0
 16 17  1  0  0  0  0
 17 18  1  0  0  0  0
 17 20  1  0  0  0  0
 18 19  2  0  0  0  0
 20 21  2  0  0  0  0
 20 24  1  0  0  0  0
 21 22  1  0  0  0  0
 22 23  1  0  0  0  0
 22 25  1  0  0  0  0
 23 24  2  0  0  0  0
 26 27  1  0  0  0  0
 27 28  1  0  0  0  0
 27 29  1  0  0  0  0
 29 30  1  0  0  0  0
  2 31  1  0  0  0  0
  3 32  1  0  0  0  0
  4 33  1  0  0  0  0
 10 34  1  0  0  0  0
 13 35  1  0  0  0  0
 15 36  1  0  0  0  0
 16 37  1  0  0  0  0
 17 38  1  0  0  0  0
 18 39  1  0  0  0  0
 19 40  1  0  0  0  0
 21 41  1  0  0  0  0
 24 42  1  0  0  0  0
 25 43  1  0  0  0  0
 25 44  1  0  0  0  0
 25 45  1  0  0  0  0
 26 46  1  0  0  0  0
 26 47  1  0  0  0  0
 27 48  1  0  0  0  0
 28 49  1  0  0  0  0
 28 50  1  0  0  0  0
 30 51  1  0  0  0  0
 30 52  1  0  0  0  0
 30 53  1  0  0  0  0
M  END
> <Name>
36

> <IC50[uM]>
0.006

$$$$
36
  -OEChem-05192314333D
 Structure written by MMmdl.
 53 57  0     0  0  0  0  0  0999 V2000
   -6.3988   12.3548  -12.0167 C   0  0  0  0  0  0  0  0  0  0  0  0
   -6.5634   11.7828  -10.7362 C   0  0  0  0  0  0  0  0  0  0  0  0
   -7.7338   10.5694  -13.0370 C   0  0  0  0  0  0  0  0  0  0  0  0
   -6.9985   11.7556  -13.1278 C   0  0  0  0  0  0  0  0  0  0  0  0
   -7.8247    9.9971  -11.7595 C   0  0  0  0  0  0  0  0  0  0  0  0
   -7.2595   10.6059  -10.6156 C   0  0  0  0  0  0  0  0  0  0  0  0
   -7.6196    9.7377   -9.5218 C   0  0  0  0  0  0  0  0  0  0  0  0
   -8.2737    8.7166   -9.9897 N   0  0  0  0  0  0  0  0  0  0  0  0
   -8.4125    8.8485  -11.3029 N   0  0  0  0  0  0  0  0  0  0  0  0
   -7.3396    9.8926   -8.0318 C   0  0  0  0  0  0  0  0  0  0  0  0
   -4.5445   13.8618  -11.3707 N   0  0  0  0  0  0  0  0  0  0  0  0
   -5.5979   13.6472  -12.1806 C   0  0  0  0  0  0  0  0  0  0  0  0
   -5.9190   14.4711  -13.0424 O   0  0  0  0  0  0  0  0  0  0  0  0
   -5.9590   10.4852   -7.7375 C   0  0  0  0  0  0  0  0  0  0  0  0
   -5.8471   11.7541   -7.1585 C   0  0  0  0  0  0  0  0  0  0  0  0
   -4.5907   12.3017   -6.9141 C   0  0  0  0  0  0  0  0  0  0  0  0
   -3.4394   11.5818   -7.2374 C   0  0  0  0  0  0  0  0  0  0  0  0
   -3.5527   10.3083   -7.8066 C   0  0  0  0  0  0  0  0  0  0  0  0
   -4.8082    9.7633   -8.0562 C   0  0  0  0  0  0  0  0  0  0  0  0
   -2.0898   12.1596   -6.9778 C   0  0  0  0  0  0  0  0  0  0  0  0
   -1.7390   13.4130   -6.4881 C   0  0  0  0  0  0  0  0  0  0  0  0
   -0.3978   13.4480   -6.4305 N   0  0  0  0  0  0  0  0  0  0  0  0
    0.1868   12.3491   -6.8198 N   0  0  0  0  0  0  0  0  0  0  0  0
   -0.8044   11.5467   -7.1770 C   0  0  0  0  0  0  0  0  0  0  0  0
    0.4420   14.5581   -5.9859 C   0  0  0  0  0  0  0  0  0  0  0  0
   -3.7035   15.0408  -11.2447 C   0  0  0  0  0  0  0  0  0  0  0  0
   -3.1688   14.3872   -9.9709 C   0  0  0  0  0  0  0  0  0  0  0  0
   -4.1668   13.2516  -10.0984 C   0  0  0  0  0  0  0  0  0  0  0  0
   -1.8336   13.9158  -10.0706 O   0  0  0  0  0  0  0  0  0  0  0  0
   -0.8619   14.9477  -10.1504 C   0  0  0  0  0  0  0  0  0  0  0  0
   -6.1473   12.2646   -9.8638 H   0  0  0  0  0  0  0  0  0  0  0  0
   -8.2039   10.1205  -13.8995 H   0  0  0  0  0  0  0  0  0  0  0  0
   -6.8899   12.2266  -14.0936 H   0  0  0  0  0  0  0  0  0  0  0  0
   -8.0434    9.6128   -7.2619 H   0  0  0  0  0  0  0  0  0  0  0  0
   -5.3236   15.2108  -13.0115 H   0  0  0  0  0  0  0  0  0  0  0  0
   -6.7368   12.3095   -6.9008 H   0  0  0  0  0  0  0  0  0  0  0  0
   -4.5068   13.2844   -6.4740 H   0  0  0  0  0  0  0  0  0  0  0  0
   -2.6633    9.7472   -8.0527 H   0  0  0  0  0  0  0  0  0  0  0  0
   -4.8610    8.8182   -7.4958 H   0  0  0  0  0  0  0  0  0  0  0  0
   -4.8541    9.5530   -9.1349 H   0  0  0  0  0  0  0  0  0  0  0  0
   -2.4158   14.2066   -6.2077 H   0  0  0  0  0  0  0  0  0  0  0  0
   -0.6640   10.5509   -7.5709 H   0  0  0  0  0  0  0  0  0  0  0  0
    1.5009   14.2685   -6.0560 H   0  0  0  0  0  0  0  0  0  0  0  0
    0.2588   15.4349   -6.6244 H   0  0  0  0  0  0  0  0  0  0  0  0
    0.1984   14.8070   -4.9425 H   0  0  0  0  0  0  0  0  0  0  0  0
   -2.9622   15.1711  -12.0469 H   0  0  0  0  0  0  0  0  0  0  0  0
   -4.2464   15.9849  -11.0903 H   0  0  0  0  0  0  0  0  0  0  0  0
   -3.3555   15.0059   -9.0807 H   0  0  0  0  0  0  0  0  0  0  0  0
   -4.9587   13.2414   -9.3350 H   0  0  0  0  0  0  0  0  0  0  0  0
   -3.7216   12.2489  -10.1783 H   0  0  0  0  0  0  0  0  0  0  0  0
    0.1412   14.5025  -10.2248 H   0  0  0  0  0  0  0  0  0  0  0  0
   -1.0556   15.5656  -11.0396 H   0  0  0  0  0  0  0  0  0  0  0  0
   -0.9185   15.5750   -9.2486 H   0  0  0  0  0  0  0  0  0  0  0  0
  1  2  1  0  0  0  0
  1  4  1  0  0  0  0
  1 12  2  3  0  0  0
  2  6  2  0  0  0  0
  3  4  2  0  0  0  0
  3  5  1  0  0  0  0
  5  6  1  0  0  0  0
  5  9  2  0  0  0  0
  6  7  1  0  0  0  0
  7  8  2  0  0  0  0
  7 10  1  0  0  0  0
  8  9  1  0  0  0  0
 10 14  2  3  0  0  0
 11 12  1  0  0  0  0
 11 26  1  0  0  0  0
 11 28  1  0  0  0  0
 12 13  1  0  0  0  0
 14 15  1  0  0  0  0
 14 19  1  0  0  0  0
 15 16  2  0  0  0  0
 16 17  1  0  0  0  0
 17 18  2  0  0  0  0
 17 20  1  0  0  0  0
 18 19  1  0  0  0  0
 20 21  2  0  0  0  0
 20 24  1  0  0  0  0
 21 22  1  0  0  0  0
 22 23  1  0  0  0  0
 22 25  1  0  0  0  0
 23 24  2  0  0  0  0
 26 27  1  0  0  0  0
 27 28  1  0  0  0  0
 27 29  1  0  0  0  0
 29 30  1  0  0  0  0
  2 31  1  0  0  0  0
  3 32  1  0  0  0  0
  4 33  1  0  0  0  0
 10 34  1  0  0  0  0
 13 35  1  0  0  0  0
 15 36  1  0  0  0  0
 16 37  1  0  0  0  0
 18 38  1  0  0  0  0
 19 39  1  0  0  0  0
 19 40  1  0  0  0  0
 21 41  1  0  0  0  0
 24 42  1  0  0  0  0
 25 43  1  0  0  0  0
 25 44  1  0  0  0  0
 25 45  1  0  0  0  0
 26 46  1  0  0  0  0
 26 47  1  0  0  0  0
 27 48  1  0  0  0  0
 28 49  1  0  0  0  0
 28 50  1  0  0  0  0
 30 51  1  0  0  0  0
 30 52  1  0  0  0  0
 30 53  1  0  0  0  0
M  END
> <Name>
36

> <IC50[uM]>
0.006

$$$$
