25
  -OEChem-05192314333D
 Structure written by MMmdl.
 46 49  0     0  0  0  0  0  0999 V2000
   -6.3861   12.3623  -11.9697 C   0  0  0  0  0  0  0  0  0  0  0  0
   -6.5480   11.8020  -10.7080 C   0  0  0  0  0  0  0  0  0  0  0  0
   -7.6869   10.5726  -13.0325 C   0  0  0  0  0  0  0  0  0  0  0  0
   -6.9529   11.7665  -13.1047 C   0  0  0  0  0  0  0  0  0  0  0  0
   -7.8210   10.0086  -11.7556 C   0  0  0  0  0  0  0  0  0  0  0  0
   -7.2636   10.6177  -10.5919 C   0  0  0  0  0  0  0  0  0  0  0  0
   -7.6330    9.7421   -9.5104 C   0  0  0  0  0  0  0  0  0  0  0  0
   -8.3023    8.7332   -9.9897 N   0  0  0  0  0  0  0  0  0  0  0  0
   -8.4342    8.8678  -11.3051 N   0  0  0  0  0  0  0  0  0  0  0  0
   -7.3415    9.8758   -8.0215 C   0  0  0  0  0  0  0  0  0  0  0  0
   -4.1211   13.8754  -11.2000 S   0  0  0  0  0  0  0  0  0  0  0  0
   -2.9188   12.5402  -11.7675 C   0  0  0  0  0  0  0  0  0  0  0  0
   -5.6382   13.5428  -12.1051 N   0  0  0  0  0  0  0  0  0  0  0  0
   -5.9683   10.4827   -7.7344 C   0  0  0  0  0  0  0  0  0  0  0  0
   -4.8123    9.7690   -8.0490 C   0  0  0  0  0  0  0  0  0  0  0  0
   -3.5592   10.3237   -7.7969 C   0  0  0  0  0  0  0  0  0  0  0  0
   -3.4543   11.5962   -7.2288 C   0  0  0  0  0  0  0  0  0  0  0  0
   -4.6126   12.3085   -6.9084 C   0  0  0  0  0  0  0  0  0  0  0  0
   -5.8671   11.7538   -7.1613 C   0  0  0  0  0  0  0  0  0  0  0  0
   -2.1058   12.1871   -6.9644 C   0  0  0  0  0  0  0  0  0  0  0  0
   -1.7745   13.4406   -6.4637 C   0  0  0  0  0  0  0  0  0  0  0  0
   -0.4394   13.4976   -6.4041 N   0  0  0  0  0  0  0  0  0  0  0  0
    0.1691   12.4146   -6.8015 N   0  0  0  0  0  0  0  0  0  0  0  0
   -0.8034   11.5995   -7.1773 C   0  0  0  0  0  0  0  0  0  0  0  0
    0.3694   14.6144   -5.9538 C   0  0  0  0  0  0  0  0  0  0  0  0
   -3.6497   15.1720  -11.6865 O   0  0  0  0  0  0  0  0  0  0  0  0
   -4.3650   13.6745   -9.7698 O   0  0  0  0  0  0  0  0  0  0  0  0
   -6.1257   12.2782   -9.8355 H   0  0  0  0  0  0  0  0  0  0  0  0
   -8.1227   10.1152  -13.9085 H   0  0  0  0  0  0  0  0  0  0  0  0
   -6.8205   12.2414  -14.0656 H   0  0  0  0  0  0  0  0  0  0  0  0
   -8.6624    7.9724   -9.4498 H   0  0  0  0  0  0  0  0  0  0  0  0
   -8.1107   10.5196   -7.5701 H   0  0  0  0  0  0  0  0  0  0  0  0
   -7.3856    8.8762   -7.5645 H   0  0  0  0  0  0  0  0  0  0  0  0
   -1.9543   12.6728  -11.2554 H   0  0  0  0  0  0  0  0  0  0  0  0
   -3.3298   11.5493  -11.5240 H   0  0  0  0  0  0  0  0  0  0  0  0
   -2.7704   12.6186  -12.8546 H   0  0  0  0  0  0  0  0  0  0  0  0
   -5.3954   13.6013  -13.0734 H   0  0  0  0  0  0  0  0  0  0  0  0
   -4.8884    8.7854   -8.4885 H   0  0  0  0  0  0  0  0  0  0  0  0
   -2.6658    9.7683   -8.0414 H   0  0  0  0  0  0  0  0  0  0  0  0
   -4.5366   13.2900   -6.4643 H   0  0  0  0  0  0  0  0  0  0  0  0
   -6.7612   12.3068   -6.9141 H   0  0  0  0  0  0  0  0  0  0  0  0
   -2.4642   14.2207   -6.1771 H   0  0  0  0  0  0  0  0  0  0  0  0
   -0.6430   10.6154   -7.5924 H   0  0  0  0  0  0  0  0  0  0  0  0
    1.4345   14.3489   -6.0254 H   0  0  0  0  0  0  0  0  0  0  0  0
    0.1671   15.4918   -6.5857 H   0  0  0  0  0  0  0  0  0  0  0  0
    0.1198   14.8498   -4.9087 H   0  0  0  0  0  0  0  0  0  0  0  0
  1  2  2  0  0  0  0
  1  4  1  0  0  0  0
  1 13  1  0  0  0  0
  2  6  1  0  0  0  0
  3  4  2  0  0  0  0
  3  5  1  0  0  0  0
  5  6  1  0  0  0  0
  5  9  2  0  0  0  0
  6  7  2  0  0  0  0
  7  8  1  0  0  0  0
  7 10  1  0  0  0  0
  8  9  1  0  0  0  0
 10 14  1  0  0  0  0
 11 12  1  0  0  0  0
 11 13  1  0  0  0  0
 11 26  2  0  0  0  0
 11 27  2  0  0  0  0
 14 15  2  0  0  0  0
 14 19  1  0  0  0  0
 15 16  1  0  0  0  0
 16 17  2  0  0  0  0
 17 18  1  0  0  0  0
 17 20  1  0  0  0  0
 18 19  2  0  0  0  0
 20 21  2  0  0  0  0
 20 24  1  0  0  0  0
 21 22  1  0  0  0  0
 22 23  1  0  0  0  0
 22 25  1  0  0  0  0
 23 24  2  0  0  0  0
  2 28  1  0  0  0  0
  3 29  1  0  0  0  0
  4 30  1  0  0  0  0
  8 31  1  0  0  0  0
 10 32  1  0  0  0  0
 10 33  1  0  0  0  0
 12 34  1  0  0  0  0
 12 35  1  0  0  0  0
 12 36  1  0  0  0  0
 13 37  1  0  0  0  0
 15 38  1  0  0  0  0
 16 39  1  0  0  0  0
 18 40  1  0  0  0  0
 19 41  1  0  0  0  0
 21 42  1  0  0  0  0
 24 43  1  0  0  0  0
 25 44  1  0  0  0  0
 25 45  1  0  0  0  0
 25 46  1  0  0  0  0
M  END
> <Name>
25

> <IC50[uM]>
0.073

$$$$
25
  -OEChem-05192314333D
 Structure written by MMmdl.
 46 49  0     0  0  0  0  0  0999 V2000
   -6.3861   12.3623  -11.9697 C   0  0  0  0  0  0  0  0  0  0  0  0
   -6.5480   11.8020  -10.7080 C   0  0  0  0  0  0  0  0  0  0  0  0
   -7.6869   10.5726  -13.0325 C   0  0  0  0  0  0  0  0  0  0  0  0
   -6.9529   11.7665  -13.1047 C   0  0  0  0  0  0  0  0  0  0  0  0
   -7.8210   10.0086  -11.7556 C   0  0  0  0  0  0  0  0  0  0  0  0
   -7.2636   10.6177  -10.5919 C   0  0  0  0  0  0  0  0  0  0  0  0
   -7.6330    9.7421   -9.5104 C   0  0  0  0  0  0  0  0  0  0  0  0
   -8.3023    8.7332   -9.9897 N   0  0  0  0  0  0  0  0  0  0  0  0
   -8.4342    8.8678  -11.3051 N   0  0  0  0  0  0  0  0  0  0  0  0
   -7.3415    9.8758   -8.0215 C   0  0  0  0  0  0  0  0  0  0  0  0
   -4.1211   13.8754  -11.2000 S   0  0  0  0  0  0  0  0  0  0  0  0
   -2.9188   12.5402  -11.7675 C   0  0  0  0  0  0  0  0  0  0  0  0
   -5.6382   13.5428  -12.1051 N   0  0  0  0  0  0  0  0  0  0  0  0
   -5.9683   10.4827   -7.7344 C   0  0  0  0  0  0  0  0  0  0  0  0
   -4.8123    9.7690   -8.0490 C   0  0  0  0  0  0  0  0  0  0  0  0
   -3.5592   10.3237   -7.7969 C   0  0  0  0  0  0  0  0  0  0  0  0
   -3.4543   11.5962   -7.2288 C   0  0  0  0  0  0  0  0  0  0  0  0
   -4.6126   12.3085   -6.9084 C   0  0  0  0  0  0  0  0  0  0  0  0
   -5.8671   11.7538   -7.1613 C   0  0  0  0  0  0  0  0  0  0  0  0
   -2.1058   12.1871   -6.9644 C   0  0  0  0  0  0  0  0  0  0  0  0
   -1.7745   13.4406   -6.4637 C   0  0  0  0  0  0  0  0  0  0  0  0
   -0.4394   13.4976   -6.4041 N   0  0  0  0  0  0  0  0  0  0  0  0
    0.1691   12.4146   -6.8015 N   0  0  0  0  0  0  0  0  0  0  0  0
   -0.8034   11.5995   -7.1773 C   0  0  0  0  0  0  0  0  0  0  0  0
    0.3694   14.6144   -5.9538 C   0  0  0  0  0  0  0  0  0  0  0  0
   -3.6497   15.1720  -11.6865 O   0  0  0  0  0  0  0  0  0  0  0  0
   -4.3650   13.6745   -9.7698 O   0  0  0  0  0  0  0  0  0  0  0  0
   -6.1257   12.2782   -9.8355 H   0  0  0  0  0  0  0  0  0  0  0  0
   -8.1227   10.1152  -13.9085 H   0  0  0  0  0  0  0  0  0  0  0  0
   -6.8205   12.2414  -14.0656 H   0  0  0  0  0  0  0  0  0  0  0  0
   -8.9191    8.2194  -11.8920 H   0  0  0  0  0  0  0  0  0  0  0  0
   -8.1107   10.5196   -7.5701 H   0  0  0  0  0  0  0  0  0  0  0  0
   -7.3856    8.8762   -7.5645 H   0  0  0  0  0  0  0  0  0  0  0  0
   -1.9543   12.6728  -11.2554 H   0  0  0  0  0  0  0  0  0  0  0  0
   -3.3298   11.5493  -11.5240 H   0  0  0  0  0  0  0  0  0  0  0  0
   -2.7704   12.6186  -12.8546 H   0  0  0  0  0  0  0  0  0  0  0  0
   -5.3954   13.6013  -13.0734 H   0  0  0  0  0  0  0  0  0  0  0  0
   -4.8884    8.7854   -8.4885 H   0  0  0  0  0  0  0  0  0  0  0  0
   -2.6658    9.7683   -8.0414 H   0  0  0  0  0  0  0  0  0  0  0  0
   -4.5366   13.2900   -6.4643 H   0  0  0  0  0  0  0  0  0  0  0  0
   -6.7612   12.3068   -6.9141 H   0  0  0  0  0  0  0  0  0  0  0  0
   -2.4642   14.2207   -6.1771 H   0  0  0  0  0  0  0  0  0  0  0  0
   -0.6430   10.6154   -7.5924 H   0  0  0  0  0  0  0  0  0  0  0  0
    1.4345   14.3489   -6.0254 H   0  0  0  0  0  0  0  0  0  0  0  0
    0.1671   15.4918   -6.5857 H   0  0  0  0  0  0  0  0  0  0  0  0
    0.1198   14.8498   -4.9087 H   0  0  0  0  0  0  0  0  0  0  0  0
  1  2  2  0  0  0  0
  1  4  1  0  0  0  0
  1 13  1  0  0  0  0
  2  6  1  0  0  0  0
  3  4  2  0  0  0  0
  3  5  1  0  0  0  0
  5  6  2  0  0  0  0
  5  9  1  0  0  0  0
  6  7  1  0  0  0  0
  7  8  2  0  0  0  0
  7 10  1  0  0  0  0
  8  9  1  0  0  0  0
 10 14  1  0  0  0  0
 11 12  1  0  0  0  0
 11 13  1  0  0  0  0
 11 26  2  0  0  0  0
 11 27  2  0  0  0  0
 14 15  2  0  0  0  0
 14 19  1  0  0  0  0
 15 16  1  0  0  0  0
 16 17  2  0  0  0  0
 17 18  1  0  0  0  0
 17 20  1  0  0  0  0
 18 19  2  0  0  0  0
 20 21  2  0  0  0  0
 20 24  1  0  0  0  0
 21 22  1  0  0  0  0
 22 23  1  0  0  0  0
 22 25  1  0  0  0  0
 23 24  2  0  0  0  0
  2 28  1  0  0  0  0
  3 29  1  0  0  0  0
  4 30  1  0  0  0  0
  9 31  1  0  0  0  0
 10 32  1  0  0  0  0
 10 33  1  0  0  0  0
 12 34  1  0  0  0  0
 12 35  1  0  0  0  0
 12 36  1  0  0  0  0
 13 37  1  0  0  0  0
 15 38  1  0  0  0  0
 16 39  1  0  0  0  0
 18 40  1  0  0  0  0
 19 41  1  0  0  0  0
 21 42  1  0  0  0  0
 24 43  1  0  0  0  0
 25 44  1  0  0  0  0
 25 45  1  0  0  0  0
 25 46  1  0  0  0  0
M  END
> <Name>
25

> <IC50[uM]>
0.073

$$$$
25
  -OEChem-05192314333D
 Structure written by MMmdl.
 46 49  0     1  0  0  0  0  0999 V2000
   -6.3861   12.3623  -11.9697 C   0  0  0  0  0  0  0  0  0  0  0  0
   -6.5480   11.8020  -10.7080 C   0  0  0  0  0  0  0  0  0  0  0  0
   -7.6869   10.5726  -13.0325 C   0  0  0  0  0  0  0  0  0  0  0  0
   -6.9529   11.7665  -13.1047 C   0  0  0  0  0  0  0  0  0  0  0  0
   -7.8210   10.0086  -11.7556 C   0  0  0  0  0  0  0  0  0  0  0  0
   -7.2636   10.6177  -10.5919 C   0  0  0  0  0  0  0  0  0  0  0  0
   -7.6330    9.7421   -9.5104 C   0  0  3  0  0  0  0  0  0  0  0  0
   -8.3023    8.7332   -9.9897 N   0  0  0  0  0  0  0  0  0  0  0  0
   -8.4342    8.8678  -11.3051 N   0  0  0  0  0  0  0  0  0  0  0  0
   -7.3415    9.8758   -8.0215 C   0  0  0  0  0  0  0  0  0  0  0  0
   -4.1211   13.8754  -11.2000 S   0  0  0  0  0  0  0  0  0  0  0  0
   -2.9188   12.5402  -11.7675 C   0  0  0  0  0  0  0  0  0  0  0  0
   -5.6382   13.5428  -12.1051 N   0  0  0  0  0  0  0  0  0  0  0  0
   -5.9683   10.4827   -7.7344 C   0  0  0  0  0  0  0  0  0  0  0  0
   -4.8123    9.7690   -8.0490 C   0  0  0  0  0  0  0  0  0  0  0  0
   -3.5592   10.3237   -7.7969 C   0  0  0  0  0  0  0  0  0  0  0  0
   -3.4543   11.5962   -7.2288 C   0  0  0  0  0  0  0  0  0  0  0  0
   -4.6126   12.3085   -6.9084 C   0  0  0  0  0  0  0  0  0  0  0  0
   -5.8671   11.7538   -7.1613 C   0  0  0  0  0  0  0  0  0  0  0  0
   -2.1058   12.1871   -6.9644 C   0  0  0  0  0  0  0  0  0  0  0  0
   -1.7745   13.4406   -6.4637 C   0  0  0  0  0  0  0  0  0  0  0  0
   -0.4394   13.4976   -6.4041 N   0  0  0  0  0  0  0  0  0  0  0  0
    0.1691   12.4146   -6.8015 N   0  0  0  0  0  0  0  0  0  0  0  0
   -0.8034   11.5995   -7.1773 C   0  0  0  0  0  0  0  0  0  0  0  0
    0.3694   14.6144   -5.9538 C   0  0  0  0  0  0  0  0  0  0  0  0
   -3.6497   15.1720  -11.6865 O   0  0  0  0  0  0  0  0  0  0  0  0
   -4.3650   13.6745   -9.7698 O   0  0  0  0  0  0  0  0  0  0  0  0
   -6.1257   12.2782   -9.8355 H   0  0  0  0  0  0  0  0  0  0  0  0
   -8.1227   10.1152  -13.9085 H   0  0  0  0  0  0  0  0  0  0  0  0
   -6.8205   12.2414  -14.0656 H   0  0  0  0  0  0  0  0  0  0  0  0
   -8.5708   10.3015   -9.3774 H   0  0  0  0  0  0  0  0  0  0  0  0
   -8.1107   10.5196   -7.5701 H   0  0  0  0  0  0  0  0  0  0  0  0
   -7.3856    8.8762   -7.5645 H   0  0  0  0  0  0  0  0  0  0  0  0
   -1.9543   12.6728  -11.2554 H   0  0  0  0  0  0  0  0  0  0  0  0
   -3.3298   11.5493  -11.5240 H   0  0  0  0  0  0  0  0  0  0  0  0
   -2.7704   12.6186  -12.8546 H   0  0  0  0  0  0  0  0  0  0  0  0
   -5.3954   13.6013  -13.0734 H   0  0  0  0  0  0  0  0  0  0  0  0
   -4.8884    8.7854   -8.4885 H   0  0  0  0  0  0  0  0  0  0  0  0
   -2.6658    9.7683   -8.0414 H   0  0  0  0  0  0  0  0  0  0  0  0
   -4.5366   13.2900   -6.4643 H   0  0  0  0  0  0  0  0  0  0  0  0
   -6.7612   12.3068   -6.9141 H   0  0  0  0  0  0  0  0  0  0  0  0
   -2.4642   14.2207   -6.1771 H   0  0  0  0  0  0  0  0  0  0  0  0
   -0.6430   10.6154   -7.5924 H   0  0  0  0  0  0  0  0  0  0  0  0
    1.4345   14.3489   -6.0254 H   0  0  0  0  0  0  0  0  0  0  0  0
    0.1671   15.4918   -6.5857 H   0  0  0  0  0  0  0  0  0  0  0  0
    0.1198   14.8498   -4.9087 H   0  0  0  0  0  0  0  0  0  0  0  0
  1  2  2  0  0  0  0
  1  4  1  0  0  0  0
  1 13  1  0  0  0  0
  2  6  1  0  0  0  0
  3  4  2  0  0  0  0
  3  5  1  0  0  0  0
  5  6  2  0  0  0  0
  5  9  1  0  0  0  0
  6  7  1  0  0  0  0
  7  8  1  0  0  0  0
  7 10  1  0  0  0  0
  8  9  2  0  0  0  0
 10 14  1  0  0  0  0
 11 12  1  0  0  0  0
 11 13  1  0  0  0  0
 11 26  2  0  0  0  0
 11 27  2  0  0  0  0
 14 15  2  0  0  0  0
 14 19  1  0  0  0  0
 15 16  1  0  0  0  0
 16 17  2  0  0  0  0
 17 18  1  0  0  0  0
 17 20  1  0  0  0  0
 18 19  2  0  0  0  0
 20 21  2  0  0  0  0
 20 24  1  0  0  0  0
 21 22  1  0  0  0  0
 22 23  1  0  0  0  0
 22 25  1  0  0  0  0
 23 24  2  0  0  0  0
  2 28  1  0  0  0  0
  3 29  1  0  0  0  0
  4 30  1  0  0  0  0
  7 31  1  0  0  0  0
 10 32  1  0  0  0  0
 10 33  1  0  0  0  0
 12 34  1  0  0  0  0
 12 35  1  0  0  0  0
 12 36  1  0  0  0  0
 13 37  1  0  0  0  0
 15 38  1  0  0  0  0
 16 39  1  0  0  0  0
 18 40  1  0  0  0  0
 19 41  1  0  0  0  0
 21 42  1  0  0  0  0
 24 43  1  0  0  0  0
 25 44  1  0  0  0  0
 25 45  1  0  0  0  0
 25 46  1  0  0  0  0
M  END
> <Name>
25

> <IC50[uM]>
0.073

$$$$
25
  -OEChem-05192314333D
 Structure written by MMmdl.
 46 49  0     0  0  0  0  0  0999 V2000
   -6.3861   12.3623  -11.9697 C   0  0  0  0  0  0  0  0  0  0  0  0
   -6.5480   11.8020  -10.7080 C   0  0  0  0  0  0  0  0  0  0  0  0
   -7.6869   10.5726  -13.0325 C   0  0  0  0  0  0  0  0  0  0  0  0
   -6.9529   11.7665  -13.1047 C   0  0  0  0  0  0  0  0  0  0  0  0
   -7.8210   10.0086  -11.7556 C   0  0  0  0  0  0  0  0  0  0  0  0
   -7.2636   10.6177  -10.5919 C   0  0  0  0  0  0  0  0  0  0  0  0
   -7.6330    9.7421   -9.5104 C   0  0  0  0  0  0  0  0  0  0  0  0
   -8.3023    8.7332   -9.9897 N   0  0  0  0  0  0  0  0  0  0  0  0
   -8.4342    8.8678  -11.3051 N   0  0  0  0  0  0  0  0  0  0  0  0
   -7.3415    9.8758   -8.0215 C   0  0  0  0  0  0  0  0  0  0  0  0
   -4.1211   13.8754  -11.2000 S   0  0  0  0  0  0  0  0  0  0  0  0
   -2.9188   12.5402  -11.7675 C   0  0  0  0  0  0  0  0  0  0  0  0
   -5.6382   13.5428  -12.1051 N   0  0  0  0  0  0  0  0  0  0  0  0
   -5.9683   10.4827   -7.7344 C   0  0  0  0  0  0  0  0  0  0  0  0
   -4.8123    9.7690   -8.0490 C   0  0  0  0  0  0  0  0  0  0  0  0
   -3.5592   10.3237   -7.7969 C   0  0  0  0  0  0  0  0  0  0  0  0
   -3.4543   11.5962   -7.2288 C   0  0  0  0  0  0  0  0  0  0  0  0
   -4.6126   12.3085   -6.9084 C   0  0  0  0  0  0  0  0  0  0  0  0
   -5.8671   11.7538   -7.1613 C   0  0  0  0  0  0  0  0  0  0  0  0
   -2.1058   12.1871   -6.9644 C   0  0  0  0  0  0  0  0  0  0  0  0
   -1.7745   13.4406   -6.4637 C   0  0  0  0  0  0  0  0  0  0  0  0
   -0.4394   13.4976   -6.4041 N   0  0  0  0  0  0  0  0  0  0  0  0
    0.1691   12.4146   -6.8015 N   0  0  0  0  0  0  0  0  0  0  0  0
   -0.8034   11.5995   -7.1773 C   0  0  0  0  0  0  0  0  0  0  0  0
    0.3694   14.6144   -5.9538 C   0  0  0  0  0  0  0  0  0  0  0  0
   -3.6497   15.1720  -11.6865 O   0  0  0  0  0  0  0  0  0  0  0  0
   -4.3650   13.6745   -9.7698 O   0  0  0  0  0  0  0  0  0  0  0  0
   -6.1257   12.2782   -9.8355 H   0  0  0  0  0  0  0  0  0  0  0  0
   -8.1227   10.1152  -13.9085 H   0  0  0  0  0  0  0  0  0  0  0  0
   -6.8205   12.2414  -14.0656 H   0  0  0  0  0  0  0  0  0  0  0  0
   -7.8128    7.8844   -9.7898 H   0  0  0  0  0  0  0  0  0  0  0  0
   -9.4072    8.9103  -11.5318 H   0  0  0  0  0  0  0  0  0  0  0  0
   -8.0330    9.5733   -7.2490 H   0  0  0  0  0  0  0  0  0  0  0  0
   -1.9543   12.6728  -11.2554 H   0  0  0  0  0  0  0  0  0  0  0  0
   -3.3298   11.5493  -11.5240 H   0  0  0  0  0  0  0  0  0  0  0  0
   -2.7704   12.6186  -12.8546 H   0  0  0  0  0  0  0  0  0  0  0  0
   -5.3954   13.6013  -13.0734 H   0  0  0  0  0  0  0  0  0  0  0  0
   -4.8884    8.7854   -8.4885 H   0  0  0  0  0  0  0  0  0  0  0  0
   -2.6658    9.7683   -8.0414 H   0  0  0  0  0  0  0  0  0  0  0  0
   -4.5366   13.2900   -6.4643 H   0  0  0  0  0  0  0  0  0  0  0  0
   -6.7612   12.3068   -6.9141 H   0  0  0  0  0  0  0  0  0  0  0  0
   -2.4642   14.2207   -6.1771 H   0  0  0  0  0  0  0  0  0  0  0  0
   -0.6430   10.6154   -7.5924 H   0  0  0  0  0  0  0  0  0  0  0  0
    1.4345   14.3489   -6.0254 H   0  0  0  0  0  0  0  0  0  0  0  0
    0.1671   15.4918   -6.5857 H   0  0  0  0  0  0  0  0  0  0  0  0
    0.1198   14.8498   -4.9087 H   0  0  0  0  0  0  0  0  0  0  0  0
  1  2  2  0  0  0  0
  1  4  1  0  0  0  0
  1 13  1  0  0  0  0
  2  6  1  0  0  0  0
  3  4  2  0  0  0  0
  3  5  1  0  0  0  0
  5  6  2  0  0  0  0
  5  9  1  0  0  0  0
  6  7  1  0  0  0  0
  7  8  1  0  0  0  0
  7 10  2  3  0  0  0
  8  9  1  0  0  0  0
 10 14  1  0  0  0  0
 11 12  1  0  0  0  0
 11 13  1  0  0  0  0
 11 26  2  0  0  0  0
 11 27  2  0  0  0  0
 14 15  2  0  0  0  0
 14 19  1  0  0  0  0
 15 16  1  0  0  0  0
 16 17  2  0  0  0  0
 17 18  1  0  0  0  0
 17 20  1  0  0  0  0
 18 19  2  0  0  0  0
 20 21  2  0  0  0  0
 20 24  1  0  0  0  0
 21 22  1  0  0  0  0
 22 23  1  0  0  0  0
 22 25  1  0  0  0  0
 23 24  2  0  0  0  0
  2 28  1  0  0  0  0
  3 29  1  0  0  0  0
  4 30  1  0  0  0  0
  8 31  1  0  0  0  0
  9 32  1  0  0  0  0
 10 33  1  0  0  0  0
 12 34  1  0  0  0  0
 12 35  1  0  0  0  0
 12 36  1  0  0  0  0
 13 37  1  0  0  0  0
 15 38  1  0  0  0  0
 16 39  1  0  0  0  0
 18 40  1  0  0  0  0
 19 41  1  0  0  0  0
 21 42  1  0  0  0  0
 24 43  1  0  0  0  0
 25 44  1  0  0  0  0
 25 45  1  0  0  0  0
 25 46  1  0  0  0  0
M  END
> <Name>
25

> <IC50[uM]>
0.073

$$$$
25
  -OEChem-05192314333D
 Structure written by MMmdl.
 46 49  0     0  0  0  0  0  0999 V2000
   -6.3861   12.3623  -11.9697 C   0  0  0  0  0  0  0  0  0  0  0  0
   -6.5480   11.8020  -10.7080 C   0  0  0  0  0  0  0  0  0  0  0  0
   -7.6869   10.5726  -13.0325 C   0  0  0  0  0  0  0  0  0  0  0  0
   -6.9529   11.7665  -13.1047 C   0  0  0  0  0  0  0  0  0  0  0  0
   -7.8210   10.0086  -11.7556 C   0  0  0  0  0  0  0  0  0  0  0  0
   -7.2636   10.6177  -10.5919 C   0  0  0  0  0  0  0  0  0  0  0  0
   -7.6330    9.7421   -9.5104 C   0  0  0  0  0  0  0  0  0  0  0  0
   -8.3023    8.7332   -9.9897 N   0  0  0  0  0  0  0  0  0  0  0  0
   -8.4342    8.8678  -11.3051 N   0  0  0  0  0  0  0  0  0  0  0  0
   -7.3415    9.8758   -8.0215 C   0  0  0  0  0  0  0  0  0  0  0  0
   -4.1211   13.8754  -11.2000 S   0  0  0  0  0  0  0  0  0  0  0  0
   -2.9188   12.5402  -11.7675 C   0  0  0  0  0  0  0  0  0  0  0  0
   -5.6382   13.5428  -12.1051 N   0  0  0  0  0  0  0  0  0  0  0  0
   -5.9683   10.4827   -7.7344 C   0  0  0  0  0  0  0  0  0  0  0  0
   -4.8123    9.7690   -8.0490 C   0  0  0  0  0  0  0  0  0  0  0  0
   -3.5592   10.3237   -7.7969 C   0  0  0  0  0  0  0  0  0  0  0  0
   -3.4543   11.5962   -7.2288 C   0  0  0  0  0  0  0  0  0  0  0  0
   -4.6126   12.3085   -6.9084 C   0  0  0  0  0  0  0  0  0  0  0  0
   -5.8671   11.7538   -7.1613 C   0  0  0  0  0  0  0  0  0  0  0  0
   -2.1058   12.1871   -6.9644 C   0  0  0  0  0  0  0  0  0  0  0  0
   -1.7745   13.4406   -6.4637 C   0  0  0  0  0  0  0  0  0  0  0  0
   -0.4394   13.4976   -6.4041 N   0  0  0  0  0  0  0  0  0  0  0  0
    0.1691   12.4146   -6.8015 N   0  0  0  0  0  0  0  0  0  0  0  0
   -0.8034   11.5995   -7.1773 C   0  0  0  0  0  0  0  0  0  0  0  0
    0.3694   14.6144   -5.9538 C   0  0  0  0  0  0  0  0  0  0  0  0
   -3.6497   15.1720  -11.6865 O   0  0  0  0  0  0  0  0  0  0  0  0
   -4.3650   13.6745   -9.7698 O   0  0  0  0  0  0  0  0  0  0  0  0
   -5.5417   11.6132  -10.3059 H   0  0  0  0  0  0  0  0  0  0  0  0
   -7.0576   12.5509  -10.0840 H   0  0  0  0  0  0  0  0  0  0  0  0
   -8.1227   10.1152  -13.9085 H   0  0  0  0  0  0  0  0  0  0  0  0
   -6.8205   12.2414  -14.0656 H   0  0  0  0  0  0  0  0  0  0  0  0
   -8.6624    7.9724   -9.4498 H   0  0  0  0  0  0  0  0  0  0  0  0
   -8.1107   10.5196   -7.5701 H   0  0  0  0  0  0  0  0  0  0  0  0
   -7.3856    8.8762   -7.5645 H   0  0  0  0  0  0  0  0  0  0  0  0
   -1.9543   12.6728  -11.2554 H   0  0  0  0  0  0  0  0  0  0  0  0
   -3.3298   11.5493  -11.5240 H   0  0  0  0  0  0  0  0  0  0  0  0
   -2.7704   12.6186  -12.8546 H   0  0  0  0  0  0  0  0  0  0  0  0
   -4.8884    8.7854   -8.4885 H   0  0  0  0  0  0  0  0  0  0  0  0
   -2.6658    9.7683   -8.0414 H   0  0  0  0  0  0  0  0  0  0  0  0
   -4.5366   13.2900   -6.4643 H   0  0  0  0  0  0  0  0  0  0  0  0
   -6.7612   12.3068   -6.9141 H   0  0  0  0  0  0  0  0  0  0  0  0
   -2.4642   14.2207   -6.1771 H   0  0  0  0  0  0  0  0  0  0  0  0
   -0.6430   10.6154   -7.5924 H   0  0  0  0  0  0  0  0  0  0  0  0
    1.4345   14.3489   -6.0254 H   0  0  0  0  0  0  0  0  0  0  0  0
    0.1671   15.4918   -6.5857 H   0  0  0  0  0  0  0  0  0  0  0  0
    0.1198   14.8498   -4.9087 H   0  0  0  0  0  0  0  0  0  0  0  0
  1  2  1  0  0  0  0
  1  4  1  0  0  0  0
  1 13  2  3  0  0  0
  2  6  1  0  0  0  0
  3  4  2  0  0  0  0
  3  5  1  0  0  0  0
  5  6  1  0  0  0  0
  5  9  2  0  0  0  0
  6  7  2  0  0  0  0
  7  8  1  0  0  0  0
  7 10  1  0  0  0  0
  8  9  1  0  0  0  0
 10 14  1  0  0  0  0
 11 12  1  0  0  0  0
 11 13  1  0  0  0  0
 11 26  2  0  0  0  0
 11 27  2  0  0  0  0
 14 15  2  0  0  0  0
 14 19  1  0  0  0  0
 15 16  1  0  0  0  0
 16 17  2  0  0  0  0
 17 18  1  0  0  0  0
 17 20  1  0  0  0  0
 18 19  2  0  0  0  0
 20 21  2  0  0  0  0
 20 24  1  0  0  0  0
 21 22  1  0  0  0  0
 22 23  1  0  0  0  0
 22 25  1  0  0  0  0
 23 24  2  0  0  0  0
  2 28  1  0  0  0  0
  2 29  1  0  0  0  0
  3 30  1  0  0  0  0
  4 31  1  0  0  0  0
  8 32  1  0  0  0  0
 10 33  1  0  0  0  0
 10 34  1  0  0  0  0
 12 35  1  0  0  0  0
 12 36  1  0  0  0  0
 12 37  1  0  0  0  0
 15 38  1  0  0  0  0
 16 39  1  0  0  0  0
 18 40  1  0  0  0  0
 19 41  1  0  0  0  0
 21 42  1  0  0  0  0
 24 43  1  0  0  0  0
 25 44  1  0  0  0  0
 25 45  1  0  0  0  0
 25 46  1  0  0  0  0
M  END
> <Name>
25

> <IC50[uM]>
0.073

$$$$
25
  -OEChem-05192314333D
 Structure written by MMmdl.
 46 49  0     0  0  0  0  0  0999 V2000
   -6.3861   12.3623  -11.9697 C   0  0  0  0  0  0  0  0  0  0  0  0
   -6.5480   11.8020  -10.7080 C   0  0  0  0  0  0  0  0  0  0  0  0
   -7.6869   10.5726  -13.0325 C   0  0  0  0  0  0  0  0  0  0  0  0
   -6.9529   11.7665  -13.1047 C   0  0  0  0  0  0  0  0  0  0  0  0
   -7.8210   10.0086  -11.7556 C   0  0  0  0  0  0  0  0  0  0  0  0
   -7.2636   10.6177  -10.5919 C   0  0  0  0  0  0  0  0  0  0  0  0
   -7.6330    9.7421   -9.5104 C   0  0  0  0  0  0  0  0  0  0  0  0
   -8.3023    8.7332   -9.9897 N   0  0  0  0  0  0  0  0  0  0  0  0
   -8.4342    8.8678  -11.3051 N   0  0  0  0  0  0  0  0  0  0  0  0
   -7.3415    9.8758   -8.0215 C   0  0  0  0  0  0  0  0  0  0  0  0
   -4.1211   13.8754  -11.2000 S   0  0  0  0  0  0  0  0  0  0  0  0
   -2.9188   12.5402  -11.7675 C   0  0  0  0  0  0  0  0  0  0  0  0
   -5.6382   13.5428  -12.1051 N   0  0  0  0  0  0  0  0  0  0  0  0
   -5.9683   10.4827   -7.7344 C   0  0  0  0  0  0  0  0  0  0  0  0
   -4.8123    9.7690   -8.0490 C   0  0  0  0  0  0  0  0  0  0  0  0
   -3.5592   10.3237   -7.7969 C   0  0  0  0  0  0  0  0  0  0  0  0
   -3.4543   11.5962   -7.2288 C   0  0  0  0  0  0  0  0  0  0  0  0
   -4.6126   12.3085   -6.9084 C   0  0  0  0  0  0  0  0  0  0  0  0
   -5.8671   11.7538   -7.1613 C   0  0  0  0  0  0  0  0  0  0  0  0
   -2.1058   12.1871   -6.9644 C   0  0  0  0  0  0  0  0  0  0  0  0
   -1.7745   13.4406   -6.4637 C   0  0  0  0  0  0  0  0  0  0  0  0
   -0.4394   13.4976   -6.4041 N   0  0  0  0  0  0  0  0  0  0  0  0
    0.1691   12.4146   -6.8015 N   0  0  0  0  0  0  0  0  0  0  0  0
   -0.8034   11.5995   -7.1773 C   0  0  0  0  0  0  0  0  0  0  0  0
    0.3694   14.6144   -5.9538 C   0  0  0  0  0  0  0  0  0  0  0  0
   -3.6497   15.1720  -11.6865 O   0  0  0  0  0  0  0  0  0  0  0  0
   -4.3650   13.6745   -9.7698 O   0  0  0  0  0  0  0  0  0  0  0  0
   -5.5417   11.6132  -10.3059 H   0  0  0  0  0  0  0  0  0  0  0  0
   -7.0576   12.5509  -10.0840 H   0  0  0  0  0  0  0  0  0  0  0  0
   -8.1227   10.1152  -13.9085 H   0  0  0  0  0  0  0  0  0  0  0  0
   -6.8205   12.2414  -14.0656 H   0  0  0  0  0  0  0  0  0  0  0  0
   -8.9191    8.2194  -11.8920 H   0  0  0  0  0  0  0  0  0  0  0  0
   -8.1107   10.5196   -7.5701 H   0  0  0  0  0  0  0  0  0  0  0  0
   -7.3856    8.8762   -7.5645 H   0  0  0  0  0  0  0  0  0  0  0  0
   -1.9543   12.6728  -11.2554 H   0  0  0  0  0  0  0  0  0  0  0  0
   -3.3298   11.5493  -11.5240 H   0  0  0  0  0  0  0  0  0  0  0  0
   -2.7704   12.6186  -12.8546 H   0  0  0  0  0  0  0  0  0  0  0  0
   -4.8884    8.7854   -8.4885 H   0  0  0  0  0  0  0  0  0  0  0  0
   -2.6658    9.7683   -8.0414 H   0  0  0  0  0  0  0  0  0  0  0  0
   -4.5366   13.2900   -6.4643 H   0  0  0  0  0  0  0  0  0  0  0  0
   -6.7612   12.3068   -6.9141 H   0  0  0  0  0  0  0  0  0  0  0  0
   -2.4642   14.2207   -6.1771 H   0  0  0  0  0  0  0  0  0  0  0  0
   -0.6430   10.6154   -7.5924 H   0  0  0  0  0  0  0  0  0  0  0  0
    1.4345   14.3489   -6.0254 H   0  0  0  0  0  0  0  0  0  0  0  0
    0.1671   15.4918   -6.5857 H   0  0  0  0  0  0  0  0  0  0  0  0
    0.1198   14.8498   -4.9087 H   0  0  0  0  0  0  0  0  0  0  0  0
  1  2  1  0  0  0  0
  1  4  1  0  0  0  0
  1 13  2  3  0  0  0
  2  6  1  0  0  0  0
  3  4  2  0  0  0  0
  3  5  1  0  0  0  0
  5  6  2  0  0  0  0
  5  9  1  0  0  0  0
  6  7  1  0  0  0  0
  7  8  2  0  0  0  0
  7 10  1  0  0  0  0
  8  9  1  0  0  0  0
 10 14  1  0  0  0  0
 11 12  1  0  0  0  0
 11 13  1  0  0  0  0
 11 26  2  0  0  0  0
 11 27  2  0  0  0  0
 14 15  2  0  0  0  0
 14 19  1  0  0  0  0
 15 16  1  0  0  0  0
 16 17  2  0  0  0  0
 17 18  1  0  0  0  0
 17 20  1  0  0  0  0
 18 19  2  0  0  0  0
 20 21  2  0  0  0  0
 20 24  1  0  0  0  0
 21 22  1  0  0  0  0
 22 23  1  0  0  0  0
 22 25  1  0  0  0  0
 23 24  2  0  0  0  0
  2 28  1  0  0  0  0
  2 29  1  0  0  0  0
  3 30  1  0  0  0  0
  4 31  1  0  0  0  0
  9 32  1  0  0  0  0
 10 33  1  0  0  0  0
 10 34  1  0  0  0  0
 12 35  1  0  0  0  0
 12 36  1  0  0  0  0
 12 37  1  0  0  0  0
 15 38  1  0  0  0  0
 16 39  1  0  0  0  0
 18 40  1  0  0  0  0
 19 41  1  0  0  0  0
 21 42  1  0  0  0  0
 24 43  1  0  0  0  0
 25 44  1  0  0  0  0
 25 45  1  0  0  0  0
 25 46  1  0  0  0  0
M  END
> <Name>
25

> <IC50[uM]>
0.073

$$$$
25
  -OEChem-05192314333D
 Structure written by MMmdl.
 46 49  0     0  0  0  0  0  0999 V2000
   -6.3861   12.3623  -11.9697 C   0  0  0  0  0  0  0  0  0  0  0  0
   -6.5480   11.8020  -10.7080 C   0  0  0  0  0  0  0  0  0  0  0  0
   -7.6869   10.5726  -13.0325 C   0  0  0  0  0  0  0  0  0  0  0  0
   -6.9529   11.7665  -13.1047 C   0  0  0  0  0  0  0  0  0  0  0  0
   -7.8210   10.0086  -11.7556 C   0  0  0  0  0  0  0  0  0  0  0  0
   -7.2636   10.6177  -10.5919 C   0  0  0  0  0  0  0  0  0  0  0  0
   -7.6330    9.7421   -9.5104 C   0  0  0  0  0  0  0  0  0  0  0  0
   -8.3023    8.7332   -9.9897 N   0  0  0  0  0  0  0  0  0  0  0  0
   -8.4342    8.8678  -11.3051 N   0  0  0  0  0  0  0  0  0  0  0  0
   -7.3415    9.8758   -8.0215 C   0  0  0  0  0  0  0  0  0  0  0  0
   -4.1211   13.8754  -11.2000 S   0  0  0  0  0  0  0  0  0  0  0  0
   -2.9188   12.5402  -11.7675 C   0  0  0  0  0  0  0  0  0  0  0  0
   -5.6382   13.5428  -12.1051 N   0  0  0  0  0  0  0  0  0  0  0  0
   -5.9683   10.4827   -7.7344 C   0  0  0  0  0  0  0  0  0  0  0  0
   -4.8123    9.7690   -8.0490 C   0  0  0  0  0  0  0  0  0  0  0  0
   -3.5592   10.3237   -7.7969 C   0  0  0  0  0  0  0  0  0  0  0  0
   -3.4543   11.5962   -7.2288 C   0  0  0  0  0  0  0  0  0  0  0  0
   -4.6126   12.3085   -6.9084 C   0  0  0  0  0  0  0  0  0  0  0  0
   -5.8671   11.7538   -7.1613 C   0  0  0  0  0  0  0  0  0  0  0  0
   -2.1058   12.1871   -6.9644 C   0  0  0  0  0  0  0  0  0  0  0  0
   -1.7745   13.4406   -6.4637 C   0  0  0  0  0  0  0  0  0  0  0  0
   -0.4394   13.4976   -6.4041 N   0  0  0  0  0  0  0  0  0  0  0  0
    0.1691   12.4146   -6.8015 N   0  0  0  0  0  0  0  0  0  0  0  0
   -0.8034   11.5995   -7.1773 C   0  0  0  0  0  0  0  0  0  0  0  0
    0.3694   14.6144   -5.9538 C   0  0  0  0  0  0  0  0  0  0  0  0
   -3.6497   15.1720  -11.6865 O   0  0  0  0  0  0  0  0  0  0  0  0
   -4.3650   13.6745   -9.7698 O   0  0  0  0  0  0  0  0  0  0  0  0
   -6.1257   12.2782   -9.8355 H   0  0  0  0  0  0  0  0  0  0  0  0
   -8.6969   10.7748  -13.4186 H   0  0  0  0  0  0  0  0  0  0  0  0
   -7.1895    9.8325  -13.6766 H   0  0  0  0  0  0  0  0  0  0  0  0
   -7.6287   12.5169  -13.5407 H   0  0  0  0  0  0  0  0  0  0  0  0
   -6.1214   11.5746  -13.7988 H   0  0  0  0  0  0  0  0  0  0  0  0
   -8.6624    7.9724   -9.4498 H   0  0  0  0  0  0  0  0  0  0  0  0
   -8.0330    9.5733   -7.2490 H   0  0  0  0  0  0  0  0  0  0  0  0
   -1.9543   12.6728  -11.2554 H   0  0  0  0  0  0  0  0  0  0  0  0
   -3.3298   11.5493  -11.5240 H   0  0  0  0  0  0  0  0  0  0  0  0
   -2.7704   12.6186  -12.8546 H   0  0  0  0  0  0  0  0  0  0  0  0
   -4.8884    8.7854   -8.4885 H   0  0  0  0  0  0  0  0  0  0  0  0
   -2.6658    9.7683   -8.0414 H   0  0  0  0  0  0  0  0  0  0  0  0
   -4.5366   13.2900   -6.4643 H   0  0  0  0  0  0  0  0  0  0  0  0
   -6.7612   12.3068   -6.9141 H   0  0  0  0  0  0  0  0  0  0  0  0
   -2.4642   14.2207   -6.1771 H   0  0  0  0  0  0  0  0  0  0  0  0
   -0.6430   10.6154   -7.5924 H   0  0  0  0  0  0  0  0  0  0  0  0
    1.4345   14.3489   -6.0254 H   0  0  0  0  0  0  0  0  0  0  0  0
    0.1671   15.4918   -6.5857 H   0  0  0  0  0  0  0  0  0  0  0  0
    0.1198   14.8498   -4.9087 H   0  0  0  0  0  0  0  0  0  0  0  0
  1  2  1  0  0  0  0
  1  4  1  0  0  0  0
  1 13  2  3  0  0  0
  2  6  2  0  0  0  0
  3  4  1  0  0  0  0
  3  5  1  0  0  0  0
  5  6  1  0  0  0  0
  5  9  2  0  0  0  0
  6  7  1  0  0  0  0
  7  8  1  0  0  0  0
  7 10  2  3  0  0  0
  8  9  1  0  0  0  0
 10 14  1  0  0  0  0
 11 12  1  0  0  0  0
 11 13  1  0  0  0  0
 11 26  2  0  0  0  0
 11 27  2  0  0  0  0
 14 15  2  0  0  0  0
 14 19  1  0  0  0  0
 15 16  1  0  0  0  0
 16 17  2  0  0  0  0
 17 18  1  0  0  0  0
 17 20  1  0  0  0  0
 18 19  2  0  0  0  0
 20 21  2  0  0  0  0
 20 24  1  0  0  0  0
 21 22  1  0  0  0  0
 22 23  1  0  0  0  0
 22 25  1  0  0  0  0
 23 24  2  0  0  0  0
  2 28  1  0  0  0  0
  3 29  1  0  0  0  0
  3 30  1  0  0  0  0
  4 31  1  0  0  0  0
  4 32  1  0  0  0  0
  8 33  1  0  0  0  0
 10 34  1  0  0  0  0
 12 35  1  0  0  0  0
 12 36  1  0  0  0  0
 12 37  1  0  0  0  0
 15 38  1  0  0  0  0
 16 39  1  0  0  0  0
 18 40  1  0  0  0  0
 19 41  1  0  0  0  0
 21 42  1  0  0  0  0
 24 43  1  0  0  0  0
 25 44  1  0  0  0  0
 25 45  1  0  0  0  0
 25 46  1  0  0  0  0
M  END
> <Name>
25

> <IC50[uM]>
0.073

$$$$
25
  -OEChem-05192314333D
 Structure written by MMmdl.
 46 49  0     0  0  0  0  0  0999 V2000
   -6.3861   12.3623  -11.9697 C   0  0  0  0  0  0  0  0  0  0  0  0
   -6.5480   11.8020  -10.7080 C   0  0  0  0  0  0  0  0  0  0  0  0
   -7.6869   10.5726  -13.0325 C   0  0  0  0  0  0  0  0  0  0  0  0
   -6.9529   11.7665  -13.1047 C   0  0  0  0  0  0  0  0  0  0  0  0
   -7.8210   10.0086  -11.7556 C   0  0  0  0  0  0  0  0  0  0  0  0
   -7.2636   10.6177  -10.5919 C   0  0  0  0  0  0  0  0  0  0  0  0
   -7.6330    9.7421   -9.5104 C   0  0  0  0  0  0  0  0  0  0  0  0
   -8.3023    8.7332   -9.9897 N   0  0  0  0  0  0  0  0  0  0  0  0
   -8.4342    8.8678  -11.3051 N   0  0  0  0  0  0  0  0  0  0  0  0
   -7.3415    9.8758   -8.0215 C   0  0  0  0  0  0  0  0  0  0  0  0
   -4.1211   13.8754  -11.2000 S   0  0  0  0  0  0  0  0  0  0  0  0
   -2.9188   12.5402  -11.7675 C   0  0  0  0  0  0  0  0  0  0  0  0
   -5.6382   13.5428  -12.1051 N   0  0  0  0  0  0  0  0  0  0  0  0
   -5.9683   10.4827   -7.7344 C   0  0  0  0  0  0  0  0  0  0  0  0
   -4.8123    9.7690   -8.0490 C   0  0  0  0  0  0  0  0  0  0  0  0
   -3.5592   10.3237   -7.7969 C   0  0  0  0  0  0  0  0  0  0  0  0
   -3.4543   11.5962   -7.2288 C   0  0  0  0  0  0  0  0  0  0  0  0
   -4.6126   12.3085   -6.9084 C   0  0  0  0  0  0  0  0  0  0  0  0
   -5.8671   11.7538   -7.1613 C   0  0  0  0  0  0  0  0  0  0  0  0
   -2.1058   12.1871   -6.9644 C   0  0  0  0  0  0  0  0  0  0  0  0
   -1.7745   13.4406   -6.4637 C   0  0  0  0  0  0  0  0  0  0  0  0
   -0.4394   13.4976   -6.4041 N   0  0  0  0  0  0  0  0  0  0  0  0
    0.1691   12.4146   -6.8015 N   0  0  0  0  0  0  0  0  0  0  0  0
   -0.8034   11.5995   -7.1773 C   0  0  0  0  0  0  0  0  0  0  0  0
    0.3694   14.6144   -5.9538 C   0  0  0  0  0  0  0  0  0  0  0  0
   -3.6497   15.1720  -11.6865 O   0  0  0  0  0  0  0  0  0  0  0  0
   -4.3650   13.6745   -9.7698 O   0  0  0  0  0  0  0  0  0  0  0  0
   -6.1257   12.2782   -9.8355 H   0  0  0  0  0  0  0  0  0  0  0  0
   -8.1227   10.1152  -13.9085 H   0  0  0  0  0  0  0  0  0  0  0  0
   -7.6287   12.5169  -13.5407 H   0  0  0  0  0  0  0  0  0  0  0  0
   -6.1214   11.5746  -13.7988 H   0  0  0  0  0  0  0  0  0  0  0  0
   -8.9191    8.2194  -11.8920 H   0  0  0  0  0  0  0  0  0  0  0  0
   -8.1107   10.5196   -7.5701 H   0  0  0  0  0  0  0  0  0  0  0  0
   -7.3856    8.8762   -7.5645 H   0  0  0  0  0  0  0  0  0  0  0  0
   -1.9543   12.6728  -11.2554 H   0  0  0  0  0  0  0  0  0  0  0  0
   -3.3298   11.5493  -11.5240 H   0  0  0  0  0  0  0  0  0  0  0  0
   -2.7704   12.6186  -12.8546 H   0  0  0  0  0  0  0  0  0  0  0  0
   -4.8884    8.7854   -8.4885 H   0  0  0  0  0  0  0  0  0  0  0  0
   -2.6658    9.7683   -8.0414 H   0  0  0  0  0  0  0  0  0  0  0  0
   -4.5366   13.2900   -6.4643 H   0  0  0  0  0  0  0  0  0  0  0  0
   -6.7612   12.3068   -6.9141 H   0  0  0  0  0  0  0  0  0  0  0  0
   -2.4642   14.2207   -6.1771 H   0  0  0  0  0  0  0  0  0  0  0  0
   -0.6430   10.6154   -7.5924 H   0  0  0  0  0  0  0  0  0  0  0  0
    1.4345   14.3489   -6.0254 H   0  0  0  0  0  0  0  0  0  0  0  0
    0.1671   15.4918   -6.5857 H   0  0  0  0  0  0  0  0  0  0  0  0
    0.1198   14.8498   -4.9087 H   0  0  0  0  0  0  0  0  0  0  0  0
  1  2  1  0  0  0  0
  1  4  1  0  0  0  0
  1 13  2  3  0  0  0
  2  6  2  0  0  0  0
  3  4  1  0  0  0  0
  3  5  2  0  0  0  0
  5  6  1  0  0  0  0
  5  9  1  0  0  0  0
  6  7  1  0  0  0  0
  7  8  2  0  0  0  0
  7 10  1  0  0  0  0
  8  9  1  0  0  0  0
 10 14  1  0  0  0  0
 11 12  1  0  0  0  0
 11 13  1  0  0  0  0
 11 26  2  0  0  0  0
 11 27  2  0  0  0  0
 14 15  2  0  0  0  0
 14 19  1  0  0  0  0
 15 16  1  0  0  0  0
 16 17  2  0  0  0  0
 17 18  1  0  0  0  0
 17 20  1  0  0  0  0
 18 19  2  0  0  0  0
 20 21  2  0  0  0  0
 20 24  1  0  0  0  0
 21 22  1  0  0  0  0
 22 23  1  0  0  0  0
 22 25  1  0  0  0  0
 23 24  2  0  0  0  0
  2 28  1  0  0  0  0
  3 29  1  0  0  0  0
  4 30  1  0  0  0  0
  4 31  1  0  0  0  0
  9 32  1  0  0  0  0
 10 33  1  0  0  0  0
 10 34  1  0  0  0  0
 12 35  1  0  0  0  0
 12 36  1  0  0  0  0
 12 37  1  0  0  0  0
 15 38  1  0  0  0  0
 16 39  1  0  0  0  0
 18 40  1  0  0  0  0
 19 41  1  0  0  0  0
 21 42  1  0  0  0  0
 24 43  1  0  0  0  0
 25 44  1  0  0  0  0
 25 45  1  0  0  0  0
 25 46  1  0  0  0  0
M  END
> <Name>
25

> <IC50[uM]>
0.073

$$$$
25
  -OEChem-05192314333D
 Structure written by MMmdl.
 46 49  0     1  0  0  0  0  0999 V2000
   -6.3861   12.3623  -11.9697 C   0  0  3  0  0  0  0  0  0  0  0  0
   -6.5480   11.8020  -10.7080 C   0  0  0  0  0  0  0  0  0  0  0  0
   -7.6869   10.5726  -13.0325 C   0  0  0  0  0  0  0  0  0  0  0  0
   -6.9529   11.7665  -13.1047 C   0  0  0  0  0  0  0  0  0  0  0  0
   -7.8210   10.0086  -11.7556 C   0  0  0  0  0  0  0  0  0  0  0  0
   -7.2636   10.6177  -10.5919 C   0  0  0  0  0  0  0  0  0  0  0  0
   -7.6330    9.7421   -9.5104 C   0  0  0  0  0  0  0  0  0  0  0  0
   -8.3023    8.7332   -9.9897 N   0  0  0  0  0  0  0  0  0  0  0  0
   -8.4342    8.8678  -11.3051 N   0  0  0  0  0  0  0  0  0  0  0  0
   -7.3415    9.8758   -8.0215 C   0  0  0  0  0  0  0  0  0  0  0  0
   -4.1211   13.8754  -11.2000 S   0  0  0  0  0  0  0  0  0  0  0  0
   -2.9188   12.5402  -11.7675 C   0  0  0  0  0  0  0  0  0  0  0  0
   -5.6382   13.5428  -12.1051 N   0  0  0  0  0  0  0  0  0  0  0  0
   -5.9683   10.4827   -7.7344 C   0  0  0  0  0  0  0  0  0  0  0  0
   -4.8123    9.7690   -8.0490 C   0  0  0  0  0  0  0  0  0  0  0  0
   -3.5592   10.3237   -7.7969 C   0  0  0  0  0  0  0  0  0  0  0  0
   -3.4543   11.5962   -7.2288 C   0  0  0  0  0  0  0  0  0  0  0  0
   -4.6126   12.3085   -6.9084 C   0  0  0  0  0  0  0  0  0  0  0  0
   -5.8671   11.7538   -7.1613 C   0  0  0  0  0  0  0  0  0  0  0  0
   -2.1058   12.1871   -6.9644 C   0  0  0  0  0  0  0  0  0  0  0  0
   -1.7745   13.4406   -6.4637 C   0  0  0  0  0  0  0  0  0  0  0  0
   -0.4394   13.4976   -6.4041 N   0  0  0  0  0  0  0  0  0  0  0  0
    0.1691   12.4146   -6.8015 N   0  0  0  0  0  0  0  0  0  0  0  0
   -0.8034   11.5995   -7.1773 C   0  0  0  0  0  0  0  0  0  0  0  0
    0.3694   14.6144   -5.9538 C   0  0  0  0  0  0  0  0  0  0  0  0
   -3.6497   15.1720  -11.6865 O   0  0  0  0  0  0  0  0  0  0  0  0
   -4.3650   13.6745   -9.7698 O   0  0  0  0  0  0  0  0  0  0  0  0
   -7.3001   12.9568  -11.8241 H   0  0  0  0  0  0  0  0  0  0  0  0
   -6.1257   12.2782   -9.8355 H   0  0  0  0  0  0  0  0  0  0  0  0
   -8.1227   10.1152  -13.9085 H   0  0  0  0  0  0  0  0  0  0  0  0
   -6.8205   12.2414  -14.0656 H   0  0  0  0  0  0  0  0  0  0  0  0
   -8.6624    7.9724   -9.4498 H   0  0  0  0  0  0  0  0  0  0  0  0
   -8.0330    9.5733   -7.2490 H   0  0  0  0  0  0  0  0  0  0  0  0
   -1.9543   12.6728  -11.2554 H   0  0  0  0  0  0  0  0  0  0  0  0
   -3.3298   11.5493  -11.5240 H   0  0  0  0  0  0  0  0  0  0  0  0
   -2.7704   12.6186  -12.8546 H   0  0  0  0  0  0  0  0  0  0  0  0
   -5.3954   13.6013  -13.0734 H   0  0  0  0  0  0  0  0  0  0  0  0
   -4.8884    8.7854   -8.4885 H   0  0  0  0  0  0  0  0  0  0  0  0
   -2.6658    9.7683   -8.0414 H   0  0  0  0  0  0  0  0  0  0  0  0
   -4.5366   13.2900   -6.4643 H   0  0  0  0  0  0  0  0  0  0  0  0
   -6.7612   12.3068   -6.9141 H   0  0  0  0  0  0  0  0  0  0  0  0
   -2.4642   14.2207   -6.1771 H   0  0  0  0  0  0  0  0  0  0  0  0
   -0.6430   10.6154   -7.5924 H   0  0  0  0  0  0  0  0  0  0  0  0
    1.4345   14.3489   -6.0254 H   0  0  0  0  0  0  0  0  0  0  0  0
    0.1671   15.4918   -6.5857 H   0  0  0  0  0  0  0  0  0  0  0  0
    0.1198   14.8498   -4.9087 H   0  0  0  0  0  0  0  0  0  0  0  0
  1  2  1  0  0  0  0
  1  4  1  0  0  0  0
  1 13  1  0  0  0  0
  2  6  2  0  0  0  0
  3  4  2  0  0  0  0
  3  5  1  0  0  0  0
  5  6  1  0  0  0  0
  5  9  2  0  0  0  0
  6  7  1  0  0  0  0
  7  8  1  0  0  0  0
  7 10  2  3  0  0  0
  8  9  1  0  0  0  0
 10 14  1  0  0  0  0
 11 12  1  0  0  0  0
 11 13  1  0  0  0  0
 11 26  2  0  0  0  0
 11 27  2  0  0  0  0
 14 15  2  0  0  0  0
 14 19  1  0  0  0  0
 15 16  1  0  0  0  0
 16 17  2  0  0  0  0
 17 18  1  0  0  0  0
 17 20  1  0  0  0  0
 18 19  2  0  0  0  0
 20 21  2  0  0  0  0
 20 24  1  0  0  0  0
 21 22  1  0  0  0  0
 22 23  1  0  0  0  0
 22 25  1  0  0  0  0
 23 24  2  0  0  0  0
  1 28  1  0  0  0  0
  2 29  1  0  0  0  0
  3 30  1  0  0  0  0
  4 31  1  0  0  0  0
  8 32  1  0  0  0  0
 10 33  1  0  0  0  0
 12 34  1  0  0  0  0
 12 35  1  0  0  0  0
 12 36  1  0  0  0  0
 13 37  1  0  0  0  0
 15 38  1  0  0  0  0
 16 39  1  0  0  0  0
 18 40  1  0  0  0  0
 19 41  1  0  0  0  0
 21 42  1  0  0  0  0
 24 43  1  0  0  0  0
 25 44  1  0  0  0  0
 25 45  1  0  0  0  0
 25 46  1  0  0  0  0
M  END
> <Name>
25

> <IC50[uM]>
0.073

$$$$
25
  -OEChem-05192314333D
 Structure written by MMmdl.
 46 49  0     0  0  0  0  0  0999 V2000
   -6.3861   12.3623  -11.9697 C   0  0  0  0  0  0  0  0  0  0  0  0
   -6.5480   11.8020  -10.7080 C   0  0  0  0  0  0  0  0  0  0  0  0
   -7.6869   10.5726  -13.0325 C   0  0  0  0  0  0  0  0  0  0  0  0
   -6.9529   11.7665  -13.1047 C   0  0  0  0  0  0  0  0  0  0  0  0
   -7.8210   10.0086  -11.7556 C   0  0  0  0  0  0  0  0  0  0  0  0
   -7.2636   10.6177  -10.5919 C   0  0  0  0  0  0  0  0  0  0  0  0
   -7.6330    9.7421   -9.5104 C   0  0  0  0  0  0  0  0  0  0  0  0
   -8.3023    8.7332   -9.9897 N   0  0  0  0  0  0  0  0  0  0  0  0
   -8.4342    8.8678  -11.3051 N   0  0  0  0  0  0  0  0  0  0  0  0
   -7.3415    9.8758   -8.0215 C   0  0  0  0  0  0  0  0  0  0  0  0
   -4.1211   13.8754  -11.2000 S   0  0  0  0  0  0  0  0  0  0  0  0
   -2.9188   12.5402  -11.7675 C   0  0  0  0  0  0  0  0  0  0  0  0
   -5.6382   13.5428  -12.1051 N   0  0  0  0  0  0  0  0  0  0  0  0
   -5.9683   10.4827   -7.7344 C   0  0  0  0  0  0  0  0  0  0  0  0
   -4.8123    9.7690   -8.0490 C   0  0  0  0  0  0  0  0  0  0  0  0
   -3.5592   10.3237   -7.7969 C   0  0  0  0  0  0  0  0  0  0  0  0
   -3.4543   11.5962   -7.2288 C   0  0  0  0  0  0  0  0  0  0  0  0
   -4.6126   12.3085   -6.9084 C   0  0  0  0  0  0  0  0  0  0  0  0
   -5.8671   11.7538   -7.1613 C   0  0  0  0  0  0  0  0  0  0  0  0
   -2.1058   12.1871   -6.9644 C   0  0  0  0  0  0  0  0  0  0  0  0
   -1.7745   13.4406   -6.4637 C   0  0  0  0  0  0  0  0  0  0  0  0
   -0.4394   13.4976   -6.4041 N   0  0  0  0  0  0  0  0  0  0  0  0
    0.1691   12.4146   -6.8015 N   0  0  0  0  0  0  0  0  0  0  0  0
   -0.8034   11.5995   -7.1773 C   0  0  0  0  0  0  0  0  0  0  0  0
    0.3694   14.6144   -5.9538 C   0  0  0  0  0  0  0  0  0  0  0  0
   -3.6497   15.1720  -11.6865 O   0  0  0  0  0  0  0  0  0  0  0  0
   -4.3650   13.6745   -9.7698 O   0  0  0  0  0  0  0  0  0  0  0  0
   -6.1257   12.2782   -9.8355 H   0  0  0  0  0  0  0  0  0  0  0  0
   -8.6969   10.7748  -13.4186 H   0  0  0  0  0  0  0  0  0  0  0  0
   -7.1895    9.8325  -13.6766 H   0  0  0  0  0  0  0  0  0  0  0  0
   -6.8205   12.2414  -14.0656 H   0  0  0  0  0  0  0  0  0  0  0  0
   -8.6624    7.9724   -9.4498 H   0  0  0  0  0  0  0  0  0  0  0  0
   -8.0330    9.5733   -7.2490 H   0  0  0  0  0  0  0  0  0  0  0  0
   -1.9543   12.6728  -11.2554 H   0  0  0  0  0  0  0  0  0  0  0  0
   -3.3298   11.5493  -11.5240 H   0  0  0  0  0  0  0  0  0  0  0  0
   -2.7704   12.6186  -12.8546 H   0  0  0  0  0  0  0  0  0  0  0  0
   -5.3954   13.6013  -13.0734 H   0  0  0  0  0  0  0  0  0  0  0  0
   -4.8884    8.7854   -8.4885 H   0  0  0  0  0  0  0  0  0  0  0  0
   -2.6658    9.7683   -8.0414 H   0  0  0  0  0  0  0  0  0  0  0  0
   -4.5366   13.2900   -6.4643 H   0  0  0  0  0  0  0  0  0  0  0  0
   -6.7612   12.3068   -6.9141 H   0  0  0  0  0  0  0  0  0  0  0  0
   -2.4642   14.2207   -6.1771 H   0  0  0  0  0  0  0  0  0  0  0  0
   -0.6430   10.6154   -7.5924 H   0  0  0  0  0  0  0  0  0  0  0  0
    1.4345   14.3489   -6.0254 H   0  0  0  0  0  0  0  0  0  0  0  0
    0.1671   15.4918   -6.5857 H   0  0  0  0  0  0  0  0  0  0  0  0
    0.1198   14.8498   -4.9087 H   0  0  0  0  0  0  0  0  0  0  0  0
  1  2  1  0  0  0  0
  1  4  2  0  0  0  0
  1 13  1  0  0  0  0
  2  6  2  0  0  0  0
  3  4  1  0  0  0  0
  3  5  1  0  0  0  0
  5  6  1  0  0  0  0
  5  9  2  0  0  0  0
  6  7  1  0  0  0  0
  7  8  1  0  0  0  0
  7 10  2  3  0  0  0
  8  9  1  0  0  0  0
 10 14  1  0  0  0  0
 11 12  1  0  0  0  0
 11 13  1  0  0  0  0
 11 26  2  0  0  0  0
 11 27  2  0  0  0  0
 14 15  2  0  0  0  0
 14 19  1  0  0  0  0
 15 16  1  0  0  0  0
 16 17  2  0  0  0  0
 17 18  1  0  0  0  0
 17 20  1  0  0  0  0
 18 19  2  0  0  0  0
 20 21  2  0  0  0  0
 20 24  1  0  0  0  0
 21 22  1  0  0  0  0
 22 23  1  0  0  0  0
 22 25  1  0  0  0  0
 23 24  2  0  0  0  0
  2 28  1  0  0  0  0
  3 29  1  0  0  0  0
  3 30  1  0  0  0  0
  4 31  1  0  0  0  0
  8 32  1  0  0  0  0
 10 33  1  0  0  0  0
 12 34  1  0  0  0  0
 12 35  1  0  0  0  0
 12 36  1  0  0  0  0
 13 37  1  0  0  0  0
 15 38  1  0  0  0  0
 16 39  1  0  0  0  0
 18 40  1  0  0  0  0
 19 41  1  0  0  0  0
 21 42  1  0  0  0  0
 24 43  1  0  0  0  0
 25 44  1  0  0  0  0
 25 45  1  0  0  0  0
 25 46  1  0  0  0  0
M  END
> <Name>
25

> <IC50[uM]>
0.073

$$$$
25
  -OEChem-05192314333D
 Structure written by MMmdl.
 46 49  0     1  0  0  0  0  0999 V2000
   -6.3861   12.3623  -11.9697 C   0  0  0  0  0  0  0  0  0  0  0  0
   -6.5480   11.8020  -10.7080 C   0  0  0  0  0  0  0  0  0  0  0  0
   -7.6869   10.5726  -13.0325 C   0  0  0  0  0  0  0  0  0  0  0  0
   -6.9529   11.7665  -13.1047 C   0  0  0  0  0  0  0  0  0  0  0  0
   -7.8210   10.0086  -11.7556 C   0  0  0  0  0  0  0  0  0  0  0  0
   -7.2636   10.6177  -10.5919 C   0  0  0  0  0  0  0  0  0  0  0  0
   -7.6330    9.7421   -9.5104 C   0  0  0  0  0  0  0  0  0  0  0  0
   -8.3023    8.7332   -9.9897 N   0  0  0  0  0  0  0  0  0  0  0  0
   -8.4342    8.8678  -11.3051 N   0  0  0  0  0  0  0  0  0  0  0  0
   -7.3415    9.8758   -8.0215 C   0  0  0  0  0  0  0  0  0  0  0  0
   -4.1211   13.8754  -11.2000 S   0  0  0  0  0  0  0  0  0  0  0  0
   -2.9188   12.5402  -11.7675 C   0  0  0  0  0  0  0  0  0  0  0  0
   -5.6382   13.5428  -12.1051 N   0  0  0  0  0  0  0  0  0  0  0  0
   -5.9683   10.4827   -7.7344 C   0  0  0  0  0  0  0  0  0  0  0  0
   -4.8123    9.7690   -8.0490 C   0  0  0  0  0  0  0  0  0  0  0  0
   -3.5592   10.3237   -7.7969 C   0  0  0  0  0  0  0  0  0  0  0  0
   -3.4543   11.5962   -7.2288 C   0  0  0  0  0  0  0  0  0  0  0  0
   -4.6126   12.3085   -6.9084 C   0  0  0  0  0  0  0  0  0  0  0  0
   -5.8671   11.7538   -7.1613 C   0  0  0  0  0  0  0  0  0  0  0  0
   -2.1058   12.1871   -6.9644 C   0  0  0  0  0  0  0  0  0  0  0  0
   -1.7745   13.4406   -6.4637 C   0  0  0  0  0  0  0  0  0  0  0  0
   -0.4394   13.4976   -6.4041 N   0  0  3  0  0  0  0  0  0  0  0  0
    0.1691   12.4146   -6.8015 N   0  0  0  0  0  0  0  0  0  0  0  0
   -0.8034   11.5995   -7.1773 C   0  0  0  0  0  0  0  0  0  0  0  0
    0.3694   14.6144   -5.9538 C   0  0  0  0  0  0  0  0  0  0  0  0
   -3.6497   15.1720  -11.6865 O   0  0  0  0  0  0  0  0  0  0  0  0
   -4.3650   13.6745   -9.7698 O   0  0  0  0  0  0  0  0  0  0  0  0
   -6.1257   12.2782   -9.8355 H   0  0  0  0  0  0  0  0  0  0  0  0
   -8.1227   10.1152  -13.9085 H   0  0  0  0  0  0  0  0  0  0  0  0
   -6.8205   12.2414  -14.0656 H   0  0  0  0  0  0  0  0  0  0  0  0
   -8.6624    7.9724   -9.4498 H   0  0  0  0  0  0  0  0  0  0  0  0
   -8.0330    9.5733   -7.2490 H   0  0  0  0  0  0  0  0  0  0  0  0
   -1.9543   12.6728  -11.2554 H   0  0  0  0  0  0  0  0  0  0  0  0
   -3.3298   11.5493  -11.5240 H   0  0  0  0  0  0  0  0  0  0  0  0
   -2.7704   12.6186  -12.8546 H   0  0  0  0  0  0  0  0  0  0  0  0
   -5.3954   13.6013  -13.0734 H   0  0  0  0  0  0  0  0  0  0  0  0
   -4.8884    8.7854   -8.4885 H   0  0  0  0  0  0  0  0  0  0  0  0
   -2.6658    9.7683   -8.0414 H   0  0  0  0  0  0  0  0  0  0  0  0
   -4.5366   13.2900   -6.4643 H   0  0  0  0  0  0  0  0  0  0  0  0
   -6.7612   12.3068   -6.9141 H   0  0  0  0  0  0  0  0  0  0  0  0
   -2.1568   14.2271   -7.1311 H   0  0  0  0  0  0  0  0  0  0  0  0
   -2.2034   13.5716   -5.4593 H   0  0  0  0  0  0  0  0  0  0  0  0
   -0.6430   10.6154   -7.5924 H   0  0  0  0  0  0  0  0  0  0  0  0
    1.4345   14.3489   -6.0254 H   0  0  0  0  0  0  0  0  0  0  0  0
    0.1671   15.4918   -6.5857 H   0  0  0  0  0  0  0  0  0  0  0  0
    0.1198   14.8498   -4.9087 H   0  0  0  0  0  0  0  0  0  0  0  0
  1  2  2  0  0  0  0
  1  4  1  0  0  0  0
  1 13  1  0  0  0  0
  2  6  1  0  0  0  0
  3  4  2  0  0  0  0
  3  5  1  0  0  0  0
  5  6  1  0  0  0  0
  5  9  2  0  0  0  0
  6  7  2  0  0  0  0
  7  8  1  0  0  0  0
  7 10  1  0  0  0  0
  8  9  1  0  0  0  0
 10 14  2  0  0  0  0
 11 12  1  0  0  0  0
 11 13  1  0  0  0  0
 11 26  2  0  0  0  0
 11 27  2  0  0  0  0
 14 15  1  0  0  0  0
 14 19  1  0  0  0  0
 15 16  2  0  0  0  0
 16 17  1  0  0  0  0
 17 18  1  0  0  0  0
 17 20  2  0  0  0  0
 18 19  2  0  0  0  0
 20 21  1  0  0  0  0
 20 24  1  0  0  0  0
 21 22  1  0  0  0  0
 22 23  1  0  0  0  0
 22 25  1  0  0  0  0
 23 24  2  0  0  0  0
  2 28  1  0  0  0  0
  3 29  1  0  0  0  0
  4 30  1  0  0  0  0
  8 31  1  0  0  0  0
 10 32  1  0  0  0  0
 12 33  1  0  0  0  0
 12 34  1  0  0  0  0
 12 35  1  0  0  0  0
 13 36  1  0  0  0  0
 15 37  1  0  0  0  0
 16 38  1  0  0  0  0
 18 39  1  0  0  0  0
 19 40  1  0  0  0  0
 21 41  1  0  0  0  0
 21 42  1  0  0  0  0
 24 43  1  0  0  0  0
 25 44  1  0  0  0  0
 25 45  1  0  0  0  0
 25 46  1  0  0  0  0
M  END
> <Name>
25

> <IC50[uM]>
0.073

$$$$
25
  -OEChem-05192314333D
 Structure written by MMmdl.
 46 49  0     1  0  0  0  0  0999 V2000
   -6.3861   12.3623  -11.9697 C   0  0  0  0  0  0  0  0  0  0  0  0
   -6.5480   11.8020  -10.7080 C   0  0  0  0  0  0  0  0  0  0  0  0
   -7.6869   10.5726  -13.0325 C   0  0  0  0  0  0  0  0  0  0  0  0
   -6.9529   11.7665  -13.1047 C   0  0  0  0  0  0  0  0  0  0  0  0
   -7.8210   10.0086  -11.7556 C   0  0  0  0  0  0  0  0  0  0  0  0
   -7.2636   10.6177  -10.5919 C   0  0  0  0  0  0  0  0  0  0  0  0
   -7.6330    9.7421   -9.5104 C   0  0  0  0  0  0  0  0  0  0  0  0
   -8.3023    8.7332   -9.9897 N   0  0  0  0  0  0  0  0  0  0  0  0
   -8.4342    8.8678  -11.3051 N   0  0  0  0  0  0  0  0  0  0  0  0
   -7.3415    9.8758   -8.0215 C   0  0  0  0  0  0  0  0  0  0  0  0
   -4.1211   13.8754  -11.2000 S   0  0  0  0  0  0  0  0  0  0  0  0
   -2.9188   12.5402  -11.7675 C   0  0  0  0  0  0  0  0  0  0  0  0
   -5.6382   13.5428  -12.1051 N   0  0  0  0  0  0  0  0  0  0  0  0
   -5.9683   10.4827   -7.7344 C   0  0  0  0  0  0  0  0  0  0  0  0
   -4.8123    9.7690   -8.0490 C   0  0  0  0  0  0  0  0  0  0  0  0
   -3.5592   10.3237   -7.7969 C   0  0  0  0  0  0  0  0  0  0  0  0
   -3.4543   11.5962   -7.2288 C   0  0  0  0  0  0  0  0  0  0  0  0
   -4.6126   12.3085   -6.9084 C   0  0  0  0  0  0  0  0  0  0  0  0
   -5.8671   11.7538   -7.1613 C   0  0  0  0  0  0  0  0  0  0  0  0
   -2.1058   12.1871   -6.9644 C   0  0  0  0  0  0  0  0  0  0  0  0
   -1.7745   13.4406   -6.4637 C   0  0  0  0  0  0  0  0  0  0  0  0
   -0.4394   13.4976   -6.4041 N   0  0  3  0  0  0  0  0  0  0  0  0
    0.1691   12.4146   -6.8015 N   0  0  0  0  0  0  0  0  0  0  0  0
   -0.8034   11.5995   -7.1773 C   0  0  0  0  0  0  0  0  0  0  0  0
    0.3694   14.6144   -5.9538 C   0  0  0  0  0  0  0  0  0  0  0  0
   -3.6497   15.1720  -11.6865 O   0  0  0  0  0  0  0  0  0  0  0  0
   -4.3650   13.6745   -9.7698 O   0  0  0  0  0  0  0  0  0  0  0  0
   -6.1257   12.2782   -9.8355 H   0  0  0  0  0  0  0  0  0  0  0  0
   -8.1227   10.1152  -13.9085 H   0  0  0  0  0  0  0  0  0  0  0  0
   -6.8205   12.2414  -14.0656 H   0  0  0  0  0  0  0  0  0  0  0  0
   -8.9191    8.2194  -11.8920 H   0  0  0  0  0  0  0  0  0  0  0  0
   -8.0330    9.5733   -7.2490 H   0  0  0  0  0  0  0  0  0  0  0  0
   -1.9543   12.6728  -11.2554 H   0  0  0  0  0  0  0  0  0  0  0  0
   -3.3298   11.5493  -11.5240 H   0  0  0  0  0  0  0  0  0  0  0  0
   -2.7704   12.6186  -12.8546 H   0  0  0  0  0  0  0  0  0  0  0  0
   -5.3954   13.6013  -13.0734 H   0  0  0  0  0  0  0  0  0  0  0  0
   -4.8884    8.7854   -8.4885 H   0  0  0  0  0  0  0  0  0  0  0  0
   -2.6658    9.7683   -8.0414 H   0  0  0  0  0  0  0  0  0  0  0  0
   -4.5366   13.2900   -6.4643 H   0  0  0  0  0  0  0  0  0  0  0  0
   -6.7612   12.3068   -6.9141 H   0  0  0  0  0  0  0  0  0  0  0  0
   -2.1568   14.2271   -7.1311 H   0  0  0  0  0  0  0  0  0  0  0  0
   -2.2034   13.5716   -5.4593 H   0  0  0  0  0  0  0  0  0  0  0  0
   -0.6430   10.6154   -7.5924 H   0  0  0  0  0  0  0  0  0  0  0  0
    1.4345   14.3489   -6.0254 H   0  0  0  0  0  0  0  0  0  0  0  0
    0.1671   15.4918   -6.5857 H   0  0  0  0  0  0  0  0  0  0  0  0
    0.1198   14.8498   -4.9087 H   0  0  0  0  0  0  0  0  0  0  0  0
  1  2  2  0  0  0  0
  1  4  1  0  0  0  0
  1 13  1  0  0  0  0
  2  6  1  0  0  0  0
  3  4  2  0  0  0  0
  3  5  1  0  0  0  0
  5  6  2  0  0  0  0
  5  9  1  0  0  0  0
  6  7  1  0  0  0  0
  7  8  2  0  0  0  0
  7 10  1  0  0  0  0
  8  9  1  0  0  0  0
 10 14  2  0  0  0  0
 11 12  1  0  0  0  0
 11 13  1  0  0  0  0
 11 26  2  0  0  0  0
 11 27  2  0  0  0  0
 14 15  1  0  0  0  0
 14 19  1  0  0  0  0
 15 16  2  0  0  0  0
 16 17  1  0  0  0  0
 17 18  1  0  0  0  0
 17 20  2  0  0  0  0
 18 19  2  0  0  0  0
 20 21  1  0  0  0  0
 20 24  1  0  0  0  0
 21 22  1  0  0  0  0
 22 23  1  0  0  0  0
 22 25  1  0  0  0  0
 23 24  2  0  0  0  0
  2 28  1  0  0  0  0
  3 29  1  0  0  0  0
  4 30  1  0  0  0  0
  9 31  1  0  0  0  0
 10 32  1  0  0  0  0
 12 33  1  0  0  0  0
 12 34  1  0  0  0  0
 12 35  1  0  0  0  0
 13 36  1  0  0  0  0
 15 37  1  0  0  0  0
 16 38  1  0  0  0  0
 18 39  1  0  0  0  0
 19 40  1  0  0  0  0
 21 41  1  0  0  0  0
 21 42  1  0  0  0  0
 24 43  1  0  0  0  0
 25 44  1  0  0  0  0
 25 45  1  0  0  0  0
 25 46  1  0  0  0  0
M  END
> <Name>
25

> <IC50[uM]>
0.073

$$$$
25
  -OEChem-05192314333D
 Structure written by MMmdl.
 46 49  0     0  0  0  0  0  0999 V2000
   -6.3861   12.3623  -11.9697 C   0  0  0  0  0  0  0  0  0  0  0  0
   -6.5480   11.8020  -10.7080 C   0  0  0  0  0  0  0  0  0  0  0  0
   -7.6869   10.5726  -13.0325 C   0  0  0  0  0  0  0  0  0  0  0  0
   -6.9529   11.7665  -13.1047 C   0  0  0  0  0  0  0  0  0  0  0  0
   -7.8210   10.0086  -11.7556 C   0  0  0  0  0  0  0  0  0  0  0  0
   -7.2636   10.6177  -10.5919 C   0  0  0  0  0  0  0  0  0  0  0  0
   -7.6330    9.7421   -9.5104 C   0  0  0  0  0  0  0  0  0  0  0  0
   -8.3023    8.7332   -9.9897 N   0  0  0  0  0  0  0  0  0  0  0  0
   -8.4342    8.8678  -11.3051 N   0  0  0  0  0  0  0  0  0  0  0  0
   -7.3415    9.8758   -8.0215 C   0  0  0  0  0  0  0  0  0  0  0  0
   -4.1211   13.8754  -11.2000 S   0  0  0  0  0  0  0  0  0  0  0  0
   -2.9188   12.5402  -11.7675 C   0  0  0  0  0  0  0  0  0  0  0  0
   -5.6382   13.5428  -12.1051 N   0  0  0  0  0  0  0  0  0  0  0  0
   -5.9683   10.4827   -7.7344 C   0  0  0  0  0  0  0  0  0  0  0  0
   -4.8123    9.7690   -8.0490 C   0  0  0  0  0  0  0  0  0  0  0  0
   -3.5592   10.3237   -7.7969 C   0  0  0  0  0  0  0  0  0  0  0  0
   -3.4543   11.5962   -7.2288 C   0  0  0  0  0  0  0  0  0  0  0  0
   -4.6126   12.3085   -6.9084 C   0  0  0  0  0  0  0  0  0  0  0  0
   -5.8671   11.7538   -7.1613 C   0  0  0  0  0  0  0  0  0  0  0  0
   -2.1058   12.1871   -6.9644 C   0  0  0  0  0  0  0  0  0  0  0  0
   -1.7745   13.4406   -6.4637 C   0  0  0  0  0  0  0  0  0  0  0  0
   -0.4394   13.4976   -6.4041 N   0  0  0  0  0  0  0  0  0  0  0  0
    0.1691   12.4146   -6.8015 N   0  0  0  0  0  0  0  0  0  0  0  0
   -0.8034   11.5995   -7.1773 C   0  0  0  0  0  0  0  0  0  0  0  0
    0.3694   14.6144   -5.9538 C   0  0  0  0  0  0  0  0  0  0  0  0
   -3.6497   15.1720  -11.6865 O   0  0  0  0  0  0  0  0  0  0  0  0
   -4.3650   13.6745   -9.7698 O   0  0  0  0  0  0  0  0  0  0  0  0
   -6.1257   12.2782   -9.8355 H   0  0  0  0  0  0  0  0  0  0  0  0
   -8.1227   10.1152  -13.9085 H   0  0  0  0  0  0  0  0  0  0  0  0
   -6.8205   12.2414  -14.0656 H   0  0  0  0  0  0  0  0  0  0  0  0
   -8.6624    7.9724   -9.4498 H   0  0  0  0  0  0  0  0  0  0  0  0
   -8.0330    9.5733   -7.2490 H   0  0  0  0  0  0  0  0  0  0  0  0
   -1.9543   12.6728  -11.2554 H   0  0  0  0  0  0  0  0  0  0  0  0
   -3.3298   11.5493  -11.5240 H   0  0  0  0  0  0  0  0  0  0  0  0
   -2.7704   12.6186  -12.8546 H   0  0  0  0  0  0  0  0  0  0  0  0
   -5.3954   13.6013  -13.0734 H   0  0  0  0  0  0  0  0  0  0  0  0
   -4.8884    8.7854   -8.4885 H   0  0  0  0  0  0  0  0  0  0  0  0
   -2.6658    9.7683   -8.0414 H   0  0  0  0  0  0  0  0  0  0  0  0
   -3.4550   12.0453   -8.2329 H   0  0  0  0  0  0  0  0  0  0  0  0
   -4.5366   13.2900   -6.4643 H   0  0  0  0  0  0  0  0  0  0  0  0
   -6.7612   12.3068   -6.9141 H   0  0  0  0  0  0  0  0  0  0  0  0
   -2.4642   14.2207   -6.1771 H   0  0  0  0  0  0  0  0  0  0  0  0
   -0.6430   10.6154   -7.5924 H   0  0  0  0  0  0  0  0  0  0  0  0
    1.4345   14.3489   -6.0254 H   0  0  0  0  0  0  0  0  0  0  0  0
    0.1671   15.4918   -6.5857 H   0  0  0  0  0  0  0  0  0  0  0  0
    0.1198   14.8498   -4.9087 H   0  0  0  0  0  0  0  0  0  0  0  0
  1  2  2  0  0  0  0
  1  4  1  0  0  0  0
  1 13  1  0  0  0  0
  2  6  1  0  0  0  0
  3  4  2  0  0  0  0
  3  5  1  0  0  0  0
  5  6  1  0  0  0  0
  5  9  2  0  0  0  0
  6  7  2  0  0  0  0
  7  8  1  0  0  0  0
  7 10  1  0  0  0  0
  8  9  1  0  0  0  0
 10 14  2  0  0  0  0
 11 12  1  0  0  0  0
 11 13  1  0  0  0  0
 11 26  2  0  0  0  0
 11 27  2  0  0  0  0
 14 15  1  0  0  0  0
 14 19  1  0  0  0  0
 15 16  2  0  0  0  0
 16 17  1  0  0  0  0
 17 18  1  0  0  0  0
 17 20  1  0  0  0  0
 18 19  2  0  0  0  0
 20 21  2  0  0  0  0
 20 24  1  0  0  0  0
 21 22  1  0  0  0  0
 22 23  1  0  0  0  0
 22 25  1  0  0  0  0
 23 24  2  0  0  0  0
  2 28  1  0  0  0  0
  3 29  1  0  0  0  0
  4 30  1  0  0  0  0
  8 31  1  0  0  0  0
 10 32  1  0  0  0  0
 12 33  1  0  0  0  0
 12 34  1  0  0  0  0
 12 35  1  0  0  0  0
 13 36  1  0  0  0  0
 15 37  1  0  0  0  0
 16 38  1  0  0  0  0
 17 39  1  0  0  0  0
 18 40  1  0  0  0  0
 19 41  1  0  0  0  0
 21 42  1  0  0  0  0
 24 43  1  0  0  0  0
 25 44  1  0  0  0  0
 25 45  1  0  0  0  0
 25 46  1  0  0  0  0
M  END
> <Name>
25

> <IC50[uM]>
0.073

$$$$
25
  -OEChem-05192314333D
 Structure written by MMmdl.
 46 49  0     0  0  0  0  0  0999 V2000
   -6.3861   12.3623  -11.9697 C   0  0  0  0  0  0  0  0  0  0  0  0
   -6.5480   11.8020  -10.7080 C   0  0  0  0  0  0  0  0  0  0  0  0
   -7.6869   10.5726  -13.0325 C   0  0  0  0  0  0  0  0  0  0  0  0
   -6.9529   11.7665  -13.1047 C   0  0  0  0  0  0  0  0  0  0  0  0
   -7.8210   10.0086  -11.7556 C   0  0  0  0  0  0  0  0  0  0  0  0
   -7.2636   10.6177  -10.5919 C   0  0  0  0  0  0  0  0  0  0  0  0
   -7.6330    9.7421   -9.5104 C   0  0  0  0  0  0  0  0  0  0  0  0
   -8.3023    8.7332   -9.9897 N   0  0  0  0  0  0  0  0  0  0  0  0
   -8.4342    8.8678  -11.3051 N   0  0  0  0  0  0  0  0  0  0  0  0
   -7.3415    9.8758   -8.0215 C   0  0  0  0  0  0  0  0  0  0  0  0
   -4.1211   13.8754  -11.2000 S   0  0  0  0  0  0  0  0  0  0  0  0
   -2.9188   12.5402  -11.7675 C   0  0  0  0  0  0  0  0  0  0  0  0
   -5.6382   13.5428  -12.1051 N   0  0  0  0  0  0  0  0  0  0  0  0
   -5.9683   10.4827   -7.7344 C   0  0  0  0  0  0  0  0  0  0  0  0
   -4.8123    9.7690   -8.0490 C   0  0  0  0  0  0  0  0  0  0  0  0
   -3.5592   10.3237   -7.7969 C   0  0  0  0  0  0  0  0  0  0  0  0
   -3.4543   11.5962   -7.2288 C   0  0  0  0  0  0  0  0  0  0  0  0
   -4.6126   12.3085   -6.9084 C   0  0  0  0  0  0  0  0  0  0  0  0
   -5.8671   11.7538   -7.1613 C   0  0  0  0  0  0  0  0  0  0  0  0
   -2.1058   12.1871   -6.9644 C   0  0  0  0  0  0  0  0  0  0  0  0
   -1.7745   13.4406   -6.4637 C   0  0  0  0  0  0  0  0  0  0  0  0
   -0.4394   13.4976   -6.4041 N   0  0  0  0  0  0  0  0  0  0  0  0
    0.1691   12.4146   -6.8015 N   0  0  0  0  0  0  0  0  0  0  0  0
   -0.8034   11.5995   -7.1773 C   0  0  0  0  0  0  0  0  0  0  0  0
    0.3694   14.6144   -5.9538 C   0  0  0  0  0  0  0  0  0  0  0  0
   -3.6497   15.1720  -11.6865 O   0  0  0  0  0  0  0  0  0  0  0  0
   -4.3650   13.6745   -9.7698 O   0  0  0  0  0  0  0  0  0  0  0  0
   -6.1257   12.2782   -9.8355 H   0  0  0  0  0  0  0  0  0  0  0  0
   -8.1227   10.1152  -13.9085 H   0  0  0  0  0  0  0  0  0  0  0  0
   -6.8205   12.2414  -14.0656 H   0  0  0  0  0  0  0  0  0  0  0  0
   -8.9191    8.2194  -11.8920 H   0  0  0  0  0  0  0  0  0  0  0  0
   -8.0330    9.5733   -7.2490 H   0  0  0  0  0  0  0  0  0  0  0  0
   -1.9543   12.6728  -11.2554 H   0  0  0  0  0  0  0  0  0  0  0  0
   -3.3298   11.5493  -11.5240 H   0  0  0  0  0  0  0  0  0  0  0  0
   -2.7704   12.6186  -12.8546 H   0  0  0  0  0  0  0  0  0  0  0  0
   -5.3954   13.6013  -13.0734 H   0  0  0  0  0  0  0  0  0  0  0  0
   -4.8884    8.7854   -8.4885 H   0  0  0  0  0  0  0  0  0  0  0  0
   -2.6658    9.7683   -8.0414 H   0  0  0  0  0  0  0  0  0  0  0  0
   -3.4550   12.0453   -8.2329 H   0  0  0  0  0  0  0  0  0  0  0  0
   -4.5366   13.2900   -6.4643 H   0  0  0  0  0  0  0  0  0  0  0  0
   -6.7612   12.3068   -6.9141 H   0  0  0  0  0  0  0  0  0  0  0  0
   -2.4642   14.2207   -6.1771 H   0  0  0  0  0  0  0  0  0  0  0  0
   -0.6430   10.6154   -7.5924 H   0  0  0  0  0  0  0  0  0  0  0  0
    1.4345   14.3489   -6.0254 H   0  0  0  0  0  0  0  0  0  0  0  0
    0.1671   15.4918   -6.5857 H   0  0  0  0  0  0  0  0  0  0  0  0
    0.1198   14.8498   -4.9087 H   0  0  0  0  0  0  0  0  0  0  0  0
  1  2  2  0  0  0  0
  1  4  1  0  0  0  0
  1 13  1  0  0  0  0
  2  6  1  0  0  0  0
  3  4  2  0  0  0  0
  3  5  1  0  0  0  0
  5  6  2  0  0  0  0
  5  9  1  0  0  0  0
  6  7  1  0  0  0  0
  7  8  2  0  0  0  0
  7 10  1  0  0  0  0
  8  9  1  0  0  0  0
 10 14  2  0  0  0  0
 11 12  1  0  0  0  0
 11 13  1  0  0  0  0
 11 26  2  0  0  0  0
 11 27  2  0  0  0  0
 14 15  1  0  0  0  0
 14 19  1  0  0  0  0
 15 16  2  0  0  0  0
 16 17  1  0  0  0  0
 17 18  1  0  0  0  0
 17 20  1  0  0  0  0
 18 19  2  0  0  0  0
 20 21  2  0  0  0  0
 20 24  1  0  0  0  0
 21 22  1  0  0  0  0
 22 23  1  0  0  0  0
 22 25  1  0  0  0  0
 23 24  2  0  0  0  0
  2 28  1  0  0  0  0
  3 29  1  0  0  0  0
  4 30  1  0  0  0  0
  9 31  1  0  0  0  0
 10 32  1  0  0  0  0
 12 33  1  0  0  0  0
 12 34  1  0  0  0  0
 12 35  1  0  0  0  0
 13 36  1  0  0  0  0
 15 37  1  0  0  0  0
 16 38  1  0  0  0  0
 17 39  1  0  0  0  0
 18 40  1  0  0  0  0
 19 41  1  0  0  0  0
 21 42  1  0  0  0  0
 24 43  1  0  0  0  0
 25 44  1  0  0  0  0
 25 45  1  0  0  0  0
 25 46  1  0  0  0  0
M  END
> <Name>
25

> <IC50[uM]>
0.073

$$$$
25
  -OEChem-05192314333D
 Structure written by MMmdl.
 46 49  0     0  0  0  0  0  0999 V2000
   -6.3861   12.3623  -11.9697 C   0  0  0  0  0  0  0  0  0  0  0  0
   -6.5480   11.8020  -10.7080 C   0  0  0  0  0  0  0  0  0  0  0  0
   -7.6869   10.5726  -13.0325 C   0  0  0  0  0  0  0  0  0  0  0  0
   -6.9529   11.7665  -13.1047 C   0  0  0  0  0  0  0  0  0  0  0  0
   -7.8210   10.0086  -11.7556 C   0  0  0  0  0  0  0  0  0  0  0  0
   -7.2636   10.6177  -10.5919 C   0  0  0  0  0  0  0  0  0  0  0  0
   -7.6330    9.7421   -9.5104 C   0  0  0  0  0  0  0  0  0  0  0  0
   -8.3023    8.7332   -9.9897 N   0  0  0  0  0  0  0  0  0  0  0  0
   -8.4342    8.8678  -11.3051 N   0  0  0  0  0  0  0  0  0  0  0  0
   -7.3415    9.8758   -8.0215 C   0  0  0  0  0  0  0  0  0  0  0  0
   -4.1211   13.8754  -11.2000 S   0  0  0  0  0  0  0  0  0  0  0  0
   -2.9188   12.5402  -11.7675 C   0  0  0  0  0  0  0  0  0  0  0  0
   -5.6382   13.5428  -12.1051 N   0  0  0  0  0  0  0  0  0  0  0  0
   -5.9683   10.4827   -7.7344 C   0  0  0  0  0  0  0  0  0  0  0  0
   -4.8123    9.7690   -8.0490 C   0  0  0  0  0  0  0  0  0  0  0  0
   -3.5592   10.3237   -7.7969 C   0  0  0  0  0  0  0  0  0  0  0  0
   -3.4543   11.5962   -7.2288 C   0  0  0  0  0  0  0  0  0  0  0  0
   -4.6126   12.3085   -6.9084 C   0  0  0  0  0  0  0  0  0  0  0  0
   -5.8671   11.7538   -7.1613 C   0  0  0  0  0  0  0  0  0  0  0  0
   -2.1058   12.1871   -6.9644 C   0  0  0  0  0  0  0  0  0  0  0  0
   -1.7745   13.4406   -6.4637 C   0  0  0  0  0  0  0  0  0  0  0  0
   -0.4394   13.4976   -6.4041 N   0  0  0  0  0  0  0  0  0  0  0  0
    0.1691   12.4146   -6.8015 N   0  0  0  0  0  0  0  0  0  0  0  0
   -0.8034   11.5995   -7.1773 C   0  0  0  0  0  0  0  0  0  0  0  0
    0.3694   14.6144   -5.9538 C   0  0  0  0  0  0  0  0  0  0  0  0
   -3.6497   15.1720  -11.6865 O   0  0  0  0  0  0  0  0  0  0  0  0
   -4.3650   13.6745   -9.7698 O   0  0  0  0  0  0  0  0  0  0  0  0
   -6.1257   12.2782   -9.8355 H   0  0  0  0  0  0  0  0  0  0  0  0
   -8.1227   10.1152  -13.9085 H   0  0  0  0  0  0  0  0  0  0  0  0
   -6.8205   12.2414  -14.0656 H   0  0  0  0  0  0  0  0  0  0  0  0
   -8.6624    7.9724   -9.4498 H   0  0  0  0  0  0  0  0  0  0  0  0
   -8.0330    9.5733   -7.2490 H   0  0  0  0  0  0  0  0  0  0  0  0
   -1.9543   12.6728  -11.2554 H   0  0  0  0  0  0  0  0  0  0  0  0
   -3.3298   11.5493  -11.5240 H   0  0  0  0  0  0  0  0  0  0  0  0
   -2.7704   12.6186  -12.8546 H   0  0  0  0  0  0  0  0  0  0  0  0
   -5.3954   13.6013  -13.0734 H   0  0  0  0  0  0  0  0  0  0  0  0
   -4.8884    8.7854   -8.4885 H   0  0  0  0  0  0  0  0  0  0  0  0
   -2.6658    9.7683   -8.0414 H   0  0  0  0  0  0  0  0  0  0  0  0
   -4.5366   13.2900   -6.4643 H   0  0  0  0  0  0  0  0  0  0  0  0
   -6.3910   12.4480   -7.8348 H   0  0  0  0  0  0  0  0  0  0  0  0
   -6.3948   11.7100   -6.1971 H   0  0  0  0  0  0  0  0  0  0  0  0
   -2.4642   14.2207   -6.1771 H   0  0  0  0  0  0  0  0  0  0  0  0
   -0.6430   10.6154   -7.5924 H   0  0  0  0  0  0  0  0  0  0  0  0
    1.4345   14.3489   -6.0254 H   0  0  0  0  0  0  0  0  0  0  0  0
    0.1671   15.4918   -6.5857 H   0  0  0  0  0  0  0  0  0  0  0  0
    0.1198   14.8498   -4.9087 H   0  0  0  0  0  0  0  0  0  0  0  0
  1  2  2  0  0  0  0
  1  4  1  0  0  0  0
  1 13  1  0  0  0  0
  2  6  1  0  0  0  0
  3  4  2  0  0  0  0
  3  5  1  0  0  0  0
  5  6  1  0  0  0  0
  5  9  2  0  0  0  0
  6  7  2  0  0  0  0
  7  8  1  0  0  0  0
  7 10  1  0  0  0  0
  8  9  1  0  0  0  0
 10 14  2  3  0  0  0
 11 12  1  0  0  0  0
 11 13  1  0  0  0  0
 11 26  2  0  0  0  0
 11 27  2  0  0  0  0
 14 15  1  0  0  0  0
 14 19  1  0  0  0  0
 15 16  2  0  0  0  0
 16 17  1  0  0  0  0
 17 18  2  0  0  0  0
 17 20  1  0  0  0  0
 18 19  1  0  0  0  0
 20 21  2  0  0  0  0
 20 24  1  0  0  0  0
 21 22  1  0  0  0  0
 22 23  1  0  0  0  0
 22 25  1  0  0  0  0
 23 24  2  0  0  0  0
  2 28  1  0  0  0  0
  3 29  1  0  0  0  0
  4 30  1  0  0  0  0
  8 31  1  0  0  0  0
 10 32  1  0  0  0  0
 12 33  1  0  0  0  0
 12 34  1  0  0  0  0
 12 35  1  0  0  0  0
 13 36  1  0  0  0  0
 15 37  1  0  0  0  0
 16 38  1  0  0  0  0
 18 39  1  0  0  0  0
 19 40  1  0  0  0  0
 19 41  1  0  0  0  0
 21 42  1  0  0  0  0
 24 43  1  0  0  0  0
 25 44  1  0  0  0  0
 25 45  1  0  0  0  0
 25 46  1  0  0  0  0
M  END
> <Name>
25

> <IC50[uM]>
0.073

$$$$
25
  -OEChem-05192314333D
 Structure written by MMmdl.
 46 49  0     0  0  0  0  0  0999 V2000
   -6.3861   12.3623  -11.9697 C   0  0  0  0  0  0  0  0  0  0  0  0
   -6.5480   11.8020  -10.7080 C   0  0  0  0  0  0  0  0  0  0  0  0
   -7.6869   10.5726  -13.0325 C   0  0  0  0  0  0  0  0  0  0  0  0
   -6.9529   11.7665  -13.1047 C   0  0  0  0  0  0  0  0  0  0  0  0
   -7.8210   10.0086  -11.7556 C   0  0  0  0  0  0  0  0  0  0  0  0
   -7.2636   10.6177  -10.5919 C   0  0  0  0  0  0  0  0  0  0  0  0
   -7.6330    9.7421   -9.5104 C   0  0  0  0  0  0  0  0  0  0  0  0
   -8.3023    8.7332   -9.9897 N   0  0  0  0  0  0  0  0  0  0  0  0
   -8.4342    8.8678  -11.3051 N   0  0  0  0  0  0  0  0  0  0  0  0
   -7.3415    9.8758   -8.0215 C   0  0  0  0  0  0  0  0  0  0  0  0
   -4.1211   13.8754  -11.2000 S   0  0  0  0  0  0  0  0  0  0  0  0
   -2.9188   12.5402  -11.7675 C   0  0  0  0  0  0  0  0  0  0  0  0
   -5.6382   13.5428  -12.1051 N   0  0  0  0  0  0  0  0  0  0  0  0
   -5.9683   10.4827   -7.7344 C   0  0  0  0  0  0  0  0  0  0  0  0
   -4.8123    9.7690   -8.0490 C   0  0  0  0  0  0  0  0  0  0  0  0
   -3.5592   10.3237   -7.7969 C   0  0  0  0  0  0  0  0  0  0  0  0
   -3.4543   11.5962   -7.2288 C   0  0  0  0  0  0  0  0  0  0  0  0
   -4.6126   12.3085   -6.9084 C   0  0  0  0  0  0  0  0  0  0  0  0
   -5.8671   11.7538   -7.1613 C   0  0  0  0  0  0  0  0  0  0  0  0
   -2.1058   12.1871   -6.9644 C   0  0  0  0  0  0  0  0  0  0  0  0
   -1.7745   13.4406   -6.4637 C   0  0  0  0  0  0  0  0  0  0  0  0
   -0.4394   13.4976   -6.4041 N   0  0  0  0  0  0  0  0  0  0  0  0
    0.1691   12.4146   -6.8015 N   0  0  0  0  0  0  0  0  0  0  0  0
   -0.8034   11.5995   -7.1773 C   0  0  0  0  0  0  0  0  0  0  0  0
    0.3694   14.6144   -5.9538 C   0  0  0  0  0  0  0  0  0  0  0  0
   -3.6497   15.1720  -11.6865 O   0  0  0  0  0  0  0  0  0  0  0  0
   -4.3650   13.6745   -9.7698 O   0  0  0  0  0  0  0  0  0  0  0  0
   -6.1257   12.2782   -9.8355 H   0  0  0  0  0  0  0  0  0  0  0  0
   -8.1227   10.1152  -13.9085 H   0  0  0  0  0  0  0  0  0  0  0  0
   -6.8205   12.2414  -14.0656 H   0  0  0  0  0  0  0  0  0  0  0  0
   -8.9191    8.2194  -11.8920 H   0  0  0  0  0  0  0  0  0  0  0  0
   -8.0330    9.5733   -7.2490 H   0  0  0  0  0  0  0  0  0  0  0  0
   -1.9543   12.6728  -11.2554 H   0  0  0  0  0  0  0  0  0  0  0  0
   -3.3298   11.5493  -11.5240 H   0  0  0  0  0  0  0  0  0  0  0  0
   -2.7704   12.6186  -12.8546 H   0  0  0  0  0  0  0  0  0  0  0  0
   -5.3954   13.6013  -13.0734 H   0  0  0  0  0  0  0  0  0  0  0  0
   -4.8884    8.7854   -8.4885 H   0  0  0  0  0  0  0  0  0  0  0  0
   -2.6658    9.7683   -8.0414 H   0  0  0  0  0  0  0  0  0  0  0  0
   -4.5366   13.2900   -6.4643 H   0  0  0  0  0  0  0  0  0  0  0  0
   -6.3910   12.4480   -7.8348 H   0  0  0  0  0  0  0  0  0  0  0  0
   -6.3948   11.7100   -6.1971 H   0  0  0  0  0  0  0  0  0  0  0  0
   -2.4642   14.2207   -6.1771 H   0  0  0  0  0  0  0  0  0  0  0  0
   -0.6430   10.6154   -7.5924 H   0  0  0  0  0  0  0  0  0  0  0  0
    1.4345   14.3489   -6.0254 H   0  0  0  0  0  0  0  0  0  0  0  0
    0.1671   15.4918   -6.5857 H   0  0  0  0  0  0  0  0  0  0  0  0
    0.1198   14.8498   -4.9087 H   0  0  0  0  0  0  0  0  0  0  0  0
  1  2  2  0  0  0  0
  1  4  1  0  0  0  0
  1 13  1  0  0  0  0
  2  6  1  0  0  0  0
  3  4  2  0  0  0  0
  3  5  1  0  0  0  0
  5  6  2  0  0  0  0
  5  9  1  0  0  0  0
  6  7  1  0  0  0  0
  7  8  2  0  0  0  0
  7 10  1  0  0  0  0
  8  9  1  0  0  0  0
 10 14  2  3  0  0  0
 11 12  1  0  0  0  0
 11 13  1  0  0  0  0
 11 26  2  0  0  0  0
 11 27  2  0  0  0  0
 14 15  1  0  0  0  0
 14 19  1  0  0  0  0
 15 16  2  0  0  0  0
 16 17  1  0  0  0  0
 17 18  2  0  0  0  0
 17 20  1  0  0  0  0
 18 19  1  0  0  0  0
 20 21  2  0  0  0  0
 20 24  1  0  0  0  0
 21 22  1  0  0  0  0
 22 23  1  0  0  0  0
 22 25  1  0  0  0  0
 23 24  2  0  0  0  0
  2 28  1  0  0  0  0
  3 29  1  0  0  0  0
  4 30  1  0  0  0  0
  9 31  1  0  0  0  0
 10 32  1  0  0  0  0
 12 33  1  0  0  0  0
 12 34  1  0  0  0  0
 12 35  1  0  0  0  0
 13 36  1  0  0  0  0
 15 37  1  0  0  0  0
 16 38  1  0  0  0  0
 18 39  1  0  0  0  0
 19 40  1  0  0  0  0
 19 41  1  0  0  0  0
 21 42  1  0  0  0  0
 24 43  1  0  0  0  0
 25 44  1  0  0  0  0
 25 45  1  0  0  0  0
 25 46  1  0  0  0  0
M  END
> <Name>
25

> <IC50[uM]>
0.073

$$$$
25
  -OEChem-05192314333D
 Structure written by MMmdl.
 46 49  0     1  0  0  0  0  0999 V2000
   -6.3861   12.3623  -11.9697 C   0  0  0  0  0  0  0  0  0  0  0  0
   -6.5480   11.8020  -10.7080 C   0  0  0  0  0  0  0  0  0  0  0  0
   -7.6869   10.5726  -13.0325 C   0  0  0  0  0  0  0  0  0  0  0  0
   -6.9529   11.7665  -13.1047 C   0  0  0  0  0  0  0  0  0  0  0  0
   -7.8210   10.0086  -11.7556 C   0  0  0  0  0  0  0  0  0  0  0  0
   -7.2636   10.6177  -10.5919 C   0  0  0  0  0  0  0  0  0  0  0  0
   -7.6330    9.7421   -9.5104 C   0  0  0  0  0  0  0  0  0  0  0  0
   -8.3023    8.7332   -9.9897 N   0  0  0  0  0  0  0  0  0  0  0  0
   -8.4342    8.8678  -11.3051 N   0  0  0  0  0  0  0  0  0  0  0  0
   -7.3415    9.8758   -8.0215 C   0  0  0  0  0  0  0  0  0  0  0  0
   -4.1211   13.8754  -11.2000 S   0  0  0  0  0  0  0  0  0  0  0  0
   -2.9188   12.5402  -11.7675 C   0  0  0  0  0  0  0  0  0  0  0  0
   -5.6382   13.5428  -12.1051 N   0  0  0  0  0  0  0  0  0  0  0  0
   -5.9683   10.4827   -7.7344 C   0  0  0  0  0  0  0  0  0  0  0  0
   -4.8123    9.7690   -8.0490 C   0  0  0  0  0  0  0  0  0  0  0  0
   -3.5592   10.3237   -7.7969 C   0  0  0  0  0  0  0  0  0  0  0  0
   -3.4543   11.5962   -7.2288 C   0  0  0  0  0  0  0  0  0  0  0  0
   -4.6126   12.3085   -6.9084 C   0  0  0  0  0  0  0  0  0  0  0  0
   -5.8671   11.7538   -7.1613 C   0  0  0  0  0  0  0  0  0  0  0  0
   -2.1058   12.1871   -6.9644 C   0  0  3  0  0  0  0  0  0  0  0  0
   -1.7745   13.4406   -6.4637 C   0  0  0  0  0  0  0  0  0  0  0  0
   -0.4394   13.4976   -6.4041 N   0  0  3  0  0  0  0  0  0  0  0  0
    0.1691   12.4146   -6.8015 N   0  0  0  0  0  0  0  0  0  0  0  0
   -0.8034   11.5995   -7.1773 C   0  0  0  0  0  0  0  0  0  0  0  0
    0.3694   14.6144   -5.9538 C   0  0  0  0  0  0  0  0  0  0  0  0
   -3.6497   15.1720  -11.6865 O   0  0  0  0  0  0  0  0  0  0  0  0
   -4.3650   13.6745   -9.7698 O   0  0  0  0  0  0  0  0  0  0  0  0
   -6.1257   12.2782   -9.8355 H   0  0  0  0  0  0  0  0  0  0  0  0
   -8.1227   10.1152  -13.9085 H   0  0  0  0  0  0  0  0  0  0  0  0
   -6.8205   12.2414  -14.0656 H   0  0  0  0  0  0  0  0  0  0  0  0
   -8.0330    9.5733   -7.2490 H   0  0  0  0  0  0  0  0  0  0  0  0
   -1.9543   12.6728  -11.2554 H   0  0  0  0  0  0  0  0  0  0  0  0
   -3.3298   11.5493  -11.5240 H   0  0  0  0  0  0  0  0  0  0  0  0
   -2.7704   12.6186  -12.8546 H   0  0  0  0  0  0  0  0  0  0  0  0
   -5.3954   13.6013  -13.0734 H   0  0  0  0  0  0  0  0  0  0  0  0
   -4.8884    8.7854   -8.4885 H   0  0  0  0  0  0  0  0  0  0  0  0
   -2.6658    9.7683   -8.0414 H   0  0  0  0  0  0  0  0  0  0  0  0
   -4.5366   13.2900   -6.4643 H   0  0  0  0  0  0  0  0  0  0  0  0
   -6.7612   12.3068   -6.9141 H   0  0  0  0  0  0  0  0  0  0  0  0
   -2.1251   11.7808   -5.9424 H   0  0  0  0  0  0  0  0  0  0  0  0
   -2.1568   14.2271   -7.1311 H   0  0  0  0  0  0  0  0  0  0  0  0
   -2.2034   13.5716   -5.4593 H   0  0  0  0  0  0  0  0  0  0  0  0
   -0.6430   10.6154   -7.5924 H   0  0  0  0  0  0  0  0  0  0  0  0
    1.4345   14.3489   -6.0254 H   0  0  0  0  0  0  0  0  0  0  0  0
    0.1671   15.4918   -6.5857 H   0  0  0  0  0  0  0  0  0  0  0  0
    0.1198   14.8498   -4.9087 H   0  0  0  0  0  0  0  0  0  0  0  0
  1  2  2  0  0  0  0
  1  4  1  0  0  0  0
  1 13  1  0  0  0  0
  2  6  1  0  0  0  0
  3  4  2  0  0  0  0
  3  5  1  0  0  0  0
  5  6  2  0  0  0  0
  5  9  1  0  0  0  0
  6  7  1  0  0  0  0
  7  8  1  0  0  0  0
  7 10  2  3  0  0  0
  8  9  2  0  0  0  0
 10 14  1  0  0  0  0
 11 12  1  0  0  0  0
 11 13  1  0  0  0  0
 11 26  2  0  0  0  0
 11 27  2  0  0  0  0
 14 15  2  0  0  0  0
 14 19  1  0  0  0  0
 15 16  1  0  0  0  0
 16 17  2  0  0  0  0
 17 18  1  0  0  0  0
 17 20  1  0  0  0  0
 18 19  2  0  0  0  0
 20 21  1  0  0  0  0
 20 24  1  0  0  0  0
 21 22  1  0  0  0  0
 22 23  1  0  0  0  0
 22 25  1  0  0  0  0
 23 24  2  0  0  0  0
  2 28  1  0  0  0  0
  3 29  1  0  0  0  0
  4 30  1  0  0  0  0
 10 31  1  0  0  0  0
 12 32  1  0  0  0  0
 12 33  1  0  0  0  0
 12 34  1  0  0  0  0
 13 35  1  0  0  0  0
 15 36  1  0  0  0  0
 16 37  1  0  0  0  0
 18 38  1  0  0  0  0
 19 39  1  0  0  0  0
 20 40  1  0  0  0  0
 21 41  1  0  0  0  0
 21 42  1  0  0  0  0
 24 43  1  0  0  0  0
 25 44  1  0  0  0  0
 25 45  1  0  0  0  0
 25 46  1  0  0  0  0
M  END
> <Name>
25

> <IC50[uM]>
0.073

$$$$
25
  -OEChem-05192314333D
 Structure written by MMmdl.
 46 49  0     1  0  0  0  0  0999 V2000
   -6.3861   12.3623  -11.9697 C   0  0  0  0  0  0  0  0  0  0  0  0
   -6.5480   11.8020  -10.7080 C   0  0  0  0  0  0  0  0  0  0  0  0
   -7.6869   10.5726  -13.0325 C   0  0  0  0  0  0  0  0  0  0  0  0
   -6.9529   11.7665  -13.1047 C   0  0  0  0  0  0  0  0  0  0  0  0
   -7.8210   10.0086  -11.7556 C   0  0  0  0  0  0  0  0  0  0  0  0
   -7.2636   10.6177  -10.5919 C   0  0  0  0  0  0  0  0  0  0  0  0
   -7.6330    9.7421   -9.5104 C   0  0  0  0  0  0  0  0  0  0  0  0
   -8.3023    8.7332   -9.9897 N   0  0  0  0  0  0  0  0  0  0  0  0
   -8.4342    8.8678  -11.3051 N   0  0  0  0  0  0  0  0  0  0  0  0
   -7.3415    9.8758   -8.0215 C   0  0  0  0  0  0  0  0  0  0  0  0
   -4.1211   13.8754  -11.2000 S   0  0  0  0  0  0  0  0  0  0  0  0
   -2.9188   12.5402  -11.7675 C   0  0  0  0  0  0  0  0  0  0  0  0
   -5.6382   13.5428  -12.1051 N   0  0  0  0  0  0  0  0  0  0  0  0
   -5.9683   10.4827   -7.7344 C   0  0  0  0  0  0  0  0  0  0  0  0
   -4.8123    9.7690   -8.0490 C   0  0  0  0  0  0  0  0  0  0  0  0
   -3.5592   10.3237   -7.7969 C   0  0  0  0  0  0  0  0  0  0  0  0
   -3.4543   11.5962   -7.2288 C   0  0  0  0  0  0  0  0  0  0  0  0
   -4.6126   12.3085   -6.9084 C   0  0  0  0  0  0  0  0  0  0  0  0
   -5.8671   11.7538   -7.1613 C   0  0  0  0  0  0  0  0  0  0  0  0
   -2.1058   12.1871   -6.9644 C   0  0  0  0  0  0  0  0  0  0  0  0
   -1.7745   13.4406   -6.4637 C   0  0  0  0  0  0  0  0  0  0  0  0
   -0.4394   13.4976   -6.4041 N   0  0  3  0  0  0  0  0  0  0  0  0
    0.1691   12.4146   -6.8015 N   0  0  0  0  0  0  0  0  0  0  0  0
   -0.8034   11.5995   -7.1773 C   0  0  0  0  0  0  0  0  0  0  0  0
    0.3694   14.6144   -5.9538 C   0  0  0  0  0  0  0  0  0  0  0  0
   -3.6497   15.1720  -11.6865 O   0  0  0  0  0  0  0  0  0  0  0  0
   -4.3650   13.6745   -9.7698 O   0  0  0  0  0  0  0  0  0  0  0  0
   -6.1257   12.2782   -9.8355 H   0  0  0  0  0  0  0  0  0  0  0  0
   -8.1227   10.1152  -13.9085 H   0  0  0  0  0  0  0  0  0  0  0  0
   -6.8205   12.2414  -14.0656 H   0  0  0  0  0  0  0  0  0  0  0  0
   -8.0330    9.5733   -7.2490 H   0  0  0  0  0  0  0  0  0  0  0  0
   -1.9543   12.6728  -11.2554 H   0  0  0  0  0  0  0  0  0  0  0  0
   -3.3298   11.5493  -11.5240 H   0  0  0  0  0  0  0  0  0  0  0  0
   -2.7704   12.6186  -12.8546 H   0  0  0  0  0  0  0  0  0  0  0  0
   -5.3954   13.6013  -13.0734 H   0  0  0  0  0  0  0  0  0  0  0  0
   -4.8884    8.7854   -8.4885 H   0  0  0  0  0  0  0  0  0  0  0  0
   -2.6658    9.7683   -8.0414 H   0  0  0  0  0  0  0  0  0  0  0  0
   -4.5366   13.2900   -6.4643 H   0  0  0  0  0  0  0  0  0  0  0  0
   -6.7612   12.3068   -6.9141 H   0  0  0  0  0  0  0  0  0  0  0  0
   -2.4642   14.2207   -6.1771 H   0  0  0  0  0  0  0  0  0  0  0  0
    0.7780   12.6141   -7.5692 H   0  0  0  0  0  0  0  0  0  0  0  0
   -0.7330   10.6686   -6.5955 H   0  0  0  0  0  0  0  0  0  0  0  0
   -0.6852   11.3731   -8.2472 H   0  0  0  0  0  0  0  0  0  0  0  0
    1.4345   14.3488   -6.0253 H   0  0  0  0  0  0  0  0  0  0  0  0
    0.1672   15.4917   -6.5858 H   0  0  0  0  0  0  0  0  0  0  0  0
    0.1197   14.8499   -4.9087 H   0  0  0  0  0  0  0  0  0  0  0  0
  1  2  2  0  0  0  0
  1  4  1  0  0  0  0
  1 13  1  0  0  0  0
  2  6  1  0  0  0  0
  3  4  2  0  0  0  0
  3  5  1  0  0  0  0
  5  6  2  0  0  0  0
  5  9  1  0  0  0  0
  6  7  1  0  0  0  0
  7  8  1  0  0  0  0
  7 10  2  3  0  0  0
  8  9  2  0  0  0  0
 10 14  1  0  0  0  0
 11 12  1  0  0  0  0
 11 13  1  0  0  0  0
 11 26  2  0  0  0  0
 11 27  2  0  0  0  0
 14 15  2  0  0  0  0
 14 19  1  0  0  0  0
 15 16  1  0  0  0  0
 16 17  2  0  0  0  0
 17 18  1  0  0  0  0
 17 20  1  0  0  0  0
 18 19  2  0  0  0  0
 20 21  2  0  0  0  0
 20 24  1  0  0  0  0
 21 22  1  0  0  0  0
 22 23  1  0  0  0  0
 22 25  1  0  0  0  0
 23 24  1  0  0  0  0
  2 28  1  0  0  0  0
  3 29  1  0  0  0  0
  4 30  1  0  0  0  0
 10 31  1  0  0  0  0
 12 32  1  0  0  0  0
 12 33  1  0  0  0  0
 12 34  1  0  0  0  0
 13 35  1  0  0  0  0
 15 36  1  0  0  0  0
 16 37  1  0  0  0  0
 18 38  1  0  0  0  0
 19 39  1  0  0  0  0
 21 40  1  0  0  0  0
 23 41  1  0  0  0  0
 24 42  1  0  0  0  0
 24 43  1  0  0  0  0
 25 44  1  0  0  0  0
 25 45  1  0  0  0  0
 25 46  1  0  0  0  0
M  END
> <Name>
25

> <IC50[uM]>
0.073

$$$$
25
  -OEChem-05192314333D
 Structure written by MMmdl.
 46 49  0     1  0  0  0  0  0999 V2000
   -6.3861   12.3623  -11.9697 C   0  0  0  0  0  0  0  0  0  0  0  0
   -6.5480   11.8020  -10.7080 C   0  0  0  0  0  0  0  0  0  0  0  0
   -7.6869   10.5726  -13.0325 C   0  0  0  0  0  0  0  0  0  0  0  0
   -6.9529   11.7665  -13.1047 C   0  0  0  0  0  0  0  0  0  0  0  0
   -7.8210   10.0086  -11.7556 C   0  0  0  0  0  0  0  0  0  0  0  0
   -7.2636   10.6177  -10.5919 C   0  0  0  0  0  0  0  0  0  0  0  0
   -7.6330    9.7421   -9.5104 C   0  0  0  0  0  0  0  0  0  0  0  0
   -8.3023    8.7332   -9.9897 N   0  0  0  0  0  0  0  0  0  0  0  0
   -8.4342    8.8678  -11.3051 N   0  0  0  0  0  0  0  0  0  0  0  0
   -7.3415    9.8758   -8.0215 C   0  0  0  0  0  0  0  0  0  0  0  0
   -4.1211   13.8754  -11.2000 S   0  0  0  0  0  0  0  0  0  0  0  0
   -2.9188   12.5402  -11.7675 C   0  0  0  0  0  0  0  0  0  0  0  0
   -5.6382   13.5428  -12.1051 N   0  0  0  0  0  0  0  0  0  0  0  0
   -5.9683   10.4827   -7.7344 C   0  0  0  0  0  0  0  0  0  0  0  0
   -4.8123    9.7690   -8.0490 C   0  0  0  0  0  0  0  0  0  0  0  0
   -3.5592   10.3237   -7.7969 C   0  0  0  0  0  0  0  0  0  0  0  0
   -3.4543   11.5962   -7.2288 C   0  0  0  0  0  0  0  0  0  0  0  0
   -4.6126   12.3085   -6.9084 C   0  0  0  0  0  0  0  0  0  0  0  0
   -5.8671   11.7538   -7.1613 C   0  0  0  0  0  0  0  0  0  0  0  0
   -2.1058   12.1871   -6.9644 C   0  0  0  0  0  0  0  0  0  0  0  0
   -1.7745   13.4406   -6.4637 C   0  0  0  0  0  0  0  0  0  0  0  0
   -0.4394   13.4976   -6.4041 N   0  0  3  0  0  0  0  0  0  0  0  0
    0.1691   12.4146   -6.8015 N   0  0  0  0  0  0  0  0  0  0  0  0
   -0.8034   11.5995   -7.1773 C   0  0  0  0  0  0  0  0  0  0  0  0
    0.3694   14.6144   -5.9538 C   0  0  0  0  0  0  0  0  0  0  0  0
   -3.6497   15.1720  -11.6865 O   0  0  0  0  0  0  0  0  0  0  0  0
   -4.3650   13.6745   -9.7698 O   0  0  0  0  0  0  0  0  0  0  0  0
   -6.1257   12.2782   -9.8355 H   0  0  0  0  0  0  0  0  0  0  0  0
   -8.1227   10.1152  -13.9085 H   0  0  0  0  0  0  0  0  0  0  0  0
   -6.8205   12.2414  -14.0656 H   0  0  0  0  0  0  0  0  0  0  0  0
   -8.0330    9.5733   -7.2490 H   0  0  0  0  0  0  0  0  0  0  0  0
   -1.9543   12.6728  -11.2554 H   0  0  0  0  0  0  0  0  0  0  0  0
   -3.3298   11.5493  -11.5240 H   0  0  0  0  0  0  0  0  0  0  0  0
   -2.7704   12.6186  -12.8546 H   0  0  0  0  0  0  0  0  0  0  0  0
   -5.3954   13.6013  -13.0734 H   0  0  0  0  0  0  0  0  0  0  0  0
   -4.8884    8.7854   -8.4885 H   0  0  0  0  0  0  0  0  0  0  0  0
   -2.6658    9.7683   -8.0414 H   0  0  0  0  0  0  0  0  0  0  0  0
   -4.5366   13.2900   -6.4643 H   0  0  0  0  0  0  0  0  0  0  0  0
   -6.7612   12.3068   -6.9141 H   0  0  0  0  0  0  0  0  0  0  0  0
   -2.1568   14.2271   -7.1311 H   0  0  0  0  0  0  0  0  0  0  0  0
   -2.2034   13.5716   -5.4593 H   0  0  0  0  0  0  0  0  0  0  0  0
    0.7780   12.6141   -7.5692 H   0  0  0  0  0  0  0  0  0  0  0  0
   -0.6430   10.6154   -7.5924 H   0  0  0  0  0  0  0  0  0  0  0  0
    1.4345   14.3488   -6.0253 H   0  0  0  0  0  0  0  0  0  0  0  0
    0.1672   15.4917   -6.5858 H   0  0  0  0  0  0  0  0  0  0  0  0
    0.1197   14.8499   -4.9087 H   0  0  0  0  0  0  0  0  0  0  0  0
  1  2  2  0  0  0  0
  1  4  1  0  0  0  0
  1 13  1  0  0  0  0
  2  6  1  0  0  0  0
  3  4  2  0  0  0  0
  3  5  1  0  0  0  0
  5  6  2  0  0  0  0
  5  9  1  0  0  0  0
  6  7  1  0  0  0  0
  7  8  1  0  0  0  0
  7 10  2  3  0  0  0
  8  9  2  0  0  0  0
 10 14  1  0  0  0  0
 11 12  1  0  0  0  0
 11 13  1  0  0  0  0
 11 26  2  0  0  0  0
 11 27  2  0  0  0  0
 14 15  2  0  0  0  0
 14 19  1  0  0  0  0
 15 16  1  0  0  0  0
 16 17  2  0  0  0  0
 17 18  1  0  0  0  0
 17 20  1  0  0  0  0
 18 19  2  0  0  0  0
 20 21  1  0  0  0  0
 20 24  2  0  0  0  0
 21 22  1  0  0  0  0
 22 23  1  0  0  0  0
 22 25  1  0  0  0  0
 23 24  1  0  0  0  0
  2 28  1  0  0  0  0
  3 29  1  0  0  0  0
  4 30  1  0  0  0  0
 10 31  1  0  0  0  0
 12 32  1  0  0  0  0
 12 33  1  0  0  0  0
 12 34  1  0  0  0  0
 13 35  1  0  0  0  0
 15 36  1  0  0  0  0
 16 37  1  0  0  0  0
 18 38  1  0  0  0  0
 19 39  1  0  0  0  0
 21 40  1  0  0  0  0
 21 41  1  0  0  0  0
 23 42  1  0  0  0  0
 24 43  1  0  0  0  0
 25 44  1  0  0  0  0
 25 45  1  0  0  0  0
 25 46  1  0  0  0  0
M  END
> <Name>
25

> <IC50[uM]>
0.073

$$$$
25
  -OEChem-05192314333D
 Structure written by MMmdl.
 46 49  0     1  0  0  0  0  0999 V2000
   -6.3861   12.3623  -11.9697 C   0  0  0  0  0  0  0  0  0  0  0  0
   -6.5480   11.8020  -10.7080 C   0  0  0  0  0  0  0  0  0  0  0  0
   -7.6869   10.5726  -13.0325 C   0  0  0  0  0  0  0  0  0  0  0  0
   -6.9529   11.7665  -13.1047 C   0  0  0  0  0  0  0  0  0  0  0  0
   -7.8210   10.0086  -11.7556 C   0  0  0  0  0  0  0  0  0  0  0  0
   -7.2636   10.6177  -10.5919 C   0  0  0  0  0  0  0  0  0  0  0  0
   -7.6330    9.7421   -9.5104 C   0  0  3  0  0  0  0  0  0  0  0  0
   -8.3023    8.7332   -9.9897 N   0  0  0  0  0  0  0  0  0  0  0  0
   -8.4342    8.8678  -11.3051 N   0  0  0  0  0  0  0  0  0  0  0  0
   -7.3415    9.8758   -8.0215 C   0  0  0  0  0  0  0  0  0  0  0  0
   -4.1211   13.8754  -11.2000 S   0  0  0  0  0  0  0  0  0  0  0  0
   -2.9188   12.5402  -11.7675 C   0  0  0  0  0  0  0  0  0  0  0  0
   -5.6382   13.5428  -12.1051 N   0  0  0  0  0  0  0  0  0  0  0  0
   -5.9683   10.4827   -7.7344 C   0  0  0  0  0  0  0  0  0  0  0  0
   -4.8123    9.7690   -8.0490 C   0  0  0  0  0  0  0  0  0  0  0  0
   -3.5592   10.3237   -7.7969 C   0  0  0  0  0  0  0  0  0  0  0  0
   -3.4543   11.5962   -7.2288 C   0  0  0  0  0  0  0  0  0  0  0  0
   -4.6126   12.3085   -6.9084 C   0  0  0  0  0  0  0  0  0  0  0  0
   -5.8671   11.7538   -7.1613 C   0  0  0  0  0  0  0  0  0  0  0  0
   -2.1058   12.1871   -6.9644 C   0  0  0  0  0  0  0  0  0  0  0  0
   -1.7745   13.4406   -6.4637 C   0  0  0  0  0  0  0  0  0  0  0  0
   -0.4394   13.4976   -6.4041 N   0  0  3  0  0  0  0  0  0  0  0  0
    0.1691   12.4146   -6.8015 N   0  0  0  0  0  0  0  0  0  0  0  0
   -0.8034   11.5995   -7.1773 C   0  0  0  0  0  0  0  0  0  0  0  0
    0.3694   14.6144   -5.9538 C   0  0  0  0  0  0  0  0  0  0  0  0
   -3.6497   15.1720  -11.6865 O   0  0  0  0  0  0  0  0  0  0  0  0
   -4.3650   13.6745   -9.7698 O   0  0  0  0  0  0  0  0  0  0  0  0
   -6.1257   12.2782   -9.8355 H   0  0  0  0  0  0  0  0  0  0  0  0
   -8.1227   10.1152  -13.9085 H   0  0  0  0  0  0  0  0  0  0  0  0
   -6.8205   12.2414  -14.0656 H   0  0  0  0  0  0  0  0  0  0  0  0
   -8.5708   10.3015   -9.3774 H   0  0  0  0  0  0  0  0  0  0  0  0
   -8.0330    9.5733   -7.2490 H   0  0  0  0  0  0  0  0  0  0  0  0
   -1.9543   12.6728  -11.2554 H   0  0  0  0  0  0  0  0  0  0  0  0
   -3.3298   11.5493  -11.5240 H   0  0  0  0  0  0  0  0  0  0  0  0
   -2.7704   12.6186  -12.8546 H   0  0  0  0  0  0  0  0  0  0  0  0
   -5.3954   13.6013  -13.0734 H   0  0  0  0  0  0  0  0  0  0  0  0
   -4.8884    8.7854   -8.4885 H   0  0  0  0  0  0  0  0  0  0  0  0
   -2.6658    9.7683   -8.0414 H   0  0  0  0  0  0  0  0  0  0  0  0
   -4.5366   13.2900   -6.4643 H   0  0  0  0  0  0  0  0  0  0  0  0
   -6.7612   12.3068   -6.9141 H   0  0  0  0  0  0  0  0  0  0  0  0
   -2.1568   14.2271   -7.1311 H   0  0  0  0  0  0  0  0  0  0  0  0
   -2.2034   13.5716   -5.4593 H   0  0  0  0  0  0  0  0  0  0  0  0
   -0.6430   10.6154   -7.5924 H   0  0  0  0  0  0  0  0  0  0  0  0
    1.4345   14.3489   -6.0254 H   0  0  0  0  0  0  0  0  0  0  0  0
    0.1671   15.4918   -6.5857 H   0  0  0  0  0  0  0  0  0  0  0  0
    0.1198   14.8498   -4.9087 H   0  0  0  0  0  0  0  0  0  0  0  0
  1  2  2  0  0  0  0
  1  4  1  0  0  0  0
  1 13  1  0  0  0  0
  2  6  1  0  0  0  0
  3  4  2  0  0  0  0
  3  5  1  0  0  0  0
  5  6  2  0  0  0  0
  5  9  1  0  0  0  0
  6  7  1  0  0  0  0
  7  8  1  0  0  0  0
  7 10  1  0  0  0  0
  8  9  2  0  0  0  0
 10 14  2  0  0  0  0
 11 12  1  0  0  0  0
 11 13  1  0  0  0  0
 11 26  2  0  0  0  0
 11 27  2  0  0  0  0
 14 15  1  0  0  0  0
 14 19  1  0  0  0  0
 15 16  2  0  0  0  0
 16 17  1  0  0  0  0
 17 18  1  0  0  0  0
 17 20  2  0  0  0  0
 18 19  2  0  0  0  0
 20 21  1  0  0  0  0
 20 24  1  0  0  0  0
 21 22  1  0  0  0  0
 22 23  1  0  0  0  0
 22 25  1  0  0  0  0
 23 24  2  0  0  0  0
  2 28  1  0  0  0  0
  3 29  1  0  0  0  0
  4 30  1  0  0  0  0
  7 31  1  0  0  0  0
 10 32  1  0  0  0  0
 12 33  1  0  0  0  0
 12 34  1  0  0  0  0
 12 35  1  0  0  0  0
 13 36  1  0  0  0  0
 15 37  1  0  0  0  0
 16 38  1  0  0  0  0
 18 39  1  0  0  0  0
 19 40  1  0  0  0  0
 21 41  1  0  0  0  0
 21 42  1  0  0  0  0
 24 43  1  0  0  0  0
 25 44  1  0  0  0  0
 25 45  1  0  0  0  0
 25 46  1  0  0  0  0
M  END
> <Name>
25

> <IC50[uM]>
0.073

$$$$
25
  -OEChem-05192314333D
 Structure written by MMmdl.
 46 49  0     0  0  0  0  0  0999 V2000
   -6.3861   12.3623  -11.9697 C   0  0  0  0  0  0  0  0  0  0  0  0
   -6.5480   11.8020  -10.7080 C   0  0  0  0  0  0  0  0  0  0  0  0
   -7.6869   10.5726  -13.0325 C   0  0  0  0  0  0  0  0  0  0  0  0
   -6.9529   11.7665  -13.1047 C   0  0  0  0  0  0  0  0  0  0  0  0
   -7.8210   10.0086  -11.7556 C   0  0  0  0  0  0  0  0  0  0  0  0
   -7.2636   10.6177  -10.5919 C   0  0  0  0  0  0  0  0  0  0  0  0
   -7.6330    9.7421   -9.5104 C   0  0  0  0  0  0  0  0  0  0  0  0
   -8.3023    8.7332   -9.9897 N   0  0  0  0  0  0  0  0  0  0  0  0
   -8.4342    8.8678  -11.3051 N   0  0  0  0  0  0  0  0  0  0  0  0
   -7.3415    9.8758   -8.0215 C   0  0  0  0  0  0  0  0  0  0  0  0
   -4.1211   13.8754  -11.2000 S   0  0  0  0  0  0  0  0  0  0  0  0
   -2.9188   12.5402  -11.7675 C   0  0  0  0  0  0  0  0  0  0  0  0
   -5.6382   13.5428  -12.1051 N   0  0  0  0  0  0  0  0  0  0  0  0
   -5.9683   10.4827   -7.7344 C   0  0  0  0  0  0  0  0  0  0  0  0
   -4.8123    9.7690   -8.0490 C   0  0  0  0  0  0  0  0  0  0  0  0
   -3.5592   10.3237   -7.7969 C   0  0  0  0  0  0  0  0  0  0  0  0
   -3.4543   11.5962   -7.2288 C   0  0  0  0  0  0  0  0  0  0  0  0
   -4.6126   12.3085   -6.9084 C   0  0  0  0  0  0  0  0  0  0  0  0
   -5.8671   11.7538   -7.1613 C   0  0  0  0  0  0  0  0  0  0  0  0
   -2.1058   12.1871   -6.9644 C   0  0  0  0  0  0  0  0  0  0  0  0
   -1.7745   13.4406   -6.4637 C   0  0  0  0  0  0  0  0  0  0  0  0
   -0.4394   13.4976   -6.4041 N   0  0  0  0  0  0  0  0  0  0  0  0
    0.1691   12.4146   -6.8015 N   0  0  0  0  0  0  0  0  0  0  0  0
   -0.8034   11.5995   -7.1773 C   0  0  0  0  0  0  0  0  0  0  0  0
    0.3694   14.6144   -5.9538 C   0  0  0  0  0  0  0  0  0  0  0  0
   -3.6497   15.1720  -11.6865 O   0  0  0  0  0  0  0  0  0  0  0  0
   -4.3650   13.6745   -9.7698 O   0  0  0  0  0  0  0  0  0  0  0  0
   -6.1257   12.2782   -9.8355 H   0  0  0  0  0  0  0  0  0  0  0  0
   -8.6969   10.7748  -13.4186 H   0  0  0  0  0  0  0  0  0  0  0  0
   -7.1895    9.8325  -13.6766 H   0  0  0  0  0  0  0  0  0  0  0  0
   -7.6287   12.5169  -13.5407 H   0  0  0  0  0  0  0  0  0  0  0  0
   -6.1214   11.5746  -13.7988 H   0  0  0  0  0  0  0  0  0  0  0  0
   -8.1107   10.5196   -7.5701 H   0  0  0  0  0  0  0  0  0  0  0  0
   -7.3856    8.8762   -7.5645 H   0  0  0  0  0  0  0  0  0  0  0  0
   -1.9543   12.6728  -11.2554 H   0  0  0  0  0  0  0  0  0  0  0  0
   -3.3298   11.5493  -11.5240 H   0  0  0  0  0  0  0  0  0  0  0  0
   -2.7704   12.6186  -12.8546 H   0  0  0  0  0  0  0  0  0  0  0  0
   -4.8884    8.7854   -8.4885 H   0  0  0  0  0  0  0  0  0  0  0  0
   -2.6658    9.7683   -8.0414 H   0  0  0  0  0  0  0  0  0  0  0  0
   -4.5366   13.2900   -6.4643 H   0  0  0  0  0  0  0  0  0  0  0  0
   -6.7612   12.3068   -6.9141 H   0  0  0  0  0  0  0  0  0  0  0  0
   -2.4642   14.2207   -6.1771 H   0  0  0  0  0  0  0  0  0  0  0  0
   -0.6430   10.6154   -7.5924 H   0  0  0  0  0  0  0  0  0  0  0  0
    1.4345   14.3489   -6.0254 H   0  0  0  0  0  0  0  0  0  0  0  0
    0.1671   15.4918   -6.5857 H   0  0  0  0  0  0  0  0  0  0  0  0
    0.1198   14.8498   -4.9087 H   0  0  0  0  0  0  0  0  0  0  0  0
  1  2  1  0  0  0  0
  1  4  1  0  0  0  0
  1 13  2  3  0  0  0
  2  6  2  0  0  0  0
  3  4  1  0  0  0  0
  3  5  1  0  0  0  0
  5  6  1  0  0  0  0
  5  9  2  0  0  0  0
  6  7  1  0  0  0  0
  7  8  2  0  0  0  0
  7 10  1  0  0  0  0
  8  9  1  0  0  0  0
 10 14  1  0  0  0  0
 11 12  1  0  0  0  0
 11 13  1  0  0  0  0
 11 26  2  0  0  0  0
 11 27  2  0  0  0  0
 14 15  2  0  0  0  0
 14 19  1  0  0  0  0
 15 16  1  0  0  0  0
 16 17  2  0  0  0  0
 17 18  1  0  0  0  0
 17 20  1  0  0  0  0
 18 19  2  0  0  0  0
 20 21  2  0  0  0  0
 20 24  1  0  0  0  0
 21 22  1  0  0  0  0
 22 23  1  0  0  0  0
 22 25  1  0  0  0  0
 23 24  2  0  0  0  0
  2 28  1  0  0  0  0
  3 29  1  0  0  0  0
  3 30  1  0  0  0  0
  4 31  1  0  0  0  0
  4 32  1  0  0  0  0
 10 33  1  0  0  0  0
 10 34  1  0  0  0  0
 12 35  1  0  0  0  0
 12 36  1  0  0  0  0
 12 37  1  0  0  0  0
 15 38  1  0  0  0  0
 16 39  1  0  0  0  0
 18 40  1  0  0  0  0
 19 41  1  0  0  0  0
 21 42  1  0  0  0  0
 24 43  1  0  0  0  0
 25 44  1  0  0  0  0
 25 45  1  0  0  0  0
 25 46  1  0  0  0  0
M  END
> <Name>
25

> <IC50[uM]>
0.073

$$$$
25
  -OEChem-05192314333D
 Structure written by MMmdl.
 46 49  0     1  0  0  0  0  0999 V2000
   -6.3861   12.3623  -11.9697 C   0  0  0  0  0  0  0  0  0  0  0  0
   -6.5480   11.8020  -10.7080 C   0  0  0  0  0  0  0  0  0  0  0  0
   -7.6869   10.5726  -13.0325 C   0  0  0  0  0  0  0  0  0  0  0  0
   -6.9529   11.7665  -13.1047 C   0  0  0  0  0  0  0  0  0  0  0  0
   -7.8210   10.0086  -11.7556 C   0  0  0  0  0  0  0  0  0  0  0  0
   -7.2636   10.6177  -10.5919 C   0  0  3  0  0  0  0  0  0  0  0  0
   -7.6330    9.7421   -9.5104 C   0  0  0  0  0  0  0  0  0  0  0  0
   -8.3023    8.7332   -9.9897 N   0  0  0  0  0  0  0  0  0  0  0  0
   -8.4342    8.8678  -11.3051 N   0  0  0  0  0  0  0  0  0  0  0  0
   -7.3415    9.8758   -8.0215 C   0  0  0  0  0  0  0  0  0  0  0  0
   -4.1211   13.8754  -11.2000 S   0  0  0  0  0  0  0  0  0  0  0  0
   -2.9188   12.5402  -11.7675 C   0  0  0  0  0  0  0  0  0  0  0  0
   -5.6382   13.5428  -12.1051 N   0  0  0  0  0  0  0  0  0  0  0  0
   -5.9683   10.4827   -7.7344 C   0  0  0  0  0  0  0  0  0  0  0  0
   -4.8123    9.7690   -8.0490 C   0  0  0  0  0  0  0  0  0  0  0  0
   -3.5592   10.3237   -7.7969 C   0  0  0  0  0  0  0  0  0  0  0  0
   -3.4543   11.5962   -7.2288 C   0  0  0  0  0  0  0  0  0  0  0  0
   -4.6126   12.3085   -6.9084 C   0  0  0  0  0  0  0  0  0  0  0  0
   -5.8671   11.7538   -7.1613 C   0  0  0  0  0  0  0  0  0  0  0  0
   -2.1058   12.1871   -6.9644 C   0  0  0  0  0  0  0  0  0  0  0  0
   -1.7745   13.4406   -6.4637 C   0  0  0  0  0  0  0  0  0  0  0  0
   -0.4394   13.4976   -6.4041 N   0  0  0  0  0  0  0  0  0  0  0  0
    0.1691   12.4146   -6.8015 N   0  0  0  0  0  0  0  0  0  0  0  0
   -0.8034   11.5995   -7.1773 C   0  0  0  0  0  0  0  0  0  0  0  0
    0.3694   14.6144   -5.9538 C   0  0  0  0  0  0  0  0  0  0  0  0
   -3.6497   15.1720  -11.6865 O   0  0  0  0  0  0  0  0  0  0  0  0
   -4.3650   13.6745   -9.7698 O   0  0  0  0  0  0  0  0  0  0  0  0
   -5.5417   11.6132  -10.3059 H   0  0  0  0  0  0  0  0  0  0  0  0
   -7.0576   12.5509  -10.0840 H   0  0  0  0  0  0  0  0  0  0  0  0
   -8.1227   10.1152  -13.9085 H   0  0  0  0  0  0  0  0  0  0  0  0
   -6.8205   12.2414  -14.0656 H   0  0  0  0  0  0  0  0  0  0  0  0
   -8.1911   11.1909  -10.4462 H   0  0  0  0  0  0  0  0  0  0  0  0
   -8.1107   10.5196   -7.5701 H   0  0  0  0  0  0  0  0  0  0  0  0
   -7.3856    8.8762   -7.5645 H   0  0  0  0  0  0  0  0  0  0  0  0
   -1.9543   12.6728  -11.2554 H   0  0  0  0  0  0  0  0  0  0  0  0
   -3.3298   11.5493  -11.5240 H   0  0  0  0  0  0  0  0  0  0  0  0
   -2.7704   12.6186  -12.8546 H   0  0  0  0  0  0  0  0  0  0  0  0
   -4.8884    8.7854   -8.4885 H   0  0  0  0  0  0  0  0  0  0  0  0
   -2.6658    9.7683   -8.0414 H   0  0  0  0  0  0  0  0  0  0  0  0
   -4.5366   13.2900   -6.4643 H   0  0  0  0  0  0  0  0  0  0  0  0
   -6.7612   12.3068   -6.9141 H   0  0  0  0  0  0  0  0  0  0  0  0
   -2.4642   14.2207   -6.1771 H   0  0  0  0  0  0  0  0  0  0  0  0
   -0.6430   10.6154   -7.5924 H   0  0  0  0  0  0  0  0  0  0  0  0
    1.4345   14.3489   -6.0254 H   0  0  0  0  0  0  0  0  0  0  0  0
    0.1671   15.4918   -6.5857 H   0  0  0  0  0  0  0  0  0  0  0  0
    0.1198   14.8498   -4.9087 H   0  0  0  0  0  0  0  0  0  0  0  0
  1  2  1  0  0  0  0
  1  4  1  0  0  0  0
  1 13  2  3  0  0  0
  2  6  1  0  0  0  0
  3  4  2  0  0  0  0
  3  5  1  0  0  0  0
  5  6  1  0  0  0  0
  5  9  2  0  0  0  0
  6  7  1  0  0  0  0
  7  8  2  0  0  0  0
  7 10  1  0  0  0  0
  8  9  1  0  0  0  0
 10 14  1  0  0  0  0
 11 12  1  0  0  0  0
 11 13  1  0  0  0  0
 11 26  2  0  0  0  0
 11 27  2  0  0  0  0
 14 15  2  0  0  0  0
 14 19  1  0  0  0  0
 15 16  1  0  0  0  0
 16 17  2  0  0  0  0
 17 18  1  0  0  0  0
 17 20  1  0  0  0  0
 18 19  2  0  0  0  0
 20 21  2  0  0  0  0
 20 24  1  0  0  0  0
 21 22  1  0  0  0  0
 22 23  1  0  0  0  0
 22 25  1  0  0  0  0
 23 24  2  0  0  0  0
  2 28  1  0  0  0  0
  2 29  1  0  0  0  0
  3 30  1  0  0  0  0
  4 31  1  0  0  0  0
  6 32  1  0  0  0  0
 10 33  1  0  0  0  0
 10 34  1  0  0  0  0
 12 35  1  0  0  0  0
 12 36  1  0  0  0  0
 12 37  1  0  0  0  0
 15 38  1  0  0  0  0
 16 39  1  0  0  0  0
 18 40  1  0  0  0  0
 19 41  1  0  0  0  0
 21 42  1  0  0  0  0
 24 43  1  0  0  0  0
 25 44  1  0  0  0  0
 25 45  1  0  0  0  0
 25 46  1  0  0  0  0
M  END
> <Name>
25

> <IC50[uM]>
0.073

$$$$
25
  -OEChem-05192314333D
 Structure written by MMmdl.
 46 49  0     1  0  0  0  0  0999 V2000
   -6.3861   12.3623  -11.9697 C   0  0  0  0  0  0  0  0  0  0  0  0
   -6.5480   11.8020  -10.7080 C   0  0  0  0  0  0  0  0  0  0  0  0
   -7.6869   10.5726  -13.0325 C   0  0  0  0  0  0  0  0  0  0  0  0
   -6.9529   11.7665  -13.1047 C   0  0  0  0  0  0  0  0  0  0  0  0
   -7.8210   10.0086  -11.7556 C   0  0  3  0  0  0  0  0  0  0  0  0
   -7.2636   10.6177  -10.5919 C   0  0  0  0  0  0  0  0  0  0  0  0
   -7.6330    9.7421   -9.5104 C   0  0  0  0  0  0  0  0  0  0  0  0
   -8.3023    8.7332   -9.9897 N   0  0  0  0  0  0  0  0  0  0  0  0
   -8.4342    8.8678  -11.3051 N   0  0  0  0  0  0  0  0  0  0  0  0
   -7.3415    9.8758   -8.0215 C   0  0  0  0  0  0  0  0  0  0  0  0
   -4.1211   13.8754  -11.2000 S   0  0  0  0  0  0  0  0  0  0  0  0
   -2.9188   12.5402  -11.7675 C   0  0  0  0  0  0  0  0  0  0  0  0
   -5.6382   13.5428  -12.1051 N   0  0  0  0  0  0  0  0  0  0  0  0
   -5.9683   10.4827   -7.7344 C   0  0  0  0  0  0  0  0  0  0  0  0
   -4.8123    9.7690   -8.0490 C   0  0  0  0  0  0  0  0  0  0  0  0
   -3.5592   10.3237   -7.7969 C   0  0  0  0  0  0  0  0  0  0  0  0
   -3.4543   11.5962   -7.2288 C   0  0  0  0  0  0  0  0  0  0  0  0
   -4.6126   12.3085   -6.9084 C   0  0  0  0  0  0  0  0  0  0  0  0
   -5.8671   11.7538   -7.1613 C   0  0  0  0  0  0  0  0  0  0  0  0
   -2.1058   12.1871   -6.9644 C   0  0  0  0  0  0  0  0  0  0  0  0
   -1.7745   13.4406   -6.4637 C   0  0  0  0  0  0  0  0  0  0  0  0
   -0.4394   13.4976   -6.4041 N   0  0  0  0  0  0  0  0  0  0  0  0
    0.1691   12.4146   -6.8015 N   0  0  0  0  0  0  0  0  0  0  0  0
   -0.8034   11.5995   -7.1773 C   0  0  0  0  0  0  0  0  0  0  0  0
    0.3694   14.6144   -5.9538 C   0  0  0  0  0  0  0  0  0  0  0  0
   -3.6497   15.1720  -11.6865 O   0  0  0  0  0  0  0  0  0  0  0  0
   -4.3650   13.6745   -9.7698 O   0  0  0  0  0  0  0  0  0  0  0  0
   -6.1257   12.2782   -9.8355 H   0  0  0  0  0  0  0  0  0  0  0  0
   -8.6969   10.7748  -13.4186 H   0  0  0  0  0  0  0  0  0  0  0  0
   -7.1895    9.8325  -13.6766 H   0  0  0  0  0  0  0  0  0  0  0  0
   -7.6287   12.5169  -13.5407 H   0  0  0  0  0  0  0  0  0  0  0  0
   -6.1214   11.5746  -13.7988 H   0  0  0  0  0  0  0  0  0  0  0  0
   -8.7541   10.5711  -11.6042 H   0  0  0  0  0  0  0  0  0  0  0  0
   -8.0330    9.5733   -7.2490 H   0  0  0  0  0  0  0  0  0  0  0  0
   -1.9543   12.6728  -11.2554 H   0  0  0  0  0  0  0  0  0  0  0  0
   -3.3298   11.5493  -11.5240 H   0  0  0  0  0  0  0  0  0  0  0  0
   -2.7704   12.6186  -12.8546 H   0  0  0  0  0  0  0  0  0  0  0  0
   -4.8884    8.7854   -8.4885 H   0  0  0  0  0  0  0  0  0  0  0  0
   -2.6658    9.7683   -8.0414 H   0  0  0  0  0  0  0  0  0  0  0  0
   -4.5366   13.2900   -6.4643 H   0  0  0  0  0  0  0  0  0  0  0  0
   -6.7612   12.3068   -6.9141 H   0  0  0  0  0  0  0  0  0  0  0  0
   -2.4642   14.2207   -6.1771 H   0  0  0  0  0  0  0  0  0  0  0  0
   -0.6430   10.6154   -7.5924 H   0  0  0  0  0  0  0  0  0  0  0  0
    1.4345   14.3489   -6.0254 H   0  0  0  0  0  0  0  0  0  0  0  0
    0.1671   15.4918   -6.5857 H   0  0  0  0  0  0  0  0  0  0  0  0
    0.1198   14.8498   -4.9087 H   0  0  0  0  0  0  0  0  0  0  0  0
  1  2  1  0  0  0  0
  1  4  1  0  0  0  0
  1 13  2  3  0  0  0
  2  6  2  0  0  0  0
  3  4  1  0  0  0  0
  3  5  1  0  0  0  0
  5  6  1  0  0  0  0
  5  9  1  0  0  0  0
  6  7  1  0  0  0  0
  7  8  1  0  0  0  0
  7 10  2  3  0  0  0
  8  9  2  0  0  0  0
 10 14  1  0  0  0  0
 11 12  1  0  0  0  0
 11 13  1  0  0  0  0
 11 26  2  0  0  0  0
 11 27  2  0  0  0  0
 14 15  2  0  0  0  0
 14 19  1  0  0  0  0
 15 16  1  0  0  0  0
 16 17  2  0  0  0  0
 17 18  1  0  0  0  0
 17 20  1  0  0  0  0
 18 19  2  0  0  0  0
 20 21  2  0  0  0  0
 20 24  1  0  0  0  0
 21 22  1  0  0  0  0
 22 23  1  0  0  0  0
 22 25  1  0  0  0  0
 23 24  2  0  0  0  0
  2 28  1  0  0  0  0
  3 29  1  0  0  0  0
  3 30  1  0  0  0  0
  4 31  1  0  0  0  0
  4 32  1  0  0  0  0
  5 33  1  0  0  0  0
 10 34  1  0  0  0  0
 12 35  1  0  0  0  0
 12 36  1  0  0  0  0
 12 37  1  0  0  0  0
 15 38  1  0  0  0  0
 16 39  1  0  0  0  0
 18 40  1  0  0  0  0
 19 41  1  0  0  0  0
 21 42  1  0  0  0  0
 24 43  1  0  0  0  0
 25 44  1  0  0  0  0
 25 45  1  0  0  0  0
 25 46  1  0  0  0  0
M  END
> <Name>
25

> <IC50[uM]>
0.073

$$$$
25
  -OEChem-05192314333D
 Structure written by MMmdl.
 46 49  0     1  0  0  0  0  0999 V2000
   -6.3861   12.3623  -11.9697 C   0  0  0  0  0  0  0  0  0  0  0  0
   -6.5480   11.8020  -10.7080 C   0  0  0  0  0  0  0  0  0  0  0  0
   -7.6869   10.5726  -13.0325 C   0  0  0  0  0  0  0  0  0  0  0  0
   -6.9529   11.7665  -13.1047 C   0  0  0  0  0  0  0  0  0  0  0  0
   -7.8210   10.0086  -11.7556 C   0  0  3  0  0  0  0  0  0  0  0  0
   -7.2636   10.6177  -10.5919 C   0  0  3  0  0  0  0  0  0  0  0  0
   -7.6330    9.7421   -9.5104 C   0  0  0  0  0  0  0  0  0  0  0  0
   -8.3023    8.7332   -9.9897 N   0  0  0  0  0  0  0  0  0  0  0  0
   -8.4342    8.8678  -11.3051 N   0  0  0  0  0  0  0  0  0  0  0  0
   -7.3415    9.8758   -8.0215 C   0  0  0  0  0  0  0  0  0  0  0  0
   -4.1211   13.8754  -11.2000 S   0  0  0  0  0  0  0  0  0  0  0  0
   -2.9188   12.5402  -11.7675 C   0  0  0  0  0  0  0  0  0  0  0  0
   -5.6382   13.5428  -12.1051 N   0  0  0  0  0  0  0  0  0  0  0  0
   -5.9683   10.4827   -7.7344 C   0  0  0  0  0  0  0  0  0  0  0  0
   -4.8123    9.7690   -8.0490 C   0  0  0  0  0  0  0  0  0  0  0  0
   -3.5592   10.3237   -7.7969 C   0  0  0  0  0  0  0  0  0  0  0  0
   -3.4543   11.5962   -7.2288 C   0  0  0  0  0  0  0  0  0  0  0  0
   -4.6126   12.3085   -6.9084 C   0  0  0  0  0  0  0  0  0  0  0  0
   -5.8671   11.7538   -7.1613 C   0  0  0  0  0  0  0  0  0  0  0  0
   -2.1058   12.1871   -6.9644 C   0  0  0  0  0  0  0  0  0  0  0  0
   -1.7745   13.4406   -6.4637 C   0  0  0  0  0  0  0  0  0  0  0  0
   -0.4394   13.4976   -6.4041 N   0  0  0  0  0  0  0  0  0  0  0  0
    0.1691   12.4146   -6.8015 N   0  0  0  0  0  0  0  0  0  0  0  0
   -0.8034   11.5995   -7.1773 C   0  0  0  0  0  0  0  0  0  0  0  0
    0.3694   14.6144   -5.9538 C   0  0  0  0  0  0  0  0  0  0  0  0
   -3.6497   15.1720  -11.6865 O   0  0  0  0  0  0  0  0  0  0  0  0
   -4.3650   13.6745   -9.7698 O   0  0  0  0  0  0  0  0  0  0  0  0
   -5.5417   11.6132  -10.3059 H   0  0  0  0  0  0  0  0  0  0  0  0
   -7.0576   12.5509  -10.0840 H   0  0  0  0  0  0  0  0  0  0  0  0
   -8.1227   10.1152  -13.9085 H   0  0  0  0  0  0  0  0  0  0  0  0
   -6.8205   12.2414  -14.0656 H   0  0  0  0  0  0  0  0  0  0  0  0
   -8.7541   10.5711  -11.6042 H   0  0  0  0  0  0  0  0  0  0  0  0
   -8.1911   11.1909  -10.4462 H   0  0  0  0  0  0  0  0  0  0  0  0
   -8.0330    9.5733   -7.2490 H   0  0  0  0  0  0  0  0  0  0  0  0
   -1.9543   12.6728  -11.2554 H   0  0  0  0  0  0  0  0  0  0  0  0
   -3.3298   11.5493  -11.5240 H   0  0  0  0  0  0  0  0  0  0  0  0
   -2.7704   12.6186  -12.8546 H   0  0  0  0  0  0  0  0  0  0  0  0
   -4.8884    8.7854   -8.4885 H   0  0  0  0  0  0  0  0  0  0  0  0
   -2.6658    9.7683   -8.0414 H   0  0  0  0  0  0  0  0  0  0  0  0
   -4.5366   13.2900   -6.4643 H   0  0  0  0  0  0  0  0  0  0  0  0
   -6.7612   12.3068   -6.9141 H   0  0  0  0  0  0  0  0  0  0  0  0
   -2.4642   14.2207   -6.1771 H   0  0  0  0  0  0  0  0  0  0  0  0
   -0.6430   10.6154   -7.5924 H   0  0  0  0  0  0  0  0  0  0  0  0
    1.4345   14.3489   -6.0254 H   0  0  0  0  0  0  0  0  0  0  0  0
    0.1671   15.4918   -6.5857 H   0  0  0  0  0  0  0  0  0  0  0  0
    0.1198   14.8498   -4.9087 H   0  0  0  0  0  0  0  0  0  0  0  0
  1  2  1  0  0  0  0
  1  4  1  0  0  0  0
  1 13  2  3  0  0  0
  2  6  1  0  0  0  0
  3  4  2  0  0  0  0
  3  5  1  0  0  0  0
  5  6  1  0  0  0  0
  5  9  1  0  0  0  0
  6  7  1  0  0  0  0
  7  8  1  0  0  0  0
  7 10  2  3  0  0  0
  8  9  2  0  0  0  0
 10 14  1  0  0  0  0
 11 12  1  0  0  0  0
 11 13  1  0  0  0  0
 11 26  2  0  0  0  0
 11 27  2  0  0  0  0
 14 15  2  0  0  0  0
 14 19  1  0  0  0  0
 15 16  1  0  0  0  0
 16 17  2  0  0  0  0
 17 18  1  0  0  0  0
 17 20  1  0  0  0  0
 18 19  2  0  0  0  0
 20 21  2  0  0  0  0
 20 24  1  0  0  0  0
 21 22  1  0  0  0  0
 22 23  1  0  0  0  0
 22 25  1  0  0  0  0
 23 24  2  0  0  0  0
  2 28  1  0  0  0  0
  2 29  1  0  0  0  0
  3 30  1  0  0  0  0
  4 31  1  0  0  0  0
  5 32  1  0  0  0  0
  6 33  1  0  0  0  0
 10 34  1  0  0  0  0
 12 35  1  0  0  0  0
 12 36  1  0  0  0  0
 12 37  1  0  0  0  0
 15 38  1  0  0  0  0
 16 39  1  0  0  0  0
 18 40  1  0  0  0  0
 19 41  1  0  0  0  0
 21 42  1  0  0  0  0
 24 43  1  0  0  0  0
 25 44  1  0  0  0  0
 25 45  1  0  0  0  0
 25 46  1  0  0  0  0
M  END
> <Name>
25

> <IC50[uM]>
0.073

$$$$
25
  -OEChem-05192314333D
 Structure written by MMmdl.
 46 49  0     1  0  0  0  0  0999 V2000
   -6.3861   12.3623  -11.9697 C   0  0  0  0  0  0  0  0  0  0  0  0
   -6.5480   11.8020  -10.7080 C   0  0  0  0  0  0  0  0  0  0  0  0
   -7.6869   10.5726  -13.0325 C   0  0  0  0  0  0  0  0  0  0  0  0
   -6.9529   11.7665  -13.1047 C   0  0  0  0  0  0  0  0  0  0  0  0
   -7.8210   10.0086  -11.7556 C   0  0  0  0  0  0  0  0  0  0  0  0
   -7.2636   10.6177  -10.5919 C   0  0  3  0  0  0  0  0  0  0  0  0
   -7.6330    9.7421   -9.5104 C   0  0  0  0  0  0  0  0  0  0  0  0
   -8.3023    8.7332   -9.9897 N   0  0  0  0  0  0  0  0  0  0  0  0
   -8.4342    8.8678  -11.3051 N   0  0  0  0  0  0  0  0  0  0  0  0
   -7.3415    9.8758   -8.0215 C   0  0  0  0  0  0  0  0  0  0  0  0
   -4.1211   13.8754  -11.2000 S   0  0  0  0  0  0  0  0  0  0  0  0
   -2.9188   12.5402  -11.7675 C   0  0  0  0  0  0  0  0  0  0  0  0
   -5.6382   13.5428  -12.1051 N   0  0  0  0  0  0  0  0  0  0  0  0
   -5.9683   10.4827   -7.7344 C   0  0  0  0  0  0  0  0  0  0  0  0
   -4.8123    9.7690   -8.0490 C   0  0  0  0  0  0  0  0  0  0  0  0
   -3.5592   10.3237   -7.7969 C   0  0  0  0  0  0  0  0  0  0  0  0
   -3.4543   11.5962   -7.2288 C   0  0  0  0  0  0  0  0  0  0  0  0
   -4.6126   12.3085   -6.9084 C   0  0  0  0  0  0  0  0  0  0  0  0
   -5.8671   11.7538   -7.1613 C   0  0  0  0  0  0  0  0  0  0  0  0
   -2.1058   12.1871   -6.9644 C   0  0  0  0  0  0  0  0  0  0  0  0
   -1.7745   13.4406   -6.4637 C   0  0  0  0  0  0  0  0  0  0  0  0
   -0.4394   13.4976   -6.4041 N   0  0  0  0  0  0  0  0  0  0  0  0
    0.1691   12.4146   -6.8015 N   0  0  0  0  0  0  0  0  0  0  0  0
   -0.8034   11.5995   -7.1773 C   0  0  0  0  0  0  0  0  0  0  0  0
    0.3694   14.6144   -5.9538 C   0  0  0  0  0  0  0  0  0  0  0  0
   -3.6497   15.1720  -11.6865 O   0  0  0  0  0  0  0  0  0  0  0  0
   -4.3650   13.6745   -9.7698 O   0  0  0  0  0  0  0  0  0  0  0  0
   -5.5417   11.6132  -10.3059 H   0  0  0  0  0  0  0  0  0  0  0  0
   -7.0576   12.5509  -10.0840 H   0  0  0  0  0  0  0  0  0  0  0  0
   -8.1227   10.1152  -13.9085 H   0  0  0  0  0  0  0  0  0  0  0  0
   -7.6287   12.5169  -13.5407 H   0  0  0  0  0  0  0  0  0  0  0  0
   -6.1214   11.5746  -13.7988 H   0  0  0  0  0  0  0  0  0  0  0  0
   -8.1911   11.1909  -10.4462 H   0  0  0  0  0  0  0  0  0  0  0  0
   -8.0330    9.5733   -7.2490 H   0  0  0  0  0  0  0  0  0  0  0  0
   -1.9543   12.6728  -11.2554 H   0  0  0  0  0  0  0  0  0  0  0  0
   -3.3298   11.5493  -11.5240 H   0  0  0  0  0  0  0  0  0  0  0  0
   -2.7704   12.6186  -12.8546 H   0  0  0  0  0  0  0  0  0  0  0  0
   -4.8884    8.7854   -8.4885 H   0  0  0  0  0  0  0  0  0  0  0  0
   -2.6658    9.7683   -8.0414 H   0  0  0  0  0  0  0  0  0  0  0  0
   -4.5366   13.2900   -6.4643 H   0  0  0  0  0  0  0  0  0  0  0  0
   -6.7612   12.3068   -6.9141 H   0  0  0  0  0  0  0  0  0  0  0  0
   -2.4642   14.2207   -6.1771 H   0  0  0  0  0  0  0  0  0  0  0  0
   -0.6430   10.6154   -7.5924 H   0  0  0  0  0  0  0  0  0  0  0  0
    1.4345   14.3489   -6.0254 H   0  0  0  0  0  0  0  0  0  0  0  0
    0.1671   15.4918   -6.5857 H   0  0  0  0  0  0  0  0  0  0  0  0
    0.1198   14.8498   -4.9087 H   0  0  0  0  0  0  0  0  0  0  0  0
  1  2  1  0  0  0  0
  1  4  1  0  0  0  0
  1 13  2  3  0  0  0
  2  6  1  0  0  0  0
  3  4  1  0  0  0  0
  3  5  2  0  0  0  0
  5  6  1  0  0  0  0
  5  9  1  0  0  0  0
  6  7  1  0  0  0  0
  7  8  1  0  0  0  0
  7 10  2  3  0  0  0
  8  9  2  0  0  0  0
 10 14  1  0  0  0  0
 11 12  1  0  0  0  0
 11 13  1  0  0  0  0
 11 26  2  0  0  0  0
 11 27  2  0  0  0  0
 14 15  2  0  0  0  0
 14 19  1  0  0  0  0
 15 16  1  0  0  0  0
 16 17  2  0  0  0  0
 17 18  1  0  0  0  0
 17 20  1  0  0  0  0
 18 19  2  0  0  0  0
 20 21  2  0  0  0  0
 20 24  1  0  0  0  0
 21 22  1  0  0  0  0
 22 23  1  0  0  0  0
 22 25  1  0  0  0  0
 23 24  2  0  0  0  0
  2 28  1  0  0  0  0
  2 29  1  0  0  0  0
  3 30  1  0  0  0  0
  4 31  1  0  0  0  0
  4 32  1  0  0  0  0
  6 33  1  0  0  0  0
 10 34  1  0  0  0  0
 12 35  1  0  0  0  0
 12 36  1  0  0  0  0
 12 37  1  0  0  0  0
 15 38  1  0  0  0  0
 16 39  1  0  0  0  0
 18 40  1  0  0  0  0
 19 41  1  0  0  0  0
 21 42  1  0  0  0  0
 24 43  1  0  0  0  0
 25 44  1  0  0  0  0
 25 45  1  0  0  0  0
 25 46  1  0  0  0  0
M  END
> <Name>
25

> <IC50[uM]>
0.073

$$$$
25
  -OEChem-05192314333D
 Structure written by MMmdl.
 46 49  0     0  0  0  0  0  0999 V2000
   -6.3861   12.3623  -11.9697 C   0  0  0  0  0  0  0  0  0  0  0  0
   -6.5480   11.8020  -10.7080 C   0  0  0  0  0  0  0  0  0  0  0  0
   -7.6869   10.5726  -13.0325 C   0  0  0  0  0  0  0  0  0  0  0  0
   -6.9529   11.7665  -13.1047 C   0  0  0  0  0  0  0  0  0  0  0  0
   -7.8210   10.0086  -11.7556 C   0  0  0  0  0  0  0  0  0  0  0  0
   -7.2636   10.6177  -10.5919 C   0  0  0  0  0  0  0  0  0  0  0  0
   -7.6330    9.7421   -9.5104 C   0  0  0  0  0  0  0  0  0  0  0  0
   -8.3023    8.7332   -9.9897 N   0  0  0  0  0  0  0  0  0  0  0  0
   -8.4342    8.8678  -11.3051 N   0  0  0  0  0  0  0  0  0  0  0  0
   -7.3415    9.8758   -8.0215 C   0  0  0  0  0  0  0  0  0  0  0  0
   -4.1211   13.8754  -11.2000 S   0  0  0  0  0  0  0  0  0  0  0  0
   -2.9188   12.5402  -11.7675 C   0  0  0  0  0  0  0  0  0  0  0  0
   -5.6382   13.5428  -12.1051 N   0  0  0  0  0  0  0  0  0  0  0  0
   -5.9683   10.4827   -7.7344 C   0  0  0  0  0  0  0  0  0  0  0  0
   -4.8123    9.7690   -8.0490 C   0  0  0  0  0  0  0  0  0  0  0  0
   -3.5592   10.3237   -7.7969 C   0  0  0  0  0  0  0  0  0  0  0  0
   -3.4543   11.5962   -7.2288 C   0  0  0  0  0  0  0  0  0  0  0  0
   -4.6126   12.3085   -6.9084 C   0  0  0  0  0  0  0  0  0  0  0  0
   -5.8671   11.7538   -7.1613 C   0  0  0  0  0  0  0  0  0  0  0  0
   -2.1058   12.1871   -6.9644 C   0  0  0  0  0  0  0  0  0  0  0  0
   -1.7745   13.4406   -6.4637 C   0  0  0  0  0  0  0  0  0  0  0  0
   -0.4394   13.4976   -6.4041 N   0  0  0  0  0  0  0  0  0  0  0  0
    0.1691   12.4146   -6.8015 N   0  0  0  0  0  0  0  0  0  0  0  0
   -0.8034   11.5995   -7.1773 C   0  0  0  0  0  0  0  0  0  0  0  0
    0.3694   14.6144   -5.9538 C   0  0  0  0  0  0  0  0  0  0  0  0
   -3.6497   15.1720  -11.6865 O   0  0  0  0  0  0  0  0  0  0  0  0
   -4.3650   13.6745   -9.7698 O   0  0  0  0  0  0  0  0  0  0  0  0
   -5.5417   11.6132  -10.3059 H   0  0  0  0  0  0  0  0  0  0  0  0
   -7.0576   12.5509  -10.0840 H   0  0  0  0  0  0  0  0  0  0  0  0
   -8.6969   10.7748  -13.4186 H   0  0  0  0  0  0  0  0  0  0  0  0
   -7.1895    9.8325  -13.6766 H   0  0  0  0  0  0  0  0  0  0  0  0
   -7.6287   12.5169  -13.5407 H   0  0  0  0  0  0  0  0  0  0  0  0
   -6.1214   11.5746  -13.7988 H   0  0  0  0  0  0  0  0  0  0  0  0
   -8.0330    9.5733   -7.2490 H   0  0  0  0  0  0  0  0  0  0  0  0
   -1.9543   12.6728  -11.2554 H   0  0  0  0  0  0  0  0  0  0  0  0
   -3.3298   11.5493  -11.5240 H   0  0  0  0  0  0  0  0  0  0  0  0
   -2.7704   12.6186  -12.8546 H   0  0  0  0  0  0  0  0  0  0  0  0
   -4.8884    8.7854   -8.4885 H   0  0  0  0  0  0  0  0  0  0  0  0
   -2.6658    9.7683   -8.0414 H   0  0  0  0  0  0  0  0  0  0  0  0
   -4.5366   13.2900   -6.4643 H   0  0  0  0  0  0  0  0  0  0  0  0
   -6.7612   12.3068   -6.9141 H   0  0  0  0  0  0  0  0  0  0  0  0
   -2.4642   14.2207   -6.1771 H   0  0  0  0  0  0  0  0  0  0  0  0
   -0.6430   10.6154   -7.5924 H   0  0  0  0  0  0  0  0  0  0  0  0
    1.4345   14.3489   -6.0254 H   0  0  0  0  0  0  0  0  0  0  0  0
    0.1671   15.4918   -6.5857 H   0  0  0  0  0  0  0  0  0  0  0  0
    0.1198   14.8498   -4.9087 H   0  0  0  0  0  0  0  0  0  0  0  0
  1  2  1  0  0  0  0
  1  4  1  0  0  0  0
  1 13  2  3  0  0  0
  2  6  1  0  0  0  0
  3  4  1  0  0  0  0
  3  5  1  0  0  0  0
  5  6  2  0  0  0  0
  5  9  1  0  0  0  0
  6  7  1  0  0  0  0
  7  8  1  0  0  0  0
  7 10  2  3  0  0  0
  8  9  2  0  0  0  0
 10 14  1  0  0  0  0
 11 12  1  0  0  0  0
 11 13  1  0  0  0  0
 11 26  2  0  0  0  0
 11 27  2  0  0  0  0
 14 15  2  0  0  0  0
 14 19  1  0  0  0  0
 15 16  1  0  0  0  0
 16 17  2  0  0  0  0
 17 18  1  0  0  0  0
 17 20  1  0  0  0  0
 18 19  2  0  0  0  0
 20 21  2  0  0  0  0
 20 24  1  0  0  0  0
 21 22  1  0  0  0  0
 22 23  1  0  0  0  0
 22 25  1  0  0  0  0
 23 24  2  0  0  0  0
  2 28  1  0  0  0  0
  2 29  1  0  0  0  0
  3 30  1  0  0  0  0
  3 31  1  0  0  0  0
  4 32  1  0  0  0  0
  4 33  1  0  0  0  0
 10 34  1  0  0  0  0
 12 35  1  0  0  0  0
 12 36  1  0  0  0  0
 12 37  1  0  0  0  0
 15 38  1  0  0  0  0
 16 39  1  0  0  0  0
 18 40  1  0  0  0  0
 19 41  1  0  0  0  0
 21 42  1  0  0  0  0
 24 43  1  0  0  0  0
 25 44  1  0  0  0  0
 25 45  1  0  0  0  0
 25 46  1  0  0  0  0
M  END
> <Name>
25

> <IC50[uM]>
0.073

$$$$
25
  -OEChem-05192314333D
 Structure written by MMmdl.
 46 49  0     1  0  0  0  0  0999 V2000
   -6.3861   12.3623  -11.9697 C   0  0  0  0  0  0  0  0  0  0  0  0
   -6.5480   11.8020  -10.7080 C   0  0  0  0  0  0  0  0  0  0  0  0
   -7.6869   10.5726  -13.0325 C   0  0  0  0  0  0  0  0  0  0  0  0
   -6.9529   11.7665  -13.1047 C   0  0  0  0  0  0  0  0  0  0  0  0
   -7.8210   10.0086  -11.7556 C   0  0  3  0  0  0  0  0  0  0  0  0
   -7.2636   10.6177  -10.5919 C   0  0  0  0  0  0  0  0  0  0  0  0
   -7.6330    9.7421   -9.5104 C   0  0  3  0  0  0  0  0  0  0  0  0
   -8.3023    8.7332   -9.9897 N   0  0  0  0  0  0  0  0  0  0  0  0
   -8.4342    8.8678  -11.3051 N   0  0  0  0  0  0  0  0  0  0  0  0
   -7.3415    9.8758   -8.0215 C   0  0  0  0  0  0  0  0  0  0  0  0
   -4.1211   13.8754  -11.2000 S   0  0  0  0  0  0  0  0  0  0  0  0
   -2.9188   12.5402  -11.7675 C   0  0  0  0  0  0  0  0  0  0  0  0
   -5.6382   13.5428  -12.1051 N   0  0  0  0  0  0  0  0  0  0  0  0
   -5.9683   10.4827   -7.7344 C   0  0  0  0  0  0  0  0  0  0  0  0
   -4.8123    9.7690   -8.0490 C   0  0  0  0  0  0  0  0  0  0  0  0
   -3.5592   10.3237   -7.7969 C   0  0  0  0  0  0  0  0  0  0  0  0
   -3.4543   11.5962   -7.2288 C   0  0  0  0  0  0  0  0  0  0  0  0
   -4.6126   12.3085   -6.9084 C   0  0  0  0  0  0  0  0  0  0  0  0
   -5.8671   11.7538   -7.1613 C   0  0  0  0  0  0  0  0  0  0  0  0
   -2.1058   12.1871   -6.9644 C   0  0  0  0  0  0  0  0  0  0  0  0
   -1.7745   13.4406   -6.4637 C   0  0  0  0  0  0  0  0  0  0  0  0
   -0.4394   13.4976   -6.4041 N   0  0  0  0  0  0  0  0  0  0  0  0
    0.1691   12.4146   -6.8015 N   0  0  0  0  0  0  0  0  0  0  0  0
   -0.8034   11.5995   -7.1773 C   0  0  0  0  0  0  0  0  0  0  0  0
    0.3694   14.6144   -5.9538 C   0  0  0  0  0  0  0  0  0  0  0  0
   -3.6497   15.1720  -11.6865 O   0  0  0  0  0  0  0  0  0  0  0  0
   -4.3650   13.6745   -9.7698 O   0  0  0  0  0  0  0  0  0  0  0  0
   -6.1257   12.2782   -9.8355 H   0  0  0  0  0  0  0  0  0  0  0  0
   -8.1227   10.1152  -13.9085 H   0  0  0  0  0  0  0  0  0  0  0  0
   -6.8205   12.2414  -14.0656 H   0  0  0  0  0  0  0  0  0  0  0  0
   -8.7541   10.5711  -11.6042 H   0  0  0  0  0  0  0  0  0  0  0  0
   -8.5708   10.3015   -9.3774 H   0  0  0  0  0  0  0  0  0  0  0  0
   -8.1107   10.5196   -7.5701 H   0  0  0  0  0  0  0  0  0  0  0  0
   -7.3856    8.8762   -7.5645 H   0  0  0  0  0  0  0  0  0  0  0  0
   -1.9543   12.6728  -11.2554 H   0  0  0  0  0  0  0  0  0  0  0  0
   -3.3298   11.5493  -11.5240 H   0  0  0  0  0  0  0  0  0  0  0  0
   -2.7704   12.6186  -12.8546 H   0  0  0  0  0  0  0  0  0  0  0  0
   -4.8884    8.7854   -8.4885 H   0  0  0  0  0  0  0  0  0  0  0  0
   -2.6658    9.7683   -8.0414 H   0  0  0  0  0  0  0  0  0  0  0  0
   -4.5366   13.2900   -6.4643 H   0  0  0  0  0  0  0  0  0  0  0  0
   -6.7612   12.3068   -6.9141 H   0  0  0  0  0  0  0  0  0  0  0  0
   -2.4642   14.2207   -6.1771 H   0  0  0  0  0  0  0  0  0  0  0  0
   -0.6430   10.6154   -7.5924 H   0  0  0  0  0  0  0  0  0  0  0  0
    1.4345   14.3489   -6.0254 H   0  0  0  0  0  0  0  0  0  0  0  0
    0.1671   15.4918   -6.5857 H   0  0  0  0  0  0  0  0  0  0  0  0
    0.1198   14.8498   -4.9087 H   0  0  0  0  0  0  0  0  0  0  0  0
  1  2  1  0  0  0  0
  1  4  1  0  0  0  0
  1 13  2  3  0  0  0
  2  6  2  0  0  0  0
  3  4  2  0  0  0  0
  3  5  1  0  0  0  0
  5  6  1  0  0  0  0
  5  9  1  0  0  0  0
  6  7  1  0  0  0  0
  7  8  1  0  0  0  0
  7 10  1  0  0  0  0
  8  9  2  0  0  0  0
 10 14  1  0  0  0  0
 11 12  1  0  0  0  0
 11 13  1  0  0  0  0
 11 26  2  0  0  0  0
 11 27  2  0  0  0  0
 14 15  2  0  0  0  0
 14 19  1  0  0  0  0
 15 16  1  0  0  0  0
 16 17  2  0  0  0  0
 17 18  1  0  0  0  0
 17 20  1  0  0  0  0
 18 19  2  0  0  0  0
 20 21  2  0  0  0  0
 20 24  1  0  0  0  0
 21 22  1  0  0  0  0
 22 23  1  0  0  0  0
 22 25  1  0  0  0  0
 23 24  2  0  0  0  0
  2 28  1  0  0  0  0
  3 29  1  0  0  0  0
  4 30  1  0  0  0  0
  5 31  1  0  0  0  0
  7 32  1  0  0  0  0
 10 33  1  0  0  0  0
 10 34  1  0  0  0  0
 12 35  1  0  0  0  0
 12 36  1  0  0  0  0
 12 37  1  0  0  0  0
 15 38  1  0  0  0  0
 16 39  1  0  0  0  0
 18 40  1  0  0  0  0
 19 41  1  0  0  0  0
 21 42  1  0  0  0  0
 24 43  1  0  0  0  0
 25 44  1  0  0  0  0
 25 45  1  0  0  0  0
 25 46  1  0  0  0  0
M  END
> <Name>
25

> <IC50[uM]>
0.073

$$$$
25
  -OEChem-05192314333D
 Structure written by MMmdl.
 46 49  0     1  0  0  0  0  0999 V2000
   -6.3861   12.3623  -11.9697 C   0  0  0  0  0  0  0  0  0  0  0  0
   -6.5480   11.8020  -10.7080 C   0  0  0  0  0  0  0  0  0  0  0  0
   -7.6869   10.5726  -13.0325 C   0  0  0  0  0  0  0  0  0  0  0  0
   -6.9529   11.7665  -13.1047 C   0  0  0  0  0  0  0  0  0  0  0  0
   -7.8210   10.0086  -11.7556 C   0  0  0  0  0  0  0  0  0  0  0  0
   -7.2636   10.6177  -10.5919 C   0  0  0  0  0  0  0  0  0  0  0  0
   -7.6330    9.7421   -9.5104 C   0  0  3  0  0  0  0  0  0  0  0  0
   -8.3023    8.7332   -9.9897 N   0  0  0  0  0  0  0  0  0  0  0  0
   -8.4342    8.8678  -11.3051 N   0  0  0  0  0  0  0  0  0  0  0  0
   -7.3415    9.8758   -8.0215 C   0  0  0  0  0  0  0  0  0  0  0  0
   -4.1211   13.8754  -11.2000 S   0  0  0  0  0  0  0  0  0  0  0  0
   -2.9188   12.5402  -11.7675 C   0  0  0  0  0  0  0  0  0  0  0  0
   -5.6382   13.5428  -12.1051 N   0  0  0  0  0  0  0  0  0  0  0  0
   -5.9683   10.4827   -7.7344 C   0  0  0  0  0  0  0  0  0  0  0  0
   -4.8123    9.7690   -8.0490 C   0  0  0  0  0  0  0  0  0  0  0  0
   -3.5592   10.3237   -7.7969 C   0  0  0  0  0  0  0  0  0  0  0  0
   -3.4543   11.5962   -7.2288 C   0  0  0  0  0  0  0  0  0  0  0  0
   -4.6126   12.3085   -6.9084 C   0  0  0  0  0  0  0  0  0  0  0  0
   -5.8671   11.7538   -7.1613 C   0  0  0  0  0  0  0  0  0  0  0  0
   -2.1058   12.1871   -6.9644 C   0  0  0  0  0  0  0  0  0  0  0  0
   -1.7745   13.4406   -6.4637 C   0  0  0  0  0  0  0  0  0  0  0  0
   -0.4394   13.4976   -6.4041 N   0  0  0  0  0  0  0  0  0  0  0  0
    0.1691   12.4146   -6.8015 N   0  0  0  0  0  0  0  0  0  0  0  0
   -0.8034   11.5995   -7.1773 C   0  0  0  0  0  0  0  0  0  0  0  0
    0.3694   14.6144   -5.9538 C   0  0  0  0  0  0  0  0  0  0  0  0
   -3.6497   15.1720  -11.6865 O   0  0  0  0  0  0  0  0  0  0  0  0
   -4.3650   13.6745   -9.7698 O   0  0  0  0  0  0  0  0  0  0  0  0
   -6.1257   12.2782   -9.8355 H   0  0  0  0  0  0  0  0  0  0  0  0
   -8.1227   10.1152  -13.9085 H   0  0  0  0  0  0  0  0  0  0  0  0
   -7.6287   12.5169  -13.5407 H   0  0  0  0  0  0  0  0  0  0  0  0
   -6.1214   11.5746  -13.7988 H   0  0  0  0  0  0  0  0  0  0  0  0
   -8.5708   10.3015   -9.3774 H   0  0  0  0  0  0  0  0  0  0  0  0
   -8.1107   10.5196   -7.5701 H   0  0  0  0  0  0  0  0  0  0  0  0
   -7.3856    8.8762   -7.5645 H   0  0  0  0  0  0  0  0  0  0  0  0
   -1.9543   12.6728  -11.2554 H   0  0  0  0  0  0  0  0  0  0  0  0
   -3.3298   11.5493  -11.5240 H   0  0  0  0  0  0  0  0  0  0  0  0
   -2.7704   12.6186  -12.8546 H   0  0  0  0  0  0  0  0  0  0  0  0
   -4.8884    8.7854   -8.4885 H   0  0  0  0  0  0  0  0  0  0  0  0
   -2.6658    9.7683   -8.0414 H   0  0  0  0  0  0  0  0  0  0  0  0
   -4.5366   13.2900   -6.4643 H   0  0  0  0  0  0  0  0  0  0  0  0
   -6.7612   12.3068   -6.9141 H   0  0  0  0  0  0  0  0  0  0  0  0
   -2.4642   14.2207   -6.1771 H   0  0  0  0  0  0  0  0  0  0  0  0
   -0.6430   10.6154   -7.5924 H   0  0  0  0  0  0  0  0  0  0  0  0
    1.4345   14.3489   -6.0254 H   0  0  0  0  0  0  0  0  0  0  0  0
    0.1671   15.4918   -6.5857 H   0  0  0  0  0  0  0  0  0  0  0  0
    0.1198   14.8498   -4.9087 H   0  0  0  0  0  0  0  0  0  0  0  0
  1  2  1  0  0  0  0
  1  4  1  0  0  0  0
  1 13  2  3  0  0  0
  2  6  2  0  0  0  0
  3  4  1  0  0  0  0
  3  5  2  0  0  0  0
  5  6  1  0  0  0  0
  5  9  1  0  0  0  0
  6  7  1  0  0  0  0
  7  8  1  0  0  0  0
  7 10  1  0  0  0  0
  8  9  2  0  0  0  0
 10 14  1  0  0  0  0
 11 12  1  0  0  0  0
 11 13  1  0  0  0  0
 11 26  2  0  0  0  0
 11 27  2  0  0  0  0
 14 15  2  0  0  0  0
 14 19  1  0  0  0  0
 15 16  1  0  0  0  0
 16 17  2  0  0  0  0
 17 18  1  0  0  0  0
 17 20  1  0  0  0  0
 18 19  2  0  0  0  0
 20 21  2  0  0  0  0
 20 24  1  0  0  0  0
 21 22  1  0  0  0  0
 22 23  1  0  0  0  0
 22 25  1  0  0  0  0
 23 24  2  0  0  0  0
  2 28  1  0  0  0  0
  3 29  1  0  0  0  0
  4 30  1  0  0  0  0
  4 31  1  0  0  0  0
  7 32  1  0  0  0  0
 10 33  1  0  0  0  0
 10 34  1  0  0  0  0
 12 35  1  0  0  0  0
 12 36  1  0  0  0  0
 12 37  1  0  0  0  0
 15 38  1  0  0  0  0
 16 39  1  0  0  0  0
 18 40  1  0  0  0  0
 19 41  1  0  0  0  0
 21 42  1  0  0  0  0
 24 43  1  0  0  0  0
 25 44  1  0  0  0  0
 25 45  1  0  0  0  0
 25 46  1  0  0  0  0
M  END
> <Name>
25

> <IC50[uM]>
0.073

$$$$
25
  -OEChem-05192314333D
 Structure written by MMmdl.
 46 49  0     1  0  0  0  0  0999 V2000
   -6.3861   12.3623  -11.9697 C   0  0  0  0  0  0  0  0  0  0  0  0
   -6.5480   11.8020  -10.7080 C   0  0  0  0  0  0  0  0  0  0  0  0
   -7.6869   10.5726  -13.0325 C   0  0  0  0  0  0  0  0  0  0  0  0
   -6.9529   11.7665  -13.1047 C   0  0  0  0  0  0  0  0  0  0  0  0
   -7.8210   10.0086  -11.7556 C   0  0  0  0  0  0  0  0  0  0  0  0
   -7.2636   10.6177  -10.5919 C   0  0  0  0  0  0  0  0  0  0  0  0
   -7.6330    9.7421   -9.5104 C   0  0  3  0  0  0  0  0  0  0  0  0
   -8.3023    8.7332   -9.9897 N   0  0  0  0  0  0  0  0  0  0  0  0
   -8.4342    8.8678  -11.3051 N   0  0  0  0  0  0  0  0  0  0  0  0
   -7.3415    9.8758   -8.0215 C   0  0  0  0  0  0  0  0  0  0  0  0
   -4.1211   13.8754  -11.2000 S   0  0  0  0  0  0  0  0  0  0  0  0
   -2.9188   12.5402  -11.7675 C   0  0  0  0  0  0  0  0  0  0  0  0
   -5.6382   13.5428  -12.1051 N   0  0  0  0  0  0  0  0  0  0  0  0
   -5.9683   10.4827   -7.7344 C   0  0  0  0  0  0  0  0  0  0  0  0
   -4.8123    9.7690   -8.0490 C   0  0  0  0  0  0  0  0  0  0  0  0
   -3.5592   10.3237   -7.7969 C   0  0  0  0  0  0  0  0  0  0  0  0
   -3.4543   11.5962   -7.2288 C   0  0  0  0  0  0  0  0  0  0  0  0
   -4.6126   12.3085   -6.9084 C   0  0  0  0  0  0  0  0  0  0  0  0
   -5.8671   11.7538   -7.1613 C   0  0  0  0  0  0  0  0  0  0  0  0
   -2.1058   12.1871   -6.9644 C   0  0  0  0  0  0  0  0  0  0  0  0
   -1.7745   13.4406   -6.4637 C   0  0  0  0  0  0  0  0  0  0  0  0
   -0.4394   13.4976   -6.4041 N   0  0  0  0  0  0  0  0  0  0  0  0
    0.1691   12.4146   -6.8015 N   0  0  0  0  0  0  0  0  0  0  0  0
   -0.8034   11.5995   -7.1773 C   0  0  0  0  0  0  0  0  0  0  0  0
    0.3694   14.6144   -5.9538 C   0  0  0  0  0  0  0  0  0  0  0  0
   -3.6497   15.1720  -11.6865 O   0  0  0  0  0  0  0  0  0  0  0  0
   -4.3650   13.6745   -9.7698 O   0  0  0  0  0  0  0  0  0  0  0  0
   -5.5417   11.6132  -10.3059 H   0  0  0  0  0  0  0  0  0  0  0  0
   -7.0576   12.5509  -10.0840 H   0  0  0  0  0  0  0  0  0  0  0  0
   -8.1227   10.1152  -13.9085 H   0  0  0  0  0  0  0  0  0  0  0  0
   -6.8205   12.2414  -14.0656 H   0  0  0  0  0  0  0  0  0  0  0  0
   -8.5708   10.3015   -9.3774 H   0  0  0  0  0  0  0  0  0  0  0  0
   -8.1107   10.5196   -7.5701 H   0  0  0  0  0  0  0  0  0  0  0  0
   -7.3856    8.8762   -7.5645 H   0  0  0  0  0  0  0  0  0  0  0  0
   -1.9543   12.6728  -11.2554 H   0  0  0  0  0  0  0  0  0  0  0  0
   -3.3298   11.5493  -11.5240 H   0  0  0  0  0  0  0  0  0  0  0  0
   -2.7704   12.6186  -12.8546 H   0  0  0  0  0  0  0  0  0  0  0  0
   -4.8884    8.7854   -8.4885 H   0  0  0  0  0  0  0  0  0  0  0  0
   -2.6658    9.7683   -8.0414 H   0  0  0  0  0  0  0  0  0  0  0  0
   -4.5366   13.2900   -6.4643 H   0  0  0  0  0  0  0  0  0  0  0  0
   -6.7612   12.3068   -6.9141 H   0  0  0  0  0  0  0  0  0  0  0  0
   -2.4642   14.2207   -6.1771 H   0  0  0  0  0  0  0  0  0  0  0  0
   -0.6430   10.6154   -7.5924 H   0  0  0  0  0  0  0  0  0  0  0  0
    1.4345   14.3489   -6.0254 H   0  0  0  0  0  0  0  0  0  0  0  0
    0.1671   15.4918   -6.5857 H   0  0  0  0  0  0  0  0  0  0  0  0
    0.1198   14.8498   -4.9087 H   0  0  0  0  0  0  0  0  0  0  0  0
  1  2  1  0  0  0  0
  1  4  1  0  0  0  0
  1 13  2  3  0  0  0
  2  6  1  0  0  0  0
  3  4  2  0  0  0  0
  3  5  1  0  0  0  0
  5  6  2  0  0  0  0
  5  9  1  0  0  0  0
  6  7  1  0  0  0  0
  7  8  1  0  0  0  0
  7 10  1  0  0  0  0
  8  9  2  0  0  0  0
 10 14  1  0  0  0  0
 11 12  1  0  0  0  0
 11 13  1  0  0  0  0
 11 26  2  0  0  0  0
 11 27  2  0  0  0  0
 14 15  2  0  0  0  0
 14 19  1  0  0  0  0
 15 16  1  0  0  0  0
 16 17  2  0  0  0  0
 17 18  1  0  0  0  0
 17 20  1  0  0  0  0
 18 19  2  0  0  0  0
 20 21  2  0  0  0  0
 20 24  1  0  0  0  0
 21 22  1  0  0  0  0
 22 23  1  0  0  0  0
 22 25  1  0  0  0  0
 23 24  2  0  0  0  0
  2 28  1  0  0  0  0
  2 29  1  0  0  0  0
  3 30  1  0  0  0  0
  4 31  1  0  0  0  0
  7 32  1  0  0  0  0
 10 33  1  0  0  0  0
 10 34  1  0  0  0  0
 12 35  1  0  0  0  0
 12 36  1  0  0  0  0
 12 37  1  0  0  0  0
 15 38  1  0  0  0  0
 16 39  1  0  0  0  0
 18 40  1  0  0  0  0
 19 41  1  0  0  0  0
 21 42  1  0  0  0  0
 24 43  1  0  0  0  0
 25 44  1  0  0  0  0
 25 45  1  0  0  0  0
 25 46  1  0  0  0  0
M  END
> <Name>
25

> <IC50[uM]>
0.073

$$$$
25
  -OEChem-05192314333D
 Structure written by MMmdl.
 46 49  0     1  0  0  0  0  0999 V2000
   -6.3861   12.3623  -11.9697 C   0  0  0  0  0  0  0  0  0  0  0  0
   -6.5480   11.8020  -10.7080 C   0  0  0  0  0  0  0  0  0  0  0  0
   -7.6869   10.5726  -13.0325 C   0  0  0  0  0  0  0  0  0  0  0  0
   -6.9529   11.7665  -13.1047 C   0  0  0  0  0  0  0  0  0  0  0  0
   -7.8210   10.0086  -11.7556 C   0  0  3  0  0  0  0  0  0  0  0  0
   -7.2636   10.6177  -10.5919 C   0  0  0  0  0  0  0  0  0  0  0  0
   -7.6330    9.7421   -9.5104 C   0  0  0  0  0  0  0  0  0  0  0  0
   -8.3023    8.7332   -9.9897 N   0  0  0  0  0  0  0  0  0  0  0  0
   -8.4342    8.8678  -11.3051 N   0  0  0  0  0  0  0  0  0  0  0  0
   -7.3415    9.8758   -8.0215 C   0  0  0  0  0  0  0  0  0  0  0  0
   -4.1211   13.8754  -11.2000 S   0  0  0  0  0  0  0  0  0  0  0  0
   -2.9188   12.5402  -11.7675 C   0  0  0  0  0  0  0  0  0  0  0  0
   -5.6382   13.5428  -12.1051 N   0  0  0  0  0  0  0  0  0  0  0  0
   -5.9683   10.4827   -7.7344 C   0  0  0  0  0  0  0  0  0  0  0  0
   -4.8123    9.7690   -8.0490 C   0  0  0  0  0  0  0  0  0  0  0  0
   -3.5592   10.3237   -7.7969 C   0  0  0  0  0  0  0  0  0  0  0  0
   -3.4543   11.5962   -7.2288 C   0  0  0  0  0  0  0  0  0  0  0  0
   -4.6126   12.3085   -6.9084 C   0  0  0  0  0  0  0  0  0  0  0  0
   -5.8671   11.7538   -7.1613 C   0  0  0  0  0  0  0  0  0  0  0  0
   -2.1058   12.1871   -6.9644 C   0  0  0  0  0  0  0  0  0  0  0  0
   -1.7745   13.4406   -6.4637 C   0  0  0  0  0  0  0  0  0  0  0  0
   -0.4394   13.4976   -6.4041 N   0  0  0  0  0  0  0  0  0  0  0  0
    0.1691   12.4146   -6.8015 N   0  0  0  0  0  0  0  0  0  0  0  0
   -0.8034   11.5995   -7.1773 C   0  0  0  0  0  0  0  0  0  0  0  0
    0.3694   14.6144   -5.9538 C   0  0  0  0  0  0  0  0  0  0  0  0
   -3.6497   15.1720  -11.6865 O   0  0  0  0  0  0  0  0  0  0  0  0
   -4.3650   13.6745   -9.7698 O   0  0  0  0  0  0  0  0  0  0  0  0
   -5.5417   11.6132  -10.3059 H   0  0  0  0  0  0  0  0  0  0  0  0
   -7.0576   12.5509  -10.0840 H   0  0  0  0  0  0  0  0  0  0  0  0
   -8.1227   10.1152  -13.9085 H   0  0  0  0  0  0  0  0  0  0  0  0
   -6.8205   12.2414  -14.0656 H   0  0  0  0  0  0  0  0  0  0  0  0
   -8.7541   10.5711  -11.6042 H   0  0  0  0  0  0  0  0  0  0  0  0
   -8.1107   10.5196   -7.5701 H   0  0  0  0  0  0  0  0  0  0  0  0
   -7.3856    8.8762   -7.5645 H   0  0  0  0  0  0  0  0  0  0  0  0
   -1.9543   12.6728  -11.2554 H   0  0  0  0  0  0  0  0  0  0  0  0
   -3.3298   11.5493  -11.5240 H   0  0  0  0  0  0  0  0  0  0  0  0
   -2.7704   12.6186  -12.8546 H   0  0  0  0  0  0  0  0  0  0  0  0
   -4.8884    8.7854   -8.4885 H   0  0  0  0  0  0  0  0  0  0  0  0
   -2.6658    9.7683   -8.0414 H   0  0  0  0  0  0  0  0  0  0  0  0
   -4.5366   13.2900   -6.4643 H   0  0  0  0  0  0  0  0  0  0  0  0
   -6.7612   12.3068   -6.9141 H   0  0  0  0  0  0  0  0  0  0  0  0
   -2.4642   14.2207   -6.1771 H   0  0  0  0  0  0  0  0  0  0  0  0
   -0.6430   10.6154   -7.5924 H   0  0  0  0  0  0  0  0  0  0  0  0
    1.4345   14.3489   -6.0254 H   0  0  0  0  0  0  0  0  0  0  0  0
    0.1671   15.4918   -6.5857 H   0  0  0  0  0  0  0  0  0  0  0  0
    0.1198   14.8498   -4.9087 H   0  0  0  0  0  0  0  0  0  0  0  0
  1  2  1  0  0  0  0
  1  4  1  0  0  0  0
  1 13  2  3  0  0  0
  2  6  1  0  0  0  0
  3  4  2  0  0  0  0
  3  5  1  0  0  0  0
  5  6  1  0  0  0  0
  5  9  1  0  0  0  0
  6  7  2  0  0  0  0
  7  8  1  0  0  0  0
  7 10  1  0  0  0  0
  8  9  2  0  0  0  0
 10 14  1  0  0  0  0
 11 12  1  0  0  0  0
 11 13  1  0  0  0  0
 11 26  2  0  0  0  0
 11 27  2  0  0  0  0
 14 15  2  0  0  0  0
 14 19  1  0  0  0  0
 15 16  1  0  0  0  0
 16 17  2  0  0  0  0
 17 18  1  0  0  0  0
 17 20  1  0  0  0  0
 18 19  2  0  0  0  0
 20 21  2  0  0  0  0
 20 24  1  0  0  0  0
 21 22  1  0  0  0  0
 22 23  1  0  0  0  0
 22 25  1  0  0  0  0
 23 24  2  0  0  0  0
  2 28  1  0  0  0  0
  2 29  1  0  0  0  0
  3 30  1  0  0  0  0
  4 31  1  0  0  0  0
  5 32  1  0  0  0  0
 10 33  1  0  0  0  0
 10 34  1  0  0  0  0
 12 35  1  0  0  0  0
 12 36  1  0  0  0  0
 12 37  1  0  0  0  0
 15 38  1  0  0  0  0
 16 39  1  0  0  0  0
 18 40  1  0  0  0  0
 19 41  1  0  0  0  0
 21 42  1  0  0  0  0
 24 43  1  0  0  0  0
 25 44  1  0  0  0  0
 25 45  1  0  0  0  0
 25 46  1  0  0  0  0
M  END
> <Name>
25

> <IC50[uM]>
0.073

$$$$
25
  -OEChem-05192314333D
 Structure written by MMmdl.
 46 49  0     0  0  0  0  0  0999 V2000
   -6.3861   12.3623  -11.9697 C   0  0  0  0  0  0  0  0  0  0  0  0
   -6.5480   11.8020  -10.7080 C   0  0  0  0  0  0  0  0  0  0  0  0
   -7.6869   10.5726  -13.0325 C   0  0  0  0  0  0  0  0  0  0  0  0
   -6.9529   11.7665  -13.1047 C   0  0  0  0  0  0  0  0  0  0  0  0
   -7.8210   10.0086  -11.7556 C   0  0  0  0  0  0  0  0  0  0  0  0
   -7.2636   10.6177  -10.5919 C   0  0  0  0  0  0  0  0  0  0  0  0
   -7.6330    9.7421   -9.5104 C   0  0  0  0  0  0  0  0  0  0  0  0
   -8.3023    8.7332   -9.9897 N   0  0  0  0  0  0  0  0  0  0  0  0
   -8.4342    8.8678  -11.3051 N   0  0  0  0  0  0  0  0  0  0  0  0
   -7.3415    9.8758   -8.0215 C   0  0  0  0  0  0  0  0  0  0  0  0
   -4.1211   13.8754  -11.2000 S   0  0  0  0  0  0  0  0  0  0  0  0
   -2.9188   12.5402  -11.7675 C   0  0  0  0  0  0  0  0  0  0  0  0
   -5.6382   13.5428  -12.1051 N   0  0  0  0  0  0  0  0  0  0  0  0
   -5.9683   10.4827   -7.7344 C   0  0  0  0  0  0  0  0  0  0  0  0
   -4.8123    9.7690   -8.0490 C   0  0  0  0  0  0  0  0  0  0  0  0
   -3.5592   10.3237   -7.7969 C   0  0  0  0  0  0  0  0  0  0  0  0
   -3.4543   11.5962   -7.2288 C   0  0  0  0  0  0  0  0  0  0  0  0
   -4.6126   12.3085   -6.9084 C   0  0  0  0  0  0  0  0  0  0  0  0
   -5.8671   11.7538   -7.1613 C   0  0  0  0  0  0  0  0  0  0  0  0
   -2.1058   12.1871   -6.9644 C   0  0  0  0  0  0  0  0  0  0  0  0
   -1.7745   13.4406   -6.4637 C   0  0  0  0  0  0  0  0  0  0  0  0
   -0.4394   13.4976   -6.4041 N   0  0  0  0  0  0  0  0  0  0  0  0
    0.1691   12.4146   -6.8015 N   0  0  0  0  0  0  0  0  0  0  0  0
   -0.8034   11.5995   -7.1773 C   0  0  0  0  0  0  0  0  0  0  0  0
    0.3694   14.6144   -5.9538 C   0  0  0  0  0  0  0  0  0  0  0  0
   -3.6497   15.1720  -11.6865 O   0  0  0  0  0  0  0  0  0  0  0  0
   -4.3650   13.6745   -9.7698 O   0  0  0  0  0  0  0  0  0  0  0  0
   -5.5417   11.6132  -10.3059 H   0  0  0  0  0  0  0  0  0  0  0  0
   -7.0576   12.5509  -10.0840 H   0  0  0  0  0  0  0  0  0  0  0  0
   -8.1227   10.1152  -13.9085 H   0  0  0  0  0  0  0  0  0  0  0  0
   -7.6287   12.5169  -13.5407 H   0  0  0  0  0  0  0  0  0  0  0  0
   -6.1214   11.5746  -13.7988 H   0  0  0  0  0  0  0  0  0  0  0  0
   -8.1107   10.5196   -7.5701 H   0  0  0  0  0  0  0  0  0  0  0  0
   -7.3856    8.8762   -7.5645 H   0  0  0  0  0  0  0  0  0  0  0  0
   -1.9543   12.6728  -11.2554 H   0  0  0  0  0  0  0  0  0  0  0  0
   -3.3298   11.5493  -11.5240 H   0  0  0  0  0  0  0  0  0  0  0  0
   -2.7704   12.6186  -12.8546 H   0  0  0  0  0  0  0  0  0  0  0  0
   -4.8884    8.7854   -8.4885 H   0  0  0  0  0  0  0  0  0  0  0  0
   -2.6658    9.7683   -8.0414 H   0  0  0  0  0  0  0  0  0  0  0  0
   -4.5366   13.2900   -6.4643 H   0  0  0  0  0  0  0  0  0  0  0  0
   -6.7612   12.3068   -6.9141 H   0  0  0  0  0  0  0  0  0  0  0  0
   -2.4642   14.2207   -6.1771 H   0  0  0  0  0  0  0  0  0  0  0  0
   -0.6430   10.6154   -7.5924 H   0  0  0  0  0  0  0  0  0  0  0  0
    1.4345   14.3489   -6.0254 H   0  0  0  0  0  0  0  0  0  0  0  0
    0.1671   15.4918   -6.5857 H   0  0  0  0  0  0  0  0  0  0  0  0
    0.1198   14.8498   -4.9087 H   0  0  0  0  0  0  0  0  0  0  0  0
  1  2  1  0  0  0  0
  1  4  1  0  0  0  0
  1 13  2  3  0  0  0
  2  6  1  0  0  0  0
  3  4  1  0  0  0  0
  3  5  2  0  0  0  0
  5  6  1  0  0  0  0
  5  9  1  0  0  0  0
  6  7  2  0  0  0  0
  7  8  1  0  0  0  0
  7 10  1  0  0  0  0
  8  9  2  0  0  0  0
 10 14  1  0  0  0  0
 11 12  1  0  0  0  0
 11 13  1  0  0  0  0
 11 26  2  0  0  0  0
 11 27  2  0  0  0  0
 14 15  2  0  0  0  0
 14 19  1  0  0  0  0
 15 16  1  0  0  0  0
 16 17  2  0  0  0  0
 17 18  1  0  0  0  0
 17 20  1  0  0  0  0
 18 19  2  0  0  0  0
 20 21  2  0  0  0  0
 20 24  1  0  0  0  0
 21 22  1  0  0  0  0
 22 23  1  0  0  0  0
 22 25  1  0  0  0  0
 23 24  2  0  0  0  0
  2 28  1  0  0  0  0
  2 29  1  0  0  0  0
  3 30  1  0  0  0  0
  4 31  1  0  0  0  0
  4 32  1  0  0  0  0
 10 33  1  0  0  0  0
 10 34  1  0  0  0  0
 12 35  1  0  0  0  0
 12 36  1  0  0  0  0
 12 37  1  0  0  0  0
 15 38  1  0  0  0  0
 16 39  1  0  0  0  0
 18 40  1  0  0  0  0
 19 41  1  0  0  0  0
 21 42  1  0  0  0  0
 24 43  1  0  0  0  0
 25 44  1  0  0  0  0
 25 45  1  0  0  0  0
 25 46  1  0  0  0  0
M  END
> <Name>
25

> <IC50[uM]>
0.073

$$$$
25
  -OEChem-05192314333D
 Structure written by MMmdl.
 46 49  0     1  0  0  0  0  0999 V2000
   -6.3861   12.3623  -11.9697 C   0  0  0  0  0  0  0  0  0  0  0  0
   -6.5480   11.8020  -10.7080 C   0  0  0  0  0  0  0  0  0  0  0  0
   -7.6869   10.5726  -13.0325 C   0  0  0  0  0  0  0  0  0  0  0  0
   -6.9529   11.7665  -13.1047 C   0  0  0  0  0  0  0  0  0  0  0  0
   -7.8210   10.0086  -11.7556 C   0  0  0  0  0  0  0  0  0  0  0  0
   -7.2636   10.6177  -10.5919 C   0  0  3  0  0  0  0  0  0  0  0  0
   -7.6330    9.7421   -9.5104 C   0  0  0  0  0  0  0  0  0  0  0  0
   -8.3023    8.7332   -9.9897 N   0  0  0  0  0  0  0  0  0  0  0  0
   -8.4342    8.8678  -11.3051 N   0  0  0  0  0  0  0  0  0  0  0  0
   -7.3415    9.8758   -8.0215 C   0  0  0  0  0  0  0  0  0  0  0  0
   -4.1211   13.8754  -11.2000 S   0  0  0  0  0  0  0  0  0  0  0  0
   -2.9188   12.5402  -11.7675 C   0  0  0  0  0  0  0  0  0  0  0  0
   -5.6382   13.5428  -12.1051 N   0  0  0  0  0  0  0  0  0  0  0  0
   -5.9683   10.4827   -7.7344 C   0  0  0  0  0  0  0  0  0  0  0  0
   -4.8123    9.7690   -8.0490 C   0  0  0  0  0  0  0  0  0  0  0  0
   -3.5592   10.3237   -7.7969 C   0  0  0  0  0  0  0  0  0  0  0  0
   -3.4543   11.5962   -7.2288 C   0  0  0  0  0  0  0  0  0  0  0  0
   -4.6126   12.3085   -6.9084 C   0  0  0  0  0  0  0  0  0  0  0  0
   -5.8671   11.7538   -7.1613 C   0  0  0  0  0  0  0  0  0  0  0  0
   -2.1058   12.1871   -6.9644 C   0  0  0  0  0  0  0  0  0  0  0  0
   -1.7745   13.4406   -6.4637 C   0  0  0  0  0  0  0  0  0  0  0  0
   -0.4394   13.4976   -6.4041 N   0  0  0  0  0  0  0  0  0  0  0  0
    0.1691   12.4146   -6.8015 N   0  0  0  0  0  0  0  0  0  0  0  0
   -0.8034   11.5995   -7.1773 C   0  0  0  0  0  0  0  0  0  0  0  0
    0.3694   14.6144   -5.9538 C   0  0  0  0  0  0  0  0  0  0  0  0
   -3.6497   15.1720  -11.6865 O   0  0  0  0  0  0  0  0  0  0  0  0
   -4.3650   13.6745   -9.7698 O   0  0  0  0  0  0  0  0  0  0  0  0
   -5.5417   11.6132  -10.3059 H   0  0  0  0  0  0  0  0  0  0  0  0
   -7.0576   12.5509  -10.0840 H   0  0  0  0  0  0  0  0  0  0  0  0
   -8.1227   10.1152  -13.9085 H   0  0  0  0  0  0  0  0  0  0  0  0
   -6.8205   12.2414  -14.0656 H   0  0  0  0  0  0  0  0  0  0  0  0
   -8.1911   11.1909  -10.4462 H   0  0  0  0  0  0  0  0  0  0  0  0
   -8.6624    7.9724   -9.4498 H   0  0  0  0  0  0  0  0  0  0  0  0
   -8.0330    9.5733   -7.2490 H   0  0  0  0  0  0  0  0  0  0  0  0
   -1.9543   12.6728  -11.2554 H   0  0  0  0  0  0  0  0  0  0  0  0
   -3.3298   11.5493  -11.5240 H   0  0  0  0  0  0  0  0  0  0  0  0
   -2.7704   12.6186  -12.8546 H   0  0  0  0  0  0  0  0  0  0  0  0
   -4.8884    8.7854   -8.4885 H   0  0  0  0  0  0  0  0  0  0  0  0
   -2.6658    9.7683   -8.0414 H   0  0  0  0  0  0  0  0  0  0  0  0
   -4.5366   13.2900   -6.4643 H   0  0  0  0  0  0  0  0  0  0  0  0
   -6.7612   12.3068   -6.9141 H   0  0  0  0  0  0  0  0  0  0  0  0
   -2.4642   14.2207   -6.1771 H   0  0  0  0  0  0  0  0  0  0  0  0
   -0.6430   10.6154   -7.5924 H   0  0  0  0  0  0  0  0  0  0  0  0
    1.4345   14.3489   -6.0254 H   0  0  0  0  0  0  0  0  0  0  0  0
    0.1671   15.4918   -6.5857 H   0  0  0  0  0  0  0  0  0  0  0  0
    0.1198   14.8498   -4.9087 H   0  0  0  0  0  0  0  0  0  0  0  0
  1  2  1  0  0  0  0
  1  4  1  0  0  0  0
  1 13  2  3  0  0  0
  2  6  1  0  0  0  0
  3  4  2  0  0  0  0
  3  5  1  0  0  0  0
  5  6  1  0  0  0  0
  5  9  2  0  0  0  0
  6  7  1  0  0  0  0
  7  8  1  0  0  0  0
  7 10  2  3  0  0  0
  8  9  1  0  0  0  0
 10 14  1  0  0  0  0
 11 12  1  0  0  0  0
 11 13  1  0  0  0  0
 11 26  2  0  0  0  0
 11 27  2  0  0  0  0
 14 15  2  0  0  0  0
 14 19  1  0  0  0  0
 15 16  1  0  0  0  0
 16 17  2  0  0  0  0
 17 18  1  0  0  0  0
 17 20  1  0  0  0  0
 18 19  2  0  0  0  0
 20 21  2  0  0  0  0
 20 24  1  0  0  0  0
 21 22  1  0  0  0  0
 22 23  1  0  0  0  0
 22 25  1  0  0  0  0
 23 24  2  0  0  0  0
  2 28  1  0  0  0  0
  2 29  1  0  0  0  0
  3 30  1  0  0  0  0
  4 31  1  0  0  0  0
  6 32  1  0  0  0  0
  8 33  1  0  0  0  0
 10 34  1  0  0  0  0
 12 35  1  0  0  0  0
 12 36  1  0  0  0  0
 12 37  1  0  0  0  0
 15 38  1  0  0  0  0
 16 39  1  0  0  0  0
 18 40  1  0  0  0  0
 19 41  1  0  0  0  0
 21 42  1  0  0  0  0
 24 43  1  0  0  0  0
 25 44  1  0  0  0  0
 25 45  1  0  0  0  0
 25 46  1  0  0  0  0
M  END
> <Name>
25

> <IC50[uM]>
0.073

$$$$
25
  -OEChem-05192314333D
 Structure written by MMmdl.
 46 49  0     1  0  0  0  0  0999 V2000
   -6.3861   12.3623  -11.9697 C   0  0  0  0  0  0  0  0  0  0  0  0
   -6.5480   11.8020  -10.7080 C   0  0  0  0  0  0  0  0  0  0  0  0
   -7.6869   10.5726  -13.0325 C   0  0  0  0  0  0  0  0  0  0  0  0
   -6.9529   11.7665  -13.1047 C   0  0  0  0  0  0  0  0  0  0  0  0
   -7.8210   10.0086  -11.7556 C   0  0  0  0  0  0  0  0  0  0  0  0
   -7.2636   10.6177  -10.5919 C   0  0  3  0  0  0  0  0  0  0  0  0
   -7.6330    9.7421   -9.5104 C   0  0  0  0  0  0  0  0  0  0  0  0
   -8.3023    8.7332   -9.9897 N   0  0  0  0  0  0  0  0  0  0  0  0
   -8.4342    8.8678  -11.3051 N   0  0  0  0  0  0  0  0  0  0  0  0
   -7.3415    9.8758   -8.0215 C   0  0  0  0  0  0  0  0  0  0  0  0
   -4.1211   13.8754  -11.2000 S   0  0  0  0  0  0  0  0  0  0  0  0
   -2.9188   12.5402  -11.7675 C   0  0  0  0  0  0  0  0  0  0  0  0
   -5.6382   13.5428  -12.1051 N   0  0  0  0  0  0  0  0  0  0  0  0
   -5.9683   10.4827   -7.7344 C   0  0  0  0  0  0  0  0  0  0  0  0
   -4.8123    9.7690   -8.0490 C   0  0  0  0  0  0  0  0  0  0  0  0
   -3.5592   10.3237   -7.7969 C   0  0  0  0  0  0  0  0  0  0  0  0
   -3.4543   11.5962   -7.2288 C   0  0  0  0  0  0  0  0  0  0  0  0
   -4.6126   12.3085   -6.9084 C   0  0  0  0  0  0  0  0  0  0  0  0
   -5.8671   11.7538   -7.1613 C   0  0  0  0  0  0  0  0  0  0  0  0
   -2.1058   12.1871   -6.9644 C   0  0  0  0  0  0  0  0  0  0  0  0
   -1.7745   13.4406   -6.4637 C   0  0  0  0  0  0  0  0  0  0  0  0
   -0.4394   13.4976   -6.4041 N   0  0  0  0  0  0  0  0  0  0  0  0
    0.1691   12.4146   -6.8015 N   0  0  0  0  0  0  0  0  0  0  0  0
   -0.8034   11.5995   -7.1773 C   0  0  0  0  0  0  0  0  0  0  0  0
    0.3694   14.6144   -5.9538 C   0  0  0  0  0  0  0  0  0  0  0  0
   -3.6497   15.1720  -11.6865 O   0  0  0  0  0  0  0  0  0  0  0  0
   -4.3650   13.6745   -9.7698 O   0  0  0  0  0  0  0  0  0  0  0  0
   -6.1257   12.2782   -9.8355 H   0  0  0  0  0  0  0  0  0  0  0  0
   -8.1227   10.1152  -13.9085 H   0  0  0  0  0  0  0  0  0  0  0  0
   -6.8205   12.2414  -14.0656 H   0  0  0  0  0  0  0  0  0  0  0  0
   -8.1911   11.1909  -10.4462 H   0  0  0  0  0  0  0  0  0  0  0  0
   -8.1107   10.5196   -7.5701 H   0  0  0  0  0  0  0  0  0  0  0  0
   -7.3856    8.8762   -7.5645 H   0  0  0  0  0  0  0  0  0  0  0  0
   -1.9543   12.6728  -11.2554 H   0  0  0  0  0  0  0  0  0  0  0  0
   -3.3298   11.5493  -11.5240 H   0  0  0  0  0  0  0  0  0  0  0  0
   -2.7704   12.6186  -12.8546 H   0  0  0  0  0  0  0  0  0  0  0  0
   -5.3954   13.6013  -13.0734 H   0  0  0  0  0  0  0  0  0  0  0  0
   -4.8884    8.7854   -8.4885 H   0  0  0  0  0  0  0  0  0  0  0  0
   -2.6658    9.7683   -8.0414 H   0  0  0  0  0  0  0  0  0  0  0  0
   -4.5366   13.2900   -6.4643 H   0  0  0  0  0  0  0  0  0  0  0  0
   -6.7612   12.3068   -6.9141 H   0  0  0  0  0  0  0  0  0  0  0  0
   -2.4642   14.2207   -6.1771 H   0  0  0  0  0  0  0  0  0  0  0  0
   -0.6430   10.6154   -7.5924 H   0  0  0  0  0  0  0  0  0  0  0  0
    1.4345   14.3489   -6.0254 H   0  0  0  0  0  0  0  0  0  0  0  0
    0.1671   15.4918   -6.5857 H   0  0  0  0  0  0  0  0  0  0  0  0
    0.1198   14.8498   -4.9087 H   0  0  0  0  0  0  0  0  0  0  0  0
  1  2  2  0  0  0  0
  1  4  1  0  0  0  0
  1 13  1  0  0  0  0
  2  6  1  0  0  0  0
  3  4  2  0  0  0  0
  3  5  1  0  0  0  0
  5  6  1  0  0  0  0
  5  9  2  0  0  0  0
  6  7  1  0  0  0  0
  7  8  2  0  0  0  0
  7 10  1  0  0  0  0
  8  9  1  0  0  0  0
 10 14  1  0  0  0  0
 11 12  1  0  0  0  0
 11 13  1  0  0  0  0
 11 26  2  0  0  0  0
 11 27  2  0  0  0  0
 14 15  2  0  0  0  0
 14 19  1  0  0  0  0
 15 16  1  0  0  0  0
 16 17  2  0  0  0  0
 17 18  1  0  0  0  0
 17 20  1  0  0  0  0
 18 19  2  0  0  0  0
 20 21  2  0  0  0  0
 20 24  1  0  0  0  0
 21 22  1  0  0  0  0
 22 23  1  0  0  0  0
 22 25  1  0  0  0  0
 23 24  2  0  0  0  0
  2 28  1  0  0  0  0
  3 29  1  0  0  0  0
  4 30  1  0  0  0  0
  6 31  1  0  0  0  0
 10 32  1  0  0  0  0
 10 33  1  0  0  0  0
 12 34  1  0  0  0  0
 12 35  1  0  0  0  0
 12 36  1  0  0  0  0
 13 37  1  0  0  0  0
 15 38  1  0  0  0  0
 16 39  1  0  0  0  0
 18 40  1  0  0  0  0
 19 41  1  0  0  0  0
 21 42  1  0  0  0  0
 24 43  1  0  0  0  0
 25 44  1  0  0  0  0
 25 45  1  0  0  0  0
 25 46  1  0  0  0  0
M  END
> <Name>
25

> <IC50[uM]>
0.073

$$$$
25
  -OEChem-05192314333D
 Structure written by MMmdl.
 46 49  0     1  0  0  0  0  0999 V2000
   -6.3861   12.3623  -11.9697 C   0  0  3  0  0  0  0  0  0  0  0  0
   -6.5480   11.8020  -10.7080 C   0  0  0  0  0  0  0  0  0  0  0  0
   -7.6869   10.5726  -13.0325 C   0  0  0  0  0  0  0  0  0  0  0  0
   -6.9529   11.7665  -13.1047 C   0  0  0  0  0  0  0  0  0  0  0  0
   -7.8210   10.0086  -11.7556 C   0  0  0  0  0  0  0  0  0  0  0  0
   -7.2636   10.6177  -10.5919 C   0  0  0  0  0  0  0  0  0  0  0  0
   -7.6330    9.7421   -9.5104 C   0  0  0  0  0  0  0  0  0  0  0  0
   -8.3023    8.7332   -9.9897 N   0  0  0  0  0  0  0  0  0  0  0  0
   -8.4342    8.8678  -11.3051 N   0  0  0  0  0  0  0  0  0  0  0  0
   -7.3415    9.8758   -8.0215 C   0  0  0  0  0  0  0  0  0  0  0  0
   -4.1211   13.8754  -11.2000 S   0  0  0  0  0  0  0  0  0  0  0  0
   -2.9188   12.5402  -11.7675 C   0  0  0  0  0  0  0  0  0  0  0  0
   -5.6382   13.5428  -12.1051 N   0  0  0  0  0  0  0  0  0  0  0  0
   -5.9683   10.4827   -7.7344 C   0  0  0  0  0  0  0  0  0  0  0  0
   -4.8123    9.7690   -8.0490 C   0  0  0  0  0  0  0  0  0  0  0  0
   -3.5592   10.3237   -7.7969 C   0  0  0  0  0  0  0  0  0  0  0  0
   -3.4543   11.5962   -7.2288 C   0  0  0  0  0  0  0  0  0  0  0  0
   -4.6126   12.3085   -6.9084 C   0  0  0  0  0  0  0  0  0  0  0  0
   -5.8671   11.7538   -7.1613 C   0  0  0  0  0  0  0  0  0  0  0  0
   -2.1058   12.1871   -6.9644 C   0  0  0  0  0  0  0  0  0  0  0  0
   -1.7745   13.4406   -6.4637 C   0  0  0  0  0  0  0  0  0  0  0  0
   -0.4394   13.4976   -6.4041 N   0  0  0  0  0  0  0  0  0  0  0  0
    0.1691   12.4146   -6.8015 N   0  0  0  0  0  0  0  0  0  0  0  0
   -0.8034   11.5995   -7.1773 C   0  0  0  0  0  0  0  0  0  0  0  0
    0.3694   14.6144   -5.9538 C   0  0  0  0  0  0  0  0  0  0  0  0
   -3.6497   15.1720  -11.6865 O   0  0  0  0  0  0  0  0  0  0  0  0
   -4.3650   13.6745   -9.7698 O   0  0  0  0  0  0  0  0  0  0  0  0
   -7.3001   12.9568  -11.8241 H   0  0  0  0  0  0  0  0  0  0  0  0
   -6.1257   12.2782   -9.8355 H   0  0  0  0  0  0  0  0  0  0  0  0
   -8.1227   10.1152  -13.9085 H   0  0  0  0  0  0  0  0  0  0  0  0
   -6.8205   12.2414  -14.0656 H   0  0  0  0  0  0  0  0  0  0  0  0
   -8.1107   10.5196   -7.5701 H   0  0  0  0  0  0  0  0  0  0  0  0
   -7.3856    8.8762   -7.5645 H   0  0  0  0  0  0  0  0  0  0  0  0
   -1.9543   12.6728  -11.2554 H   0  0  0  0  0  0  0  0  0  0  0  0
   -3.3298   11.5493  -11.5240 H   0  0  0  0  0  0  0  0  0  0  0  0
   -2.7704   12.6186  -12.8546 H   0  0  0  0  0  0  0  0  0  0  0  0
   -5.3954   13.6013  -13.0734 H   0  0  0  0  0  0  0  0  0  0  0  0
   -4.8884    8.7854   -8.4885 H   0  0  0  0  0  0  0  0  0  0  0  0
   -2.6658    9.7683   -8.0414 H   0  0  0  0  0  0  0  0  0  0  0  0
   -4.5366   13.2900   -6.4643 H   0  0  0  0  0  0  0  0  0  0  0  0
   -6.7612   12.3068   -6.9141 H   0  0  0  0  0  0  0  0  0  0  0  0
   -2.4642   14.2207   -6.1771 H   0  0  0  0  0  0  0  0  0  0  0  0
   -0.6430   10.6154   -7.5924 H   0  0  0  0  0  0  0  0  0  0  0  0
    1.4345   14.3489   -6.0254 H   0  0  0  0  0  0  0  0  0  0  0  0
    0.1671   15.4918   -6.5857 H   0  0  0  0  0  0  0  0  0  0  0  0
    0.1198   14.8498   -4.9087 H   0  0  0  0  0  0  0  0  0  0  0  0
  1  2  1  0  0  0  0
  1  4  1  0  0  0  0
  1 13  1  0  0  0  0
  2  6  2  0  0  0  0
  3  4  2  0  0  0  0
  3  5  1  0  0  0  0
  5  6  1  0  0  0  0
  5  9  2  0  0  0  0
  6  7  1  0  0  0  0
  7  8  2  0  0  0  0
  7 10  1  0  0  0  0
  8  9  1  0  0  0  0
 10 14  1  0  0  0  0
 11 12  1  0  0  0  0
 11 13  1  0  0  0  0
 11 26  2  0  0  0  0
 11 27  2  0  0  0  0
 14 15  2  0  0  0  0
 14 19  1  0  0  0  0
 15 16  1  0  0  0  0
 16 17  2  0  0  0  0
 17 18  1  0  0  0  0
 17 20  1  0  0  0  0
 18 19  2  0  0  0  0
 20 21  2  0  0  0  0
 20 24  1  0  0  0  0
 21 22  1  0  0  0  0
 22 23  1  0  0  0  0
 22 25  1  0  0  0  0
 23 24  2  0  0  0  0
  1 28  1  0  0  0  0
  2 29  1  0  0  0  0
  3 30  1  0  0  0  0
  4 31  1  0  0  0  0
 10 32  1  0  0  0  0
 10 33  1  0  0  0  0
 12 34  1  0  0  0  0
 12 35  1  0  0  0  0
 12 36  1  0  0  0  0
 13 37  1  0  0  0  0
 15 38  1  0  0  0  0
 16 39  1  0  0  0  0
 18 40  1  0  0  0  0
 19 41  1  0  0  0  0
 21 42  1  0  0  0  0
 24 43  1  0  0  0  0
 25 44  1  0  0  0  0
 25 45  1  0  0  0  0
 25 46  1  0  0  0  0
M  END
> <Name>
25

> <IC50[uM]>
0.073

$$$$
25
  -OEChem-05192314333D
 Structure written by MMmdl.
 46 49  0     1  0  0  0  0  0999 V2000
   -6.3861   12.3623  -11.9697 C   0  0  0  0  0  0  0  0  0  0  0  0
   -6.5480   11.8020  -10.7080 C   0  0  0  0  0  0  0  0  0  0  0  0
   -7.6869   10.5726  -13.0325 C   0  0  0  0  0  0  0  0  0  0  0  0
   -6.9529   11.7665  -13.1047 C   0  0  0  0  0  0  0  0  0  0  0  0
   -7.8210   10.0086  -11.7556 C   0  0  0  0  0  0  0  0  0  0  0  0
   -7.2636   10.6177  -10.5919 C   0  0  0  0  0  0  0  0  0  0  0  0
   -7.6330    9.7421   -9.5104 C   0  0  3  0  0  0  0  0  0  0  0  0
   -8.3023    8.7332   -9.9897 N   0  0  0  0  0  0  0  0  0  0  0  0
   -8.4342    8.8678  -11.3051 N   0  0  0  0  0  0  0  0  0  0  0  0
   -7.3415    9.8758   -8.0215 C   0  0  0  0  0  0  0  0  0  0  0  0
   -4.1211   13.8754  -11.2000 S   0  0  0  0  0  0  0  0  0  0  0  0
   -2.9188   12.5402  -11.7675 C   0  0  0  0  0  0  0  0  0  0  0  0
   -5.6382   13.5428  -12.1051 N   0  0  0  0  0  0  0  0  0  0  0  0
   -5.9683   10.4827   -7.7344 C   0  0  0  0  0  0  0  0  0  0  0  0
   -4.8123    9.7690   -8.0490 C   0  0  0  0  0  0  0  0  0  0  0  0
   -3.5592   10.3237   -7.7969 C   0  0  0  0  0  0  0  0  0  0  0  0
   -3.4543   11.5962   -7.2288 C   0  0  0  0  0  0  0  0  0  0  0  0
   -4.6126   12.3085   -6.9084 C   0  0  0  0  0  0  0  0  0  0  0  0
   -5.8671   11.7538   -7.1613 C   0  0  0  0  0  0  0  0  0  0  0  0
   -2.1058   12.1871   -6.9644 C   0  0  0  0  0  0  0  0  0  0  0  0
   -1.7745   13.4406   -6.4637 C   0  0  0  0  0  0  0  0  0  0  0  0
   -0.4394   13.4976   -6.4041 N   0  0  0  0  0  0  0  0  0  0  0  0
    0.1691   12.4146   -6.8015 N   0  0  0  0  0  0  0  0  0  0  0  0
   -0.8034   11.5995   -7.1773 C   0  0  0  0  0  0  0  0  0  0  0  0
    0.3694   14.6144   -5.9538 C   0  0  0  0  0  0  0  0  0  0  0  0
   -3.6497   15.1720  -11.6865 O   0  0  0  0  0  0  0  0  0  0  0  0
   -4.3650   13.6745   -9.7698 O   0  0  0  0  0  0  0  0  0  0  0  0
   -6.1257   12.2782   -9.8355 H   0  0  0  0  0  0  0  0  0  0  0  0
   -8.1227   10.1152  -13.9085 H   0  0  0  0  0  0  0  0  0  0  0  0
   -6.8205   12.2414  -14.0656 H   0  0  0  0  0  0  0  0  0  0  0  0
   -8.5708   10.3015   -9.3774 H   0  0  0  0  0  0  0  0  0  0  0  0
   -7.8128    7.8844   -9.7898 H   0  0  0  0  0  0  0  0  0  0  0  0
   -8.1107   10.5196   -7.5701 H   0  0  0  0  0  0  0  0  0  0  0  0
   -7.3856    8.8762   -7.5645 H   0  0  0  0  0  0  0  0  0  0  0  0
   -1.9543   12.6728  -11.2554 H   0  0  0  0  0  0  0  0  0  0  0  0
   -3.3298   11.5493  -11.5240 H   0  0  0  0  0  0  0  0  0  0  0  0
   -2.7704   12.6186  -12.8546 H   0  0  0  0  0  0  0  0  0  0  0  0
   -4.8884    8.7854   -8.4885 H   0  0  0  0  0  0  0  0  0  0  0  0
   -2.6658    9.7683   -8.0414 H   0  0  0  0  0  0  0  0  0  0  0  0
   -4.5366   13.2900   -6.4643 H   0  0  0  0  0  0  0  0  0  0  0  0
   -6.7612   12.3068   -6.9141 H   0  0  0  0  0  0  0  0  0  0  0  0
   -2.4642   14.2207   -6.1771 H   0  0  0  0  0  0  0  0  0  0  0  0
   -0.6430   10.6154   -7.5924 H   0  0  0  0  0  0  0  0  0  0  0  0
    1.4345   14.3489   -6.0254 H   0  0  0  0  0  0  0  0  0  0  0  0
    0.1671   15.4918   -6.5857 H   0  0  0  0  0  0  0  0  0  0  0  0
    0.1198   14.8498   -4.9087 H   0  0  0  0  0  0  0  0  0  0  0  0
  1  2  1  0  0  0  0
  1  4  1  0  0  0  0
  1 13  2  3  0  0  0
  2  6  2  0  0  0  0
  3  4  2  0  0  0  0
  3  5  1  0  0  0  0
  5  6  1  0  0  0  0
  5  9  2  0  0  0  0
  6  7  1  0  0  0  0
  7  8  1  0  0  0  0
  7 10  1  0  0  0  0
  8  9  1  0  0  0  0
 10 14  1  0  0  0  0
 11 12  1  0  0  0  0
 11 13  1  0  0  0  0
 11 26  2  0  0  0  0
 11 27  2  0  0  0  0
 14 15  2  0  0  0  0
 14 19  1  0  0  0  0
 15 16  1  0  0  0  0
 16 17  2  0  0  0  0
 17 18  1  0  0  0  0
 17 20  1  0  0  0  0
 18 19  2  0  0  0  0
 20 21  2  0  0  0  0
 20 24  1  0  0  0  0
 21 22  1  0  0  0  0
 22 23  1  0  0  0  0
 22 25  1  0  0  0  0
 23 24  2  0  0  0  0
  2 28  1  0  0  0  0
  3 29  1  0  0  0  0
  4 30  1  0  0  0  0
  7 31  1  0  0  0  0
  8 32  1  0  0  0  0
 10 33  1  0  0  0  0
 10 34  1  0  0  0  0
 12 35  1  0  0  0  0
 12 36  1  0  0  0  0
 12 37  1  0  0  0  0
 15 38  1  0  0  0  0
 16 39  1  0  0  0  0
 18 40  1  0  0  0  0
 19 41  1  0  0  0  0
 21 42  1  0  0  0  0
 24 43  1  0  0  0  0
 25 44  1  0  0  0  0
 25 45  1  0  0  0  0
 25 46  1  0  0  0  0
M  END
> <Name>
25

> <IC50[uM]>
0.073

$$$$
25
  -OEChem-05192314333D
 Structure written by MMmdl.
 46 49  0     1  0  0  0  0  0999 V2000
   -6.3861   12.3623  -11.9697 C   0  0  0  0  0  0  0  0  0  0  0  0
   -6.5480   11.8020  -10.7080 C   0  0  0  0  0  0  0  0  0  0  0  0
   -7.6869   10.5726  -13.0325 C   0  0  0  0  0  0  0  0  0  0  0  0
   -6.9529   11.7665  -13.1047 C   0  0  0  0  0  0  0  0  0  0  0  0
   -7.8210   10.0086  -11.7556 C   0  0  3  0  0  0  0  0  0  0  0  0
   -7.2636   10.6177  -10.5919 C   0  0  0  0  0  0  0  0  0  0  0  0
   -7.6330    9.7421   -9.5104 C   0  0  0  0  0  0  0  0  0  0  0  0
   -8.3023    8.7332   -9.9897 N   0  0  0  0  0  0  0  0  0  0  0  0
   -8.4342    8.8678  -11.3051 N   0  0  0  0  0  0  0  0  0  0  0  0
   -7.3415    9.8758   -8.0215 C   0  0  0  0  0  0  0  0  0  0  0  0
   -4.1211   13.8754  -11.2000 S   0  0  0  0  0  0  0  0  0  0  0  0
   -2.9188   12.5402  -11.7675 C   0  0  0  0  0  0  0  0  0  0  0  0
   -5.6382   13.5428  -12.1051 N   0  0  0  0  0  0  0  0  0  0  0  0
   -5.9683   10.4827   -7.7344 C   0  0  0  0  0  0  0  0  0  0  0  0
   -4.8123    9.7690   -8.0490 C   0  0  0  0  0  0  0  0  0  0  0  0
   -3.5592   10.3237   -7.7969 C   0  0  0  0  0  0  0  0  0  0  0  0
   -3.4543   11.5962   -7.2288 C   0  0  0  0  0  0  0  0  0  0  0  0
   -4.6126   12.3085   -6.9084 C   0  0  0  0  0  0  0  0  0  0  0  0
   -5.8671   11.7538   -7.1613 C   0  0  0  0  0  0  0  0  0  0  0  0
   -2.1058   12.1871   -6.9644 C   0  0  0  0  0  0  0  0  0  0  0  0
   -1.7745   13.4406   -6.4637 C   0  0  0  0  0  0  0  0  0  0  0  0
   -0.4394   13.4976   -6.4041 N   0  0  0  0  0  0  0  0  0  0  0  0
    0.1691   12.4146   -6.8015 N   0  0  0  0  0  0  0  0  0  0  0  0
   -0.8034   11.5995   -7.1773 C   0  0  0  0  0  0  0  0  0  0  0  0
    0.3694   14.6144   -5.9538 C   0  0  0  0  0  0  0  0  0  0  0  0
   -3.6497   15.1720  -11.6865 O   0  0  0  0  0  0  0  0  0  0  0  0
   -4.3650   13.6745   -9.7698 O   0  0  0  0  0  0  0  0  0  0  0  0
   -6.1257   12.2782   -9.8355 H   0  0  0  0  0  0  0  0  0  0  0  0
   -8.1227   10.1152  -13.9085 H   0  0  0  0  0  0  0  0  0  0  0  0
   -6.8205   12.2414  -14.0656 H   0  0  0  0  0  0  0  0  0  0  0  0
   -8.7541   10.5711  -11.6042 H   0  0  0  0  0  0  0  0  0  0  0  0
   -9.4072    8.9103  -11.5318 H   0  0  0  0  0  0  0  0  0  0  0  0
   -8.1107   10.5196   -7.5701 H   0  0  0  0  0  0  0  0  0  0  0  0
   -7.3856    8.8762   -7.5645 H   0  0  0  0  0  0  0  0  0  0  0  0
   -1.9543   12.6728  -11.2554 H   0  0  0  0  0  0  0  0  0  0  0  0
   -3.3298   11.5493  -11.5240 H   0  0  0  0  0  0  0  0  0  0  0  0
   -2.7704   12.6186  -12.8546 H   0  0  0  0  0  0  0  0  0  0  0  0
   -4.8884    8.7854   -8.4885 H   0  0  0  0  0  0  0  0  0  0  0  0
   -2.6658    9.7683   -8.0414 H   0  0  0  0  0  0  0  0  0  0  0  0
   -4.5366   13.2900   -6.4643 H   0  0  0  0  0  0  0  0  0  0  0  0
   -6.7612   12.3068   -6.9141 H   0  0  0  0  0  0  0  0  0  0  0  0
   -2.4642   14.2207   -6.1771 H   0  0  0  0  0  0  0  0  0  0  0  0
   -0.6430   10.6154   -7.5924 H   0  0  0  0  0  0  0  0  0  0  0  0
    1.4345   14.3489   -6.0254 H   0  0  0  0  0  0  0  0  0  0  0  0
    0.1671   15.4918   -6.5857 H   0  0  0  0  0  0  0  0  0  0  0  0
    0.1198   14.8498   -4.9087 H   0  0  0  0  0  0  0  0  0  0  0  0
  1  2  1  0  0  0  0
  1  4  1  0  0  0  0
  1 13  2  3  0  0  0
  2  6  2  0  0  0  0
  3  4  2  0  0  0  0
  3  5  1  0  0  0  0
  5  6  1  0  0  0  0
  5  9  1  0  0  0  0
  6  7  1  0  0  0  0
  7  8  2  0  0  0  0
  7 10  1  0  0  0  0
  8  9  1  0  0  0  0
 10 14  1  0  0  0  0
 11 12  1  0  0  0  0
 11 13  1  0  0  0  0
 11 26  2  0  0  0  0
 11 27  2  0  0  0  0
 14 15  2  0  0  0  0
 14 19  1  0  0  0  0
 15 16  1  0  0  0  0
 16 17  2  0  0  0  0
 17 18  1  0  0  0  0
 17 20  1  0  0  0  0
 18 19  2  0  0  0  0
 20 21  2  0  0  0  0
 20 24  1  0  0  0  0
 21 22  1  0  0  0  0
 22 23  1  0  0  0  0
 22 25  1  0  0  0  0
 23 24  2  0  0  0  0
  2 28  1  0  0  0  0
  3 29  1  0  0  0  0
  4 30  1  0  0  0  0
  5 31  1  0  0  0  0
  9 32  1  0  0  0  0
 10 33  1  0  0  0  0
 10 34  1  0  0  0  0
 12 35  1  0  0  0  0
 12 36  1  0  0  0  0
 12 37  1  0  0  0  0
 15 38  1  0  0  0  0
 16 39  1  0  0  0  0
 18 40  1  0  0  0  0
 19 41  1  0  0  0  0
 21 42  1  0  0  0  0
 24 43  1  0  0  0  0
 25 44  1  0  0  0  0
 25 45  1  0  0  0  0
 25 46  1  0  0  0  0
M  END
> <Name>
25

> <IC50[uM]>
0.073

$$$$
25
  -OEChem-05192314333D
 Structure written by MMmdl.
 46 49  0     0  0  0  0  0  0999 V2000
   -6.3861   12.3623  -11.9697 C   0  0  0  0  0  0  0  0  0  0  0  0
   -6.5480   11.8020  -10.7080 C   0  0  0  0  0  0  0  0  0  0  0  0
   -7.6869   10.5726  -13.0325 C   0  0  0  0  0  0  0  0  0  0  0  0
   -6.9529   11.7665  -13.1047 C   0  0  0  0  0  0  0  0  0  0  0  0
   -7.8210   10.0086  -11.7556 C   0  0  0  0  0  0  0  0  0  0  0  0
   -7.2636   10.6177  -10.5919 C   0  0  0  0  0  0  0  0  0  0  0  0
   -7.6330    9.7421   -9.5104 C   0  0  0  0  0  0  0  0  0  0  0  0
   -8.3023    8.7332   -9.9897 N   0  0  0  0  0  0  0  0  0  0  0  0
   -8.4342    8.8678  -11.3051 N   0  0  0  0  0  0  0  0  0  0  0  0
   -7.3415    9.8758   -8.0215 C   0  0  0  0  0  0  0  0  0  0  0  0
   -4.1211   13.8754  -11.2000 S   0  0  0  0  0  0  0  0  0  0  0  0
   -2.9188   12.5402  -11.7675 C   0  0  0  0  0  0  0  0  0  0  0  0
   -5.6382   13.5428  -12.1051 N   0  0  0  0  0  0  0  0  0  0  0  0
   -5.9683   10.4827   -7.7344 C   0  0  0  0  0  0  0  0  0  0  0  0
   -4.8123    9.7690   -8.0490 C   0  0  0  0  0  0  0  0  0  0  0  0
   -3.5592   10.3237   -7.7969 C   0  0  0  0  0  0  0  0  0  0  0  0
   -3.4543   11.5962   -7.2288 C   0  0  0  0  0  0  0  0  0  0  0  0
   -4.6126   12.3085   -6.9084 C   0  0  0  0  0  0  0  0  0  0  0  0
   -5.8671   11.7538   -7.1613 C   0  0  0  0  0  0  0  0  0  0  0  0
   -2.1058   12.1871   -6.9644 C   0  0  0  0  0  0  0  0  0  0  0  0
   -1.7745   13.4406   -6.4637 C   0  0  0  0  0  0  0  0  0  0  0  0
   -0.4394   13.4976   -6.4041 N   0  0  0  0  0  0  0  0  0  0  0  0
    0.1691   12.4146   -6.8015 N   0  0  0  0  0  0  0  0  0  0  0  0
   -0.8034   11.5995   -7.1773 C   0  0  0  0  0  0  0  0  0  0  0  0
    0.3694   14.6144   -5.9538 C   0  0  0  0  0  0  0  0  0  0  0  0
   -3.6497   15.1720  -11.6865 O   0  0  0  0  0  0  0  0  0  0  0  0
   -4.3650   13.6745   -9.7698 O   0  0  0  0  0  0  0  0  0  0  0  0
   -6.1257   12.2782   -9.8355 H   0  0  0  0  0  0  0  0  0  0  0  0
   -8.6969   10.7748  -13.4186 H   0  0  0  0  0  0  0  0  0  0  0  0
   -7.1895    9.8325  -13.6766 H   0  0  0  0  0  0  0  0  0  0  0  0
   -6.8205   12.2414  -14.0656 H   0  0  0  0  0  0  0  0  0  0  0  0
   -8.1107   10.5196   -7.5701 H   0  0  0  0  0  0  0  0  0  0  0  0
   -7.3856    8.8762   -7.5645 H   0  0  0  0  0  0  0  0  0  0  0  0
   -1.9543   12.6728  -11.2554 H   0  0  0  0  0  0  0  0  0  0  0  0
   -3.3298   11.5493  -11.5240 H   0  0  0  0  0  0  0  0  0  0  0  0
   -2.7704   12.6186  -12.8546 H   0  0  0  0  0  0  0  0  0  0  0  0
   -5.3954   13.6013  -13.0734 H   0  0  0  0  0  0  0  0  0  0  0  0
   -4.8884    8.7854   -8.4885 H   0  0  0  0  0  0  0  0  0  0  0  0
   -2.6658    9.7683   -8.0414 H   0  0  0  0  0  0  0  0  0  0  0  0
   -4.5366   13.2900   -6.4643 H   0  0  0  0  0  0  0  0  0  0  0  0
   -6.7612   12.3068   -6.9141 H   0  0  0  0  0  0  0  0  0  0  0  0
   -2.4642   14.2207   -6.1771 H   0  0  0  0  0  0  0  0  0  0  0  0
   -0.6430   10.6154   -7.5924 H   0  0  0  0  0  0  0  0  0  0  0  0
    1.4345   14.3489   -6.0254 H   0  0  0  0  0  0  0  0  0  0  0  0
    0.1671   15.4918   -6.5857 H   0  0  0  0  0  0  0  0  0  0  0  0
    0.1198   14.8498   -4.9087 H   0  0  0  0  0  0  0  0  0  0  0  0
  1  2  1  0  0  0  0
  1  4  2  0  0  0  0
  1 13  1  0  0  0  0
  2  6  2  0  0  0  0
  3  4  1  0  0  0  0
  3  5  1  0  0  0  0
  5  6  1  0  0  0  0
  5  9  2  0  0  0  0
  6  7  1  0  0  0  0
  7  8  2  0  0  0  0
  7 10  1  0  0  0  0
  8  9  1  0  0  0  0
 10 14  1  0  0  0  0
 11 12  1  0  0  0  0
 11 13  1  0  0  0  0
 11 26  2  0  0  0  0
 11 27  2  0  0  0  0
 14 15  2  0  0  0  0
 14 19  1  0  0  0  0
 15 16  1  0  0  0  0
 16 17  2  0  0  0  0
 17 18  1  0  0  0  0
 17 20  1  0  0  0  0
 18 19  2  0  0  0  0
 20 21  2  0  0  0  0
 20 24  1  0  0  0  0
 21 22  1  0  0  0  0
 22 23  1  0  0  0  0
 22 25  1  0  0  0  0
 23 24  2  0  0  0  0
  2 28  1  0  0  0  0
  3 29  1  0  0  0  0
  3 30  1  0  0  0  0
  4 31  1  0  0  0  0
 10 32  1  0  0  0  0
 10 33  1  0  0  0  0
 12 34  1  0  0  0  0
 12 35  1  0  0  0  0
 12 36  1  0  0  0  0
 13 37  1  0  0  0  0
 15 38  1  0  0  0  0
 16 39  1  0  0  0  0
 18 40  1  0  0  0  0
 19 41  1  0  0  0  0
 21 42  1  0  0  0  0
 24 43  1  0  0  0  0
 25 44  1  0  0  0  0
 25 45  1  0  0  0  0
 25 46  1  0  0  0  0
M  END
> <Name>
25

> <IC50[uM]>
0.073

$$$$
25
  -OEChem-05192314333D
 Structure written by MMmdl.
 46 49  0     0  0  0  0  0  0999 V2000
   -6.3861   12.3623  -11.9697 C   0  0  0  0  0  0  0  0  0  0  0  0
   -6.5480   11.8020  -10.7080 C   0  0  0  0  0  0  0  0  0  0  0  0
   -7.6869   10.5726  -13.0325 C   0  0  0  0  0  0  0  0  0  0  0  0
   -6.9529   11.7665  -13.1047 C   0  0  0  0  0  0  0  0  0  0  0  0
   -7.8210   10.0086  -11.7556 C   0  0  0  0  0  0  0  0  0  0  0  0
   -7.2636   10.6177  -10.5919 C   0  0  0  0  0  0  0  0  0  0  0  0
   -7.6330    9.7421   -9.5104 C   0  0  0  0  0  0  0  0  0  0  0  0
   -8.3023    8.7332   -9.9897 N   0  0  0  0  0  0  0  0  0  0  0  0
   -8.4342    8.8678  -11.3051 N   0  0  0  0  0  0  0  0  0  0  0  0
   -7.3415    9.8758   -8.0215 C   0  0  0  0  0  0  0  0  0  0  0  0
   -4.1211   13.8754  -11.2000 S   0  0  0  0  0  0  0  0  0  0  0  0
   -2.9188   12.5402  -11.7675 C   0  0  0  0  0  0  0  0  0  0  0  0
   -5.6382   13.5428  -12.1051 N   0  0  0  0  0  0  0  0  0  0  0  0
   -5.9683   10.4827   -7.7344 C   0  0  0  0  0  0  0  0  0  0  0  0
   -4.8123    9.7690   -8.0490 C   0  0  0  0  0  0  0  0  0  0  0  0
   -3.5592   10.3237   -7.7969 C   0  0  0  0  0  0  0  0  0  0  0  0
   -3.4543   11.5962   -7.2288 C   0  0  0  0  0  0  0  0  0  0  0  0
   -4.6126   12.3085   -6.9084 C   0  0  0  0  0  0  0  0  0  0  0  0
   -5.8671   11.7538   -7.1613 C   0  0  0  0  0  0  0  0  0  0  0  0
   -2.1058   12.1871   -6.9644 C   0  0  0  0  0  0  0  0  0  0  0  0
   -1.7745   13.4406   -6.4637 C   0  0  0  0  0  0  0  0  0  0  0  0
   -0.4394   13.4976   -6.4041 N   0  0  0  0  0  0  0  0  0  0  0  0
    0.1691   12.4146   -6.8015 N   0  0  0  0  0  0  0  0  0  0  0  0
   -0.8034   11.5995   -7.1773 C   0  0  0  0  0  0  0  0  0  0  0  0
    0.3694   14.6144   -5.9538 C   0  0  0  0  0  0  0  0  0  0  0  0
   -3.6497   15.1720  -11.6865 O   0  0  0  0  0  0  0  0  0  0  0  0
   -4.3650   13.6745   -9.7698 O   0  0  0  0  0  0  0  0  0  0  0  0
   -6.1257   12.2782   -9.8355 H   0  0  0  0  0  0  0  0  0  0  0  0
   -8.1227   10.1152  -13.9085 H   0  0  0  0  0  0  0  0  0  0  0  0
   -6.8205   12.2414  -14.0656 H   0  0  0  0  0  0  0  0  0  0  0  0
   -8.0330    9.5733   -7.2490 H   0  0  0  0  0  0  0  0  0  0  0  0
   -1.9543   12.6728  -11.2554 H   0  0  0  0  0  0  0  0  0  0  0  0
   -3.3298   11.5493  -11.5240 H   0  0  0  0  0  0  0  0  0  0  0  0
   -2.7704   12.6186  -12.8546 H   0  0  0  0  0  0  0  0  0  0  0  0
   -5.3954   13.6013  -13.0734 H   0  0  0  0  0  0  0  0  0  0  0  0
   -5.9765   10.0300   -6.7319 H   0  0  0  0  0  0  0  0  0  0  0  0
   -4.8884    8.7854   -8.4885 H   0  0  0  0  0  0  0  0  0  0  0  0
   -2.6658    9.7683   -8.0414 H   0  0  0  0  0  0  0  0  0  0  0  0
   -3.4550   12.0453   -8.2329 H   0  0  0  0  0  0  0  0  0  0  0  0
   -4.5366   13.2900   -6.4643 H   0  0  0  0  0  0  0  0  0  0  0  0
   -6.7612   12.3068   -6.9141 H   0  0  0  0  0  0  0  0  0  0  0  0
   -2.4642   14.2207   -6.1771 H   0  0  0  0  0  0  0  0  0  0  0  0
   -0.6430   10.6154   -7.5924 H   0  0  0  0  0  0  0  0  0  0  0  0
    1.4345   14.3489   -6.0254 H   0  0  0  0  0  0  0  0  0  0  0  0
    0.1671   15.4918   -6.5857 H   0  0  0  0  0  0  0  0  0  0  0  0
    0.1198   14.8498   -4.9087 H   0  0  0  0  0  0  0  0  0  0  0  0
  1  2  2  0  0  0  0
  1  4  1  0  0  0  0
  1 13  1  0  0  0  0
  2  6  1  0  0  0  0
  3  4  2  0  0  0  0
  3  5  1  0  0  0  0
  5  6  2  0  0  0  0
  5  9  1  0  0  0  0
  6  7  1  0  0  0  0
  7  8  1  0  0  0  0
  7 10  2  3  0  0  0
  8  9  2  0  0  0  0
 10 14  1  0  0  0  0
 11 12  1  0  0  0  0
 11 13  1  0  0  0  0
 11 26  2  0  0  0  0
 11 27  2  0  0  0  0
 14 15  1  0  0  0  0
 14 19  1  0  0  0  0
 15 16  2  0  0  0  0
 16 17  1  0  0  0  0
 17 18  1  0  0  0  0
 17 20  1  0  0  0  0
 18 19  2  0  0  0  0
 20 21  2  0  0  0  0
 20 24  1  0  0  0  0
 21 22  1  0  0  0  0
 22 23  1  0  0  0  0
 22 25  1  0  0  0  0
 23 24  2  0  0  0  0
  2 28  1  0  0  0  0
  3 29  1  0  0  0  0
  4 30  1  0  0  0  0
 10 31  1  0  0  0  0
 12 32  1  0  0  0  0
 12 33  1  0  0  0  0
 12 34  1  0  0  0  0
 13 35  1  0  0  0  0
 14 36  1  0  0  0  0
 15 37  1  0  0  0  0
 16 38  1  0  0  0  0
 17 39  1  0  0  0  0
 18 40  1  0  0  0  0
 19 41  1  0  0  0  0
 21 42  1  0  0  0  0
 24 43  1  0  0  0  0
 25 44  1  0  0  0  0
 25 45  1  0  0  0  0
 25 46  1  0  0  0  0
M  END
> <Name>
25

> <IC50[uM]>
0.073

$$$$
25
  -OEChem-05192314333D
 Structure written by MMmdl.
 46 49  0     1  0  0  0  0  0999 V2000
   -6.3861   12.3623  -11.9697 C   0  0  0  0  0  0  0  0  0  0  0  0
   -6.5480   11.8020  -10.7080 C   0  0  0  0  0  0  0  0  0  0  0  0
   -7.6869   10.5726  -13.0325 C   0  0  0  0  0  0  0  0  0  0  0  0
   -6.9529   11.7665  -13.1047 C   0  0  0  0  0  0  0  0  0  0  0  0
   -7.8210   10.0086  -11.7556 C   0  0  0  0  0  0  0  0  0  0  0  0
   -7.2636   10.6177  -10.5919 C   0  0  0  0  0  0  0  0  0  0  0  0
   -7.6330    9.7421   -9.5104 C   0  0  3  0  0  0  0  0  0  0  0  0
   -8.3023    8.7332   -9.9897 N   0  0  0  0  0  0  0  0  0  0  0  0
   -8.4342    8.8678  -11.3051 N   0  0  0  0  0  0  0  0  0  0  0  0
   -7.3415    9.8758   -8.0215 C   0  0  0  0  0  0  0  0  0  0  0  0
   -4.1211   13.8754  -11.2000 S   0  0  0  0  0  0  0  0  0  0  0  0
   -2.9188   12.5402  -11.7675 C   0  0  0  0  0  0  0  0  0  0  0  0
   -5.6382   13.5428  -12.1051 N   0  0  0  0  0  0  0  0  0  0  0  0
   -5.9683   10.4827   -7.7344 C   0  0  0  0  0  0  0  0  0  0  0  0
   -4.8123    9.7690   -8.0490 C   0  0  0  0  0  0  0  0  0  0  0  0
   -3.5592   10.3237   -7.7969 C   0  0  0  0  0  0  0  0  0  0  0  0
   -3.4543   11.5962   -7.2288 C   0  0  0  0  0  0  0  0  0  0  0  0
   -4.6126   12.3085   -6.9084 C   0  0  0  0  0  0  0  0  0  0  0  0
   -5.8671   11.7538   -7.1613 C   0  0  0  0  0  0  0  0  0  0  0  0
   -2.1058   12.1871   -6.9644 C   0  0  0  0  0  0  0  0  0  0  0  0
   -1.7745   13.4406   -6.4637 C   0  0  0  0  0  0  0  0  0  0  0  0
   -0.4394   13.4976   -6.4041 N   0  0  0  0  0  0  0  0  0  0  0  0
    0.1691   12.4146   -6.8015 N   0  0  0  0  0  0  0  0  0  0  0  0
   -0.8034   11.5995   -7.1773 C   0  0  0  0  0  0  0  0  0  0  0  0
    0.3694   14.6144   -5.9538 C   0  0  0  0  0  0  0  0  0  0  0  0
   -3.6497   15.1720  -11.6865 O   0  0  0  0  0  0  0  0  0  0  0  0
   -4.3650   13.6745   -9.7698 O   0  0  0  0  0  0  0  0  0  0  0  0
   -6.1257   12.2782   -9.8355 H   0  0  0  0  0  0  0  0  0  0  0  0
   -8.1227   10.1152  -13.9085 H   0  0  0  0  0  0  0  0  0  0  0  0
   -6.8205   12.2414  -14.0656 H   0  0  0  0  0  0  0  0  0  0  0  0
   -8.5708   10.3015   -9.3774 H   0  0  0  0  0  0  0  0  0  0  0  0
   -8.0330    9.5733   -7.2490 H   0  0  0  0  0  0  0  0  0  0  0  0
   -1.9543   12.6728  -11.2554 H   0  0  0  0  0  0  0  0  0  0  0  0
   -3.3298   11.5493  -11.5240 H   0  0  0  0  0  0  0  0  0  0  0  0
   -2.7704   12.6186  -12.8546 H   0  0  0  0  0  0  0  0  0  0  0  0
   -5.3954   13.6013  -13.0734 H   0  0  0  0  0  0  0  0  0  0  0  0
   -4.8884    8.7854   -8.4885 H   0  0  0  0  0  0  0  0  0  0  0  0
   -2.6658    9.7683   -8.0414 H   0  0  0  0  0  0  0  0  0  0  0  0
   -3.4550   12.0453   -8.2329 H   0  0  0  0  0  0  0  0  0  0  0  0
   -4.5366   13.2900   -6.4643 H   0  0  0  0  0  0  0  0  0  0  0  0
   -6.7612   12.3068   -6.9141 H   0  0  0  0  0  0  0  0  0  0  0  0
   -2.4642   14.2207   -6.1771 H   0  0  0  0  0  0  0  0  0  0  0  0
   -0.6430   10.6154   -7.5924 H   0  0  0  0  0  0  0  0  0  0  0  0
    1.4345   14.3489   -6.0254 H   0  0  0  0  0  0  0  0  0  0  0  0
    0.1671   15.4918   -6.5857 H   0  0  0  0  0  0  0  0  0  0  0  0
    0.1198   14.8498   -4.9087 H   0  0  0  0  0  0  0  0  0  0  0  0
  1  2  2  0  0  0  0
  1  4  1  0  0  0  0
  1 13  1  0  0  0  0
  2  6  1  0  0  0  0
  3  4  2  0  0  0  0
  3  5  1  0  0  0  0
  5  6  2  0  0  0  0
  5  9  1  0  0  0  0
  6  7  1  0  0  0  0
  7  8  1  0  0  0  0
  7 10  1  0  0  0  0
  8  9  2  0  0  0  0
 10 14  2  0  0  0  0
 11 12  1  0  0  0  0
 11 13  1  0  0  0  0
 11 26  2  0  0  0  0
 11 27  2  0  0  0  0
 14 15  1  0  0  0  0
 14 19  1  0  0  0  0
 15 16  2  0  0  0  0
 16 17  1  0  0  0  0
 17 18  1  0  0  0  0
 17 20  1  0  0  0  0
 18 19  2  0  0  0  0
 20 21  2  0  0  0  0
 20 24  1  0  0  0  0
 21 22  1  0  0  0  0
 22 23  1  0  0  0  0
 22 25  1  0  0  0  0
 23 24  2  0  0  0  0
  2 28  1  0  0  0  0
  3 29  1  0  0  0  0
  4 30  1  0  0  0  0
  7 31  1  0  0  0  0
 10 32  1  0  0  0  0
 12 33  1  0  0  0  0
 12 34  1  0  0  0  0
 12 35  1  0  0  0  0
 13 36  1  0  0  0  0
 15 37  1  0  0  0  0
 16 38  1  0  0  0  0
 17 39  1  0  0  0  0
 18 40  1  0  0  0  0
 19 41  1  0  0  0  0
 21 42  1  0  0  0  0
 24 43  1  0  0  0  0
 25 44  1  0  0  0  0
 25 45  1  0  0  0  0
 25 46  1  0  0  0  0
M  END
> <Name>
25

> <IC50[uM]>
0.073

$$$$
25
  -OEChem-05192314333D
 Structure written by MMmdl.
 46 49  0     1  0  0  0  0  0999 V2000
   -6.3861   12.3623  -11.9697 C   0  0  0  0  0  0  0  0  0  0  0  0
   -6.5480   11.8020  -10.7080 C   0  0  0  0  0  0  0  0  0  0  0  0
   -7.6869   10.5726  -13.0325 C   0  0  0  0  0  0  0  0  0  0  0  0
   -6.9529   11.7665  -13.1047 C   0  0  0  0  0  0  0  0  0  0  0  0
   -7.8210   10.0086  -11.7556 C   0  0  3  0  0  0  0  0  0  0  0  0
   -7.2636   10.6177  -10.5919 C   0  0  3  0  0  0  0  0  0  0  0  0
   -7.6330    9.7421   -9.5104 C   0  0  0  0  0  0  0  0  0  0  0  0
   -8.3023    8.7332   -9.9897 N   0  0  0  0  0  0  0  0  0  0  0  0
   -8.4342    8.8678  -11.3051 N   0  0  0  0  0  0  0  0  0  0  0  0
   -7.3415    9.8758   -8.0215 C   0  0  0  0  0  0  0  0  0  0  0  0
   -4.1211   13.8754  -11.2000 S   0  0  0  0  0  0  0  0  0  0  0  0
   -2.9188   12.5402  -11.7675 C   0  0  0  0  0  0  0  0  0  0  0  0
   -5.6382   13.5428  -12.1051 N   0  0  0  0  0  0  0  0  0  0  0  0
   -5.9683   10.4827   -7.7344 C   0  0  0  0  0  0  0  0  0  0  0  0
   -4.8123    9.7690   -8.0490 C   0  0  0  0  0  0  0  0  0  0  0  0
   -3.5592   10.3237   -7.7969 C   0  0  0  0  0  0  0  0  0  0  0  0
   -3.4543   11.5962   -7.2288 C   0  0  0  0  0  0  0  0  0  0  0  0
   -4.6126   12.3085   -6.9084 C   0  0  0  0  0  0  0  0  0  0  0  0
   -5.8671   11.7538   -7.1613 C   0  0  0  0  0  0  0  0  0  0  0  0
   -2.1058   12.1871   -6.9644 C   0  0  0  0  0  0  0  0  0  0  0  0
   -1.7745   13.4406   -6.4637 C   0  0  0  0  0  0  0  0  0  0  0  0
   -0.4394   13.4976   -6.4041 N   0  0  0  0  0  0  0  0  0  0  0  0
    0.1691   12.4146   -6.8015 N   0  0  0  0  0  0  0  0  0  0  0  0
   -0.8034   11.5995   -7.1773 C   0  0  0  0  0  0  0  0  0  0  0  0
    0.3694   14.6144   -5.9538 C   0  0  0  0  0  0  0  0  0  0  0  0
   -3.6497   15.1720  -11.6865 O   0  0  0  0  0  0  0  0  0  0  0  0
   -4.3650   13.6745   -9.7698 O   0  0  0  0  0  0  0  0  0  0  0  0
   -6.1257   12.2782   -9.8355 H   0  0  0  0  0  0  0  0  0  0  0  0
   -8.1227   10.1152  -13.9085 H   0  0  0  0  0  0  0  0  0  0  0  0
   -6.8205   12.2414  -14.0656 H   0  0  0  0  0  0  0  0  0  0  0  0
   -8.7541   10.5711  -11.6042 H   0  0  0  0  0  0  0  0  0  0  0  0
   -8.1911   11.1909  -10.4462 H   0  0  0  0  0  0  0  0  0  0  0  0
   -8.0330    9.5733   -7.2490 H   0  0  0  0  0  0  0  0  0  0  0  0
   -1.9543   12.6728  -11.2554 H   0  0  0  0  0  0  0  0  0  0  0  0
   -3.3298   11.5493  -11.5240 H   0  0  0  0  0  0  0  0  0  0  0  0
   -2.7704   12.6186  -12.8546 H   0  0  0  0  0  0  0  0  0  0  0  0
   -5.3954   13.6013  -13.0734 H   0  0  0  0  0  0  0  0  0  0  0  0
   -4.8884    8.7854   -8.4885 H   0  0  0  0  0  0  0  0  0  0  0  0
   -2.6658    9.7683   -8.0414 H   0  0  0  0  0  0  0  0  0  0  0  0
   -4.5366   13.2900   -6.4643 H   0  0  0  0  0  0  0  0  0  0  0  0
   -6.7612   12.3068   -6.9141 H   0  0  0  0  0  0  0  0  0  0  0  0
   -2.4642   14.2207   -6.1771 H   0  0  0  0  0  0  0  0  0  0  0  0
   -0.6430   10.6154   -7.5924 H   0  0  0  0  0  0  0  0  0  0  0  0
    1.4345   14.3489   -6.0254 H   0  0  0  0  0  0  0  0  0  0  0  0
    0.1671   15.4918   -6.5857 H   0  0  0  0  0  0  0  0  0  0  0  0
    0.1198   14.8498   -4.9087 H   0  0  0  0  0  0  0  0  0  0  0  0
  1  2  2  0  0  0  0
  1  4  1  0  0  0  0
  1 13  1  0  0  0  0
  2  6  1  0  0  0  0
  3  4  2  0  0  0  0
  3  5  1  0  0  0  0
  5  6  1  0  0  0  0
  5  9  1  0  0  0  0
  6  7  1  0  0  0  0
  7  8  1  0  0  0  0
  7 10  2  3  0  0  0
  8  9  2  0  0  0  0
 10 14  1  0  0  0  0
 11 12  1  0  0  0  0
 11 13  1  0  0  0  0
 11 26  2  0  0  0  0
 11 27  2  0  0  0  0
 14 15  2  0  0  0  0
 14 19  1  0  0  0  0
 15 16  1  0  0  0  0
 16 17  2  0  0  0  0
 17 18  1  0  0  0  0
 17 20  1  0  0  0  0
 18 19  2  0  0  0  0
 20 21  2  0  0  0  0
 20 24  1  0  0  0  0
 21 22  1  0  0  0  0
 22 23  1  0  0  0  0
 22 25  1  0  0  0  0
 23 24  2  0  0  0  0
  2 28  1  0  0  0  0
  3 29  1  0  0  0  0
  4 30  1  0  0  0  0
  5 31  1  0  0  0  0
  6 32  1  0  0  0  0
 10 33  1  0  0  0  0
 12 34  1  0  0  0  0
 12 35  1  0  0  0  0
 12 36  1  0  0  0  0
 13 37  1  0  0  0  0
 15 38  1  0  0  0  0
 16 39  1  0  0  0  0
 18 40  1  0  0  0  0
 19 41  1  0  0  0  0
 21 42  1  0  0  0  0
 24 43  1  0  0  0  0
 25 44  1  0  0  0  0
 25 45  1  0  0  0  0
 25 46  1  0  0  0  0
M  END
> <Name>
25

> <IC50[uM]>
0.073

$$$$
25
  -OEChem-05192314333D
 Structure written by MMmdl.
 46 49  0     1  0  0  0  0  0999 V2000
   -6.3861   12.3623  -11.9697 C   0  0  3  0  0  0  0  0  0  0  0  0
   -6.5480   11.8020  -10.7080 C   0  0  0  0  0  0  0  0  0  0  0  0
   -7.6869   10.5726  -13.0325 C   0  0  0  0  0  0  0  0  0  0  0  0
   -6.9529   11.7665  -13.1047 C   0  0  0  0  0  0  0  0  0  0  0  0
   -7.8210   10.0086  -11.7556 C   0  0  3  0  0  0  0  0  0  0  0  0
   -7.2636   10.6177  -10.5919 C   0  0  0  0  0  0  0  0  0  0  0  0
   -7.6330    9.7421   -9.5104 C   0  0  0  0  0  0  0  0  0  0  0  0
   -8.3023    8.7332   -9.9897 N   0  0  0  0  0  0  0  0  0  0  0  0
   -8.4342    8.8678  -11.3051 N   0  0  0  0  0  0  0  0  0  0  0  0
   -7.3415    9.8758   -8.0215 C   0  0  0  0  0  0  0  0  0  0  0  0
   -4.1211   13.8754  -11.2000 S   0  0  0  0  0  0  0  0  0  0  0  0
   -2.9188   12.5402  -11.7675 C   0  0  0  0  0  0  0  0  0  0  0  0
   -5.6382   13.5428  -12.1051 N   0  0  0  0  0  0  0  0  0  0  0  0
   -5.9683   10.4827   -7.7344 C   0  0  0  0  0  0  0  0  0  0  0  0
   -4.8123    9.7690   -8.0490 C   0  0  0  0  0  0  0  0  0  0  0  0
   -3.5592   10.3237   -7.7969 C   0  0  0  0  0  0  0  0  0  0  0  0
   -3.4543   11.5962   -7.2288 C   0  0  0  0  0  0  0  0  0  0  0  0
   -4.6126   12.3085   -6.9084 C   0  0  0  0  0  0  0  0  0  0  0  0
   -5.8671   11.7538   -7.1613 C   0  0  0  0  0  0  0  0  0  0  0  0
   -2.1058   12.1871   -6.9644 C   0  0  0  0  0  0  0  0  0  0  0  0
   -1.7745   13.4406   -6.4637 C   0  0  0  0  0  0  0  0  0  0  0  0
   -0.4394   13.4976   -6.4041 N   0  0  0  0  0  0  0  0  0  0  0  0
    0.1691   12.4146   -6.8015 N   0  0  0  0  0  0  0  0  0  0  0  0
   -0.8034   11.5995   -7.1773 C   0  0  0  0  0  0  0  0  0  0  0  0
    0.3694   14.6144   -5.9538 C   0  0  0  0  0  0  0  0  0  0  0  0
   -3.6497   15.1720  -11.6865 O   0  0  0  0  0  0  0  0  0  0  0  0
   -4.3650   13.6745   -9.7698 O   0  0  0  0  0  0  0  0  0  0  0  0
   -7.3001   12.9568  -11.8241 H   0  0  0  0  0  0  0  0  0  0  0  0
   -6.1257   12.2782   -9.8355 H   0  0  0  0  0  0  0  0  0  0  0  0
   -8.1227   10.1152  -13.9085 H   0  0  0  0  0  0  0  0  0  0  0  0
   -6.8205   12.2414  -14.0656 H   0  0  0  0  0  0  0  0  0  0  0  0
   -8.7541   10.5711  -11.6042 H   0  0  0  0  0  0  0  0  0  0  0  0
   -8.0330    9.5733   -7.2490 H   0  0  0  0  0  0  0  0  0  0  0  0
   -1.9543   12.6728  -11.2554 H   0  0  0  0  0  0  0  0  0  0  0  0
   -3.3298   11.5493  -11.5240 H   0  0  0  0  0  0  0  0  0  0  0  0
   -2.7704   12.6186  -12.8546 H   0  0  0  0  0  0  0  0  0  0  0  0
   -5.3954   13.6013  -13.0734 H   0  0  0  0  0  0  0  0  0  0  0  0
   -4.8884    8.7854   -8.4885 H   0  0  0  0  0  0  0  0  0  0  0  0
   -2.6658    9.7683   -8.0414 H   0  0  0  0  0  0  0  0  0  0  0  0
   -4.5366   13.2900   -6.4643 H   0  0  0  0  0  0  0  0  0  0  0  0
   -6.7612   12.3068   -6.9141 H   0  0  0  0  0  0  0  0  0  0  0  0
   -2.4642   14.2207   -6.1771 H   0  0  0  0  0  0  0  0  0  0  0  0
   -0.6430   10.6154   -7.5924 H   0  0  0  0  0  0  0  0  0  0  0  0
    1.4345   14.3489   -6.0254 H   0  0  0  0  0  0  0  0  0  0  0  0
    0.1671   15.4918   -6.5857 H   0  0  0  0  0  0  0  0  0  0  0  0
    0.1198   14.8498   -4.9087 H   0  0  0  0  0  0  0  0  0  0  0  0
  1  2  1  0  0  0  0
  1  4  1  0  0  0  0
  1 13  1  0  0  0  0
  2  6  2  0  0  0  0
  3  4  2  0  0  0  0
  3  5  1  0  0  0  0
  5  6  1  0  0  0  0
  5  9  1  0  0  0  0
  6  7  1  0  0  0  0
  7  8  1  0  0  0  0
  7 10  2  3  0  0  0
  8  9  2  0  0  0  0
 10 14  1  0  0  0  0
 11 12  1  0  0  0  0
 11 13  1  0  0  0  0
 11 26  2  0  0  0  0
 11 27  2  0  0  0  0
 14 15  2  0  0  0  0
 14 19  1  0  0  0  0
 15 16  1  0  0  0  0
 16 17  2  0  0  0  0
 17 18  1  0  0  0  0
 17 20  1  0  0  0  0
 18 19  2  0  0  0  0
 20 21  2  0  0  0  0
 20 24  1  0  0  0  0
 21 22  1  0  0  0  0
 22 23  1  0  0  0  0
 22 25  1  0  0  0  0
 23 24  2  0  0  0  0
  1 28  1  0  0  0  0
  2 29  1  0  0  0  0
  3 30  1  0  0  0  0
  4 31  1  0  0  0  0
  5 32  1  0  0  0  0
 10 33  1  0  0  0  0
 12 34  1  0  0  0  0
 12 35  1  0  0  0  0
 12 36  1  0  0  0  0
 13 37  1  0  0  0  0
 15 38  1  0  0  0  0
 16 39  1  0  0  0  0
 18 40  1  0  0  0  0
 19 41  1  0  0  0  0
 21 42  1  0  0  0  0
 24 43  1  0  0  0  0
 25 44  1  0  0  0  0
 25 45  1  0  0  0  0
 25 46  1  0  0  0  0
M  END
> <Name>
25

> <IC50[uM]>
0.073

$$$$
25
  -OEChem-05192314333D
 Structure written by MMmdl.
 46 49  0     1  0  0  0  0  0999 V2000
   -6.3861   12.3623  -11.9697 C   0  0  0  0  0  0  0  0  0  0  0  0
   -6.5480   11.8020  -10.7080 C   0  0  0  0  0  0  0  0  0  0  0  0
   -7.6869   10.5726  -13.0325 C   0  0  0  0  0  0  0  0  0  0  0  0
   -6.9529   11.7665  -13.1047 C   0  0  0  0  0  0  0  0  0  0  0  0
   -7.8210   10.0086  -11.7556 C   0  0  3  0  0  0  0  0  0  0  0  0
   -7.2636   10.6177  -10.5919 C   0  0  0  0  0  0  0  0  0  0  0  0
   -7.6330    9.7421   -9.5104 C   0  0  0  0  0  0  0  0  0  0  0  0
   -8.3023    8.7332   -9.9897 N   0  0  0  0  0  0  0  0  0  0  0  0
   -8.4342    8.8678  -11.3051 N   0  0  0  0  0  0  0  0  0  0  0  0
   -7.3415    9.8758   -8.0215 C   0  0  0  0  0  0  0  0  0  0  0  0
   -4.1211   13.8754  -11.2000 S   0  0  0  0  0  0  0  0  0  0  0  0
   -2.9188   12.5402  -11.7675 C   0  0  0  0  0  0  0  0  0  0  0  0
   -5.6382   13.5428  -12.1051 N   0  0  0  0  0  0  0  0  0  0  0  0
   -5.9683   10.4827   -7.7344 C   0  0  0  0  0  0  0  0  0  0  0  0
   -4.8123    9.7690   -8.0490 C   0  0  0  0  0  0  0  0  0  0  0  0
   -3.5592   10.3237   -7.7969 C   0  0  0  0  0  0  0  0  0  0  0  0
   -3.4543   11.5962   -7.2288 C   0  0  0  0  0  0  0  0  0  0  0  0
   -4.6126   12.3085   -6.9084 C   0  0  0  0  0  0  0  0  0  0  0  0
   -5.8671   11.7538   -7.1613 C   0  0  0  0  0  0  0  0  0  0  0  0
   -2.1058   12.1871   -6.9644 C   0  0  0  0  0  0  0  0  0  0  0  0
   -1.7745   13.4406   -6.4637 C   0  0  0  0  0  0  0  0  0  0  0  0
   -0.4394   13.4976   -6.4041 N   0  0  0  0  0  0  0  0  0  0  0  0
    0.1691   12.4146   -6.8015 N   0  0  0  0  0  0  0  0  0  0  0  0
   -0.8034   11.5995   -7.1773 C   0  0  0  0  0  0  0  0  0  0  0  0
    0.3694   14.6144   -5.9538 C   0  0  0  0  0  0  0  0  0  0  0  0
   -3.6497   15.1720  -11.6865 O   0  0  0  0  0  0  0  0  0  0  0  0
   -4.3650   13.6745   -9.7698 O   0  0  0  0  0  0  0  0  0  0  0  0
   -6.1257   12.2782   -9.8355 H   0  0  0  0  0  0  0  0  0  0  0  0
   -8.6969   10.7748  -13.4186 H   0  0  0  0  0  0  0  0  0  0  0  0
   -7.1895    9.8325  -13.6766 H   0  0  0  0  0  0  0  0  0  0  0  0
   -6.8205   12.2414  -14.0656 H   0  0  0  0  0  0  0  0  0  0  0  0
   -8.7541   10.5711  -11.6042 H   0  0  0  0  0  0  0  0  0  0  0  0
   -8.0330    9.5733   -7.2490 H   0  0  0  0  0  0  0  0  0  0  0  0
   -1.9543   12.6728  -11.2554 H   0  0  0  0  0  0  0  0  0  0  0  0
   -3.3298   11.5493  -11.5240 H   0  0  0  0  0  0  0  0  0  0  0  0
   -2.7704   12.6186  -12.8546 H   0  0  0  0  0  0  0  0  0  0  0  0
   -5.3954   13.6013  -13.0734 H   0  0  0  0  0  0  0  0  0  0  0  0
   -4.8884    8.7854   -8.4885 H   0  0  0  0  0  0  0  0  0  0  0  0
   -2.6658    9.7683   -8.0414 H   0  0  0  0  0  0  0  0  0  0  0  0
   -4.5366   13.2900   -6.4643 H   0  0  0  0  0  0  0  0  0  0  0  0
   -6.7612   12.3068   -6.9141 H   0  0  0  0  0  0  0  0  0  0  0  0
   -2.4642   14.2207   -6.1771 H   0  0  0  0  0  0  0  0  0  0  0  0
   -0.6430   10.6154   -7.5924 H   0  0  0  0  0  0  0  0  0  0  0  0
    1.4345   14.3489   -6.0254 H   0  0  0  0  0  0  0  0  0  0  0  0
    0.1671   15.4918   -6.5857 H   0  0  0  0  0  0  0  0  0  0  0  0
    0.1198   14.8498   -4.9087 H   0  0  0  0  0  0  0  0  0  0  0  0
  1  2  1  0  0  0  0
  1  4  2  0  0  0  0
  1 13  1  0  0  0  0
  2  6  2  0  0  0  0
  3  4  1  0  0  0  0
  3  5  1  0  0  0  0
  5  6  1  0  0  0  0
  5  9  1  0  0  0  0
  6  7  1  0  0  0  0
  7  8  1  0  0  0  0
  7 10  2  3  0  0  0
  8  9  2  0  0  0  0
 10 14  1  0  0  0  0
 11 12  1  0  0  0  0
 11 13  1  0  0  0  0
 11 26  2  0  0  0  0
 11 27  2  0  0  0  0
 14 15  2  0  0  0  0
 14 19  1  0  0  0  0
 15 16  1  0  0  0  0
 16 17  2  0  0  0  0
 17 18  1  0  0  0  0
 17 20  1  0  0  0  0
 18 19  2  0  0  0  0
 20 21  2  0  0  0  0
 20 24  1  0  0  0  0
 21 22  1  0  0  0  0
 22 23  1  0  0  0  0
 22 25  1  0  0  0  0
 23 24  2  0  0  0  0
  2 28  1  0  0  0  0
  3 29  1  0  0  0  0
  3 30  1  0  0  0  0
  4 31  1  0  0  0  0
  5 32  1  0  0  0  0
 10 33  1  0  0  0  0
 12 34  1  0  0  0  0
 12 35  1  0  0  0  0
 12 36  1  0  0  0  0
 13 37  1  0  0  0  0
 15 38  1  0  0  0  0
 16 39  1  0  0  0  0
 18 40  1  0  0  0  0
 19 41  1  0  0  0  0
 21 42  1  0  0  0  0
 24 43  1  0  0  0  0
 25 44  1  0  0  0  0
 25 45  1  0  0  0  0
 25 46  1  0  0  0  0
M  END
> <Name>
25

> <IC50[uM]>
0.073

$$$$
25
  -OEChem-05192314333D
 Structure written by MMmdl.
 46 49  0     1  0  0  0  0  0999 V2000
   -6.3861   12.3623  -11.9697 C   0  0  0  0  0  0  0  0  0  0  0  0
   -6.5480   11.8020  -10.7080 C   0  0  0  0  0  0  0  0  0  0  0  0
   -7.6869   10.5726  -13.0325 C   0  0  0  0  0  0  0  0  0  0  0  0
   -6.9529   11.7665  -13.1047 C   0  0  0  0  0  0  0  0  0  0  0  0
   -7.8210   10.0086  -11.7556 C   0  0  0  0  0  0  0  0  0  0  0  0
   -7.2636   10.6177  -10.5919 C   0  0  3  0  0  0  0  0  0  0  0  0
   -7.6330    9.7421   -9.5104 C   0  0  0  0  0  0  0  0  0  0  0  0
   -8.3023    8.7332   -9.9897 N   0  0  0  0  0  0  0  0  0  0  0  0
   -8.4342    8.8678  -11.3051 N   0  0  0  0  0  0  0  0  0  0  0  0
   -7.3415    9.8758   -8.0215 C   0  0  0  0  0  0  0  0  0  0  0  0
   -4.1211   13.8754  -11.2000 S   0  0  0  0  0  0  0  0  0  0  0  0
   -2.9188   12.5402  -11.7675 C   0  0  0  0  0  0  0  0  0  0  0  0
   -5.6382   13.5428  -12.1051 N   0  0  0  0  0  0  0  0  0  0  0  0
   -5.9683   10.4827   -7.7344 C   0  0  0  0  0  0  0  0  0  0  0  0
   -4.8123    9.7690   -8.0490 C   0  0  0  0  0  0  0  0  0  0  0  0
   -3.5592   10.3237   -7.7969 C   0  0  0  0  0  0  0  0  0  0  0  0
   -3.4543   11.5962   -7.2288 C   0  0  0  0  0  0  0  0  0  0  0  0
   -4.6126   12.3085   -6.9084 C   0  0  0  0  0  0  0  0  0  0  0  0
   -5.8671   11.7538   -7.1613 C   0  0  0  0  0  0  0  0  0  0  0  0
   -2.1058   12.1871   -6.9644 C   0  0  0  0  0  0  0  0  0  0  0  0
   -1.7745   13.4406   -6.4637 C   0  0  0  0  0  0  0  0  0  0  0  0
   -0.4394   13.4976   -6.4041 N   0  0  0  0  0  0  0  0  0  0  0  0
    0.1691   12.4146   -6.8015 N   0  0  0  0  0  0  0  0  0  0  0  0
   -0.8034   11.5995   -7.1773 C   0  0  0  0  0  0  0  0  0  0  0  0
    0.3694   14.6144   -5.9538 C   0  0  0  0  0  0  0  0  0  0  0  0
   -3.6497   15.1720  -11.6865 O   0  0  0  0  0  0  0  0  0  0  0  0
   -4.3650   13.6745   -9.7698 O   0  0  0  0  0  0  0  0  0  0  0  0
   -6.1257   12.2782   -9.8355 H   0  0  0  0  0  0  0  0  0  0  0  0
   -8.1227   10.1152  -13.9085 H   0  0  0  0  0  0  0  0  0  0  0  0
   -7.6287   12.5169  -13.5407 H   0  0  0  0  0  0  0  0  0  0  0  0
   -6.1214   11.5746  -13.7988 H   0  0  0  0  0  0  0  0  0  0  0  0
   -8.1911   11.1909  -10.4462 H   0  0  0  0  0  0  0  0  0  0  0  0
   -8.0330    9.5733   -7.2490 H   0  0  0  0  0  0  0  0  0  0  0  0
   -1.9543   12.6728  -11.2554 H   0  0  0  0  0  0  0  0  0  0  0  0
   -3.3298   11.5493  -11.5240 H   0  0  0  0  0  0  0  0  0  0  0  0
   -2.7704   12.6186  -12.8546 H   0  0  0  0  0  0  0  0  0  0  0  0
   -5.3954   13.6013  -13.0734 H   0  0  0  0  0  0  0  0  0  0  0  0
   -4.8884    8.7854   -8.4885 H   0  0  0  0  0  0  0  0  0  0  0  0
   -2.6658    9.7683   -8.0414 H   0  0  0  0  0  0  0  0  0  0  0  0
   -4.5366   13.2900   -6.4643 H   0  0  0  0  0  0  0  0  0  0  0  0
   -6.7612   12.3068   -6.9141 H   0  0  0  0  0  0  0  0  0  0  0  0
   -2.4642   14.2207   -6.1771 H   0  0  0  0  0  0  0  0  0  0  0  0
   -0.6430   10.6154   -7.5924 H   0  0  0  0  0  0  0  0  0  0  0  0
    1.4345   14.3489   -6.0254 H   0  0  0  0  0  0  0  0  0  0  0  0
    0.1671   15.4918   -6.5857 H   0  0  0  0  0  0  0  0  0  0  0  0
    0.1198   14.8498   -4.9087 H   0  0  0  0  0  0  0  0  0  0  0  0
  1  2  2  0  0  0  0
  1  4  1  0  0  0  0
  1 13  1  0  0  0  0
  2  6  1  0  0  0  0
  3  4  1  0  0  0  0
  3  5  2  0  0  0  0
  5  6  1  0  0  0  0
  5  9  1  0  0  0  0
  6  7  1  0  0  0  0
  7  8  1  0  0  0  0
  7 10  2  3  0  0  0
  8  9  2  0  0  0  0
 10 14  1  0  0  0  0
 11 12  1  0  0  0  0
 11 13  1  0  0  0  0
 11 26  2  0  0  0  0
 11 27  2  0  0  0  0
 14 15  2  0  0  0  0
 14 19  1  0  0  0  0
 15 16  1  0  0  0  0
 16 17  2  0  0  0  0
 17 18  1  0  0  0  0
 17 20  1  0  0  0  0
 18 19  2  0  0  0  0
 20 21  2  0  0  0  0
 20 24  1  0  0  0  0
 21 22  1  0  0  0  0
 22 23  1  0  0  0  0
 22 25  1  0  0  0  0
 23 24  2  0  0  0  0
  2 28  1  0  0  0  0
  3 29  1  0  0  0  0
  4 30  1  0  0  0  0
  4 31  1  0  0  0  0
  6 32  1  0  0  0  0
 10 33  1  0  0  0  0
 12 34  1  0  0  0  0
 12 35  1  0  0  0  0
 12 36  1  0  0  0  0
 13 37  1  0  0  0  0
 15 38  1  0  0  0  0
 16 39  1  0  0  0  0
 18 40  1  0  0  0  0
 19 41  1  0  0  0  0
 21 42  1  0  0  0  0
 24 43  1  0  0  0  0
 25 44  1  0  0  0  0
 25 45  1  0  0  0  0
 25 46  1  0  0  0  0
M  END
> <Name>
25

> <IC50[uM]>
0.073

$$$$
25
  -OEChem-05192314333D
 Structure written by MMmdl.
 46 49  0     1  0  0  0  0  0999 V2000
   -6.3861   12.3623  -11.9697 C   0  0  3  0  0  0  0  0  0  0  0  0
   -6.5480   11.8020  -10.7080 C   0  0  0  0  0  0  0  0  0  0  0  0
   -7.6869   10.5726  -13.0325 C   0  0  0  0  0  0  0  0  0  0  0  0
   -6.9529   11.7665  -13.1047 C   0  0  0  0  0  0  0  0  0  0  0  0
   -7.8210   10.0086  -11.7556 C   0  0  0  0  0  0  0  0  0  0  0  0
   -7.2636   10.6177  -10.5919 C   0  0  0  0  0  0  0  0  0  0  0  0
   -7.6330    9.7421   -9.5104 C   0  0  0  0  0  0  0  0  0  0  0  0
   -8.3023    8.7332   -9.9897 N   0  0  0  0  0  0  0  0  0  0  0  0
   -8.4342    8.8678  -11.3051 N   0  0  0  0  0  0  0  0  0  0  0  0
   -7.3415    9.8758   -8.0215 C   0  0  0  0  0  0  0  0  0  0  0  0
   -4.1211   13.8754  -11.2000 S   0  0  0  0  0  0  0  0  0  0  0  0
   -2.9188   12.5402  -11.7675 C   0  0  0  0  0  0  0  0  0  0  0  0
   -5.6382   13.5428  -12.1051 N   0  0  0  0  0  0  0  0  0  0  0  0
   -5.9683   10.4827   -7.7344 C   0  0  0  0  0  0  0  0  0  0  0  0
   -4.8123    9.7690   -8.0490 C   0  0  0  0  0  0  0  0  0  0  0  0
   -3.5592   10.3237   -7.7969 C   0  0  0  0  0  0  0  0  0  0  0  0
   -3.4543   11.5962   -7.2288 C   0  0  0  0  0  0  0  0  0  0  0  0
   -4.6126   12.3085   -6.9084 C   0  0  0  0  0  0  0  0  0  0  0  0
   -5.8671   11.7538   -7.1613 C   0  0  0  0  0  0  0  0  0  0  0  0
   -2.1058   12.1871   -6.9644 C   0  0  0  0  0  0  0  0  0  0  0  0
   -1.7745   13.4406   -6.4637 C   0  0  0  0  0  0  0  0  0  0  0  0
   -0.4394   13.4976   -6.4041 N   0  0  0  0  0  0  0  0  0  0  0  0
    0.1691   12.4146   -6.8015 N   0  0  0  0  0  0  0  0  0  0  0  0
   -0.8034   11.5995   -7.1773 C   0  0  0  0  0  0  0  0  0  0  0  0
    0.3694   14.6144   -5.9538 C   0  0  0  0  0  0  0  0  0  0  0  0
   -3.6497   15.1720  -11.6865 O   0  0  0  0  0  0  0  0  0  0  0  0
   -4.3650   13.6745   -9.7698 O   0  0  0  0  0  0  0  0  0  0  0  0
   -7.3001   12.9568  -11.8241 H   0  0  0  0  0  0  0  0  0  0  0  0
   -6.1257   12.2782   -9.8355 H   0  0  0  0  0  0  0  0  0  0  0  0
   -8.1227   10.1152  -13.9085 H   0  0  0  0  0  0  0  0  0  0  0  0
   -7.6287   12.5169  -13.5407 H   0  0  0  0  0  0  0  0  0  0  0  0
   -6.1214   11.5746  -13.7988 H   0  0  0  0  0  0  0  0  0  0  0  0
   -8.0330    9.5733   -7.2490 H   0  0  0  0  0  0  0  0  0  0  0  0
   -1.9543   12.6728  -11.2554 H   0  0  0  0  0  0  0  0  0  0  0  0
   -3.3298   11.5493  -11.5240 H   0  0  0  0  0  0  0  0  0  0  0  0
   -2.7704   12.6186  -12.8546 H   0  0  0  0  0  0  0  0  0  0  0  0
   -5.3954   13.6013  -13.0734 H   0  0  0  0  0  0  0  0  0  0  0  0
   -4.8884    8.7854   -8.4885 H   0  0  0  0  0  0  0  0  0  0  0  0
   -2.6658    9.7683   -8.0414 H   0  0  0  0  0  0  0  0  0  0  0  0
   -4.5366   13.2900   -6.4643 H   0  0  0  0  0  0  0  0  0  0  0  0
   -6.7612   12.3068   -6.9141 H   0  0  0  0  0  0  0  0  0  0  0  0
   -2.4642   14.2207   -6.1771 H   0  0  0  0  0  0  0  0  0  0  0  0
   -0.6430   10.6154   -7.5924 H   0  0  0  0  0  0  0  0  0  0  0  0
    1.4345   14.3489   -6.0254 H   0  0  0  0  0  0  0  0  0  0  0  0
    0.1671   15.4918   -6.5857 H   0  0  0  0  0  0  0  0  0  0  0  0
    0.1198   14.8498   -4.9087 H   0  0  0  0  0  0  0  0  0  0  0  0
  1  2  1  0  0  0  0
  1  4  1  0  0  0  0
  1 13  1  0  0  0  0
  2  6  2  0  0  0  0
  3  4  1  0  0  0  0
  3  5  2  0  0  0  0
  5  6  1  0  0  0  0
  5  9  1  0  0  0  0
  6  7  1  0  0  0  0
  7  8  1  0  0  0  0
  7 10  2  3  0  0  0
  8  9  2  0  0  0  0
 10 14  1  0  0  0  0
 11 12  1  0  0  0  0
 11 13  1  0  0  0  0
 11 26  2  0  0  0  0
 11 27  2  0  0  0  0
 14 15  2  0  0  0  0
 14 19  1  0  0  0  0
 15 16  1  0  0  0  0
 16 17  2  0  0  0  0
 17 18  1  0  0  0  0
 17 20  1  0  0  0  0
 18 19  2  0  0  0  0
 20 21  2  0  0  0  0
 20 24  1  0  0  0  0
 21 22  1  0  0  0  0
 22 23  1  0  0  0  0
 22 25  1  0  0  0  0
 23 24  2  0  0  0  0
  1 28  1  0  0  0  0
  2 29  1  0  0  0  0
  3 30  1  0  0  0  0
  4 31  1  0  0  0  0
  4 32  1  0  0  0  0
 10 33  1  0  0  0  0
 12 34  1  0  0  0  0
 12 35  1  0  0  0  0
 12 36  1  0  0  0  0
 13 37  1  0  0  0  0
 15 38  1  0  0  0  0
 16 39  1  0  0  0  0
 18 40  1  0  0  0  0
 19 41  1  0  0  0  0
 21 42  1  0  0  0  0
 24 43  1  0  0  0  0
 25 44  1  0  0  0  0
 25 45  1  0  0  0  0
 25 46  1  0  0  0  0
M  END
> <Name>
25

> <IC50[uM]>
0.073

$$$$
25
  -OEChem-05192314333D
 Structure written by MMmdl.
 46 49  0     0  0  0  0  0  0999 V2000
   -6.3861   12.3623  -11.9697 C   0  0  0  0  0  0  0  0  0  0  0  0
   -6.5480   11.8020  -10.7080 C   0  0  0  0  0  0  0  0  0  0  0  0
   -7.6869   10.5726  -13.0325 C   0  0  0  0  0  0  0  0  0  0  0  0
   -6.9529   11.7665  -13.1047 C   0  0  0  0  0  0  0  0  0  0  0  0
   -7.8210   10.0086  -11.7556 C   0  0  0  0  0  0  0  0  0  0  0  0
   -7.2636   10.6177  -10.5919 C   0  0  0  0  0  0  0  0  0  0  0  0
   -7.6330    9.7421   -9.5104 C   0  0  0  0  0  0  0  0  0  0  0  0
   -8.3023    8.7332   -9.9897 N   0  0  0  0  0  0  0  0  0  0  0  0
   -8.4342    8.8678  -11.3051 N   0  0  0  0  0  0  0  0  0  0  0  0
   -7.3415    9.8758   -8.0215 C   0  0  0  0  0  0  0  0  0  0  0  0
   -4.1211   13.8754  -11.2000 S   0  0  0  0  0  0  0  0  0  0  0  0
   -2.9188   12.5402  -11.7675 C   0  0  0  0  0  0  0  0  0  0  0  0
   -5.6382   13.5428  -12.1051 N   0  0  0  0  0  0  0  0  0  0  0  0
   -5.9683   10.4827   -7.7344 C   0  0  0  0  0  0  0  0  0  0  0  0
   -4.8123    9.7690   -8.0490 C   0  0  0  0  0  0  0  0  0  0  0  0
   -3.5592   10.3237   -7.7969 C   0  0  0  0  0  0  0  0  0  0  0  0
   -3.4543   11.5962   -7.2288 C   0  0  0  0  0  0  0  0  0  0  0  0
   -4.6126   12.3085   -6.9084 C   0  0  0  0  0  0  0  0  0  0  0  0
   -5.8671   11.7538   -7.1613 C   0  0  0  0  0  0  0  0  0  0  0  0
   -2.1058   12.1871   -6.9644 C   0  0  0  0  0  0  0  0  0  0  0  0
   -1.7745   13.4406   -6.4637 C   0  0  0  0  0  0  0  0  0  0  0  0
   -0.4394   13.4976   -6.4041 N   0  0  0  0  0  0  0  0  0  0  0  0
    0.1691   12.4146   -6.8015 N   0  0  0  0  0  0  0  0  0  0  0  0
   -0.8034   11.5995   -7.1773 C   0  0  0  0  0  0  0  0  0  0  0  0
    0.3694   14.6144   -5.9538 C   0  0  0  0  0  0  0  0  0  0  0  0
   -3.6497   15.1720  -11.6865 O   0  0  0  0  0  0  0  0  0  0  0  0
   -4.3650   13.6745   -9.7698 O   0  0  0  0  0  0  0  0  0  0  0  0
   -6.1257   12.2782   -9.8355 H   0  0  0  0  0  0  0  0  0  0  0  0
   -8.6969   10.7748  -13.4186 H   0  0  0  0  0  0  0  0  0  0  0  0
   -7.1895    9.8325  -13.6766 H   0  0  0  0  0  0  0  0  0  0  0  0
   -7.6287   12.5169  -13.5407 H   0  0  0  0  0  0  0  0  0  0  0  0
   -6.1214   11.5746  -13.7988 H   0  0  0  0  0  0  0  0  0  0  0  0
   -8.0330    9.5733   -7.2490 H   0  0  0  0  0  0  0  0  0  0  0  0
   -1.9543   12.6728  -11.2554 H   0  0  0  0  0  0  0  0  0  0  0  0
   -3.3298   11.5493  -11.5240 H   0  0  0  0  0  0  0  0  0  0  0  0
   -2.7704   12.6186  -12.8546 H   0  0  0  0  0  0  0  0  0  0  0  0
   -5.3954   13.6013  -13.0734 H   0  0  0  0  0  0  0  0  0  0  0  0
   -4.8884    8.7854   -8.4885 H   0  0  0  0  0  0  0  0  0  0  0  0
   -2.6658    9.7683   -8.0414 H   0  0  0  0  0  0  0  0  0  0  0  0
   -4.5366   13.2900   -6.4643 H   0  0  0  0  0  0  0  0  0  0  0  0
   -6.7612   12.3068   -6.9141 H   0  0  0  0  0  0  0  0  0  0  0  0
   -2.4642   14.2207   -6.1771 H   0  0  0  0  0  0  0  0  0  0  0  0
   -0.6430   10.6154   -7.5924 H   0  0  0  0  0  0  0  0  0  0  0  0
    1.4345   14.3489   -6.0254 H   0  0  0  0  0  0  0  0  0  0  0  0
    0.1671   15.4918   -6.5857 H   0  0  0  0  0  0  0  0  0  0  0  0
    0.1198   14.8498   -4.9087 H   0  0  0  0  0  0  0  0  0  0  0  0
  1  2  2  0  0  0  0
  1  4  1  0  0  0  0
  1 13  1  0  0  0  0
  2  6  1  0  0  0  0
  3  4  1  0  0  0  0
  3  5  1  0  0  0  0
  5  6  2  0  0  0  0
  5  9  1  0  0  0  0
  6  7  1  0  0  0  0
  7  8  1  0  0  0  0
  7 10  2  3  0  0  0
  8  9  2  0  0  0  0
 10 14  1  0  0  0  0
 11 12  1  0  0  0  0
 11 13  1  0  0  0  0
 11 26  2  0  0  0  0
 11 27  2  0  0  0  0
 14 15  2  0  0  0  0
 14 19  1  0  0  0  0
 15 16  1  0  0  0  0
 16 17  2  0  0  0  0
 17 18  1  0  0  0  0
 17 20  1  0  0  0  0
 18 19  2  0  0  0  0
 20 21  2  0  0  0  0
 20 24  1  0  0  0  0
 21 22  1  0  0  0  0
 22 23  1  0  0  0  0
 22 25  1  0  0  0  0
 23 24  2  0  0  0  0
  2 28  1  0  0  0  0
  3 29  1  0  0  0  0
  3 30  1  0  0  0  0
  4 31  1  0  0  0  0
  4 32  1  0  0  0  0
 10 33  1  0  0  0  0
 12 34  1  0  0  0  0
 12 35  1  0  0  0  0
 12 36  1  0  0  0  0
 13 37  1  0  0  0  0
 15 38  1  0  0  0  0
 16 39  1  0  0  0  0
 18 40  1  0  0  0  0
 19 41  1  0  0  0  0
 21 42  1  0  0  0  0
 24 43  1  0  0  0  0
 25 44  1  0  0  0  0
 25 45  1  0  0  0  0
 25 46  1  0  0  0  0
M  END
> <Name>
25

> <IC50[uM]>
0.073

$$$$
25
  -OEChem-05192314333D
 Structure written by MMmdl.
 46 49  0     1  0  0  0  0  0999 V2000
   -6.3861   12.3623  -11.9697 C   0  0  0  0  0  0  0  0  0  0  0  0
   -6.5480   11.8020  -10.7080 C   0  0  0  0  0  0  0  0  0  0  0  0
   -7.6869   10.5726  -13.0325 C   0  0  0  0  0  0  0  0  0  0  0  0
   -6.9529   11.7665  -13.1047 C   0  0  0  0  0  0  0  0  0  0  0  0
   -7.8210   10.0086  -11.7556 C   0  0  0  0  0  0  0  0  0  0  0  0
   -7.2636   10.6177  -10.5919 C   0  0  0  0  0  0  0  0  0  0  0  0
   -7.6330    9.7421   -9.5104 C   0  0  0  0  0  0  0  0  0  0  0  0
   -8.3023    8.7332   -9.9897 N   0  0  0  0  0  0  0  0  0  0  0  0
   -8.4342    8.8678  -11.3051 N   0  0  0  0  0  0  0  0  0  0  0  0
   -7.3415    9.8758   -8.0215 C   0  0  0  0  0  0  0  0  0  0  0  0
   -4.1211   13.8754  -11.2000 S   0  0  0  0  0  0  0  0  0  0  0  0
   -2.9188   12.5402  -11.7675 C   0  0  0  0  0  0  0  0  0  0  0  0
   -5.6382   13.5428  -12.1051 N   0  0  0  0  0  0  0  0  0  0  0  0
   -5.9683   10.4827   -7.7344 C   0  0  0  0  0  0  0  0  0  0  0  0
   -4.8123    9.7690   -8.0490 C   0  0  0  0  0  0  0  0  0  0  0  0
   -3.5592   10.3237   -7.7969 C   0  0  0  0  0  0  0  0  0  0  0  0
   -3.4543   11.5962   -7.2288 C   0  0  3  0  0  0  0  0  0  0  0  0
   -4.6126   12.3085   -6.9084 C   0  0  0  0  0  0  0  0  0  0  0  0
   -5.8671   11.7538   -7.1613 C   0  0  0  0  0  0  0  0  0  0  0  0
   -2.1058   12.1871   -6.9644 C   0  0  0  0  0  0  0  0  0  0  0  0
   -1.7745   13.4406   -6.4637 C   0  0  0  0  0  0  0  0  0  0  0  0
   -0.4394   13.4976   -6.4041 N   0  0  0  0  0  0  0  0  0  0  0  0
    0.1691   12.4146   -6.8015 N   0  0  0  0  0  0  0  0  0  0  0  0
   -0.8034   11.5995   -7.1773 C   0  0  0  0  0  0  0  0  0  0  0  0
    0.3694   14.6144   -5.9538 C   0  0  0  0  0  0  0  0  0  0  0  0
   -3.6497   15.1720  -11.6865 O   0  0  0  0  0  0  0  0  0  0  0  0
   -4.3650   13.6745   -9.7698 O   0  0  0  0  0  0  0  0  0  0  0  0
   -6.1257   12.2782   -9.8355 H   0  0  0  0  0  0  0  0  0  0  0  0
   -8.1227   10.1152  -13.9085 H   0  0  0  0  0  0  0  0  0  0  0  0
   -6.8205   12.2414  -14.0656 H   0  0  0  0  0  0  0  0  0  0  0  0
   -8.0330    9.5733   -7.2490 H   0  0  0  0  0  0  0  0  0  0  0  0
   -1.9543   12.6728  -11.2554 H   0  0  0  0  0  0  0  0  0  0  0  0
   -3.3298   11.5493  -11.5240 H   0  0  0  0  0  0  0  0  0  0  0  0
   -2.7704   12.6186  -12.8546 H   0  0  0  0  0  0  0  0  0  0  0  0
   -5.3954   13.6013  -13.0734 H   0  0  0  0  0  0  0  0  0  0  0  0
   -4.8884    8.7854   -8.4885 H   0  0  0  0  0  0  0  0  0  0  0  0
   -3.0369    9.6312   -7.1205 H   0  0  0  0  0  0  0  0  0  0  0  0
   -3.0308   10.3630   -8.7609 H   0  0  0  0  0  0  0  0  0  0  0  0
   -3.4550   12.0453   -8.2329 H   0  0  0  0  0  0  0  0  0  0  0  0
   -4.5366   13.2900   -6.4643 H   0  0  0  0  0  0  0  0  0  0  0  0
   -6.7612   12.3068   -6.9141 H   0  0  0  0  0  0  0  0  0  0  0  0
   -2.4642   14.2207   -6.1771 H   0  0  0  0  0  0  0  0  0  0  0  0
   -0.6430   10.6154   -7.5924 H   0  0  0  0  0  0  0  0  0  0  0  0
    1.4345   14.3489   -6.0254 H   0  0  0  0  0  0  0  0  0  0  0  0
    0.1671   15.4918   -6.5857 H   0  0  0  0  0  0  0  0  0  0  0  0
    0.1198   14.8498   -4.9087 H   0  0  0  0  0  0  0  0  0  0  0  0
  1  2  2  0  0  0  0
  1  4  1  0  0  0  0
  1 13  1  0  0  0  0
  2  6  1  0  0  0  0
  3  4  2  0  0  0  0
  3  5  1  0  0  0  0
  5  6  2  0  0  0  0
  5  9  1  0  0  0  0
  6  7  1  0  0  0  0
  7  8  1  0  0  0  0
  7 10  2  3  0  0  0
  8  9  2  0  0  0  0
 10 14  1  0  0  0  0
 11 12  1  0  0  0  0
 11 13  1  0  0  0  0
 11 26  2  0  0  0  0
 11 27  2  0  0  0  0
 14 15  2  0  0  0  0
 14 19  1  0  0  0  0
 15 16  1  0  0  0  0
 16 17  1  0  0  0  0
 17 18  1  0  0  0  0
 17 20  1  0  0  0  0
 18 19  2  0  0  0  0
 20 21  2  0  0  0  0
 20 24  1  0  0  0  0
 21 22  1  0  0  0  0
 22 23  1  0  0  0  0
 22 25  1  0  0  0  0
 23 24  2  0  0  0  0
  2 28  1  0  0  0  0
  3 29  1  0  0  0  0
  4 30  1  0  0  0  0
 10 31  1  0  0  0  0
 12 32  1  0  0  0  0
 12 33  1  0  0  0  0
 12 34  1  0  0  0  0
 13 35  1  0  0  0  0
 15 36  1  0  0  0  0
 16 37  1  0  0  0  0
 16 38  1  0  0  0  0
 17 39  1  0  0  0  0
 18 40  1  0  0  0  0
 19 41  1  0  0  0  0
 21 42  1  0  0  0  0
 24 43  1  0  0  0  0
 25 44  1  0  0  0  0
 25 45  1  0  0  0  0
 25 46  1  0  0  0  0
M  END
> <Name>
25

> <IC50[uM]>
0.073

$$$$
25
  -OEChem-05192314333D
 Structure written by MMmdl.
 46 49  0     1  0  0  0  0  0999 V2000
   -6.3861   12.3623  -11.9697 C   0  0  0  0  0  0  0  0  0  0  0  0
   -6.5480   11.8020  -10.7080 C   0  0  0  0  0  0  0  0  0  0  0  0
   -7.6869   10.5726  -13.0325 C   0  0  0  0  0  0  0  0  0  0  0  0
   -6.9529   11.7665  -13.1047 C   0  0  0  0  0  0  0  0  0  0  0  0
   -7.8210   10.0086  -11.7556 C   0  0  0  0  0  0  0  0  0  0  0  0
   -7.2636   10.6177  -10.5919 C   0  0  0  0  0  0  0  0  0  0  0  0
   -7.6330    9.7421   -9.5104 C   0  0  0  0  0  0  0  0  0  0  0  0
   -8.3023    8.7332   -9.9897 N   0  0  0  0  0  0  0  0  0  0  0  0
   -8.4342    8.8678  -11.3051 N   0  0  0  0  0  0  0  0  0  0  0  0
   -7.3415    9.8758   -8.0215 C   0  0  0  0  0  0  0  0  0  0  0  0
   -4.1211   13.8754  -11.2000 S   0  0  0  0  0  0  0  0  0  0  0  0
   -2.9188   12.5402  -11.7675 C   0  0  0  0  0  0  0  0  0  0  0  0
   -5.6382   13.5428  -12.1051 N   0  0  0  0  0  0  0  0  0  0  0  0
   -5.9683   10.4827   -7.7344 C   0  0  3  0  0  0  0  0  0  0  0  0
   -4.8123    9.7690   -8.0490 C   0  0  0  0  0  0  0  0  0  0  0  0
   -3.5592   10.3237   -7.7969 C   0  0  0  0  0  0  0  0  0  0  0  0
   -3.4543   11.5962   -7.2288 C   0  0  0  0  0  0  0  0  0  0  0  0
   -4.6126   12.3085   -6.9084 C   0  0  0  0  0  0  0  0  0  0  0  0
   -5.8671   11.7538   -7.1613 C   0  0  0  0  0  0  0  0  0  0  0  0
   -2.1058   12.1871   -6.9644 C   0  0  0  0  0  0  0  0  0  0  0  0
   -1.7745   13.4406   -6.4637 C   0  0  0  0  0  0  0  0  0  0  0  0
   -0.4394   13.4976   -6.4041 N   0  0  0  0  0  0  0  0  0  0  0  0
    0.1691   12.4146   -6.8015 N   0  0  0  0  0  0  0  0  0  0  0  0
   -0.8034   11.5995   -7.1773 C   0  0  0  0  0  0  0  0  0  0  0  0
    0.3694   14.6144   -5.9538 C   0  0  0  0  0  0  0  0  0  0  0  0
   -3.6497   15.1720  -11.6865 O   0  0  0  0  0  0  0  0  0  0  0  0
   -4.3650   13.6745   -9.7698 O   0  0  0  0  0  0  0  0  0  0  0  0
   -6.1257   12.2782   -9.8355 H   0  0  0  0  0  0  0  0  0  0  0  0
   -8.1227   10.1152  -13.9085 H   0  0  0  0  0  0  0  0  0  0  0  0
   -6.8205   12.2414  -14.0656 H   0  0  0  0  0  0  0  0  0  0  0  0
   -8.0330    9.5733   -7.2490 H   0  0  0  0  0  0  0  0  0  0  0  0
   -1.9543   12.6728  -11.2554 H   0  0  0  0  0  0  0  0  0  0  0  0
   -3.3298   11.5493  -11.5240 H   0  0  0  0  0  0  0  0  0  0  0  0
   -2.7704   12.6186  -12.8546 H   0  0  0  0  0  0  0  0  0  0  0  0
   -5.3954   13.6013  -13.0734 H   0  0  0  0  0  0  0  0  0  0  0  0
   -5.9765   10.0300   -6.7319 H   0  0  0  0  0  0  0  0  0  0  0  0
   -4.8884    8.7854   -8.4885 H   0  0  0  0  0  0  0  0  0  0  0  0
   -2.6658    9.7683   -8.0414 H   0  0  0  0  0  0  0  0  0  0  0  0
   -4.5366   13.2900   -6.4643 H   0  0  0  0  0  0  0  0  0  0  0  0
   -6.3910   12.4480   -7.8348 H   0  0  0  0  0  0  0  0  0  0  0  0
   -6.3948   11.7100   -6.1971 H   0  0  0  0  0  0  0  0  0  0  0  0
   -2.4642   14.2207   -6.1771 H   0  0  0  0  0  0  0  0  0  0  0  0
   -0.6430   10.6154   -7.5924 H   0  0  0  0  0  0  0  0  0  0  0  0
    1.4345   14.3489   -6.0254 H   0  0  0  0  0  0  0  0  0  0  0  0
    0.1671   15.4918   -6.5857 H   0  0  0  0  0  0  0  0  0  0  0  0
    0.1198   14.8498   -4.9087 H   0  0  0  0  0  0  0  0  0  0  0  0
  1  2  2  0  0  0  0
  1  4  1  0  0  0  0
  1 13  1  0  0  0  0
  2  6  1  0  0  0  0
  3  4  2  0  0  0  0
  3  5  1  0  0  0  0
  5  6  2  0  0  0  0
  5  9  1  0  0  0  0
  6  7  1  0  0  0  0
  7  8  1  0  0  0  0
  7 10  2  3  0  0  0
  8  9  2  0  0  0  0
 10 14  1  0  0  0  0
 11 12  1  0  0  0  0
 11 13  1  0  0  0  0
 11 26  2  0  0  0  0
 11 27  2  0  0  0  0
 14 15  1  0  0  0  0
 14 19  1  0  0  0  0
 15 16  2  0  0  0  0
 16 17  1  0  0  0  0
 17 18  2  0  0  0  0
 17 20  1  0  0  0  0
 18 19  1  0  0  0  0
 20 21  2  0  0  0  0
 20 24  1  0  0  0  0
 21 22  1  0  0  0  0
 22 23  1  0  0  0  0
 22 25  1  0  0  0  0
 23 24  2  0  0  0  0
  2 28  1  0  0  0  0
  3 29  1  0  0  0  0
  4 30  1  0  0  0  0
 10 31  1  0  0  0  0
 12 32  1  0  0  0  0
 12 33  1  0  0  0  0
 12 34  1  0  0  0  0
 13 35  1  0  0  0  0
 14 36  1  0  0  0  0
 15 37  1  0  0  0  0
 16 38  1  0  0  0  0
 18 39  1  0  0  0  0
 19 40  1  0  0  0  0
 19 41  1  0  0  0  0
 21 42  1  0  0  0  0
 24 43  1  0  0  0  0
 25 44  1  0  0  0  0
 25 45  1  0  0  0  0
 25 46  1  0  0  0  0
M  END
> <Name>
25

> <IC50[uM]>
0.073

$$$$
25
  -OEChem-05192314333D
 Structure written by MMmdl.
 46 49  0     1  0  0  0  0  0999 V2000
   -6.3861   12.3623  -11.9697 C   0  0  0  0  0  0  0  0  0  0  0  0
   -6.5480   11.8020  -10.7080 C   0  0  0  0  0  0  0  0  0  0  0  0
   -7.6869   10.5726  -13.0325 C   0  0  0  0  0  0  0  0  0  0  0  0
   -6.9529   11.7665  -13.1047 C   0  0  0  0  0  0  0  0  0  0  0  0
   -7.8210   10.0086  -11.7556 C   0  0  0  0  0  0  0  0  0  0  0  0
   -7.2636   10.6177  -10.5919 C   0  0  0  0  0  0  0  0  0  0  0  0
   -7.6330    9.7421   -9.5104 C   0  0  3  0  0  0  0  0  0  0  0  0
   -8.3023    8.7332   -9.9897 N   0  0  0  0  0  0  0  0  0  0  0  0
   -8.4342    8.8678  -11.3051 N   0  0  0  0  0  0  0  0  0  0  0  0
   -7.3415    9.8758   -8.0215 C   0  0  0  0  0  0  0  0  0  0  0  0
   -4.1211   13.8754  -11.2000 S   0  0  0  0  0  0  0  0  0  0  0  0
   -2.9188   12.5402  -11.7675 C   0  0  0  0  0  0  0  0  0  0  0  0
   -5.6382   13.5428  -12.1051 N   0  0  0  0  0  0  0  0  0  0  0  0
   -5.9683   10.4827   -7.7344 C   0  0  0  0  0  0  0  0  0  0  0  0
   -4.8123    9.7690   -8.0490 C   0  0  0  0  0  0  0  0  0  0  0  0
   -3.5592   10.3237   -7.7969 C   0  0  0  0  0  0  0  0  0  0  0  0
   -3.4543   11.5962   -7.2288 C   0  0  0  0  0  0  0  0  0  0  0  0
   -4.6126   12.3085   -6.9084 C   0  0  0  0  0  0  0  0  0  0  0  0
   -5.8671   11.7538   -7.1613 C   0  0  0  0  0  0  0  0  0  0  0  0
   -2.1058   12.1871   -6.9644 C   0  0  0  0  0  0  0  0  0  0  0  0
   -1.7745   13.4406   -6.4637 C   0  0  0  0  0  0  0  0  0  0  0  0
   -0.4394   13.4976   -6.4041 N   0  0  0  0  0  0  0  0  0  0  0  0
    0.1691   12.4146   -6.8015 N   0  0  0  0  0  0  0  0  0  0  0  0
   -0.8034   11.5995   -7.1773 C   0  0  0  0  0  0  0  0  0  0  0  0
    0.3694   14.6144   -5.9538 C   0  0  0  0  0  0  0  0  0  0  0  0
   -3.6497   15.1720  -11.6865 O   0  0  0  0  0  0  0  0  0  0  0  0
   -4.3650   13.6745   -9.7698 O   0  0  0  0  0  0  0  0  0  0  0  0
   -6.1257   12.2782   -9.8355 H   0  0  0  0  0  0  0  0  0  0  0  0
   -8.1227   10.1152  -13.9085 H   0  0  0  0  0  0  0  0  0  0  0  0
   -6.8205   12.2414  -14.0656 H   0  0  0  0  0  0  0  0  0  0  0  0
   -8.5708   10.3015   -9.3774 H   0  0  0  0  0  0  0  0  0  0  0  0
   -8.0330    9.5733   -7.2490 H   0  0  0  0  0  0  0  0  0  0  0  0
   -1.9543   12.6728  -11.2554 H   0  0  0  0  0  0  0  0  0  0  0  0
   -3.3298   11.5493  -11.5240 H   0  0  0  0  0  0  0  0  0  0  0  0
   -2.7704   12.6186  -12.8546 H   0  0  0  0  0  0  0  0  0  0  0  0
   -5.3954   13.6013  -13.0734 H   0  0  0  0  0  0  0  0  0  0  0  0
   -4.8884    8.7854   -8.4885 H   0  0  0  0  0  0  0  0  0  0  0  0
   -2.6658    9.7683   -8.0414 H   0  0  0  0  0  0  0  0  0  0  0  0
   -4.5366   13.2900   -6.4643 H   0  0  0  0  0  0  0  0  0  0  0  0
   -6.3910   12.4480   -7.8348 H   0  0  0  0  0  0  0  0  0  0  0  0
   -6.3948   11.7100   -6.1971 H   0  0  0  0  0  0  0  0  0  0  0  0
   -2.4642   14.2207   -6.1771 H   0  0  0  0  0  0  0  0  0  0  0  0
   -0.6430   10.6154   -7.5924 H   0  0  0  0  0  0  0  0  0  0  0  0
    1.4345   14.3489   -6.0254 H   0  0  0  0  0  0  0  0  0  0  0  0
    0.1671   15.4918   -6.5857 H   0  0  0  0  0  0  0  0  0  0  0  0
    0.1198   14.8498   -4.9087 H   0  0  0  0  0  0  0  0  0  0  0  0
  1  2  2  0  0  0  0
  1  4  1  0  0  0  0
  1 13  1  0  0  0  0
  2  6  1  0  0  0  0
  3  4  2  0  0  0  0
  3  5  1  0  0  0  0
  5  6  2  0  0  0  0
  5  9  1  0  0  0  0
  6  7  1  0  0  0  0
  7  8  1  0  0  0  0
  7 10  1  0  0  0  0
  8  9  2  0  0  0  0
 10 14  2  3  0  0  0
 11 12  1  0  0  0  0
 11 13  1  0  0  0  0
 11 26  2  0  0  0  0
 11 27  2  0  0  0  0
 14 15  1  0  0  0  0
 14 19  1  0  0  0  0
 15 16  2  0  0  0  0
 16 17  1  0  0  0  0
 17 18  2  0  0  0  0
 17 20  1  0  0  0  0
 18 19  1  0  0  0  0
 20 21  2  0  0  0  0
 20 24  1  0  0  0  0
 21 22  1  0  0  0  0
 22 23  1  0  0  0  0
 22 25  1  0  0  0  0
 23 24  2  0  0  0  0
  2 28  1  0  0  0  0
  3 29  1  0  0  0  0
  4 30  1  0  0  0  0
  7 31  1  0  0  0  0
 10 32  1  0  0  0  0
 12 33  1  0  0  0  0
 12 34  1  0  0  0  0
 12 35  1  0  0  0  0
 13 36  1  0  0  0  0
 15 37  1  0  0  0  0
 16 38  1  0  0  0  0
 18 39  1  0  0  0  0
 19 40  1  0  0  0  0
 19 41  1  0  0  0  0
 21 42  1  0  0  0  0
 24 43  1  0  0  0  0
 25 44  1  0  0  0  0
 25 45  1  0  0  0  0
 25 46  1  0  0  0  0
M  END
> <Name>
25

> <IC50[uM]>
0.073

$$$$
25
  -OEChem-05192314333D
 Structure written by MMmdl.
 46 49  0     0  0  0  0  0  0999 V2000
   -6.3861   12.3623  -11.9697 C   0  0  0  0  0  0  0  0  0  0  0  0
   -6.5480   11.8020  -10.7080 C   0  0  0  0  0  0  0  0  0  0  0  0
   -7.6869   10.5726  -13.0325 C   0  0  0  0  0  0  0  0  0  0  0  0
   -6.9529   11.7665  -13.1047 C   0  0  0  0  0  0  0  0  0  0  0  0
   -7.8210   10.0086  -11.7556 C   0  0  0  0  0  0  0  0  0  0  0  0
   -7.2636   10.6177  -10.5919 C   0  0  0  0  0  0  0  0  0  0  0  0
   -7.6330    9.7421   -9.5104 C   0  0  0  0  0  0  0  0  0  0  0  0
   -8.3023    8.7332   -9.9897 N   0  0  0  0  0  0  0  0  0  0  0  0
   -8.4342    8.8678  -11.3051 N   0  0  0  0  0  0  0  0  0  0  0  0
   -7.3415    9.8758   -8.0215 C   0  0  0  0  0  0  0  0  0  0  0  0
   -4.1211   13.8754  -11.2000 S   0  0  0  0  0  0  0  0  0  0  0  0
   -2.9188   12.5402  -11.7675 C   0  0  0  0  0  0  0  0  0  0  0  0
   -5.6382   13.5428  -12.1051 N   0  0  0  0  0  0  0  0  0  0  0  0
   -5.9683   10.4827   -7.7344 C   0  0  0  0  0  0  0  0  0  0  0  0
   -4.8123    9.7690   -8.0490 C   0  0  0  0  0  0  0  0  0  0  0  0
   -3.5592   10.3237   -7.7969 C   0  0  0  0  0  0  0  0  0  0  0  0
   -3.4543   11.5962   -7.2288 C   0  0  0  0  0  0  0  0  0  0  0  0
   -4.6126   12.3085   -6.9084 C   0  0  0  0  0  0  0  0  0  0  0  0
   -5.8671   11.7538   -7.1613 C   0  0  0  0  0  0  0  0  0  0  0  0
   -2.1058   12.1871   -6.9644 C   0  0  0  0  0  0  0  0  0  0  0  0
   -1.7745   13.4406   -6.4637 C   0  0  0  0  0  0  0  0  0  0  0  0
   -0.4394   13.4976   -6.4041 N   0  0  0  0  0  0  0  0  0  0  0  0
    0.1691   12.4146   -6.8015 N   0  0  0  0  0  0  0  0  0  0  0  0
   -0.8034   11.5995   -7.1773 C   0  0  0  0  0  0  0  0  0  0  0  0
    0.3694   14.6144   -5.9538 C   0  0  0  0  0  0  0  0  0  0  0  0
   -3.6497   15.1720  -11.6865 O   0  0  0  0  0  0  0  0  0  0  0  0
   -4.3650   13.6745   -9.7698 O   0  0  0  0  0  0  0  0  0  0  0  0
   -6.1257   12.2782   -9.8355 H   0  0  0  0  0  0  0  0  0  0  0  0
   -8.1227   10.1152  -13.9085 H   0  0  0  0  0  0  0  0  0  0  0  0
   -6.8205   12.2414  -14.0656 H   0  0  0  0  0  0  0  0  0  0  0  0
   -8.0330    9.5733   -7.2490 H   0  0  0  0  0  0  0  0  0  0  0  0
   -1.9543   12.6728  -11.2554 H   0  0  0  0  0  0  0  0  0  0  0  0
   -3.3298   11.5493  -11.5240 H   0  0  0  0  0  0  0  0  0  0  0  0
   -2.7704   12.6186  -12.8546 H   0  0  0  0  0  0  0  0  0  0  0  0
   -5.3954   13.6013  -13.0734 H   0  0  0  0  0  0  0  0  0  0  0  0
   -4.8884    8.7854   -8.4885 H   0  0  0  0  0  0  0  0  0  0  0  0
   -3.0369    9.6312   -7.1205 H   0  0  0  0  0  0  0  0  0  0  0  0
   -3.0308   10.3630   -8.7609 H   0  0  0  0  0  0  0  0  0  0  0  0
   -4.5366   13.2900   -6.4643 H   0  0  0  0  0  0  0  0  0  0  0  0
   -6.3910   12.4480   -7.8348 H   0  0  0  0  0  0  0  0  0  0  0  0
   -6.3948   11.7100   -6.1971 H   0  0  0  0  0  0  0  0  0  0  0  0
   -2.4642   14.2207   -6.1771 H   0  0  0  0  0  0  0  0  0  0  0  0
   -0.6430   10.6154   -7.5924 H   0  0  0  0  0  0  0  0  0  0  0  0
    1.4345   14.3489   -6.0254 H   0  0  0  0  0  0  0  0  0  0  0  0
    0.1671   15.4918   -6.5857 H   0  0  0  0  0  0  0  0  0  0  0  0
    0.1198   14.8498   -4.9087 H   0  0  0  0  0  0  0  0  0  0  0  0
  1  2  2  0  0  0  0
  1  4  1  0  0  0  0
  1 13  1  0  0  0  0
  2  6  1  0  0  0  0
  3  4  2  0  0  0  0
  3  5  1  0  0  0  0
  5  6  2  0  0  0  0
  5  9  1  0  0  0  0
  6  7  1  0  0  0  0
  7  8  1  0  0  0  0
  7 10  2  3  0  0  0
  8  9  2  0  0  0  0
 10 14  1  0  0  0  0
 11 12  1  0  0  0  0
 11 13  1  0  0  0  0
 11 26  2  0  0  0  0
 11 27  2  0  0  0  0
 14 15  2  0  0  0  0
 14 19  1  0  0  0  0
 15 16  1  0  0  0  0
 16 17  1  0  0  0  0
 17 18  2  0  0  0  0
 17 20  1  0  0  0  0
 18 19  1  0  0  0  0
 20 21  2  0  0  0  0
 20 24  1  0  0  0  0
 21 22  1  0  0  0  0
 22 23  1  0  0  0  0
 22 25  1  0  0  0  0
 23 24  2  0  0  0  0
  2 28  1  0  0  0  0
  3 29  1  0  0  0  0
  4 30  1  0  0  0  0
 10 31  1  0  0  0  0
 12 32  1  0  0  0  0
 12 33  1  0  0  0  0
 12 34  1  0  0  0  0
 13 35  1  0  0  0  0
 15 36  1  0  0  0  0
 16 37  1  0  0  0  0
 16 38  1  0  0  0  0
 18 39  1  0  0  0  0
 19 40  1  0  0  0  0
 19 41  1  0  0  0  0
 21 42  1  0  0  0  0
 24 43  1  0  0  0  0
 25 44  1  0  0  0  0
 25 45  1  0  0  0  0
 25 46  1  0  0  0  0
M  END
> <Name>
25

> <IC50[uM]>
0.073

$$$$
25
  -OEChem-05192314333D
 Structure written by MMmdl.
 46 49  0     0  0  0  0  0  0999 V2000
   -6.3861   12.3623  -11.9697 C   0  0  0  0  0  0  0  0  0  0  0  0
   -6.5480   11.8020  -10.7080 C   0  0  0  0  0  0  0  0  0  0  0  0
   -7.6869   10.5726  -13.0325 C   0  0  0  0  0  0  0  0  0  0  0  0
   -6.9529   11.7665  -13.1047 C   0  0  0  0  0  0  0  0  0  0  0  0
   -7.8210   10.0086  -11.7556 C   0  0  0  0  0  0  0  0  0  0  0  0
   -7.2636   10.6177  -10.5919 C   0  0  0  0  0  0  0  0  0  0  0  0
   -7.6330    9.7421   -9.5104 C   0  0  0  0  0  0  0  0  0  0  0  0
   -8.3023    8.7332   -9.9897 N   0  0  0  0  0  0  0  0  0  0  0  0
   -8.4342    8.8678  -11.3051 N   0  0  0  0  0  0  0  0  0  0  0  0
   -7.3415    9.8758   -8.0215 C   0  0  0  0  0  0  0  0  0  0  0  0
   -4.1211   13.8754  -11.2000 S   0  0  0  0  0  0  0  0  0  0  0  0
   -2.9188   12.5402  -11.7675 C   0  0  0  0  0  0  0  0  0  0  0  0
   -5.6382   13.5428  -12.1051 N   0  0  0  0  0  0  0  0  0  0  0  0
   -5.9683   10.4827   -7.7344 C   0  0  0  0  0  0  0  0  0  0  0  0
   -4.8123    9.7690   -8.0490 C   0  0  0  0  0  0  0  0  0  0  0  0
   -3.5592   10.3237   -7.7969 C   0  0  0  0  0  0  0  0  0  0  0  0
   -3.4543   11.5962   -7.2288 C   0  0  0  0  0  0  0  0  0  0  0  0
   -4.6126   12.3085   -6.9084 C   0  0  0  0  0  0  0  0  0  0  0  0
   -5.8671   11.7538   -7.1613 C   0  0  0  0  0  0  0  0  0  0  0  0
   -2.1058   12.1871   -6.9644 C   0  0  0  0  0  0  0  0  0  0  0  0
   -1.7745   13.4406   -6.4637 C   0  0  0  0  0  0  0  0  0  0  0  0
   -0.4394   13.4976   -6.4041 N   0  0  0  0  0  0  0  0  0  0  0  0
    0.1691   12.4146   -6.8015 N   0  0  0  0  0  0  0  0  0  0  0  0
   -0.8034   11.5995   -7.1773 C   0  0  0  0  0  0  0  0  0  0  0  0
    0.3694   14.6144   -5.9538 C   0  0  0  0  0  0  0  0  0  0  0  0
   -3.6497   15.1720  -11.6865 O   0  0  0  0  0  0  0  0  0  0  0  0
   -4.3650   13.6745   -9.7698 O   0  0  0  0  0  0  0  0  0  0  0  0
   -6.1257   12.2782   -9.8355 H   0  0  0  0  0  0  0  0  0  0  0  0
   -8.1227   10.1152  -13.9085 H   0  0  0  0  0  0  0  0  0  0  0  0
   -6.8205   12.2414  -14.0656 H   0  0  0  0  0  0  0  0  0  0  0  0
   -8.0330    9.5733   -7.2490 H   0  0  0  0  0  0  0  0  0  0  0  0
   -1.9543   12.6728  -11.2554 H   0  0  0  0  0  0  0  0  0  0  0  0
   -3.3298   11.5493  -11.5240 H   0  0  0  0  0  0  0  0  0  0  0  0
   -2.7704   12.6186  -12.8546 H   0  0  0  0  0  0  0  0  0  0  0  0
   -5.3954   13.6013  -13.0734 H   0  0  0  0  0  0  0  0  0  0  0  0
   -4.8884    8.7854   -8.4885 H   0  0  0  0  0  0  0  0  0  0  0  0
   -2.6658    9.7683   -8.0414 H   0  0  0  0  0  0  0  0  0  0  0  0
   -4.5692   12.5155   -5.8289 H   0  0  0  0  0  0  0  0  0  0  0  0
   -4.5666   13.2558   -7.4655 H   0  0  0  0  0  0  0  0  0  0  0  0
   -6.3910   12.4480   -7.8348 H   0  0  0  0  0  0  0  0  0  0  0  0
   -6.3948   11.7100   -6.1971 H   0  0  0  0  0  0  0  0  0  0  0  0
   -2.4642   14.2207   -6.1771 H   0  0  0  0  0  0  0  0  0  0  0  0
   -0.6430   10.6154   -7.5924 H   0  0  0  0  0  0  0  0  0  0  0  0
    1.4345   14.3489   -6.0254 H   0  0  0  0  0  0  0  0  0  0  0  0
    0.1671   15.4918   -6.5857 H   0  0  0  0  0  0  0  0  0  0  0  0
    0.1198   14.8498   -4.9087 H   0  0  0  0  0  0  0  0  0  0  0  0
  1  2  2  0  0  0  0
  1  4  1  0  0  0  0
  1 13  1  0  0  0  0
  2  6  1  0  0  0  0
  3  4  2  0  0  0  0
  3  5  1  0  0  0  0
  5  6  2  0  0  0  0
  5  9  1  0  0  0  0
  6  7  1  0  0  0  0
  7  8  1  0  0  0  0
  7 10  2  3  0  0  0
  8  9  2  0  0  0  0
 10 14  1  0  0  0  0
 11 12  1  0  0  0  0
 11 13  1  0  0  0  0
 11 26  2  0  0  0  0
 11 27  2  0  0  0  0
 14 15  2  0  0  0  0
 14 19  1  0  0  0  0
 15 16  1  0  0  0  0
 16 17  2  0  0  0  0
 17 18  1  0  0  0  0
 17 20  1  0  0  0  0
 18 19  1  0  0  0  0
 20 21  2  0  0  0  0
 20 24  1  0  0  0  0
 21 22  1  0  0  0  0
 22 23  1  0  0  0  0
 22 25  1  0  0  0  0
 23 24  2  0  0  0  0
  2 28  1  0  0  0  0
  3 29  1  0  0  0  0
  4 30  1  0  0  0  0
 10 31  1  0  0  0  0
 12 32  1  0  0  0  0
 12 33  1  0  0  0  0
 12 34  1  0  0  0  0
 13 35  1  0  0  0  0
 15 36  1  0  0  0  0
 16 37  1  0  0  0  0
 18 38  1  0  0  0  0
 18 39  1  0  0  0  0
 19 40  1  0  0  0  0
 19 41  1  0  0  0  0
 21 42  1  0  0  0  0
 24 43  1  0  0  0  0
 25 44  1  0  0  0  0
 25 45  1  0  0  0  0
 25 46  1  0  0  0  0
M  END
> <Name>
25

> <IC50[uM]>
0.073

$$$$
25
  -OEChem-05192314333D
 Structure written by MMmdl.
 46 49  0     1  0  0  0  0  0999 V2000
   -6.3861   12.3623  -11.9697 C   0  0  0  0  0  0  0  0  0  0  0  0
   -6.5480   11.8020  -10.7080 C   0  0  0  0  0  0  0  0  0  0  0  0
   -7.6869   10.5726  -13.0325 C   0  0  0  0  0  0  0  0  0  0  0  0
   -6.9529   11.7665  -13.1047 C   0  0  0  0  0  0  0  0  0  0  0  0
   -7.8210   10.0086  -11.7556 C   0  0  0  0  0  0  0  0  0  0  0  0
   -7.2636   10.6177  -10.5919 C   0  0  3  0  0  0  0  0  0  0  0  0
   -7.6330    9.7421   -9.5104 C   0  0  0  0  0  0  0  0  0  0  0  0
   -8.3023    8.7332   -9.9897 N   0  0  0  0  0  0  0  0  0  0  0  0
   -8.4342    8.8678  -11.3051 N   0  0  0  0  0  0  0  0  0  0  0  0
   -7.3415    9.8758   -8.0215 C   0  0  0  0  0  0  0  0  0  0  0  0
   -4.1211   13.8754  -11.2000 S   0  0  0  0  0  0  0  0  0  0  0  0
   -2.9188   12.5402  -11.7675 C   0  0  0  0  0  0  0  0  0  0  0  0
   -5.6382   13.5428  -12.1051 N   0  0  0  0  0  0  0  0  0  0  0  0
   -5.9683   10.4827   -7.7344 C   0  0  0  0  0  0  0  0  0  0  0  0
   -4.8123    9.7690   -8.0490 C   0  0  0  0  0  0  0  0  0  0  0  0
   -3.5592   10.3237   -7.7969 C   0  0  0  0  0  0  0  0  0  0  0  0
   -3.4543   11.5962   -7.2288 C   0  0  0  0  0  0  0  0  0  0  0  0
   -4.6126   12.3085   -6.9084 C   0  0  0  0  0  0  0  0  0  0  0  0
   -5.8671   11.7538   -7.1613 C   0  0  0  0  0  0  0  0  0  0  0  0
   -2.1058   12.1871   -6.9644 C   0  0  0  0  0  0  0  0  0  0  0  0
   -1.7745   13.4406   -6.4637 C   0  0  0  0  0  0  0  0  0  0  0  0
   -0.4394   13.4976   -6.4041 N   0  0  0  0  0  0  0  0  0  0  0  0
    0.1691   12.4146   -6.8015 N   0  0  0  0  0  0  0  0  0  0  0  0
   -0.8034   11.5995   -7.1773 C   0  0  0  0  0  0  0  0  0  0  0  0
    0.3694   14.6144   -5.9538 C   0  0  0  0  0  0  0  0  0  0  0  0
   -3.6497   15.1720  -11.6865 O   0  0  0  0  0  0  0  0  0  0  0  0
   -4.3650   13.6745   -9.7698 O   0  0  0  0  0  0  0  0  0  0  0  0
   -5.5417   11.6132  -10.3059 H   0  0  0  0  0  0  0  0  0  0  0  0
   -7.0576   12.5509  -10.0840 H   0  0  0  0  0  0  0  0  0  0  0  0
   -8.1227   10.1152  -13.9085 H   0  0  0  0  0  0  0  0  0  0  0  0
   -6.8205   12.2414  -14.0656 H   0  0  0  0  0  0  0  0  0  0  0  0
   -8.1911   11.1909  -10.4462 H   0  0  0  0  0  0  0  0  0  0  0  0
   -8.0330    9.5733   -7.2490 H   0  0  0  0  0  0  0  0  0  0  0  0
   -1.9543   12.6728  -11.2554 H   0  0  0  0  0  0  0  0  0  0  0  0
   -3.3298   11.5493  -11.5240 H   0  0  0  0  0  0  0  0  0  0  0  0
   -2.7704   12.6186  -12.8546 H   0  0  0  0  0  0  0  0  0  0  0  0
   -5.3954   13.6013  -13.0734 H   0  0  0  0  0  0  0  0  0  0  0  0
   -4.8884    8.7854   -8.4885 H   0  0  0  0  0  0  0  0  0  0  0  0
   -2.6658    9.7683   -8.0414 H   0  0  0  0  0  0  0  0  0  0  0  0
   -4.5366   13.2900   -6.4643 H   0  0  0  0  0  0  0  0  0  0  0  0
   -6.7612   12.3068   -6.9141 H   0  0  0  0  0  0  0  0  0  0  0  0
   -2.4642   14.2207   -6.1771 H   0  0  0  0  0  0  0  0  0  0  0  0
   -0.6430   10.6154   -7.5924 H   0  0  0  0  0  0  0  0  0  0  0  0
    1.4345   14.3489   -6.0254 H   0  0  0  0  0  0  0  0  0  0  0  0
    0.1671   15.4918   -6.5857 H   0  0  0  0  0  0  0  0  0  0  0  0
    0.1198   14.8498   -4.9087 H   0  0  0  0  0  0  0  0  0  0  0  0
  1  2  1  0  0  0  0
  1  4  2  0  0  0  0
  1 13  1  0  0  0  0
  2  6  1  0  0  0  0
  3  4  1  0  0  0  0
  3  5  2  0  0  0  0
  5  6  1  0  0  0  0
  5  9  1  0  0  0  0
  6  7  1  0  0  0  0
  7  8  1  0  0  0  0
  7 10  2  3  0  0  0
  8  9  2  0  0  0  0
 10 14  1  0  0  0  0
 11 12  1  0  0  0  0
 11 13  1  0  0  0  0
 11 26  2  0  0  0  0
 11 27  2  0  0  0  0
 14 15  2  0  0  0  0
 14 19  1  0  0  0  0
 15 16  1  0  0  0  0
 16 17  2  0  0  0  0
 17 18  1  0  0  0  0
 17 20  1  0  0  0  0
 18 19  2  0  0  0  0
 20 21  2  0  0  0  0
 20 24  1  0  0  0  0
 21 22  1  0  0  0  0
 22 23  1  0  0  0  0
 22 25  1  0  0  0  0
 23 24  2  0  0  0  0
  2 28  1  0  0  0  0
  2 29  1  0  0  0  0
  3 30  1  0  0  0  0
  4 31  1  0  0  0  0
  6 32  1  0  0  0  0
 10 33  1  0  0  0  0
 12 34  1  0  0  0  0
 12 35  1  0  0  0  0
 12 36  1  0  0  0  0
 13 37  1  0  0  0  0
 15 38  1  0  0  0  0
 16 39  1  0  0  0  0
 18 40  1  0  0  0  0
 19 41  1  0  0  0  0
 21 42  1  0  0  0  0
 24 43  1  0  0  0  0
 25 44  1  0  0  0  0
 25 45  1  0  0  0  0
 25 46  1  0  0  0  0
M  END
> <Name>
25

> <IC50[uM]>
0.073

$$$$
25
  -OEChem-05192314333D
 Structure written by MMmdl.
 46 49  0     1  0  0  0  0  0999 V2000
   -6.3861   12.3623  -11.9697 C   0  0  3  0  0  0  0  0  0  0  0  0
   -6.5480   11.8020  -10.7080 C   0  0  0  0  0  0  0  0  0  0  0  0
   -7.6869   10.5726  -13.0325 C   0  0  0  0  0  0  0  0  0  0  0  0
   -6.9529   11.7665  -13.1047 C   0  0  0  0  0  0  0  0  0  0  0  0
   -7.8210   10.0086  -11.7556 C   0  0  0  0  0  0  0  0  0  0  0  0
   -7.2636   10.6177  -10.5919 C   0  0  0  0  0  0  0  0  0  0  0  0
   -7.6330    9.7421   -9.5104 C   0  0  0  0  0  0  0  0  0  0  0  0
   -8.3023    8.7332   -9.9897 N   0  0  0  0  0  0  0  0  0  0  0  0
   -8.4342    8.8678  -11.3051 N   0  0  0  0  0  0  0  0  0  0  0  0
   -7.3415    9.8758   -8.0215 C   0  0  0  0  0  0  0  0  0  0  0  0
   -4.1211   13.8754  -11.2000 S   0  0  0  0  0  0  0  0  0  0  0  0
   -2.9188   12.5402  -11.7675 C   0  0  0  0  0  0  0  0  0  0  0  0
   -5.6382   13.5428  -12.1051 N   0  0  0  0  0  0  0  0  0  0  0  0
   -5.9683   10.4827   -7.7344 C   0  0  0  0  0  0  0  0  0  0  0  0
   -4.8123    9.7690   -8.0490 C   0  0  0  0  0  0  0  0  0  0  0  0
   -3.5592   10.3237   -7.7969 C   0  0  0  0  0  0  0  0  0  0  0  0
   -3.4543   11.5962   -7.2288 C   0  0  0  0  0  0  0  0  0  0  0  0
   -4.6126   12.3085   -6.9084 C   0  0  0  0  0  0  0  0  0  0  0  0
   -5.8671   11.7538   -7.1613 C   0  0  0  0  0  0  0  0  0  0  0  0
   -2.1058   12.1871   -6.9644 C   0  0  0  0  0  0  0  0  0  0  0  0
   -1.7745   13.4406   -6.4637 C   0  0  0  0  0  0  0  0  0  0  0  0
   -0.4394   13.4976   -6.4041 N   0  0  0  0  0  0  0  0  0  0  0  0
    0.1691   12.4146   -6.8015 N   0  0  0  0  0  0  0  0  0  0  0  0
   -0.8034   11.5995   -7.1773 C   0  0  0  0  0  0  0  0  0  0  0  0
    0.3694   14.6144   -5.9538 C   0  0  0  0  0  0  0  0  0  0  0  0
   -3.6497   15.1720  -11.6865 O   0  0  0  0  0  0  0  0  0  0  0  0
   -4.3650   13.6745   -9.7698 O   0  0  0  0  0  0  0  0  0  0  0  0
   -7.3001   12.9568  -11.8241 H   0  0  0  0  0  0  0  0  0  0  0  0
   -5.5417   11.6132  -10.3059 H   0  0  0  0  0  0  0  0  0  0  0  0
   -7.0576   12.5509  -10.0840 H   0  0  0  0  0  0  0  0  0  0  0  0
   -8.1227   10.1152  -13.9085 H   0  0  0  0  0  0  0  0  0  0  0  0
   -6.8205   12.2414  -14.0656 H   0  0  0  0  0  0  0  0  0  0  0  0
   -8.0330    9.5733   -7.2490 H   0  0  0  0  0  0  0  0  0  0  0  0
   -1.9543   12.6728  -11.2554 H   0  0  0  0  0  0  0  0  0  0  0  0
   -3.3298   11.5493  -11.5240 H   0  0  0  0  0  0  0  0  0  0  0  0
   -2.7704   12.6186  -12.8546 H   0  0  0  0  0  0  0  0  0  0  0  0
   -5.3954   13.6013  -13.0734 H   0  0  0  0  0  0  0  0  0  0  0  0
   -4.8884    8.7854   -8.4885 H   0  0  0  0  0  0  0  0  0  0  0  0
   -2.6658    9.7683   -8.0414 H   0  0  0  0  0  0  0  0  0  0  0  0
   -4.5366   13.2900   -6.4643 H   0  0  0  0  0  0  0  0  0  0  0  0
   -6.7612   12.3068   -6.9141 H   0  0  0  0  0  0  0  0  0  0  0  0
   -2.4642   14.2207   -6.1771 H   0  0  0  0  0  0  0  0  0  0  0  0
   -0.6430   10.6154   -7.5924 H   0  0  0  0  0  0  0  0  0  0  0  0
    1.4345   14.3489   -6.0254 H   0  0  0  0  0  0  0  0  0  0  0  0
    0.1671   15.4918   -6.5857 H   0  0  0  0  0  0  0  0  0  0  0  0
    0.1198   14.8498   -4.9087 H   0  0  0  0  0  0  0  0  0  0  0  0
  1  2  1  0  0  0  0
  1  4  1  0  0  0  0
  1 13  1  0  0  0  0
  2  6  1  0  0  0  0
  3  4  2  0  0  0  0
  3  5  1  0  0  0  0
  5  6  2  0  0  0  0
  5  9  1  0  0  0  0
  6  7  1  0  0  0  0
  7  8  1  0  0  0  0
  7 10  2  3  0  0  0
  8  9  2  0  0  0  0
 10 14  1  0  0  0  0
 11 12  1  0  0  0  0
 11 13  1  0  0  0  0
 11 26  2  0  0  0  0
 11 27  2  0  0  0  0
 14 15  2  0  0  0  0
 14 19  1  0  0  0  0
 15 16  1  0  0  0  0
 16 17  2  0  0  0  0
 17 18  1  0  0  0  0
 17 20  1  0  0  0  0
 18 19  2  0  0  0  0
 20 21  2  0  0  0  0
 20 24  1  0  0  0  0
 21 22  1  0  0  0  0
 22 23  1  0  0  0  0
 22 25  1  0  0  0  0
 23 24  2  0  0  0  0
  1 28  1  0  0  0  0
  2 29  1  0  0  0  0
  2 30  1  0  0  0  0
  3 31  1  0  0  0  0
  4 32  1  0  0  0  0
 10 33  1  0  0  0  0
 12 34  1  0  0  0  0
 12 35  1  0  0  0  0
 12 36  1  0  0  0  0
 13 37  1  0  0  0  0
 15 38  1  0  0  0  0
 16 39  1  0  0  0  0
 18 40  1  0  0  0  0
 19 41  1  0  0  0  0
 21 42  1  0  0  0  0
 24 43  1  0  0  0  0
 25 44  1  0  0  0  0
 25 45  1  0  0  0  0
 25 46  1  0  0  0  0
M  END
> <Name>
25

> <IC50[uM]>
0.073

$$$$
25
  -OEChem-05192314333D
 Structure written by MMmdl.
 46 49  0     0  0  0  0  0  0999 V2000
   -6.3861   12.3623  -11.9697 C   0  0  0  0  0  0  0  0  0  0  0  0
   -6.5480   11.8020  -10.7080 C   0  0  0  0  0  0  0  0  0  0  0  0
   -7.6869   10.5726  -13.0325 C   0  0  0  0  0  0  0  0  0  0  0  0
   -6.9529   11.7665  -13.1047 C   0  0  0  0  0  0  0  0  0  0  0  0
   -7.8210   10.0086  -11.7556 C   0  0  0  0  0  0  0  0  0  0  0  0
   -7.2636   10.6177  -10.5919 C   0  0  0  0  0  0  0  0  0  0  0  0
   -7.6330    9.7421   -9.5104 C   0  0  0  0  0  0  0  0  0  0  0  0
   -8.3023    8.7332   -9.9897 N   0  0  0  0  0  0  0  0  0  0  0  0
   -8.4342    8.8678  -11.3051 N   0  0  0  0  0  0  0  0  0  0  0  0
   -7.3415    9.8758   -8.0215 C   0  0  0  0  0  0  0  0  0  0  0  0
   -4.1211   13.8754  -11.2000 S   0  0  0  0  0  0  0  0  0  0  0  0
   -2.9188   12.5402  -11.7675 C   0  0  0  0  0  0  0  0  0  0  0  0
   -5.6382   13.5428  -12.1051 N   0  0  0  0  0  0  0  0  0  0  0  0
   -5.9683   10.4827   -7.7344 C   0  0  0  0  0  0  0  0  0  0  0  0
   -4.8123    9.7690   -8.0490 C   0  0  0  0  0  0  0  0  0  0  0  0
   -3.5592   10.3237   -7.7969 C   0  0  0  0  0  0  0  0  0  0  0  0
   -3.4543   11.5962   -7.2288 C   0  0  0  0  0  0  0  0  0  0  0  0
   -4.6126   12.3085   -6.9084 C   0  0  0  0  0  0  0  0  0  0  0  0
   -5.8671   11.7538   -7.1613 C   0  0  0  0  0  0  0  0  0  0  0  0
   -2.1058   12.1871   -6.9644 C   0  0  0  0  0  0  0  0  0  0  0  0
   -1.7745   13.4406   -6.4637 C   0  0  0  0  0  0  0  0  0  0  0  0
   -0.4394   13.4976   -6.4041 N   0  0  0  0  0  0  0  0  0  0  0  0
    0.1691   12.4146   -6.8015 N   0  0  0  0  0  0  0  0  0  0  0  0
   -0.8034   11.5995   -7.1773 C   0  0  0  0  0  0  0  0  0  0  0  0
    0.3694   14.6144   -5.9538 C   0  0  0  0  0  0  0  0  0  0  0  0
   -3.6497   15.1720  -11.6865 O   0  0  0  0  0  0  0  0  0  0  0  0
   -4.3650   13.6745   -9.7698 O   0  0  0  0  0  0  0  0  0  0  0  0
   -5.5417   11.6132  -10.3059 H   0  0  0  0  0  0  0  0  0  0  0  0
   -7.0576   12.5509  -10.0840 H   0  0  0  0  0  0  0  0  0  0  0  0
   -8.6969   10.7748  -13.4186 H   0  0  0  0  0  0  0  0  0  0  0  0
   -7.1895    9.8325  -13.6766 H   0  0  0  0  0  0  0  0  0  0  0  0
   -6.8205   12.2414  -14.0656 H   0  0  0  0  0  0  0  0  0  0  0  0
   -8.0330    9.5733   -7.2490 H   0  0  0  0  0  0  0  0  0  0  0  0
   -1.9543   12.6728  -11.2554 H   0  0  0  0  0  0  0  0  0  0  0  0
   -3.3298   11.5493  -11.5240 H   0  0  0  0  0  0  0  0  0  0  0  0
   -2.7704   12.6186  -12.8546 H   0  0  0  0  0  0  0  0  0  0  0  0
   -5.3954   13.6013  -13.0734 H   0  0  0  0  0  0  0  0  0  0  0  0
   -4.8884    8.7854   -8.4885 H   0  0  0  0  0  0  0  0  0  0  0  0
   -2.6658    9.7683   -8.0414 H   0  0  0  0  0  0  0  0  0  0  0  0
   -4.5366   13.2900   -6.4643 H   0  0  0  0  0  0  0  0  0  0  0  0
   -6.7612   12.3068   -6.9141 H   0  0  0  0  0  0  0  0  0  0  0  0
   -2.4642   14.2207   -6.1771 H   0  0  0  0  0  0  0  0  0  0  0  0
   -0.6430   10.6154   -7.5924 H   0  0  0  0  0  0  0  0  0  0  0  0
    1.4345   14.3489   -6.0254 H   0  0  0  0  0  0  0  0  0  0  0  0
    0.1671   15.4918   -6.5857 H   0  0  0  0  0  0  0  0  0  0  0  0
    0.1198   14.8498   -4.9087 H   0  0  0  0  0  0  0  0  0  0  0  0
  1  2  1  0  0  0  0
  1  4  2  0  0  0  0
  1 13  1  0  0  0  0
  2  6  1  0  0  0  0
  3  4  1  0  0  0  0
  3  5  1  0  0  0  0
  5  6  2  0  0  0  0
  5  9  1  0  0  0  0
  6  7  1  0  0  0  0
  7  8  1  0  0  0  0
  7 10  2  3  0  0  0
  8  9  2  0  0  0  0
 10 14  1  0  0  0  0
 11 12  1  0  0  0  0
 11 13  1  0  0  0  0
 11 26  2  0  0  0  0
 11 27  2  0  0  0  0
 14 15  2  0  0  0  0
 14 19  1  0  0  0  0
 15 16  1  0  0  0  0
 16 17  2  0  0  0  0
 17 18  1  0  0  0  0
 17 20  1  0  0  0  0
 18 19  2  0  0  0  0
 20 21  2  0  0  0  0
 20 24  1  0  0  0  0
 21 22  1  0  0  0  0
 22 23  1  0  0  0  0
 22 25  1  0  0  0  0
 23 24  2  0  0  0  0
  2 28  1  0  0  0  0
  2 29  1  0  0  0  0
  3 30  1  0  0  0  0
  3 31  1  0  0  0  0
  4 32  1  0  0  0  0
 10 33  1  0  0  0  0
 12 34  1  0  0  0  0
 12 35  1  0  0  0  0
 12 36  1  0  0  0  0
 13 37  1  0  0  0  0
 15 38  1  0  0  0  0
 16 39  1  0  0  0  0
 18 40  1  0  0  0  0
 19 41  1  0  0  0  0
 21 42  1  0  0  0  0
 24 43  1  0  0  0  0
 25 44  1  0  0  0  0
 25 45  1  0  0  0  0
 25 46  1  0  0  0  0
M  END
> <Name>
25

> <IC50[uM]>
0.073

$$$$
25
  -OEChem-05192314333D
 Structure written by MMmdl.
 46 49  0     1  0  0  0  0  0999 V2000
   -6.3861   12.3623  -11.9697 C   0  0  0  0  0  0  0  0  0  0  0  0
   -6.5480   11.8020  -10.7080 C   0  0  0  0  0  0  0  0  0  0  0  0
   -7.6869   10.5726  -13.0325 C   0  0  0  0  0  0  0  0  0  0  0  0
   -6.9529   11.7665  -13.1047 C   0  0  0  0  0  0  0  0  0  0  0  0
   -7.8210   10.0086  -11.7556 C   0  0  3  0  0  0  0  0  0  0  0  0
   -7.2636   10.6177  -10.5919 C   0  0  0  0  0  0  0  0  0  0  0  0
   -7.6330    9.7421   -9.5104 C   0  0  0  0  0  0  0  0  0  0  0  0
   -8.3023    8.7332   -9.9897 N   0  0  0  0  0  0  0  0  0  0  0  0
   -8.4342    8.8678  -11.3051 N   0  0  0  0  0  0  0  0  0  0  0  0
   -7.3415    9.8758   -8.0215 C   0  0  0  0  0  0  0  0  0  0  0  0
   -4.1211   13.8754  -11.2000 S   0  0  0  0  0  0  0  0  0  0  0  0
   -2.9188   12.5402  -11.7675 C   0  0  0  0  0  0  0  0  0  0  0  0
   -5.6382   13.5428  -12.1051 N   0  0  0  0  0  0  0  0  0  0  0  0
   -5.9683   10.4827   -7.7344 C   0  0  0  0  0  0  0  0  0  0  0  0
   -4.8123    9.7690   -8.0490 C   0  0  0  0  0  0  0  0  0  0  0  0
   -3.5592   10.3237   -7.7969 C   0  0  0  0  0  0  0  0  0  0  0  0
   -3.4543   11.5962   -7.2288 C   0  0  0  0  0  0  0  0  0  0  0  0
   -4.6126   12.3085   -6.9084 C   0  0  0  0  0  0  0  0  0  0  0  0
   -5.8671   11.7538   -7.1613 C   0  0  0  0  0  0  0  0  0  0  0  0
   -2.1058   12.1871   -6.9644 C   0  0  0  0  0  0  0  0  0  0  0  0
   -1.7745   13.4406   -6.4637 C   0  0  0  0  0  0  0  0  0  0  0  0
   -0.4394   13.4976   -6.4041 N   0  0  0  0  0  0  0  0  0  0  0  0
    0.1691   12.4146   -6.8015 N   0  0  0  0  0  0  0  0  0  0  0  0
   -0.8034   11.5995   -7.1773 C   0  0  0  0  0  0  0  0  0  0  0  0
    0.3694   14.6144   -5.9538 C   0  0  0  0  0  0  0  0  0  0  0  0
   -3.6497   15.1720  -11.6865 O   0  0  0  0  0  0  0  0  0  0  0  0
   -4.3650   13.6745   -9.7698 O   0  0  0  0  0  0  0  0  0  0  0  0
   -6.1257   12.2782   -9.8355 H   0  0  0  0  0  0  0  0  0  0  0  0
   -8.1227   10.1152  -13.9085 H   0  0  0  0  0  0  0  0  0  0  0  0
   -6.8205   12.2414  -14.0656 H   0  0  0  0  0  0  0  0  0  0  0  0
   -8.7541   10.5711  -11.6042 H   0  0  0  0  0  0  0  0  0  0  0  0
   -8.1107   10.5196   -7.5701 H   0  0  0  0  0  0  0  0  0  0  0  0
   -7.3856    8.8762   -7.5645 H   0  0  0  0  0  0  0  0  0  0  0  0
   -1.9543   12.6728  -11.2554 H   0  0  0  0  0  0  0  0  0  0  0  0
   -3.3298   11.5493  -11.5240 H   0  0  0  0  0  0  0  0  0  0  0  0
   -2.7704   12.6186  -12.8546 H   0  0  0  0  0  0  0  0  0  0  0  0
   -5.3954   13.6013  -13.0734 H   0  0  0  0  0  0  0  0  0  0  0  0
   -4.8884    8.7854   -8.4885 H   0  0  0  0  0  0  0  0  0  0  0  0
   -2.6658    9.7683   -8.0414 H   0  0  0  0  0  0  0  0  0  0  0  0
   -4.5366   13.2900   -6.4643 H   0  0  0  0  0  0  0  0  0  0  0  0
   -6.7612   12.3068   -6.9141 H   0  0  0  0  0  0  0  0  0  0  0  0
   -2.4642   14.2207   -6.1771 H   0  0  0  0  0  0  0  0  0  0  0  0
   -0.6430   10.6154   -7.5924 H   0  0  0  0  0  0  0  0  0  0  0  0
    1.4345   14.3489   -6.0254 H   0  0  0  0  0  0  0  0  0  0  0  0
    0.1671   15.4918   -6.5857 H   0  0  0  0  0  0  0  0  0  0  0  0
    0.1198   14.8498   -4.9087 H   0  0  0  0  0  0  0  0  0  0  0  0
  1  2  2  0  0  0  0
  1  4  1  0  0  0  0
  1 13  1  0  0  0  0
  2  6  1  0  0  0  0
  3  4  2  0  0  0  0
  3  5  1  0  0  0  0
  5  6  1  0  0  0  0
  5  9  1  0  0  0  0
  6  7  2  0  0  0  0
  7  8  1  0  0  0  0
  7 10  1  0  0  0  0
  8  9  2  0  0  0  0
 10 14  1  0  0  0  0
 11 12  1  0  0  0  0
 11 13  1  0  0  0  0
 11 26  2  0  0  0  0
 11 27  2  0  0  0  0
 14 15  2  0  0  0  0
 14 19  1  0  0  0  0
 15 16  1  0  0  0  0
 16 17  2  0  0  0  0
 17 18  1  0  0  0  0
 17 20  1  0  0  0  0
 18 19  2  0  0  0  0
 20 21  2  0  0  0  0
 20 24  1  0  0  0  0
 21 22  1  0  0  0  0
 22 23  1  0  0  0  0
 22 25  1  0  0  0  0
 23 24  2  0  0  0  0
  2 28  1  0  0  0  0
  3 29  1  0  0  0  0
  4 30  1  0  0  0  0
  5 31  1  0  0  0  0
 10 32  1  0  0  0  0
 10 33  1  0  0  0  0
 12 34  1  0  0  0  0
 12 35  1  0  0  0  0
 12 36  1  0  0  0  0
 13 37  1  0  0  0  0
 15 38  1  0  0  0  0
 16 39  1  0  0  0  0
 18 40  1  0  0  0  0
 19 41  1  0  0  0  0
 21 42  1  0  0  0  0
 24 43  1  0  0  0  0
 25 44  1  0  0  0  0
 25 45  1  0  0  0  0
 25 46  1  0  0  0  0
M  END
> <Name>
25

> <IC50[uM]>
0.073

$$$$
25
  -OEChem-05192314333D
 Structure written by MMmdl.
 46 49  0     0  0  0  0  0  0999 V2000
   -6.3861   12.3623  -11.9697 C   0  0  0  0  0  0  0  0  0  0  0  0
   -6.5480   11.8020  -10.7080 C   0  0  0  0  0  0  0  0  0  0  0  0
   -7.6869   10.5726  -13.0325 C   0  0  0  0  0  0  0  0  0  0  0  0
   -6.9529   11.7665  -13.1047 C   0  0  0  0  0  0  0  0  0  0  0  0
   -7.8210   10.0086  -11.7556 C   0  0  0  0  0  0  0  0  0  0  0  0
   -7.2636   10.6177  -10.5919 C   0  0  0  0  0  0  0  0  0  0  0  0
   -7.6330    9.7421   -9.5104 C   0  0  0  0  0  0  0  0  0  0  0  0
   -8.3023    8.7332   -9.9897 N   0  0  0  0  0  0  0  0  0  0  0  0
   -8.4342    8.8678  -11.3051 N   0  0  0  0  0  0  0  0  0  0  0  0
   -7.3415    9.8758   -8.0215 C   0  0  0  0  0  0  0  0  0  0  0  0
   -4.1211   13.8754  -11.2000 S   0  0  0  0  0  0  0  0  0  0  0  0
   -2.9188   12.5402  -11.7675 C   0  0  0  0  0  0  0  0  0  0  0  0
   -5.6382   13.5428  -12.1051 N   0  0  0  0  0  0  0  0  0  0  0  0
   -5.9683   10.4827   -7.7344 C   0  0  0  0  0  0  0  0  0  0  0  0
   -4.8123    9.7690   -8.0490 C   0  0  0  0  0  0  0  0  0  0  0  0
   -3.5592   10.3237   -7.7969 C   0  0  0  0  0  0  0  0  0  0  0  0
   -3.4543   11.5962   -7.2288 C   0  0  0  0  0  0  0  0  0  0  0  0
   -4.6126   12.3085   -6.9084 C   0  0  0  0  0  0  0  0  0  0  0  0
   -5.8671   11.7538   -7.1613 C   0  0  0  0  0  0  0  0  0  0  0  0
   -2.1058   12.1871   -6.9644 C   0  0  0  0  0  0  0  0  0  0  0  0
   -1.7745   13.4406   -6.4637 C   0  0  0  0  0  0  0  0  0  0  0  0
   -0.4394   13.4976   -6.4041 N   0  0  0  0  0  0  0  0  0  0  0  0
    0.1691   12.4146   -6.8015 N   0  0  0  0  0  0  0  0  0  0  0  0
   -0.8034   11.5995   -7.1773 C   0  0  0  0  0  0  0  0  0  0  0  0
    0.3694   14.6144   -5.9538 C   0  0  0  0  0  0  0  0  0  0  0  0
   -3.6497   15.1720  -11.6865 O   0  0  0  0  0  0  0  0  0  0  0  0
   -4.3650   13.6745   -9.7698 O   0  0  0  0  0  0  0  0  0  0  0  0
   -6.1257   12.2782   -9.8355 H   0  0  0  0  0  0  0  0  0  0  0  0
   -8.1227   10.1152  -13.9085 H   0  0  0  0  0  0  0  0  0  0  0  0
   -7.6287   12.5169  -13.5407 H   0  0  0  0  0  0  0  0  0  0  0  0
   -6.1214   11.5746  -13.7988 H   0  0  0  0  0  0  0  0  0  0  0  0
   -8.1107   10.5196   -7.5701 H   0  0  0  0  0  0  0  0  0  0  0  0
   -7.3856    8.8762   -7.5645 H   0  0  0  0  0  0  0  0  0  0  0  0
   -1.9543   12.6728  -11.2554 H   0  0  0  0  0  0  0  0  0  0  0  0
   -3.3298   11.5493  -11.5240 H   0  0  0  0  0  0  0  0  0  0  0  0
   -2.7704   12.6186  -12.8546 H   0  0  0  0  0  0  0  0  0  0  0  0
   -5.3954   13.6013  -13.0734 H   0  0  0  0  0  0  0  0  0  0  0  0
   -4.8884    8.7854   -8.4885 H   0  0  0  0  0  0  0  0  0  0  0  0
   -2.6658    9.7683   -8.0414 H   0  0  0  0  0  0  0  0  0  0  0  0
   -4.5366   13.2900   -6.4643 H   0  0  0  0  0  0  0  0  0  0  0  0
   -6.7612   12.3068   -6.9141 H   0  0  0  0  0  0  0  0  0  0  0  0
   -2.4642   14.2207   -6.1771 H   0  0  0  0  0  0  0  0  0  0  0  0
   -0.6430   10.6154   -7.5924 H   0  0  0  0  0  0  0  0  0  0  0  0
    1.4345   14.3489   -6.0254 H   0  0  0  0  0  0  0  0  0  0  0  0
    0.1671   15.4918   -6.5857 H   0  0  0  0  0  0  0  0  0  0  0  0
    0.1198   14.8498   -4.9087 H   0  0  0  0  0  0  0  0  0  0  0  0
  1  2  2  0  0  0  0
  1  4  1  0  0  0  0
  1 13  1  0  0  0  0
  2  6  1  0  0  0  0
  3  4  1  0  0  0  0
  3  5  2  0  0  0  0
  5  6  1  0  0  0  0
  5  9  1  0  0  0  0
  6  7  2  0  0  0  0
  7  8  1  0  0  0  0
  7 10  1  0  0  0  0
  8  9  2  0  0  0  0
 10 14  1  0  0  0  0
 11 12  1  0  0  0  0
 11 13  1  0  0  0  0
 11 26  2  0  0  0  0
 11 27  2  0  0  0  0
 14 15  2  0  0  0  0
 14 19  1  0  0  0  0
 15 16  1  0  0  0  0
 16 17  2  0  0  0  0
 17 18  1  0  0  0  0
 17 20  1  0  0  0  0
 18 19  2  0  0  0  0
 20 21  2  0  0  0  0
 20 24  1  0  0  0  0
 21 22  1  0  0  0  0
 22 23  1  0  0  0  0
 22 25  1  0  0  0  0
 23 24  2  0  0  0  0
  2 28  1  0  0  0  0
  3 29  1  0  0  0  0
  4 30  1  0  0  0  0
  4 31  1  0  0  0  0
 10 32  1  0  0  0  0
 10 33  1  0  0  0  0
 12 34  1  0  0  0  0
 12 35  1  0  0  0  0
 12 36  1  0  0  0  0
 13 37  1  0  0  0  0
 15 38  1  0  0  0  0
 16 39  1  0  0  0  0
 18 40  1  0  0  0  0
 19 41  1  0  0  0  0
 21 42  1  0  0  0  0
 24 43  1  0  0  0  0
 25 44  1  0  0  0  0
 25 45  1  0  0  0  0
 25 46  1  0  0  0  0
M  END
> <Name>
25

> <IC50[uM]>
0.073

$$$$
25
  -OEChem-05192314333D
 Structure written by MMmdl.
 46 49  0     0  0  0  0  0  0999 V2000
   -6.3861   12.3623  -11.9697 C   0  0  0  0  0  0  0  0  0  0  0  0
   -6.5480   11.8020  -10.7080 C   0  0  0  0  0  0  0  0  0  0  0  0
   -7.6869   10.5726  -13.0325 C   0  0  0  0  0  0  0  0  0  0  0  0
   -6.9529   11.7665  -13.1047 C   0  0  0  0  0  0  0  0  0  0  0  0
   -7.8210   10.0086  -11.7556 C   0  0  0  0  0  0  0  0  0  0  0  0
   -7.2636   10.6177  -10.5919 C   0  0  0  0  0  0  0  0  0  0  0  0
   -7.6330    9.7421   -9.5104 C   0  0  0  0  0  0  0  0  0  0  0  0
   -8.3023    8.7332   -9.9897 N   0  0  0  0  0  0  0  0  0  0  0  0
   -8.4342    8.8678  -11.3051 N   0  0  0  0  0  0  0  0  0  0  0  0
   -7.3415    9.8758   -8.0215 C   0  0  0  0  0  0  0  0  0  0  0  0
   -4.1211   13.8754  -11.2000 S   0  0  0  0  0  0  0  0  0  0  0  0
   -2.9188   12.5402  -11.7675 C   0  0  0  0  0  0  0  0  0  0  0  0
   -5.6382   13.5428  -12.1051 N   0  0  0  0  0  0  0  0  0  0  0  0
   -5.9683   10.4827   -7.7344 C   0  0  0  0  0  0  0  0  0  0  0  0
   -4.8123    9.7690   -8.0490 C   0  0  0  0  0  0  0  0  0  0  0  0
   -3.5592   10.3237   -7.7969 C   0  0  0  0  0  0  0  0  0  0  0  0
   -3.4543   11.5962   -7.2288 C   0  0  0  0  0  0  0  0  0  0  0  0
   -4.6126   12.3085   -6.9084 C   0  0  0  0  0  0  0  0  0  0  0  0
   -5.8671   11.7538   -7.1613 C   0  0  0  0  0  0  0  0  0  0  0  0
   -2.1058   12.1871   -6.9644 C   0  0  0  0  0  0  0  0  0  0  0  0
   -1.7745   13.4406   -6.4637 C   0  0  0  0  0  0  0  0  0  0  0  0
   -0.4394   13.4976   -6.4041 N   0  0  0  0  0  0  0  0  0  0  0  0
    0.1691   12.4146   -6.8015 N   0  0  0  0  0  0  0  0  0  0  0  0
   -0.8034   11.5995   -7.1773 C   0  0  0  0  0  0  0  0  0  0  0  0
    0.3694   14.6144   -5.9538 C   0  0  0  0  0  0  0  0  0  0  0  0
   -3.6497   15.1720  -11.6865 O   0  0  0  0  0  0  0  0  0  0  0  0
   -4.3650   13.6745   -9.7698 O   0  0  0  0  0  0  0  0  0  0  0  0
   -5.5417   11.6132  -10.3059 H   0  0  0  0  0  0  0  0  0  0  0  0
   -7.0576   12.5509  -10.0840 H   0  0  0  0  0  0  0  0  0  0  0  0
   -8.1227   10.1152  -13.9085 H   0  0  0  0  0  0  0  0  0  0  0  0
   -6.8205   12.2414  -14.0656 H   0  0  0  0  0  0  0  0  0  0  0  0
   -8.1107   10.5196   -7.5701 H   0  0  0  0  0  0  0  0  0  0  0  0
   -7.3856    8.8762   -7.5645 H   0  0  0  0  0  0  0  0  0  0  0  0
   -1.9543   12.6728  -11.2554 H   0  0  0  0  0  0  0  0  0  0  0  0
   -3.3298   11.5493  -11.5240 H   0  0  0  0  0  0  0  0  0  0  0  0
   -2.7704   12.6186  -12.8546 H   0  0  0  0  0  0  0  0  0  0  0  0
   -5.3954   13.6013  -13.0734 H   0  0  0  0  0  0  0  0  0  0  0  0
   -4.8884    8.7854   -8.4885 H   0  0  0  0  0  0  0  0  0  0  0  0
   -2.6658    9.7683   -8.0414 H   0  0  0  0  0  0  0  0  0  0  0  0
   -4.5366   13.2900   -6.4643 H   0  0  0  0  0  0  0  0  0  0  0  0
   -6.7612   12.3068   -6.9141 H   0  0  0  0  0  0  0  0  0  0  0  0
   -2.4642   14.2207   -6.1771 H   0  0  0  0  0  0  0  0  0  0  0  0
   -0.6430   10.6154   -7.5924 H   0  0  0  0  0  0  0  0  0  0  0  0
    1.4345   14.3489   -6.0254 H   0  0  0  0  0  0  0  0  0  0  0  0
    0.1671   15.4918   -6.5857 H   0  0  0  0  0  0  0  0  0  0  0  0
    0.1198   14.8498   -4.9087 H   0  0  0  0  0  0  0  0  0  0  0  0
  1  2  1  0  0  0  0
  1  4  2  0  0  0  0
  1 13  1  0  0  0  0
  2  6  1  0  0  0  0
  3  4  1  0  0  0  0
  3  5  2  0  0  0  0
  5  6  1  0  0  0  0
  5  9  1  0  0  0  0
  6  7  2  0  0  0  0
  7  8  1  0  0  0  0
  7 10  1  0  0  0  0
  8  9  2  0  0  0  0
 10 14  1  0  0  0  0
 11 12  1  0  0  0  0
 11 13  1  0  0  0  0
 11 26  2  0  0  0  0
 11 27  2  0  0  0  0
 14 15  2  0  0  0  0
 14 19  1  0  0  0  0
 15 16  1  0  0  0  0
 16 17  2  0  0  0  0
 17 18  1  0  0  0  0
 17 20  1  0  0  0  0
 18 19  2  0  0  0  0
 20 21  2  0  0  0  0
 20 24  1  0  0  0  0
 21 22  1  0  0  0  0
 22 23  1  0  0  0  0
 22 25  1  0  0  0  0
 23 24  2  0  0  0  0
  2 28  1  0  0  0  0
  2 29  1  0  0  0  0
  3 30  1  0  0  0  0
  4 31  1  0  0  0  0
 10 32  1  0  0  0  0
 10 33  1  0  0  0  0
 12 34  1  0  0  0  0
 12 35  1  0  0  0  0
 12 36  1  0  0  0  0
 13 37  1  0  0  0  0
 15 38  1  0  0  0  0
 16 39  1  0  0  0  0
 18 40  1  0  0  0  0
 19 41  1  0  0  0  0
 21 42  1  0  0  0  0
 24 43  1  0  0  0  0
 25 44  1  0  0  0  0
 25 45  1  0  0  0  0
 25 46  1  0  0  0  0
M  END
> <Name>
25

> <IC50[uM]>
0.073

$$$$
25
  -OEChem-05192314333D
 Structure written by MMmdl.
 46 49  0     1  0  0  0  0  0999 V2000
   -6.3861   12.3623  -11.9697 C   0  0  0  0  0  0  0  0  0  0  0  0
   -6.5480   11.8020  -10.7080 C   0  0  0  0  0  0  0  0  0  0  0  0
   -7.6869   10.5726  -13.0325 C   0  0  0  0  0  0  0  0  0  0  0  0
   -6.9529   11.7665  -13.1047 C   0  0  0  0  0  0  0  0  0  0  0  0
   -7.8210   10.0086  -11.7556 C   0  0  0  0  0  0  0  0  0  0  0  0
   -7.2636   10.6177  -10.5919 C   0  0  3  0  0  0  0  0  0  0  0  0
   -7.6330    9.7421   -9.5104 C   0  0  0  0  0  0  0  0  0  0  0  0
   -8.3023    8.7332   -9.9897 N   0  0  0  0  0  0  0  0  0  0  0  0
   -8.4342    8.8678  -11.3051 N   0  0  0  0  0  0  0  0  0  0  0  0
   -7.3415    9.8758   -8.0215 C   0  0  0  0  0  0  0  0  0  0  0  0
   -4.1211   13.8754  -11.2000 S   0  0  0  0  0  0  0  0  0  0  0  0
   -2.9188   12.5402  -11.7675 C   0  0  0  0  0  0  0  0  0  0  0  0
   -5.6382   13.5428  -12.1051 N   0  0  0  0  0  0  0  0  0  0  0  0
   -5.9683   10.4827   -7.7344 C   0  0  0  0  0  0  0  0  0  0  0  0
   -4.8123    9.7690   -8.0490 C   0  0  0  0  0  0  0  0  0  0  0  0
   -3.5592   10.3237   -7.7969 C   0  0  0  0  0  0  0  0  0  0  0  0
   -3.4543   11.5962   -7.2288 C   0  0  0  0  0  0  0  0  0  0  0  0
   -4.6126   12.3085   -6.9084 C   0  0  0  0  0  0  0  0  0  0  0  0
   -5.8671   11.7538   -7.1613 C   0  0  0  0  0  0  0  0  0  0  0  0
   -2.1058   12.1871   -6.9644 C   0  0  0  0  0  0  0  0  0  0  0  0
   -1.7745   13.4406   -6.4637 C   0  0  0  0  0  0  0  0  0  0  0  0
   -0.4394   13.4976   -6.4041 N   0  0  0  0  0  0  0  0  0  0  0  0
    0.1691   12.4146   -6.8015 N   0  0  0  0  0  0  0  0  0  0  0  0
   -0.8034   11.5995   -7.1773 C   0  0  0  0  0  0  0  0  0  0  0  0
    0.3694   14.6144   -5.9538 C   0  0  0  0  0  0  0  0  0  0  0  0
   -3.6497   15.1720  -11.6865 O   0  0  0  0  0  0  0  0  0  0  0  0
   -4.3650   13.6745   -9.7698 O   0  0  0  0  0  0  0  0  0  0  0  0
   -6.1257   12.2782   -9.8355 H   0  0  0  0  0  0  0  0  0  0  0  0
   -8.1227   10.1152  -13.9085 H   0  0  0  0  0  0  0  0  0  0  0  0
   -6.8205   12.2414  -14.0656 H   0  0  0  0  0  0  0  0  0  0  0  0
   -8.1911   11.1909  -10.4462 H   0  0  0  0  0  0  0  0  0  0  0  0
   -8.6624    7.9724   -9.4498 H   0  0  0  0  0  0  0  0  0  0  0  0
   -8.0330    9.5733   -7.2490 H   0  0  0  0  0  0  0  0  0  0  0  0
   -1.9543   12.6728  -11.2554 H   0  0  0  0  0  0  0  0  0  0  0  0
   -3.3298   11.5493  -11.5240 H   0  0  0  0  0  0  0  0  0  0  0  0
   -2.7704   12.6186  -12.8546 H   0  0  0  0  0  0  0  0  0  0  0  0
   -5.3954   13.6013  -13.0734 H   0  0  0  0  0  0  0  0  0  0  0  0
   -4.8884    8.7854   -8.4885 H   0  0  0  0  0  0  0  0  0  0  0  0
   -2.6658    9.7683   -8.0414 H   0  0  0  0  0  0  0  0  0  0  0  0
   -4.5366   13.2900   -6.4643 H   0  0  0  0  0  0  0  0  0  0  0  0
   -6.7612   12.3068   -6.9141 H   0  0  0  0  0  0  0  0  0  0  0  0
   -2.4642   14.2207   -6.1771 H   0  0  0  0  0  0  0  0  0  0  0  0
   -0.6430   10.6154   -7.5924 H   0  0  0  0  0  0  0  0  0  0  0  0
    1.4345   14.3489   -6.0254 H   0  0  0  0  0  0  0  0  0  0  0  0
    0.1671   15.4918   -6.5857 H   0  0  0  0  0  0  0  0  0  0  0  0
    0.1198   14.8498   -4.9087 H   0  0  0  0  0  0  0  0  0  0  0  0
  1  2  2  0  0  0  0
  1  4  1  0  0  0  0
  1 13  1  0  0  0  0
  2  6  1  0  0  0  0
  3  4  2  0  0  0  0
  3  5  1  0  0  0  0
  5  6  1  0  0  0  0
  5  9  2  0  0  0  0
  6  7  1  0  0  0  0
  7  8  1  0  0  0  0
  7 10  2  3  0  0  0
  8  9  1  0  0  0  0
 10 14  1  0  0  0  0
 11 12  1  0  0  0  0
 11 13  1  0  0  0  0
 11 26  2  0  0  0  0
 11 27  2  0  0  0  0
 14 15  2  0  0  0  0
 14 19  1  0  0  0  0
 15 16  1  0  0  0  0
 16 17  2  0  0  0  0
 17 18  1  0  0  0  0
 17 20  1  0  0  0  0
 18 19  2  0  0  0  0
 20 21  2  0  0  0  0
 20 24  1  0  0  0  0
 21 22  1  0  0  0  0
 22 23  1  0  0  0  0
 22 25  1  0  0  0  0
 23 24  2  0  0  0  0
  2 28  1  0  0  0  0
  3 29  1  0  0  0  0
  4 30  1  0  0  0  0
  6 31  1  0  0  0  0
  8 32  1  0  0  0  0
 10 33  1  0  0  0  0
 12 34  1  0  0  0  0
 12 35  1  0  0  0  0
 12 36  1  0  0  0  0
 13 37  1  0  0  0  0
 15 38  1  0  0  0  0
 16 39  1  0  0  0  0
 18 40  1  0  0  0  0
 19 41  1  0  0  0  0
 21 42  1  0  0  0  0
 24 43  1  0  0  0  0
 25 44  1  0  0  0  0
 25 45  1  0  0  0  0
 25 46  1  0  0  0  0
M  END
> <Name>
25

> <IC50[uM]>
0.073

$$$$
25
  -OEChem-05192314333D
 Structure written by MMmdl.
 46 49  0     1  0  0  0  0  0999 V2000
   -6.3861   12.3623  -11.9697 C   0  0  0  0  0  0  0  0  0  0  0  0
   -6.5480   11.8020  -10.7080 C   0  0  0  0  0  0  0  0  0  0  0  0
   -7.6869   10.5726  -13.0325 C   0  0  0  0  0  0  0  0  0  0  0  0
   -6.9529   11.7665  -13.1047 C   0  0  0  0  0  0  0  0  0  0  0  0
   -7.8210   10.0086  -11.7556 C   0  0  3  0  0  0  0  0  0  0  0  0
   -7.2636   10.6177  -10.5919 C   0  0  0  0  0  0  0  0  0  0  0  0
   -7.6330    9.7421   -9.5104 C   0  0  0  0  0  0  0  0  0  0  0  0
   -8.3023    8.7332   -9.9897 N   0  0  0  0  0  0  0  0  0  0  0  0
   -8.4342    8.8678  -11.3051 N   0  0  0  0  0  0  0  0  0  0  0  0
   -7.3415    9.8758   -8.0215 C   0  0  0  0  0  0  0  0  0  0  0  0
   -4.1211   13.8754  -11.2000 S   0  0  0  0  0  0  0  0  0  0  0  0
   -2.9188   12.5402  -11.7675 C   0  0  0  0  0  0  0  0  0  0  0  0
   -5.6382   13.5428  -12.1051 N   0  0  0  0  0  0  0  0  0  0  0  0
   -5.9683   10.4827   -7.7344 C   0  0  0  0  0  0  0  0  0  0  0  0
   -4.8123    9.7690   -8.0490 C   0  0  0  0  0  0  0  0  0  0  0  0
   -3.5592   10.3237   -7.7969 C   0  0  0  0  0  0  0  0  0  0  0  0
   -3.4543   11.5962   -7.2288 C   0  0  0  0  0  0  0  0  0  0  0  0
   -4.6126   12.3085   -6.9084 C   0  0  0  0  0  0  0  0  0  0  0  0
   -5.8671   11.7538   -7.1613 C   0  0  0  0  0  0  0  0  0  0  0  0
   -2.1058   12.1871   -6.9644 C   0  0  0  0  0  0  0  0  0  0  0  0
   -1.7745   13.4406   -6.4637 C   0  0  0  0  0  0  0  0  0  0  0  0
   -0.4394   13.4976   -6.4041 N   0  0  0  0  0  0  0  0  0  0  0  0
    0.1691   12.4146   -6.8015 N   0  0  0  0  0  0  0  0  0  0  0  0
   -0.8034   11.5995   -7.1773 C   0  0  0  0  0  0  0  0  0  0  0  0
    0.3694   14.6144   -5.9538 C   0  0  0  0  0  0  0  0  0  0  0  0
   -3.6497   15.1720  -11.6865 O   0  0  0  0  0  0  0  0  0  0  0  0
   -4.3650   13.6745   -9.7698 O   0  0  0  0  0  0  0  0  0  0  0  0
   -6.1257   12.2782   -9.8355 H   0  0  0  0  0  0  0  0  0  0  0  0
   -8.1227   10.1152  -13.9085 H   0  0  0  0  0  0  0  0  0  0  0  0
   -6.8205   12.2414  -14.0656 H   0  0  0  0  0  0  0  0  0  0  0  0
   -8.7541   10.5711  -11.6042 H   0  0  0  0  0  0  0  0  0  0  0  0
   -7.8128    7.8844   -9.7898 H   0  0  0  0  0  0  0  0  0  0  0  0
   -9.4072    8.9103  -11.5318 H   0  0  0  0  0  0  0  0  0  0  0  0
   -8.0330    9.5733   -7.2490 H   0  0  0  0  0  0  0  0  0  0  0  0
   -1.9543   12.6728  -11.2554 H   0  0  0  0  0  0  0  0  0  0  0  0
   -3.3298   11.5493  -11.5240 H   0  0  0  0  0  0  0  0  0  0  0  0
   -2.7704   12.6186  -12.8546 H   0  0  0  0  0  0  0  0  0  0  0  0
   -4.8884    8.7854   -8.4885 H   0  0  0  0  0  0  0  0  0  0  0  0
   -2.6658    9.7683   -8.0414 H   0  0  0  0  0  0  0  0  0  0  0  0
   -4.5366   13.2900   -6.4643 H   0  0  0  0  0  0  0  0  0  0  0  0
   -6.7612   12.3068   -6.9141 H   0  0  0  0  0  0  0  0  0  0  0  0
   -2.4642   14.2207   -6.1771 H   0  0  0  0  0  0  0  0  0  0  0  0
   -0.6430   10.6154   -7.5924 H   0  0  0  0  0  0  0  0  0  0  0  0
    1.4345   14.3489   -6.0254 H   0  0  0  0  0  0  0  0  0  0  0  0
    0.1671   15.4918   -6.5857 H   0  0  0  0  0  0  0  0  0  0  0  0
    0.1198   14.8498   -4.9087 H   0  0  0  0  0  0  0  0  0  0  0  0
  1  2  1  0  0  0  0
  1  4  1  0  0  0  0
  1 13  2  3  0  0  0
  2  6  2  0  0  0  0
  3  4  2  0  0  0  0
  3  5  1  0  0  0  0
  5  6  1  0  0  0  0
  5  9  1  0  0  0  0
  6  7  1  0  0  0  0
  7  8  1  0  0  0  0
  7 10  2  3  0  0  0
  8  9  1  0  0  0  0
 10 14  1  0  0  0  0
 11 12  1  0  0  0  0
 11 13  1  0  0  0  0
 11 26  2  0  0  0  0
 11 27  2  0  0  0  0
 14 15  2  0  0  0  0
 14 19  1  0  0  0  0
 15 16  1  0  0  0  0
 16 17  2  0  0  0  0
 17 18  1  0  0  0  0
 17 20  1  0  0  0  0
 18 19  2  0  0  0  0
 20 21  2  0  0  0  0
 20 24  1  0  0  0  0
 21 22  1  0  0  0  0
 22 23  1  0  0  0  0
 22 25  1  0  0  0  0
 23 24  2  0  0  0  0
  2 28  1  0  0  0  0
  3 29  1  0  0  0  0
  4 30  1  0  0  0  0
  5 31  1  0  0  0  0
  8 32  1  0  0  0  0
  9 33  1  0  0  0  0
 10 34  1  0  0  0  0
 12 35  1  0  0  0  0
 12 36  1  0  0  0  0
 12 37  1  0  0  0  0
 15 38  1  0  0  0  0
 16 39  1  0  0  0  0
 18 40  1  0  0  0  0
 19 41  1  0  0  0  0
 21 42  1  0  0  0  0
 24 43  1  0  0  0  0
 25 44  1  0  0  0  0
 25 45  1  0  0  0  0
 25 46  1  0  0  0  0
M  END
> <Name>
25

> <IC50[uM]>
0.073

$$$$
25
  -OEChem-05192314333D
 Structure written by MMmdl.
 46 49  0     0  0  0  0  0  0999 V2000
   -6.3861   12.3623  -11.9697 C   0  0  0  0  0  0  0  0  0  0  0  0
   -6.5480   11.8020  -10.7080 C   0  0  0  0  0  0  0  0  0  0  0  0
   -7.6869   10.5726  -13.0325 C   0  0  0  0  0  0  0  0  0  0  0  0
   -6.9529   11.7665  -13.1047 C   0  0  0  0  0  0  0  0  0  0  0  0
   -7.8210   10.0086  -11.7556 C   0  0  0  0  0  0  0  0  0  0  0  0
   -7.2636   10.6177  -10.5919 C   0  0  0  0  0  0  0  0  0  0  0  0
   -7.6330    9.7421   -9.5104 C   0  0  0  0  0  0  0  0  0  0  0  0
   -8.3023    8.7332   -9.9897 N   0  0  0  0  0  0  0  0  0  0  0  0
   -8.4342    8.8678  -11.3051 N   0  0  0  0  0  0  0  0  0  0  0  0
   -7.3415    9.8758   -8.0215 C   0  0  0  0  0  0  0  0  0  0  0  0
   -4.1211   13.8754  -11.2000 S   0  0  0  0  0  0  0  0  0  0  0  0
   -2.9188   12.5402  -11.7675 C   0  0  0  0  0  0  0  0  0  0  0  0
   -5.6382   13.5428  -12.1051 N   0  0  0  0  0  0  0  0  0  0  0  0
   -5.9683   10.4827   -7.7344 C   0  0  0  0  0  0  0  0  0  0  0  0
   -4.8123    9.7690   -8.0490 C   0  0  0  0  0  0  0  0  0  0  0  0
   -3.5592   10.3237   -7.7969 C   0  0  0  0  0  0  0  0  0  0  0  0
   -3.4543   11.5962   -7.2288 C   0  0  0  0  0  0  0  0  0  0  0  0
   -4.6126   12.3085   -6.9084 C   0  0  0  0  0  0  0  0  0  0  0  0
   -5.8671   11.7538   -7.1613 C   0  0  0  0  0  0  0  0  0  0  0  0
   -2.1058   12.1871   -6.9644 C   0  0  0  0  0  0  0  0  0  0  0  0
   -1.7745   13.4406   -6.4637 C   0  0  0  0  0  0  0  0  0  0  0  0
   -0.4394   13.4976   -6.4041 N   0  0  0  0  0  0  0  0  0  0  0  0
    0.1691   12.4146   -6.8015 N   0  0  0  0  0  0  0  0  0  0  0  0
   -0.8034   11.5995   -7.1773 C   0  0  0  0  0  0  0  0  0  0  0  0
    0.3694   14.6144   -5.9538 C   0  0  0  0  0  0  0  0  0  0  0  0
   -3.6497   15.1720  -11.6865 O   0  0  0  0  0  0  0  0  0  0  0  0
   -4.3650   13.6745   -9.7698 O   0  0  0  0  0  0  0  0  0  0  0  0
   -6.1257   12.2782   -9.8355 H   0  0  0  0  0  0  0  0  0  0  0  0
   -8.1227   10.1152  -13.9085 H   0  0  0  0  0  0  0  0  0  0  0  0
   -7.6287   12.5169  -13.5407 H   0  0  0  0  0  0  0  0  0  0  0  0
   -6.1214   11.5746  -13.7988 H   0  0  0  0  0  0  0  0  0  0  0  0
   -7.8128    7.8844   -9.7898 H   0  0  0  0  0  0  0  0  0  0  0  0
   -9.4072    8.9103  -11.5318 H   0  0  0  0  0  0  0  0  0  0  0  0
   -8.0330    9.5733   -7.2490 H   0  0  0  0  0  0  0  0  0  0  0  0
   -1.9543   12.6728  -11.2554 H   0  0  0  0  0  0  0  0  0  0  0  0
   -3.3298   11.5493  -11.5240 H   0  0  0  0  0  0  0  0  0  0  0  0
   -2.7704   12.6186  -12.8546 H   0  0  0  0  0  0  0  0  0  0  0  0
   -4.8884    8.7854   -8.4885 H   0  0  0  0  0  0  0  0  0  0  0  0
   -2.6658    9.7683   -8.0414 H   0  0  0  0  0  0  0  0  0  0  0  0
   -4.5366   13.2900   -6.4643 H   0  0  0  0  0  0  0  0  0  0  0  0
   -6.7612   12.3068   -6.9141 H   0  0  0  0  0  0  0  0  0  0  0  0
   -2.4642   14.2207   -6.1771 H   0  0  0  0  0  0  0  0  0  0  0  0
   -0.6430   10.6154   -7.5924 H   0  0  0  0  0  0  0  0  0  0  0  0
    1.4345   14.3489   -6.0254 H   0  0  0  0  0  0  0  0  0  0  0  0
    0.1671   15.4918   -6.5857 H   0  0  0  0  0  0  0  0  0  0  0  0
    0.1198   14.8498   -4.9087 H   0  0  0  0  0  0  0  0  0  0  0  0
  1  2  1  0  0  0  0
  1  4  1  0  0  0  0
  1 13  2  3  0  0  0
  2  6  2  0  0  0  0
  3  4  1  0  0  0  0
  3  5  2  0  0  0  0
  5  6  1  0  0  0  0
  5  9  1  0  0  0  0
  6  7  1  0  0  0  0
  7  8  1  0  0  0  0
  7 10  2  3  0  0  0
  8  9  1  0  0  0  0
 10 14  1  0  0  0  0
 11 12  1  0  0  0  0
 11 13  1  0  0  0  0
 11 26  2  0  0  0  0
 11 27  2  0  0  0  0
 14 15  2  0  0  0  0
 14 19  1  0  0  0  0
 15 16  1  0  0  0  0
 16 17  2  0  0  0  0
 17 18  1  0  0  0  0
 17 20  1  0  0  0  0
 18 19  2  0  0  0  0
 20 21  2  0  0  0  0
 20 24  1  0  0  0  0
 21 22  1  0  0  0  0
 22 23  1  0  0  0  0
 22 25  1  0  0  0  0
 23 24  2  0  0  0  0
  2 28  1  0  0  0  0
  3 29  1  0  0  0  0
  4 30  1  0  0  0  0
  4 31  1  0  0  0  0
  8 32  1  0  0  0  0
  9 33  1  0  0  0  0
 10 34  1  0  0  0  0
 12 35  1  0  0  0  0
 12 36  1  0  0  0  0
 12 37  1  0  0  0  0
 15 38  1  0  0  0  0
 16 39  1  0  0  0  0
 18 40  1  0  0  0  0
 19 41  1  0  0  0  0
 21 42  1  0  0  0  0
 24 43  1  0  0  0  0
 25 44  1  0  0  0  0
 25 45  1  0  0  0  0
 25 46  1  0  0  0  0
M  END
> <Name>
25

> <IC50[uM]>
0.073

$$$$
25
  -OEChem-05192314333D
 Structure written by MMmdl.
 46 49  0     0  0  0  0  0  0999 V2000
   -6.3861   12.3623  -11.9697 C   0  0  0  0  0  0  0  0  0  0  0  0
   -6.5480   11.8020  -10.7080 C   0  0  0  0  0  0  0  0  0  0  0  0
   -7.6869   10.5726  -13.0325 C   0  0  0  0  0  0  0  0  0  0  0  0
   -6.9529   11.7665  -13.1047 C   0  0  0  0  0  0  0  0  0  0  0  0
   -7.8210   10.0086  -11.7556 C   0  0  0  0  0  0  0  0  0  0  0  0
   -7.2636   10.6177  -10.5919 C   0  0  0  0  0  0  0  0  0  0  0  0
   -7.6330    9.7421   -9.5104 C   0  0  0  0  0  0  0  0  0  0  0  0
   -8.3023    8.7332   -9.9897 N   0  0  0  0  0  0  0  0  0  0  0  0
   -8.4342    8.8678  -11.3051 N   0  0  0  0  0  0  0  0  0  0  0  0
   -7.3415    9.8758   -8.0215 C   0  0  0  0  0  0  0  0  0  0  0  0
   -4.1211   13.8754  -11.2000 S   0  0  0  0  0  0  0  0  0  0  0  0
   -2.9188   12.5402  -11.7675 C   0  0  0  0  0  0  0  0  0  0  0  0
   -5.6382   13.5428  -12.1051 N   0  0  0  0  0  0  0  0  0  0  0  0
   -5.9683   10.4827   -7.7344 C   0  0  0  0  0  0  0  0  0  0  0  0
   -4.8123    9.7690   -8.0490 C   0  0  0  0  0  0  0  0  0  0  0  0
   -3.5592   10.3237   -7.7969 C   0  0  0  0  0  0  0  0  0  0  0  0
   -3.4543   11.5962   -7.2288 C   0  0  0  0  0  0  0  0  0  0  0  0
   -4.6126   12.3085   -6.9084 C   0  0  0  0  0  0  0  0  0  0  0  0
   -5.8671   11.7538   -7.1613 C   0  0  0  0  0  0  0  0  0  0  0  0
   -2.1058   12.1871   -6.9644 C   0  0  0  0  0  0  0  0  0  0  0  0
   -1.7745   13.4406   -6.4637 C   0  0  0  0  0  0  0  0  0  0  0  0
   -0.4394   13.4976   -6.4041 N   0  0  0  0  0  0  0  0  0  0  0  0
    0.1691   12.4146   -6.8015 N   0  0  0  0  0  0  0  0  0  0  0  0
   -0.8034   11.5995   -7.1773 C   0  0  0  0  0  0  0  0  0  0  0  0
    0.3694   14.6144   -5.9538 C   0  0  0  0  0  0  0  0  0  0  0  0
   -3.6497   15.1720  -11.6865 O   0  0  0  0  0  0  0  0  0  0  0  0
   -4.3650   13.6745   -9.7698 O   0  0  0  0  0  0  0  0  0  0  0  0
   -5.5417   11.6132  -10.3059 H   0  0  0  0  0  0  0  0  0  0  0  0
   -7.0576   12.5509  -10.0840 H   0  0  0  0  0  0  0  0  0  0  0  0
   -8.1227   10.1152  -13.9085 H   0  0  0  0  0  0  0  0  0  0  0  0
   -6.8205   12.2414  -14.0656 H   0  0  0  0  0  0  0  0  0  0  0  0
   -7.8128    7.8844   -9.7898 H   0  0  0  0  0  0  0  0  0  0  0  0
   -9.4072    8.9103  -11.5318 H   0  0  0  0  0  0  0  0  0  0  0  0
   -8.0330    9.5733   -7.2490 H   0  0  0  0  0  0  0  0  0  0  0  0
   -1.9543   12.6728  -11.2554 H   0  0  0  0  0  0  0  0  0  0  0  0
   -3.3298   11.5493  -11.5240 H   0  0  0  0  0  0  0  0  0  0  0  0
   -2.7704   12.6186  -12.8546 H   0  0  0  0  0  0  0  0  0  0  0  0
   -4.8884    8.7854   -8.4885 H   0  0  0  0  0  0  0  0  0  0  0  0
   -2.6658    9.7683   -8.0414 H   0  0  0  0  0  0  0  0  0  0  0  0
   -4.5366   13.2900   -6.4643 H   0  0  0  0  0  0  0  0  0  0  0  0
   -6.7612   12.3068   -6.9141 H   0  0  0  0  0  0  0  0  0  0  0  0
   -2.4642   14.2207   -6.1771 H   0  0  0  0  0  0  0  0  0  0  0  0
   -0.6430   10.6154   -7.5924 H   0  0  0  0  0  0  0  0  0  0  0  0
    1.4345   14.3489   -6.0254 H   0  0  0  0  0  0  0  0  0  0  0  0
    0.1671   15.4918   -6.5857 H   0  0  0  0  0  0  0  0  0  0  0  0
    0.1198   14.8498   -4.9087 H   0  0  0  0  0  0  0  0  0  0  0  0
  1  2  1  0  0  0  0
  1  4  1  0  0  0  0
  1 13  2  3  0  0  0
  2  6  1  0  0  0  0
  3  4  2  0  0  0  0
  3  5  1  0  0  0  0
  5  6  2  0  0  0  0
  5  9  1  0  0  0  0
  6  7  1  0  0  0  0
  7  8  1  0  0  0  0
  7 10  2  3  0  0  0
  8  9  1  0  0  0  0
 10 14  1  0  0  0  0
 11 12  1  0  0  0  0
 11 13  1  0  0  0  0
 11 26  2  0  0  0  0
 11 27  2  0  0  0  0
 14 15  2  0  0  0  0
 14 19  1  0  0  0  0
 15 16  1  0  0  0  0
 16 17  2  0  0  0  0
 17 18  1  0  0  0  0
 17 20  1  0  0  0  0
 18 19  2  0  0  0  0
 20 21  2  0  0  0  0
 20 24  1  0  0  0  0
 21 22  1  0  0  0  0
 22 23  1  0  0  0  0
 22 25  1  0  0  0  0
 23 24  2  0  0  0  0
  2 28  1  0  0  0  0
  2 29  1  0  0  0  0
  3 30  1  0  0  0  0
  4 31  1  0  0  0  0
  8 32  1  0  0  0  0
  9 33  1  0  0  0  0
 10 34  1  0  0  0  0
 12 35  1  0  0  0  0
 12 36  1  0  0  0  0
 12 37  1  0  0  0  0
 15 38  1  0  0  0  0
 16 39  1  0  0  0  0
 18 40  1  0  0  0  0
 19 41  1  0  0  0  0
 21 42  1  0  0  0  0
 24 43  1  0  0  0  0
 25 44  1  0  0  0  0
 25 45  1  0  0  0  0
 25 46  1  0  0  0  0
M  END
> <Name>
25

> <IC50[uM]>
0.073

$$$$
25
  -OEChem-05192314333D
 Structure written by MMmdl.
 46 49  0     1  0  0  0  0  0999 V2000
   -6.3861   12.3623  -11.9697 C   0  0  0  0  0  0  0  0  0  0  0  0
   -6.5480   11.8020  -10.7080 C   0  0  0  0  0  0  0  0  0  0  0  0
   -7.6869   10.5726  -13.0325 C   0  0  0  0  0  0  0  0  0  0  0  0
   -6.9529   11.7665  -13.1047 C   0  0  0  0  0  0  0  0  0  0  0  0
   -7.8210   10.0086  -11.7556 C   0  0  0  0  0  0  0  0  0  0  0  0
   -7.2636   10.6177  -10.5919 C   0  0  0  0  0  0  0  0  0  0  0  0
   -7.6330    9.7421   -9.5104 C   0  0  0  0  0  0  0  0  0  0  0  0
   -8.3023    8.7332   -9.9897 N   0  0  0  0  0  0  0  0  0  0  0  0
   -8.4342    8.8678  -11.3051 N   0  0  0  0  0  0  0  0  0  0  0  0
   -7.3415    9.8758   -8.0215 C   0  0  0  0  0  0  0  0  0  0  0  0
   -4.1211   13.8754  -11.2000 S   0  0  0  0  0  0  0  0  0  0  0  0
   -2.9188   12.5402  -11.7675 C   0  0  0  0  0  0  0  0  0  0  0  0
   -5.6382   13.5428  -12.1051 N   0  0  0  0  0  0  0  0  0  0  0  0
   -5.9683   10.4827   -7.7344 C   0  0  0  0  0  0  0  0  0  0  0  0
   -4.8123    9.7690   -8.0490 C   0  0  0  0  0  0  0  0  0  0  0  0
   -3.5592   10.3237   -7.7969 C   0  0  0  0  0  0  0  0  0  0  0  0
   -3.4543   11.5962   -7.2288 C   0  0  0  0  0  0  0  0  0  0  0  0
   -4.6126   12.3085   -6.9084 C   0  0  0  0  0  0  0  0  0  0  0  0
   -5.8671   11.7538   -7.1613 C   0  0  0  0  0  0  0  0  0  0  0  0
   -2.1058   12.1871   -6.9644 C   0  0  3  0  0  0  0  0  0  0  0  0
   -1.7745   13.4406   -6.4637 C   0  0  0  0  0  0  0  0  0  0  0  0
   -0.4394   13.4976   -6.4041 N   0  0  3  0  0  0  0  0  0  0  0  0
    0.1691   12.4146   -6.8015 N   0  0  0  0  0  0  0  0  0  0  0  0
   -0.8034   11.5995   -7.1773 C   0  0  0  0  0  0  0  0  0  0  0  0
    0.3694   14.6144   -5.9538 C   0  0  0  0  0  0  0  0  0  0  0  0
   -3.6497   15.1720  -11.6865 O   0  0  0  0  0  0  0  0  0  0  0  0
   -4.3650   13.6745   -9.7698 O   0  0  0  0  0  0  0  0  0  0  0  0
   -6.1257   12.2782   -9.8355 H   0  0  0  0  0  0  0  0  0  0  0  0
   -8.1227   10.1152  -13.9085 H   0  0  0  0  0  0  0  0  0  0  0  0
   -6.8205   12.2414  -14.0656 H   0  0  0  0  0  0  0  0  0  0  0  0
   -8.6624    7.9724   -9.4498 H   0  0  0  0  0  0  0  0  0  0  0  0
   -8.0330    9.5733   -7.2490 H   0  0  0  0  0  0  0  0  0  0  0  0
   -1.9543   12.6728  -11.2554 H   0  0  0  0  0  0  0  0  0  0  0  0
   -3.3298   11.5493  -11.5240 H   0  0  0  0  0  0  0  0  0  0  0  0
   -2.7704   12.6186  -12.8546 H   0  0  0  0  0  0  0  0  0  0  0  0
   -4.8884    8.7854   -8.4885 H   0  0  0  0  0  0  0  0  0  0  0  0
   -2.6658    9.7683   -8.0414 H   0  0  0  0  0  0  0  0  0  0  0  0
   -4.5366   13.2900   -6.4643 H   0  0  0  0  0  0  0  0  0  0  0  0
   -6.7612   12.3068   -6.9141 H   0  0  0  0  0  0  0  0  0  0  0  0
   -2.1251   11.7808   -5.9424 H   0  0  0  0  0  0  0  0  0  0  0  0
   -2.1568   14.2271   -7.1311 H   0  0  0  0  0  0  0  0  0  0  0  0
   -2.2034   13.5716   -5.4593 H   0  0  0  0  0  0  0  0  0  0  0  0
   -0.6430   10.6154   -7.5924 H   0  0  0  0  0  0  0  0  0  0  0  0
    1.4345   14.3489   -6.0254 H   0  0  0  0  0  0  0  0  0  0  0  0
    0.1671   15.4918   -6.5857 H   0  0  0  0  0  0  0  0  0  0  0  0
    0.1198   14.8498   -4.9087 H   0  0  0  0  0  0  0  0  0  0  0  0
  1  2  1  0  0  0  0
  1  4  1  0  0  0  0
  1 13  2  3  0  0  0
  2  6  2  0  0  0  0
  3  4  2  0  0  0  0
  3  5  1  0  0  0  0
  5  6  1  0  0  0  0
  5  9  2  0  0  0  0
  6  7  1  0  0  0  0
  7  8  1  0  0  0  0
  7 10  2  3  0  0  0
  8  9  1  0  0  0  0
 10 14  1  0  0  0  0
 11 12  1  0  0  0  0
 11 13  1  0  0  0  0
 11 26  2  0  0  0  0
 11 27  2  0  0  0  0
 14 15  2  0  0  0  0
 14 19  1  0  0  0  0
 15 16  1  0  0  0  0
 16 17  2  0  0  0  0
 17 18  1  0  0  0  0
 17 20  1  0  0  0  0
 18 19  2  0  0  0  0
 20 21  1  0  0  0  0
 20 24  1  0  0  0  0
 21 22  1  0  0  0  0
 22 23  1  0  0  0  0
 22 25  1  0  0  0  0
 23 24  2  0  0  0  0
  2 28  1  0  0  0  0
  3 29  1  0  0  0  0
  4 30  1  0  0  0  0
  8 31  1  0  0  0  0
 10 32  1  0  0  0  0
 12 33  1  0  0  0  0
 12 34  1  0  0  0  0
 12 35  1  0  0  0  0
 15 36  1  0  0  0  0
 16 37  1  0  0  0  0
 18 38  1  0  0  0  0
 19 39  1  0  0  0  0
 20 40  1  0  0  0  0
 21 41  1  0  0  0  0
 21 42  1  0  0  0  0
 24 43  1  0  0  0  0
 25 44  1  0  0  0  0
 25 45  1  0  0  0  0
 25 46  1  0  0  0  0
M  END
> <Name>
25

> <IC50[uM]>
0.073

$$$$
25
  -OEChem-05192314333D
 Structure written by MMmdl.
 46 49  0     1  0  0  0  0  0999 V2000
   -6.3861   12.3623  -11.9697 C   0  0  0  0  0  0  0  0  0  0  0  0
   -6.5480   11.8020  -10.7080 C   0  0  0  0  0  0  0  0  0  0  0  0
   -7.6869   10.5726  -13.0325 C   0  0  0  0  0  0  0  0  0  0  0  0
   -6.9529   11.7665  -13.1047 C   0  0  0  0  0  0  0  0  0  0  0  0
   -7.8210   10.0086  -11.7556 C   0  0  0  0  0  0  0  0  0  0  0  0
   -7.2636   10.6177  -10.5919 C   0  0  0  0  0  0  0  0  0  0  0  0
   -7.6330    9.7421   -9.5104 C   0  0  0  0  0  0  0  0  0  0  0  0
   -8.3023    8.7332   -9.9897 N   0  0  0  0  0  0  0  0  0  0  0  0
   -8.4342    8.8678  -11.3051 N   0  0  0  0  0  0  0  0  0  0  0  0
   -7.3415    9.8758   -8.0215 C   0  0  0  0  0  0  0  0  0  0  0  0
   -4.1211   13.8754  -11.2000 S   0  0  0  0  0  0  0  0  0  0  0  0
   -2.9188   12.5402  -11.7675 C   0  0  0  0  0  0  0  0  0  0  0  0
   -5.6382   13.5428  -12.1051 N   0  0  0  0  0  0  0  0  0  0  0  0
   -5.9683   10.4827   -7.7344 C   0  0  0  0  0  0  0  0  0  0  0  0
   -4.8123    9.7690   -8.0490 C   0  0  0  0  0  0  0  0  0  0  0  0
   -3.5592   10.3237   -7.7969 C   0  0  0  0  0  0  0  0  0  0  0  0
   -3.4543   11.5962   -7.2288 C   0  0  0  0  0  0  0  0  0  0  0  0
   -4.6126   12.3085   -6.9084 C   0  0  0  0  0  0  0  0  0  0  0  0
   -5.8671   11.7538   -7.1613 C   0  0  0  0  0  0  0  0  0  0  0  0
   -2.1058   12.1871   -6.9644 C   0  0  0  0  0  0  0  0  0  0  0  0
   -1.7745   13.4406   -6.4637 C   0  0  0  0  0  0  0  0  0  0  0  0
   -0.4394   13.4976   -6.4041 N   0  0  3  0  0  0  0  0  0  0  0  0
    0.1691   12.4146   -6.8015 N   0  0  0  0  0  0  0  0  0  0  0  0
   -0.8034   11.5995   -7.1773 C   0  0  0  0  0  0  0  0  0  0  0  0
    0.3694   14.6144   -5.9538 C   0  0  0  0  0  0  0  0  0  0  0  0
   -3.6497   15.1720  -11.6865 O   0  0  0  0  0  0  0  0  0  0  0  0
   -4.3650   13.6745   -9.7698 O   0  0  0  0  0  0  0  0  0  0  0  0
   -5.5417   11.6132  -10.3059 H   0  0  0  0  0  0  0  0  0  0  0  0
   -7.0576   12.5509  -10.0840 H   0  0  0  0  0  0  0  0  0  0  0  0
   -8.1227   10.1152  -13.9085 H   0  0  0  0  0  0  0  0  0  0  0  0
   -6.8205   12.2414  -14.0656 H   0  0  0  0  0  0  0  0  0  0  0  0
   -8.6624    7.9724   -9.4498 H   0  0  0  0  0  0  0  0  0  0  0  0
   -8.0330    9.5733   -7.2490 H   0  0  0  0  0  0  0  0  0  0  0  0
   -1.9543   12.6728  -11.2554 H   0  0  0  0  0  0  0  0  0  0  0  0
   -3.3298   11.5493  -11.5240 H   0  0  0  0  0  0  0  0  0  0  0  0
   -2.7704   12.6186  -12.8546 H   0  0  0  0  0  0  0  0  0  0  0  0
   -4.8884    8.7854   -8.4885 H   0  0  0  0  0  0  0  0  0  0  0  0
   -2.6658    9.7683   -8.0414 H   0  0  0  0  0  0  0  0  0  0  0  0
   -4.5366   13.2900   -6.4643 H   0  0  0  0  0  0  0  0  0  0  0  0
   -6.7612   12.3068   -6.9141 H   0  0  0  0  0  0  0  0  0  0  0  0
   -2.1568   14.2271   -7.1311 H   0  0  0  0  0  0  0  0  0  0  0  0
   -2.2034   13.5716   -5.4593 H   0  0  0  0  0  0  0  0  0  0  0  0
   -0.6430   10.6154   -7.5924 H   0  0  0  0  0  0  0  0  0  0  0  0
    1.4345   14.3489   -6.0254 H   0  0  0  0  0  0  0  0  0  0  0  0
    0.1671   15.4918   -6.5857 H   0  0  0  0  0  0  0  0  0  0  0  0
    0.1198   14.8498   -4.9087 H   0  0  0  0  0  0  0  0  0  0  0  0
  1  2  1  0  0  0  0
  1  4  1  0  0  0  0
  1 13  2  3  0  0  0
  2  6  1  0  0  0  0
  3  4  2  0  0  0  0
  3  5  1  0  0  0  0
  5  6  1  0  0  0  0
  5  9  2  0  0  0  0
  6  7  2  0  0  0  0
  7  8  1  0  0  0  0
  7 10  1  0  0  0  0
  8  9  1  0  0  0  0
 10 14  2  0  0  0  0
 11 12  1  0  0  0  0
 11 13  1  0  0  0  0
 11 26  2  0  0  0  0
 11 27  2  0  0  0  0
 14 15  1  0  0  0  0
 14 19  1  0  0  0  0
 15 16  2  0  0  0  0
 16 17  1  0  0  0  0
 17 18  1  0  0  0  0
 17 20  2  0  0  0  0
 18 19  2  0  0  0  0
 20 21  1  0  0  0  0
 20 24  1  0  0  0  0
 21 22  1  0  0  0  0
 22 23  1  0  0  0  0
 22 25  1  0  0  0  0
 23 24  2  0  0  0  0
  2 28  1  0  0  0  0
  2 29  1  0  0  0  0
  3 30  1  0  0  0  0
  4 31  1  0  0  0  0
  8 32  1  0  0  0  0
 10 33  1  0  0  0  0
 12 34  1  0  0  0  0
 12 35  1  0  0  0  0
 12 36  1  0  0  0  0
 15 37  1  0  0  0  0
 16 38  1  0  0  0  0
 18 39  1  0  0  0  0
 19 40  1  0  0  0  0
 21 41  1  0  0  0  0
 21 42  1  0  0  0  0
 24 43  1  0  0  0  0
 25 44  1  0  0  0  0
 25 45  1  0  0  0  0
 25 46  1  0  0  0  0
M  END
> <Name>
25

> <IC50[uM]>
0.073

$$$$
25
  -OEChem-05192314333D
 Structure written by MMmdl.
 46 49  0     1  0  0  0  0  0999 V2000
   -6.3861   12.3623  -11.9697 C   0  0  0  0  0  0  0  0  0  0  0  0
   -6.5480   11.8020  -10.7080 C   0  0  0  0  0  0  0  0  0  0  0  0
   -7.6869   10.5726  -13.0325 C   0  0  0  0  0  0  0  0  0  0  0  0
   -6.9529   11.7665  -13.1047 C   0  0  0  0  0  0  0  0  0  0  0  0
   -7.8210   10.0086  -11.7556 C   0  0  0  0  0  0  0  0  0  0  0  0
   -7.2636   10.6177  -10.5919 C   0  0  0  0  0  0  0  0  0  0  0  0
   -7.6330    9.7421   -9.5104 C   0  0  0  0  0  0  0  0  0  0  0  0
   -8.3023    8.7332   -9.9897 N   0  0  0  0  0  0  0  0  0  0  0  0
   -8.4342    8.8678  -11.3051 N   0  0  0  0  0  0  0  0  0  0  0  0
   -7.3415    9.8758   -8.0215 C   0  0  0  0  0  0  0  0  0  0  0  0
   -4.1211   13.8754  -11.2000 S   0  0  0  0  0  0  0  0  0  0  0  0
   -2.9188   12.5402  -11.7675 C   0  0  0  0  0  0  0  0  0  0  0  0
   -5.6382   13.5428  -12.1051 N   0  0  0  0  0  0  0  0  0  0  0  0
   -5.9683   10.4827   -7.7344 C   0  0  0  0  0  0  0  0  0  0  0  0
   -4.8123    9.7690   -8.0490 C   0  0  0  0  0  0  0  0  0  0  0  0
   -3.5592   10.3237   -7.7969 C   0  0  0  0  0  0  0  0  0  0  0  0
   -3.4543   11.5962   -7.2288 C   0  0  0  0  0  0  0  0  0  0  0  0
   -4.6126   12.3085   -6.9084 C   0  0  0  0  0  0  0  0  0  0  0  0
   -5.8671   11.7538   -7.1613 C   0  0  0  0  0  0  0  0  0  0  0  0
   -2.1058   12.1871   -6.9644 C   0  0  0  0  0  0  0  0  0  0  0  0
   -1.7745   13.4406   -6.4637 C   0  0  0  0  0  0  0  0  0  0  0  0
   -0.4394   13.4976   -6.4041 N   0  0  3  0  0  0  0  0  0  0  0  0
    0.1691   12.4146   -6.8015 N   0  0  0  0  0  0  0  0  0  0  0  0
   -0.8034   11.5995   -7.1773 C   0  0  0  0  0  0  0  0  0  0  0  0
    0.3694   14.6144   -5.9538 C   0  0  0  0  0  0  0  0  0  0  0  0
   -3.6497   15.1720  -11.6865 O   0  0  0  0  0  0  0  0  0  0  0  0
   -4.3650   13.6745   -9.7698 O   0  0  0  0  0  0  0  0  0  0  0  0
   -5.5417   11.6132  -10.3059 H   0  0  0  0  0  0  0  0  0  0  0  0
   -7.0576   12.5509  -10.0840 H   0  0  0  0  0  0  0  0  0  0  0  0
   -8.1227   10.1152  -13.9085 H   0  0  0  0  0  0  0  0  0  0  0  0
   -6.8205   12.2414  -14.0656 H   0  0  0  0  0  0  0  0  0  0  0  0
   -8.9191    8.2194  -11.8920 H   0  0  0  0  0  0  0  0  0  0  0  0
   -8.0330    9.5733   -7.2490 H   0  0  0  0  0  0  0  0  0  0  0  0
   -1.9543   12.6728  -11.2554 H   0  0  0  0  0  0  0  0  0  0  0  0
   -3.3298   11.5493  -11.5240 H   0  0  0  0  0  0  0  0  0  0  0  0
   -2.7704   12.6186  -12.8546 H   0  0  0  0  0  0  0  0  0  0  0  0
   -4.8884    8.7854   -8.4885 H   0  0  0  0  0  0  0  0  0  0  0  0
   -2.6658    9.7683   -8.0414 H   0  0  0  0  0  0  0  0  0  0  0  0
   -4.5366   13.2900   -6.4643 H   0  0  0  0  0  0  0  0  0  0  0  0
   -6.7612   12.3068   -6.9141 H   0  0  0  0  0  0  0  0  0  0  0  0
   -2.1568   14.2271   -7.1311 H   0  0  0  0  0  0  0  0  0  0  0  0
   -2.2034   13.5716   -5.4593 H   0  0  0  0  0  0  0  0  0  0  0  0
   -0.6430   10.6154   -7.5924 H   0  0  0  0  0  0  0  0  0  0  0  0
    1.4345   14.3489   -6.0254 H   0  0  0  0  0  0  0  0  0  0  0  0
    0.1671   15.4918   -6.5857 H   0  0  0  0  0  0  0  0  0  0  0  0
    0.1198   14.8498   -4.9087 H   0  0  0  0  0  0  0  0  0  0  0  0
  1  2  1  0  0  0  0
  1  4  1  0  0  0  0
  1 13  2  3  0  0  0
  2  6  1  0  0  0  0
  3  4  2  0  0  0  0
  3  5  1  0  0  0  0
  5  6  2  0  0  0  0
  5  9  1  0  0  0  0
  6  7  1  0  0  0  0
  7  8  2  0  0  0  0
  7 10  1  0  0  0  0
  8  9  1  0  0  0  0
 10 14  2  0  0  0  0
 11 12  1  0  0  0  0
 11 13  1  0  0  0  0
 11 26  2  0  0  0  0
 11 27  2  0  0  0  0
 14 15  1  0  0  0  0
 14 19  1  0  0  0  0
 15 16  2  0  0  0  0
 16 17  1  0  0  0  0
 17 18  1  0  0  0  0
 17 20  2  0  0  0  0
 18 19  2  0  0  0  0
 20 21  1  0  0  0  0
 20 24  1  0  0  0  0
 21 22  1  0  0  0  0
 22 23  1  0  0  0  0
 22 25  1  0  0  0  0
 23 24  2  0  0  0  0
  2 28  1  0  0  0  0
  2 29  1  0  0  0  0
  3 30  1  0  0  0  0
  4 31  1  0  0  0  0
  9 32  1  0  0  0  0
 10 33  1  0  0  0  0
 12 34  1  0  0  0  0
 12 35  1  0  0  0  0
 12 36  1  0  0  0  0
 15 37  1  0  0  0  0
 16 38  1  0  0  0  0
 18 39  1  0  0  0  0
 19 40  1  0  0  0  0
 21 41  1  0  0  0  0
 21 42  1  0  0  0  0
 24 43  1  0  0  0  0
 25 44  1  0  0  0  0
 25 45  1  0  0  0  0
 25 46  1  0  0  0  0
M  END
> <Name>
25

> <IC50[uM]>
0.073

$$$$
25
  -OEChem-05192314333D
 Structure written by MMmdl.
 46 49  0     1  0  0  0  0  0999 V2000
   -6.3861   12.3623  -11.9697 C   0  0  0  0  0  0  0  0  0  0  0  0
   -6.5480   11.8020  -10.7080 C   0  0  0  0  0  0  0  0  0  0  0  0
   -7.6869   10.5726  -13.0325 C   0  0  0  0  0  0  0  0  0  0  0  0
   -6.9529   11.7665  -13.1047 C   0  0  0  0  0  0  0  0  0  0  0  0
   -7.8210   10.0086  -11.7556 C   0  0  0  0  0  0  0  0  0  0  0  0
   -7.2636   10.6177  -10.5919 C   0  0  0  0  0  0  0  0  0  0  0  0
   -7.6330    9.7421   -9.5104 C   0  0  0  0  0  0  0  0  0  0  0  0
   -8.3023    8.7332   -9.9897 N   0  0  0  0  0  0  0  0  0  0  0  0
   -8.4342    8.8678  -11.3051 N   0  0  0  0  0  0  0  0  0  0  0  0
   -7.3415    9.8758   -8.0215 C   0  0  0  0  0  0  0  0  0  0  0  0
   -4.1211   13.8754  -11.2000 S   0  0  0  0  0  0  0  0  0  0  0  0
   -2.9188   12.5402  -11.7675 C   0  0  0  0  0  0  0  0  0  0  0  0
   -5.6382   13.5428  -12.1051 N   0  0  0  0  0  0  0  0  0  0  0  0
   -5.9683   10.4827   -7.7344 C   0  0  0  0  0  0  0  0  0  0  0  0
   -4.8123    9.7690   -8.0490 C   0  0  0  0  0  0  0  0  0  0  0  0
   -3.5592   10.3237   -7.7969 C   0  0  0  0  0  0  0  0  0  0  0  0
   -3.4543   11.5962   -7.2288 C   0  0  0  0  0  0  0  0  0  0  0  0
   -4.6126   12.3085   -6.9084 C   0  0  0  0  0  0  0  0  0  0  0  0
   -5.8671   11.7538   -7.1613 C   0  0  0  0  0  0  0  0  0  0  0  0
   -2.1058   12.1871   -6.9644 C   0  0  0  0  0  0  0  0  0  0  0  0
   -1.7745   13.4406   -6.4637 C   0  0  0  0  0  0  0  0  0  0  0  0
   -0.4394   13.4976   -6.4041 N   0  0  3  0  0  0  0  0  0  0  0  0
    0.1691   12.4146   -6.8015 N   0  0  0  0  0  0  0  0  0  0  0  0
   -0.8034   11.5995   -7.1773 C   0  0  0  0  0  0  0  0  0  0  0  0
    0.3694   14.6144   -5.9538 C   0  0  0  0  0  0  0  0  0  0  0  0
   -3.6497   15.1720  -11.6865 O   0  0  0  0  0  0  0  0  0  0  0  0
   -4.3650   13.6745   -9.7698 O   0  0  0  0  0  0  0  0  0  0  0  0
   -6.1257   12.2782   -9.8355 H   0  0  0  0  0  0  0  0  0  0  0  0
   -8.1227   10.1152  -13.9085 H   0  0  0  0  0  0  0  0  0  0  0  0
   -6.8205   12.2414  -14.0656 H   0  0  0  0  0  0  0  0  0  0  0  0
   -8.6624    7.9724   -9.4498 H   0  0  0  0  0  0  0  0  0  0  0  0
   -8.0330    9.5733   -7.2490 H   0  0  0  0  0  0  0  0  0  0  0  0
   -1.9543   12.6728  -11.2554 H   0  0  0  0  0  0  0  0  0  0  0  0
   -3.3298   11.5493  -11.5240 H   0  0  0  0  0  0  0  0  0  0  0  0
   -2.7704   12.6186  -12.8546 H   0  0  0  0  0  0  0  0  0  0  0  0
   -4.8884    8.7854   -8.4885 H   0  0  0  0  0  0  0  0  0  0  0  0
   -2.6658    9.7683   -8.0414 H   0  0  0  0  0  0  0  0  0  0  0  0
   -4.5366   13.2900   -6.4643 H   0  0  0  0  0  0  0  0  0  0  0  0
   -6.7612   12.3068   -6.9141 H   0  0  0  0  0  0  0  0  0  0  0  0
   -2.4642   14.2207   -6.1771 H   0  0  0  0  0  0  0  0  0  0  0  0
    0.7780   12.6141   -7.5692 H   0  0  0  0  0  0  0  0  0  0  0  0
   -0.7330   10.6686   -6.5955 H   0  0  0  0  0  0  0  0  0  0  0  0
   -0.6852   11.3731   -8.2472 H   0  0  0  0  0  0  0  0  0  0  0  0
    1.4345   14.3488   -6.0253 H   0  0  0  0  0  0  0  0  0  0  0  0
    0.1672   15.4917   -6.5858 H   0  0  0  0  0  0  0  0  0  0  0  0
    0.1197   14.8499   -4.9087 H   0  0  0  0  0  0  0  0  0  0  0  0
  1  2  1  0  0  0  0
  1  4  1  0  0  0  0
  1 13  2  3  0  0  0
  2  6  2  0  0  0  0
  3  4  2  0  0  0  0
  3  5  1  0  0  0  0
  5  6  1  0  0  0  0
  5  9  2  0  0  0  0
  6  7  1  0  0  0  0
  7  8  1  0  0  0  0
  7 10  2  3  0  0  0
  8  9  1  0  0  0  0
 10 14  1  0  0  0  0
 11 12  1  0  0  0  0
 11 13  1  0  0  0  0
 11 26  2  0  0  0  0
 11 27  2  0  0  0  0
 14 15  2  0  0  0  0
 14 19  1  0  0  0  0
 15 16  1  0  0  0  0
 16 17  2  0  0  0  0
 17 18  1  0  0  0  0
 17 20  1  0  0  0  0
 18 19  2  0  0  0  0
 20 21  2  0  0  0  0
 20 24  1  0  0  0  0
 21 22  1  0  0  0  0
 22 23  1  0  0  0  0
 22 25  1  0  0  0  0
 23 24  1  0  0  0  0
  2 28  1  0  0  0  0
  3 29  1  0  0  0  0
  4 30  1  0  0  0  0
  8 31  1  0  0  0  0
 10 32  1  0  0  0  0
 12 33  1  0  0  0  0
 12 34  1  0  0  0  0
 12 35  1  0  0  0  0
 15 36  1  0  0  0  0
 16 37  1  0  0  0  0
 18 38  1  0  0  0  0
 19 39  1  0  0  0  0
 21 40  1  0  0  0  0
 23 41  1  0  0  0  0
 24 42  1  0  0  0  0
 24 43  1  0  0  0  0
 25 44  1  0  0  0  0
 25 45  1  0  0  0  0
 25 46  1  0  0  0  0
M  END
> <Name>
25

> <IC50[uM]>
0.073

$$$$
25
  -OEChem-05192314333D
 Structure written by MMmdl.
 46 49  0     1  0  0  0  0  0999 V2000
   -6.3861   12.3623  -11.9697 C   0  0  0  0  0  0  0  0  0  0  0  0
   -6.5480   11.8020  -10.7080 C   0  0  0  0  0  0  0  0  0  0  0  0
   -7.6869   10.5726  -13.0325 C   0  0  0  0  0  0  0  0  0  0  0  0
   -6.9529   11.7665  -13.1047 C   0  0  0  0  0  0  0  0  0  0  0  0
   -7.8210   10.0086  -11.7556 C   0  0  0  0  0  0  0  0  0  0  0  0
   -7.2636   10.6177  -10.5919 C   0  0  0  0  0  0  0  0  0  0  0  0
   -7.6330    9.7421   -9.5104 C   0  0  0  0  0  0  0  0  0  0  0  0
   -8.3023    8.7332   -9.9897 N   0  0  0  0  0  0  0  0  0  0  0  0
   -8.4342    8.8678  -11.3051 N   0  0  0  0  0  0  0  0  0  0  0  0
   -7.3415    9.8758   -8.0215 C   0  0  0  0  0  0  0  0  0  0  0  0
   -4.1211   13.8754  -11.2000 S   0  0  0  0  0  0  0  0  0  0  0  0
   -2.9188   12.5402  -11.7675 C   0  0  0  0  0  0  0  0  0  0  0  0
   -5.6382   13.5428  -12.1051 N   0  0  0  0  0  0  0  0  0  0  0  0
   -5.9683   10.4827   -7.7344 C   0  0  0  0  0  0  0  0  0  0  0  0
   -4.8123    9.7690   -8.0490 C   0  0  0  0  0  0  0  0  0  0  0  0
   -3.5592   10.3237   -7.7969 C   0  0  0  0  0  0  0  0  0  0  0  0
   -3.4543   11.5962   -7.2288 C   0  0  0  0  0  0  0  0  0  0  0  0
   -4.6126   12.3085   -6.9084 C   0  0  0  0  0  0  0  0  0  0  0  0
   -5.8671   11.7538   -7.1613 C   0  0  0  0  0  0  0  0  0  0  0  0
   -2.1058   12.1871   -6.9644 C   0  0  0  0  0  0  0  0  0  0  0  0
   -1.7745   13.4406   -6.4637 C   0  0  0  0  0  0  0  0  0  0  0  0
   -0.4394   13.4976   -6.4041 N   0  0  3  0  0  0  0  0  0  0  0  0
    0.1691   12.4146   -6.8015 N   0  0  0  0  0  0  0  0  0  0  0  0
   -0.8034   11.5995   -7.1773 C   0  0  0  0  0  0  0  0  0  0  0  0
    0.3694   14.6144   -5.9538 C   0  0  0  0  0  0  0  0  0  0  0  0
   -3.6497   15.1720  -11.6865 O   0  0  0  0  0  0  0  0  0  0  0  0
   -4.3650   13.6745   -9.7698 O   0  0  0  0  0  0  0  0  0  0  0  0
   -6.1257   12.2782   -9.8355 H   0  0  0  0  0  0  0  0  0  0  0  0
   -8.1227   10.1152  -13.9085 H   0  0  0  0  0  0  0  0  0  0  0  0
   -6.8205   12.2414  -14.0656 H   0  0  0  0  0  0  0  0  0  0  0  0
   -8.6624    7.9724   -9.4498 H   0  0  0  0  0  0  0  0  0  0  0  0
   -8.0330    9.5733   -7.2490 H   0  0  0  0  0  0  0  0  0  0  0  0
   -1.9543   12.6728  -11.2554 H   0  0  0  0  0  0  0  0  0  0  0  0
   -3.3298   11.5493  -11.5240 H   0  0  0  0  0  0  0  0  0  0  0  0
   -2.7704   12.6186  -12.8546 H   0  0  0  0  0  0  0  0  0  0  0  0
   -4.8884    8.7854   -8.4885 H   0  0  0  0  0  0  0  0  0  0  0  0
   -2.6658    9.7683   -8.0414 H   0  0  0  0  0  0  0  0  0  0  0  0
   -4.5366   13.2900   -6.4643 H   0  0  0  0  0  0  0  0  0  0  0  0
   -6.7612   12.3068   -6.9141 H   0  0  0  0  0  0  0  0  0  0  0  0
   -2.1568   14.2271   -7.1311 H   0  0  0  0  0  0  0  0  0  0  0  0
   -2.2034   13.5716   -5.4593 H   0  0  0  0  0  0  0  0  0  0  0  0
    0.7780   12.6141   -7.5692 H   0  0  0  0  0  0  0  0  0  0  0  0
   -0.6430   10.6154   -7.5924 H   0  0  0  0  0  0  0  0  0  0  0  0
    1.4345   14.3488   -6.0253 H   0  0  0  0  0  0  0  0  0  0  0  0
    0.1672   15.4917   -6.5858 H   0  0  0  0  0  0  0  0  0  0  0  0
    0.1197   14.8499   -4.9087 H   0  0  0  0  0  0  0  0  0  0  0  0
  1  2  1  0  0  0  0
  1  4  1  0  0  0  0
  1 13  2  3  0  0  0
  2  6  2  0  0  0  0
  3  4  2  0  0  0  0
  3  5  1  0  0  0  0
  5  6  1  0  0  0  0
  5  9  2  0  0  0  0
  6  7  1  0  0  0  0
  7  8  1  0  0  0  0
  7 10  2  3  0  0  0
  8  9  1  0  0  0  0
 10 14  1  0  0  0  0
 11 12  1  0  0  0  0
 11 13  1  0  0  0  0
 11 26  2  0  0  0  0
 11 27  2  0  0  0  0
 14 15  2  0  0  0  0
 14 19  1  0  0  0  0
 15 16  1  0  0  0  0
 16 17  2  0  0  0  0
 17 18  1  0  0  0  0
 17 20  1  0  0  0  0
 18 19  2  0  0  0  0
 20 21  1  0  0  0  0
 20 24  2  0  0  0  0
 21 22  1  0  0  0  0
 22 23  1  0  0  0  0
 22 25  1  0  0  0  0
 23 24  1  0  0  0  0
  2 28  1  0  0  0  0
  3 29  1  0  0  0  0
  4 30  1  0  0  0  0
  8 31  1  0  0  0  0
 10 32  1  0  0  0  0
 12 33  1  0  0  0  0
 12 34  1  0  0  0  0
 12 35  1  0  0  0  0
 15 36  1  0  0  0  0
 16 37  1  0  0  0  0
 18 38  1  0  0  0  0
 19 39  1  0  0  0  0
 21 40  1  0  0  0  0
 21 41  1  0  0  0  0
 23 42  1  0  0  0  0
 24 43  1  0  0  0  0
 25 44  1  0  0  0  0
 25 45  1  0  0  0  0
 25 46  1  0  0  0  0
M  END
> <Name>
25

> <IC50[uM]>
0.073

$$$$
25
  -OEChem-05192314333D
 Structure written by MMmdl.
 46 49  0     1  0  0  0  0  0999 V2000
   -6.3861   12.3623  -11.9697 C   0  0  0  0  0  0  0  0  0  0  0  0
   -6.5480   11.8020  -10.7080 C   0  0  0  0  0  0  0  0  0  0  0  0
   -7.6869   10.5726  -13.0325 C   0  0  0  0  0  0  0  0  0  0  0  0
   -6.9529   11.7665  -13.1047 C   0  0  0  0  0  0  0  0  0  0  0  0
   -7.8210   10.0086  -11.7556 C   0  0  0  0  0  0  0  0  0  0  0  0
   -7.2636   10.6177  -10.5919 C   0  0  0  0  0  0  0  0  0  0  0  0
   -7.6330    9.7421   -9.5104 C   0  0  0  0  0  0  0  0  0  0  0  0
   -8.3023    8.7332   -9.9897 N   0  0  0  0  0  0  0  0  0  0  0  0
   -8.4342    8.8678  -11.3051 N   0  0  0  0  0  0  0  0  0  0  0  0
   -7.3415    9.8758   -8.0215 C   0  0  0  0  0  0  0  0  0  0  0  0
   -4.1211   13.8754  -11.2000 S   0  0  0  0  0  0  0  0  0  0  0  0
   -2.9188   12.5402  -11.7675 C   0  0  0  0  0  0  0  0  0  0  0  0
   -5.6382   13.5428  -12.1051 N   0  0  0  0  0  0  0  0  0  0  0  0
   -5.9683   10.4827   -7.7344 C   0  0  0  0  0  0  0  0  0  0  0  0
   -4.8123    9.7690   -8.0490 C   0  0  0  0  0  0  0  0  0  0  0  0
   -3.5592   10.3237   -7.7969 C   0  0  0  0  0  0  0  0  0  0  0  0
   -3.4543   11.5962   -7.2288 C   0  0  0  0  0  0  0  0  0  0  0  0
   -4.6126   12.3085   -6.9084 C   0  0  0  0  0  0  0  0  0  0  0  0
   -5.8671   11.7538   -7.1613 C   0  0  0  0  0  0  0  0  0  0  0  0
   -2.1058   12.1871   -6.9644 C   0  0  0  0  0  0  0  0  0  0  0  0
   -1.7745   13.4406   -6.4637 C   0  0  0  0  0  0  0  0  0  0  0  0
   -0.4394   13.4976   -6.4041 N   0  0  3  0  0  0  0  0  0  0  0  0
    0.1691   12.4146   -6.8015 N   0  0  0  0  0  0  0  0  0  0  0  0
   -0.8034   11.5995   -7.1773 C   0  0  0  0  0  0  0  0  0  0  0  0
    0.3694   14.6144   -5.9538 C   0  0  0  0  0  0  0  0  0  0  0  0
   -3.6497   15.1720  -11.6865 O   0  0  0  0  0  0  0  0  0  0  0  0
   -4.3650   13.6745   -9.7698 O   0  0  0  0  0  0  0  0  0  0  0  0
   -6.1257   12.2782   -9.8355 H   0  0  0  0  0  0  0  0  0  0  0  0
   -8.1227   10.1152  -13.9085 H   0  0  0  0  0  0  0  0  0  0  0  0
   -7.6287   12.5169  -13.5407 H   0  0  0  0  0  0  0  0  0  0  0  0
   -6.1214   11.5746  -13.7988 H   0  0  0  0  0  0  0  0  0  0  0  0
   -8.9191    8.2194  -11.8920 H   0  0  0  0  0  0  0  0  0  0  0  0
   -8.0330    9.5733   -7.2490 H   0  0  0  0  0  0  0  0  0  0  0  0
   -1.9543   12.6728  -11.2554 H   0  0  0  0  0  0  0  0  0  0  0  0
   -3.3298   11.5493  -11.5240 H   0  0  0  0  0  0  0  0  0  0  0  0
   -2.7704   12.6186  -12.8546 H   0  0  0  0  0  0  0  0  0  0  0  0
   -4.8884    8.7854   -8.4885 H   0  0  0  0  0  0  0  0  0  0  0  0
   -2.6658    9.7683   -8.0414 H   0  0  0  0  0  0  0  0  0  0  0  0
   -4.5366   13.2900   -6.4643 H   0  0  0  0  0  0  0  0  0  0  0  0
   -6.7612   12.3068   -6.9141 H   0  0  0  0  0  0  0  0  0  0  0  0
   -2.1568   14.2271   -7.1311 H   0  0  0  0  0  0  0  0  0  0  0  0
   -2.2034   13.5716   -5.4593 H   0  0  0  0  0  0  0  0  0  0  0  0
   -0.6430   10.6154   -7.5924 H   0  0  0  0  0  0  0  0  0  0  0  0
    1.4345   14.3489   -6.0254 H   0  0  0  0  0  0  0  0  0  0  0  0
    0.1671   15.4918   -6.5857 H   0  0  0  0  0  0  0  0  0  0  0  0
    0.1198   14.8498   -4.9087 H   0  0  0  0  0  0  0  0  0  0  0  0
  1  2  1  0  0  0  0
  1  4  1  0  0  0  0
  1 13  2  3  0  0  0
  2  6  2  0  0  0  0
  3  4  1  0  0  0  0
  3  5  2  0  0  0  0
  5  6  1  0  0  0  0
  5  9  1  0  0  0  0
  6  7  1  0  0  0  0
  7  8  2  0  0  0  0
  7 10  1  0  0  0  0
  8  9  1  0  0  0  0
 10 14  2  0  0  0  0
 11 12  1  0  0  0  0
 11 13  1  0  0  0  0
 11 26  2  0  0  0  0
 11 27  2  0  0  0  0
 14 15  1  0  0  0  0
 14 19  1  0  0  0  0
 15 16  2  0  0  0  0
 16 17  1  0  0  0  0
 17 18  1  0  0  0  0
 17 20  2  0  0  0  0
 18 19  2  0  0  0  0
 20 21  1  0  0  0  0
 20 24  1  0  0  0  0
 21 22  1  0  0  0  0
 22 23  1  0  0  0  0
 22 25  1  0  0  0  0
 23 24  2  0  0  0  0
  2 28  1  0  0  0  0
  3 29  1  0  0  0  0
  4 30  1  0  0  0  0
  4 31  1  0  0  0  0
  9 32  1  0  0  0  0
 10 33  1  0  0  0  0
 12 34  1  0  0  0  0
 12 35  1  0  0  0  0
 12 36  1  0  0  0  0
 15 37  1  0  0  0  0
 16 38  1  0  0  0  0
 18 39  1  0  0  0  0
 19 40  1  0  0  0  0
 21 41  1  0  0  0  0
 21 42  1  0  0  0  0
 24 43  1  0  0  0  0
 25 44  1  0  0  0  0
 25 45  1  0  0  0  0
 25 46  1  0  0  0  0
M  END
> <Name>
25

> <IC50[uM]>
0.073

$$$$
25
  -OEChem-05192314333D
 Structure written by MMmdl.
 46 49  0     0  0  0  0  0  0999 V2000
   -6.3861   12.3623  -11.9697 C   0  0  0  0  0  0  0  0  0  0  0  0
   -6.5480   11.8020  -10.7080 C   0  0  0  0  0  0  0  0  0  0  0  0
   -7.6869   10.5726  -13.0325 C   0  0  0  0  0  0  0  0  0  0  0  0
   -6.9529   11.7665  -13.1047 C   0  0  0  0  0  0  0  0  0  0  0  0
   -7.8210   10.0086  -11.7556 C   0  0  0  0  0  0  0  0  0  0  0  0
   -7.2636   10.6177  -10.5919 C   0  0  0  0  0  0  0  0  0  0  0  0
   -7.6330    9.7421   -9.5104 C   0  0  0  0  0  0  0  0  0  0  0  0
   -8.3023    8.7332   -9.9897 N   0  0  0  0  0  0  0  0  0  0  0  0
   -8.4342    8.8678  -11.3051 N   0  0  0  0  0  0  0  0  0  0  0  0
   -7.3415    9.8758   -8.0215 C   0  0  0  0  0  0  0  0  0  0  0  0
   -4.1211   13.8754  -11.2000 S   0  0  0  0  0  0  0  0  0  0  0  0
   -2.9188   12.5402  -11.7675 C   0  0  0  0  0  0  0  0  0  0  0  0
   -5.6382   13.5428  -12.1051 N   0  0  0  0  0  0  0  0  0  0  0  0
   -5.9683   10.4827   -7.7344 C   0  0  0  0  0  0  0  0  0  0  0  0
   -4.8123    9.7690   -8.0490 C   0  0  0  0  0  0  0  0  0  0  0  0
   -3.5592   10.3237   -7.7969 C   0  0  0  0  0  0  0  0  0  0  0  0
   -3.4543   11.5962   -7.2288 C   0  0  0  0  0  0  0  0  0  0  0  0
   -4.6126   12.3085   -6.9084 C   0  0  0  0  0  0  0  0  0  0  0  0
   -5.8671   11.7538   -7.1613 C   0  0  0  0  0  0  0  0  0  0  0  0
   -2.1058   12.1871   -6.9644 C   0  0  0  0  0  0  0  0  0  0  0  0
   -1.7745   13.4406   -6.4637 C   0  0  0  0  0  0  0  0  0  0  0  0
   -0.4394   13.4976   -6.4041 N   0  0  0  0  0  0  0  0  0  0  0  0
    0.1691   12.4146   -6.8015 N   0  0  0  0  0  0  0  0  0  0  0  0
   -0.8034   11.5995   -7.1773 C   0  0  0  0  0  0  0  0  0  0  0  0
    0.3694   14.6144   -5.9538 C   0  0  0  0  0  0  0  0  0  0  0  0
   -3.6497   15.1720  -11.6865 O   0  0  0  0  0  0  0  0  0  0  0  0
   -4.3650   13.6745   -9.7698 O   0  0  0  0  0  0  0  0  0  0  0  0
   -5.5417   11.6132  -10.3059 H   0  0  0  0  0  0  0  0  0  0  0  0
   -7.0576   12.5509  -10.0840 H   0  0  0  0  0  0  0  0  0  0  0  0
   -8.1227   10.1152  -13.9085 H   0  0  0  0  0  0  0  0  0  0  0  0
   -6.8205   12.2414  -14.0656 H   0  0  0  0  0  0  0  0  0  0  0  0
   -8.6624    7.9724   -9.4498 H   0  0  0  0  0  0  0  0  0  0  0  0
   -8.0330    9.5733   -7.2490 H   0  0  0  0  0  0  0  0  0  0  0  0
   -1.9543   12.6728  -11.2554 H   0  0  0  0  0  0  0  0  0  0  0  0
   -3.3298   11.5493  -11.5240 H   0  0  0  0  0  0  0  0  0  0  0  0
   -2.7704   12.6186  -12.8546 H   0  0  0  0  0  0  0  0  0  0  0  0
   -4.8884    8.7854   -8.4885 H   0  0  0  0  0  0  0  0  0  0  0  0
   -2.6658    9.7683   -8.0414 H   0  0  0  0  0  0  0  0  0  0  0  0
   -3.4550   12.0453   -8.2329 H   0  0  0  0  0  0  0  0  0  0  0  0
   -4.5366   13.2900   -6.4643 H   0  0  0  0  0  0  0  0  0  0  0  0
   -6.7612   12.3068   -6.9141 H   0  0  0  0  0  0  0  0  0  0  0  0
   -2.4642   14.2207   -6.1771 H   0  0  0  0  0  0  0  0  0  0  0  0
   -0.6430   10.6154   -7.5924 H   0  0  0  0  0  0  0  0  0  0  0  0
    1.4345   14.3489   -6.0254 H   0  0  0  0  0  0  0  0  0  0  0  0
    0.1671   15.4918   -6.5857 H   0  0  0  0  0  0  0  0  0  0  0  0
    0.1198   14.8498   -4.9087 H   0  0  0  0  0  0  0  0  0  0  0  0
  1  2  1  0  0  0  0
  1  4  1  0  0  0  0
  1 13  2  3  0  0  0
  2  6  1  0  0  0  0
  3  4  2  0  0  0  0
  3  5  1  0  0  0  0
  5  6  1  0  0  0  0
  5  9  2  0  0  0  0
  6  7  2  0  0  0  0
  7  8  1  0  0  0  0
  7 10  1  0  0  0  0
  8  9  1  0  0  0  0
 10 14  2  0  0  0  0
 11 12  1  0  0  0  0
 11 13  1  0  0  0  0
 11 26  2  0  0  0  0
 11 27  2  0  0  0  0
 14 15  1  0  0  0  0
 14 19  1  0  0  0  0
 15 16  2  0  0  0  0
 16 17  1  0  0  0  0
 17 18  1  0  0  0  0
 17 20  1  0  0  0  0
 18 19  2  0  0  0  0
 20 21  2  0  0  0  0
 20 24  1  0  0  0  0
 21 22  1  0  0  0  0
 22 23  1  0  0  0  0
 22 25  1  0  0  0  0
 23 24  2  0  0  0  0
  2 28  1  0  0  0  0
  2 29  1  0  0  0  0
  3 30  1  0  0  0  0
  4 31  1  0  0  0  0
  8 32  1  0  0  0  0
 10 33  1  0  0  0  0
 12 34  1  0  0  0  0
 12 35  1  0  0  0  0
 12 36  1  0  0  0  0
 15 37  1  0  0  0  0
 16 38  1  0  0  0  0
 17 39  1  0  0  0  0
 18 40  1  0  0  0  0
 19 41  1  0  0  0  0
 21 42  1  0  0  0  0
 24 43  1  0  0  0  0
 25 44  1  0  0  0  0
 25 45  1  0  0  0  0
 25 46  1  0  0  0  0
M  END
> <Name>
25

> <IC50[uM]>
0.073

$$$$
25
  -OEChem-05192314333D
 Structure written by MMmdl.
 46 49  0     0  0  0  0  0  0999 V2000
   -6.3861   12.3623  -11.9697 C   0  0  0  0  0  0  0  0  0  0  0  0
   -6.5480   11.8020  -10.7080 C   0  0  0  0  0  0  0  0  0  0  0  0
   -7.6869   10.5726  -13.0325 C   0  0  0  0  0  0  0  0  0  0  0  0
   -6.9529   11.7665  -13.1047 C   0  0  0  0  0  0  0  0  0  0  0  0
   -7.8210   10.0086  -11.7556 C   0  0  0  0  0  0  0  0  0  0  0  0
   -7.2636   10.6177  -10.5919 C   0  0  0  0  0  0  0  0  0  0  0  0
   -7.6330    9.7421   -9.5104 C   0  0  0  0  0  0  0  0  0  0  0  0
   -8.3023    8.7332   -9.9897 N   0  0  0  0  0  0  0  0  0  0  0  0
   -8.4342    8.8678  -11.3051 N   0  0  0  0  0  0  0  0  0  0  0  0
   -7.3415    9.8758   -8.0215 C   0  0  0  0  0  0  0  0  0  0  0  0
   -4.1211   13.8754  -11.2000 S   0  0  0  0  0  0  0  0  0  0  0  0
   -2.9188   12.5402  -11.7675 C   0  0  0  0  0  0  0  0  0  0  0  0
   -5.6382   13.5428  -12.1051 N   0  0  0  0  0  0  0  0  0  0  0  0
   -5.9683   10.4827   -7.7344 C   0  0  0  0  0  0  0  0  0  0  0  0
   -4.8123    9.7690   -8.0490 C   0  0  0  0  0  0  0  0  0  0  0  0
   -3.5592   10.3237   -7.7969 C   0  0  0  0  0  0  0  0  0  0  0  0
   -3.4543   11.5962   -7.2288 C   0  0  0  0  0  0  0  0  0  0  0  0
   -4.6126   12.3085   -6.9084 C   0  0  0  0  0  0  0  0  0  0  0  0
   -5.8671   11.7538   -7.1613 C   0  0  0  0  0  0  0  0  0  0  0  0
   -2.1058   12.1871   -6.9644 C   0  0  0  0  0  0  0  0  0  0  0  0
   -1.7745   13.4406   -6.4637 C   0  0  0  0  0  0  0  0  0  0  0  0
   -0.4394   13.4976   -6.4041 N   0  0  0  0  0  0  0  0  0  0  0  0
    0.1691   12.4146   -6.8015 N   0  0  0  0  0  0  0  0  0  0  0  0
   -0.8034   11.5995   -7.1773 C   0  0  0  0  0  0  0  0  0  0  0  0
    0.3694   14.6144   -5.9538 C   0  0  0  0  0  0  0  0  0  0  0  0
   -3.6497   15.1720  -11.6865 O   0  0  0  0  0  0  0  0  0  0  0  0
   -4.3650   13.6745   -9.7698 O   0  0  0  0  0  0  0  0  0  0  0  0
   -5.5417   11.6132  -10.3059 H   0  0  0  0  0  0  0  0  0  0  0  0
   -7.0576   12.5509  -10.0840 H   0  0  0  0  0  0  0  0  0  0  0  0
   -8.1227   10.1152  -13.9085 H   0  0  0  0  0  0  0  0  0  0  0  0
   -6.8205   12.2414  -14.0656 H   0  0  0  0  0  0  0  0  0  0  0  0
   -8.9191    8.2194  -11.8920 H   0  0  0  0  0  0  0  0  0  0  0  0
   -8.0330    9.5733   -7.2490 H   0  0  0  0  0  0  0  0  0  0  0  0
   -1.9543   12.6728  -11.2554 H   0  0  0  0  0  0  0  0  0  0  0  0
   -3.3298   11.5493  -11.5240 H   0  0  0  0  0  0  0  0  0  0  0  0
   -2.7704   12.6186  -12.8546 H   0  0  0  0  0  0  0  0  0  0  0  0
   -4.8884    8.7854   -8.4885 H   0  0  0  0  0  0  0  0  0  0  0  0
   -2.6658    9.7683   -8.0414 H   0  0  0  0  0  0  0  0  0  0  0  0
   -3.4550   12.0453   -8.2329 H   0  0  0  0  0  0  0  0  0  0  0  0
   -4.5366   13.2900   -6.4643 H   0  0  0  0  0  0  0  0  0  0  0  0
   -6.7612   12.3068   -6.9141 H   0  0  0  0  0  0  0  0  0  0  0  0
   -2.4642   14.2207   -6.1771 H   0  0  0  0  0  0  0  0  0  0  0  0
   -0.6430   10.6154   -7.5924 H   0  0  0  0  0  0  0  0  0  0  0  0
    1.4345   14.3489   -6.0254 H   0  0  0  0  0  0  0  0  0  0  0  0
    0.1671   15.4918   -6.5857 H   0  0  0  0  0  0  0  0  0  0  0  0
    0.1198   14.8498   -4.9087 H   0  0  0  0  0  0  0  0  0  0  0  0
  1  2  1  0  0  0  0
  1  4  1  0  0  0  0
  1 13  2  3  0  0  0
  2  6  1  0  0  0  0
  3  4  2  0  0  0  0
  3  5  1  0  0  0  0
  5  6  2  0  0  0  0
  5  9  1  0  0  0  0
  6  7  1  0  0  0  0
  7  8  2  0  0  0  0
  7 10  1  0  0  0  0
  8  9  1  0  0  0  0
 10 14  2  0  0  0  0
 11 12  1  0  0  0  0
 11 13  1  0  0  0  0
 11 26  2  0  0  0  0
 11 27  2  0  0  0  0
 14 15  1  0  0  0  0
 14 19  1  0  0  0  0
 15 16  2  0  0  0  0
 16 17  1  0  0  0  0
 17 18  1  0  0  0  0
 17 20  1  0  0  0  0
 18 19  2  0  0  0  0
 20 21  2  0  0  0  0
 20 24  1  0  0  0  0
 21 22  1  0  0  0  0
 22 23  1  0  0  0  0
 22 25  1  0  0  0  0
 23 24  2  0  0  0  0
  2 28  1  0  0  0  0
  2 29  1  0  0  0  0
  3 30  1  0  0  0  0
  4 31  1  0  0  0  0
  9 32  1  0  0  0  0
 10 33  1  0  0  0  0
 12 34  1  0  0  0  0
 12 35  1  0  0  0  0
 12 36  1  0  0  0  0
 15 37  1  0  0  0  0
 16 38  1  0  0  0  0
 17 39  1  0  0  0  0
 18 40  1  0  0  0  0
 19 41  1  0  0  0  0
 21 42  1  0  0  0  0
 24 43  1  0  0  0  0
 25 44  1  0  0  0  0
 25 45  1  0  0  0  0
 25 46  1  0  0  0  0
M  END
> <Name>
25

> <IC50[uM]>
0.073

$$$$
25
  -OEChem-05192314333D
 Structure written by MMmdl.
 46 49  0     0  0  0  0  0  0999 V2000
   -6.3861   12.3623  -11.9697 C   0  0  0  0  0  0  0  0  0  0  0  0
   -6.5480   11.8020  -10.7080 C   0  0  0  0  0  0  0  0  0  0  0  0
   -7.6869   10.5726  -13.0325 C   0  0  0  0  0  0  0  0  0  0  0  0
   -6.9529   11.7665  -13.1047 C   0  0  0  0  0  0  0  0  0  0  0  0
   -7.8210   10.0086  -11.7556 C   0  0  0  0  0  0  0  0  0  0  0  0
   -7.2636   10.6177  -10.5919 C   0  0  0  0  0  0  0  0  0  0  0  0
   -7.6330    9.7421   -9.5104 C   0  0  0  0  0  0  0  0  0  0  0  0
   -8.3023    8.7332   -9.9897 N   0  0  0  0  0  0  0  0  0  0  0  0
   -8.4342    8.8678  -11.3051 N   0  0  0  0  0  0  0  0  0  0  0  0
   -7.3415    9.8758   -8.0215 C   0  0  0  0  0  0  0  0  0  0  0  0
   -4.1211   13.8754  -11.2000 S   0  0  0  0  0  0  0  0  0  0  0  0
   -2.9188   12.5402  -11.7675 C   0  0  0  0  0  0  0  0  0  0  0  0
   -5.6382   13.5428  -12.1051 N   0  0  0  0  0  0  0  0  0  0  0  0
   -5.9683   10.4827   -7.7344 C   0  0  0  0  0  0  0  0  0  0  0  0
   -4.8123    9.7690   -8.0490 C   0  0  0  0  0  0  0  0  0  0  0  0
   -3.5592   10.3237   -7.7969 C   0  0  0  0  0  0  0  0  0  0  0  0
   -3.4543   11.5962   -7.2288 C   0  0  0  0  0  0  0  0  0  0  0  0
   -4.6126   12.3085   -6.9084 C   0  0  0  0  0  0  0  0  0  0  0  0
   -5.8671   11.7538   -7.1613 C   0  0  0  0  0  0  0  0  0  0  0  0
   -2.1058   12.1871   -6.9644 C   0  0  0  0  0  0  0  0  0  0  0  0
   -1.7745   13.4406   -6.4637 C   0  0  0  0  0  0  0  0  0  0  0  0
   -0.4394   13.4976   -6.4041 N   0  0  0  0  0  0  0  0  0  0  0  0
    0.1691   12.4146   -6.8015 N   0  0  0  0  0  0  0  0  0  0  0  0
   -0.8034   11.5995   -7.1773 C   0  0  0  0  0  0  0  0  0  0  0  0
    0.3694   14.6144   -5.9538 C   0  0  0  0  0  0  0  0  0  0  0  0
   -3.6497   15.1720  -11.6865 O   0  0  0  0  0  0  0  0  0  0  0  0
   -4.3650   13.6745   -9.7698 O   0  0  0  0  0  0  0  0  0  0  0  0
   -5.5417   11.6132  -10.3059 H   0  0  0  0  0  0  0  0  0  0  0  0
   -7.0576   12.5509  -10.0840 H   0  0  0  0  0  0  0  0  0  0  0  0
   -8.1227   10.1152  -13.9085 H   0  0  0  0  0  0  0  0  0  0  0  0
   -6.8205   12.2414  -14.0656 H   0  0  0  0  0  0  0  0  0  0  0  0
   -8.6624    7.9724   -9.4498 H   0  0  0  0  0  0  0  0  0  0  0  0
   -8.0330    9.5733   -7.2490 H   0  0  0  0  0  0  0  0  0  0  0  0
   -1.9543   12.6728  -11.2554 H   0  0  0  0  0  0  0  0  0  0  0  0
   -3.3298   11.5493  -11.5240 H   0  0  0  0  0  0  0  0  0  0  0  0
   -2.7704   12.6186  -12.8546 H   0  0  0  0  0  0  0  0  0  0  0  0
   -4.8884    8.7854   -8.4885 H   0  0  0  0  0  0  0  0  0  0  0  0
   -2.6658    9.7683   -8.0414 H   0  0  0  0  0  0  0  0  0  0  0  0
   -4.5366   13.2900   -6.4643 H   0  0  0  0  0  0  0  0  0  0  0  0
   -6.3910   12.4480   -7.8348 H   0  0  0  0  0  0  0  0  0  0  0  0
   -6.3948   11.7100   -6.1971 H   0  0  0  0  0  0  0  0  0  0  0  0
   -2.4642   14.2207   -6.1771 H   0  0  0  0  0  0  0  0  0  0  0  0
   -0.6430   10.6154   -7.5924 H   0  0  0  0  0  0  0  0  0  0  0  0
    1.4345   14.3489   -6.0254 H   0  0  0  0  0  0  0  0  0  0  0  0
    0.1671   15.4918   -6.5857 H   0  0  0  0  0  0  0  0  0  0  0  0
    0.1198   14.8498   -4.9087 H   0  0  0  0  0  0  0  0  0  0  0  0
  1  2  1  0  0  0  0
  1  4  1  0  0  0  0
  1 13  2  3  0  0  0
  2  6  1  0  0  0  0
  3  4  2  0  0  0  0
  3  5  1  0  0  0  0
  5  6  1  0  0  0  0
  5  9  2  0  0  0  0
  6  7  2  0  0  0  0
  7  8  1  0  0  0  0
  7 10  1  0  0  0  0
  8  9  1  0  0  0  0
 10 14  2  3  0  0  0
 11 12  1  0  0  0  0
 11 13  1  0  0  0  0
 11 26  2  0  0  0  0
 11 27  2  0  0  0  0
 14 15  1  0  0  0  0
 14 19  1  0  0  0  0
 15 16  2  0  0  0  0
 16 17  1  0  0  0  0
 17 18  2  0  0  0  0
 17 20  1  0  0  0  0
 18 19  1  0  0  0  0
 20 21  2  0  0  0  0
 20 24  1  0  0  0  0
 21 22  1  0  0  0  0
 22 23  1  0  0  0  0
 22 25  1  0  0  0  0
 23 24  2  0  0  0  0
  2 28  1  0  0  0  0
  2 29  1  0  0  0  0
  3 30  1  0  0  0  0
  4 31  1  0  0  0  0
  8 32  1  0  0  0  0
 10 33  1  0  0  0  0
 12 34  1  0  0  0  0
 12 35  1  0  0  0  0
 12 36  1  0  0  0  0
 15 37  1  0  0  0  0
 16 38  1  0  0  0  0
 18 39  1  0  0  0  0
 19 40  1  0  0  0  0
 19 41  1  0  0  0  0
 21 42  1  0  0  0  0
 24 43  1  0  0  0  0
 25 44  1  0  0  0  0
 25 45  1  0  0  0  0
 25 46  1  0  0  0  0
M  END
> <Name>
25

> <IC50[uM]>
0.073

$$$$
25
  -OEChem-05192314333D
 Structure written by MMmdl.
 46 49  0     0  0  0  0  0  0999 V2000
   -6.3861   12.3623  -11.9697 C   0  0  0  0  0  0  0  0  0  0  0  0
   -6.5480   11.8020  -10.7080 C   0  0  0  0  0  0  0  0  0  0  0  0
   -7.6869   10.5726  -13.0325 C   0  0  0  0  0  0  0  0  0  0  0  0
   -6.9529   11.7665  -13.1047 C   0  0  0  0  0  0  0  0  0  0  0  0
   -7.8210   10.0086  -11.7556 C   0  0  0  0  0  0  0  0  0  0  0  0
   -7.2636   10.6177  -10.5919 C   0  0  0  0  0  0  0  0  0  0  0  0
   -7.6330    9.7421   -9.5104 C   0  0  0  0  0  0  0  0  0  0  0  0
   -8.3023    8.7332   -9.9897 N   0  0  0  0  0  0  0  0  0  0  0  0
   -8.4342    8.8678  -11.3051 N   0  0  0  0  0  0  0  0  0  0  0  0
   -7.3415    9.8758   -8.0215 C   0  0  0  0  0  0  0  0  0  0  0  0
   -4.1211   13.8754  -11.2000 S   0  0  0  0  0  0  0  0  0  0  0  0
   -2.9188   12.5402  -11.7675 C   0  0  0  0  0  0  0  0  0  0  0  0
   -5.6382   13.5428  -12.1051 N   0  0  0  0  0  0  0  0  0  0  0  0
   -5.9683   10.4827   -7.7344 C   0  0  0  0  0  0  0  0  0  0  0  0
   -4.8123    9.7690   -8.0490 C   0  0  0  0  0  0  0  0  0  0  0  0
   -3.5592   10.3237   -7.7969 C   0  0  0  0  0  0  0  0  0  0  0  0
   -3.4543   11.5962   -7.2288 C   0  0  0  0  0  0  0  0  0  0  0  0
   -4.6126   12.3085   -6.9084 C   0  0  0  0  0  0  0  0  0  0  0  0
   -5.8671   11.7538   -7.1613 C   0  0  0  0  0  0  0  0  0  0  0  0
   -2.1058   12.1871   -6.9644 C   0  0  0  0  0  0  0  0  0  0  0  0
   -1.7745   13.4406   -6.4637 C   0  0  0  0  0  0  0  0  0  0  0  0
   -0.4394   13.4976   -6.4041 N   0  0  0  0  0  0  0  0  0  0  0  0
    0.1691   12.4146   -6.8015 N   0  0  0  0  0  0  0  0  0  0  0  0
   -0.8034   11.5995   -7.1773 C   0  0  0  0  0  0  0  0  0  0  0  0
    0.3694   14.6144   -5.9538 C   0  0  0  0  0  0  0  0  0  0  0  0
   -3.6497   15.1720  -11.6865 O   0  0  0  0  0  0  0  0  0  0  0  0
   -4.3650   13.6745   -9.7698 O   0  0  0  0  0  0  0  0  0  0  0  0
   -5.5417   11.6132  -10.3059 H   0  0  0  0  0  0  0  0  0  0  0  0
   -7.0576   12.5509  -10.0840 H   0  0  0  0  0  0  0  0  0  0  0  0
   -8.1227   10.1152  -13.9085 H   0  0  0  0  0  0  0  0  0  0  0  0
   -6.8205   12.2414  -14.0656 H   0  0  0  0  0  0  0  0  0  0  0  0
   -8.9191    8.2194  -11.8920 H   0  0  0  0  0  0  0  0  0  0  0  0
   -8.0330    9.5733   -7.2490 H   0  0  0  0  0  0  0  0  0  0  0  0
   -1.9543   12.6728  -11.2554 H   0  0  0  0  0  0  0  0  0  0  0  0
   -3.3298   11.5493  -11.5240 H   0  0  0  0  0  0  0  0  0  0  0  0
   -2.7704   12.6186  -12.8546 H   0  0  0  0  0  0  0  0  0  0  0  0
   -4.8884    8.7854   -8.4885 H   0  0  0  0  0  0  0  0  0  0  0  0
   -2.6658    9.7683   -8.0414 H   0  0  0  0  0  0  0  0  0  0  0  0
   -4.5366   13.2900   -6.4643 H   0  0  0  0  0  0  0  0  0  0  0  0
   -6.3910   12.4480   -7.8348 H   0  0  0  0  0  0  0  0  0  0  0  0
   -6.3948   11.7100   -6.1971 H   0  0  0  0  0  0  0  0  0  0  0  0
   -2.4642   14.2207   -6.1771 H   0  0  0  0  0  0  0  0  0  0  0  0
   -0.6430   10.6154   -7.5924 H   0  0  0  0  0  0  0  0  0  0  0  0
    1.4345   14.3489   -6.0254 H   0  0  0  0  0  0  0  0  0  0  0  0
    0.1671   15.4918   -6.5857 H   0  0  0  0  0  0  0  0  0  0  0  0
    0.1198   14.8498   -4.9087 H   0  0  0  0  0  0  0  0  0  0  0  0
  1  2  1  0  0  0  0
  1  4  1  0  0  0  0
  1 13  2  3  0  0  0
  2  6  1  0  0  0  0
  3  4  2  0  0  0  0
  3  5  1  0  0  0  0
  5  6  2  0  0  0  0
  5  9  1  0  0  0  0
  6  7  1  0  0  0  0
  7  8  2  0  0  0  0
  7 10  1  0  0  0  0
  8  9  1  0  0  0  0
 10 14  2  3  0  0  0
 11 12  1  0  0  0  0
 11 13  1  0  0  0  0
 11 26  2  0  0  0  0
 11 27  2  0  0  0  0
 14 15  1  0  0  0  0
 14 19  1  0  0  0  0
 15 16  2  0  0  0  0
 16 17  1  0  0  0  0
 17 18  2  0  0  0  0
 17 20  1  0  0  0  0
 18 19  1  0  0  0  0
 20 21  2  0  0  0  0
 20 24  1  0  0  0  0
 21 22  1  0  0  0  0
 22 23  1  0  0  0  0
 22 25  1  0  0  0  0
 23 24  2  0  0  0  0
  2 28  1  0  0  0  0
  2 29  1  0  0  0  0
  3 30  1  0  0  0  0
  4 31  1  0  0  0  0
  9 32  1  0  0  0  0
 10 33  1  0  0  0  0
 12 34  1  0  0  0  0
 12 35  1  0  0  0  0
 12 36  1  0  0  0  0
 15 37  1  0  0  0  0
 16 38  1  0  0  0  0
 18 39  1  0  0  0  0
 19 40  1  0  0  0  0
 19 41  1  0  0  0  0
 21 42  1  0  0  0  0
 24 43  1  0  0  0  0
 25 44  1  0  0  0  0
 25 45  1  0  0  0  0
 25 46  1  0  0  0  0
M  END
> <Name>
25

> <IC50[uM]>
0.073

$$$$
25
  -OEChem-05192314333D
 Structure written by MMmdl.
 46 49  0     0  0  0  0  0  0999 V2000
   -6.3861   12.3623  -11.9697 C   0  0  0  0  0  0  0  0  0  0  0  0
   -6.5480   11.8020  -10.7080 C   0  0  0  0  0  0  0  0  0  0  0  0
   -7.6869   10.5726  -13.0325 C   0  0  0  0  0  0  0  0  0  0  0  0
   -6.9529   11.7665  -13.1047 C   0  0  0  0  0  0  0  0  0  0  0  0
   -7.8210   10.0086  -11.7556 C   0  0  0  0  0  0  0  0  0  0  0  0
   -7.2636   10.6177  -10.5919 C   0  0  0  0  0  0  0  0  0  0  0  0
   -7.6330    9.7421   -9.5104 C   0  0  0  0  0  0  0  0  0  0  0  0
   -8.3023    8.7332   -9.9897 N   0  0  0  0  0  0  0  0  0  0  0  0
   -8.4342    8.8678  -11.3051 N   0  0  0  0  0  0  0  0  0  0  0  0
   -7.3415    9.8758   -8.0215 C   0  0  0  0  0  0  0  0  0  0  0  0
   -4.1211   13.8754  -11.2000 S   0  0  0  0  0  0  0  0  0  0  0  0
   -2.9188   12.5402  -11.7675 C   0  0  0  0  0  0  0  0  0  0  0  0
   -5.6382   13.5428  -12.1051 N   0  0  0  0  0  0  0  0  0  0  0  0
   -5.9683   10.4827   -7.7344 C   0  0  0  0  0  0  0  0  0  0  0  0
   -4.8123    9.7690   -8.0490 C   0  0  0  0  0  0  0  0  0  0  0  0
   -3.5592   10.3237   -7.7969 C   0  0  0  0  0  0  0  0  0  0  0  0
   -3.4543   11.5962   -7.2288 C   0  0  0  0  0  0  0  0  0  0  0  0
   -4.6126   12.3085   -6.9084 C   0  0  0  0  0  0  0  0  0  0  0  0
   -5.8671   11.7538   -7.1613 C   0  0  0  0  0  0  0  0  0  0  0  0
   -2.1058   12.1871   -6.9644 C   0  0  0  0  0  0  0  0  0  0  0  0
   -1.7745   13.4406   -6.4637 C   0  0  0  0  0  0  0  0  0  0  0  0
   -0.4394   13.4976   -6.4041 N   0  0  0  0  0  0  0  0  0  0  0  0
    0.1691   12.4146   -6.8015 N   0  0  0  0  0  0  0  0  0  0  0  0
   -0.8034   11.5995   -7.1773 C   0  0  0  0  0  0  0  0  0  0  0  0
    0.3694   14.6144   -5.9538 C   0  0  0  0  0  0  0  0  0  0  0  0
   -3.6497   15.1720  -11.6865 O   0  0  0  0  0  0  0  0  0  0  0  0
   -4.3650   13.6745   -9.7698 O   0  0  0  0  0  0  0  0  0  0  0  0
   -6.1257   12.2782   -9.8355 H   0  0  0  0  0  0  0  0  0  0  0  0
   -8.1227   10.1152  -13.9085 H   0  0  0  0  0  0  0  0  0  0  0  0
   -6.8205   12.2414  -14.0656 H   0  0  0  0  0  0  0  0  0  0  0  0
   -8.6624    7.9724   -9.4498 H   0  0  0  0  0  0  0  0  0  0  0  0
   -8.0330    9.5733   -7.2490 H   0  0  0  0  0  0  0  0  0  0  0  0
   -1.9543   12.6728  -11.2554 H   0  0  0  0  0  0  0  0  0  0  0  0
   -3.3298   11.5493  -11.5240 H   0  0  0  0  0  0  0  0  0  0  0  0
   -2.7704   12.6186  -12.8546 H   0  0  0  0  0  0  0  0  0  0  0  0
   -5.9765   10.0300   -6.7319 H   0  0  0  0  0  0  0  0  0  0  0  0
   -4.8884    8.7854   -8.4885 H   0  0  0  0  0  0  0  0  0  0  0  0
   -2.6658    9.7683   -8.0414 H   0  0  0  0  0  0  0  0  0  0  0  0
   -3.4550   12.0453   -8.2329 H   0  0  0  0  0  0  0  0  0  0  0  0
   -4.5366   13.2900   -6.4643 H   0  0  0  0  0  0  0  0  0  0  0  0
   -6.7612   12.3068   -6.9141 H   0  0  0  0  0  0  0  0  0  0  0  0
   -2.4642   14.2207   -6.1771 H   0  0  0  0  0  0  0  0  0  0  0  0
   -0.6430   10.6154   -7.5924 H   0  0  0  0  0  0  0  0  0  0  0  0
    1.4345   14.3489   -6.0254 H   0  0  0  0  0  0  0  0  0  0  0  0
    0.1671   15.4918   -6.5857 H   0  0  0  0  0  0  0  0  0  0  0  0
    0.1198   14.8498   -4.9087 H   0  0  0  0  0  0  0  0  0  0  0  0
  1  2  1  0  0  0  0
  1  4  1  0  0  0  0
  1 13  2  3  0  0  0
  2  6  2  0  0  0  0
  3  4  2  0  0  0  0
  3  5  1  0  0  0  0
  5  6  1  0  0  0  0
  5  9  2  0  0  0  0
  6  7  1  0  0  0  0
  7  8  1  0  0  0  0
  7 10  2  3  0  0  0
  8  9  1  0  0  0  0
 10 14  1  0  0  0  0
 11 12  1  0  0  0  0
 11 13  1  0  0  0  0
 11 26  2  0  0  0  0
 11 27  2  0  0  0  0
 14 15  1  0  0  0  0
 14 19  1  0  0  0  0
 15 16  2  0  0  0  0
 16 17  1  0  0  0  0
 17 18  1  0  0  0  0
 17 20  1  0  0  0  0
 18 19  2  0  0  0  0
 20 21  2  0  0  0  0
 20 24  1  0  0  0  0
 21 22  1  0  0  0  0
 22 23  1  0  0  0  0
 22 25  1  0  0  0  0
 23 24  2  0  0  0  0
  2 28  1  0  0  0  0
  3 29  1  0  0  0  0
  4 30  1  0  0  0  0
  8 31  1  0  0  0  0
 10 32  1  0  0  0  0
 12 33  1  0  0  0  0
 12 34  1  0  0  0  0
 12 35  1  0  0  0  0
 14 36  1  0  0  0  0
 15 37  1  0  0  0  0
 16 38  1  0  0  0  0
 17 39  1  0  0  0  0
 18 40  1  0  0  0  0
 19 41  1  0  0  0  0
 21 42  1  0  0  0  0
 24 43  1  0  0  0  0
 25 44  1  0  0  0  0
 25 45  1  0  0  0  0
 25 46  1  0  0  0  0
M  END
> <Name>
25

> <IC50[uM]>
0.073

$$$$
25
  -OEChem-05192314333D
 Structure written by MMmdl.
 46 49  0     0  0  0  0  0  0999 V2000
   -6.3861   12.3623  -11.9697 C   0  0  0  0  0  0  0  0  0  0  0  0
   -6.5480   11.8020  -10.7080 C   0  0  0  0  0  0  0  0  0  0  0  0
   -7.6869   10.5726  -13.0325 C   0  0  0  0  0  0  0  0  0  0  0  0
   -6.9529   11.7665  -13.1047 C   0  0  0  0  0  0  0  0  0  0  0  0
   -7.8210   10.0086  -11.7556 C   0  0  0  0  0  0  0  0  0  0  0  0
   -7.2636   10.6177  -10.5919 C   0  0  0  0  0  0  0  0  0  0  0  0
   -7.6330    9.7421   -9.5104 C   0  0  0  0  0  0  0  0  0  0  0  0
   -8.3023    8.7332   -9.9897 N   0  0  0  0  0  0  0  0  0  0  0  0
   -8.4342    8.8678  -11.3051 N   0  0  0  0  0  0  0  0  0  0  0  0
   -7.3415    9.8758   -8.0215 C   0  0  0  0  0  0  0  0  0  0  0  0
   -4.1211   13.8754  -11.2000 S   0  0  0  0  0  0  0  0  0  0  0  0
   -2.9188   12.5402  -11.7675 C   0  0  0  0  0  0  0  0  0  0  0  0
   -5.6382   13.5428  -12.1051 N   0  0  0  0  0  0  0  0  0  0  0  0
   -5.9683   10.4827   -7.7344 C   0  0  0  0  0  0  0  0  0  0  0  0
   -4.8123    9.7690   -8.0490 C   0  0  0  0  0  0  0  0  0  0  0  0
   -3.5592   10.3237   -7.7969 C   0  0  0  0  0  0  0  0  0  0  0  0
   -3.4543   11.5962   -7.2288 C   0  0  0  0  0  0  0  0  0  0  0  0
   -4.6126   12.3085   -6.9084 C   0  0  0  0  0  0  0  0  0  0  0  0
   -5.8671   11.7538   -7.1613 C   0  0  0  0  0  0  0  0  0  0  0  0
   -2.1058   12.1871   -6.9644 C   0  0  0  0  0  0  0  0  0  0  0  0
   -1.7745   13.4406   -6.4637 C   0  0  0  0  0  0  0  0  0  0  0  0
   -0.4394   13.4976   -6.4041 N   0  0  0  0  0  0  0  0  0  0  0  0
    0.1691   12.4146   -6.8015 N   0  0  0  0  0  0  0  0  0  0  0  0
   -0.8034   11.5995   -7.1773 C   0  0  0  0  0  0  0  0  0  0  0  0
    0.3694   14.6144   -5.9538 C   0  0  0  0  0  0  0  0  0  0  0  0
   -3.6497   15.1720  -11.6865 O   0  0  0  0  0  0  0  0  0  0  0  0
   -4.3650   13.6745   -9.7698 O   0  0  0  0  0  0  0  0  0  0  0  0
   -6.1257   12.2782   -9.8355 H   0  0  0  0  0  0  0  0  0  0  0  0
   -8.1227   10.1152  -13.9085 H   0  0  0  0  0  0  0  0  0  0  0  0
   -7.6287   12.5169  -13.5407 H   0  0  0  0  0  0  0  0  0  0  0  0
   -6.1214   11.5746  -13.7988 H   0  0  0  0  0  0  0  0  0  0  0  0
   -8.9191    8.2194  -11.8920 H   0  0  0  0  0  0  0  0  0  0  0  0
   -8.0330    9.5733   -7.2490 H   0  0  0  0  0  0  0  0  0  0  0  0
   -1.9543   12.6728  -11.2554 H   0  0  0  0  0  0  0  0  0  0  0  0
   -3.3298   11.5493  -11.5240 H   0  0  0  0  0  0  0  0  0  0  0  0
   -2.7704   12.6186  -12.8546 H   0  0  0  0  0  0  0  0  0  0  0  0
   -4.8884    8.7854   -8.4885 H   0  0  0  0  0  0  0  0  0  0  0  0
   -2.6658    9.7683   -8.0414 H   0  0  0  0  0  0  0  0  0  0  0  0
   -3.4550   12.0453   -8.2329 H   0  0  0  0  0  0  0  0  0  0  0  0
   -4.5366   13.2900   -6.4643 H   0  0  0  0  0  0  0  0  0  0  0  0
   -6.7612   12.3068   -6.9141 H   0  0  0  0  0  0  0  0  0  0  0  0
   -2.4642   14.2207   -6.1771 H   0  0  0  0  0  0  0  0  0  0  0  0
   -0.6430   10.6154   -7.5924 H   0  0  0  0  0  0  0  0  0  0  0  0
    1.4345   14.3489   -6.0254 H   0  0  0  0  0  0  0  0  0  0  0  0
    0.1671   15.4918   -6.5857 H   0  0  0  0  0  0  0  0  0  0  0  0
    0.1198   14.8498   -4.9087 H   0  0  0  0  0  0  0  0  0  0  0  0
  1  2  1  0  0  0  0
  1  4  1  0  0  0  0
  1 13  2  3  0  0  0
  2  6  2  0  0  0  0
  3  4  1  0  0  0  0
  3  5  2  0  0  0  0
  5  6  1  0  0  0  0
  5  9  1  0  0  0  0
  6  7  1  0  0  0  0
  7  8  2  0  0  0  0
  7 10  1  0  0  0  0
  8  9  1  0  0  0  0
 10 14  2  0  0  0  0
 11 12  1  0  0  0  0
 11 13  1  0  0  0  0
 11 26  2  0  0  0  0
 11 27  2  0  0  0  0
 14 15  1  0  0  0  0
 14 19  1  0  0  0  0
 15 16  2  0  0  0  0
 16 17  1  0  0  0  0
 17 18  1  0  0  0  0
 17 20  1  0  0  0  0
 18 19  2  0  0  0  0
 20 21  2  0  0  0  0
 20 24  1  0  0  0  0
 21 22  1  0  0  0  0
 22 23  1  0  0  0  0
 22 25  1  0  0  0  0
 23 24  2  0  0  0  0
  2 28  1  0  0  0  0
  3 29  1  0  0  0  0
  4 30  1  0  0  0  0
  4 31  1  0  0  0  0
  9 32  1  0  0  0  0
 10 33  1  0  0  0  0
 12 34  1  0  0  0  0
 12 35  1  0  0  0  0
 12 36  1  0  0  0  0
 15 37  1  0  0  0  0
 16 38  1  0  0  0  0
 17 39  1  0  0  0  0
 18 40  1  0  0  0  0
 19 41  1  0  0  0  0
 21 42  1  0  0  0  0
 24 43  1  0  0  0  0
 25 44  1  0  0  0  0
 25 45  1  0  0  0  0
 25 46  1  0  0  0  0
M  END
> <Name>
25

> <IC50[uM]>
0.073

$$$$
25
  -OEChem-05192314333D
 Structure written by MMmdl.
 46 49  0     1  0  0  0  0  0999 V2000
   -6.3861   12.3623  -11.9697 C   0  0  0  0  0  0  0  0  0  0  0  0
   -6.5480   11.8020  -10.7080 C   0  0  0  0  0  0  0  0  0  0  0  0
   -7.6869   10.5726  -13.0325 C   0  0  0  0  0  0  0  0  0  0  0  0
   -6.9529   11.7665  -13.1047 C   0  0  0  0  0  0  0  0  0  0  0  0
   -7.8210   10.0086  -11.7556 C   0  0  0  0  0  0  0  0  0  0  0  0
   -7.2636   10.6177  -10.5919 C   0  0  0  0  0  0  0  0  0  0  0  0
   -7.6330    9.7421   -9.5104 C   0  0  0  0  0  0  0  0  0  0  0  0
   -8.3023    8.7332   -9.9897 N   0  0  0  0  0  0  0  0  0  0  0  0
   -8.4342    8.8678  -11.3051 N   0  0  0  0  0  0  0  0  0  0  0  0
   -7.3415    9.8758   -8.0215 C   0  0  0  0  0  0  0  0  0  0  0  0
   -4.1211   13.8754  -11.2000 S   0  0  0  0  0  0  0  0  0  0  0  0
   -2.9188   12.5402  -11.7675 C   0  0  0  0  0  0  0  0  0  0  0  0
   -5.6382   13.5428  -12.1051 N   0  0  0  0  0  0  0  0  0  0  0  0
   -5.9683   10.4827   -7.7344 C   0  0  0  0  0  0  0  0  0  0  0  0
   -4.8123    9.7690   -8.0490 C   0  0  0  0  0  0  0  0  0  0  0  0
   -3.5592   10.3237   -7.7969 C   0  0  0  0  0  0  0  0  0  0  0  0
   -3.4543   11.5962   -7.2288 C   0  0  3  0  0  0  0  0  0  0  0  0
   -4.6126   12.3085   -6.9084 C   0  0  0  0  0  0  0  0  0  0  0  0
   -5.8671   11.7538   -7.1613 C   0  0  0  0  0  0  0  0  0  0  0  0
   -2.1058   12.1871   -6.9644 C   0  0  0  0  0  0  0  0  0  0  0  0
   -1.7745   13.4406   -6.4637 C   0  0  0  0  0  0  0  0  0  0  0  0
   -0.4394   13.4976   -6.4041 N   0  0  0  0  0  0  0  0  0  0  0  0
    0.1691   12.4146   -6.8015 N   0  0  0  0  0  0  0  0  0  0  0  0
   -0.8034   11.5995   -7.1773 C   0  0  0  0  0  0  0  0  0  0  0  0
    0.3694   14.6144   -5.9538 C   0  0  0  0  0  0  0  0  0  0  0  0
   -3.6497   15.1720  -11.6865 O   0  0  0  0  0  0  0  0  0  0  0  0
   -4.3650   13.6745   -9.7698 O   0  0  0  0  0  0  0  0  0  0  0  0
   -6.1257   12.2782   -9.8355 H   0  0  0  0  0  0  0  0  0  0  0  0
   -8.1227   10.1152  -13.9085 H   0  0  0  0  0  0  0  0  0  0  0  0
   -6.8205   12.2414  -14.0656 H   0  0  0  0  0  0  0  0  0  0  0  0
   -8.6624    7.9724   -9.4498 H   0  0  0  0  0  0  0  0  0  0  0  0
   -8.0330    9.5733   -7.2490 H   0  0  0  0  0  0  0  0  0  0  0  0
   -1.9543   12.6728  -11.2554 H   0  0  0  0  0  0  0  0  0  0  0  0
   -3.3298   11.5493  -11.5240 H   0  0  0  0  0  0  0  0  0  0  0  0
   -2.7704   12.6186  -12.8546 H   0  0  0  0  0  0  0  0  0  0  0  0
   -4.8884    8.7854   -8.4885 H   0  0  0  0  0  0  0  0  0  0  0  0
   -3.0369    9.6312   -7.1205 H   0  0  0  0  0  0  0  0  0  0  0  0
   -3.0308   10.3630   -8.7609 H   0  0  0  0  0  0  0  0  0  0  0  0
   -3.4550   12.0453   -8.2329 H   0  0  0  0  0  0  0  0  0  0  0  0
   -4.5366   13.2900   -6.4643 H   0  0  0  0  0  0  0  0  0  0  0  0
   -6.7612   12.3068   -6.9141 H   0  0  0  0  0  0  0  0  0  0  0  0
   -2.4642   14.2207   -6.1771 H   0  0  0  0  0  0  0  0  0  0  0  0
   -0.6430   10.6154   -7.5924 H   0  0  0  0  0  0  0  0  0  0  0  0
    1.4345   14.3489   -6.0254 H   0  0  0  0  0  0  0  0  0  0  0  0
    0.1671   15.4918   -6.5857 H   0  0  0  0  0  0  0  0  0  0  0  0
    0.1198   14.8498   -4.9087 H   0  0  0  0  0  0  0  0  0  0  0  0
  1  2  1  0  0  0  0
  1  4  1  0  0  0  0
  1 13  2  3  0  0  0
  2  6  2  0  0  0  0
  3  4  2  0  0  0  0
  3  5  1  0  0  0  0
  5  6  1  0  0  0  0
  5  9  2  0  0  0  0
  6  7  1  0  0  0  0
  7  8  1  0  0  0  0
  7 10  2  3  0  0  0
  8  9  1  0  0  0  0
 10 14  1  0  0  0  0
 11 12  1  0  0  0  0
 11 13  1  0  0  0  0
 11 26  2  0  0  0  0
 11 27  2  0  0  0  0
 14 15  2  0  0  0  0
 14 19  1  0  0  0  0
 15 16  1  0  0  0  0
 16 17  1  0  0  0  0
 17 18  1  0  0  0  0
 17 20  1  0  0  0  0
 18 19  2  0  0  0  0
 20 21  2  0  0  0  0
 20 24  1  0  0  0  0
 21 22  1  0  0  0  0
 22 23  1  0  0  0  0
 22 25  1  0  0  0  0
 23 24  2  0  0  0  0
  2 28  1  0  0  0  0
  3 29  1  0  0  0  0
  4 30  1  0  0  0  0
  8 31  1  0  0  0  0
 10 32  1  0  0  0  0
 12 33  1  0  0  0  0
 12 34  1  0  0  0  0
 12 35  1  0  0  0  0
 15 36  1  0  0  0  0
 16 37  1  0  0  0  0
 16 38  1  0  0  0  0
 17 39  1  0  0  0  0
 18 40  1  0  0  0  0
 19 41  1  0  0  0  0
 21 42  1  0  0  0  0
 24 43  1  0  0  0  0
 25 44  1  0  0  0  0
 25 45  1  0  0  0  0
 25 46  1  0  0  0  0
M  END
> <Name>
25

> <IC50[uM]>
0.073

$$$$
25
  -OEChem-05192314333D
 Structure written by MMmdl.
 46 49  0     1  0  0  0  0  0999 V2000
   -6.3861   12.3623  -11.9697 C   0  0  0  0  0  0  0  0  0  0  0  0
   -6.5480   11.8020  -10.7080 C   0  0  0  0  0  0  0  0  0  0  0  0
   -7.6869   10.5726  -13.0325 C   0  0  0  0  0  0  0  0  0  0  0  0
   -6.9529   11.7665  -13.1047 C   0  0  0  0  0  0  0  0  0  0  0  0
   -7.8210   10.0086  -11.7556 C   0  0  0  0  0  0  0  0  0  0  0  0
   -7.2636   10.6177  -10.5919 C   0  0  0  0  0  0  0  0  0  0  0  0
   -7.6330    9.7421   -9.5104 C   0  0  0  0  0  0  0  0  0  0  0  0
   -8.3023    8.7332   -9.9897 N   0  0  0  0  0  0  0  0  0  0  0  0
   -8.4342    8.8678  -11.3051 N   0  0  0  0  0  0  0  0  0  0  0  0
   -7.3415    9.8758   -8.0215 C   0  0  0  0  0  0  0  0  0  0  0  0
   -4.1211   13.8754  -11.2000 S   0  0  0  0  0  0  0  0  0  0  0  0
   -2.9188   12.5402  -11.7675 C   0  0  0  0  0  0  0  0  0  0  0  0
   -5.6382   13.5428  -12.1051 N   0  0  0  0  0  0  0  0  0  0  0  0
   -5.9683   10.4827   -7.7344 C   0  0  3  0  0  0  0  0  0  0  0  0
   -4.8123    9.7690   -8.0490 C   0  0  0  0  0  0  0  0  0  0  0  0
   -3.5592   10.3237   -7.7969 C   0  0  0  0  0  0  0  0  0  0  0  0
   -3.4543   11.5962   -7.2288 C   0  0  0  0  0  0  0  0  0  0  0  0
   -4.6126   12.3085   -6.9084 C   0  0  0  0  0  0  0  0  0  0  0  0
   -5.8671   11.7538   -7.1613 C   0  0  0  0  0  0  0  0  0  0  0  0
   -2.1058   12.1871   -6.9644 C   0  0  0  0  0  0  0  0  0  0  0  0
   -1.7745   13.4406   -6.4637 C   0  0  0  0  0  0  0  0  0  0  0  0
   -0.4394   13.4976   -6.4041 N   0  0  0  0  0  0  0  0  0  0  0  0
    0.1691   12.4146   -6.8015 N   0  0  0  0  0  0  0  0  0  0  0  0
   -0.8034   11.5995   -7.1773 C   0  0  0  0  0  0  0  0  0  0  0  0
    0.3694   14.6144   -5.9538 C   0  0  0  0  0  0  0  0  0  0  0  0
   -3.6497   15.1720  -11.6865 O   0  0  0  0  0  0  0  0  0  0  0  0
   -4.3650   13.6745   -9.7698 O   0  0  0  0  0  0  0  0  0  0  0  0
   -6.1257   12.2782   -9.8355 H   0  0  0  0  0  0  0  0  0  0  0  0
   -8.1227   10.1152  -13.9085 H   0  0  0  0  0  0  0  0  0  0  0  0
   -6.8205   12.2414  -14.0656 H   0  0  0  0  0  0  0  0  0  0  0  0
   -8.6624    7.9724   -9.4498 H   0  0  0  0  0  0  0  0  0  0  0  0
   -8.0330    9.5733   -7.2490 H   0  0  0  0  0  0  0  0  0  0  0  0
   -1.9543   12.6728  -11.2554 H   0  0  0  0  0  0  0  0  0  0  0  0
   -3.3298   11.5493  -11.5240 H   0  0  0  0  0  0  0  0  0  0  0  0
   -2.7704   12.6186  -12.8546 H   0  0  0  0  0  0  0  0  0  0  0  0
   -5.9765   10.0300   -6.7319 H   0  0  0  0  0  0  0  0  0  0  0  0
   -4.8884    8.7854   -8.4885 H   0  0  0  0  0  0  0  0  0  0  0  0
   -2.6658    9.7683   -8.0414 H   0  0  0  0  0  0  0  0  0  0  0  0
   -4.5366   13.2900   -6.4643 H   0  0  0  0  0  0  0  0  0  0  0  0
   -6.3910   12.4480   -7.8348 H   0  0  0  0  0  0  0  0  0  0  0  0
   -6.3948   11.7100   -6.1971 H   0  0  0  0  0  0  0  0  0  0  0  0
   -2.4642   14.2207   -6.1771 H   0  0  0  0  0  0  0  0  0  0  0  0
   -0.6430   10.6154   -7.5924 H   0  0  0  0  0  0  0  0  0  0  0  0
    1.4345   14.3489   -6.0254 H   0  0  0  0  0  0  0  0  0  0  0  0
    0.1671   15.4918   -6.5857 H   0  0  0  0  0  0  0  0  0  0  0  0
    0.1198   14.8498   -4.9087 H   0  0  0  0  0  0  0  0  0  0  0  0
  1  2  1  0  0  0  0
  1  4  1  0  0  0  0
  1 13  2  3  0  0  0
  2  6  2  0  0  0  0
  3  4  2  0  0  0  0
  3  5  1  0  0  0  0
  5  6  1  0  0  0  0
  5  9  2  0  0  0  0
  6  7  1  0  0  0  0
  7  8  1  0  0  0  0
  7 10  2  3  0  0  0
  8  9  1  0  0  0  0
 10 14  1  0  0  0  0
 11 12  1  0  0  0  0
 11 13  1  0  0  0  0
 11 26  2  0  0  0  0
 11 27  2  0  0  0  0
 14 15  1  0  0  0  0
 14 19  1  0  0  0  0
 15 16  2  0  0  0  0
 16 17  1  0  0  0  0
 17 18  2  0  0  0  0
 17 20  1  0  0  0  0
 18 19  1  0  0  0  0
 20 21  2  0  0  0  0
 20 24  1  0  0  0  0
 21 22  1  0  0  0  0
 22 23  1  0  0  0  0
 22 25  1  0  0  0  0
 23 24  2  0  0  0  0
  2 28  1  0  0  0  0
  3 29  1  0  0  0  0
  4 30  1  0  0  0  0
  8 31  1  0  0  0  0
 10 32  1  0  0  0  0
 12 33  1  0  0  0  0
 12 34  1  0  0  0  0
 12 35  1  0  0  0  0
 14 36  1  0  0  0  0
 15 37  1  0  0  0  0
 16 38  1  0  0  0  0
 18 39  1  0  0  0  0
 19 40  1  0  0  0  0
 19 41  1  0  0  0  0
 21 42  1  0  0  0  0
 24 43  1  0  0  0  0
 25 44  1  0  0  0  0
 25 45  1  0  0  0  0
 25 46  1  0  0  0  0
M  END
> <Name>
25

> <IC50[uM]>
0.073

$$$$
25
  -OEChem-05192314333D
 Structure written by MMmdl.
 46 49  0     0  0  0  0  0  0999 V2000
   -6.3861   12.3623  -11.9697 C   0  0  0  0  0  0  0  0  0  0  0  0
   -6.5480   11.8020  -10.7080 C   0  0  0  0  0  0  0  0  0  0  0  0
   -7.6869   10.5726  -13.0325 C   0  0  0  0  0  0  0  0  0  0  0  0
   -6.9529   11.7665  -13.1047 C   0  0  0  0  0  0  0  0  0  0  0  0
   -7.8210   10.0086  -11.7556 C   0  0  0  0  0  0  0  0  0  0  0  0
   -7.2636   10.6177  -10.5919 C   0  0  0  0  0  0  0  0  0  0  0  0
   -7.6330    9.7421   -9.5104 C   0  0  0  0  0  0  0  0  0  0  0  0
   -8.3023    8.7332   -9.9897 N   0  0  0  0  0  0  0  0  0  0  0  0
   -8.4342    8.8678  -11.3051 N   0  0  0  0  0  0  0  0  0  0  0  0
   -7.3415    9.8758   -8.0215 C   0  0  0  0  0  0  0  0  0  0  0  0
   -4.1211   13.8754  -11.2000 S   0  0  0  0  0  0  0  0  0  0  0  0
   -2.9188   12.5402  -11.7675 C   0  0  0  0  0  0  0  0  0  0  0  0
   -5.6382   13.5428  -12.1051 N   0  0  0  0  0  0  0  0  0  0  0  0
   -5.9683   10.4827   -7.7344 C   0  0  0  0  0  0  0  0  0  0  0  0
   -4.8123    9.7690   -8.0490 C   0  0  0  0  0  0  0  0  0  0  0  0
   -3.5592   10.3237   -7.7969 C   0  0  0  0  0  0  0  0  0  0  0  0
   -3.4543   11.5962   -7.2288 C   0  0  0  0  0  0  0  0  0  0  0  0
   -4.6126   12.3085   -6.9084 C   0  0  0  0  0  0  0  0  0  0  0  0
   -5.8671   11.7538   -7.1613 C   0  0  0  0  0  0  0  0  0  0  0  0
   -2.1058   12.1871   -6.9644 C   0  0  0  0  0  0  0  0  0  0  0  0
   -1.7745   13.4406   -6.4637 C   0  0  0  0  0  0  0  0  0  0  0  0
   -0.4394   13.4976   -6.4041 N   0  0  0  0  0  0  0  0  0  0  0  0
    0.1691   12.4146   -6.8015 N   0  0  0  0  0  0  0  0  0  0  0  0
   -0.8034   11.5995   -7.1773 C   0  0  0  0  0  0  0  0  0  0  0  0
    0.3694   14.6144   -5.9538 C   0  0  0  0  0  0  0  0  0  0  0  0
   -3.6497   15.1720  -11.6865 O   0  0  0  0  0  0  0  0  0  0  0  0
   -4.3650   13.6745   -9.7698 O   0  0  0  0  0  0  0  0  0  0  0  0
   -6.1257   12.2782   -9.8355 H   0  0  0  0  0  0  0  0  0  0  0  0
   -8.1227   10.1152  -13.9085 H   0  0  0  0  0  0  0  0  0  0  0  0
   -7.6287   12.5169  -13.5407 H   0  0  0  0  0  0  0  0  0  0  0  0
   -6.1214   11.5746  -13.7988 H   0  0  0  0  0  0  0  0  0  0  0  0
   -8.9191    8.2194  -11.8920 H   0  0  0  0  0  0  0  0  0  0  0  0
   -8.0330    9.5733   -7.2490 H   0  0  0  0  0  0  0  0  0  0  0  0
   -1.9543   12.6728  -11.2554 H   0  0  0  0  0  0  0  0  0  0  0  0
   -3.3298   11.5493  -11.5240 H   0  0  0  0  0  0  0  0  0  0  0  0
   -2.7704   12.6186  -12.8546 H   0  0  0  0  0  0  0  0  0  0  0  0
   -4.8884    8.7854   -8.4885 H   0  0  0  0  0  0  0  0  0  0  0  0
   -2.6658    9.7683   -8.0414 H   0  0  0  0  0  0  0  0  0  0  0  0
   -4.5366   13.2900   -6.4643 H   0  0  0  0  0  0  0  0  0  0  0  0
   -6.3910   12.4480   -7.8348 H   0  0  0  0  0  0  0  0  0  0  0  0
   -6.3948   11.7100   -6.1971 H   0  0  0  0  0  0  0  0  0  0  0  0
   -2.4642   14.2207   -6.1771 H   0  0  0  0  0  0  0  0  0  0  0  0
   -0.6430   10.6154   -7.5924 H   0  0  0  0  0  0  0  0  0  0  0  0
    1.4345   14.3489   -6.0254 H   0  0  0  0  0  0  0  0  0  0  0  0
    0.1671   15.4918   -6.5857 H   0  0  0  0  0  0  0  0  0  0  0  0
    0.1198   14.8498   -4.9087 H   0  0  0  0  0  0  0  0  0  0  0  0
  1  2  1  0  0  0  0
  1  4  1  0  0  0  0
  1 13  2  3  0  0  0
  2  6  2  0  0  0  0
  3  4  1  0  0  0  0
  3  5  2  0  0  0  0
  5  6  1  0  0  0  0
  5  9  1  0  0  0  0
  6  7  1  0  0  0  0
  7  8  2  0  0  0  0
  7 10  1  0  0  0  0
  8  9  1  0  0  0  0
 10 14  2  3  0  0  0
 11 12  1  0  0  0  0
 11 13  1  0  0  0  0
 11 26  2  0  0  0  0
 11 27  2  0  0  0  0
 14 15  1  0  0  0  0
 14 19  1  0  0  0  0
 15 16  2  0  0  0  0
 16 17  1  0  0  0  0
 17 18  2  0  0  0  0
 17 20  1  0  0  0  0
 18 19  1  0  0  0  0
 20 21  2  0  0  0  0
 20 24  1  0  0  0  0
 21 22  1  0  0  0  0
 22 23  1  0  0  0  0
 22 25  1  0  0  0  0
 23 24  2  0  0  0  0
  2 28  1  0  0  0  0
  3 29  1  0  0  0  0
  4 30  1  0  0  0  0
  4 31  1  0  0  0  0
  9 32  1  0  0  0  0
 10 33  1  0  0  0  0
 12 34  1  0  0  0  0
 12 35  1  0  0  0  0
 12 36  1  0  0  0  0
 15 37  1  0  0  0  0
 16 38  1  0  0  0  0
 18 39  1  0  0  0  0
 19 40  1  0  0  0  0
 19 41  1  0  0  0  0
 21 42  1  0  0  0  0
 24 43  1  0  0  0  0
 25 44  1  0  0  0  0
 25 45  1  0  0  0  0
 25 46  1  0  0  0  0
M  END
> <Name>
25

> <IC50[uM]>
0.073

$$$$
25
  -OEChem-05192314333D
 Structure written by MMmdl.
 46 49  0     0  0  0  0  0  0999 V2000
   -6.3861   12.3623  -11.9697 C   0  0  0  0  0  0  0  0  0  0  0  0
   -6.5480   11.8020  -10.7080 C   0  0  0  0  0  0  0  0  0  0  0  0
   -7.6869   10.5726  -13.0325 C   0  0  0  0  0  0  0  0  0  0  0  0
   -6.9529   11.7665  -13.1047 C   0  0  0  0  0  0  0  0  0  0  0  0
   -7.8210   10.0086  -11.7556 C   0  0  0  0  0  0  0  0  0  0  0  0
   -7.2636   10.6177  -10.5919 C   0  0  0  0  0  0  0  0  0  0  0  0
   -7.6330    9.7421   -9.5104 C   0  0  0  0  0  0  0  0  0  0  0  0
   -8.3023    8.7332   -9.9897 N   0  0  0  0  0  0  0  0  0  0  0  0
   -8.4342    8.8678  -11.3051 N   0  0  0  0  0  0  0  0  0  0  0  0
   -7.3415    9.8758   -8.0215 C   0  0  0  0  0  0  0  0  0  0  0  0
   -4.1211   13.8754  -11.2000 S   0  0  0  0  0  0  0  0  0  0  0  0
   -2.9188   12.5402  -11.7675 C   0  0  0  0  0  0  0  0  0  0  0  0
   -5.6382   13.5428  -12.1051 N   0  0  0  0  0  0  0  0  0  0  0  0
   -5.9683   10.4827   -7.7344 C   0  0  0  0  0  0  0  0  0  0  0  0
   -4.8123    9.7690   -8.0490 C   0  0  0  0  0  0  0  0  0  0  0  0
   -3.5592   10.3237   -7.7969 C   0  0  0  0  0  0  0  0  0  0  0  0
   -3.4543   11.5962   -7.2288 C   0  0  0  0  0  0  0  0  0  0  0  0
   -4.6126   12.3085   -6.9084 C   0  0  0  0  0  0  0  0  0  0  0  0
   -5.8671   11.7538   -7.1613 C   0  0  0  0  0  0  0  0  0  0  0  0
   -2.1058   12.1871   -6.9644 C   0  0  0  0  0  0  0  0  0  0  0  0
   -1.7745   13.4406   -6.4637 C   0  0  0  0  0  0  0  0  0  0  0  0
   -0.4394   13.4976   -6.4041 N   0  0  0  0  0  0  0  0  0  0  0  0
    0.1691   12.4146   -6.8015 N   0  0  0  0  0  0  0  0  0  0  0  0
   -0.8034   11.5995   -7.1773 C   0  0  0  0  0  0  0  0  0  0  0  0
    0.3694   14.6144   -5.9538 C   0  0  0  0  0  0  0  0  0  0  0  0
   -3.6497   15.1720  -11.6865 O   0  0  0  0  0  0  0  0  0  0  0  0
   -4.3650   13.6745   -9.7698 O   0  0  0  0  0  0  0  0  0  0  0  0
   -6.1257   12.2782   -9.8355 H   0  0  0  0  0  0  0  0  0  0  0  0
   -8.1227   10.1152  -13.9085 H   0  0  0  0  0  0  0  0  0  0  0  0
   -6.8205   12.2414  -14.0656 H   0  0  0  0  0  0  0  0  0  0  0  0
   -8.6624    7.9724   -9.4498 H   0  0  0  0  0  0  0  0  0  0  0  0
   -8.0330    9.5733   -7.2490 H   0  0  0  0  0  0  0  0  0  0  0  0
   -1.9543   12.6728  -11.2554 H   0  0  0  0  0  0  0  0  0  0  0  0
   -3.3298   11.5493  -11.5240 H   0  0  0  0  0  0  0  0  0  0  0  0
   -2.7704   12.6186  -12.8546 H   0  0  0  0  0  0  0  0  0  0  0  0
   -4.8884    8.7854   -8.4885 H   0  0  0  0  0  0  0  0  0  0  0  0
   -3.0369    9.6312   -7.1205 H   0  0  0  0  0  0  0  0  0  0  0  0
   -3.0308   10.3630   -8.7609 H   0  0  0  0  0  0  0  0  0  0  0  0
   -4.5366   13.2900   -6.4643 H   0  0  0  0  0  0  0  0  0  0  0  0
   -6.3910   12.4480   -7.8348 H   0  0  0  0  0  0  0  0  0  0  0  0
   -6.3948   11.7100   -6.1971 H   0  0  0  0  0  0  0  0  0  0  0  0
   -2.4642   14.2207   -6.1771 H   0  0  0  0  0  0  0  0  0  0  0  0
   -0.6430   10.6154   -7.5924 H   0  0  0  0  0  0  0  0  0  0  0  0
    1.4345   14.3489   -6.0254 H   0  0  0  0  0  0  0  0  0  0  0  0
    0.1671   15.4918   -6.5857 H   0  0  0  0  0  0  0  0  0  0  0  0
    0.1198   14.8498   -4.9087 H   0  0  0  0  0  0  0  0  0  0  0  0
  1  2  1  0  0  0  0
  1  4  1  0  0  0  0
  1 13  2  3  0  0  0
  2  6  2  0  0  0  0
  3  4  2  0  0  0  0
  3  5  1  0  0  0  0
  5  6  1  0  0  0  0
  5  9  2  0  0  0  0
  6  7  1  0  0  0  0
  7  8  1  0  0  0  0
  7 10  2  3  0  0  0
  8  9  1  0  0  0  0
 10 14  1  0  0  0  0
 11 12  1  0  0  0  0
 11 13  1  0  0  0  0
 11 26  2  0  0  0  0
 11 27  2  0  0  0  0
 14 15  2  0  0  0  0
 14 19  1  0  0  0  0
 15 16  1  0  0  0  0
 16 17  1  0  0  0  0
 17 18  2  0  0  0  0
 17 20  1  0  0  0  0
 18 19  1  0  0  0  0
 20 21  2  0  0  0  0
 20 24  1  0  0  0  0
 21 22  1  0  0  0  0
 22 23  1  0  0  0  0
 22 25  1  0  0  0  0
 23 24  2  0  0  0  0
  2 28  1  0  0  0  0
  3 29  1  0  0  0  0
  4 30  1  0  0  0  0
  8 31  1  0  0  0  0
 10 32  1  0  0  0  0
 12 33  1  0  0  0  0
 12 34  1  0  0  0  0
 12 35  1  0  0  0  0
 15 36  1  0  0  0  0
 16 37  1  0  0  0  0
 16 38  1  0  0  0  0
 18 39  1  0  0  0  0
 19 40  1  0  0  0  0
 19 41  1  0  0  0  0
 21 42  1  0  0  0  0
 24 43  1  0  0  0  0
 25 44  1  0  0  0  0
 25 45  1  0  0  0  0
 25 46  1  0  0  0  0
M  END
> <Name>
25

> <IC50[uM]>
0.073

$$$$
25
  -OEChem-05192314333D
 Structure written by MMmdl.
 46 49  0     0  0  0  0  0  0999 V2000
   -6.3861   12.3623  -11.9697 C   0  0  0  0  0  0  0  0  0  0  0  0
   -6.5480   11.8020  -10.7080 C   0  0  0  0  0  0  0  0  0  0  0  0
   -7.6869   10.5726  -13.0325 C   0  0  0  0  0  0  0  0  0  0  0  0
   -6.9529   11.7665  -13.1047 C   0  0  0  0  0  0  0  0  0  0  0  0
   -7.8210   10.0086  -11.7556 C   0  0  0  0  0  0  0  0  0  0  0  0
   -7.2636   10.6177  -10.5919 C   0  0  0  0  0  0  0  0  0  0  0  0
   -7.6330    9.7421   -9.5104 C   0  0  0  0  0  0  0  0  0  0  0  0
   -8.3023    8.7332   -9.9897 N   0  0  0  0  0  0  0  0  0  0  0  0
   -8.4342    8.8678  -11.3051 N   0  0  0  0  0  0  0  0  0  0  0  0
   -7.3415    9.8758   -8.0215 C   0  0  0  0  0  0  0  0  0  0  0  0
   -4.1211   13.8754  -11.2000 S   0  0  0  0  0  0  0  0  0  0  0  0
   -2.9188   12.5402  -11.7675 C   0  0  0  0  0  0  0  0  0  0  0  0
   -5.6382   13.5428  -12.1051 N   0  0  0  0  0  0  0  0  0  0  0  0
   -5.9683   10.4827   -7.7344 C   0  0  0  0  0  0  0  0  0  0  0  0
   -4.8123    9.7690   -8.0490 C   0  0  0  0  0  0  0  0  0  0  0  0
   -3.5592   10.3237   -7.7969 C   0  0  0  0  0  0  0  0  0  0  0  0
   -3.4543   11.5962   -7.2288 C   0  0  0  0  0  0  0  0  0  0  0  0
   -4.6126   12.3085   -6.9084 C   0  0  0  0  0  0  0  0  0  0  0  0
   -5.8671   11.7538   -7.1613 C   0  0  0  0  0  0  0  0  0  0  0  0
   -2.1058   12.1871   -6.9644 C   0  0  0  0  0  0  0  0  0  0  0  0
   -1.7745   13.4406   -6.4637 C   0  0  0  0  0  0  0  0  0  0  0  0
   -0.4394   13.4976   -6.4041 N   0  0  0  0  0  0  0  0  0  0  0  0
    0.1691   12.4146   -6.8015 N   0  0  0  0  0  0  0  0  0  0  0  0
   -0.8034   11.5995   -7.1773 C   0  0  0  0  0  0  0  0  0  0  0  0
    0.3694   14.6144   -5.9538 C   0  0  0  0  0  0  0  0  0  0  0  0
   -3.6497   15.1720  -11.6865 O   0  0  0  0  0  0  0  0  0  0  0  0
   -4.3650   13.6745   -9.7698 O   0  0  0  0  0  0  0  0  0  0  0  0
   -6.1257   12.2782   -9.8355 H   0  0  0  0  0  0  0  0  0  0  0  0
   -8.1227   10.1152  -13.9085 H   0  0  0  0  0  0  0  0  0  0  0  0
   -6.8205   12.2414  -14.0656 H   0  0  0  0  0  0  0  0  0  0  0  0
   -8.6624    7.9724   -9.4498 H   0  0  0  0  0  0  0  0  0  0  0  0
   -8.0330    9.5733   -7.2490 H   0  0  0  0  0  0  0  0  0  0  0  0
   -1.9543   12.6728  -11.2554 H   0  0  0  0  0  0  0  0  0  0  0  0
   -3.3298   11.5493  -11.5240 H   0  0  0  0  0  0  0  0  0  0  0  0
   -2.7704   12.6186  -12.8546 H   0  0  0  0  0  0  0  0  0  0  0  0
   -4.8884    8.7854   -8.4885 H   0  0  0  0  0  0  0  0  0  0  0  0
   -2.6658    9.7683   -8.0414 H   0  0  0  0  0  0  0  0  0  0  0  0
   -4.5692   12.5155   -5.8289 H   0  0  0  0  0  0  0  0  0  0  0  0
   -4.5666   13.2558   -7.4655 H   0  0  0  0  0  0  0  0  0  0  0  0
   -6.3910   12.4480   -7.8348 H   0  0  0  0  0  0  0  0  0  0  0  0
   -6.3948   11.7100   -6.1971 H   0  0  0  0  0  0  0  0  0  0  0  0
   -2.4642   14.2207   -6.1771 H   0  0  0  0  0  0  0  0  0  0  0  0
   -0.6430   10.6154   -7.5924 H   0  0  0  0  0  0  0  0  0  0  0  0
    1.4345   14.3489   -6.0254 H   0  0  0  0  0  0  0  0  0  0  0  0
    0.1671   15.4918   -6.5857 H   0  0  0  0  0  0  0  0  0  0  0  0
    0.1198   14.8498   -4.9087 H   0  0  0  0  0  0  0  0  0  0  0  0
  1  2  1  0  0  0  0
  1  4  1  0  0  0  0
  1 13  2  3  0  0  0
  2  6  2  0  0  0  0
  3  4  2  0  0  0  0
  3  5  1  0  0  0  0
  5  6  1  0  0  0  0
  5  9  2  0  0  0  0
  6  7  1  0  0  0  0
  7  8  1  0  0  0  0
  7 10  2  3  0  0  0
  8  9  1  0  0  0  0
 10 14  1  0  0  0  0
 11 12  1  0  0  0  0
 11 13  1  0  0  0  0
 11 26  2  0  0  0  0
 11 27  2  0  0  0  0
 14 15  2  0  0  0  0
 14 19  1  0  0  0  0
 15 16  1  0  0  0  0
 16 17  2  0  0  0  0
 17 18  1  0  0  0  0
 17 20  1  0  0  0  0
 18 19  1  0  0  0  0
 20 21  2  0  0  0  0
 20 24  1  0  0  0  0
 21 22  1  0  0  0  0
 22 23  1  0  0  0  0
 22 25  1  0  0  0  0
 23 24  2  0  0  0  0
  2 28  1  0  0  0  0
  3 29  1  0  0  0  0
  4 30  1  0  0  0  0
  8 31  1  0  0  0  0
 10 32  1  0  0  0  0
 12 33  1  0  0  0  0
 12 34  1  0  0  0  0
 12 35  1  0  0  0  0
 15 36  1  0  0  0  0
 16 37  1  0  0  0  0
 18 38  1  0  0  0  0
 18 39  1  0  0  0  0
 19 40  1  0  0  0  0
 19 41  1  0  0  0  0
 21 42  1  0  0  0  0
 24 43  1  0  0  0  0
 25 44  1  0  0  0  0
 25 45  1  0  0  0  0
 25 46  1  0  0  0  0
M  END
> <Name>
25

> <IC50[uM]>
0.073

$$$$
25
  -OEChem-05192314333D
 Structure written by MMmdl.
 46 49  0     1  0  0  0  0  0999 V2000
   -6.3861   12.3623  -11.9697 C   0  0  0  0  0  0  0  0  0  0  0  0
   -6.5480   11.8020  -10.7080 C   0  0  0  0  0  0  0  0  0  0  0  0
   -7.6869   10.5726  -13.0325 C   0  0  0  0  0  0  0  0  0  0  0  0
   -6.9529   11.7665  -13.1047 C   0  0  0  0  0  0  0  0  0  0  0  0
   -7.8210   10.0086  -11.7556 C   0  0  0  0  0  0  0  0  0  0  0  0
   -7.2636   10.6177  -10.5919 C   0  0  0  0  0  0  0  0  0  0  0  0
   -7.6330    9.7421   -9.5104 C   0  0  0  0  0  0  0  0  0  0  0  0
   -8.3023    8.7332   -9.9897 N   0  0  0  0  0  0  0  0  0  0  0  0
   -8.4342    8.8678  -11.3051 N   0  0  0  0  0  0  0  0  0  0  0  0
   -7.3415    9.8758   -8.0215 C   0  0  0  0  0  0  0  0  0  0  0  0
   -4.1211   13.8754  -11.2000 S   0  0  0  0  0  0  0  0  0  0  0  0
   -2.9188   12.5402  -11.7675 C   0  0  0  0  0  0  0  0  0  0  0  0
   -5.6382   13.5428  -12.1051 N   0  0  0  0  0  0  0  0  0  0  0  0
   -5.9683   10.4827   -7.7344 C   0  0  0  0  0  0  0  0  0  0  0  0
   -4.8123    9.7690   -8.0490 C   0  0  0  0  0  0  0  0  0  0  0  0
   -3.5592   10.3237   -7.7969 C   0  0  0  0  0  0  0  0  0  0  0  0
   -3.4543   11.5962   -7.2288 C   0  0  0  0  0  0  0  0  0  0  0  0
   -4.6126   12.3085   -6.9084 C   0  0  0  0  0  0  0  0  0  0  0  0
   -5.8671   11.7538   -7.1613 C   0  0  0  0  0  0  0  0  0  0  0  0
   -2.1058   12.1871   -6.9644 C   0  0  3  0  0  0  0  0  0  0  0  0
   -1.7745   13.4406   -6.4637 C   0  0  0  0  0  0  0  0  0  0  0  0
   -0.4394   13.4976   -6.4041 N   0  0  3  0  0  0  0  0  0  0  0  0
    0.1691   12.4146   -6.8015 N   0  0  0  0  0  0  0  0  0  0  0  0
   -0.8034   11.5995   -7.1773 C   0  0  0  0  0  0  0  0  0  0  0  0
    0.3694   14.6144   -5.9538 C   0  0  0  0  0  0  0  0  0  0  0  0
   -3.6497   15.1720  -11.6865 O   0  0  0  0  0  0  0  0  0  0  0  0
   -4.3650   13.6745   -9.7698 O   0  0  0  0  0  0  0  0  0  0  0  0
   -6.1257   12.2782   -9.8355 H   0  0  0  0  0  0  0  0  0  0  0  0
   -8.1227   10.1152  -13.9085 H   0  0  0  0  0  0  0  0  0  0  0  0
   -6.8205   12.2414  -14.0656 H   0  0  0  0  0  0  0  0  0  0  0  0
   -8.1107   10.5196   -7.5701 H   0  0  0  0  0  0  0  0  0  0  0  0
   -7.3856    8.8762   -7.5645 H   0  0  0  0  0  0  0  0  0  0  0  0
   -1.9543   12.6728  -11.2554 H   0  0  0  0  0  0  0  0  0  0  0  0
   -3.3298   11.5493  -11.5240 H   0  0  0  0  0  0  0  0  0  0  0  0
   -2.7704   12.6186  -12.8546 H   0  0  0  0  0  0  0  0  0  0  0  0
   -4.8884    8.7854   -8.4885 H   0  0  0  0  0  0  0  0  0  0  0  0
   -2.6658    9.7683   -8.0414 H   0  0  0  0  0  0  0  0  0  0  0  0
   -4.5366   13.2900   -6.4643 H   0  0  0  0  0  0  0  0  0  0  0  0
   -6.7612   12.3068   -6.9141 H   0  0  0  0  0  0  0  0  0  0  0  0
   -2.1251   11.7808   -5.9424 H   0  0  0  0  0  0  0  0  0  0  0  0
   -2.1568   14.2271   -7.1311 H   0  0  0  0  0  0  0  0  0  0  0  0
   -2.2034   13.5716   -5.4593 H   0  0  0  0  0  0  0  0  0  0  0  0
   -0.6430   10.6154   -7.5924 H   0  0  0  0  0  0  0  0  0  0  0  0
    1.4345   14.3489   -6.0254 H   0  0  0  0  0  0  0  0  0  0  0  0
    0.1671   15.4918   -6.5857 H   0  0  0  0  0  0  0  0  0  0  0  0
    0.1198   14.8498   -4.9087 H   0  0  0  0  0  0  0  0  0  0  0  0
  1  2  1  0  0  0  0
  1  4  1  0  0  0  0
  1 13  2  3  0  0  0
  2  6  2  0  0  0  0
  3  4  2  0  0  0  0
  3  5  1  0  0  0  0
  5  6  1  0  0  0  0
  5  9  2  0  0  0  0
  6  7  1  0  0  0  0
  7  8  2  0  0  0  0
  7 10  1  0  0  0  0
  8  9  1  0  0  0  0
 10 14  1  0  0  0  0
 11 12  1  0  0  0  0
 11 13  1  0  0  0  0
 11 26  2  0  0  0  0
 11 27  2  0  0  0  0
 14 15  2  0  0  0  0
 14 19  1  0  0  0  0
 15 16  1  0  0  0  0
 16 17  2  0  0  0  0
 17 18  1  0  0  0  0
 17 20  1  0  0  0  0
 18 19  2  0  0  0  0
 20 21  1  0  0  0  0
 20 24  1  0  0  0  0
 21 22  1  0  0  0  0
 22 23  1  0  0  0  0
 22 25  1  0  0  0  0
 23 24  2  0  0  0  0
  2 28  1  0  0  0  0
  3 29  1  0  0  0  0
  4 30  1  0  0  0  0
 10 31  1  0  0  0  0
 10 32  1  0  0  0  0
 12 33  1  0  0  0  0
 12 34  1  0  0  0  0
 12 35  1  0  0  0  0
 15 36  1  0  0  0  0
 16 37  1  0  0  0  0
 18 38  1  0  0  0  0
 19 39  1  0  0  0  0
 20 40  1  0  0  0  0
 21 41  1  0  0  0  0
 21 42  1  0  0  0  0
 24 43  1  0  0  0  0
 25 44  1  0  0  0  0
 25 45  1  0  0  0  0
 25 46  1  0  0  0  0
M  END
> <Name>
25

> <IC50[uM]>
0.073

$$$$
25
  -OEChem-05192314333D
 Structure written by MMmdl.
 46 49  0     1  0  0  0  0  0999 V2000
   -6.3861   12.3623  -11.9697 C   0  0  0  0  0  0  0  0  0  0  0  0
   -6.5480   11.8020  -10.7080 C   0  0  0  0  0  0  0  0  0  0  0  0
   -7.6869   10.5726  -13.0325 C   0  0  0  0  0  0  0  0  0  0  0  0
   -6.9529   11.7665  -13.1047 C   0  0  0  0  0  0  0  0  0  0  0  0
   -7.8210   10.0086  -11.7556 C   0  0  3  0  0  0  0  0  0  0  0  0
   -7.2636   10.6177  -10.5919 C   0  0  0  0  0  0  0  0  0  0  0  0
   -7.6330    9.7421   -9.5104 C   0  0  0  0  0  0  0  0  0  0  0  0
   -8.3023    8.7332   -9.9897 N   0  0  0  0  0  0  0  0  0  0  0  0
   -8.4342    8.8678  -11.3051 N   0  0  0  0  0  0  0  0  0  0  0  0
   -7.3415    9.8758   -8.0215 C   0  0  0  0  0  0  0  0  0  0  0  0
   -4.1211   13.8754  -11.2000 S   0  0  0  0  0  0  0  0  0  0  0  0
   -2.9188   12.5402  -11.7675 C   0  0  0  0  0  0  0  0  0  0  0  0
   -5.6382   13.5428  -12.1051 N   0  0  0  0  0  0  0  0  0  0  0  0
   -5.9683   10.4827   -7.7344 C   0  0  0  0  0  0  0  0  0  0  0  0
   -4.8123    9.7690   -8.0490 C   0  0  0  0  0  0  0  0  0  0  0  0
   -3.5592   10.3237   -7.7969 C   0  0  0  0  0  0  0  0  0  0  0  0
   -3.4543   11.5962   -7.2288 C   0  0  0  0  0  0  0  0  0  0  0  0
   -4.6126   12.3085   -6.9084 C   0  0  0  0  0  0  0  0  0  0  0  0
   -5.8671   11.7538   -7.1613 C   0  0  0  0  0  0  0  0  0  0  0  0
   -2.1058   12.1871   -6.9644 C   0  0  3  0  0  0  0  0  0  0  0  0
   -1.7745   13.4406   -6.4637 C   0  0  0  0  0  0  0  0  0  0  0  0
   -0.4394   13.4976   -6.4041 N   0  0  3  0  0  0  0  0  0  0  0  0
    0.1691   12.4146   -6.8015 N   0  0  0  0  0  0  0  0  0  0  0  0
   -0.8034   11.5995   -7.1773 C   0  0  0  0  0  0  0  0  0  0  0  0
    0.3694   14.6144   -5.9538 C   0  0  0  0  0  0  0  0  0  0  0  0
   -3.6497   15.1720  -11.6865 O   0  0  0  0  0  0  0  0  0  0  0  0
   -4.3650   13.6745   -9.7698 O   0  0  0  0  0  0  0  0  0  0  0  0
   -6.1257   12.2782   -9.8355 H   0  0  0  0  0  0  0  0  0  0  0  0
   -8.1227   10.1152  -13.9085 H   0  0  0  0  0  0  0  0  0  0  0  0
   -6.8205   12.2414  -14.0656 H   0  0  0  0  0  0  0  0  0  0  0  0
   -8.7541   10.5711  -11.6042 H   0  0  0  0  0  0  0  0  0  0  0  0
   -8.0330    9.5733   -7.2490 H   0  0  0  0  0  0  0  0  0  0  0  0
   -1.9543   12.6728  -11.2554 H   0  0  0  0  0  0  0  0  0  0  0  0
   -3.3298   11.5493  -11.5240 H   0  0  0  0  0  0  0  0  0  0  0  0
   -2.7704   12.6186  -12.8546 H   0  0  0  0  0  0  0  0  0  0  0  0
   -4.8884    8.7854   -8.4885 H   0  0  0  0  0  0  0  0  0  0  0  0
   -2.6658    9.7683   -8.0414 H   0  0  0  0  0  0  0  0  0  0  0  0
   -4.5366   13.2900   -6.4643 H   0  0  0  0  0  0  0  0  0  0  0  0
   -6.7612   12.3068   -6.9141 H   0  0  0  0  0  0  0  0  0  0  0  0
   -2.1251   11.7808   -5.9424 H   0  0  0  0  0  0  0  0  0  0  0  0
   -2.1568   14.2271   -7.1311 H   0  0  0  0  0  0  0  0  0  0  0  0
   -2.2034   13.5716   -5.4593 H   0  0  0  0  0  0  0  0  0  0  0  0
   -0.6430   10.6154   -7.5924 H   0  0  0  0  0  0  0  0  0  0  0  0
    1.4345   14.3489   -6.0254 H   0  0  0  0  0  0  0  0  0  0  0  0
    0.1671   15.4918   -6.5857 H   0  0  0  0  0  0  0  0  0  0  0  0
    0.1198   14.8498   -4.9087 H   0  0  0  0  0  0  0  0  0  0  0  0
  1  2  1  0  0  0  0
  1  4  1  0  0  0  0
  1 13  2  3  0  0  0
  2  6  2  0  0  0  0
  3  4  2  0  0  0  0
  3  5  1  0  0  0  0
  5  6  1  0  0  0  0
  5  9  1  0  0  0  0
  6  7  1  0  0  0  0
  7  8  1  0  0  0  0
  7 10  2  3  0  0  0
  8  9  2  0  0  0  0
 10 14  1  0  0  0  0
 11 12  1  0  0  0  0
 11 13  1  0  0  0  0
 11 26  2  0  0  0  0
 11 27  2  0  0  0  0
 14 15  2  0  0  0  0
 14 19  1  0  0  0  0
 15 16  1  0  0  0  0
 16 17  2  0  0  0  0
 17 18  1  0  0  0  0
 17 20  1  0  0  0  0
 18 19  2  0  0  0  0
 20 21  1  0  0  0  0
 20 24  1  0  0  0  0
 21 22  1  0  0  0  0
 22 23  1  0  0  0  0
 22 25  1  0  0  0  0
 23 24  2  0  0  0  0
  2 28  1  0  0  0  0
  3 29  1  0  0  0  0
  4 30  1  0  0  0  0
  5 31  1  0  0  0  0
 10 32  1  0  0  0  0
 12 33  1  0  0  0  0
 12 34  1  0  0  0  0
 12 35  1  0  0  0  0
 15 36  1  0  0  0  0
 16 37  1  0  0  0  0
 18 38  1  0  0  0  0
 19 39  1  0  0  0  0
 20 40  1  0  0  0  0
 21 41  1  0  0  0  0
 21 42  1  0  0  0  0
 24 43  1  0  0  0  0
 25 44  1  0  0  0  0
 25 45  1  0  0  0  0
 25 46  1  0  0  0  0
M  END
> <Name>
25

> <IC50[uM]>
0.073

$$$$
25
  -OEChem-05192314333D
 Structure written by MMmdl.
 46 49  0     1  0  0  0  0  0999 V2000
   -6.3861   12.3623  -11.9697 C   0  0  0  0  0  0  0  0  0  0  0  0
   -6.5480   11.8020  -10.7080 C   0  0  0  0  0  0  0  0  0  0  0  0
   -7.6869   10.5726  -13.0325 C   0  0  0  0  0  0  0  0  0  0  0  0
   -6.9529   11.7665  -13.1047 C   0  0  0  0  0  0  0  0  0  0  0  0
   -7.8210   10.0086  -11.7556 C   0  0  0  0  0  0  0  0  0  0  0  0
   -7.2636   10.6177  -10.5919 C   0  0  0  0  0  0  0  0  0  0  0  0
   -7.6330    9.7421   -9.5104 C   0  0  0  0  0  0  0  0  0  0  0  0
   -8.3023    8.7332   -9.9897 N   0  0  0  0  0  0  0  0  0  0  0  0
   -8.4342    8.8678  -11.3051 N   0  0  0  0  0  0  0  0  0  0  0  0
   -7.3415    9.8758   -8.0215 C   0  0  0  0  0  0  0  0  0  0  0  0
   -4.1211   13.8754  -11.2000 S   0  0  0  0  0  0  0  0  0  0  0  0
   -2.9188   12.5402  -11.7675 C   0  0  0  0  0  0  0  0  0  0  0  0
   -5.6382   13.5428  -12.1051 N   0  0  0  0  0  0  0  0  0  0  0  0
   -5.9683   10.4827   -7.7344 C   0  0  0  0  0  0  0  0  0  0  0  0
   -4.8123    9.7690   -8.0490 C   0  0  0  0  0  0  0  0  0  0  0  0
   -3.5592   10.3237   -7.7969 C   0  0  0  0  0  0  0  0  0  0  0  0
   -3.4543   11.5962   -7.2288 C   0  0  0  0  0  0  0  0  0  0  0  0
   -4.6126   12.3085   -6.9084 C   0  0  0  0  0  0  0  0  0  0  0  0
   -5.8671   11.7538   -7.1613 C   0  0  0  0  0  0  0  0  0  0  0  0
   -2.1058   12.1871   -6.9644 C   0  0  3  0  0  0  0  0  0  0  0  0
   -1.7745   13.4406   -6.4637 C   0  0  0  0  0  0  0  0  0  0  0  0
   -0.4394   13.4976   -6.4041 N   0  0  3  0  0  0  0  0  0  0  0  0
    0.1691   12.4146   -6.8015 N   0  0  0  0  0  0  0  0  0  0  0  0
   -0.8034   11.5995   -7.1773 C   0  0  0  0  0  0  0  0  0  0  0  0
    0.3694   14.6144   -5.9538 C   0  0  0  0  0  0  0  0  0  0  0  0
   -3.6497   15.1720  -11.6865 O   0  0  0  0  0  0  0  0  0  0  0  0
   -4.3650   13.6745   -9.7698 O   0  0  0  0  0  0  0  0  0  0  0  0
   -6.1257   12.2782   -9.8355 H   0  0  0  0  0  0  0  0  0  0  0  0
   -8.1227   10.1152  -13.9085 H   0  0  0  0  0  0  0  0  0  0  0  0
   -7.6287   12.5169  -13.5407 H   0  0  0  0  0  0  0  0  0  0  0  0
   -6.1214   11.5746  -13.7988 H   0  0  0  0  0  0  0  0  0  0  0  0
   -8.0330    9.5733   -7.2490 H   0  0  0  0  0  0  0  0  0  0  0  0
   -1.9543   12.6728  -11.2554 H   0  0  0  0  0  0  0  0  0  0  0  0
   -3.3298   11.5493  -11.5240 H   0  0  0  0  0  0  0  0  0  0  0  0
   -2.7704   12.6186  -12.8546 H   0  0  0  0  0  0  0  0  0  0  0  0
   -4.8884    8.7854   -8.4885 H   0  0  0  0  0  0  0  0  0  0  0  0
   -2.6658    9.7683   -8.0414 H   0  0  0  0  0  0  0  0  0  0  0  0
   -4.5366   13.2900   -6.4643 H   0  0  0  0  0  0  0  0  0  0  0  0
   -6.7612   12.3068   -6.9141 H   0  0  0  0  0  0  0  0  0  0  0  0
   -2.1251   11.7808   -5.9424 H   0  0  0  0  0  0  0  0  0  0  0  0
   -2.1568   14.2271   -7.1311 H   0  0  0  0  0  0  0  0  0  0  0  0
   -2.2034   13.5716   -5.4593 H   0  0  0  0  0  0  0  0  0  0  0  0
   -0.6430   10.6154   -7.5924 H   0  0  0  0  0  0  0  0  0  0  0  0
    1.4345   14.3489   -6.0254 H   0  0  0  0  0  0  0  0  0  0  0  0
    0.1671   15.4918   -6.5857 H   0  0  0  0  0  0  0  0  0  0  0  0
    0.1198   14.8498   -4.9087 H   0  0  0  0  0  0  0  0  0  0  0  0
  1  2  1  0  0  0  0
  1  4  1  0  0  0  0
  1 13  2  3  0  0  0
  2  6  2  0  0  0  0
  3  4  1  0  0  0  0
  3  5  2  0  0  0  0
  5  6  1  0  0  0  0
  5  9  1  0  0  0  0
  6  7  1  0  0  0  0
  7  8  1  0  0  0  0
  7 10  2  3  0  0  0
  8  9  2  0  0  0  0
 10 14  1  0  0  0  0
 11 12  1  0  0  0  0
 11 13  1  0  0  0  0
 11 26  2  0  0  0  0
 11 27  2  0  0  0  0
 14 15  2  0  0  0  0
 14 19  1  0  0  0  0
 15 16  1  0  0  0  0
 16 17  2  0  0  0  0
 17 18  1  0  0  0  0
 17 20  1  0  0  0  0
 18 19  2  0  0  0  0
 20 21  1  0  0  0  0
 20 24  1  0  0  0  0
 21 22  1  0  0  0  0
 22 23  1  0  0  0  0
 22 25  1  0  0  0  0
 23 24  2  0  0  0  0
  2 28  1  0  0  0  0
  3 29  1  0  0  0  0
  4 30  1  0  0  0  0
  4 31  1  0  0  0  0
 10 32  1  0  0  0  0
 12 33  1  0  0  0  0
 12 34  1  0  0  0  0
 12 35  1  0  0  0  0
 15 36  1  0  0  0  0
 16 37  1  0  0  0  0
 18 38  1  0  0  0  0
 19 39  1  0  0  0  0
 20 40  1  0  0  0  0
 21 41  1  0  0  0  0
 21 42  1  0  0  0  0
 24 43  1  0  0  0  0
 25 44  1  0  0  0  0
 25 45  1  0  0  0  0
 25 46  1  0  0  0  0
M  END
> <Name>
25

> <IC50[uM]>
0.073

$$$$
25
  -OEChem-05192314333D
 Structure written by MMmdl.
 46 49  0     1  0  0  0  0  0999 V2000
   -6.3861   12.3623  -11.9697 C   0  0  0  0  0  0  0  0  0  0  0  0
   -6.5480   11.8020  -10.7080 C   0  0  0  0  0  0  0  0  0  0  0  0
   -7.6869   10.5726  -13.0325 C   0  0  0  0  0  0  0  0  0  0  0  0
   -6.9529   11.7665  -13.1047 C   0  0  0  0  0  0  0  0  0  0  0  0
   -7.8210   10.0086  -11.7556 C   0  0  0  0  0  0  0  0  0  0  0  0
   -7.2636   10.6177  -10.5919 C   0  0  0  0  0  0  0  0  0  0  0  0
   -7.6330    9.7421   -9.5104 C   0  0  0  0  0  0  0  0  0  0  0  0
   -8.3023    8.7332   -9.9897 N   0  0  0  0  0  0  0  0  0  0  0  0
   -8.4342    8.8678  -11.3051 N   0  0  0  0  0  0  0  0  0  0  0  0
   -7.3415    9.8758   -8.0215 C   0  0  0  0  0  0  0  0  0  0  0  0
   -4.1211   13.8754  -11.2000 S   0  0  0  0  0  0  0  0  0  0  0  0
   -2.9188   12.5402  -11.7675 C   0  0  0  0  0  0  0  0  0  0  0  0
   -5.6382   13.5428  -12.1051 N   0  0  0  0  0  0  0  0  0  0  0  0
   -5.9683   10.4827   -7.7344 C   0  0  0  0  0  0  0  0  0  0  0  0
   -4.8123    9.7690   -8.0490 C   0  0  0  0  0  0  0  0  0  0  0  0
   -3.5592   10.3237   -7.7969 C   0  0  0  0  0  0  0  0  0  0  0  0
   -3.4543   11.5962   -7.2288 C   0  0  0  0  0  0  0  0  0  0  0  0
   -4.6126   12.3085   -6.9084 C   0  0  0  0  0  0  0  0  0  0  0  0
   -5.8671   11.7538   -7.1613 C   0  0  0  0  0  0  0  0  0  0  0  0
   -2.1058   12.1871   -6.9644 C   0  0  3  0  0  0  0  0  0  0  0  0
   -1.7745   13.4406   -6.4637 C   0  0  0  0  0  0  0  0  0  0  0  0
   -0.4394   13.4976   -6.4041 N   0  0  3  0  0  0  0  0  0  0  0  0
    0.1691   12.4146   -6.8015 N   0  0  0  0  0  0  0  0  0  0  0  0
   -0.8034   11.5995   -7.1773 C   0  0  0  0  0  0  0  0  0  0  0  0
    0.3694   14.6144   -5.9538 C   0  0  0  0  0  0  0  0  0  0  0  0
   -3.6497   15.1720  -11.6865 O   0  0  0  0  0  0  0  0  0  0  0  0
   -4.3650   13.6745   -9.7698 O   0  0  0  0  0  0  0  0  0  0  0  0
   -5.5417   11.6132  -10.3059 H   0  0  0  0  0  0  0  0  0  0  0  0
   -7.0576   12.5509  -10.0840 H   0  0  0  0  0  0  0  0  0  0  0  0
   -8.1227   10.1152  -13.9085 H   0  0  0  0  0  0  0  0  0  0  0  0
   -6.8205   12.2414  -14.0656 H   0  0  0  0  0  0  0  0  0  0  0  0
   -8.0330    9.5733   -7.2490 H   0  0  0  0  0  0  0  0  0  0  0  0
   -1.9543   12.6728  -11.2554 H   0  0  0  0  0  0  0  0  0  0  0  0
   -3.3298   11.5493  -11.5240 H   0  0  0  0  0  0  0  0  0  0  0  0
   -2.7704   12.6186  -12.8546 H   0  0  0  0  0  0  0  0  0  0  0  0
   -4.8884    8.7854   -8.4885 H   0  0  0  0  0  0  0  0  0  0  0  0
   -2.6658    9.7683   -8.0414 H   0  0  0  0  0  0  0  0  0  0  0  0
   -4.5366   13.2900   -6.4643 H   0  0  0  0  0  0  0  0  0  0  0  0
   -6.7612   12.3068   -6.9141 H   0  0  0  0  0  0  0  0  0  0  0  0
   -2.1251   11.7808   -5.9424 H   0  0  0  0  0  0  0  0  0  0  0  0
   -2.1568   14.2271   -7.1311 H   0  0  0  0  0  0  0  0  0  0  0  0
   -2.2034   13.5716   -5.4593 H   0  0  0  0  0  0  0  0  0  0  0  0
   -0.6430   10.6154   -7.5924 H   0  0  0  0  0  0  0  0  0  0  0  0
    1.4345   14.3489   -6.0254 H   0  0  0  0  0  0  0  0  0  0  0  0
    0.1671   15.4918   -6.5857 H   0  0  0  0  0  0  0  0  0  0  0  0
    0.1198   14.8498   -4.9087 H   0  0  0  0  0  0  0  0  0  0  0  0
  1  2  1  0  0  0  0
  1  4  1  0  0  0  0
  1 13  2  3  0  0  0
  2  6  1  0  0  0  0
  3  4  2  0  0  0  0
  3  5  1  0  0  0  0
  5  6  2  0  0  0  0
  5  9  1  0  0  0  0
  6  7  1  0  0  0  0
  7  8  1  0  0  0  0
  7 10  2  3  0  0  0
  8  9  2  0  0  0  0
 10 14  1  0  0  0  0
 11 12  1  0  0  0  0
 11 13  1  0  0  0  0
 11 26  2  0  0  0  0
 11 27  2  0  0  0  0
 14 15  2  0  0  0  0
 14 19  1  0  0  0  0
 15 16  1  0  0  0  0
 16 17  2  0  0  0  0
 17 18  1  0  0  0  0
 17 20  1  0  0  0  0
 18 19  2  0  0  0  0
 20 21  1  0  0  0  0
 20 24  1  0  0  0  0
 21 22  1  0  0  0  0
 22 23  1  0  0  0  0
 22 25  1  0  0  0  0
 23 24  2  0  0  0  0
  2 28  1  0  0  0  0
  2 29  1  0  0  0  0
  3 30  1  0  0  0  0
  4 31  1  0  0  0  0
 10 32  1  0  0  0  0
 12 33  1  0  0  0  0
 12 34  1  0  0  0  0
 12 35  1  0  0  0  0
 15 36  1  0  0  0  0
 16 37  1  0  0  0  0
 18 38  1  0  0  0  0
 19 39  1  0  0  0  0
 20 40  1  0  0  0  0
 21 41  1  0  0  0  0
 21 42  1  0  0  0  0
 24 43  1  0  0  0  0
 25 44  1  0  0  0  0
 25 45  1  0  0  0  0
 25 46  1  0  0  0  0
M  END
> <Name>
25

> <IC50[uM]>
0.073

$$$$
25
  -OEChem-05192314333D
 Structure written by MMmdl.
 46 49  0     1  0  0  0  0  0999 V2000
   -6.3861   12.3623  -11.9697 C   0  0  0  0  0  0  0  0  0  0  0  0
   -6.5480   11.8020  -10.7080 C   0  0  0  0  0  0  0  0  0  0  0  0
   -7.6869   10.5726  -13.0325 C   0  0  0  0  0  0  0  0  0  0  0  0
   -6.9529   11.7665  -13.1047 C   0  0  0  0  0  0  0  0  0  0  0  0
   -7.8210   10.0086  -11.7556 C   0  0  0  0  0  0  0  0  0  0  0  0
   -7.2636   10.6177  -10.5919 C   0  0  0  0  0  0  0  0  0  0  0  0
   -7.6330    9.7421   -9.5104 C   0  0  0  0  0  0  0  0  0  0  0  0
   -8.3023    8.7332   -9.9897 N   0  0  0  0  0  0  0  0  0  0  0  0
   -8.4342    8.8678  -11.3051 N   0  0  0  0  0  0  0  0  0  0  0  0
   -7.3415    9.8758   -8.0215 C   0  0  0  0  0  0  0  0  0  0  0  0
   -4.1211   13.8754  -11.2000 S   0  0  0  0  0  0  0  0  0  0  0  0
   -2.9188   12.5402  -11.7675 C   0  0  0  0  0  0  0  0  0  0  0  0
   -5.6382   13.5428  -12.1051 N   0  0  0  0  0  0  0  0  0  0  0  0
   -5.9683   10.4827   -7.7344 C   0  0  0  0  0  0  0  0  0  0  0  0
   -4.8123    9.7690   -8.0490 C   0  0  0  0  0  0  0  0  0  0  0  0
   -3.5592   10.3237   -7.7969 C   0  0  0  0  0  0  0  0  0  0  0  0
   -3.4543   11.5962   -7.2288 C   0  0  0  0  0  0  0  0  0  0  0  0
   -4.6126   12.3085   -6.9084 C   0  0  0  0  0  0  0  0  0  0  0  0
   -5.8671   11.7538   -7.1613 C   0  0  0  0  0  0  0  0  0  0  0  0
   -2.1058   12.1871   -6.9644 C   0  0  0  0  0  0  0  0  0  0  0  0
   -1.7745   13.4406   -6.4637 C   0  0  0  0  0  0  0  0  0  0  0  0
   -0.4394   13.4976   -6.4041 N   0  0  3  0  0  0  0  0  0  0  0  0
    0.1691   12.4146   -6.8015 N   0  0  0  0  0  0  0  0  0  0  0  0
   -0.8034   11.5995   -7.1773 C   0  0  0  0  0  0  0  0  0  0  0  0
    0.3694   14.6144   -5.9538 C   0  0  0  0  0  0  0  0  0  0  0  0
   -3.6497   15.1720  -11.6865 O   0  0  0  0  0  0  0  0  0  0  0  0
   -4.3650   13.6745   -9.7698 O   0  0  0  0  0  0  0  0  0  0  0  0
   -6.1257   12.2782   -9.8355 H   0  0  0  0  0  0  0  0  0  0  0  0
   -8.1227   10.1152  -13.9085 H   0  0  0  0  0  0  0  0  0  0  0  0
   -6.8205   12.2414  -14.0656 H   0  0  0  0  0  0  0  0  0  0  0  0
   -8.1107   10.5196   -7.5701 H   0  0  0  0  0  0  0  0  0  0  0  0
   -7.3856    8.8762   -7.5645 H   0  0  0  0  0  0  0  0  0  0  0  0
   -1.9543   12.6728  -11.2554 H   0  0  0  0  0  0  0  0  0  0  0  0
   -3.3298   11.5493  -11.5240 H   0  0  0  0  0  0  0  0  0  0  0  0
   -2.7704   12.6186  -12.8546 H   0  0  0  0  0  0  0  0  0  0  0  0
   -4.8884    8.7854   -8.4885 H   0  0  0  0  0  0  0  0  0  0  0  0
   -2.6658    9.7683   -8.0414 H   0  0  0  0  0  0  0  0  0  0  0  0
   -4.5366   13.2900   -6.4643 H   0  0  0  0  0  0  0  0  0  0  0  0
   -6.7612   12.3068   -6.9141 H   0  0  0  0  0  0  0  0  0  0  0  0
   -2.4642   14.2207   -6.1771 H   0  0  0  0  0  0  0  0  0  0  0  0
    0.7780   12.6141   -7.5692 H   0  0  0  0  0  0  0  0  0  0  0  0
   -0.7330   10.6686   -6.5955 H   0  0  0  0  0  0  0  0  0  0  0  0
   -0.6852   11.3731   -8.2472 H   0  0  0  0  0  0  0  0  0  0  0  0
    1.4345   14.3488   -6.0253 H   0  0  0  0  0  0  0  0  0  0  0  0
    0.1672   15.4917   -6.5858 H   0  0  0  0  0  0  0  0  0  0  0  0
    0.1197   14.8499   -4.9087 H   0  0  0  0  0  0  0  0  0  0  0  0
  1  2  1  0  0  0  0
  1  4  1  0  0  0  0
  1 13  2  3  0  0  0
  2  6  2  0  0  0  0
  3  4  2  0  0  0  0
  3  5  1  0  0  0  0
  5  6  1  0  0  0  0
  5  9  2  0  0  0  0
  6  7  1  0  0  0  0
  7  8  2  0  0  0  0
  7 10  1  0  0  0  0
  8  9  1  0  0  0  0
 10 14  1  0  0  0  0
 11 12  1  0  0  0  0
 11 13  1  0  0  0  0
 11 26  2  0  0  0  0
 11 27  2  0  0  0  0
 14 15  2  0  0  0  0
 14 19  1  0  0  0  0
 15 16  1  0  0  0  0
 16 17  2  0  0  0  0
 17 18  1  0  0  0  0
 17 20  1  0  0  0  0
 18 19  2  0  0  0  0
 20 21  2  0  0  0  0
 20 24  1  0  0  0  0
 21 22  1  0  0  0  0
 22 23  1  0  0  0  0
 22 25  1  0  0  0  0
 23 24  1  0  0  0  0
  2 28  1  0  0  0  0
  3 29  1  0  0  0  0
  4 30  1  0  0  0  0
 10 31  1  0  0  0  0
 10 32  1  0  0  0  0
 12 33  1  0  0  0  0
 12 34  1  0  0  0  0
 12 35  1  0  0  0  0
 15 36  1  0  0  0  0
 16 37  1  0  0  0  0
 18 38  1  0  0  0  0
 19 39  1  0  0  0  0
 21 40  1  0  0  0  0
 23 41  1  0  0  0  0
 24 42  1  0  0  0  0
 24 43  1  0  0  0  0
 25 44  1  0  0  0  0
 25 45  1  0  0  0  0
 25 46  1  0  0  0  0
M  END
> <Name>
25

> <IC50[uM]>
0.073

$$$$
25
  -OEChem-05192314333D
 Structure written by MMmdl.
 46 49  0     1  0  0  0  0  0999 V2000
   -6.3861   12.3623  -11.9697 C   0  0  0  0  0  0  0  0  0  0  0  0
   -6.5480   11.8020  -10.7080 C   0  0  0  0  0  0  0  0  0  0  0  0
   -7.6869   10.5726  -13.0325 C   0  0  0  0  0  0  0  0  0  0  0  0
   -6.9529   11.7665  -13.1047 C   0  0  0  0  0  0  0  0  0  0  0  0
   -7.8210   10.0086  -11.7556 C   0  0  0  0  0  0  0  0  0  0  0  0
   -7.2636   10.6177  -10.5919 C   0  0  0  0  0  0  0  0  0  0  0  0
   -7.6330    9.7421   -9.5104 C   0  0  0  0  0  0  0  0  0  0  0  0
   -8.3023    8.7332   -9.9897 N   0  0  0  0  0  0  0  0  0  0  0  0
   -8.4342    8.8678  -11.3051 N   0  0  0  0  0  0  0  0  0  0  0  0
   -7.3415    9.8758   -8.0215 C   0  0  0  0  0  0  0  0  0  0  0  0
   -4.1211   13.8754  -11.2000 S   0  0  0  0  0  0  0  0  0  0  0  0
   -2.9188   12.5402  -11.7675 C   0  0  0  0  0  0  0  0  0  0  0  0
   -5.6382   13.5428  -12.1051 N   0  0  0  0  0  0  0  0  0  0  0  0
   -5.9683   10.4827   -7.7344 C   0  0  0  0  0  0  0  0  0  0  0  0
   -4.8123    9.7690   -8.0490 C   0  0  0  0  0  0  0  0  0  0  0  0
   -3.5592   10.3237   -7.7969 C   0  0  0  0  0  0  0  0  0  0  0  0
   -3.4543   11.5962   -7.2288 C   0  0  0  0  0  0  0  0  0  0  0  0
   -4.6126   12.3085   -6.9084 C   0  0  0  0  0  0  0  0  0  0  0  0
   -5.8671   11.7538   -7.1613 C   0  0  0  0  0  0  0  0  0  0  0  0
   -2.1058   12.1871   -6.9644 C   0  0  0  0  0  0  0  0  0  0  0  0
   -1.7745   13.4406   -6.4637 C   0  0  0  0  0  0  0  0  0  0  0  0
   -0.4394   13.4976   -6.4041 N   0  0  3  0  0  0  0  0  0  0  0  0
    0.1691   12.4146   -6.8015 N   0  0  0  0  0  0  0  0  0  0  0  0
   -0.8034   11.5995   -7.1773 C   0  0  0  0  0  0  0  0  0  0  0  0
    0.3694   14.6144   -5.9538 C   0  0  0  0  0  0  0  0  0  0  0  0
   -3.6497   15.1720  -11.6865 O   0  0  0  0  0  0  0  0  0  0  0  0
   -4.3650   13.6745   -9.7698 O   0  0  0  0  0  0  0  0  0  0  0  0
   -6.1257   12.2782   -9.8355 H   0  0  0  0  0  0  0  0  0  0  0  0
   -8.1227   10.1152  -13.9085 H   0  0  0  0  0  0  0  0  0  0  0  0
   -6.8205   12.2414  -14.0656 H   0  0  0  0  0  0  0  0  0  0  0  0
   -8.1107   10.5196   -7.5701 H   0  0  0  0  0  0  0  0  0  0  0  0
   -7.3856    8.8762   -7.5645 H   0  0  0  0  0  0  0  0  0  0  0  0
   -1.9543   12.6728  -11.2554 H   0  0  0  0  0  0  0  0  0  0  0  0
   -3.3298   11.5493  -11.5240 H   0  0  0  0  0  0  0  0  0  0  0  0
   -2.7704   12.6186  -12.8546 H   0  0  0  0  0  0  0  0  0  0  0  0
   -4.8884    8.7854   -8.4885 H   0  0  0  0  0  0  0  0  0  0  0  0
   -2.6658    9.7683   -8.0414 H   0  0  0  0  0  0  0  0  0  0  0  0
   -4.5366   13.2900   -6.4643 H   0  0  0  0  0  0  0  0  0  0  0  0
   -6.7612   12.3068   -6.9141 H   0  0  0  0  0  0  0  0  0  0  0  0
   -2.1568   14.2271   -7.1311 H   0  0  0  0  0  0  0  0  0  0  0  0
   -2.2034   13.5716   -5.4593 H   0  0  0  0  0  0  0  0  0  0  0  0
    0.7780   12.6141   -7.5692 H   0  0  0  0  0  0  0  0  0  0  0  0
   -0.6430   10.6154   -7.5924 H   0  0  0  0  0  0  0  0  0  0  0  0
    1.4345   14.3488   -6.0253 H   0  0  0  0  0  0  0  0  0  0  0  0
    0.1672   15.4917   -6.5858 H   0  0  0  0  0  0  0  0  0  0  0  0
    0.1197   14.8499   -4.9087 H   0  0  0  0  0  0  0  0  0  0  0  0
  1  2  1  0  0  0  0
  1  4  1  0  0  0  0
  1 13  2  3  0  0  0
  2  6  2  0  0  0  0
  3  4  2  0  0  0  0
  3  5  1  0  0  0  0
  5  6  1  0  0  0  0
  5  9  2  0  0  0  0
  6  7  1  0  0  0  0
  7  8  2  0  0  0  0
  7 10  1  0  0  0  0
  8  9  1  0  0  0  0
 10 14  1  0  0  0  0
 11 12  1  0  0  0  0
 11 13  1  0  0  0  0
 11 26  2  0  0  0  0
 11 27  2  0  0  0  0
 14 15  2  0  0  0  0
 14 19  1  0  0  0  0
 15 16  1  0  0  0  0
 16 17  2  0  0  0  0
 17 18  1  0  0  0  0
 17 20  1  0  0  0  0
 18 19  2  0  0  0  0
 20 21  1  0  0  0  0
 20 24  2  0  0  0  0
 21 22  1  0  0  0  0
 22 23  1  0  0  0  0
 22 25  1  0  0  0  0
 23 24  1  0  0  0  0
  2 28  1  0  0  0  0
  3 29  1  0  0  0  0
  4 30  1  0  0  0  0
 10 31  1  0  0  0  0
 10 32  1  0  0  0  0
 12 33  1  0  0  0  0
 12 34  1  0  0  0  0
 12 35  1  0  0  0  0
 15 36  1  0  0  0  0
 16 37  1  0  0  0  0
 18 38  1  0  0  0  0
 19 39  1  0  0  0  0
 21 40  1  0  0  0  0
 21 41  1  0  0  0  0
 23 42  1  0  0  0  0
 24 43  1  0  0  0  0
 25 44  1  0  0  0  0
 25 45  1  0  0  0  0
 25 46  1  0  0  0  0
M  END
> <Name>
25

> <IC50[uM]>
0.073

$$$$
25
  -OEChem-05192314333D
 Structure written by MMmdl.
 46 49  0     1  0  0  0  0  0999 V2000
   -6.3861   12.3623  -11.9697 C   0  0  0  0  0  0  0  0  0  0  0  0
   -6.5480   11.8020  -10.7080 C   0  0  0  0  0  0  0  0  0  0  0  0
   -7.6869   10.5726  -13.0325 C   0  0  0  0  0  0  0  0  0  0  0  0
   -6.9529   11.7665  -13.1047 C   0  0  0  0  0  0  0  0  0  0  0  0
   -7.8210   10.0086  -11.7556 C   0  0  3  0  0  0  0  0  0  0  0  0
   -7.2636   10.6177  -10.5919 C   0  0  0  0  0  0  0  0  0  0  0  0
   -7.6330    9.7421   -9.5104 C   0  0  0  0  0  0  0  0  0  0  0  0
   -8.3023    8.7332   -9.9897 N   0  0  0  0  0  0  0  0  0  0  0  0
   -8.4342    8.8678  -11.3051 N   0  0  0  0  0  0  0  0  0  0  0  0
   -7.3415    9.8758   -8.0215 C   0  0  0  0  0  0  0  0  0  0  0  0
   -4.1211   13.8754  -11.2000 S   0  0  0  0  0  0  0  0  0  0  0  0
   -2.9188   12.5402  -11.7675 C   0  0  0  0  0  0  0  0  0  0  0  0
   -5.6382   13.5428  -12.1051 N   0  0  0  0  0  0  0  0  0  0  0  0
   -5.9683   10.4827   -7.7344 C   0  0  0  0  0  0  0  0  0  0  0  0
   -4.8123    9.7690   -8.0490 C   0  0  0  0  0  0  0  0  0  0  0  0
   -3.5592   10.3237   -7.7969 C   0  0  0  0  0  0  0  0  0  0  0  0
   -3.4543   11.5962   -7.2288 C   0  0  0  0  0  0  0  0  0  0  0  0
   -4.6126   12.3085   -6.9084 C   0  0  0  0  0  0  0  0  0  0  0  0
   -5.8671   11.7538   -7.1613 C   0  0  0  0  0  0  0  0  0  0  0  0
   -2.1058   12.1871   -6.9644 C   0  0  0  0  0  0  0  0  0  0  0  0
   -1.7745   13.4406   -6.4637 C   0  0  0  0  0  0  0  0  0  0  0  0
   -0.4394   13.4976   -6.4041 N   0  0  3  0  0  0  0  0  0  0  0  0
    0.1691   12.4146   -6.8015 N   0  0  0  0  0  0  0  0  0  0  0  0
   -0.8034   11.5995   -7.1773 C   0  0  0  0  0  0  0  0  0  0  0  0
    0.3694   14.6144   -5.9538 C   0  0  0  0  0  0  0  0  0  0  0  0
   -3.6497   15.1720  -11.6865 O   0  0  0  0  0  0  0  0  0  0  0  0
   -4.3650   13.6745   -9.7698 O   0  0  0  0  0  0  0  0  0  0  0  0
   -6.1257   12.2782   -9.8355 H   0  0  0  0  0  0  0  0  0  0  0  0
   -8.1227   10.1152  -13.9085 H   0  0  0  0  0  0  0  0  0  0  0  0
   -6.8205   12.2414  -14.0656 H   0  0  0  0  0  0  0  0  0  0  0  0
   -8.7541   10.5711  -11.6042 H   0  0  0  0  0  0  0  0  0  0  0  0
   -8.0330    9.5733   -7.2490 H   0  0  0  0  0  0  0  0  0  0  0  0
   -1.9543   12.6728  -11.2554 H   0  0  0  0  0  0  0  0  0  0  0  0
   -3.3298   11.5493  -11.5240 H   0  0  0  0  0  0  0  0  0  0  0  0
   -2.7704   12.6186  -12.8546 H   0  0  0  0  0  0  0  0  0  0  0  0
   -4.8884    8.7854   -8.4885 H   0  0  0  0  0  0  0  0  0  0  0  0
   -2.6658    9.7683   -8.0414 H   0  0  0  0  0  0  0  0  0  0  0  0
   -4.5366   13.2900   -6.4643 H   0  0  0  0  0  0  0  0  0  0  0  0
   -6.7612   12.3068   -6.9141 H   0  0  0  0  0  0  0  0  0  0  0  0
   -2.4642   14.2207   -6.1771 H   0  0  0  0  0  0  0  0  0  0  0  0
    0.7780   12.6141   -7.5692 H   0  0  0  0  0  0  0  0  0  0  0  0
   -0.7330   10.6686   -6.5955 H   0  0  0  0  0  0  0  0  0  0  0  0
   -0.6852   11.3731   -8.2472 H   0  0  0  0  0  0  0  0  0  0  0  0
    1.4345   14.3488   -6.0253 H   0  0  0  0  0  0  0  0  0  0  0  0
    0.1672   15.4917   -6.5858 H   0  0  0  0  0  0  0  0  0  0  0  0
    0.1197   14.8499   -4.9087 H   0  0  0  0  0  0  0  0  0  0  0  0
  1  2  1  0  0  0  0
  1  4  1  0  0  0  0
  1 13  2  3  0  0  0
  2  6  2  0  0  0  0
  3  4  2  0  0  0  0
  3  5  1  0  0  0  0
  5  6  1  0  0  0  0
  5  9  1  0  0  0  0
  6  7  1  0  0  0  0
  7  8  1  0  0  0  0
  7 10  2  3  0  0  0
  8  9  2  0  0  0  0
 10 14  1  0  0  0  0
 11 12  1  0  0  0  0
 11 13  1  0  0  0  0
 11 26  2  0  0  0  0
 11 27  2  0  0  0  0
 14 15  2  0  0  0  0
 14 19  1  0  0  0  0
 15 16  1  0  0  0  0
 16 17  2  0  0  0  0
 17 18  1  0  0  0  0
 17 20  1  0  0  0  0
 18 19  2  0  0  0  0
 20 21  2  0  0  0  0
 20 24  1  0  0  0  0
 21 22  1  0  0  0  0
 22 23  1  0  0  0  0
 22 25  1  0  0  0  0
 23 24  1  0  0  0  0
  2 28  1  0  0  0  0
  3 29  1  0  0  0  0
  4 30  1  0  0  0  0
  5 31  1  0  0  0  0
 10 32  1  0  0  0  0
 12 33  1  0  0  0  0
 12 34  1  0  0  0  0
 12 35  1  0  0  0  0
 15 36  1  0  0  0  0
 16 37  1  0  0  0  0
 18 38  1  0  0  0  0
 19 39  1  0  0  0  0
 21 40  1  0  0  0  0
 23 41  1  0  0  0  0
 24 42  1  0  0  0  0
 24 43  1  0  0  0  0
 25 44  1  0  0  0  0
 25 45  1  0  0  0  0
 25 46  1  0  0  0  0
M  END
> <Name>
25

> <IC50[uM]>
0.073

$$$$
25
  -OEChem-05192314333D
 Structure written by MMmdl.
 46 49  0     1  0  0  0  0  0999 V2000
   -6.3861   12.3623  -11.9697 C   0  0  0  0  0  0  0  0  0  0  0  0
   -6.5480   11.8020  -10.7080 C   0  0  0  0  0  0  0  0  0  0  0  0
   -7.6869   10.5726  -13.0325 C   0  0  0  0  0  0  0  0  0  0  0  0
   -6.9529   11.7665  -13.1047 C   0  0  0  0  0  0  0  0  0  0  0  0
   -7.8210   10.0086  -11.7556 C   0  0  0  0  0  0  0  0  0  0  0  0
   -7.2636   10.6177  -10.5919 C   0  0  0  0  0  0  0  0  0  0  0  0
   -7.6330    9.7421   -9.5104 C   0  0  0  0  0  0  0  0  0  0  0  0
   -8.3023    8.7332   -9.9897 N   0  0  0  0  0  0  0  0  0  0  0  0
   -8.4342    8.8678  -11.3051 N   0  0  0  0  0  0  0  0  0  0  0  0
   -7.3415    9.8758   -8.0215 C   0  0  0  0  0  0  0  0  0  0  0  0
   -4.1211   13.8754  -11.2000 S   0  0  0  0  0  0  0  0  0  0  0  0
   -2.9188   12.5402  -11.7675 C   0  0  0  0  0  0  0  0  0  0  0  0
   -5.6382   13.5428  -12.1051 N   0  0  0  0  0  0  0  0  0  0  0  0
   -5.9683   10.4827   -7.7344 C   0  0  0  0  0  0  0  0  0  0  0  0
   -4.8123    9.7690   -8.0490 C   0  0  0  0  0  0  0  0  0  0  0  0
   -3.5592   10.3237   -7.7969 C   0  0  0  0  0  0  0  0  0  0  0  0
   -3.4543   11.5962   -7.2288 C   0  0  0  0  0  0  0  0  0  0  0  0
   -4.6126   12.3085   -6.9084 C   0  0  0  0  0  0  0  0  0  0  0  0
   -5.8671   11.7538   -7.1613 C   0  0  0  0  0  0  0  0  0  0  0  0
   -2.1058   12.1871   -6.9644 C   0  0  0  0  0  0  0  0  0  0  0  0
   -1.7745   13.4406   -6.4637 C   0  0  0  0  0  0  0  0  0  0  0  0
   -0.4394   13.4976   -6.4041 N   0  0  3  0  0  0  0  0  0  0  0  0
    0.1691   12.4146   -6.8015 N   0  0  0  0  0  0  0  0  0  0  0  0
   -0.8034   11.5995   -7.1773 C   0  0  0  0  0  0  0  0  0  0  0  0
    0.3694   14.6144   -5.9538 C   0  0  0  0  0  0  0  0  0  0  0  0
   -3.6497   15.1720  -11.6865 O   0  0  0  0  0  0  0  0  0  0  0  0
   -4.3650   13.6745   -9.7698 O   0  0  0  0  0  0  0  0  0  0  0  0
   -6.1257   12.2782   -9.8355 H   0  0  0  0  0  0  0  0  0  0  0  0
   -8.1227   10.1152  -13.9085 H   0  0  0  0  0  0  0  0  0  0  0  0
   -7.6287   12.5169  -13.5407 H   0  0  0  0  0  0  0  0  0  0  0  0
   -6.1214   11.5746  -13.7988 H   0  0  0  0  0  0  0  0  0  0  0  0
   -8.0330    9.5733   -7.2490 H   0  0  0  0  0  0  0  0  0  0  0  0
   -1.9543   12.6728  -11.2554 H   0  0  0  0  0  0  0  0  0  0  0  0
   -3.3298   11.5493  -11.5240 H   0  0  0  0  0  0  0  0  0  0  0  0
   -2.7704   12.6186  -12.8546 H   0  0  0  0  0  0  0  0  0  0  0  0
   -4.8884    8.7854   -8.4885 H   0  0  0  0  0  0  0  0  0  0  0  0
   -2.6658    9.7683   -8.0414 H   0  0  0  0  0  0  0  0  0  0  0  0
   -4.5366   13.2900   -6.4643 H   0  0  0  0  0  0  0  0  0  0  0  0
   -6.7612   12.3068   -6.9141 H   0  0  0  0  0  0  0  0  0  0  0  0
   -2.4642   14.2207   -6.1771 H   0  0  0  0  0  0  0  0  0  0  0  0
    0.7780   12.6141   -7.5692 H   0  0  0  0  0  0  0  0  0  0  0  0
   -0.7330   10.6686   -6.5955 H   0  0  0  0  0  0  0  0  0  0  0  0
   -0.6852   11.3731   -8.2472 H   0  0  0  0  0  0  0  0  0  0  0  0
    1.4345   14.3488   -6.0253 H   0  0  0  0  0  0  0  0  0  0  0  0
    0.1672   15.4917   -6.5858 H   0  0  0  0  0  0  0  0  0  0  0  0
    0.1197   14.8499   -4.9087 H   0  0  0  0  0  0  0  0  0  0  0  0
  1  2  1  0  0  0  0
  1  4  1  0  0  0  0
  1 13  2  3  0  0  0
  2  6  2  0  0  0  0
  3  4  1  0  0  0  0
  3  5  2  0  0  0  0
  5  6  1  0  0  0  0
  5  9  1  0  0  0  0
  6  7  1  0  0  0  0
  7  8  1  0  0  0  0
  7 10  2  3  0  0  0
  8  9  2  0  0  0  0
 10 14  1  0  0  0  0
 11 12  1  0  0  0  0
 11 13  1  0  0  0  0
 11 26  2  0  0  0  0
 11 27  2  0  0  0  0
 14 15  2  0  0  0  0
 14 19  1  0  0  0  0
 15 16  1  0  0  0  0
 16 17  2  0  0  0  0
 17 18  1  0  0  0  0
 17 20  1  0  0  0  0
 18 19  2  0  0  0  0
 20 21  2  0  0  0  0
 20 24  1  0  0  0  0
 21 22  1  0  0  0  0
 22 23  1  0  0  0  0
 22 25  1  0  0  0  0
 23 24  1  0  0  0  0
  2 28  1  0  0  0  0
  3 29  1  0  0  0  0
  4 30  1  0  0  0  0
  4 31  1  0  0  0  0
 10 32  1  0  0  0  0
 12 33  1  0  0  0  0
 12 34  1  0  0  0  0
 12 35  1  0  0  0  0
 15 36  1  0  0  0  0
 16 37  1  0  0  0  0
 18 38  1  0  0  0  0
 19 39  1  0  0  0  0
 21 40  1  0  0  0  0
 23 41  1  0  0  0  0
 24 42  1  0  0  0  0
 24 43  1  0  0  0  0
 25 44  1  0  0  0  0
 25 45  1  0  0  0  0
 25 46  1  0  0  0  0
M  END
> <Name>
25

> <IC50[uM]>
0.073

$$$$
25
  -OEChem-05192314333D
 Structure written by MMmdl.
 46 49  0     1  0  0  0  0  0999 V2000
   -6.3861   12.3623  -11.9697 C   0  0  0  0  0  0  0  0  0  0  0  0
   -6.5480   11.8020  -10.7080 C   0  0  0  0  0  0  0  0  0  0  0  0
   -7.6869   10.5726  -13.0325 C   0  0  0  0  0  0  0  0  0  0  0  0
   -6.9529   11.7665  -13.1047 C   0  0  0  0  0  0  0  0  0  0  0  0
   -7.8210   10.0086  -11.7556 C   0  0  0  0  0  0  0  0  0  0  0  0
   -7.2636   10.6177  -10.5919 C   0  0  0  0  0  0  0  0  0  0  0  0
   -7.6330    9.7421   -9.5104 C   0  0  0  0  0  0  0  0  0  0  0  0
   -8.3023    8.7332   -9.9897 N   0  0  0  0  0  0  0  0  0  0  0  0
   -8.4342    8.8678  -11.3051 N   0  0  0  0  0  0  0  0  0  0  0  0
   -7.3415    9.8758   -8.0215 C   0  0  0  0  0  0  0  0  0  0  0  0
   -4.1211   13.8754  -11.2000 S   0  0  0  0  0  0  0  0  0  0  0  0
   -2.9188   12.5402  -11.7675 C   0  0  0  0  0  0  0  0  0  0  0  0
   -5.6382   13.5428  -12.1051 N   0  0  0  0  0  0  0  0  0  0  0  0
   -5.9683   10.4827   -7.7344 C   0  0  0  0  0  0  0  0  0  0  0  0
   -4.8123    9.7690   -8.0490 C   0  0  0  0  0  0  0  0  0  0  0  0
   -3.5592   10.3237   -7.7969 C   0  0  0  0  0  0  0  0  0  0  0  0
   -3.4543   11.5962   -7.2288 C   0  0  0  0  0  0  0  0  0  0  0  0
   -4.6126   12.3085   -6.9084 C   0  0  0  0  0  0  0  0  0  0  0  0
   -5.8671   11.7538   -7.1613 C   0  0  0  0  0  0  0  0  0  0  0  0
   -2.1058   12.1871   -6.9644 C   0  0  0  0  0  0  0  0  0  0  0  0
   -1.7745   13.4406   -6.4637 C   0  0  0  0  0  0  0  0  0  0  0  0
   -0.4394   13.4976   -6.4041 N   0  0  3  0  0  0  0  0  0  0  0  0
    0.1691   12.4146   -6.8015 N   0  0  0  0  0  0  0  0  0  0  0  0
   -0.8034   11.5995   -7.1773 C   0  0  0  0  0  0  0  0  0  0  0  0
    0.3694   14.6144   -5.9538 C   0  0  0  0  0  0  0  0  0  0  0  0
   -3.6497   15.1720  -11.6865 O   0  0  0  0  0  0  0  0  0  0  0  0
   -4.3650   13.6745   -9.7698 O   0  0  0  0  0  0  0  0  0  0  0  0
   -5.5417   11.6132  -10.3059 H   0  0  0  0  0  0  0  0  0  0  0  0
   -7.0576   12.5509  -10.0840 H   0  0  0  0  0  0  0  0  0  0  0  0
   -8.1227   10.1152  -13.9085 H   0  0  0  0  0  0  0  0  0  0  0  0
   -6.8205   12.2414  -14.0656 H   0  0  0  0  0  0  0  0  0  0  0  0
   -8.0330    9.5733   -7.2490 H   0  0  0  0  0  0  0  0  0  0  0  0
   -1.9543   12.6728  -11.2554 H   0  0  0  0  0  0  0  0  0  0  0  0
   -3.3298   11.5493  -11.5240 H   0  0  0  0  0  0  0  0  0  0  0  0
   -2.7704   12.6186  -12.8546 H   0  0  0  0  0  0  0  0  0  0  0  0
   -4.8884    8.7854   -8.4885 H   0  0  0  0  0  0  0  0  0  0  0  0
   -2.6658    9.7683   -8.0414 H   0  0  0  0  0  0  0  0  0  0  0  0
   -4.5366   13.2900   -6.4643 H   0  0  0  0  0  0  0  0  0  0  0  0
   -6.7612   12.3068   -6.9141 H   0  0  0  0  0  0  0  0  0  0  0  0
   -2.4642   14.2207   -6.1771 H   0  0  0  0  0  0  0  0  0  0  0  0
    0.7780   12.6141   -7.5692 H   0  0  0  0  0  0  0  0  0  0  0  0
   -0.7330   10.6686   -6.5955 H   0  0  0  0  0  0  0  0  0  0  0  0
   -0.6852   11.3731   -8.2472 H   0  0  0  0  0  0  0  0  0  0  0  0
    1.4345   14.3488   -6.0253 H   0  0  0  0  0  0  0  0  0  0  0  0
    0.1672   15.4917   -6.5858 H   0  0  0  0  0  0  0  0  0  0  0  0
    0.1197   14.8499   -4.9087 H   0  0  0  0  0  0  0  0  0  0  0  0
  1  2  1  0  0  0  0
  1  4  1  0  0  0  0
  1 13  2  3  0  0  0
  2  6  1  0  0  0  0
  3  4  2  0  0  0  0
  3  5  1  0  0  0  0
  5  6  2  0  0  0  0
  5  9  1  0  0  0  0
  6  7  1  0  0  0  0
  7  8  1  0  0  0  0
  7 10  2  3  0  0  0
  8  9  2  0  0  0  0
 10 14  1  0  0  0  0
 11 12  1  0  0  0  0
 11 13  1  0  0  0  0
 11 26  2  0  0  0  0
 11 27  2  0  0  0  0
 14 15  2  0  0  0  0
 14 19  1  0  0  0  0
 15 16  1  0  0  0  0
 16 17  2  0  0  0  0
 17 18  1  0  0  0  0
 17 20  1  0  0  0  0
 18 19  2  0  0  0  0
 20 21  2  0  0  0  0
 20 24  1  0  0  0  0
 21 22  1  0  0  0  0
 22 23  1  0  0  0  0
 22 25  1  0  0  0  0
 23 24  1  0  0  0  0
  2 28  1  0  0  0  0
  2 29  1  0  0  0  0
  3 30  1  0  0  0  0
  4 31  1  0  0  0  0
 10 32  1  0  0  0  0
 12 33  1  0  0  0  0
 12 34  1  0  0  0  0
 12 35  1  0  0  0  0
 15 36  1  0  0  0  0
 16 37  1  0  0  0  0
 18 38  1  0  0  0  0
 19 39  1  0  0  0  0
 21 40  1  0  0  0  0
 23 41  1  0  0  0  0
 24 42  1  0  0  0  0
 24 43  1  0  0  0  0
 25 44  1  0  0  0  0
 25 45  1  0  0  0  0
 25 46  1  0  0  0  0
M  END
> <Name>
25

> <IC50[uM]>
0.073

$$$$
25
  -OEChem-05192314333D
 Structure written by MMmdl.
 46 49  0     1  0  0  0  0  0999 V2000
   -6.3861   12.3623  -11.9697 C   0  0  0  0  0  0  0  0  0  0  0  0
   -6.5480   11.8020  -10.7080 C   0  0  0  0  0  0  0  0  0  0  0  0
   -7.6869   10.5726  -13.0325 C   0  0  0  0  0  0  0  0  0  0  0  0
   -6.9529   11.7665  -13.1047 C   0  0  0  0  0  0  0  0  0  0  0  0
   -7.8210   10.0086  -11.7556 C   0  0  0  0  0  0  0  0  0  0  0  0
   -7.2636   10.6177  -10.5919 C   0  0  0  0  0  0  0  0  0  0  0  0
   -7.6330    9.7421   -9.5104 C   0  0  0  0  0  0  0  0  0  0  0  0
   -8.3023    8.7332   -9.9897 N   0  0  0  0  0  0  0  0  0  0  0  0
   -8.4342    8.8678  -11.3051 N   0  0  0  0  0  0  0  0  0  0  0  0
   -7.3415    9.8758   -8.0215 C   0  0  0  0  0  0  0  0  0  0  0  0
   -4.1211   13.8754  -11.2000 S   0  0  0  0  0  0  0  0  0  0  0  0
   -2.9188   12.5402  -11.7675 C   0  0  0  0  0  0  0  0  0  0  0  0
   -5.6382   13.5428  -12.1051 N   0  0  0  0  0  0  0  0  0  0  0  0
   -5.9683   10.4827   -7.7344 C   0  0  0  0  0  0  0  0  0  0  0  0
   -4.8123    9.7690   -8.0490 C   0  0  0  0  0  0  0  0  0  0  0  0
   -3.5592   10.3237   -7.7969 C   0  0  0  0  0  0  0  0  0  0  0  0
   -3.4543   11.5962   -7.2288 C   0  0  0  0  0  0  0  0  0  0  0  0
   -4.6126   12.3085   -6.9084 C   0  0  0  0  0  0  0  0  0  0  0  0
   -5.8671   11.7538   -7.1613 C   0  0  0  0  0  0  0  0  0  0  0  0
   -2.1058   12.1871   -6.9644 C   0  0  0  0  0  0  0  0  0  0  0  0
   -1.7745   13.4406   -6.4637 C   0  0  0  0  0  0  0  0  0  0  0  0
   -0.4394   13.4976   -6.4041 N   0  0  3  0  0  0  0  0  0  0  0  0
    0.1691   12.4146   -6.8015 N   0  0  0  0  0  0  0  0  0  0  0  0
   -0.8034   11.5995   -7.1773 C   0  0  0  0  0  0  0  0  0  0  0  0
    0.3694   14.6144   -5.9538 C   0  0  0  0  0  0  0  0  0  0  0  0
   -3.6497   15.1720  -11.6865 O   0  0  0  0  0  0  0  0  0  0  0  0
   -4.3650   13.6745   -9.7698 O   0  0  0  0  0  0  0  0  0  0  0  0
   -6.1257   12.2782   -9.8355 H   0  0  0  0  0  0  0  0  0  0  0  0
   -8.1227   10.1152  -13.9085 H   0  0  0  0  0  0  0  0  0  0  0  0
   -6.8205   12.2414  -14.0656 H   0  0  0  0  0  0  0  0  0  0  0  0
   -8.0330    9.5733   -7.2490 H   0  0  0  0  0  0  0  0  0  0  0  0
   -1.9543   12.6728  -11.2554 H   0  0  0  0  0  0  0  0  0  0  0  0
   -3.3298   11.5493  -11.5240 H   0  0  0  0  0  0  0  0  0  0  0  0
   -2.7704   12.6186  -12.8546 H   0  0  0  0  0  0  0  0  0  0  0  0
   -5.3954   13.6013  -13.0734 H   0  0  0  0  0  0  0  0  0  0  0  0
   -5.9765   10.0300   -6.7319 H   0  0  0  0  0  0  0  0  0  0  0  0
   -4.8884    8.7854   -8.4885 H   0  0  0  0  0  0  0  0  0  0  0  0
   -2.6658    9.7683   -8.0414 H   0  0  0  0  0  0  0  0  0  0  0  0
   -4.5366   13.2900   -6.4643 H   0  0  0  0  0  0  0  0  0  0  0  0
   -6.7612   12.3068   -6.9141 H   0  0  0  0  0  0  0  0  0  0  0  0
   -2.1568   14.2271   -7.1311 H   0  0  0  0  0  0  0  0  0  0  0  0
   -2.2034   13.5716   -5.4593 H   0  0  0  0  0  0  0  0  0  0  0  0
   -0.6430   10.6154   -7.5924 H   0  0  0  0  0  0  0  0  0  0  0  0
    1.4345   14.3489   -6.0254 H   0  0  0  0  0  0  0  0  0  0  0  0
    0.1671   15.4918   -6.5857 H   0  0  0  0  0  0  0  0  0  0  0  0
    0.1198   14.8498   -4.9087 H   0  0  0  0  0  0  0  0  0  0  0  0
  1  2  2  0  0  0  0
  1  4  1  0  0  0  0
  1 13  1  0  0  0  0
  2  6  1  0  0  0  0
  3  4  2  0  0  0  0
  3  5  1  0  0  0  0
  5  6  2  0  0  0  0
  5  9  1  0  0  0  0
  6  7  1  0  0  0  0
  7  8  1  0  0  0  0
  7 10  2  3  0  0  0
  8  9  2  0  0  0  0
 10 14  1  0  0  0  0
 11 12  1  0  0  0  0
 11 13  1  0  0  0  0
 11 26  2  0  0  0  0
 11 27  2  0  0  0  0
 14 15  1  0  0  0  0
 14 19  1  0  0  0  0
 15 16  2  0  0  0  0
 16 17  1  0  0  0  0
 17 18  1  0  0  0  0
 17 20  2  0  0  0  0
 18 19  2  0  0  0  0
 20 21  1  0  0  0  0
 20 24  1  0  0  0  0
 21 22  1  0  0  0  0
 22 23  1  0  0  0  0
 22 25  1  0  0  0  0
 23 24  2  0  0  0  0
  2 28  1  0  0  0  0
  3 29  1  0  0  0  0
  4 30  1  0  0  0  0
 10 31  1  0  0  0  0
 12 32  1  0  0  0  0
 12 33  1  0  0  0  0
 12 34  1  0  0  0  0
 13 35  1  0  0  0  0
 14 36  1  0  0  0  0
 15 37  1  0  0  0  0
 16 38  1  0  0  0  0
 18 39  1  0  0  0  0
 19 40  1  0  0  0  0
 21 41  1  0  0  0  0
 21 42  1  0  0  0  0
 24 43  1  0  0  0  0
 25 44  1  0  0  0  0
 25 45  1  0  0  0  0
 25 46  1  0  0  0  0
M  END
> <Name>
25

> <IC50[uM]>
0.073

$$$$
25
  -OEChem-05192314333D
 Structure written by MMmdl.
 46 49  0     1  0  0  0  0  0999 V2000
   -6.3861   12.3623  -11.9697 C   0  0  0  0  0  0  0  0  0  0  0  0
   -6.5480   11.8020  -10.7080 C   0  0  0  0  0  0  0  0  0  0  0  0
   -7.6869   10.5726  -13.0325 C   0  0  0  0  0  0  0  0  0  0  0  0
   -6.9529   11.7665  -13.1047 C   0  0  0  0  0  0  0  0  0  0  0  0
   -7.8210   10.0086  -11.7556 C   0  0  3  0  0  0  0  0  0  0  0  0
   -7.2636   10.6177  -10.5919 C   0  0  0  0  0  0  0  0  0  0  0  0
   -7.6330    9.7421   -9.5104 C   0  0  0  0  0  0  0  0  0  0  0  0
   -8.3023    8.7332   -9.9897 N   0  0  0  0  0  0  0  0  0  0  0  0
   -8.4342    8.8678  -11.3051 N   0  0  0  0  0  0  0  0  0  0  0  0
   -7.3415    9.8758   -8.0215 C   0  0  0  0  0  0  0  0  0  0  0  0
   -4.1211   13.8754  -11.2000 S   0  0  0  0  0  0  0  0  0  0  0  0
   -2.9188   12.5402  -11.7675 C   0  0  0  0  0  0  0  0  0  0  0  0
   -5.6382   13.5428  -12.1051 N   0  0  0  0  0  0  0  0  0  0  0  0
   -5.9683   10.4827   -7.7344 C   0  0  0  0  0  0  0  0  0  0  0  0
   -4.8123    9.7690   -8.0490 C   0  0  0  0  0  0  0  0  0  0  0  0
   -3.5592   10.3237   -7.7969 C   0  0  0  0  0  0  0  0  0  0  0  0
   -3.4543   11.5962   -7.2288 C   0  0  0  0  0  0  0  0  0  0  0  0
   -4.6126   12.3085   -6.9084 C   0  0  0  0  0  0  0  0  0  0  0  0
   -5.8671   11.7538   -7.1613 C   0  0  0  0  0  0  0  0  0  0  0  0
   -2.1058   12.1871   -6.9644 C   0  0  0  0  0  0  0  0  0  0  0  0
   -1.7745   13.4406   -6.4637 C   0  0  0  0  0  0  0  0  0  0  0  0
   -0.4394   13.4976   -6.4041 N   0  0  3  0  0  0  0  0  0  0  0  0
    0.1691   12.4146   -6.8015 N   0  0  0  0  0  0  0  0  0  0  0  0
   -0.8034   11.5995   -7.1773 C   0  0  0  0  0  0  0  0  0  0  0  0
    0.3694   14.6144   -5.9538 C   0  0  0  0  0  0  0  0  0  0  0  0
   -3.6497   15.1720  -11.6865 O   0  0  0  0  0  0  0  0  0  0  0  0
   -4.3650   13.6745   -9.7698 O   0  0  0  0  0  0  0  0  0  0  0  0
   -6.1257   12.2782   -9.8355 H   0  0  0  0  0  0  0  0  0  0  0  0
   -8.1227   10.1152  -13.9085 H   0  0  0  0  0  0  0  0  0  0  0  0
   -6.8205   12.2414  -14.0656 H   0  0  0  0  0  0  0  0  0  0  0  0
   -8.7541   10.5711  -11.6042 H   0  0  0  0  0  0  0  0  0  0  0  0
   -8.0330    9.5733   -7.2490 H   0  0  0  0  0  0  0  0  0  0  0  0
   -1.9543   12.6728  -11.2554 H   0  0  0  0  0  0  0  0  0  0  0  0
   -3.3298   11.5493  -11.5240 H   0  0  0  0  0  0  0  0  0  0  0  0
   -2.7704   12.6186  -12.8546 H   0  0  0  0  0  0  0  0  0  0  0  0
   -4.8884    8.7854   -8.4885 H   0  0  0  0  0  0  0  0  0  0  0  0
   -2.6658    9.7683   -8.0414 H   0  0  0  0  0  0  0  0  0  0  0  0
   -4.5366   13.2900   -6.4643 H   0  0  0  0  0  0  0  0  0  0  0  0
   -6.7612   12.3068   -6.9141 H   0  0  0  0  0  0  0  0  0  0  0  0
   -2.1568   14.2271   -7.1311 H   0  0  0  0  0  0  0  0  0  0  0  0
   -2.2034   13.5716   -5.4593 H   0  0  0  0  0  0  0  0  0  0  0  0
    0.7780   12.6141   -7.5692 H   0  0  0  0  0  0  0  0  0  0  0  0
   -0.6430   10.6154   -7.5924 H   0  0  0  0  0  0  0  0  0  0  0  0
    1.4345   14.3488   -6.0253 H   0  0  0  0  0  0  0  0  0  0  0  0
    0.1672   15.4917   -6.5858 H   0  0  0  0  0  0  0  0  0  0  0  0
    0.1197   14.8499   -4.9087 H   0  0  0  0  0  0  0  0  0  0  0  0
  1  2  1  0  0  0  0
  1  4  1  0  0  0  0
  1 13  2  3  0  0  0
  2  6  2  0  0  0  0
  3  4  2  0  0  0  0
  3  5  1  0  0  0  0
  5  6  1  0  0  0  0
  5  9  1  0  0  0  0
  6  7  1  0  0  0  0
  7  8  1  0  0  0  0
  7 10  2  3  0  0  0
  8  9  2  0  0  0  0
 10 14  1  0  0  0  0
 11 12  1  0  0  0  0
 11 13  1  0  0  0  0
 11 26  2  0  0  0  0
 11 27  2  0  0  0  0
 14 15  2  0  0  0  0
 14 19  1  0  0  0  0
 15 16  1  0  0  0  0
 16 17  2  0  0  0  0
 17 18  1  0  0  0  0
 17 20  1  0  0  0  0
 18 19  2  0  0  0  0
 20 21  1  0  0  0  0
 20 24  2  0  0  0  0
 21 22  1  0  0  0  0
 22 23  1  0  0  0  0
 22 25  1  0  0  0  0
 23 24  1  0  0  0  0
  2 28  1  0  0  0  0
  3 29  1  0  0  0  0
  4 30  1  0  0  0  0
  5 31  1  0  0  0  0
 10 32  1  0  0  0  0
 12 33  1  0  0  0  0
 12 34  1  0  0  0  0
 12 35  1  0  0  0  0
 15 36  1  0  0  0  0
 16 37  1  0  0  0  0
 18 38  1  0  0  0  0
 19 39  1  0  0  0  0
 21 40  1  0  0  0  0
 21 41  1  0  0  0  0
 23 42  1  0  0  0  0
 24 43  1  0  0  0  0
 25 44  1  0  0  0  0
 25 45  1  0  0  0  0
 25 46  1  0  0  0  0
M  END
> <Name>
25

> <IC50[uM]>
0.073

$$$$
25
  -OEChem-05192314333D
 Structure written by MMmdl.
 46 49  0     1  0  0  0  0  0999 V2000
   -6.3861   12.3623  -11.9697 C   0  0  0  0  0  0  0  0  0  0  0  0
   -6.5480   11.8020  -10.7080 C   0  0  0  0  0  0  0  0  0  0  0  0
   -7.6869   10.5726  -13.0325 C   0  0  0  0  0  0  0  0  0  0  0  0
   -6.9529   11.7665  -13.1047 C   0  0  0  0  0  0  0  0  0  0  0  0
   -7.8210   10.0086  -11.7556 C   0  0  0  0  0  0  0  0  0  0  0  0
   -7.2636   10.6177  -10.5919 C   0  0  0  0  0  0  0  0  0  0  0  0
   -7.6330    9.7421   -9.5104 C   0  0  0  0  0  0  0  0  0  0  0  0
   -8.3023    8.7332   -9.9897 N   0  0  0  0  0  0  0  0  0  0  0  0
   -8.4342    8.8678  -11.3051 N   0  0  0  0  0  0  0  0  0  0  0  0
   -7.3415    9.8758   -8.0215 C   0  0  0  0  0  0  0  0  0  0  0  0
   -4.1211   13.8754  -11.2000 S   0  0  0  0  0  0  0  0  0  0  0  0
   -2.9188   12.5402  -11.7675 C   0  0  0  0  0  0  0  0  0  0  0  0
   -5.6382   13.5428  -12.1051 N   0  0  0  0  0  0  0  0  0  0  0  0
   -5.9683   10.4827   -7.7344 C   0  0  0  0  0  0  0  0  0  0  0  0
   -4.8123    9.7690   -8.0490 C   0  0  0  0  0  0  0  0  0  0  0  0
   -3.5592   10.3237   -7.7969 C   0  0  0  0  0  0  0  0  0  0  0  0
   -3.4543   11.5962   -7.2288 C   0  0  0  0  0  0  0  0  0  0  0  0
   -4.6126   12.3085   -6.9084 C   0  0  0  0  0  0  0  0  0  0  0  0
   -5.8671   11.7538   -7.1613 C   0  0  0  0  0  0  0  0  0  0  0  0
   -2.1058   12.1871   -6.9644 C   0  0  0  0  0  0  0  0  0  0  0  0
   -1.7745   13.4406   -6.4637 C   0  0  0  0  0  0  0  0  0  0  0  0
   -0.4394   13.4976   -6.4041 N   0  0  3  0  0  0  0  0  0  0  0  0
    0.1691   12.4146   -6.8015 N   0  0  0  0  0  0  0  0  0  0  0  0
   -0.8034   11.5995   -7.1773 C   0  0  0  0  0  0  0  0  0  0  0  0
    0.3694   14.6144   -5.9538 C   0  0  0  0  0  0  0  0  0  0  0  0
   -3.6497   15.1720  -11.6865 O   0  0  0  0  0  0  0  0  0  0  0  0
   -4.3650   13.6745   -9.7698 O   0  0  0  0  0  0  0  0  0  0  0  0
   -6.1257   12.2782   -9.8355 H   0  0  0  0  0  0  0  0  0  0  0  0
   -8.1227   10.1152  -13.9085 H   0  0  0  0  0  0  0  0  0  0  0  0
   -7.6287   12.5169  -13.5407 H   0  0  0  0  0  0  0  0  0  0  0  0
   -6.1214   11.5746  -13.7988 H   0  0  0  0  0  0  0  0  0  0  0  0
   -8.0330    9.5733   -7.2490 H   0  0  0  0  0  0  0  0  0  0  0  0
   -1.9543   12.6728  -11.2554 H   0  0  0  0  0  0  0  0  0  0  0  0
   -3.3298   11.5493  -11.5240 H   0  0  0  0  0  0  0  0  0  0  0  0
   -2.7704   12.6186  -12.8546 H   0  0  0  0  0  0  0  0  0  0  0  0
   -4.8884    8.7854   -8.4885 H   0  0  0  0  0  0  0  0  0  0  0  0
   -2.6658    9.7683   -8.0414 H   0  0  0  0  0  0  0  0  0  0  0  0
   -4.5366   13.2900   -6.4643 H   0  0  0  0  0  0  0  0  0  0  0  0
   -6.7612   12.3068   -6.9141 H   0  0  0  0  0  0  0  0  0  0  0  0
   -2.1568   14.2271   -7.1311 H   0  0  0  0  0  0  0  0  0  0  0  0
   -2.2034   13.5716   -5.4593 H   0  0  0  0  0  0  0  0  0  0  0  0
    0.7780   12.6141   -7.5692 H   0  0  0  0  0  0  0  0  0  0  0  0
   -0.6430   10.6154   -7.5924 H   0  0  0  0  0  0  0  0  0  0  0  0
    1.4345   14.3488   -6.0253 H   0  0  0  0  0  0  0  0  0  0  0  0
    0.1672   15.4917   -6.5858 H   0  0  0  0  0  0  0  0  0  0  0  0
    0.1197   14.8499   -4.9087 H   0  0  0  0  0  0  0  0  0  0  0  0
  1  2  1  0  0  0  0
  1  4  1  0  0  0  0
  1 13  2  3  0  0  0
  2  6  2  0  0  0  0
  3  4  1  0  0  0  0
  3  5  2  0  0  0  0
  5  6  1  0  0  0  0
  5  9  1  0  0  0  0
  6  7  1  0  0  0  0
  7  8  1  0  0  0  0
  7 10  2  3  0  0  0
  8  9  2  0  0  0  0
 10 14  1  0  0  0  0
 11 12  1  0  0  0  0
 11 13  1  0  0  0  0
 11 26  2  0  0  0  0
 11 27  2  0  0  0  0
 14 15  2  0  0  0  0
 14 19  1  0  0  0  0
 15 16  1  0  0  0  0
 16 17  2  0  0  0  0
 17 18  1  0  0  0  0
 17 20  1  0  0  0  0
 18 19  2  0  0  0  0
 20 21  1  0  0  0  0
 20 24  2  0  0  0  0
 21 22  1  0  0  0  0
 22 23  1  0  0  0  0
 22 25  1  0  0  0  0
 23 24  1  0  0  0  0
  2 28  1  0  0  0  0
  3 29  1  0  0  0  0
  4 30  1  0  0  0  0
  4 31  1  0  0  0  0
 10 32  1  0  0  0  0
 12 33  1  0  0  0  0
 12 34  1  0  0  0  0
 12 35  1  0  0  0  0
 15 36  1  0  0  0  0
 16 37  1  0  0  0  0
 18 38  1  0  0  0  0
 19 39  1  0  0  0  0
 21 40  1  0  0  0  0
 21 41  1  0  0  0  0
 23 42  1  0  0  0  0
 24 43  1  0  0  0  0
 25 44  1  0  0  0  0
 25 45  1  0  0  0  0
 25 46  1  0  0  0  0
M  END
> <Name>
25

> <IC50[uM]>
0.073

$$$$
25
  -OEChem-05192314333D
 Structure written by MMmdl.
 46 49  0     1  0  0  0  0  0999 V2000
   -6.3861   12.3623  -11.9697 C   0  0  0  0  0  0  0  0  0  0  0  0
   -6.5480   11.8020  -10.7080 C   0  0  0  0  0  0  0  0  0  0  0  0
   -7.6869   10.5726  -13.0325 C   0  0  0  0  0  0  0  0  0  0  0  0
   -6.9529   11.7665  -13.1047 C   0  0  0  0  0  0  0  0  0  0  0  0
   -7.8210   10.0086  -11.7556 C   0  0  0  0  0  0  0  0  0  0  0  0
   -7.2636   10.6177  -10.5919 C   0  0  0  0  0  0  0  0  0  0  0  0
   -7.6330    9.7421   -9.5104 C   0  0  0  0  0  0  0  0  0  0  0  0
   -8.3023    8.7332   -9.9897 N   0  0  0  0  0  0  0  0  0  0  0  0
   -8.4342    8.8678  -11.3051 N   0  0  0  0  0  0  0  0  0  0  0  0
   -7.3415    9.8758   -8.0215 C   0  0  0  0  0  0  0  0  0  0  0  0
   -4.1211   13.8754  -11.2000 S   0  0  0  0  0  0  0  0  0  0  0  0
   -2.9188   12.5402  -11.7675 C   0  0  0  0  0  0  0  0  0  0  0  0
   -5.6382   13.5428  -12.1051 N   0  0  0  0  0  0  0  0  0  0  0  0
   -5.9683   10.4827   -7.7344 C   0  0  0  0  0  0  0  0  0  0  0  0
   -4.8123    9.7690   -8.0490 C   0  0  0  0  0  0  0  0  0  0  0  0
   -3.5592   10.3237   -7.7969 C   0  0  0  0  0  0  0  0  0  0  0  0
   -3.4543   11.5962   -7.2288 C   0  0  0  0  0  0  0  0  0  0  0  0
   -4.6126   12.3085   -6.9084 C   0  0  0  0  0  0  0  0  0  0  0  0
   -5.8671   11.7538   -7.1613 C   0  0  0  0  0  0  0  0  0  0  0  0
   -2.1058   12.1871   -6.9644 C   0  0  0  0  0  0  0  0  0  0  0  0
   -1.7745   13.4406   -6.4637 C   0  0  0  0  0  0  0  0  0  0  0  0
   -0.4394   13.4976   -6.4041 N   0  0  3  0  0  0  0  0  0  0  0  0
    0.1691   12.4146   -6.8015 N   0  0  0  0  0  0  0  0  0  0  0  0
   -0.8034   11.5995   -7.1773 C   0  0  0  0  0  0  0  0  0  0  0  0
    0.3694   14.6144   -5.9538 C   0  0  0  0  0  0  0  0  0  0  0  0
   -3.6497   15.1720  -11.6865 O   0  0  0  0  0  0  0  0  0  0  0  0
   -4.3650   13.6745   -9.7698 O   0  0  0  0  0  0  0  0  0  0  0  0
   -6.1257   12.2782   -9.8355 H   0  0  0  0  0  0  0  0  0  0  0  0
   -8.1227   10.1152  -13.9085 H   0  0  0  0  0  0  0  0  0  0  0  0
   -6.8205   12.2414  -14.0656 H   0  0  0  0  0  0  0  0  0  0  0  0
   -8.0330    9.5733   -7.2490 H   0  0  0  0  0  0  0  0  0  0  0  0
   -1.9543   12.6728  -11.2554 H   0  0  0  0  0  0  0  0  0  0  0  0
   -3.3298   11.5493  -11.5240 H   0  0  0  0  0  0  0  0  0  0  0  0
   -2.7704   12.6186  -12.8546 H   0  0  0  0  0  0  0  0  0  0  0  0
   -5.3954   13.6013  -13.0734 H   0  0  0  0  0  0  0  0  0  0  0  0
   -4.8884    8.7854   -8.4885 H   0  0  0  0  0  0  0  0  0  0  0  0
   -3.0369    9.6312   -7.1205 H   0  0  0  0  0  0  0  0  0  0  0  0
   -3.0308   10.3630   -8.7609 H   0  0  0  0  0  0  0  0  0  0  0  0
   -4.5366   13.2900   -6.4643 H   0  0  0  0  0  0  0  0  0  0  0  0
   -6.7612   12.3068   -6.9141 H   0  0  0  0  0  0  0  0  0  0  0  0
   -2.1568   14.2271   -7.1311 H   0  0  0  0  0  0  0  0  0  0  0  0
   -2.2034   13.5716   -5.4593 H   0  0  0  0  0  0  0  0  0  0  0  0
   -0.6430   10.6154   -7.5924 H   0  0  0  0  0  0  0  0  0  0  0  0
    1.4345   14.3489   -6.0254 H   0  0  0  0  0  0  0  0  0  0  0  0
    0.1671   15.4918   -6.5857 H   0  0  0  0  0  0  0  0  0  0  0  0
    0.1198   14.8498   -4.9087 H   0  0  0  0  0  0  0  0  0  0  0  0
  1  2  2  0  0  0  0
  1  4  1  0  0  0  0
  1 13  1  0  0  0  0
  2  6  1  0  0  0  0
  3  4  2  0  0  0  0
  3  5  1  0  0  0  0
  5  6  2  0  0  0  0
  5  9  1  0  0  0  0
  6  7  1  0  0  0  0
  7  8  1  0  0  0  0
  7 10  2  3  0  0  0
  8  9  2  0  0  0  0
 10 14  1  0  0  0  0
 11 12  1  0  0  0  0
 11 13  1  0  0  0  0
 11 26  2  0  0  0  0
 11 27  2  0  0  0  0
 14 15  2  0  0  0  0
 14 19  1  0  0  0  0
 15 16  1  0  0  0  0
 16 17  1  0  0  0  0
 17 18  1  0  0  0  0
 17 20  2  0  0  0  0
 18 19  2  0  0  0  0
 20 21  1  0  0  0  0
 20 24  1  0  0  0  0
 21 22  1  0  0  0  0
 22 23  1  0  0  0  0
 22 25  1  0  0  0  0
 23 24  2  0  0  0  0
  2 28  1  0  0  0  0
  3 29  1  0  0  0  0
  4 30  1  0  0  0  0
 10 31  1  0  0  0  0
 12 32  1  0  0  0  0
 12 33  1  0  0  0  0
 12 34  1  0  0  0  0
 13 35  1  0  0  0  0
 15 36  1  0  0  0  0
 16 37  1  0  0  0  0
 16 38  1  0  0  0  0
 18 39  1  0  0  0  0
 19 40  1  0  0  0  0
 21 41  1  0  0  0  0
 21 42  1  0  0  0  0
 24 43  1  0  0  0  0
 25 44  1  0  0  0  0
 25 45  1  0  0  0  0
 25 46  1  0  0  0  0
M  END
> <Name>
25

> <IC50[uM]>
0.073

$$$$
25
  -OEChem-05192314333D
 Structure written by MMmdl.
 46 49  0     1  0  0  0  0  0999 V2000
   -6.3861   12.3623  -11.9697 C   0  0  0  0  0  0  0  0  0  0  0  0
   -6.5480   11.8020  -10.7080 C   0  0  0  0  0  0  0  0  0  0  0  0
   -7.6869   10.5726  -13.0325 C   0  0  0  0  0  0  0  0  0  0  0  0
   -6.9529   11.7665  -13.1047 C   0  0  0  0  0  0  0  0  0  0  0  0
   -7.8210   10.0086  -11.7556 C   0  0  0  0  0  0  0  0  0  0  0  0
   -7.2636   10.6177  -10.5919 C   0  0  0  0  0  0  0  0  0  0  0  0
   -7.6330    9.7421   -9.5104 C   0  0  0  0  0  0  0  0  0  0  0  0
   -8.3023    8.7332   -9.9897 N   0  0  0  0  0  0  0  0  0  0  0  0
   -8.4342    8.8678  -11.3051 N   0  0  0  0  0  0  0  0  0  0  0  0
   -7.3415    9.8758   -8.0215 C   0  0  0  0  0  0  0  0  0  0  0  0
   -4.1211   13.8754  -11.2000 S   0  0  0  0  0  0  0  0  0  0  0  0
   -2.9188   12.5402  -11.7675 C   0  0  0  0  0  0  0  0  0  0  0  0
   -5.6382   13.5428  -12.1051 N   0  0  0  0  0  0  0  0  0  0  0  0
   -5.9683   10.4827   -7.7344 C   0  0  0  0  0  0  0  0  0  0  0  0
   -4.8123    9.7690   -8.0490 C   0  0  0  0  0  0  0  0  0  0  0  0
   -3.5592   10.3237   -7.7969 C   0  0  0  0  0  0  0  0  0  0  0  0
   -3.4543   11.5962   -7.2288 C   0  0  0  0  0  0  0  0  0  0  0  0
   -4.6126   12.3085   -6.9084 C   0  0  0  0  0  0  0  0  0  0  0  0
   -5.8671   11.7538   -7.1613 C   0  0  0  0  0  0  0  0  0  0  0  0
   -2.1058   12.1871   -6.9644 C   0  0  0  0  0  0  0  0  0  0  0  0
   -1.7745   13.4406   -6.4637 C   0  0  0  0  0  0  0  0  0  0  0  0
   -0.4394   13.4976   -6.4041 N   0  0  3  0  0  0  0  0  0  0  0  0
    0.1691   12.4146   -6.8015 N   0  0  0  0  0  0  0  0  0  0  0  0
   -0.8034   11.5995   -7.1773 C   0  0  0  0  0  0  0  0  0  0  0  0
    0.3694   14.6144   -5.9538 C   0  0  0  0  0  0  0  0  0  0  0  0
   -3.6497   15.1720  -11.6865 O   0  0  0  0  0  0  0  0  0  0  0  0
   -4.3650   13.6745   -9.7698 O   0  0  0  0  0  0  0  0  0  0  0  0
   -5.5417   11.6132  -10.3059 H   0  0  0  0  0  0  0  0  0  0  0  0
   -7.0576   12.5509  -10.0840 H   0  0  0  0  0  0  0  0  0  0  0  0
   -8.1227   10.1152  -13.9085 H   0  0  0  0  0  0  0  0  0  0  0  0
   -6.8205   12.2414  -14.0656 H   0  0  0  0  0  0  0  0  0  0  0  0
   -8.0330    9.5733   -7.2490 H   0  0  0  0  0  0  0  0  0  0  0  0
   -1.9543   12.6728  -11.2554 H   0  0  0  0  0  0  0  0  0  0  0  0
   -3.3298   11.5493  -11.5240 H   0  0  0  0  0  0  0  0  0  0  0  0
   -2.7704   12.6186  -12.8546 H   0  0  0  0  0  0  0  0  0  0  0  0
   -4.8884    8.7854   -8.4885 H   0  0  0  0  0  0  0  0  0  0  0  0
   -2.6658    9.7683   -8.0414 H   0  0  0  0  0  0  0  0  0  0  0  0
   -4.5366   13.2900   -6.4643 H   0  0  0  0  0  0  0  0  0  0  0  0
   -6.7612   12.3068   -6.9141 H   0  0  0  0  0  0  0  0  0  0  0  0
   -2.1568   14.2271   -7.1311 H   0  0  0  0  0  0  0  0  0  0  0  0
   -2.2034   13.5716   -5.4593 H   0  0  0  0  0  0  0  0  0  0  0  0
    0.7780   12.6141   -7.5692 H   0  0  0  0  0  0  0  0  0  0  0  0
   -0.6430   10.6154   -7.5924 H   0  0  0  0  0  0  0  0  0  0  0  0
    1.4345   14.3488   -6.0253 H   0  0  0  0  0  0  0  0  0  0  0  0
    0.1672   15.4917   -6.5858 H   0  0  0  0  0  0  0  0  0  0  0  0
    0.1197   14.8499   -4.9087 H   0  0  0  0  0  0  0  0  0  0  0  0
  1  2  1  0  0  0  0
  1  4  1  0  0  0  0
  1 13  2  3  0  0  0
  2  6  1  0  0  0  0
  3  4  2  0  0  0  0
  3  5  1  0  0  0  0
  5  6  2  0  0  0  0
  5  9  1  0  0  0  0
  6  7  1  0  0  0  0
  7  8  1  0  0  0  0
  7 10  2  3  0  0  0
  8  9  2  0  0  0  0
 10 14  1  0  0  0  0
 11 12  1  0  0  0  0
 11 13  1  0  0  0  0
 11 26  2  0  0  0  0
 11 27  2  0  0  0  0
 14 15  2  0  0  0  0
 14 19  1  0  0  0  0
 15 16  1  0  0  0  0
 16 17  2  0  0  0  0
 17 18  1  0  0  0  0
 17 20  1  0  0  0  0
 18 19  2  0  0  0  0
 20 21  1  0  0  0  0
 20 24  2  0  0  0  0
 21 22  1  0  0  0  0
 22 23  1  0  0  0  0
 22 25  1  0  0  0  0
 23 24  1  0  0  0  0
  2 28  1  0  0  0  0
  2 29  1  0  0  0  0
  3 30  1  0  0  0  0
  4 31  1  0  0  0  0
 10 32  1  0  0  0  0
 12 33  1  0  0  0  0
 12 34  1  0  0  0  0
 12 35  1  0  0  0  0
 15 36  1  0  0  0  0
 16 37  1  0  0  0  0
 18 38  1  0  0  0  0
 19 39  1  0  0  0  0
 21 40  1  0  0  0  0
 21 41  1  0  0  0  0
 23 42  1  0  0  0  0
 24 43  1  0  0  0  0
 25 44  1  0  0  0  0
 25 45  1  0  0  0  0
 25 46  1  0  0  0  0
M  END
> <Name>
25

> <IC50[uM]>
0.073

$$$$
25
  -OEChem-05192314333D
 Structure written by MMmdl.
 46 49  0     1  0  0  0  0  0999 V2000
   -6.3861   12.3623  -11.9697 C   0  0  0  0  0  0  0  0  0  0  0  0
   -6.5480   11.8020  -10.7080 C   0  0  0  0  0  0  0  0  0  0  0  0
   -7.6869   10.5726  -13.0325 C   0  0  0  0  0  0  0  0  0  0  0  0
   -6.9529   11.7665  -13.1047 C   0  0  0  0  0  0  0  0  0  0  0  0
   -7.8210   10.0086  -11.7556 C   0  0  0  0  0  0  0  0  0  0  0  0
   -7.2636   10.6177  -10.5919 C   0  0  0  0  0  0  0  0  0  0  0  0
   -7.6330    9.7421   -9.5104 C   0  0  0  0  0  0  0  0  0  0  0  0
   -8.3023    8.7332   -9.9897 N   0  0  0  0  0  0  0  0  0  0  0  0
   -8.4342    8.8678  -11.3051 N   0  0  0  0  0  0  0  0  0  0  0  0
   -7.3415    9.8758   -8.0215 C   0  0  0  0  0  0  0  0  0  0  0  0
   -4.1211   13.8754  -11.2000 S   0  0  0  0  0  0  0  0  0  0  0  0
   -2.9188   12.5402  -11.7675 C   0  0  0  0  0  0  0  0  0  0  0  0
   -5.6382   13.5428  -12.1051 N   0  0  0  0  0  0  0  0  0  0  0  0
   -5.9683   10.4827   -7.7344 C   0  0  0  0  0  0  0  0  0  0  0  0
   -4.8123    9.7690   -8.0490 C   0  0  0  0  0  0  0  0  0  0  0  0
   -3.5592   10.3237   -7.7969 C   0  0  0  0  0  0  0  0  0  0  0  0
   -3.4543   11.5962   -7.2288 C   0  0  0  0  0  0  0  0  0  0  0  0
   -4.6126   12.3085   -6.9084 C   0  0  0  0  0  0  0  0  0  0  0  0
   -5.8671   11.7538   -7.1613 C   0  0  0  0  0  0  0  0  0  0  0  0
   -2.1058   12.1871   -6.9644 C   0  0  0  0  0  0  0  0  0  0  0  0
   -1.7745   13.4406   -6.4637 C   0  0  0  0  0  0  0  0  0  0  0  0
   -0.4394   13.4976   -6.4041 N   0  0  3  0  0  0  0  0  0  0  0  0
    0.1691   12.4146   -6.8015 N   0  0  0  0  0  0  0  0  0  0  0  0
   -0.8034   11.5995   -7.1773 C   0  0  0  0  0  0  0  0  0  0  0  0
    0.3694   14.6144   -5.9538 C   0  0  0  0  0  0  0  0  0  0  0  0
   -3.6497   15.1720  -11.6865 O   0  0  0  0  0  0  0  0  0  0  0  0
   -4.3650   13.6745   -9.7698 O   0  0  0  0  0  0  0  0  0  0  0  0
   -6.1257   12.2782   -9.8355 H   0  0  0  0  0  0  0  0  0  0  0  0
   -8.6969   10.7748  -13.4186 H   0  0  0  0  0  0  0  0  0  0  0  0
   -7.1895    9.8325  -13.6766 H   0  0  0  0  0  0  0  0  0  0  0  0
   -7.6287   12.5169  -13.5407 H   0  0  0  0  0  0  0  0  0  0  0  0
   -6.1214   11.5746  -13.7988 H   0  0  0  0  0  0  0  0  0  0  0  0
   -8.0330    9.5733   -7.2490 H   0  0  0  0  0  0  0  0  0  0  0  0
   -1.9543   12.6728  -11.2554 H   0  0  0  0  0  0  0  0  0  0  0  0
   -3.3298   11.5493  -11.5240 H   0  0  0  0  0  0  0  0  0  0  0  0
   -2.7704   12.6186  -12.8546 H   0  0  0  0  0  0  0  0  0  0  0  0
   -4.8884    8.7854   -8.4885 H   0  0  0  0  0  0  0  0  0  0  0  0
   -2.6658    9.7683   -8.0414 H   0  0  0  0  0  0  0  0  0  0  0  0
   -4.5366   13.2900   -6.4643 H   0  0  0  0  0  0  0  0  0  0  0  0
   -6.7612   12.3068   -6.9141 H   0  0  0  0  0  0  0  0  0  0  0  0
   -2.1568   14.2271   -7.1311 H   0  0  0  0  0  0  0  0  0  0  0  0
   -2.2034   13.5716   -5.4593 H   0  0  0  0  0  0  0  0  0  0  0  0
   -0.6430   10.6154   -7.5924 H   0  0  0  0  0  0  0  0  0  0  0  0
    1.4345   14.3489   -6.0254 H   0  0  0  0  0  0  0  0  0  0  0  0
    0.1671   15.4918   -6.5857 H   0  0  0  0  0  0  0  0  0  0  0  0
    0.1198   14.8498   -4.9087 H   0  0  0  0  0  0  0  0  0  0  0  0
  1  2  1  0  0  0  0
  1  4  1  0  0  0  0
  1 13  2  3  0  0  0
  2  6  2  0  0  0  0
  3  4  1  0  0  0  0
  3  5  1  0  0  0  0
  5  6  1  0  0  0  0
  5  9  2  0  0  0  0
  6  7  1  0  0  0  0
  7  8  2  0  0  0  0
  7 10  1  0  0  0  0
  8  9  1  0  0  0  0
 10 14  2  0  0  0  0
 11 12  1  0  0  0  0
 11 13  1  0  0  0  0
 11 26  2  0  0  0  0
 11 27  2  0  0  0  0
 14 15  1  0  0  0  0
 14 19  1  0  0  0  0
 15 16  2  0  0  0  0
 16 17  1  0  0  0  0
 17 18  1  0  0  0  0
 17 20  2  0  0  0  0
 18 19  2  0  0  0  0
 20 21  1  0  0  0  0
 20 24  1  0  0  0  0
 21 22  1  0  0  0  0
 22 23  1  0  0  0  0
 22 25  1  0  0  0  0
 23 24  2  0  0  0  0
  2 28  1  0  0  0  0
  3 29  1  0  0  0  0
  3 30  1  0  0  0  0
  4 31  1  0  0  0  0
  4 32  1  0  0  0  0
 10 33  1  0  0  0  0
 12 34  1  0  0  0  0
 12 35  1  0  0  0  0
 12 36  1  0  0  0  0
 15 37  1  0  0  0  0
 16 38  1  0  0  0  0
 18 39  1  0  0  0  0
 19 40  1  0  0  0  0
 21 41  1  0  0  0  0
 21 42  1  0  0  0  0
 24 43  1  0  0  0  0
 25 44  1  0  0  0  0
 25 45  1  0  0  0  0
 25 46  1  0  0  0  0
M  END
> <Name>
25

> <IC50[uM]>
0.073

$$$$
25
  -OEChem-05192314333D
 Structure written by MMmdl.
 46 49  0     1  0  0  0  0  0999 V2000
   -6.3861   12.3623  -11.9697 C   0  0  0  0  0  0  0  0  0  0  0  0
   -6.5480   11.8020  -10.7080 C   0  0  0  0  0  0  0  0  0  0  0  0
   -7.6869   10.5726  -13.0325 C   0  0  0  0  0  0  0  0  0  0  0  0
   -6.9529   11.7665  -13.1047 C   0  0  0  0  0  0  0  0  0  0  0  0
   -7.8210   10.0086  -11.7556 C   0  0  0  0  0  0  0  0  0  0  0  0
   -7.2636   10.6177  -10.5919 C   0  0  3  0  0  0  0  0  0  0  0  0
   -7.6330    9.7421   -9.5104 C   0  0  0  0  0  0  0  0  0  0  0  0
   -8.3023    8.7332   -9.9897 N   0  0  0  0  0  0  0  0  0  0  0  0
   -8.4342    8.8678  -11.3051 N   0  0  0  0  0  0  0  0  0  0  0  0
   -7.3415    9.8758   -8.0215 C   0  0  0  0  0  0  0  0  0  0  0  0
   -4.1211   13.8754  -11.2000 S   0  0  0  0  0  0  0  0  0  0  0  0
   -2.9188   12.5402  -11.7675 C   0  0  0  0  0  0  0  0  0  0  0  0
   -5.6382   13.5428  -12.1051 N   0  0  0  0  0  0  0  0  0  0  0  0
   -5.9683   10.4827   -7.7344 C   0  0  0  0  0  0  0  0  0  0  0  0
   -4.8123    9.7690   -8.0490 C   0  0  0  0  0  0  0  0  0  0  0  0
   -3.5592   10.3237   -7.7969 C   0  0  0  0  0  0  0  0  0  0  0  0
   -3.4543   11.5962   -7.2288 C   0  0  0  0  0  0  0  0  0  0  0  0
   -4.6126   12.3085   -6.9084 C   0  0  0  0  0  0  0  0  0  0  0  0
   -5.8671   11.7538   -7.1613 C   0  0  0  0  0  0  0  0  0  0  0  0
   -2.1058   12.1871   -6.9644 C   0  0  0  0  0  0  0  0  0  0  0  0
   -1.7745   13.4406   -6.4637 C   0  0  0  0  0  0  0  0  0  0  0  0
   -0.4394   13.4976   -6.4041 N   0  0  3  0  0  0  0  0  0  0  0  0
    0.1691   12.4146   -6.8015 N   0  0  0  0  0  0  0  0  0  0  0  0
   -0.8034   11.5995   -7.1773 C   0  0  0  0  0  0  0  0  0  0  0  0
    0.3694   14.6144   -5.9538 C   0  0  0  0  0  0  0  0  0  0  0  0
   -3.6497   15.1720  -11.6865 O   0  0  0  0  0  0  0  0  0  0  0  0
   -4.3650   13.6745   -9.7698 O   0  0  0  0  0  0  0  0  0  0  0  0
   -5.5417   11.6132  -10.3059 H   0  0  0  0  0  0  0  0  0  0  0  0
   -7.0576   12.5509  -10.0840 H   0  0  0  0  0  0  0  0  0  0  0  0
   -8.1227   10.1152  -13.9085 H   0  0  0  0  0  0  0  0  0  0  0  0
   -6.8205   12.2414  -14.0656 H   0  0  0  0  0  0  0  0  0  0  0  0
   -8.1911   11.1909  -10.4462 H   0  0  0  0  0  0  0  0  0  0  0  0
   -8.0330    9.5733   -7.2490 H   0  0  0  0  0  0  0  0  0  0  0  0
   -1.9543   12.6728  -11.2554 H   0  0  0  0  0  0  0  0  0  0  0  0
   -3.3298   11.5493  -11.5240 H   0  0  0  0  0  0  0  0  0  0  0  0
   -2.7704   12.6186  -12.8546 H   0  0  0  0  0  0  0  0  0  0  0  0
   -4.8884    8.7854   -8.4885 H   0  0  0  0  0  0  0  0  0  0  0  0
   -2.6658    9.7683   -8.0414 H   0  0  0  0  0  0  0  0  0  0  0  0
   -4.5366   13.2900   -6.4643 H   0  0  0  0  0  0  0  0  0  0  0  0
   -6.7612   12.3068   -6.9141 H   0  0  0  0  0  0  0  0  0  0  0  0
   -2.1568   14.2271   -7.1311 H   0  0  0  0  0  0  0  0  0  0  0  0
   -2.2034   13.5716   -5.4593 H   0  0  0  0  0  0  0  0  0  0  0  0
   -0.6430   10.6154   -7.5924 H   0  0  0  0  0  0  0  0  0  0  0  0
    1.4345   14.3489   -6.0254 H   0  0  0  0  0  0  0  0  0  0  0  0
    0.1671   15.4918   -6.5857 H   0  0  0  0  0  0  0  0  0  0  0  0
    0.1198   14.8498   -4.9087 H   0  0  0  0  0  0  0  0  0  0  0  0
  1  2  1  0  0  0  0
  1  4  1  0  0  0  0
  1 13  2  3  0  0  0
  2  6  1  0  0  0  0
  3  4  2  0  0  0  0
  3  5  1  0  0  0  0
  5  6  1  0  0  0  0
  5  9  2  0  0  0  0
  6  7  1  0  0  0  0
  7  8  2  0  0  0  0
  7 10  1  0  0  0  0
  8  9  1  0  0  0  0
 10 14  2  0  0  0  0
 11 12  1  0  0  0  0
 11 13  1  0  0  0  0
 11 26  2  0  0  0  0
 11 27  2  0  0  0  0
 14 15  1  0  0  0  0
 14 19  1  0  0  0  0
 15 16  2  0  0  0  0
 16 17  1  0  0  0  0
 17 18  1  0  0  0  0
 17 20  2  0  0  0  0
 18 19  2  0  0  0  0
 20 21  1  0  0  0  0
 20 24  1  0  0  0  0
 21 22  1  0  0  0  0
 22 23  1  0  0  0  0
 22 25  1  0  0  0  0
 23 24  2  0  0  0  0
  2 28  1  0  0  0  0
  2 29  1  0  0  0  0
  3 30  1  0  0  0  0
  4 31  1  0  0  0  0
  6 32  1  0  0  0  0
 10 33  1  0  0  0  0
 12 34  1  0  0  0  0
 12 35  1  0  0  0  0
 12 36  1  0  0  0  0
 15 37  1  0  0  0  0
 16 38  1  0  0  0  0
 18 39  1  0  0  0  0
 19 40  1  0  0  0  0
 21 41  1  0  0  0  0
 21 42  1  0  0  0  0
 24 43  1  0  0  0  0
 25 44  1  0  0  0  0
 25 45  1  0  0  0  0
 25 46  1  0  0  0  0
M  END
> <Name>
25

> <IC50[uM]>
0.073

$$$$
25
  -OEChem-05192314333D
 Structure written by MMmdl.
 46 49  0     1  0  0  0  0  0999 V2000
   -6.3861   12.3623  -11.9697 C   0  0  0  0  0  0  0  0  0  0  0  0
   -6.5480   11.8020  -10.7080 C   0  0  0  0  0  0  0  0  0  0  0  0
   -7.6869   10.5726  -13.0325 C   0  0  0  0  0  0  0  0  0  0  0  0
   -6.9529   11.7665  -13.1047 C   0  0  0  0  0  0  0  0  0  0  0  0
   -7.8210   10.0086  -11.7556 C   0  0  3  0  0  0  0  0  0  0  0  0
   -7.2636   10.6177  -10.5919 C   0  0  0  0  0  0  0  0  0  0  0  0
   -7.6330    9.7421   -9.5104 C   0  0  3  0  0  0  0  0  0  0  0  0
   -8.3023    8.7332   -9.9897 N   0  0  0  0  0  0  0  0  0  0  0  0
   -8.4342    8.8678  -11.3051 N   0  0  0  0  0  0  0  0  0  0  0  0
   -7.3415    9.8758   -8.0215 C   0  0  0  0  0  0  0  0  0  0  0  0
   -4.1211   13.8754  -11.2000 S   0  0  0  0  0  0  0  0  0  0  0  0
   -2.9188   12.5402  -11.7675 C   0  0  0  0  0  0  0  0  0  0  0  0
   -5.6382   13.5428  -12.1051 N   0  0  0  0  0  0  0  0  0  0  0  0
   -5.9683   10.4827   -7.7344 C   0  0  0  0  0  0  0  0  0  0  0  0
   -4.8123    9.7690   -8.0490 C   0  0  0  0  0  0  0  0  0  0  0  0
   -3.5592   10.3237   -7.7969 C   0  0  0  0  0  0  0  0  0  0  0  0
   -3.4543   11.5962   -7.2288 C   0  0  0  0  0  0  0  0  0  0  0  0
   -4.6126   12.3085   -6.9084 C   0  0  0  0  0  0  0  0  0  0  0  0
   -5.8671   11.7538   -7.1613 C   0  0  0  0  0  0  0  0  0  0  0  0
   -2.1058   12.1871   -6.9644 C   0  0  0  0  0  0  0  0  0  0  0  0
   -1.7745   13.4406   -6.4637 C   0  0  0  0  0  0  0  0  0  0  0  0
   -0.4394   13.4976   -6.4041 N   0  0  3  0  0  0  0  0  0  0  0  0
    0.1691   12.4146   -6.8015 N   0  0  0  0  0  0  0  0  0  0  0  0
   -0.8034   11.5995   -7.1773 C   0  0  0  0  0  0  0  0  0  0  0  0
    0.3694   14.6144   -5.9538 C   0  0  0  0  0  0  0  0  0  0  0  0
   -3.6497   15.1720  -11.6865 O   0  0  0  0  0  0  0  0  0  0  0  0
   -4.3650   13.6745   -9.7698 O   0  0  0  0  0  0  0  0  0  0  0  0
   -6.1257   12.2782   -9.8355 H   0  0  0  0  0  0  0  0  0  0  0  0
   -8.1227   10.1152  -13.9085 H   0  0  0  0  0  0  0  0  0  0  0  0
   -6.8205   12.2414  -14.0656 H   0  0  0  0  0  0  0  0  0  0  0  0
   -8.7541   10.5711  -11.6042 H   0  0  0  0  0  0  0  0  0  0  0  0
   -8.5708   10.3015   -9.3774 H   0  0  0  0  0  0  0  0  0  0  0  0
   -8.0330    9.5733   -7.2490 H   0  0  0  0  0  0  0  0  0  0  0  0
   -1.9543   12.6728  -11.2554 H   0  0  0  0  0  0  0  0  0  0  0  0
   -3.3298   11.5493  -11.5240 H   0  0  0  0  0  0  0  0  0  0  0  0
   -2.7704   12.6186  -12.8546 H   0  0  0  0  0  0  0  0  0  0  0  0
   -4.8884    8.7854   -8.4885 H   0  0  0  0  0  0  0  0  0  0  0  0
   -2.6658    9.7683   -8.0414 H   0  0  0  0  0  0  0  0  0  0  0  0
   -4.5366   13.2900   -6.4643 H   0  0  0  0  0  0  0  0  0  0  0  0
   -6.7612   12.3068   -6.9141 H   0  0  0  0  0  0  0  0  0  0  0  0
   -2.1568   14.2271   -7.1311 H   0  0  0  0  0  0  0  0  0  0  0  0
   -2.2034   13.5716   -5.4593 H   0  0  0  0  0  0  0  0  0  0  0  0
   -0.6430   10.6154   -7.5924 H   0  0  0  0  0  0  0  0  0  0  0  0
    1.4345   14.3489   -6.0254 H   0  0  0  0  0  0  0  0  0  0  0  0
    0.1671   15.4918   -6.5857 H   0  0  0  0  0  0  0  0  0  0  0  0
    0.1198   14.8498   -4.9087 H   0  0  0  0  0  0  0  0  0  0  0  0
  1  2  1  0  0  0  0
  1  4  1  0  0  0  0
  1 13  2  3  0  0  0
  2  6  2  0  0  0  0
  3  4  2  0  0  0  0
  3  5  1  0  0  0  0
  5  6  1  0  0  0  0
  5  9  1  0  0  0  0
  6  7  1  0  0  0  0
  7  8  1  0  0  0  0
  7 10  1  0  0  0  0
  8  9  2  0  0  0  0
 10 14  2  0  0  0  0
 11 12  1  0  0  0  0
 11 13  1  0  0  0  0
 11 26  2  0  0  0  0
 11 27  2  0  0  0  0
 14 15  1  0  0  0  0
 14 19  1  0  0  0  0
 15 16  2  0  0  0  0
 16 17  1  0  0  0  0
 17 18  1  0  0  0  0
 17 20  2  0  0  0  0
 18 19  2  0  0  0  0
 20 21  1  0  0  0  0
 20 24  1  0  0  0  0
 21 22  1  0  0  0  0
 22 23  1  0  0  0  0
 22 25  1  0  0  0  0
 23 24  2  0  0  0  0
  2 28  1  0  0  0  0
  3 29  1  0  0  0  0
  4 30  1  0  0  0  0
  5 31  1  0  0  0  0
  7 32  1  0  0  0  0
 10 33  1  0  0  0  0
 12 34  1  0  0  0  0
 12 35  1  0  0  0  0
 12 36  1  0  0  0  0
 15 37  1  0  0  0  0
 16 38  1  0  0  0  0
 18 39  1  0  0  0  0
 19 40  1  0  0  0  0
 21 41  1  0  0  0  0
 21 42  1  0  0  0  0
 24 43  1  0  0  0  0
 25 44  1  0  0  0  0
 25 45  1  0  0  0  0
 25 46  1  0  0  0  0
M  END
> <Name>
25

> <IC50[uM]>
0.073

$$$$
25
  -OEChem-05192314333D
 Structure written by MMmdl.
 46 49  0     1  0  0  0  0  0999 V2000
   -6.3861   12.3623  -11.9697 C   0  0  0  0  0  0  0  0  0  0  0  0
   -6.5480   11.8020  -10.7080 C   0  0  0  0  0  0  0  0  0  0  0  0
   -7.6869   10.5726  -13.0325 C   0  0  0  0  0  0  0  0  0  0  0  0
   -6.9529   11.7665  -13.1047 C   0  0  0  0  0  0  0  0  0  0  0  0
   -7.8210   10.0086  -11.7556 C   0  0  0  0  0  0  0  0  0  0  0  0
   -7.2636   10.6177  -10.5919 C   0  0  0  0  0  0  0  0  0  0  0  0
   -7.6330    9.7421   -9.5104 C   0  0  3  0  0  0  0  0  0  0  0  0
   -8.3023    8.7332   -9.9897 N   0  0  0  0  0  0  0  0  0  0  0  0
   -8.4342    8.8678  -11.3051 N   0  0  0  0  0  0  0  0  0  0  0  0
   -7.3415    9.8758   -8.0215 C   0  0  0  0  0  0  0  0  0  0  0  0
   -4.1211   13.8754  -11.2000 S   0  0  0  0  0  0  0  0  0  0  0  0
   -2.9188   12.5402  -11.7675 C   0  0  0  0  0  0  0  0  0  0  0  0
   -5.6382   13.5428  -12.1051 N   0  0  0  0  0  0  0  0  0  0  0  0
   -5.9683   10.4827   -7.7344 C   0  0  0  0  0  0  0  0  0  0  0  0
   -4.8123    9.7690   -8.0490 C   0  0  0  0  0  0  0  0  0  0  0  0
   -3.5592   10.3237   -7.7969 C   0  0  0  0  0  0  0  0  0  0  0  0
   -3.4543   11.5962   -7.2288 C   0  0  0  0  0  0  0  0  0  0  0  0
   -4.6126   12.3085   -6.9084 C   0  0  0  0  0  0  0  0  0  0  0  0
   -5.8671   11.7538   -7.1613 C   0  0  0  0  0  0  0  0  0  0  0  0
   -2.1058   12.1871   -6.9644 C   0  0  0  0  0  0  0  0  0  0  0  0
   -1.7745   13.4406   -6.4637 C   0  0  0  0  0  0  0  0  0  0  0  0
   -0.4394   13.4976   -6.4041 N   0  0  3  0  0  0  0  0  0  0  0  0
    0.1691   12.4146   -6.8015 N   0  0  0  0  0  0  0  0  0  0  0  0
   -0.8034   11.5995   -7.1773 C   0  0  0  0  0  0  0  0  0  0  0  0
    0.3694   14.6144   -5.9538 C   0  0  0  0  0  0  0  0  0  0  0  0
   -3.6497   15.1720  -11.6865 O   0  0  0  0  0  0  0  0  0  0  0  0
   -4.3650   13.6745   -9.7698 O   0  0  0  0  0  0  0  0  0  0  0  0
   -6.1257   12.2782   -9.8355 H   0  0  0  0  0  0  0  0  0  0  0  0
   -8.1227   10.1152  -13.9085 H   0  0  0  0  0  0  0  0  0  0  0  0
   -7.6287   12.5169  -13.5407 H   0  0  0  0  0  0  0  0  0  0  0  0
   -6.1214   11.5746  -13.7988 H   0  0  0  0  0  0  0  0  0  0  0  0
   -8.5708   10.3015   -9.3774 H   0  0  0  0  0  0  0  0  0  0  0  0
   -8.0330    9.5733   -7.2490 H   0  0  0  0  0  0  0  0  0  0  0  0
   -1.9543   12.6728  -11.2554 H   0  0  0  0  0  0  0  0  0  0  0  0
   -3.3298   11.5493  -11.5240 H   0  0  0  0  0  0  0  0  0  0  0  0
   -2.7704   12.6186  -12.8546 H   0  0  0  0  0  0  0  0  0  0  0  0
   -4.8884    8.7854   -8.4885 H   0  0  0  0  0  0  0  0  0  0  0  0
   -2.6658    9.7683   -8.0414 H   0  0  0  0  0  0  0  0  0  0  0  0
   -4.5366   13.2900   -6.4643 H   0  0  0  0  0  0  0  0  0  0  0  0
   -6.7612   12.3068   -6.9141 H   0  0  0  0  0  0  0  0  0  0  0  0
   -2.1568   14.2271   -7.1311 H   0  0  0  0  0  0  0  0  0  0  0  0
   -2.2034   13.5716   -5.4593 H   0  0  0  0  0  0  0  0  0  0  0  0
   -0.6430   10.6154   -7.5924 H   0  0  0  0  0  0  0  0  0  0  0  0
    1.4345   14.3489   -6.0254 H   0  0  0  0  0  0  0  0  0  0  0  0
    0.1671   15.4918   -6.5857 H   0  0  0  0  0  0  0  0  0  0  0  0
    0.1198   14.8498   -4.9087 H   0  0  0  0  0  0  0  0  0  0  0  0
  1  2  1  0  0  0  0
  1  4  1  0  0  0  0
  1 13  2  3  0  0  0
  2  6  2  0  0  0  0
  3  4  1  0  0  0  0
  3  5  2  0  0  0  0
  5  6  1  0  0  0  0
  5  9  1  0  0  0  0
  6  7  1  0  0  0  0
  7  8  1  0  0  0  0
  7 10  1  0  0  0  0
  8  9  2  0  0  0  0
 10 14  2  0  0  0  0
 11 12  1  0  0  0  0
 11 13  1  0  0  0  0
 11 26  2  0  0  0  0
 11 27  2  0  0  0  0
 14 15  1  0  0  0  0
 14 19  1  0  0  0  0
 15 16  2  0  0  0  0
 16 17  1  0  0  0  0
 17 18  1  0  0  0  0
 17 20  2  0  0  0  0
 18 19  2  0  0  0  0
 20 21  1  0  0  0  0
 20 24  1  0  0  0  0
 21 22  1  0  0  0  0
 22 23  1  0  0  0  0
 22 25  1  0  0  0  0
 23 24  2  0  0  0  0
  2 28  1  0  0  0  0
  3 29  1  0  0  0  0
  4 30  1  0  0  0  0
  4 31  1  0  0  0  0
  7 32  1  0  0  0  0
 10 33  1  0  0  0  0
 12 34  1  0  0  0  0
 12 35  1  0  0  0  0
 12 36  1  0  0  0  0
 15 37  1  0  0  0  0
 16 38  1  0  0  0  0
 18 39  1  0  0  0  0
 19 40  1  0  0  0  0
 21 41  1  0  0  0  0
 21 42  1  0  0  0  0
 24 43  1  0  0  0  0
 25 44  1  0  0  0  0
 25 45  1  0  0  0  0
 25 46  1  0  0  0  0
M  END
> <Name>
25

> <IC50[uM]>
0.073

$$$$
25
  -OEChem-05192314333D
 Structure written by MMmdl.
 46 49  0     1  0  0  0  0  0999 V2000
   -6.3861   12.3623  -11.9697 C   0  0  0  0  0  0  0  0  0  0  0  0
   -6.5480   11.8020  -10.7080 C   0  0  0  0  0  0  0  0  0  0  0  0
   -7.6869   10.5726  -13.0325 C   0  0  0  0  0  0  0  0  0  0  0  0
   -6.9529   11.7665  -13.1047 C   0  0  0  0  0  0  0  0  0  0  0  0
   -7.8210   10.0086  -11.7556 C   0  0  0  0  0  0  0  0  0  0  0  0
   -7.2636   10.6177  -10.5919 C   0  0  0  0  0  0  0  0  0  0  0  0
   -7.6330    9.7421   -9.5104 C   0  0  3  0  0  0  0  0  0  0  0  0
   -8.3023    8.7332   -9.9897 N   0  0  0  0  0  0  0  0  0  0  0  0
   -8.4342    8.8678  -11.3051 N   0  0  0  0  0  0  0  0  0  0  0  0
   -7.3415    9.8758   -8.0215 C   0  0  0  0  0  0  0  0  0  0  0  0
   -4.1211   13.8754  -11.2000 S   0  0  0  0  0  0  0  0  0  0  0  0
   -2.9188   12.5402  -11.7675 C   0  0  0  0  0  0  0  0  0  0  0  0
   -5.6382   13.5428  -12.1051 N   0  0  0  0  0  0  0  0  0  0  0  0
   -5.9683   10.4827   -7.7344 C   0  0  0  0  0  0  0  0  0  0  0  0
   -4.8123    9.7690   -8.0490 C   0  0  0  0  0  0  0  0  0  0  0  0
   -3.5592   10.3237   -7.7969 C   0  0  0  0  0  0  0  0  0  0  0  0
   -3.4543   11.5962   -7.2288 C   0  0  0  0  0  0  0  0  0  0  0  0
   -4.6126   12.3085   -6.9084 C   0  0  0  0  0  0  0  0  0  0  0  0
   -5.8671   11.7538   -7.1613 C   0  0  0  0  0  0  0  0  0  0  0  0
   -2.1058   12.1871   -6.9644 C   0  0  0  0  0  0  0  0  0  0  0  0
   -1.7745   13.4406   -6.4637 C   0  0  0  0  0  0  0  0  0  0  0  0
   -0.4394   13.4976   -6.4041 N   0  0  3  0  0  0  0  0  0  0  0  0
    0.1691   12.4146   -6.8015 N   0  0  0  0  0  0  0  0  0  0  0  0
   -0.8034   11.5995   -7.1773 C   0  0  0  0  0  0  0  0  0  0  0  0
    0.3694   14.6144   -5.9538 C   0  0  0  0  0  0  0  0  0  0  0  0
   -3.6497   15.1720  -11.6865 O   0  0  0  0  0  0  0  0  0  0  0  0
   -4.3650   13.6745   -9.7698 O   0  0  0  0  0  0  0  0  0  0  0  0
   -5.5417   11.6132  -10.3059 H   0  0  0  0  0  0  0  0  0  0  0  0
   -7.0576   12.5509  -10.0840 H   0  0  0  0  0  0  0  0  0  0  0  0
   -8.1227   10.1152  -13.9085 H   0  0  0  0  0  0  0  0  0  0  0  0
   -6.8205   12.2414  -14.0656 H   0  0  0  0  0  0  0  0  0  0  0  0
   -8.5708   10.3015   -9.3774 H   0  0  0  0  0  0  0  0  0  0  0  0
   -8.0330    9.5733   -7.2490 H   0  0  0  0  0  0  0  0  0  0  0  0
   -1.9543   12.6728  -11.2554 H   0  0  0  0  0  0  0  0  0  0  0  0
   -3.3298   11.5493  -11.5240 H   0  0  0  0  0  0  0  0  0  0  0  0
   -2.7704   12.6186  -12.8546 H   0  0  0  0  0  0  0  0  0  0  0  0
   -4.8884    8.7854   -8.4885 H   0  0  0  0  0  0  0  0  0  0  0  0
   -2.6658    9.7683   -8.0414 H   0  0  0  0  0  0  0  0  0  0  0  0
   -4.5366   13.2900   -6.4643 H   0  0  0  0  0  0  0  0  0  0  0  0
   -6.7612   12.3068   -6.9141 H   0  0  0  0  0  0  0  0  0  0  0  0
   -2.1568   14.2271   -7.1311 H   0  0  0  0  0  0  0  0  0  0  0  0
   -2.2034   13.5716   -5.4593 H   0  0  0  0  0  0  0  0  0  0  0  0
   -0.6430   10.6154   -7.5924 H   0  0  0  0  0  0  0  0  0  0  0  0
    1.4345   14.3489   -6.0254 H   0  0  0  0  0  0  0  0  0  0  0  0
    0.1671   15.4918   -6.5857 H   0  0  0  0  0  0  0  0  0  0  0  0
    0.1198   14.8498   -4.9087 H   0  0  0  0  0  0  0  0  0  0  0  0
  1  2  1  0  0  0  0
  1  4  1  0  0  0  0
  1 13  2  3  0  0  0
  2  6  1  0  0  0  0
  3  4  2  0  0  0  0
  3  5  1  0  0  0  0
  5  6  2  0  0  0  0
  5  9  1  0  0  0  0
  6  7  1  0  0  0  0
  7  8  1  0  0  0  0
  7 10  1  0  0  0  0
  8  9  2  0  0  0  0
 10 14  2  0  0  0  0
 11 12  1  0  0  0  0
 11 13  1  0  0  0  0
 11 26  2  0  0  0  0
 11 27  2  0  0  0  0
 14 15  1  0  0  0  0
 14 19  1  0  0  0  0
 15 16  2  0  0  0  0
 16 17  1  0  0  0  0
 17 18  1  0  0  0  0
 17 20  2  0  0  0  0
 18 19  2  0  0  0  0
 20 21  1  0  0  0  0
 20 24  1  0  0  0  0
 21 22  1  0  0  0  0
 22 23  1  0  0  0  0
 22 25  1  0  0  0  0
 23 24  2  0  0  0  0
  2 28  1  0  0  0  0
  2 29  1  0  0  0  0
  3 30  1  0  0  0  0
  4 31  1  0  0  0  0
  7 32  1  0  0  0  0
 10 33  1  0  0  0  0
 12 34  1  0  0  0  0
 12 35  1  0  0  0  0
 12 36  1  0  0  0  0
 15 37  1  0  0  0  0
 16 38  1  0  0  0  0
 18 39  1  0  0  0  0
 19 40  1  0  0  0  0
 21 41  1  0  0  0  0
 21 42  1  0  0  0  0
 24 43  1  0  0  0  0
 25 44  1  0  0  0  0
 25 45  1  0  0  0  0
 25 46  1  0  0  0  0
M  END
> <Name>
25

> <IC50[uM]>
0.073

$$$$
25
  -OEChem-05192314333D
 Structure written by MMmdl.
 46 49  0     1  0  0  0  0  0999 V2000
   -6.3861   12.3623  -11.9697 C   0  0  0  0  0  0  0  0  0  0  0  0
   -6.5480   11.8020  -10.7080 C   0  0  0  0  0  0  0  0  0  0  0  0
   -7.6869   10.5726  -13.0325 C   0  0  0  0  0  0  0  0  0  0  0  0
   -6.9529   11.7665  -13.1047 C   0  0  0  0  0  0  0  0  0  0  0  0
   -7.8210   10.0086  -11.7556 C   0  0  3  0  0  0  0  0  0  0  0  0
   -7.2636   10.6177  -10.5919 C   0  0  0  0  0  0  0  0  0  0  0  0
   -7.6330    9.7421   -9.5104 C   0  0  0  0  0  0  0  0  0  0  0  0
   -8.3023    8.7332   -9.9897 N   0  0  0  0  0  0  0  0  0  0  0  0
   -8.4342    8.8678  -11.3051 N   0  0  0  0  0  0  0  0  0  0  0  0
   -7.3415    9.8758   -8.0215 C   0  0  0  0  0  0  0  0  0  0  0  0
   -4.1211   13.8754  -11.2000 S   0  0  0  0  0  0  0  0  0  0  0  0
   -2.9188   12.5402  -11.7675 C   0  0  0  0  0  0  0  0  0  0  0  0
   -5.6382   13.5428  -12.1051 N   0  0  0  0  0  0  0  0  0  0  0  0
   -5.9683   10.4827   -7.7344 C   0  0  0  0  0  0  0  0  0  0  0  0
   -4.8123    9.7690   -8.0490 C   0  0  0  0  0  0  0  0  0  0  0  0
   -3.5592   10.3237   -7.7969 C   0  0  0  0  0  0  0  0  0  0  0  0
   -3.4543   11.5962   -7.2288 C   0  0  0  0  0  0  0  0  0  0  0  0
   -4.6126   12.3085   -6.9084 C   0  0  0  0  0  0  0  0  0  0  0  0
   -5.8671   11.7538   -7.1613 C   0  0  0  0  0  0  0  0  0  0  0  0
   -2.1058   12.1871   -6.9644 C   0  0  0  0  0  0  0  0  0  0  0  0
   -1.7745   13.4406   -6.4637 C   0  0  0  0  0  0  0  0  0  0  0  0
   -0.4394   13.4976   -6.4041 N   0  0  3  0  0  0  0  0  0  0  0  0
    0.1691   12.4146   -6.8015 N   0  0  0  0  0  0  0  0  0  0  0  0
   -0.8034   11.5995   -7.1773 C   0  0  0  0  0  0  0  0  0  0  0  0
    0.3694   14.6144   -5.9538 C   0  0  0  0  0  0  0  0  0  0  0  0
   -3.6497   15.1720  -11.6865 O   0  0  0  0  0  0  0  0  0  0  0  0
   -4.3650   13.6745   -9.7698 O   0  0  0  0  0  0  0  0  0  0  0  0
   -5.5417   11.6132  -10.3059 H   0  0  0  0  0  0  0  0  0  0  0  0
   -7.0576   12.5509  -10.0840 H   0  0  0  0  0  0  0  0  0  0  0  0
   -8.1227   10.1152  -13.9085 H   0  0  0  0  0  0  0  0  0  0  0  0
   -6.8205   12.2414  -14.0656 H   0  0  0  0  0  0  0  0  0  0  0  0
   -8.7541   10.5711  -11.6042 H   0  0  0  0  0  0  0  0  0  0  0  0
   -8.0330    9.5733   -7.2490 H   0  0  0  0  0  0  0  0  0  0  0  0
   -1.9543   12.6728  -11.2554 H   0  0  0  0  0  0  0  0  0  0  0  0
   -3.3298   11.5493  -11.5240 H   0  0  0  0  0  0  0  0  0  0  0  0
   -2.7704   12.6186  -12.8546 H   0  0  0  0  0  0  0  0  0  0  0  0
   -4.8884    8.7854   -8.4885 H   0  0  0  0  0  0  0  0  0  0  0  0
   -2.6658    9.7683   -8.0414 H   0  0  0  0  0  0  0  0  0  0  0  0
   -4.5366   13.2900   -6.4643 H   0  0  0  0  0  0  0  0  0  0  0  0
   -6.7612   12.3068   -6.9141 H   0  0  0  0  0  0  0  0  0  0  0  0
   -2.1568   14.2271   -7.1311 H   0  0  0  0  0  0  0  0  0  0  0  0
   -2.2034   13.5716   -5.4593 H   0  0  0  0  0  0  0  0  0  0  0  0
   -0.6430   10.6154   -7.5924 H   0  0  0  0  0  0  0  0  0  0  0  0
    1.4345   14.3489   -6.0254 H   0  0  0  0  0  0  0  0  0  0  0  0
    0.1671   15.4918   -6.5857 H   0  0  0  0  0  0  0  0  0  0  0  0
    0.1198   14.8498   -4.9087 H   0  0  0  0  0  0  0  0  0  0  0  0
  1  2  1  0  0  0  0
  1  4  1  0  0  0  0
  1 13  2  3  0  0  0
  2  6  1  0  0  0  0
  3  4  2  0  0  0  0
  3  5  1  0  0  0  0
  5  6  1  0  0  0  0
  5  9  1  0  0  0  0
  6  7  2  0  0  0  0
  7  8  1  0  0  0  0
  7 10  1  0  0  0  0
  8  9  2  0  0  0  0
 10 14  2  0  0  0  0
 11 12  1  0  0  0  0
 11 13  1  0  0  0  0
 11 26  2  0  0  0  0
 11 27  2  0  0  0  0
 14 15  1  0  0  0  0
 14 19  1  0  0  0  0
 15 16  2  0  0  0  0
 16 17  1  0  0  0  0
 17 18  1  0  0  0  0
 17 20  2  0  0  0  0
 18 19  2  0  0  0  0
 20 21  1  0  0  0  0
 20 24  1  0  0  0  0
 21 22  1  0  0  0  0
 22 23  1  0  0  0  0
 22 25  1  0  0  0  0
 23 24  2  0  0  0  0
  2 28  1  0  0  0  0
  2 29  1  0  0  0  0
  3 30  1  0  0  0  0
  4 31  1  0  0  0  0
  5 32  1  0  0  0  0
 10 33  1  0  0  0  0
 12 34  1  0  0  0  0
 12 35  1  0  0  0  0
 12 36  1  0  0  0  0
 15 37  1  0  0  0  0
 16 38  1  0  0  0  0
 18 39  1  0  0  0  0
 19 40  1  0  0  0  0
 21 41  1  0  0  0  0
 21 42  1  0  0  0  0
 24 43  1  0  0  0  0
 25 44  1  0  0  0  0
 25 45  1  0  0  0  0
 25 46  1  0  0  0  0
M  END
> <Name>
25

> <IC50[uM]>
0.073

$$$$
25
  -OEChem-05192314333D
 Structure written by MMmdl.
 46 49  0     1  0  0  0  0  0999 V2000
   -6.3861   12.3623  -11.9697 C   0  0  0  0  0  0  0  0  0  0  0  0
   -6.5480   11.8020  -10.7080 C   0  0  0  0  0  0  0  0  0  0  0  0
   -7.6869   10.5726  -13.0325 C   0  0  0  0  0  0  0  0  0  0  0  0
   -6.9529   11.7665  -13.1047 C   0  0  0  0  0  0  0  0  0  0  0  0
   -7.8210   10.0086  -11.7556 C   0  0  0  0  0  0  0  0  0  0  0  0
   -7.2636   10.6177  -10.5919 C   0  0  0  0  0  0  0  0  0  0  0  0
   -7.6330    9.7421   -9.5104 C   0  0  0  0  0  0  0  0  0  0  0  0
   -8.3023    8.7332   -9.9897 N   0  0  0  0  0  0  0  0  0  0  0  0
   -8.4342    8.8678  -11.3051 N   0  0  0  0  0  0  0  0  0  0  0  0
   -7.3415    9.8758   -8.0215 C   0  0  0  0  0  0  0  0  0  0  0  0
   -4.1211   13.8754  -11.2000 S   0  0  0  0  0  0  0  0  0  0  0  0
   -2.9188   12.5402  -11.7675 C   0  0  0  0  0  0  0  0  0  0  0  0
   -5.6382   13.5428  -12.1051 N   0  0  0  0  0  0  0  0  0  0  0  0
   -5.9683   10.4827   -7.7344 C   0  0  0  0  0  0  0  0  0  0  0  0
   -4.8123    9.7690   -8.0490 C   0  0  0  0  0  0  0  0  0  0  0  0
   -3.5592   10.3237   -7.7969 C   0  0  0  0  0  0  0  0  0  0  0  0
   -3.4543   11.5962   -7.2288 C   0  0  0  0  0  0  0  0  0  0  0  0
   -4.6126   12.3085   -6.9084 C   0  0  0  0  0  0  0  0  0  0  0  0
   -5.8671   11.7538   -7.1613 C   0  0  0  0  0  0  0  0  0  0  0  0
   -2.1058   12.1871   -6.9644 C   0  0  0  0  0  0  0  0  0  0  0  0
   -1.7745   13.4406   -6.4637 C   0  0  0  0  0  0  0  0  0  0  0  0
   -0.4394   13.4976   -6.4041 N   0  0  3  0  0  0  0  0  0  0  0  0
    0.1691   12.4146   -6.8015 N   0  0  0  0  0  0  0  0  0  0  0  0
   -0.8034   11.5995   -7.1773 C   0  0  0  0  0  0  0  0  0  0  0  0
    0.3694   14.6144   -5.9538 C   0  0  0  0  0  0  0  0  0  0  0  0
   -3.6497   15.1720  -11.6865 O   0  0  0  0  0  0  0  0  0  0  0  0
   -4.3650   13.6745   -9.7698 O   0  0  0  0  0  0  0  0  0  0  0  0
   -5.5417   11.6132  -10.3059 H   0  0  0  0  0  0  0  0  0  0  0  0
   -7.0576   12.5509  -10.0840 H   0  0  0  0  0  0  0  0  0  0  0  0
   -8.1227   10.1152  -13.9085 H   0  0  0  0  0  0  0  0  0  0  0  0
   -7.6287   12.5169  -13.5407 H   0  0  0  0  0  0  0  0  0  0  0  0
   -6.1214   11.5746  -13.7988 H   0  0  0  0  0  0  0  0  0  0  0  0
   -8.0330    9.5733   -7.2490 H   0  0  0  0  0  0  0  0  0  0  0  0
   -1.9543   12.6728  -11.2554 H   0  0  0  0  0  0  0  0  0  0  0  0
   -3.3298   11.5493  -11.5240 H   0  0  0  0  0  0  0  0  0  0  0  0
   -2.7704   12.6186  -12.8546 H   0  0  0  0  0  0  0  0  0  0  0  0
   -4.8884    8.7854   -8.4885 H   0  0  0  0  0  0  0  0  0  0  0  0
   -2.6658    9.7683   -8.0414 H   0  0  0  0  0  0  0  0  0  0  0  0
   -4.5366   13.2900   -6.4643 H   0  0  0  0  0  0  0  0  0  0  0  0
   -6.7612   12.3068   -6.9141 H   0  0  0  0  0  0  0  0  0  0  0  0
   -2.1568   14.2271   -7.1311 H   0  0  0  0  0  0  0  0  0  0  0  0
   -2.2034   13.5716   -5.4593 H   0  0  0  0  0  0  0  0  0  0  0  0
   -0.6430   10.6154   -7.5924 H   0  0  0  0  0  0  0  0  0  0  0  0
    1.4345   14.3489   -6.0254 H   0  0  0  0  0  0  0  0  0  0  0  0
    0.1671   15.4918   -6.5857 H   0  0  0  0  0  0  0  0  0  0  0  0
    0.1198   14.8498   -4.9087 H   0  0  0  0  0  0  0  0  0  0  0  0
  1  2  1  0  0  0  0
  1  4  1  0  0  0  0
  1 13  2  3  0  0  0
  2  6  1  0  0  0  0
  3  4  1  0  0  0  0
  3  5  2  0  0  0  0
  5  6  1  0  0  0  0
  5  9  1  0  0  0  0
  6  7  2  0  0  0  0
  7  8  1  0  0  0  0
  7 10  1  0  0  0  0
  8  9  2  0  0  0  0
 10 14  2  0  0  0  0
 11 12  1  0  0  0  0
 11 13  1  0  0  0  0
 11 26  2  0  0  0  0
 11 27  2  0  0  0  0
 14 15  1  0  0  0  0
 14 19  1  0  0  0  0
 15 16  2  0  0  0  0
 16 17  1  0  0  0  0
 17 18  1  0  0  0  0
 17 20  2  0  0  0  0
 18 19  2  0  0  0  0
 20 21  1  0  0  0  0
 20 24  1  0  0  0  0
 21 22  1  0  0  0  0
 22 23  1  0  0  0  0
 22 25  1  0  0  0  0
 23 24  2  0  0  0  0
  2 28  1  0  0  0  0
  2 29  1  0  0  0  0
  3 30  1  0  0  0  0
  4 31  1  0  0  0  0
  4 32  1  0  0  0  0
 10 33  1  0  0  0  0
 12 34  1  0  0  0  0
 12 35  1  0  0  0  0
 12 36  1  0  0  0  0
 15 37  1  0  0  0  0
 16 38  1  0  0  0  0
 18 39  1  0  0  0  0
 19 40  1  0  0  0  0
 21 41  1  0  0  0  0
 21 42  1  0  0  0  0
 24 43  1  0  0  0  0
 25 44  1  0  0  0  0
 25 45  1  0  0  0  0
 25 46  1  0  0  0  0
M  END
> <Name>
25

> <IC50[uM]>
0.073

$$$$
25
  -OEChem-05192314333D
 Structure written by MMmdl.
 46 49  0     1  0  0  0  0  0999 V2000
   -6.3861   12.3623  -11.9697 C   0  0  0  0  0  0  0  0  0  0  0  0
   -6.5480   11.8020  -10.7080 C   0  0  0  0  0  0  0  0  0  0  0  0
   -7.6869   10.5726  -13.0325 C   0  0  0  0  0  0  0  0  0  0  0  0
   -6.9529   11.7665  -13.1047 C   0  0  0  0  0  0  0  0  0  0  0  0
   -7.8210   10.0086  -11.7556 C   0  0  0  0  0  0  0  0  0  0  0  0
   -7.2636   10.6177  -10.5919 C   0  0  3  0  0  0  0  0  0  0  0  0
   -7.6330    9.7421   -9.5104 C   0  0  0  0  0  0  0  0  0  0  0  0
   -8.3023    8.7332   -9.9897 N   0  0  0  0  0  0  0  0  0  0  0  0
   -8.4342    8.8678  -11.3051 N   0  0  0  0  0  0  0  0  0  0  0  0
   -7.3415    9.8758   -8.0215 C   0  0  0  0  0  0  0  0  0  0  0  0
   -4.1211   13.8754  -11.2000 S   0  0  0  0  0  0  0  0  0  0  0  0
   -2.9188   12.5402  -11.7675 C   0  0  0  0  0  0  0  0  0  0  0  0
   -5.6382   13.5428  -12.1051 N   0  0  0  0  0  0  0  0  0  0  0  0
   -5.9683   10.4827   -7.7344 C   0  0  0  0  0  0  0  0  0  0  0  0
   -4.8123    9.7690   -8.0490 C   0  0  0  0  0  0  0  0  0  0  0  0
   -3.5592   10.3237   -7.7969 C   0  0  0  0  0  0  0  0  0  0  0  0
   -3.4543   11.5962   -7.2288 C   0  0  0  0  0  0  0  0  0  0  0  0
   -4.6126   12.3085   -6.9084 C   0  0  0  0  0  0  0  0  0  0  0  0
   -5.8671   11.7538   -7.1613 C   0  0  0  0  0  0  0  0  0  0  0  0
   -2.1058   12.1871   -6.9644 C   0  0  0  0  0  0  0  0  0  0  0  0
   -1.7745   13.4406   -6.4637 C   0  0  0  0  0  0  0  0  0  0  0  0
   -0.4394   13.4976   -6.4041 N   0  0  3  0  0  0  0  0  0  0  0  0
    0.1691   12.4146   -6.8015 N   0  0  0  0  0  0  0  0  0  0  0  0
   -0.8034   11.5995   -7.1773 C   0  0  0  0  0  0  0  0  0  0  0  0
    0.3694   14.6144   -5.9538 C   0  0  0  0  0  0  0  0  0  0  0  0
   -3.6497   15.1720  -11.6865 O   0  0  0  0  0  0  0  0  0  0  0  0
   -4.3650   13.6745   -9.7698 O   0  0  0  0  0  0  0  0  0  0  0  0
   -6.1257   12.2782   -9.8355 H   0  0  0  0  0  0  0  0  0  0  0  0
   -8.1227   10.1152  -13.9085 H   0  0  0  0  0  0  0  0  0  0  0  0
   -6.8205   12.2414  -14.0656 H   0  0  0  0  0  0  0  0  0  0  0  0
   -8.1911   11.1909  -10.4462 H   0  0  0  0  0  0  0  0  0  0  0  0
   -8.0330    9.5733   -7.2490 H   0  0  0  0  0  0  0  0  0  0  0  0
   -1.9543   12.6728  -11.2554 H   0  0  0  0  0  0  0  0  0  0  0  0
   -3.3298   11.5493  -11.5240 H   0  0  0  0  0  0  0  0  0  0  0  0
   -2.7704   12.6186  -12.8546 H   0  0  0  0  0  0  0  0  0  0  0  0
   -5.3954   13.6013  -13.0734 H   0  0  0  0  0  0  0  0  0  0  0  0
   -4.8884    8.7854   -8.4885 H   0  0  0  0  0  0  0  0  0  0  0  0
   -2.6658    9.7683   -8.0414 H   0  0  0  0  0  0  0  0  0  0  0  0
   -4.5366   13.2900   -6.4643 H   0  0  0  0  0  0  0  0  0  0  0  0
   -6.7612   12.3068   -6.9141 H   0  0  0  0  0  0  0  0  0  0  0  0
   -2.1568   14.2271   -7.1311 H   0  0  0  0  0  0  0  0  0  0  0  0
   -2.2034   13.5716   -5.4593 H   0  0  0  0  0  0  0  0  0  0  0  0
   -0.6430   10.6154   -7.5924 H   0  0  0  0  0  0  0  0  0  0  0  0
    1.4345   14.3489   -6.0254 H   0  0  0  0  0  0  0  0  0  0  0  0
    0.1671   15.4918   -6.5857 H   0  0  0  0  0  0  0  0  0  0  0  0
    0.1198   14.8498   -4.9087 H   0  0  0  0  0  0  0  0  0  0  0  0
  1  2  2  0  0  0  0
  1  4  1  0  0  0  0
  1 13  1  0  0  0  0
  2  6  1  0  0  0  0
  3  4  2  0  0  0  0
  3  5  1  0  0  0  0
  5  6  1  0  0  0  0
  5  9  2  0  0  0  0
  6  7  1  0  0  0  0
  7  8  2  0  0  0  0
  7 10  1  0  0  0  0
  8  9  1  0  0  0  0
 10 14  2  0  0  0  0
 11 12  1  0  0  0  0
 11 13  1  0  0  0  0
 11 26  2  0  0  0  0
 11 27  2  0  0  0  0
 14 15  1  0  0  0  0
 14 19  1  0  0  0  0
 15 16  2  0  0  0  0
 16 17  1  0  0  0  0
 17 18  1  0  0  0  0
 17 20  2  0  0  0  0
 18 19  2  0  0  0  0
 20 21  1  0  0  0  0
 20 24  1  0  0  0  0
 21 22  1  0  0  0  0
 22 23  1  0  0  0  0
 22 25  1  0  0  0  0
 23 24  2  0  0  0  0
  2 28  1  0  0  0  0
  3 29  1  0  0  0  0
  4 30  1  0  0  0  0
  6 31  1  0  0  0  0
 10 32  1  0  0  0  0
 12 33  1  0  0  0  0
 12 34  1  0  0  0  0
 12 35  1  0  0  0  0
 13 36  1  0  0  0  0
 15 37  1  0  0  0  0
 16 38  1  0  0  0  0
 18 39  1  0  0  0  0
 19 40  1  0  0  0  0
 21 41  1  0  0  0  0
 21 42  1  0  0  0  0
 24 43  1  0  0  0  0
 25 44  1  0  0  0  0
 25 45  1  0  0  0  0
 25 46  1  0  0  0  0
M  END
> <Name>
25

> <IC50[uM]>
0.073

$$$$
25
  -OEChem-05192314333D
 Structure written by MMmdl.
 46 49  0     1  0  0  0  0  0999 V2000
   -6.3861   12.3623  -11.9697 C   0  0  3  0  0  0  0  0  0  0  0  0
   -6.5480   11.8020  -10.7080 C   0  0  0  0  0  0  0  0  0  0  0  0
   -7.6869   10.5726  -13.0325 C   0  0  0  0  0  0  0  0  0  0  0  0
   -6.9529   11.7665  -13.1047 C   0  0  0  0  0  0  0  0  0  0  0  0
   -7.8210   10.0086  -11.7556 C   0  0  0  0  0  0  0  0  0  0  0  0
   -7.2636   10.6177  -10.5919 C   0  0  0  0  0  0  0  0  0  0  0  0
   -7.6330    9.7421   -9.5104 C   0  0  0  0  0  0  0  0  0  0  0  0
   -8.3023    8.7332   -9.9897 N   0  0  0  0  0  0  0  0  0  0  0  0
   -8.4342    8.8678  -11.3051 N   0  0  0  0  0  0  0  0  0  0  0  0
   -7.3415    9.8758   -8.0215 C   0  0  0  0  0  0  0  0  0  0  0  0
   -4.1211   13.8754  -11.2000 S   0  0  0  0  0  0  0  0  0  0  0  0
   -2.9188   12.5402  -11.7675 C   0  0  0  0  0  0  0  0  0  0  0  0
   -5.6382   13.5428  -12.1051 N   0  0  0  0  0  0  0  0  0  0  0  0
   -5.9683   10.4827   -7.7344 C   0  0  0  0  0  0  0  0  0  0  0  0
   -4.8123    9.7690   -8.0490 C   0  0  0  0  0  0  0  0  0  0  0  0
   -3.5592   10.3237   -7.7969 C   0  0  0  0  0  0  0  0  0  0  0  0
   -3.4543   11.5962   -7.2288 C   0  0  0  0  0  0  0  0  0  0  0  0
   -4.6126   12.3085   -6.9084 C   0  0  0  0  0  0  0  0  0  0  0  0
   -5.8671   11.7538   -7.1613 C   0  0  0  0  0  0  0  0  0  0  0  0
   -2.1058   12.1871   -6.9644 C   0  0  0  0  0  0  0  0  0  0  0  0
   -1.7745   13.4406   -6.4637 C   0  0  0  0  0  0  0  0  0  0  0  0
   -0.4394   13.4976   -6.4041 N   0  0  3  0  0  0  0  0  0  0  0  0
    0.1691   12.4146   -6.8015 N   0  0  0  0  0  0  0  0  0  0  0  0
   -0.8034   11.5995   -7.1773 C   0  0  0  0  0  0  0  0  0  0  0  0
    0.3694   14.6144   -5.9538 C   0  0  0  0  0  0  0  0  0  0  0  0
   -3.6497   15.1720  -11.6865 O   0  0  0  0  0  0  0  0  0  0  0  0
   -4.3650   13.6745   -9.7698 O   0  0  0  0  0  0  0  0  0  0  0  0
   -7.3001   12.9568  -11.8241 H   0  0  0  0  0  0  0  0  0  0  0  0
   -6.1257   12.2782   -9.8355 H   0  0  0  0  0  0  0  0  0  0  0  0
   -8.1227   10.1152  -13.9085 H   0  0  0  0  0  0  0  0  0  0  0  0
   -6.8205   12.2414  -14.0656 H   0  0  0  0  0  0  0  0  0  0  0  0
   -8.0330    9.5733   -7.2490 H   0  0  0  0  0  0  0  0  0  0  0  0
   -1.9543   12.6728  -11.2554 H   0  0  0  0  0  0  0  0  0  0  0  0
   -3.3298   11.5493  -11.5240 H   0  0  0  0  0  0  0  0  0  0  0  0
   -2.7704   12.6186  -12.8546 H   0  0  0  0  0  0  0  0  0  0  0  0
   -5.3954   13.6013  -13.0734 H   0  0  0  0  0  0  0  0  0  0  0  0
   -4.8884    8.7854   -8.4885 H   0  0  0  0  0  0  0  0  0  0  0  0
   -2.6658    9.7683   -8.0414 H   0  0  0  0  0  0  0  0  0  0  0  0
   -4.5366   13.2900   -6.4643 H   0  0  0  0  0  0  0  0  0  0  0  0
   -6.7612   12.3068   -6.9141 H   0  0  0  0  0  0  0  0  0  0  0  0
   -2.1568   14.2271   -7.1311 H   0  0  0  0  0  0  0  0  0  0  0  0
   -2.2034   13.5716   -5.4593 H   0  0  0  0  0  0  0  0  0  0  0  0
   -0.6430   10.6154   -7.5924 H   0  0  0  0  0  0  0  0  0  0  0  0
    1.4345   14.3489   -6.0254 H   0  0  0  0  0  0  0  0  0  0  0  0
    0.1671   15.4918   -6.5857 H   0  0  0  0  0  0  0  0  0  0  0  0
    0.1198   14.8498   -4.9087 H   0  0  0  0  0  0  0  0  0  0  0  0
  1  2  1  0  0  0  0
  1  4  1  0  0  0  0
  1 13  1  0  0  0  0
  2  6  2  0  0  0  0
  3  4  2  0  0  0  0
  3  5  1  0  0  0  0
  5  6  1  0  0  0  0
  5  9  2  0  0  0  0
  6  7  1  0  0  0  0
  7  8  2  0  0  0  0
  7 10  1  0  0  0  0
  8  9  1  0  0  0  0
 10 14  2  0  0  0  0
 11 12  1  0  0  0  0
 11 13  1  0  0  0  0
 11 26  2  0  0  0  0
 11 27  2  0  0  0  0
 14 15  1  0  0  0  0
 14 19  1  0  0  0  0
 15 16  2  0  0  0  0
 16 17  1  0  0  0  0
 17 18  1  0  0  0  0
 17 20  2  0  0  0  0
 18 19  2  0  0  0  0
 20 21  1  0  0  0  0
 20 24  1  0  0  0  0
 21 22  1  0  0  0  0
 22 23  1  0  0  0  0
 22 25  1  0  0  0  0
 23 24  2  0  0  0  0
  1 28  1  0  0  0  0
  2 29  1  0  0  0  0
  3 30  1  0  0  0  0
  4 31  1  0  0  0  0
 10 32  1  0  0  0  0
 12 33  1  0  0  0  0
 12 34  1  0  0  0  0
 12 35  1  0  0  0  0
 13 36  1  0  0  0  0
 15 37  1  0  0  0  0
 16 38  1  0  0  0  0
 18 39  1  0  0  0  0
 19 40  1  0  0  0  0
 21 41  1  0  0  0  0
 21 42  1  0  0  0  0
 24 43  1  0  0  0  0
 25 44  1  0  0  0  0
 25 45  1  0  0  0  0
 25 46  1  0  0  0  0
M  END
> <Name>
25

> <IC50[uM]>
0.073

$$$$
25
  -OEChem-05192314333D
 Structure written by MMmdl.
 46 49  0     1  0  0  0  0  0999 V2000
   -6.3861   12.3623  -11.9697 C   0  0  0  0  0  0  0  0  0  0  0  0
   -6.5480   11.8020  -10.7080 C   0  0  0  0  0  0  0  0  0  0  0  0
   -7.6869   10.5726  -13.0325 C   0  0  0  0  0  0  0  0  0  0  0  0
   -6.9529   11.7665  -13.1047 C   0  0  0  0  0  0  0  0  0  0  0  0
   -7.8210   10.0086  -11.7556 C   0  0  0  0  0  0  0  0  0  0  0  0
   -7.2636   10.6177  -10.5919 C   0  0  0  0  0  0  0  0  0  0  0  0
   -7.6330    9.7421   -9.5104 C   0  0  3  0  0  0  0  0  0  0  0  0
   -8.3023    8.7332   -9.9897 N   0  0  0  0  0  0  0  0  0  0  0  0
   -8.4342    8.8678  -11.3051 N   0  0  0  0  0  0  0  0  0  0  0  0
   -7.3415    9.8758   -8.0215 C   0  0  0  0  0  0  0  0  0  0  0  0
   -4.1211   13.8754  -11.2000 S   0  0  0  0  0  0  0  0  0  0  0  0
   -2.9188   12.5402  -11.7675 C   0  0  0  0  0  0  0  0  0  0  0  0
   -5.6382   13.5428  -12.1051 N   0  0  0  0  0  0  0  0  0  0  0  0
   -5.9683   10.4827   -7.7344 C   0  0  0  0  0  0  0  0  0  0  0  0
   -4.8123    9.7690   -8.0490 C   0  0  0  0  0  0  0  0  0  0  0  0
   -3.5592   10.3237   -7.7969 C   0  0  0  0  0  0  0  0  0  0  0  0
   -3.4543   11.5962   -7.2288 C   0  0  0  0  0  0  0  0  0  0  0  0
   -4.6126   12.3085   -6.9084 C   0  0  0  0  0  0  0  0  0  0  0  0
   -5.8671   11.7538   -7.1613 C   0  0  0  0  0  0  0  0  0  0  0  0
   -2.1058   12.1871   -6.9644 C   0  0  0  0  0  0  0  0  0  0  0  0
   -1.7745   13.4406   -6.4637 C   0  0  0  0  0  0  0  0  0  0  0  0
   -0.4394   13.4976   -6.4041 N   0  0  3  0  0  0  0  0  0  0  0  0
    0.1691   12.4146   -6.8015 N   0  0  0  0  0  0  0  0  0  0  0  0
   -0.8034   11.5995   -7.1773 C   0  0  0  0  0  0  0  0  0  0  0  0
    0.3694   14.6144   -5.9538 C   0  0  0  0  0  0  0  0  0  0  0  0
   -3.6497   15.1720  -11.6865 O   0  0  0  0  0  0  0  0  0  0  0  0
   -4.3650   13.6745   -9.7698 O   0  0  0  0  0  0  0  0  0  0  0  0
   -6.1257   12.2782   -9.8355 H   0  0  0  0  0  0  0  0  0  0  0  0
   -8.1227   10.1152  -13.9085 H   0  0  0  0  0  0  0  0  0  0  0  0
   -6.8205   12.2414  -14.0656 H   0  0  0  0  0  0  0  0  0  0  0  0
   -8.5708   10.3015   -9.3774 H   0  0  0  0  0  0  0  0  0  0  0  0
   -7.8128    7.8844   -9.7898 H   0  0  0  0  0  0  0  0  0  0  0  0
   -8.0330    9.5733   -7.2490 H   0  0  0  0  0  0  0  0  0  0  0  0
   -1.9543   12.6728  -11.2554 H   0  0  0  0  0  0  0  0  0  0  0  0
   -3.3298   11.5493  -11.5240 H   0  0  0  0  0  0  0  0  0  0  0  0
   -2.7704   12.6186  -12.8546 H   0  0  0  0  0  0  0  0  0  0  0  0
   -4.8884    8.7854   -8.4885 H   0  0  0  0  0  0  0  0  0  0  0  0
   -2.6658    9.7683   -8.0414 H   0  0  0  0  0  0  0  0  0  0  0  0
   -4.5366   13.2900   -6.4643 H   0  0  0  0  0  0  0  0  0  0  0  0
   -6.7612   12.3068   -6.9141 H   0  0  0  0  0  0  0  0  0  0  0  0
   -2.1568   14.2271   -7.1311 H   0  0  0  0  0  0  0  0  0  0  0  0
   -2.2034   13.5716   -5.4593 H   0  0  0  0  0  0  0  0  0  0  0  0
   -0.6430   10.6154   -7.5924 H   0  0  0  0  0  0  0  0  0  0  0  0
    1.4345   14.3489   -6.0254 H   0  0  0  0  0  0  0  0  0  0  0  0
    0.1671   15.4918   -6.5857 H   0  0  0  0  0  0  0  0  0  0  0  0
    0.1198   14.8498   -4.9087 H   0  0  0  0  0  0  0  0  0  0  0  0
  1  2  1  0  0  0  0
  1  4  1  0  0  0  0
  1 13  2  3  0  0  0
  2  6  2  0  0  0  0
  3  4  2  0  0  0  0
  3  5  1  0  0  0  0
  5  6  1  0  0  0  0
  5  9  2  0  0  0  0
  6  7  1  0  0  0  0
  7  8  1  0  0  0  0
  7 10  1  0  0  0  0
  8  9  1  0  0  0  0
 10 14  2  0  0  0  0
 11 12  1  0  0  0  0
 11 13  1  0  0  0  0
 11 26  2  0  0  0  0
 11 27  2  0  0  0  0
 14 15  1  0  0  0  0
 14 19  1  0  0  0  0
 15 16  2  0  0  0  0
 16 17  1  0  0  0  0
 17 18  1  0  0  0  0
 17 20  2  0  0  0  0
 18 19  2  0  0  0  0
 20 21  1  0  0  0  0
 20 24  1  0  0  0  0
 21 22  1  0  0  0  0
 22 23  1  0  0  0  0
 22 25  1  0  0  0  0
 23 24  2  0  0  0  0
  2 28  1  0  0  0  0
  3 29  1  0  0  0  0
  4 30  1  0  0  0  0
  7 31  1  0  0  0  0
  8 32  1  0  0  0  0
 10 33  1  0  0  0  0
 12 34  1  0  0  0  0
 12 35  1  0  0  0  0
 12 36  1  0  0  0  0
 15 37  1  0  0  0  0
 16 38  1  0  0  0  0
 18 39  1  0  0  0  0
 19 40  1  0  0  0  0
 21 41  1  0  0  0  0
 21 42  1  0  0  0  0
 24 43  1  0  0  0  0
 25 44  1  0  0  0  0
 25 45  1  0  0  0  0
 25 46  1  0  0  0  0
M  END
> <Name>
25

> <IC50[uM]>
0.073

$$$$
25
  -OEChem-05192314333D
 Structure written by MMmdl.
 46 49  0     1  0  0  0  0  0999 V2000
   -6.3861   12.3623  -11.9697 C   0  0  0  0  0  0  0  0  0  0  0  0
   -6.5480   11.8020  -10.7080 C   0  0  0  0  0  0  0  0  0  0  0  0
   -7.6869   10.5726  -13.0325 C   0  0  0  0  0  0  0  0  0  0  0  0
   -6.9529   11.7665  -13.1047 C   0  0  0  0  0  0  0  0  0  0  0  0
   -7.8210   10.0086  -11.7556 C   0  0  3  0  0  0  0  0  0  0  0  0
   -7.2636   10.6177  -10.5919 C   0  0  0  0  0  0  0  0  0  0  0  0
   -7.6330    9.7421   -9.5104 C   0  0  0  0  0  0  0  0  0  0  0  0
   -8.3023    8.7332   -9.9897 N   0  0  0  0  0  0  0  0  0  0  0  0
   -8.4342    8.8678  -11.3051 N   0  0  0  0  0  0  0  0  0  0  0  0
   -7.3415    9.8758   -8.0215 C   0  0  0  0  0  0  0  0  0  0  0  0
   -4.1211   13.8754  -11.2000 S   0  0  0  0  0  0  0  0  0  0  0  0
   -2.9188   12.5402  -11.7675 C   0  0  0  0  0  0  0  0  0  0  0  0
   -5.6382   13.5428  -12.1051 N   0  0  0  0  0  0  0  0  0  0  0  0
   -5.9683   10.4827   -7.7344 C   0  0  0  0  0  0  0  0  0  0  0  0
   -4.8123    9.7690   -8.0490 C   0  0  0  0  0  0  0  0  0  0  0  0
   -3.5592   10.3237   -7.7969 C   0  0  0  0  0  0  0  0  0  0  0  0
   -3.4543   11.5962   -7.2288 C   0  0  0  0  0  0  0  0  0  0  0  0
   -4.6126   12.3085   -6.9084 C   0  0  0  0  0  0  0  0  0  0  0  0
   -5.8671   11.7538   -7.1613 C   0  0  0  0  0  0  0  0  0  0  0  0
   -2.1058   12.1871   -6.9644 C   0  0  0  0  0  0  0  0  0  0  0  0
   -1.7745   13.4406   -6.4637 C   0  0  0  0  0  0  0  0  0  0  0  0
   -0.4394   13.4976   -6.4041 N   0  0  3  0  0  0  0  0  0  0  0  0
    0.1691   12.4146   -6.8015 N   0  0  0  0  0  0  0  0  0  0  0  0
   -0.8034   11.5995   -7.1773 C   0  0  0  0  0  0  0  0  0  0  0  0
    0.3694   14.6144   -5.9538 C   0  0  0  0  0  0  0  0  0  0  0  0
   -3.6497   15.1720  -11.6865 O   0  0  0  0  0  0  0  0  0  0  0  0
   -4.3650   13.6745   -9.7698 O   0  0  0  0  0  0  0  0  0  0  0  0
   -6.1257   12.2782   -9.8355 H   0  0  0  0  0  0  0  0  0  0  0  0
   -8.1227   10.1152  -13.9085 H   0  0  0  0  0  0  0  0  0  0  0  0
   -6.8205   12.2414  -14.0656 H   0  0  0  0  0  0  0  0  0  0  0  0
   -8.7541   10.5711  -11.6042 H   0  0  0  0  0  0  0  0  0  0  0  0
   -9.4072    8.9103  -11.5318 H   0  0  0  0  0  0  0  0  0  0  0  0
   -8.0330    9.5733   -7.2490 H   0  0  0  0  0  0  0  0  0  0  0  0
   -1.9543   12.6728  -11.2554 H   0  0  0  0  0  0  0  0  0  0  0  0
   -3.3298   11.5493  -11.5240 H   0  0  0  0  0  0  0  0  0  0  0  0
   -2.7704   12.6186  -12.8546 H   0  0  0  0  0  0  0  0  0  0  0  0
   -4.8884    8.7854   -8.4885 H   0  0  0  0  0  0  0  0  0  0  0  0
   -2.6658    9.7683   -8.0414 H   0  0  0  0  0  0  0  0  0  0  0  0
   -4.5366   13.2900   -6.4643 H   0  0  0  0  0  0  0  0  0  0  0  0
   -6.7612   12.3068   -6.9141 H   0  0  0  0  0  0  0  0  0  0  0  0
   -2.1568   14.2271   -7.1311 H   0  0  0  0  0  0  0  0  0  0  0  0
   -2.2034   13.5716   -5.4593 H   0  0  0  0  0  0  0  0  0  0  0  0
   -0.6430   10.6154   -7.5924 H   0  0  0  0  0  0  0  0  0  0  0  0
    1.4345   14.3489   -6.0254 H   0  0  0  0  0  0  0  0  0  0  0  0
    0.1671   15.4918   -6.5857 H   0  0  0  0  0  0  0  0  0  0  0  0
    0.1198   14.8498   -4.9087 H   0  0  0  0  0  0  0  0  0  0  0  0
  1  2  1  0  0  0  0
  1  4  1  0  0  0  0
  1 13  2  3  0  0  0
  2  6  2  0  0  0  0
  3  4  2  0  0  0  0
  3  5  1  0  0  0  0
  5  6  1  0  0  0  0
  5  9  1  0  0  0  0
  6  7  1  0  0  0  0
  7  8  2  0  0  0  0
  7 10  1  0  0  0  0
  8  9  1  0  0  0  0
 10 14  2  0  0  0  0
 11 12  1  0  0  0  0
 11 13  1  0  0  0  0
 11 26  2  0  0  0  0
 11 27  2  0  0  0  0
 14 15  1  0  0  0  0
 14 19  1  0  0  0  0
 15 16  2  0  0  0  0
 16 17  1  0  0  0  0
 17 18  1  0  0  0  0
 17 20  2  0  0  0  0
 18 19  2  0  0  0  0
 20 21  1  0  0  0  0
 20 24  1  0  0  0  0
 21 22  1  0  0  0  0
 22 23  1  0  0  0  0
 22 25  1  0  0  0  0
 23 24  2  0  0  0  0
  2 28  1  0  0  0  0
  3 29  1  0  0  0  0
  4 30  1  0  0  0  0
  5 31  1  0  0  0  0
  9 32  1  0  0  0  0
 10 33  1  0  0  0  0
 12 34  1  0  0  0  0
 12 35  1  0  0  0  0
 12 36  1  0  0  0  0
 15 37  1  0  0  0  0
 16 38  1  0  0  0  0
 18 39  1  0  0  0  0
 19 40  1  0  0  0  0
 21 41  1  0  0  0  0
 21 42  1  0  0  0  0
 24 43  1  0  0  0  0
 25 44  1  0  0  0  0
 25 45  1  0  0  0  0
 25 46  1  0  0  0  0
M  END
> <Name>
25

> <IC50[uM]>
0.073

$$$$
25
  -OEChem-05192314333D
 Structure written by MMmdl.
 46 49  0     1  0  0  0  0  0999 V2000
   -6.3861   12.3623  -11.9697 C   0  0  0  0  0  0  0  0  0  0  0  0
   -6.5480   11.8020  -10.7080 C   0  0  0  0  0  0  0  0  0  0  0  0
   -7.6869   10.5726  -13.0325 C   0  0  0  0  0  0  0  0  0  0  0  0
   -6.9529   11.7665  -13.1047 C   0  0  0  0  0  0  0  0  0  0  0  0
   -7.8210   10.0086  -11.7556 C   0  0  0  0  0  0  0  0  0  0  0  0
   -7.2636   10.6177  -10.5919 C   0  0  0  0  0  0  0  0  0  0  0  0
   -7.6330    9.7421   -9.5104 C   0  0  0  0  0  0  0  0  0  0  0  0
   -8.3023    8.7332   -9.9897 N   0  0  0  0  0  0  0  0  0  0  0  0
   -8.4342    8.8678  -11.3051 N   0  0  0  0  0  0  0  0  0  0  0  0
   -7.3415    9.8758   -8.0215 C   0  0  0  0  0  0  0  0  0  0  0  0
   -4.1211   13.8754  -11.2000 S   0  0  0  0  0  0  0  0  0  0  0  0
   -2.9188   12.5402  -11.7675 C   0  0  0  0  0  0  0  0  0  0  0  0
   -5.6382   13.5428  -12.1051 N   0  0  0  0  0  0  0  0  0  0  0  0
   -5.9683   10.4827   -7.7344 C   0  0  0  0  0  0  0  0  0  0  0  0
   -4.8123    9.7690   -8.0490 C   0  0  0  0  0  0  0  0  0  0  0  0
   -3.5592   10.3237   -7.7969 C   0  0  0  0  0  0  0  0  0  0  0  0
   -3.4543   11.5962   -7.2288 C   0  0  0  0  0  0  0  0  0  0  0  0
   -4.6126   12.3085   -6.9084 C   0  0  0  0  0  0  0  0  0  0  0  0
   -5.8671   11.7538   -7.1613 C   0  0  0  0  0  0  0  0  0  0  0  0
   -2.1058   12.1871   -6.9644 C   0  0  0  0  0  0  0  0  0  0  0  0
   -1.7745   13.4406   -6.4637 C   0  0  0  0  0  0  0  0  0  0  0  0
   -0.4394   13.4976   -6.4041 N   0  0  3  0  0  0  0  0  0  0  0  0
    0.1691   12.4146   -6.8015 N   0  0  0  0  0  0  0  0  0  0  0  0
   -0.8034   11.5995   -7.1773 C   0  0  0  0  0  0  0  0  0  0  0  0
    0.3694   14.6144   -5.9538 C   0  0  0  0  0  0  0  0  0  0  0  0
   -3.6497   15.1720  -11.6865 O   0  0  0  0  0  0  0  0  0  0  0  0
   -4.3650   13.6745   -9.7698 O   0  0  0  0  0  0  0  0  0  0  0  0
   -6.1257   12.2782   -9.8355 H   0  0  0  0  0  0  0  0  0  0  0  0
   -8.6969   10.7748  -13.4186 H   0  0  0  0  0  0  0  0  0  0  0  0
   -7.1895    9.8325  -13.6766 H   0  0  0  0  0  0  0  0  0  0  0  0
   -6.8205   12.2414  -14.0656 H   0  0  0  0  0  0  0  0  0  0  0  0
   -8.0330    9.5733   -7.2490 H   0  0  0  0  0  0  0  0  0  0  0  0
   -1.9543   12.6728  -11.2554 H   0  0  0  0  0  0  0  0  0  0  0  0
   -3.3298   11.5493  -11.5240 H   0  0  0  0  0  0  0  0  0  0  0  0
   -2.7704   12.6186  -12.8546 H   0  0  0  0  0  0  0  0  0  0  0  0
   -5.3954   13.6013  -13.0734 H   0  0  0  0  0  0  0  0  0  0  0  0
   -4.8884    8.7854   -8.4885 H   0  0  0  0  0  0  0  0  0  0  0  0
   -2.6658    9.7683   -8.0414 H   0  0  0  0  0  0  0  0  0  0  0  0
   -4.5366   13.2900   -6.4643 H   0  0  0  0  0  0  0  0  0  0  0  0
   -6.7612   12.3068   -6.9141 H   0  0  0  0  0  0  0  0  0  0  0  0
   -2.1568   14.2271   -7.1311 H   0  0  0  0  0  0  0  0  0  0  0  0
   -2.2034   13.5716   -5.4593 H   0  0  0  0  0  0  0  0  0  0  0  0
   -0.6430   10.6154   -7.5924 H   0  0  0  0  0  0  0  0  0  0  0  0
    1.4345   14.3489   -6.0254 H   0  0  0  0  0  0  0  0  0  0  0  0
    0.1671   15.4918   -6.5857 H   0  0  0  0  0  0  0  0  0  0  0  0
    0.1198   14.8498   -4.9087 H   0  0  0  0  0  0  0  0  0  0  0  0
  1  2  1  0  0  0  0
  1  4  2  0  0  0  0
  1 13  1  0  0  0  0
  2  6  2  0  0  0  0
  3  4  1  0  0  0  0
  3  5  1  0  0  0  0
  5  6  1  0  0  0  0
  5  9  2  0  0  0  0
  6  7  1  0  0  0  0
  7  8  2  0  0  0  0
  7 10  1  0  0  0  0
  8  9  1  0  0  0  0
 10 14  2  0  0  0  0
 11 12  1  0  0  0  0
 11 13  1  0  0  0  0
 11 26  2  0  0  0  0
 11 27  2  0  0  0  0
 14 15  1  0  0  0  0
 14 19  1  0  0  0  0
 15 16  2  0  0  0  0
 16 17  1  0  0  0  0
 17 18  1  0  0  0  0
 17 20  2  0  0  0  0
 18 19  2  0  0  0  0
 20 21  1  0  0  0  0
 20 24  1  0  0  0  0
 21 22  1  0  0  0  0
 22 23  1  0  0  0  0
 22 25  1  0  0  0  0
 23 24  2  0  0  0  0
  2 28  1  0  0  0  0
  3 29  1  0  0  0  0
  3 30  1  0  0  0  0
  4 31  1  0  0  0  0
 10 32  1  0  0  0  0
 12 33  1  0  0  0  0
 12 34  1  0  0  0  0
 12 35  1  0  0  0  0
 13 36  1  0  0  0  0
 15 37  1  0  0  0  0
 16 38  1  0  0  0  0
 18 39  1  0  0  0  0
 19 40  1  0  0  0  0
 21 41  1  0  0  0  0
 21 42  1  0  0  0  0
 24 43  1  0  0  0  0
 25 44  1  0  0  0  0
 25 45  1  0  0  0  0
 25 46  1  0  0  0  0
M  END
> <Name>
25

> <IC50[uM]>
0.073

$$$$
25
  -OEChem-05192314333D
 Structure written by MMmdl.
 46 49  0     1  0  0  0  0  0999 V2000
   -6.3861   12.3623  -11.9697 C   0  0  0  0  0  0  0  0  0  0  0  0
   -6.5480   11.8020  -10.7080 C   0  0  0  0  0  0  0  0  0  0  0  0
   -7.6869   10.5726  -13.0325 C   0  0  0  0  0  0  0  0  0  0  0  0
   -6.9529   11.7665  -13.1047 C   0  0  0  0  0  0  0  0  0  0  0  0
   -7.8210   10.0086  -11.7556 C   0  0  0  0  0  0  0  0  0  0  0  0
   -7.2636   10.6177  -10.5919 C   0  0  0  0  0  0  0  0  0  0  0  0
   -7.6330    9.7421   -9.5104 C   0  0  0  0  0  0  0  0  0  0  0  0
   -8.3023    8.7332   -9.9897 N   0  0  0  0  0  0  0  0  0  0  0  0
   -8.4342    8.8678  -11.3051 N   0  0  0  0  0  0  0  0  0  0  0  0
   -7.3415    9.8758   -8.0215 C   0  0  0  0  0  0  0  0  0  0  0  0
   -4.1211   13.8754  -11.2000 S   0  0  0  0  0  0  0  0  0  0  0  0
   -2.9188   12.5402  -11.7675 C   0  0  0  0  0  0  0  0  0  0  0  0
   -5.6382   13.5428  -12.1051 N   0  0  0  0  0  0  0  0  0  0  0  0
   -5.9683   10.4827   -7.7344 C   0  0  0  0  0  0  0  0  0  0  0  0
   -4.8123    9.7690   -8.0490 C   0  0  0  0  0  0  0  0  0  0  0  0
   -3.5592   10.3237   -7.7969 C   0  0  0  0  0  0  0  0  0  0  0  0
   -3.4543   11.5962   -7.2288 C   0  0  0  0  0  0  0  0  0  0  0  0
   -4.6126   12.3085   -6.9084 C   0  0  0  0  0  0  0  0  0  0  0  0
   -5.8671   11.7538   -7.1613 C   0  0  0  0  0  0  0  0  0  0  0  0
   -2.1058   12.1871   -6.9644 C   0  0  0  0  0  0  0  0  0  0  0  0
   -1.7745   13.4406   -6.4637 C   0  0  0  0  0  0  0  0  0  0  0  0
   -0.4394   13.4976   -6.4041 N   0  0  3  0  0  0  0  0  0  0  0  0
    0.1691   12.4146   -6.8015 N   0  0  0  0  0  0  0  0  0  0  0  0
   -0.8034   11.5995   -7.1773 C   0  0  0  0  0  0  0  0  0  0  0  0
    0.3694   14.6144   -5.9538 C   0  0  0  0  0  0  0  0  0  0  0  0
   -3.6497   15.1720  -11.6865 O   0  0  0  0  0  0  0  0  0  0  0  0
   -4.3650   13.6745   -9.7698 O   0  0  0  0  0  0  0  0  0  0  0  0
   -6.1257   12.2782   -9.8355 H   0  0  0  0  0  0  0  0  0  0  0  0
   -8.1227   10.1152  -13.9085 H   0  0  0  0  0  0  0  0  0  0  0  0
   -6.8205   12.2414  -14.0656 H   0  0  0  0  0  0  0  0  0  0  0  0
   -8.0330    9.5733   -7.2490 H   0  0  0  0  0  0  0  0  0  0  0  0
   -1.9543   12.6728  -11.2554 H   0  0  0  0  0  0  0  0  0  0  0  0
   -3.3298   11.5493  -11.5240 H   0  0  0  0  0  0  0  0  0  0  0  0
   -2.7704   12.6186  -12.8546 H   0  0  0  0  0  0  0  0  0  0  0  0
   -4.8884    8.7854   -8.4885 H   0  0  0  0  0  0  0  0  0  0  0  0
   -2.6658    9.7683   -8.0414 H   0  0  0  0  0  0  0  0  0  0  0  0
   -4.5366   13.2900   -6.4643 H   0  0  0  0  0  0  0  0  0  0  0  0
   -6.7612   12.3068   -6.9141 H   0  0  0  0  0  0  0  0  0  0  0  0
   -2.1568   14.2271   -7.1311 H   0  0  0  0  0  0  0  0  0  0  0  0
   -2.2034   13.5716   -5.4593 H   0  0  0  0  0  0  0  0  0  0  0  0
    0.7780   12.6141   -7.5692 H   0  0  0  0  0  0  0  0  0  0  0  0
   -0.7330   10.6686   -6.5955 H   0  0  0  0  0  0  0  0  0  0  0  0
   -0.6852   11.3731   -8.2472 H   0  0  0  0  0  0  0  0  0  0  0  0
    1.4345   14.3488   -6.0253 H   0  0  0  0  0  0  0  0  0  0  0  0
    0.1672   15.4917   -6.5858 H   0  0  0  0  0  0  0  0  0  0  0  0
    0.1197   14.8499   -4.9087 H   0  0  0  0  0  0  0  0  0  0  0  0
  1  2  1  0  0  0  0
  1  4  1  0  0  0  0
  1 13  2  3  0  0  0
  2  6  2  0  0  0  0
  3  4  2  0  0  0  0
  3  5  1  0  0  0  0
  5  6  1  0  0  0  0
  5  9  2  0  0  0  0
  6  7  1  0  0  0  0
  7  8  2  0  0  0  0
  7 10  1  0  0  0  0
  8  9  1  0  0  0  0
 10 14  2  0  0  0  0
 11 12  1  0  0  0  0
 11 13  1  0  0  0  0
 11 26  2  0  0  0  0
 11 27  2  0  0  0  0
 14 15  1  0  0  0  0
 14 19  1  0  0  0  0
 15 16  2  0  0  0  0
 16 17  1  0  0  0  0
 17 18  1  0  0  0  0
 17 20  2  0  0  0  0
 18 19  2  0  0  0  0
 20 21  1  0  0  0  0
 20 24  1  0  0  0  0
 21 22  1  0  0  0  0
 22 23  1  0  0  0  0
 22 25  1  0  0  0  0
 23 24  1  0  0  0  0
  2 28  1  0  0  0  0
  3 29  1  0  0  0  0
  4 30  1  0  0  0  0
 10 31  1  0  0  0  0
 12 32  1  0  0  0  0
 12 33  1  0  0  0  0
 12 34  1  0  0  0  0
 15 35  1  0  0  0  0
 16 36  1  0  0  0  0
 18 37  1  0  0  0  0
 19 38  1  0  0  0  0
 21 39  1  0  0  0  0
 21 40  1  0  0  0  0
 23 41  1  0  0  0  0
 24 42  1  0  0  0  0
 24 43  1  0  0  0  0
 25 44  1  0  0  0  0
 25 45  1  0  0  0  0
 25 46  1  0  0  0  0
M  END
> <Name>
25

> <IC50[uM]>
0.073

$$$$
25
  -OEChem-05192314333D
 Structure written by MMmdl.
 46 49  0     1  0  0  0  0  0999 V2000
   -6.3861   12.3623  -11.9697 C   0  0  0  0  0  0  0  0  0  0  0  0
   -6.5480   11.8020  -10.7080 C   0  0  0  0  0  0  0  0  0  0  0  0
   -7.6869   10.5726  -13.0325 C   0  0  0  0  0  0  0  0  0  0  0  0
   -6.9529   11.7665  -13.1047 C   0  0  0  0  0  0  0  0  0  0  0  0
   -7.8210   10.0086  -11.7556 C   0  0  3  0  0  0  0  0  0  0  0  0
   -7.2636   10.6177  -10.5919 C   0  0  0  0  0  0  0  0  0  0  0  0
   -7.6330    9.7421   -9.5104 C   0  0  0  0  0  0  0  0  0  0  0  0
   -8.3023    8.7332   -9.9897 N   0  0  0  0  0  0  0  0  0  0  0  0
   -8.4342    8.8678  -11.3051 N   0  0  0  0  0  0  0  0  0  0  0  0
   -7.3415    9.8758   -8.0215 C   0  0  0  0  0  0  0  0  0  0  0  0
   -4.1211   13.8754  -11.2000 S   0  0  0  0  0  0  0  0  0  0  0  0
   -2.9188   12.5402  -11.7675 C   0  0  0  0  0  0  0  0  0  0  0  0
   -5.6382   13.5428  -12.1051 N   0  0  0  0  0  0  0  0  0  0  0  0
   -5.9683   10.4827   -7.7344 C   0  0  0  0  0  0  0  0  0  0  0  0
   -4.8123    9.7690   -8.0490 C   0  0  0  0  0  0  0  0  0  0  0  0
   -3.5592   10.3237   -7.7969 C   0  0  0  0  0  0  0  0  0  0  0  0
   -3.4543   11.5962   -7.2288 C   0  0  0  0  0  0  0  0  0  0  0  0
   -4.6126   12.3085   -6.9084 C   0  0  0  0  0  0  0  0  0  0  0  0
   -5.8671   11.7538   -7.1613 C   0  0  0  0  0  0  0  0  0  0  0  0
   -2.1058   12.1871   -6.9644 C   0  0  0  0  0  0  0  0  0  0  0  0
   -1.7745   13.4406   -6.4637 C   0  0  0  0  0  0  0  0  0  0  0  0
   -0.4394   13.4976   -6.4041 N   0  0  3  0  0  0  0  0  0  0  0  0
    0.1691   12.4146   -6.8015 N   0  0  0  0  0  0  0  0  0  0  0  0
   -0.8034   11.5995   -7.1773 C   0  0  0  0  0  0  0  0  0  0  0  0
    0.3694   14.6144   -5.9538 C   0  0  0  0  0  0  0  0  0  0  0  0
   -3.6497   15.1720  -11.6865 O   0  0  0  0  0  0  0  0  0  0  0  0
   -4.3650   13.6745   -9.7698 O   0  0  0  0  0  0  0  0  0  0  0  0
   -6.1257   12.2782   -9.8355 H   0  0  0  0  0  0  0  0  0  0  0  0
   -8.1227   10.1152  -13.9085 H   0  0  0  0  0  0  0  0  0  0  0  0
   -6.8205   12.2414  -14.0656 H   0  0  0  0  0  0  0  0  0  0  0  0
   -8.7541   10.5711  -11.6042 H   0  0  0  0  0  0  0  0  0  0  0  0
   -8.0330    9.5733   -7.2490 H   0  0  0  0  0  0  0  0  0  0  0  0
   -1.9543   12.6728  -11.2554 H   0  0  0  0  0  0  0  0  0  0  0  0
   -3.3298   11.5493  -11.5240 H   0  0  0  0  0  0  0  0  0  0  0  0
   -2.7704   12.6186  -12.8546 H   0  0  0  0  0  0  0  0  0  0  0  0
   -5.3954   13.6013  -13.0734 H   0  0  0  0  0  0  0  0  0  0  0  0
   -4.8884    8.7854   -8.4885 H   0  0  0  0  0  0  0  0  0  0  0  0
   -2.6658    9.7683   -8.0414 H   0  0  0  0  0  0  0  0  0  0  0  0
   -4.5366   13.2900   -6.4643 H   0  0  0  0  0  0  0  0  0  0  0  0
   -6.7612   12.3068   -6.9141 H   0  0  0  0  0  0  0  0  0  0  0  0
   -2.1568   14.2271   -7.1311 H   0  0  0  0  0  0  0  0  0  0  0  0
   -2.2034   13.5716   -5.4593 H   0  0  0  0  0  0  0  0  0  0  0  0
   -0.6430   10.6154   -7.5924 H   0  0  0  0  0  0  0  0  0  0  0  0
    1.4345   14.3489   -6.0254 H   0  0  0  0  0  0  0  0  0  0  0  0
    0.1671   15.4918   -6.5857 H   0  0  0  0  0  0  0  0  0  0  0  0
    0.1198   14.8498   -4.9087 H   0  0  0  0  0  0  0  0  0  0  0  0
  1  2  2  0  0  0  0
  1  4  1  0  0  0  0
  1 13  1  0  0  0  0
  2  6  1  0  0  0  0
  3  4  2  0  0  0  0
  3  5  1  0  0  0  0
  5  6  1  0  0  0  0
  5  9  1  0  0  0  0
  6  7  2  0  0  0  0
  7  8  1  0  0  0  0
  7 10  1  0  0  0  0
  8  9  2  0  0  0  0
 10 14  2  0  0  0  0
 11 12  1  0  0  0  0
 11 13  1  0  0  0  0
 11 26  2  0  0  0  0
 11 27  2  0  0  0  0
 14 15  1  0  0  0  0
 14 19  1  0  0  0  0
 15 16  2  0  0  0  0
 16 17  1  0  0  0  0
 17 18  1  0  0  0  0
 17 20  2  0  0  0  0
 18 19  2  0  0  0  0
 20 21  1  0  0  0  0
 20 24  1  0  0  0  0
 21 22  1  0  0  0  0
 22 23  1  0  0  0  0
 22 25  1  0  0  0  0
 23 24  2  0  0  0  0
  2 28  1  0  0  0  0
  3 29  1  0  0  0  0
  4 30  1  0  0  0  0
  5 31  1  0  0  0  0
 10 32  1  0  0  0  0
 12 33  1  0  0  0  0
 12 34  1  0  0  0  0
 12 35  1  0  0  0  0
 13 36  1  0  0  0  0
 15 37  1  0  0  0  0
 16 38  1  0  0  0  0
 18 39  1  0  0  0  0
 19 40  1  0  0  0  0
 21 41  1  0  0  0  0
 21 42  1  0  0  0  0
 24 43  1  0  0  0  0
 25 44  1  0  0  0  0
 25 45  1  0  0  0  0
 25 46  1  0  0  0  0
M  END
> <Name>
25

> <IC50[uM]>
0.073

$$$$
25
  -OEChem-05192314333D
 Structure written by MMmdl.
 46 49  0     1  0  0  0  0  0999 V2000
   -6.3861   12.3623  -11.9697 C   0  0  0  0  0  0  0  0  0  0  0  0
   -6.5480   11.8020  -10.7080 C   0  0  0  0  0  0  0  0  0  0  0  0
   -7.6869   10.5726  -13.0325 C   0  0  0  0  0  0  0  0  0  0  0  0
   -6.9529   11.7665  -13.1047 C   0  0  0  0  0  0  0  0  0  0  0  0
   -7.8210   10.0086  -11.7556 C   0  0  0  0  0  0  0  0  0  0  0  0
   -7.2636   10.6177  -10.5919 C   0  0  0  0  0  0  0  0  0  0  0  0
   -7.6330    9.7421   -9.5104 C   0  0  0  0  0  0  0  0  0  0  0  0
   -8.3023    8.7332   -9.9897 N   0  0  0  0  0  0  0  0  0  0  0  0
   -8.4342    8.8678  -11.3051 N   0  0  0  0  0  0  0  0  0  0  0  0
   -7.3415    9.8758   -8.0215 C   0  0  0  0  0  0  0  0  0  0  0  0
   -4.1211   13.8754  -11.2000 S   0  0  0  0  0  0  0  0  0  0  0  0
   -2.9188   12.5402  -11.7675 C   0  0  0  0  0  0  0  0  0  0  0  0
   -5.6382   13.5428  -12.1051 N   0  0  0  0  0  0  0  0  0  0  0  0
   -5.9683   10.4827   -7.7344 C   0  0  0  0  0  0  0  0  0  0  0  0
   -4.8123    9.7690   -8.0490 C   0  0  0  0  0  0  0  0  0  0  0  0
   -3.5592   10.3237   -7.7969 C   0  0  0  0  0  0  0  0  0  0  0  0
   -3.4543   11.5962   -7.2288 C   0  0  0  0  0  0  0  0  0  0  0  0
   -4.6126   12.3085   -6.9084 C   0  0  0  0  0  0  0  0  0  0  0  0
   -5.8671   11.7538   -7.1613 C   0  0  0  0  0  0  0  0  0  0  0  0
   -2.1058   12.1871   -6.9644 C   0  0  0  0  0  0  0  0  0  0  0  0
   -1.7745   13.4406   -6.4637 C   0  0  0  0  0  0  0  0  0  0  0  0
   -0.4394   13.4976   -6.4041 N   0  0  3  0  0  0  0  0  0  0  0  0
    0.1691   12.4146   -6.8015 N   0  0  0  0  0  0  0  0  0  0  0  0
   -0.8034   11.5995   -7.1773 C   0  0  0  0  0  0  0  0  0  0  0  0
    0.3694   14.6144   -5.9538 C   0  0  0  0  0  0  0  0  0  0  0  0
   -3.6497   15.1720  -11.6865 O   0  0  0  0  0  0  0  0  0  0  0  0
   -4.3650   13.6745   -9.7698 O   0  0  0  0  0  0  0  0  0  0  0  0
   -6.1257   12.2782   -9.8355 H   0  0  0  0  0  0  0  0  0  0  0  0
   -8.1227   10.1152  -13.9085 H   0  0  0  0  0  0  0  0  0  0  0  0
   -7.6287   12.5169  -13.5407 H   0  0  0  0  0  0  0  0  0  0  0  0
   -6.1214   11.5746  -13.7988 H   0  0  0  0  0  0  0  0  0  0  0  0
   -8.0330    9.5733   -7.2490 H   0  0  0  0  0  0  0  0  0  0  0  0
   -1.9543   12.6728  -11.2554 H   0  0  0  0  0  0  0  0  0  0  0  0
   -3.3298   11.5493  -11.5240 H   0  0  0  0  0  0  0  0  0  0  0  0
   -2.7704   12.6186  -12.8546 H   0  0  0  0  0  0  0  0  0  0  0  0
   -5.3954   13.6013  -13.0734 H   0  0  0  0  0  0  0  0  0  0  0  0
   -4.8884    8.7854   -8.4885 H   0  0  0  0  0  0  0  0  0  0  0  0
   -2.6658    9.7683   -8.0414 H   0  0  0  0  0  0  0  0  0  0  0  0
   -4.5366   13.2900   -6.4643 H   0  0  0  0  0  0  0  0  0  0  0  0
   -6.7612   12.3068   -6.9141 H   0  0  0  0  0  0  0  0  0  0  0  0
   -2.1568   14.2271   -7.1311 H   0  0  0  0  0  0  0  0  0  0  0  0
   -2.2034   13.5716   -5.4593 H   0  0  0  0  0  0  0  0  0  0  0  0
   -0.6430   10.6154   -7.5924 H   0  0  0  0  0  0  0  0  0  0  0  0
    1.4345   14.3489   -6.0254 H   0  0  0  0  0  0  0  0  0  0  0  0
    0.1671   15.4918   -6.5857 H   0  0  0  0  0  0  0  0  0  0  0  0
    0.1198   14.8498   -4.9087 H   0  0  0  0  0  0  0  0  0  0  0  0
  1  2  2  0  0  0  0
  1  4  1  0  0  0  0
  1 13  1  0  0  0  0
  2  6  1  0  0  0  0
  3  4  1  0  0  0  0
  3  5  2  0  0  0  0
  5  6  1  0  0  0  0
  5  9  1  0  0  0  0
  6  7  2  0  0  0  0
  7  8  1  0  0  0  0
  7 10  1  0  0  0  0
  8  9  2  0  0  0  0
 10 14  2  0  0  0  0
 11 12  1  0  0  0  0
 11 13  1  0  0  0  0
 11 26  2  0  0  0  0
 11 27  2  0  0  0  0
 14 15  1  0  0  0  0
 14 19  1  0  0  0  0
 15 16  2  0  0  0  0
 16 17  1  0  0  0  0
 17 18  1  0  0  0  0
 17 20  2  0  0  0  0
 18 19  2  0  0  0  0
 20 21  1  0  0  0  0
 20 24  1  0  0  0  0
 21 22  1  0  0  0  0
 22 23  1  0  0  0  0
 22 25  1  0  0  0  0
 23 24  2  0  0  0  0
  2 28  1  0  0  0  0
  3 29  1  0  0  0  0
  4 30  1  0  0  0  0
  4 31  1  0  0  0  0
 10 32  1  0  0  0  0
 12 33  1  0  0  0  0
 12 34  1  0  0  0  0
 12 35  1  0  0  0  0
 13 36  1  0  0  0  0
 15 37  1  0  0  0  0
 16 38  1  0  0  0  0
 18 39  1  0  0  0  0
 19 40  1  0  0  0  0
 21 41  1  0  0  0  0
 21 42  1  0  0  0  0
 24 43  1  0  0  0  0
 25 44  1  0  0  0  0
 25 45  1  0  0  0  0
 25 46  1  0  0  0  0
M  END
> <Name>
25

> <IC50[uM]>
0.073

$$$$
25
  -OEChem-05192314333D
 Structure written by MMmdl.
 46 49  0     1  0  0  0  0  0999 V2000
   -6.3861   12.3623  -11.9697 C   0  0  0  0  0  0  0  0  0  0  0  0
   -6.5480   11.8020  -10.7080 C   0  0  0  0  0  0  0  0  0  0  0  0
   -7.6869   10.5726  -13.0325 C   0  0  0  0  0  0  0  0  0  0  0  0
   -6.9529   11.7665  -13.1047 C   0  0  0  0  0  0  0  0  0  0  0  0
   -7.8210   10.0086  -11.7556 C   0  0  0  0  0  0  0  0  0  0  0  0
   -7.2636   10.6177  -10.5919 C   0  0  0  0  0  0  0  0  0  0  0  0
   -7.6330    9.7421   -9.5104 C   0  0  0  0  0  0  0  0  0  0  0  0
   -8.3023    8.7332   -9.9897 N   0  0  0  0  0  0  0  0  0  0  0  0
   -8.4342    8.8678  -11.3051 N   0  0  0  0  0  0  0  0  0  0  0  0
   -7.3415    9.8758   -8.0215 C   0  0  0  0  0  0  0  0  0  0  0  0
   -4.1211   13.8754  -11.2000 S   0  0  0  0  0  0  0  0  0  0  0  0
   -2.9188   12.5402  -11.7675 C   0  0  0  0  0  0  0  0  0  0  0  0
   -5.6382   13.5428  -12.1051 N   0  0  0  0  0  0  0  0  0  0  0  0
   -5.9683   10.4827   -7.7344 C   0  0  0  0  0  0  0  0  0  0  0  0
   -4.8123    9.7690   -8.0490 C   0  0  0  0  0  0  0  0  0  0  0  0
   -3.5592   10.3237   -7.7969 C   0  0  0  0  0  0  0  0  0  0  0  0
   -3.4543   11.5962   -7.2288 C   0  0  0  0  0  0  0  0  0  0  0  0
   -4.6126   12.3085   -6.9084 C   0  0  0  0  0  0  0  0  0  0  0  0
   -5.8671   11.7538   -7.1613 C   0  0  0  0  0  0  0  0  0  0  0  0
   -2.1058   12.1871   -6.9644 C   0  0  0  0  0  0  0  0  0  0  0  0
   -1.7745   13.4406   -6.4637 C   0  0  0  0  0  0  0  0  0  0  0  0
   -0.4394   13.4976   -6.4041 N   0  0  3  0  0  0  0  0  0  0  0  0
    0.1691   12.4146   -6.8015 N   0  0  0  0  0  0  0  0  0  0  0  0
   -0.8034   11.5995   -7.1773 C   0  0  0  0  0  0  0  0  0  0  0  0
    0.3694   14.6144   -5.9538 C   0  0  0  0  0  0  0  0  0  0  0  0
   -3.6497   15.1720  -11.6865 O   0  0  0  0  0  0  0  0  0  0  0  0
   -4.3650   13.6745   -9.7698 O   0  0  0  0  0  0  0  0  0  0  0  0
   -5.5417   11.6132  -10.3059 H   0  0  0  0  0  0  0  0  0  0  0  0
   -7.0576   12.5509  -10.0840 H   0  0  0  0  0  0  0  0  0  0  0  0
   -8.1227   10.1152  -13.9085 H   0  0  0  0  0  0  0  0  0  0  0  0
   -6.8205   12.2414  -14.0656 H   0  0  0  0  0  0  0  0  0  0  0  0
   -8.0330    9.5733   -7.2490 H   0  0  0  0  0  0  0  0  0  0  0  0
   -1.9543   12.6728  -11.2554 H   0  0  0  0  0  0  0  0  0  0  0  0
   -3.3298   11.5493  -11.5240 H   0  0  0  0  0  0  0  0  0  0  0  0
   -2.7704   12.6186  -12.8546 H   0  0  0  0  0  0  0  0  0  0  0  0
   -5.3954   13.6013  -13.0734 H   0  0  0  0  0  0  0  0  0  0  0  0
   -4.8884    8.7854   -8.4885 H   0  0  0  0  0  0  0  0  0  0  0  0
   -2.6658    9.7683   -8.0414 H   0  0  0  0  0  0  0  0  0  0  0  0
   -4.5366   13.2900   -6.4643 H   0  0  0  0  0  0  0  0  0  0  0  0
   -6.7612   12.3068   -6.9141 H   0  0  0  0  0  0  0  0  0  0  0  0
   -2.1568   14.2271   -7.1311 H   0  0  0  0  0  0  0  0  0  0  0  0
   -2.2034   13.5716   -5.4593 H   0  0  0  0  0  0  0  0  0  0  0  0
   -0.6430   10.6154   -7.5924 H   0  0  0  0  0  0  0  0  0  0  0  0
    1.4345   14.3489   -6.0254 H   0  0  0  0  0  0  0  0  0  0  0  0
    0.1671   15.4918   -6.5857 H   0  0  0  0  0  0  0  0  0  0  0  0
    0.1198   14.8498   -4.9087 H   0  0  0  0  0  0  0  0  0  0  0  0
  1  2  1  0  0  0  0
  1  4  2  0  0  0  0
  1 13  1  0  0  0  0
  2  6  1  0  0  0  0
  3  4  1  0  0  0  0
  3  5  2  0  0  0  0
  5  6  1  0  0  0  0
  5  9  1  0  0  0  0
  6  7  2  0  0  0  0
  7  8  1  0  0  0  0
  7 10  1  0  0  0  0
  8  9  2  0  0  0  0
 10 14  2  0  0  0  0
 11 12  1  0  0  0  0
 11 13  1  0  0  0  0
 11 26  2  0  0  0  0
 11 27  2  0  0  0  0
 14 15  1  0  0  0  0
 14 19  1  0  0  0  0
 15 16  2  0  0  0  0
 16 17  1  0  0  0  0
 17 18  1  0  0  0  0
 17 20  2  0  0  0  0
 18 19  2  0  0  0  0
 20 21  1  0  0  0  0
 20 24  1  0  0  0  0
 21 22  1  0  0  0  0
 22 23  1  0  0  0  0
 22 25  1  0  0  0  0
 23 24  2  0  0  0  0
  2 28  1  0  0  0  0
  2 29  1  0  0  0  0
  3 30  1  0  0  0  0
  4 31  1  0  0  0  0
 10 32  1  0  0  0  0
 12 33  1  0  0  0  0
 12 34  1  0  0  0  0
 12 35  1  0  0  0  0
 13 36  1  0  0  0  0
 15 37  1  0  0  0  0
 16 38  1  0  0  0  0
 18 39  1  0  0  0  0
 19 40  1  0  0  0  0
 21 41  1  0  0  0  0
 21 42  1  0  0  0  0
 24 43  1  0  0  0  0
 25 44  1  0  0  0  0
 25 45  1  0  0  0  0
 25 46  1  0  0  0  0
M  END
> <Name>
25

> <IC50[uM]>
0.073

$$$$
25
  -OEChem-05192314333D
 Structure written by MMmdl.
 46 49  0     0  0  0  0  0  0999 V2000
   -6.3861   12.3623  -11.9697 C   0  0  0  0  0  0  0  0  0  0  0  0
   -6.5480   11.8020  -10.7080 C   0  0  0  0  0  0  0  0  0  0  0  0
   -7.6869   10.5726  -13.0325 C   0  0  0  0  0  0  0  0  0  0  0  0
   -6.9529   11.7665  -13.1047 C   0  0  0  0  0  0  0  0  0  0  0  0
   -7.8210   10.0086  -11.7556 C   0  0  0  0  0  0  0  0  0  0  0  0
   -7.2636   10.6177  -10.5919 C   0  0  0  0  0  0  0  0  0  0  0  0
   -7.6330    9.7421   -9.5104 C   0  0  0  0  0  0  0  0  0  0  0  0
   -8.3023    8.7332   -9.9897 N   0  0  0  0  0  0  0  0  0  0  0  0
   -8.4342    8.8678  -11.3051 N   0  0  0  0  0  0  0  0  0  0  0  0
   -7.3415    9.8758   -8.0215 C   0  0  0  0  0  0  0  0  0  0  0  0
   -4.1211   13.8754  -11.2000 S   0  0  0  0  0  0  0  0  0  0  0  0
   -2.9188   12.5402  -11.7675 C   0  0  0  0  0  0  0  0  0  0  0  0
   -5.6382   13.5428  -12.1051 N   0  0  0  0  0  0  0  0  0  0  0  0
   -5.9683   10.4827   -7.7344 C   0  0  0  0  0  0  0  0  0  0  0  0
   -4.8123    9.7690   -8.0490 C   0  0  0  0  0  0  0  0  0  0  0  0
   -3.5592   10.3237   -7.7969 C   0  0  0  0  0  0  0  0  0  0  0  0
   -3.4543   11.5962   -7.2288 C   0  0  0  0  0  0  0  0  0  0  0  0
   -4.6126   12.3085   -6.9084 C   0  0  0  0  0  0  0  0  0  0  0  0
   -5.8671   11.7538   -7.1613 C   0  0  0  0  0  0  0  0  0  0  0  0
   -2.1058   12.1871   -6.9644 C   0  0  0  0  0  0  0  0  0  0  0  0
   -1.7745   13.4406   -6.4637 C   0  0  0  0  0  0  0  0  0  0  0  0
   -0.4394   13.4976   -6.4041 N   0  0  0  0  0  0  0  0  0  0  0  0
    0.1691   12.4146   -6.8015 N   0  0  0  0  0  0  0  0  0  0  0  0
   -0.8034   11.5995   -7.1773 C   0  0  0  0  0  0  0  0  0  0  0  0
    0.3694   14.6144   -5.9538 C   0  0  0  0  0  0  0  0  0  0  0  0
   -3.6497   15.1720  -11.6865 O   0  0  0  0  0  0  0  0  0  0  0  0
   -4.3650   13.6745   -9.7698 O   0  0  0  0  0  0  0  0  0  0  0  0
   -6.1257   12.2782   -9.8355 H   0  0  0  0  0  0  0  0  0  0  0  0
   -8.6969   10.7748  -13.4186 H   0  0  0  0  0  0  0  0  0  0  0  0
   -7.1895    9.8325  -13.6766 H   0  0  0  0  0  0  0  0  0  0  0  0
   -7.6287   12.5169  -13.5407 H   0  0  0  0  0  0  0  0  0  0  0  0
   -6.1214   11.5746  -13.7988 H   0  0  0  0  0  0  0  0  0  0  0  0
   -8.0330    9.5733   -7.2490 H   0  0  0  0  0  0  0  0  0  0  0  0
   -1.9543   12.6728  -11.2554 H   0  0  0  0  0  0  0  0  0  0  0  0
   -3.3298   11.5493  -11.5240 H   0  0  0  0  0  0  0  0  0  0  0  0
   -2.7704   12.6186  -12.8546 H   0  0  0  0  0  0  0  0  0  0  0  0
   -4.8884    8.7854   -8.4885 H   0  0  0  0  0  0  0  0  0  0  0  0
   -2.6658    9.7683   -8.0414 H   0  0  0  0  0  0  0  0  0  0  0  0
   -3.4550   12.0453   -8.2329 H   0  0  0  0  0  0  0  0  0  0  0  0
   -4.5366   13.2900   -6.4643 H   0  0  0  0  0  0  0  0  0  0  0  0
   -6.7612   12.3068   -6.9141 H   0  0  0  0  0  0  0  0  0  0  0  0
   -2.4642   14.2207   -6.1771 H   0  0  0  0  0  0  0  0  0  0  0  0
   -0.6430   10.6154   -7.5924 H   0  0  0  0  0  0  0  0  0  0  0  0
    1.4345   14.3489   -6.0254 H   0  0  0  0  0  0  0  0  0  0  0  0
    0.1671   15.4918   -6.5857 H   0  0  0  0  0  0  0  0  0  0  0  0
    0.1198   14.8498   -4.9087 H   0  0  0  0  0  0  0  0  0  0  0  0
  1  2  1  0  0  0  0
  1  4  1  0  0  0  0
  1 13  2  3  0  0  0
  2  6  2  0  0  0  0
  3  4  1  0  0  0  0
  3  5  1  0  0  0  0
  5  6  1  0  0  0  0
  5  9  2  0  0  0  0
  6  7  1  0  0  0  0
  7  8  2  0  0  0  0
  7 10  1  0  0  0  0
  8  9  1  0  0  0  0
 10 14  2  0  0  0  0
 11 12  1  0  0  0  0
 11 13  1  0  0  0  0
 11 26  2  0  0  0  0
 11 27  2  0  0  0  0
 14 15  1  0  0  0  0
 14 19  1  0  0  0  0
 15 16  2  0  0  0  0
 16 17  1  0  0  0  0
 17 18  1  0  0  0  0
 17 20  1  0  0  0  0
 18 19  2  0  0  0  0
 20 21  2  0  0  0  0
 20 24  1  0  0  0  0
 21 22  1  0  0  0  0
 22 23  1  0  0  0  0
 22 25  1  0  0  0  0
 23 24  2  0  0  0  0
  2 28  1  0  0  0  0
  3 29  1  0  0  0  0
  3 30  1  0  0  0  0
  4 31  1  0  0  0  0
  4 32  1  0  0  0  0
 10 33  1  0  0  0  0
 12 34  1  0  0  0  0
 12 35  1  0  0  0  0
 12 36  1  0  0  0  0
 15 37  1  0  0  0  0
 16 38  1  0  0  0  0
 17 39  1  0  0  0  0
 18 40  1  0  0  0  0
 19 41  1  0  0  0  0
 21 42  1  0  0  0  0
 24 43  1  0  0  0  0
 25 44  1  0  0  0  0
 25 45  1  0  0  0  0
 25 46  1  0  0  0  0
M  END
> <Name>
25

> <IC50[uM]>
0.073

$$$$
25
  -OEChem-05192314333D
 Structure written by MMmdl.
 46 49  0     0  0  0  0  0  0999 V2000
   -6.3861   12.3623  -11.9697 C   0  0  0  0  0  0  0  0  0  0  0  0
   -6.5480   11.8020  -10.7080 C   0  0  0  0  0  0  0  0  0  0  0  0
   -7.6869   10.5726  -13.0325 C   0  0  0  0  0  0  0  0  0  0  0  0
   -6.9529   11.7665  -13.1047 C   0  0  0  0  0  0  0  0  0  0  0  0
   -7.8210   10.0086  -11.7556 C   0  0  0  0  0  0  0  0  0  0  0  0
   -7.2636   10.6177  -10.5919 C   0  0  0  0  0  0  0  0  0  0  0  0
   -7.6330    9.7421   -9.5104 C   0  0  0  0  0  0  0  0  0  0  0  0
   -8.3023    8.7332   -9.9897 N   0  0  0  0  0  0  0  0  0  0  0  0
   -8.4342    8.8678  -11.3051 N   0  0  0  0  0  0  0  0  0  0  0  0
   -7.3415    9.8758   -8.0215 C   0  0  0  0  0  0  0  0  0  0  0  0
   -4.1211   13.8754  -11.2000 S   0  0  0  0  0  0  0  0  0  0  0  0
   -2.9188   12.5402  -11.7675 C   0  0  0  0  0  0  0  0  0  0  0  0
   -5.6382   13.5428  -12.1051 N   0  0  0  0  0  0  0  0  0  0  0  0
   -5.9683   10.4827   -7.7344 C   0  0  0  0  0  0  0  0  0  0  0  0
   -4.8123    9.7690   -8.0490 C   0  0  0  0  0  0  0  0  0  0  0  0
   -3.5592   10.3237   -7.7969 C   0  0  0  0  0  0  0  0  0  0  0  0
   -3.4543   11.5962   -7.2288 C   0  0  0  0  0  0  0  0  0  0  0  0
   -4.6126   12.3085   -6.9084 C   0  0  0  0  0  0  0  0  0  0  0  0
   -5.8671   11.7538   -7.1613 C   0  0  0  0  0  0  0  0  0  0  0  0
   -2.1058   12.1871   -6.9644 C   0  0  0  0  0  0  0  0  0  0  0  0
   -1.7745   13.4406   -6.4637 C   0  0  0  0  0  0  0  0  0  0  0  0
   -0.4394   13.4976   -6.4041 N   0  0  0  0  0  0  0  0  0  0  0  0
    0.1691   12.4146   -6.8015 N   0  0  0  0  0  0  0  0  0  0  0  0
   -0.8034   11.5995   -7.1773 C   0  0  0  0  0  0  0  0  0  0  0  0
    0.3694   14.6144   -5.9538 C   0  0  0  0  0  0  0  0  0  0  0  0
   -3.6497   15.1720  -11.6865 O   0  0  0  0  0  0  0  0  0  0  0  0
   -4.3650   13.6745   -9.7698 O   0  0  0  0  0  0  0  0  0  0  0  0
   -6.1257   12.2782   -9.8355 H   0  0  0  0  0  0  0  0  0  0  0  0
   -8.6969   10.7748  -13.4186 H   0  0  0  0  0  0  0  0  0  0  0  0
   -7.1895    9.8325  -13.6766 H   0  0  0  0  0  0  0  0  0  0  0  0
   -7.6287   12.5169  -13.5407 H   0  0  0  0  0  0  0  0  0  0  0  0
   -6.1214   11.5746  -13.7988 H   0  0  0  0  0  0  0  0  0  0  0  0
   -8.0330    9.5733   -7.2490 H   0  0  0  0  0  0  0  0  0  0  0  0
   -1.9543   12.6728  -11.2554 H   0  0  0  0  0  0  0  0  0  0  0  0
   -3.3298   11.5493  -11.5240 H   0  0  0  0  0  0  0  0  0  0  0  0
   -2.7704   12.6186  -12.8546 H   0  0  0  0  0  0  0  0  0  0  0  0
   -4.8884    8.7854   -8.4885 H   0  0  0  0  0  0  0  0  0  0  0  0
   -2.6658    9.7683   -8.0414 H   0  0  0  0  0  0  0  0  0  0  0  0
   -4.5366   13.2900   -6.4643 H   0  0  0  0  0  0  0  0  0  0  0  0
   -6.3910   12.4480   -7.8348 H   0  0  0  0  0  0  0  0  0  0  0  0
   -6.3948   11.7100   -6.1971 H   0  0  0  0  0  0  0  0  0  0  0  0
   -2.4642   14.2207   -6.1771 H   0  0  0  0  0  0  0  0  0  0  0  0
   -0.6430   10.6154   -7.5924 H   0  0  0  0  0  0  0  0  0  0  0  0
    1.4345   14.3489   -6.0254 H   0  0  0  0  0  0  0  0  0  0  0  0
    0.1671   15.4918   -6.5857 H   0  0  0  0  0  0  0  0  0  0  0  0
    0.1198   14.8498   -4.9087 H   0  0  0  0  0  0  0  0  0  0  0  0
  1  2  1  0  0  0  0
  1  4  1  0  0  0  0
  1 13  2  3  0  0  0
  2  6  2  0  0  0  0
  3  4  1  0  0  0  0
  3  5  1  0  0  0  0
  5  6  1  0  0  0  0
  5  9  2  0  0  0  0
  6  7  1  0  0  0  0
  7  8  2  0  0  0  0
  7 10  1  0  0  0  0
  8  9  1  0  0  0  0
 10 14  2  3  0  0  0
 11 12  1  0  0  0  0
 11 13  1  0  0  0  0
 11 26  2  0  0  0  0
 11 27  2  0  0  0  0
 14 15  1  0  0  0  0
 14 19  1  0  0  0  0
 15 16  2  0  0  0  0
 16 17  1  0  0  0  0
 17 18  2  0  0  0  0
 17 20  1  0  0  0  0
 18 19  1  0  0  0  0
 20 21  2  0  0  0  0
 20 24  1  0  0  0  0
 21 22  1  0  0  0  0
 22 23  1  0  0  0  0
 22 25  1  0  0  0  0
 23 24  2  0  0  0  0
  2 28  1  0  0  0  0
  3 29  1  0  0  0  0
  3 30  1  0  0  0  0
  4 31  1  0  0  0  0
  4 32  1  0  0  0  0
 10 33  1  0  0  0  0
 12 34  1  0  0  0  0
 12 35  1  0  0  0  0
 12 36  1  0  0  0  0
 15 37  1  0  0  0  0
 16 38  1  0  0  0  0
 18 39  1  0  0  0  0
 19 40  1  0  0  0  0
 19 41  1  0  0  0  0
 21 42  1  0  0  0  0
 24 43  1  0  0  0  0
 25 44  1  0  0  0  0
 25 45  1  0  0  0  0
 25 46  1  0  0  0  0
M  END
> <Name>
25

> <IC50[uM]>
0.073

$$$$
25
  -OEChem-05192314333D
 Structure written by MMmdl.
 46 49  0     1  0  0  0  0  0999 V2000
   -6.3861   12.3623  -11.9697 C   0  0  0  0  0  0  0  0  0  0  0  0
   -6.5480   11.8020  -10.7080 C   0  0  0  0  0  0  0  0  0  0  0  0
   -7.6869   10.5726  -13.0325 C   0  0  0  0  0  0  0  0  0  0  0  0
   -6.9529   11.7665  -13.1047 C   0  0  0  0  0  0  0  0  0  0  0  0
   -7.8210   10.0086  -11.7556 C   0  0  0  0  0  0  0  0  0  0  0  0
   -7.2636   10.6177  -10.5919 C   0  0  0  0  0  0  0  0  0  0  0  0
   -7.6330    9.7421   -9.5104 C   0  0  0  0  0  0  0  0  0  0  0  0
   -8.3023    8.7332   -9.9897 N   0  0  0  0  0  0  0  0  0  0  0  0
   -8.4342    8.8678  -11.3051 N   0  0  0  0  0  0  0  0  0  0  0  0
   -7.3415    9.8758   -8.0215 C   0  0  0  0  0  0  0  0  0  0  0  0
   -4.1211   13.8754  -11.2000 S   0  0  0  0  0  0  0  0  0  0  0  0
   -2.9188   12.5402  -11.7675 C   0  0  0  0  0  0  0  0  0  0  0  0
   -5.6382   13.5428  -12.1051 N   0  0  0  0  0  0  0  0  0  0  0  0
   -5.9683   10.4827   -7.7344 C   0  0  0  0  0  0  0  0  0  0  0  0
   -4.8123    9.7690   -8.0490 C   0  0  0  0  0  0  0  0  0  0  0  0
   -3.5592   10.3237   -7.7969 C   0  0  0  0  0  0  0  0  0  0  0  0
   -3.4543   11.5962   -7.2288 C   0  0  3  0  0  0  0  0  0  0  0  0
   -4.6126   12.3085   -6.9084 C   0  0  0  0  0  0  0  0  0  0  0  0
   -5.8671   11.7538   -7.1613 C   0  0  0  0  0  0  0  0  0  0  0  0
   -2.1058   12.1871   -6.9644 C   0  0  0  0  0  0  0  0  0  0  0  0
   -1.7745   13.4406   -6.4637 C   0  0  0  0  0  0  0  0  0  0  0  0
   -0.4394   13.4976   -6.4041 N   0  0  0  0  0  0  0  0  0  0  0  0
    0.1691   12.4146   -6.8015 N   0  0  0  0  0  0  0  0  0  0  0  0
   -0.8034   11.5995   -7.1773 C   0  0  0  0  0  0  0  0  0  0  0  0
    0.3694   14.6144   -5.9538 C   0  0  0  0  0  0  0  0  0  0  0  0
   -3.6497   15.1720  -11.6865 O   0  0  0  0  0  0  0  0  0  0  0  0
   -4.3650   13.6745   -9.7698 O   0  0  0  0  0  0  0  0  0  0  0  0
   -6.1257   12.2782   -9.8355 H   0  0  0  0  0  0  0  0  0  0  0  0
   -8.1227   10.1152  -13.9085 H   0  0  0  0  0  0  0  0  0  0  0  0
   -6.8205   12.2414  -14.0656 H   0  0  0  0  0  0  0  0  0  0  0  0
   -8.0330    9.5733   -7.2490 H   0  0  0  0  0  0  0  0  0  0  0  0
   -1.9543   12.6728  -11.2554 H   0  0  0  0  0  0  0  0  0  0  0  0
   -3.3298   11.5493  -11.5240 H   0  0  0  0  0  0  0  0  0  0  0  0
   -2.7704   12.6186  -12.8546 H   0  0  0  0  0  0  0  0  0  0  0  0
   -4.8884    8.7854   -8.4885 H   0  0  0  0  0  0  0  0  0  0  0  0
   -2.6658    9.7683   -8.0414 H   0  0  0  0  0  0  0  0  0  0  0  0
   -3.4550   12.0453   -8.2329 H   0  0  0  0  0  0  0  0  0  0  0  0
   -4.5692   12.5155   -5.8289 H   0  0  0  0  0  0  0  0  0  0  0  0
   -4.5666   13.2558   -7.4655 H   0  0  0  0  0  0  0  0  0  0  0  0
   -6.3910   12.4480   -7.8348 H   0  0  0  0  0  0  0  0  0  0  0  0
   -6.3948   11.7100   -6.1971 H   0  0  0  0  0  0  0  0  0  0  0  0
   -2.4642   14.2207   -6.1771 H   0  0  0  0  0  0  0  0  0  0  0  0
   -0.6430   10.6154   -7.5924 H   0  0  0  0  0  0  0  0  0  0  0  0
    1.4345   14.3489   -6.0254 H   0  0  0  0  0  0  0  0  0  0  0  0
    0.1671   15.4918   -6.5857 H   0  0  0  0  0  0  0  0  0  0  0  0
    0.1198   14.8498   -4.9087 H   0  0  0  0  0  0  0  0  0  0  0  0
  1  2  1  0  0  0  0
  1  4  1  0  0  0  0
  1 13  2  3  0  0  0
  2  6  2  0  0  0  0
  3  4  2  0  0  0  0
  3  5  1  0  0  0  0
  5  6  1  0  0  0  0
  5  9  2  0  0  0  0
  6  7  1  0  0  0  0
  7  8  2  0  0  0  0
  7 10  1  0  0  0  0
  8  9  1  0  0  0  0
 10 14  2  3  0  0  0
 11 12  1  0  0  0  0
 11 13  1  0  0  0  0
 11 26  2  0  0  0  0
 11 27  2  0  0  0  0
 14 15  1  0  0  0  0
 14 19  1  0  0  0  0
 15 16  2  0  0  0  0
 16 17  1  0  0  0  0
 17 18  1  0  0  0  0
 17 20  1  0  0  0  0
 18 19  1  0  0  0  0
 20 21  2  0  0  0  0
 20 24  1  0  0  0  0
 21 22  1  0  0  0  0
 22 23  1  0  0  0  0
 22 25  1  0  0  0  0
 23 24  2  0  0  0  0
  2 28  1  0  0  0  0
  3 29  1  0  0  0  0
  4 30  1  0  0  0  0
 10 31  1  0  0  0  0
 12 32  1  0  0  0  0
 12 33  1  0  0  0  0
 12 34  1  0  0  0  0
 15 35  1  0  0  0  0
 16 36  1  0  0  0  0
 17 37  1  0  0  0  0
 18 38  1  0  0  0  0
 18 39  1  0  0  0  0
 19 40  1  0  0  0  0
 19 41  1  0  0  0  0
 21 42  1  0  0  0  0
 24 43  1  0  0  0  0
 25 44  1  0  0  0  0
 25 45  1  0  0  0  0
 25 46  1  0  0  0  0
M  END
> <Name>
25

> <IC50[uM]>
0.073

$$$$
25
  -OEChem-05192314333D
 Structure written by MMmdl.
 46 49  0     0  0  0  0  0  0999 V2000
   -6.3861   12.3623  -11.9697 C   0  0  0  0  0  0  0  0  0  0  0  0
   -6.5480   11.8020  -10.7080 C   0  0  0  0  0  0  0  0  0  0  0  0
   -7.6869   10.5726  -13.0325 C   0  0  0  0  0  0  0  0  0  0  0  0
   -6.9529   11.7665  -13.1047 C   0  0  0  0  0  0  0  0  0  0  0  0
   -7.8210   10.0086  -11.7556 C   0  0  0  0  0  0  0  0  0  0  0  0
   -7.2636   10.6177  -10.5919 C   0  0  0  0  0  0  0  0  0  0  0  0
   -7.6330    9.7421   -9.5104 C   0  0  0  0  0  0  0  0  0  0  0  0
   -8.3023    8.7332   -9.9897 N   0  0  0  0  0  0  0  0  0  0  0  0
   -8.4342    8.8678  -11.3051 N   0  0  0  0  0  0  0  0  0  0  0  0
   -7.3415    9.8758   -8.0215 C   0  0  0  0  0  0  0  0  0  0  0  0
   -4.1211   13.8754  -11.2000 S   0  0  0  0  0  0  0  0  0  0  0  0
   -2.9188   12.5402  -11.7675 C   0  0  0  0  0  0  0  0  0  0  0  0
   -5.6382   13.5428  -12.1051 N   0  0  0  0  0  0  0  0  0  0  0  0
   -5.9683   10.4827   -7.7344 C   0  0  0  0  0  0  0  0  0  0  0  0
   -4.8123    9.7690   -8.0490 C   0  0  0  0  0  0  0  0  0  0  0  0
   -3.5592   10.3237   -7.7969 C   0  0  0  0  0  0  0  0  0  0  0  0
   -3.4543   11.5962   -7.2288 C   0  0  0  0  0  0  0  0  0  0  0  0
   -4.6126   12.3085   -6.9084 C   0  0  0  0  0  0  0  0  0  0  0  0
   -5.8671   11.7538   -7.1613 C   0  0  0  0  0  0  0  0  0  0  0  0
   -2.1058   12.1871   -6.9644 C   0  0  0  0  0  0  0  0  0  0  0  0
   -1.7745   13.4406   -6.4637 C   0  0  0  0  0  0  0  0  0  0  0  0
   -0.4394   13.4976   -6.4041 N   0  0  0  0  0  0  0  0  0  0  0  0
    0.1691   12.4146   -6.8015 N   0  0  0  0  0  0  0  0  0  0  0  0
   -0.8034   11.5995   -7.1773 C   0  0  0  0  0  0  0  0  0  0  0  0
    0.3694   14.6144   -5.9538 C   0  0  0  0  0  0  0  0  0  0  0  0
   -3.6497   15.1720  -11.6865 O   0  0  0  0  0  0  0  0  0  0  0  0
   -4.3650   13.6745   -9.7698 O   0  0  0  0  0  0  0  0  0  0  0  0
   -6.1257   12.2782   -9.8355 H   0  0  0  0  0  0  0  0  0  0  0  0
   -8.1227   10.1152  -13.9085 H   0  0  0  0  0  0  0  0  0  0  0  0
   -6.8205   12.2414  -14.0656 H   0  0  0  0  0  0  0  0  0  0  0  0
   -8.0330    9.5733   -7.2490 H   0  0  0  0  0  0  0  0  0  0  0  0
   -1.9543   12.6728  -11.2554 H   0  0  0  0  0  0  0  0  0  0  0  0
   -3.3298   11.5493  -11.5240 H   0  0  0  0  0  0  0  0  0  0  0  0
   -2.7704   12.6186  -12.8546 H   0  0  0  0  0  0  0  0  0  0  0  0
   -4.8599    8.8244   -7.4873 H   0  0  0  0  0  0  0  0  0  0  0  0
   -4.8541    9.5568   -9.1275 H   0  0  0  0  0  0  0  0  0  0  0  0
   -3.0369    9.6312   -7.1205 H   0  0  0  0  0  0  0  0  0  0  0  0
   -3.0308   10.3630   -8.7609 H   0  0  0  0  0  0  0  0  0  0  0  0
   -4.5366   13.2900   -6.4643 H   0  0  0  0  0  0  0  0  0  0  0  0
   -6.3910   12.4480   -7.8348 H   0  0  0  0  0  0  0  0  0  0  0  0
   -6.3948   11.7100   -6.1971 H   0  0  0  0  0  0  0  0  0  0  0  0
   -2.4642   14.2207   -6.1771 H   0  0  0  0  0  0  0  0  0  0  0  0
   -0.6430   10.6154   -7.5924 H   0  0  0  0  0  0  0  0  0  0  0  0
    1.4345   14.3489   -6.0254 H   0  0  0  0  0  0  0  0  0  0  0  0
    0.1671   15.4918   -6.5857 H   0  0  0  0  0  0  0  0  0  0  0  0
    0.1198   14.8498   -4.9087 H   0  0  0  0  0  0  0  0  0  0  0  0
  1  2  1  0  0  0  0
  1  4  1  0  0  0  0
  1 13  2  3  0  0  0
  2  6  2  0  0  0  0
  3  4  2  0  0  0  0
  3  5  1  0  0  0  0
  5  6  1  0  0  0  0
  5  9  2  0  0  0  0
  6  7  1  0  0  0  0
  7  8  2  0  0  0  0
  7 10  1  0  0  0  0
  8  9  1  0  0  0  0
 10 14  2  3  0  0  0
 11 12  1  0  0  0  0
 11 13  1  0  0  0  0
 11 26  2  0  0  0  0
 11 27  2  0  0  0  0
 14 15  1  0  0  0  0
 14 19  1  0  0  0  0
 15 16  1  0  0  0  0
 16 17  1  0  0  0  0
 17 18  2  0  0  0  0
 17 20  1  0  0  0  0
 18 19  1  0  0  0  0
 20 21  2  0  0  0  0
 20 24  1  0  0  0  0
 21 22  1  0  0  0  0
 22 23  1  0  0  0  0
 22 25  1  0  0  0  0
 23 24  2  0  0  0  0
  2 28  1  0  0  0  0
  3 29  1  0  0  0  0
  4 30  1  0  0  0  0
 10 31  1  0  0  0  0
 12 32  1  0  0  0  0
 12 33  1  0  0  0  0
 12 34  1  0  0  0  0
 15 35  1  0  0  0  0
 15 36  1  0  0  0  0
 16 37  1  0  0  0  0
 16 38  1  0  0  0  0
 18 39  1  0  0  0  0
 19 40  1  0  0  0  0
 19 41  1  0  0  0  0
 21 42  1  0  0  0  0
 24 43  1  0  0  0  0
 25 44  1  0  0  0  0
 25 45  1  0  0  0  0
 25 46  1  0  0  0  0
M  END
> <Name>
25

> <IC50[uM]>
0.073

$$$$
25
  -OEChem-05192314333D
 Structure written by MMmdl.
 46 49  0     1  0  0  0  0  0999 V2000
   -6.3861   12.3623  -11.9697 C   0  0  0  0  0  0  0  0  0  0  0  0
   -6.5480   11.8020  -10.7080 C   0  0  0  0  0  0  0  0  0  0  0  0
   -7.6869   10.5726  -13.0325 C   0  0  0  0  0  0  0  0  0  0  0  0
   -6.9529   11.7665  -13.1047 C   0  0  0  0  0  0  0  0  0  0  0  0
   -7.8210   10.0086  -11.7556 C   0  0  0  0  0  0  0  0  0  0  0  0
   -7.2636   10.6177  -10.5919 C   0  0  3  0  0  0  0  0  0  0  0  0
   -7.6330    9.7421   -9.5104 C   0  0  0  0  0  0  0  0  0  0  0  0
   -8.3023    8.7332   -9.9897 N   0  0  0  0  0  0  0  0  0  0  0  0
   -8.4342    8.8678  -11.3051 N   0  0  0  0  0  0  0  0  0  0  0  0
   -7.3415    9.8758   -8.0215 C   0  0  0  0  0  0  0  0  0  0  0  0
   -4.1211   13.8754  -11.2000 S   0  0  0  0  0  0  0  0  0  0  0  0
   -2.9188   12.5402  -11.7675 C   0  0  0  0  0  0  0  0  0  0  0  0
   -5.6382   13.5428  -12.1051 N   0  0  0  0  0  0  0  0  0  0  0  0
   -5.9683   10.4827   -7.7344 C   0  0  0  0  0  0  0  0  0  0  0  0
   -4.8123    9.7690   -8.0490 C   0  0  0  0  0  0  0  0  0  0  0  0
   -3.5592   10.3237   -7.7969 C   0  0  0  0  0  0  0  0  0  0  0  0
   -3.4543   11.5962   -7.2288 C   0  0  0  0  0  0  0  0  0  0  0  0
   -4.6126   12.3085   -6.9084 C   0  0  0  0  0  0  0  0  0  0  0  0
   -5.8671   11.7538   -7.1613 C   0  0  0  0  0  0  0  0  0  0  0  0
   -2.1058   12.1871   -6.9644 C   0  0  0  0  0  0  0  0  0  0  0  0
   -1.7745   13.4406   -6.4637 C   0  0  0  0  0  0  0  0  0  0  0  0
   -0.4394   13.4976   -6.4041 N   0  0  0  0  0  0  0  0  0  0  0  0
    0.1691   12.4146   -6.8015 N   0  0  0  0  0  0  0  0  0  0  0  0
   -0.8034   11.5995   -7.1773 C   0  0  0  0  0  0  0  0  0  0  0  0
    0.3694   14.6144   -5.9538 C   0  0  0  0  0  0  0  0  0  0  0  0
   -3.6497   15.1720  -11.6865 O   0  0  0  0  0  0  0  0  0  0  0  0
   -4.3650   13.6745   -9.7698 O   0  0  0  0  0  0  0  0  0  0  0  0
   -5.5417   11.6132  -10.3059 H   0  0  0  0  0  0  0  0  0  0  0  0
   -7.0576   12.5509  -10.0840 H   0  0  0  0  0  0  0  0  0  0  0  0
   -8.1227   10.1152  -13.9085 H   0  0  0  0  0  0  0  0  0  0  0  0
   -6.8205   12.2414  -14.0656 H   0  0  0  0  0  0  0  0  0  0  0  0
   -8.1911   11.1909  -10.4462 H   0  0  0  0  0  0  0  0  0  0  0  0
   -8.0330    9.5733   -7.2490 H   0  0  0  0  0  0  0  0  0  0  0  0
   -1.9543   12.6728  -11.2554 H   0  0  0  0  0  0  0  0  0  0  0  0
   -3.3298   11.5493  -11.5240 H   0  0  0  0  0  0  0  0  0  0  0  0
   -2.7704   12.6186  -12.8546 H   0  0  0  0  0  0  0  0  0  0  0  0
   -4.8884    8.7854   -8.4885 H   0  0  0  0  0  0  0  0  0  0  0  0
   -2.6658    9.7683   -8.0414 H   0  0  0  0  0  0  0  0  0  0  0  0
   -3.4550   12.0453   -8.2329 H   0  0  0  0  0  0  0  0  0  0  0  0
   -4.5366   13.2900   -6.4643 H   0  0  0  0  0  0  0  0  0  0  0  0
   -6.7612   12.3068   -6.9141 H   0  0  0  0  0  0  0  0  0  0  0  0
   -2.4642   14.2207   -6.1771 H   0  0  0  0  0  0  0  0  0  0  0  0
   -0.6430   10.6154   -7.5924 H   0  0  0  0  0  0  0  0  0  0  0  0
    1.4345   14.3489   -6.0254 H   0  0  0  0  0  0  0  0  0  0  0  0
    0.1671   15.4918   -6.5857 H   0  0  0  0  0  0  0  0  0  0  0  0
    0.1198   14.8498   -4.9087 H   0  0  0  0  0  0  0  0  0  0  0  0
  1  2  1  0  0  0  0
  1  4  1  0  0  0  0
  1 13  2  3  0  0  0
  2  6  1  0  0  0  0
  3  4  2  0  0  0  0
  3  5  1  0  0  0  0
  5  6  1  0  0  0  0
  5  9  2  0  0  0  0
  6  7  1  0  0  0  0
  7  8  2  0  0  0  0
  7 10  1  0  0  0  0
  8  9  1  0  0  0  0
 10 14  2  0  0  0  0
 11 12  1  0  0  0  0
 11 13  1  0  0  0  0
 11 26  2  0  0  0  0
 11 27  2  0  0  0  0
 14 15  1  0  0  0  0
 14 19  1  0  0  0  0
 15 16  2  0  0  0  0
 16 17  1  0  0  0  0
 17 18  1  0  0  0  0
 17 20  1  0  0  0  0
 18 19  2  0  0  0  0
 20 21  2  0  0  0  0
 20 24  1  0  0  0  0
 21 22  1  0  0  0  0
 22 23  1  0  0  0  0
 22 25  1  0  0  0  0
 23 24  2  0  0  0  0
  2 28  1  0  0  0  0
  2 29  1  0  0  0  0
  3 30  1  0  0  0  0
  4 31  1  0  0  0  0
  6 32  1  0  0  0  0
 10 33  1  0  0  0  0
 12 34  1  0  0  0  0
 12 35  1  0  0  0  0
 12 36  1  0  0  0  0
 15 37  1  0  0  0  0
 16 38  1  0  0  0  0
 17 39  1  0  0  0  0
 18 40  1  0  0  0  0
 19 41  1  0  0  0  0
 21 42  1  0  0  0  0
 24 43  1  0  0  0  0
 25 44  1  0  0  0  0
 25 45  1  0  0  0  0
 25 46  1  0  0  0  0
M  END
> <Name>
25

> <IC50[uM]>
0.073

$$$$
25
  -OEChem-05192314333D
 Structure written by MMmdl.
 46 49  0     1  0  0  0  0  0999 V2000
   -6.3861   12.3623  -11.9697 C   0  0  0  0  0  0  0  0  0  0  0  0
   -6.5480   11.8020  -10.7080 C   0  0  0  0  0  0  0  0  0  0  0  0
   -7.6869   10.5726  -13.0325 C   0  0  0  0  0  0  0  0  0  0  0  0
   -6.9529   11.7665  -13.1047 C   0  0  0  0  0  0  0  0  0  0  0  0
   -7.8210   10.0086  -11.7556 C   0  0  0  0  0  0  0  0  0  0  0  0
   -7.2636   10.6177  -10.5919 C   0  0  3  0  0  0  0  0  0  0  0  0
   -7.6330    9.7421   -9.5104 C   0  0  0  0  0  0  0  0  0  0  0  0
   -8.3023    8.7332   -9.9897 N   0  0  0  0  0  0  0  0  0  0  0  0
   -8.4342    8.8678  -11.3051 N   0  0  0  0  0  0  0  0  0  0  0  0
   -7.3415    9.8758   -8.0215 C   0  0  0  0  0  0  0  0  0  0  0  0
   -4.1211   13.8754  -11.2000 S   0  0  0  0  0  0  0  0  0  0  0  0
   -2.9188   12.5402  -11.7675 C   0  0  0  0  0  0  0  0  0  0  0  0
   -5.6382   13.5428  -12.1051 N   0  0  0  0  0  0  0  0  0  0  0  0
   -5.9683   10.4827   -7.7344 C   0  0  0  0  0  0  0  0  0  0  0  0
   -4.8123    9.7690   -8.0490 C   0  0  0  0  0  0  0  0  0  0  0  0
   -3.5592   10.3237   -7.7969 C   0  0  0  0  0  0  0  0  0  0  0  0
   -3.4543   11.5962   -7.2288 C   0  0  0  0  0  0  0  0  0  0  0  0
   -4.6126   12.3085   -6.9084 C   0  0  0  0  0  0  0  0  0  0  0  0
   -5.8671   11.7538   -7.1613 C   0  0  0  0  0  0  0  0  0  0  0  0
   -2.1058   12.1871   -6.9644 C   0  0  0  0  0  0  0  0  0  0  0  0
   -1.7745   13.4406   -6.4637 C   0  0  0  0  0  0  0  0  0  0  0  0
   -0.4394   13.4976   -6.4041 N   0  0  0  0  0  0  0  0  0  0  0  0
    0.1691   12.4146   -6.8015 N   0  0  0  0  0  0  0  0  0  0  0  0
   -0.8034   11.5995   -7.1773 C   0  0  0  0  0  0  0  0  0  0  0  0
    0.3694   14.6144   -5.9538 C   0  0  0  0  0  0  0  0  0  0  0  0
   -3.6497   15.1720  -11.6865 O   0  0  0  0  0  0  0  0  0  0  0  0
   -4.3650   13.6745   -9.7698 O   0  0  0  0  0  0  0  0  0  0  0  0
   -5.5417   11.6132  -10.3059 H   0  0  0  0  0  0  0  0  0  0  0  0
   -7.0576   12.5509  -10.0840 H   0  0  0  0  0  0  0  0  0  0  0  0
   -8.1227   10.1152  -13.9085 H   0  0  0  0  0  0  0  0  0  0  0  0
   -6.8205   12.2414  -14.0656 H   0  0  0  0  0  0  0  0  0  0  0  0
   -8.1911   11.1909  -10.4462 H   0  0  0  0  0  0  0  0  0  0  0  0
   -8.0330    9.5733   -7.2490 H   0  0  0  0  0  0  0  0  0  0  0  0
   -1.9543   12.6728  -11.2554 H   0  0  0  0  0  0  0  0  0  0  0  0
   -3.3298   11.5493  -11.5240 H   0  0  0  0  0  0  0  0  0  0  0  0
   -2.7704   12.6186  -12.8546 H   0  0  0  0  0  0  0  0  0  0  0  0
   -4.8884    8.7854   -8.4885 H   0  0  0  0  0  0  0  0  0  0  0  0
   -2.6658    9.7683   -8.0414 H   0  0  0  0  0  0  0  0  0  0  0  0
   -4.5366   13.2900   -6.4643 H   0  0  0  0  0  0  0  0  0  0  0  0
   -6.3910   12.4480   -7.8348 H   0  0  0  0  0  0  0  0  0  0  0  0
   -6.3948   11.7100   -6.1971 H   0  0  0  0  0  0  0  0  0  0  0  0
   -2.4642   14.2207   -6.1771 H   0  0  0  0  0  0  0  0  0  0  0  0
   -0.6430   10.6154   -7.5924 H   0  0  0  0  0  0  0  0  0  0  0  0
    1.4345   14.3489   -6.0254 H   0  0  0  0  0  0  0  0  0  0  0  0
    0.1671   15.4918   -6.5857 H   0  0  0  0  0  0  0  0  0  0  0  0
    0.1198   14.8498   -4.9087 H   0  0  0  0  0  0  0  0  0  0  0  0
  1  2  1  0  0  0  0
  1  4  1  0  0  0  0
  1 13  2  3  0  0  0
  2  6  1  0  0  0  0
  3  4  2  0  0  0  0
  3  5  1  0  0  0  0
  5  6  1  0  0  0  0
  5  9  2  0  0  0  0
  6  7  1  0  0  0  0
  7  8  2  0  0  0  0
  7 10  1  0  0  0  0
  8  9  1  0  0  0  0
 10 14  2  3  0  0  0
 11 12  1  0  0  0  0
 11 13  1  0  0  0  0
 11 26  2  0  0  0  0
 11 27  2  0  0  0  0
 14 15  1  0  0  0  0
 14 19  1  0  0  0  0
 15 16  2  0  0  0  0
 16 17  1  0  0  0  0
 17 18  2  0  0  0  0
 17 20  1  0  0  0  0
 18 19  1  0  0  0  0
 20 21  2  0  0  0  0
 20 24  1  0  0  0  0
 21 22  1  0  0  0  0
 22 23  1  0  0  0  0
 22 25  1  0  0  0  0
 23 24  2  0  0  0  0
  2 28  1  0  0  0  0
  2 29  1  0  0  0  0
  3 30  1  0  0  0  0
  4 31  1  0  0  0  0
  6 32  1  0  0  0  0
 10 33  1  0  0  0  0
 12 34  1  0  0  0  0
 12 35  1  0  0  0  0
 12 36  1  0  0  0  0
 15 37  1  0  0  0  0
 16 38  1  0  0  0  0
 18 39  1  0  0  0  0
 19 40  1  0  0  0  0
 19 41  1  0  0  0  0
 21 42  1  0  0  0  0
 24 43  1  0  0  0  0
 25 44  1  0  0  0  0
 25 45  1  0  0  0  0
 25 46  1  0  0  0  0
M  END
> <Name>
25

> <IC50[uM]>
0.073

$$$$
25
  -OEChem-05192314333D
 Structure written by MMmdl.
 46 49  0     0  0  0  0  0  0999 V2000
   -6.3861   12.3623  -11.9697 C   0  0  0  0  0  0  0  0  0  0  0  0
   -6.5480   11.8020  -10.7080 C   0  0  0  0  0  0  0  0  0  0  0  0
   -7.6869   10.5726  -13.0325 C   0  0  0  0  0  0  0  0  0  0  0  0
   -6.9529   11.7665  -13.1047 C   0  0  0  0  0  0  0  0  0  0  0  0
   -7.8210   10.0086  -11.7556 C   0  0  0  0  0  0  0  0  0  0  0  0
   -7.2636   10.6177  -10.5919 C   0  0  0  0  0  0  0  0  0  0  0  0
   -7.6330    9.7421   -9.5104 C   0  0  0  0  0  0  0  0  0  0  0  0
   -8.3023    8.7332   -9.9897 N   0  0  0  0  0  0  0  0  0  0  0  0
   -8.4342    8.8678  -11.3051 N   0  0  0  0  0  0  0  0  0  0  0  0
   -7.3415    9.8758   -8.0215 C   0  0  0  0  0  0  0  0  0  0  0  0
   -4.1211   13.8754  -11.2000 S   0  0  0  0  0  0  0  0  0  0  0  0
   -2.9188   12.5402  -11.7675 C   0  0  0  0  0  0  0  0  0  0  0  0
   -5.6382   13.5428  -12.1051 N   0  0  0  0  0  0  0  0  0  0  0  0
   -5.9683   10.4827   -7.7344 C   0  0  0  0  0  0  0  0  0  0  0  0
   -4.8123    9.7690   -8.0490 C   0  0  0  0  0  0  0  0  0  0  0  0
   -3.5592   10.3237   -7.7969 C   0  0  0  0  0  0  0  0  0  0  0  0
   -3.4543   11.5962   -7.2288 C   0  0  0  0  0  0  0  0  0  0  0  0
   -4.6126   12.3085   -6.9084 C   0  0  0  0  0  0  0  0  0  0  0  0
   -5.8671   11.7538   -7.1613 C   0  0  0  0  0  0  0  0  0  0  0  0
   -2.1058   12.1871   -6.9644 C   0  0  0  0  0  0  0  0  0  0  0  0
   -1.7745   13.4406   -6.4637 C   0  0  0  0  0  0  0  0  0  0  0  0
   -0.4394   13.4976   -6.4041 N   0  0  0  0  0  0  0  0  0  0  0  0
    0.1691   12.4146   -6.8015 N   0  0  0  0  0  0  0  0  0  0  0  0
   -0.8034   11.5995   -7.1773 C   0  0  0  0  0  0  0  0  0  0  0  0
    0.3694   14.6144   -5.9538 C   0  0  0  0  0  0  0  0  0  0  0  0
   -3.6497   15.1720  -11.6865 O   0  0  0  0  0  0  0  0  0  0  0  0
   -4.3650   13.6745   -9.7698 O   0  0  0  0  0  0  0  0  0  0  0  0
   -6.1257   12.2782   -9.8355 H   0  0  0  0  0  0  0  0  0  0  0  0
   -8.1227   10.1152  -13.9085 H   0  0  0  0  0  0  0  0  0  0  0  0
   -6.8205   12.2414  -14.0656 H   0  0  0  0  0  0  0  0  0  0  0  0
   -8.1107   10.5196   -7.5701 H   0  0  0  0  0  0  0  0  0  0  0  0
   -7.3856    8.8762   -7.5645 H   0  0  0  0  0  0  0  0  0  0  0  0
   -1.9543   12.6728  -11.2554 H   0  0  0  0  0  0  0  0  0  0  0  0
   -3.3298   11.5493  -11.5240 H   0  0  0  0  0  0  0  0  0  0  0  0
   -2.7704   12.6186  -12.8546 H   0  0  0  0  0  0  0  0  0  0  0  0
   -5.9765   10.0300   -6.7319 H   0  0  0  0  0  0  0  0  0  0  0  0
   -4.8884    8.7854   -8.4885 H   0  0  0  0  0  0  0  0  0  0  0  0
   -2.6658    9.7683   -8.0414 H   0  0  0  0  0  0  0  0  0  0  0  0
   -3.4550   12.0453   -8.2329 H   0  0  0  0  0  0  0  0  0  0  0  0
   -4.5366   13.2900   -6.4643 H   0  0  0  0  0  0  0  0  0  0  0  0
   -6.7612   12.3068   -6.9141 H   0  0  0  0  0  0  0  0  0  0  0  0
   -2.4642   14.2207   -6.1771 H   0  0  0  0  0  0  0  0  0  0  0  0
   -0.6430   10.6154   -7.5924 H   0  0  0  0  0  0  0  0  0  0  0  0
    1.4345   14.3489   -6.0254 H   0  0  0  0  0  0  0  0  0  0  0  0
    0.1671   15.4918   -6.5857 H   0  0  0  0  0  0  0  0  0  0  0  0
    0.1198   14.8498   -4.9087 H   0  0  0  0  0  0  0  0  0  0  0  0
  1  2  1  0  0  0  0
  1  4  1  0  0  0  0
  1 13  2  3  0  0  0
  2  6  2  0  0  0  0
  3  4  2  0  0  0  0
  3  5  1  0  0  0  0
  5  6  1  0  0  0  0
  5  9  2  0  0  0  0
  6  7  1  0  0  0  0
  7  8  2  0  0  0  0
  7 10  1  0  0  0  0
  8  9  1  0  0  0  0
 10 14  1  0  0  0  0
 11 12  1  0  0  0  0
 11 13  1  0  0  0  0
 11 26  2  0  0  0  0
 11 27  2  0  0  0  0
 14 15  1  0  0  0  0
 14 19  1  0  0  0  0
 15 16  2  0  0  0  0
 16 17  1  0  0  0  0
 17 18  1  0  0  0  0
 17 20  1  0  0  0  0
 18 19  2  0  0  0  0
 20 21  2  0  0  0  0
 20 24  1  0  0  0  0
 21 22  1  0  0  0  0
 22 23  1  0  0  0  0
 22 25  1  0  0  0  0
 23 24  2  0  0  0  0
  2 28  1  0  0  0  0
  3 29  1  0  0  0  0
  4 30  1  0  0  0  0
 10 31  1  0  0  0  0
 10 32  1  0  0  0  0
 12 33  1  0  0  0  0
 12 34  1  0  0  0  0
 12 35  1  0  0  0  0
 14 36  1  0  0  0  0
 15 37  1  0  0  0  0
 16 38  1  0  0  0  0
 17 39  1  0  0  0  0
 18 40  1  0  0  0  0
 19 41  1  0  0  0  0
 21 42  1  0  0  0  0
 24 43  1  0  0  0  0
 25 44  1  0  0  0  0
 25 45  1  0  0  0  0
 25 46  1  0  0  0  0
M  END
> <Name>
25

> <IC50[uM]>
0.073

$$$$
25
  -OEChem-05192314333D
 Structure written by MMmdl.
 46 49  0     1  0  0  0  0  0999 V2000
   -6.3861   12.3623  -11.9697 C   0  0  0  0  0  0  0  0  0  0  0  0
   -6.5480   11.8020  -10.7080 C   0  0  0  0  0  0  0  0  0  0  0  0
   -7.6869   10.5726  -13.0325 C   0  0  0  0  0  0  0  0  0  0  0  0
   -6.9529   11.7665  -13.1047 C   0  0  0  0  0  0  0  0  0  0  0  0
   -7.8210   10.0086  -11.7556 C   0  0  0  0  0  0  0  0  0  0  0  0
   -7.2636   10.6177  -10.5919 C   0  0  0  0  0  0  0  0  0  0  0  0
   -7.6330    9.7421   -9.5104 C   0  0  0  0  0  0  0  0  0  0  0  0
   -8.3023    8.7332   -9.9897 N   0  0  0  0  0  0  0  0  0  0  0  0
   -8.4342    8.8678  -11.3051 N   0  0  0  0  0  0  0  0  0  0  0  0
   -7.3415    9.8758   -8.0215 C   0  0  0  0  0  0  0  0  0  0  0  0
   -4.1211   13.8754  -11.2000 S   0  0  0  0  0  0  0  0  0  0  0  0
   -2.9188   12.5402  -11.7675 C   0  0  0  0  0  0  0  0  0  0  0  0
   -5.6382   13.5428  -12.1051 N   0  0  0  0  0  0  0  0  0  0  0  0
   -5.9683   10.4827   -7.7344 C   0  0  0  0  0  0  0  0  0  0  0  0
   -4.8123    9.7690   -8.0490 C   0  0  0  0  0  0  0  0  0  0  0  0
   -3.5592   10.3237   -7.7969 C   0  0  0  0  0  0  0  0  0  0  0  0
   -3.4543   11.5962   -7.2288 C   0  0  3  0  0  0  0  0  0  0  0  0
   -4.6126   12.3085   -6.9084 C   0  0  0  0  0  0  0  0  0  0  0  0
   -5.8671   11.7538   -7.1613 C   0  0  0  0  0  0  0  0  0  0  0  0
   -2.1058   12.1871   -6.9644 C   0  0  0  0  0  0  0  0  0  0  0  0
   -1.7745   13.4406   -6.4637 C   0  0  0  0  0  0  0  0  0  0  0  0
   -0.4394   13.4976   -6.4041 N   0  0  0  0  0  0  0  0  0  0  0  0
    0.1691   12.4146   -6.8015 N   0  0  0  0  0  0  0  0  0  0  0  0
   -0.8034   11.5995   -7.1773 C   0  0  0  0  0  0  0  0  0  0  0  0
    0.3694   14.6144   -5.9538 C   0  0  0  0  0  0  0  0  0  0  0  0
   -3.6497   15.1720  -11.6865 O   0  0  0  0  0  0  0  0  0  0  0  0
   -4.3650   13.6745   -9.7698 O   0  0  0  0  0  0  0  0  0  0  0  0
   -6.1257   12.2782   -9.8355 H   0  0  0  0  0  0  0  0  0  0  0  0
   -8.1227   10.1152  -13.9085 H   0  0  0  0  0  0  0  0  0  0  0  0
   -6.8205   12.2414  -14.0656 H   0  0  0  0  0  0  0  0  0  0  0  0
   -8.1107   10.5196   -7.5701 H   0  0  0  0  0  0  0  0  0  0  0  0
   -7.3856    8.8762   -7.5645 H   0  0  0  0  0  0  0  0  0  0  0  0
   -1.9543   12.6728  -11.2554 H   0  0  0  0  0  0  0  0  0  0  0  0
   -3.3298   11.5493  -11.5240 H   0  0  0  0  0  0  0  0  0  0  0  0
   -2.7704   12.6186  -12.8546 H   0  0  0  0  0  0  0  0  0  0  0  0
   -4.8884    8.7854   -8.4885 H   0  0  0  0  0  0  0  0  0  0  0  0
   -3.0369    9.6312   -7.1205 H   0  0  0  0  0  0  0  0  0  0  0  0
   -3.0308   10.3630   -8.7609 H   0  0  0  0  0  0  0  0  0  0  0  0
   -3.4550   12.0453   -8.2329 H   0  0  0  0  0  0  0  0  0  0  0  0
   -4.5366   13.2900   -6.4643 H   0  0  0  0  0  0  0  0  0  0  0  0
   -6.7612   12.3068   -6.9141 H   0  0  0  0  0  0  0  0  0  0  0  0
   -2.4642   14.2207   -6.1771 H   0  0  0  0  0  0  0  0  0  0  0  0
   -0.6430   10.6154   -7.5924 H   0  0  0  0  0  0  0  0  0  0  0  0
    1.4345   14.3489   -6.0254 H   0  0  0  0  0  0  0  0  0  0  0  0
    0.1671   15.4918   -6.5857 H   0  0  0  0  0  0  0  0  0  0  0  0
    0.1198   14.8498   -4.9087 H   0  0  0  0  0  0  0  0  0  0  0  0
  1  2  1  0  0  0  0
  1  4  1  0  0  0  0
  1 13  2  3  0  0  0
  2  6  2  0  0  0  0
  3  4  2  0  0  0  0
  3  5  1  0  0  0  0
  5  6  1  0  0  0  0
  5  9  2  0  0  0  0
  6  7  1  0  0  0  0
  7  8  2  0  0  0  0
  7 10  1  0  0  0  0
  8  9  1  0  0  0  0
 10 14  1  0  0  0  0
 11 12  1  0  0  0  0
 11 13  1  0  0  0  0
 11 26  2  0  0  0  0
 11 27  2  0  0  0  0
 14 15  2  0  0  0  0
 14 19  1  0  0  0  0
 15 16  1  0  0  0  0
 16 17  1  0  0  0  0
 17 18  1  0  0  0  0
 17 20  1  0  0  0  0
 18 19  2  0  0  0  0
 20 21  2  0  0  0  0
 20 24  1  0  0  0  0
 21 22  1  0  0  0  0
 22 23  1  0  0  0  0
 22 25  1  0  0  0  0
 23 24  2  0  0  0  0
  2 28  1  0  0  0  0
  3 29  1  0  0  0  0
  4 30  1  0  0  0  0
 10 31  1  0  0  0  0
 10 32  1  0  0  0  0
 12 33  1  0  0  0  0
 12 34  1  0  0  0  0
 12 35  1  0  0  0  0
 15 36  1  0  0  0  0
 16 37  1  0  0  0  0
 16 38  1  0  0  0  0
 17 39  1  0  0  0  0
 18 40  1  0  0  0  0
 19 41  1  0  0  0  0
 21 42  1  0  0  0  0
 24 43  1  0  0  0  0
 25 44  1  0  0  0  0
 25 45  1  0  0  0  0
 25 46  1  0  0  0  0
M  END
> <Name>
25

> <IC50[uM]>
0.073

$$$$
25
  -OEChem-05192314333D
 Structure written by MMmdl.
 46 49  0     1  0  0  0  0  0999 V2000
   -6.3861   12.3623  -11.9697 C   0  0  0  0  0  0  0  0  0  0  0  0
   -6.5480   11.8020  -10.7080 C   0  0  0  0  0  0  0  0  0  0  0  0
   -7.6869   10.5726  -13.0325 C   0  0  0  0  0  0  0  0  0  0  0  0
   -6.9529   11.7665  -13.1047 C   0  0  0  0  0  0  0  0  0  0  0  0
   -7.8210   10.0086  -11.7556 C   0  0  0  0  0  0  0  0  0  0  0  0
   -7.2636   10.6177  -10.5919 C   0  0  0  0  0  0  0  0  0  0  0  0
   -7.6330    9.7421   -9.5104 C   0  0  0  0  0  0  0  0  0  0  0  0
   -8.3023    8.7332   -9.9897 N   0  0  0  0  0  0  0  0  0  0  0  0
   -8.4342    8.8678  -11.3051 N   0  0  0  0  0  0  0  0  0  0  0  0
   -7.3415    9.8758   -8.0215 C   0  0  0  0  0  0  0  0  0  0  0  0
   -4.1211   13.8754  -11.2000 S   0  0  0  0  0  0  0  0  0  0  0  0
   -2.9188   12.5402  -11.7675 C   0  0  0  0  0  0  0  0  0  0  0  0
   -5.6382   13.5428  -12.1051 N   0  0  0  0  0  0  0  0  0  0  0  0
   -5.9683   10.4827   -7.7344 C   0  0  3  0  0  0  0  0  0  0  0  0
   -4.8123    9.7690   -8.0490 C   0  0  0  0  0  0  0  0  0  0  0  0
   -3.5592   10.3237   -7.7969 C   0  0  0  0  0  0  0  0  0  0  0  0
   -3.4543   11.5962   -7.2288 C   0  0  0  0  0  0  0  0  0  0  0  0
   -4.6126   12.3085   -6.9084 C   0  0  0  0  0  0  0  0  0  0  0  0
   -5.8671   11.7538   -7.1613 C   0  0  0  0  0  0  0  0  0  0  0  0
   -2.1058   12.1871   -6.9644 C   0  0  0  0  0  0  0  0  0  0  0  0
   -1.7745   13.4406   -6.4637 C   0  0  0  0  0  0  0  0  0  0  0  0
   -0.4394   13.4976   -6.4041 N   0  0  0  0  0  0  0  0  0  0  0  0
    0.1691   12.4146   -6.8015 N   0  0  0  0  0  0  0  0  0  0  0  0
   -0.8034   11.5995   -7.1773 C   0  0  0  0  0  0  0  0  0  0  0  0
    0.3694   14.6144   -5.9538 C   0  0  0  0  0  0  0  0  0  0  0  0
   -3.6497   15.1720  -11.6865 O   0  0  0  0  0  0  0  0  0  0  0  0
   -4.3650   13.6745   -9.7698 O   0  0  0  0  0  0  0  0  0  0  0  0
   -6.1257   12.2782   -9.8355 H   0  0  0  0  0  0  0  0  0  0  0  0
   -8.1227   10.1152  -13.9085 H   0  0  0  0  0  0  0  0  0  0  0  0
   -6.8205   12.2414  -14.0656 H   0  0  0  0  0  0  0  0  0  0  0  0
   -8.1107   10.5196   -7.5701 H   0  0  0  0  0  0  0  0  0  0  0  0
   -7.3856    8.8762   -7.5645 H   0  0  0  0  0  0  0  0  0  0  0  0
   -1.9543   12.6728  -11.2554 H   0  0  0  0  0  0  0  0  0  0  0  0
   -3.3298   11.5493  -11.5240 H   0  0  0  0  0  0  0  0  0  0  0  0
   -2.7704   12.6186  -12.8546 H   0  0  0  0  0  0  0  0  0  0  0  0
   -5.9765   10.0300   -6.7319 H   0  0  0  0  0  0  0  0  0  0  0  0
   -4.8884    8.7854   -8.4885 H   0  0  0  0  0  0  0  0  0  0  0  0
   -2.6658    9.7683   -8.0414 H   0  0  0  0  0  0  0  0  0  0  0  0
   -4.5366   13.2900   -6.4643 H   0  0  0  0  0  0  0  0  0  0  0  0
   -6.3910   12.4480   -7.8348 H   0  0  0  0  0  0  0  0  0  0  0  0
   -6.3948   11.7100   -6.1971 H   0  0  0  0  0  0  0  0  0  0  0  0
   -2.4642   14.2207   -6.1771 H   0  0  0  0  0  0  0  0  0  0  0  0
   -0.6430   10.6154   -7.5924 H   0  0  0  0  0  0  0  0  0  0  0  0
    1.4345   14.3489   -6.0254 H   0  0  0  0  0  0  0  0  0  0  0  0
    0.1671   15.4918   -6.5857 H   0  0  0  0  0  0  0  0  0  0  0  0
    0.1198   14.8498   -4.9087 H   0  0  0  0  0  0  0  0  0  0  0  0
  1  2  1  0  0  0  0
  1  4  1  0  0  0  0
  1 13  2  3  0  0  0
  2  6  2  0  0  0  0
  3  4  2  0  0  0  0
  3  5  1  0  0  0  0
  5  6  1  0  0  0  0
  5  9  2  0  0  0  0
  6  7  1  0  0  0  0
  7  8  2  0  0  0  0
  7 10  1  0  0  0  0
  8  9  1  0  0  0  0
 10 14  1  0  0  0  0
 11 12  1  0  0  0  0
 11 13  1  0  0  0  0
 11 26  2  0  0  0  0
 11 27  2  0  0  0  0
 14 15  1  0  0  0  0
 14 19  1  0  0  0  0
 15 16  2  0  0  0  0
 16 17  1  0  0  0  0
 17 18  2  0  0  0  0
 17 20  1  0  0  0  0
 18 19  1  0  0  0  0
 20 21  2  0  0  0  0
 20 24  1  0  0  0  0
 21 22  1  0  0  0  0
 22 23  1  0  0  0  0
 22 25  1  0  0  0  0
 23 24  2  0  0  0  0
  2 28  1  0  0  0  0
  3 29  1  0  0  0  0
  4 30  1  0  0  0  0
 10 31  1  0  0  0  0
 10 32  1  0  0  0  0
 12 33  1  0  0  0  0
 12 34  1  0  0  0  0
 12 35  1  0  0  0  0
 14 36  1  0  0  0  0
 15 37  1  0  0  0  0
 16 38  1  0  0  0  0
 18 39  1  0  0  0  0
 19 40  1  0  0  0  0
 19 41  1  0  0  0  0
 21 42  1  0  0  0  0
 24 43  1  0  0  0  0
 25 44  1  0  0  0  0
 25 45  1  0  0  0  0
 25 46  1  0  0  0  0
M  END
> <Name>
25

> <IC50[uM]>
0.073

$$$$
25
  -OEChem-05192314333D
 Structure written by MMmdl.
 46 49  0     0  0  0  0  0  0999 V2000
   -6.3861   12.3623  -11.9697 C   0  0  0  0  0  0  0  0  0  0  0  0
   -6.5480   11.8020  -10.7080 C   0  0  0  0  0  0  0  0  0  0  0  0
   -7.6869   10.5726  -13.0325 C   0  0  0  0  0  0  0  0  0  0  0  0
   -6.9529   11.7665  -13.1047 C   0  0  0  0  0  0  0  0  0  0  0  0
   -7.8210   10.0086  -11.7556 C   0  0  0  0  0  0  0  0  0  0  0  0
   -7.2636   10.6177  -10.5919 C   0  0  0  0  0  0  0  0  0  0  0  0
   -7.6330    9.7421   -9.5104 C   0  0  0  0  0  0  0  0  0  0  0  0
   -8.3023    8.7332   -9.9897 N   0  0  0  0  0  0  0  0  0  0  0  0
   -8.4342    8.8678  -11.3051 N   0  0  0  0  0  0  0  0  0  0  0  0
   -7.3415    9.8758   -8.0215 C   0  0  0  0  0  0  0  0  0  0  0  0
   -4.1211   13.8754  -11.2000 S   0  0  0  0  0  0  0  0  0  0  0  0
   -2.9188   12.5402  -11.7675 C   0  0  0  0  0  0  0  0  0  0  0  0
   -5.6382   13.5428  -12.1051 N   0  0  0  0  0  0  0  0  0  0  0  0
   -5.9683   10.4827   -7.7344 C   0  0  0  0  0  0  0  0  0  0  0  0
   -4.8123    9.7690   -8.0490 C   0  0  0  0  0  0  0  0  0  0  0  0
   -3.5592   10.3237   -7.7969 C   0  0  0  0  0  0  0  0  0  0  0  0
   -3.4543   11.5962   -7.2288 C   0  0  0  0  0  0  0  0  0  0  0  0
   -4.6126   12.3085   -6.9084 C   0  0  0  0  0  0  0  0  0  0  0  0
   -5.8671   11.7538   -7.1613 C   0  0  0  0  0  0  0  0  0  0  0  0
   -2.1058   12.1871   -6.9644 C   0  0  0  0  0  0  0  0  0  0  0  0
   -1.7745   13.4406   -6.4637 C   0  0  0  0  0  0  0  0  0  0  0  0
   -0.4394   13.4976   -6.4041 N   0  0  0  0  0  0  0  0  0  0  0  0
    0.1691   12.4146   -6.8015 N   0  0  0  0  0  0  0  0  0  0  0  0
   -0.8034   11.5995   -7.1773 C   0  0  0  0  0  0  0  0  0  0  0  0
    0.3694   14.6144   -5.9538 C   0  0  0  0  0  0  0  0  0  0  0  0
   -3.6497   15.1720  -11.6865 O   0  0  0  0  0  0  0  0  0  0  0  0
   -4.3650   13.6745   -9.7698 O   0  0  0  0  0  0  0  0  0  0  0  0
   -6.1257   12.2782   -9.8355 H   0  0  0  0  0  0  0  0  0  0  0  0
   -8.1227   10.1152  -13.9085 H   0  0  0  0  0  0  0  0  0  0  0  0
   -6.8205   12.2414  -14.0656 H   0  0  0  0  0  0  0  0  0  0  0  0
   -8.1107   10.5196   -7.5701 H   0  0  0  0  0  0  0  0  0  0  0  0
   -7.3856    8.8762   -7.5645 H   0  0  0  0  0  0  0  0  0  0  0  0
   -1.9543   12.6728  -11.2554 H   0  0  0  0  0  0  0  0  0  0  0  0
   -3.3298   11.5493  -11.5240 H   0  0  0  0  0  0  0  0  0  0  0  0
   -2.7704   12.6186  -12.8546 H   0  0  0  0  0  0  0  0  0  0  0  0
   -4.8884    8.7854   -8.4885 H   0  0  0  0  0  0  0  0  0  0  0  0
   -3.0369    9.6312   -7.1205 H   0  0  0  0  0  0  0  0  0  0  0  0
   -3.0308   10.3630   -8.7609 H   0  0  0  0  0  0  0  0  0  0  0  0
   -4.5366   13.2900   -6.4643 H   0  0  0  0  0  0  0  0  0  0  0  0
   -6.3910   12.4480   -7.8348 H   0  0  0  0  0  0  0  0  0  0  0  0
   -6.3948   11.7100   -6.1971 H   0  0  0  0  0  0  0  0  0  0  0  0
   -2.4642   14.2207   -6.1771 H   0  0  0  0  0  0  0  0  0  0  0  0
   -0.6430   10.6154   -7.5924 H   0  0  0  0  0  0  0  0  0  0  0  0
    1.4345   14.3489   -6.0254 H   0  0  0  0  0  0  0  0  0  0  0  0
    0.1671   15.4918   -6.5857 H   0  0  0  0  0  0  0  0  0  0  0  0
    0.1198   14.8498   -4.9087 H   0  0  0  0  0  0  0  0  0  0  0  0
  1  2  1  0  0  0  0
  1  4  1  0  0  0  0
  1 13  2  3  0  0  0
  2  6  2  0  0  0  0
  3  4  2  0  0  0  0
  3  5  1  0  0  0  0
  5  6  1  0  0  0  0
  5  9  2  0  0  0  0
  6  7  1  0  0  0  0
  7  8  2  0  0  0  0
  7 10  1  0  0  0  0
  8  9  1  0  0  0  0
 10 14  1  0  0  0  0
 11 12  1  0  0  0  0
 11 13  1  0  0  0  0
 11 26  2  0  0  0  0
 11 27  2  0  0  0  0
 14 15  2  0  0  0  0
 14 19  1  0  0  0  0
 15 16  1  0  0  0  0
 16 17  1  0  0  0  0
 17 18  2  0  0  0  0
 17 20  1  0  0  0  0
 18 19  1  0  0  0  0
 20 21  2  0  0  0  0
 20 24  1  0  0  0  0
 21 22  1  0  0  0  0
 22 23  1  0  0  0  0
 22 25  1  0  0  0  0
 23 24  2  0  0  0  0
  2 28  1  0  0  0  0
  3 29  1  0  0  0  0
  4 30  1  0  0  0  0
 10 31  1  0  0  0  0
 10 32  1  0  0  0  0
 12 33  1  0  0  0  0
 12 34  1  0  0  0  0
 12 35  1  0  0  0  0
 15 36  1  0  0  0  0
 16 37  1  0  0  0  0
 16 38  1  0  0  0  0
 18 39  1  0  0  0  0
 19 40  1  0  0  0  0
 19 41  1  0  0  0  0
 21 42  1  0  0  0  0
 24 43  1  0  0  0  0
 25 44  1  0  0  0  0
 25 45  1  0  0  0  0
 25 46  1  0  0  0  0
M  END
> <Name>
25

> <IC50[uM]>
0.073

$$$$
25
  -OEChem-05192314333D
 Structure written by MMmdl.
 46 49  0     0  0  0  0  0  0999 V2000
   -6.3861   12.3623  -11.9697 C   0  0  0  0  0  0  0  0  0  0  0  0
   -6.5480   11.8020  -10.7080 C   0  0  0  0  0  0  0  0  0  0  0  0
   -7.6869   10.5726  -13.0325 C   0  0  0  0  0  0  0  0  0  0  0  0
   -6.9529   11.7665  -13.1047 C   0  0  0  0  0  0  0  0  0  0  0  0
   -7.8210   10.0086  -11.7556 C   0  0  0  0  0  0  0  0  0  0  0  0
   -7.2636   10.6177  -10.5919 C   0  0  0  0  0  0  0  0  0  0  0  0
   -7.6330    9.7421   -9.5104 C   0  0  0  0  0  0  0  0  0  0  0  0
   -8.3023    8.7332   -9.9897 N   0  0  0  0  0  0  0  0  0  0  0  0
   -8.4342    8.8678  -11.3051 N   0  0  0  0  0  0  0  0  0  0  0  0
   -7.3415    9.8758   -8.0215 C   0  0  0  0  0  0  0  0  0  0  0  0
   -4.1211   13.8754  -11.2000 S   0  0  0  0  0  0  0  0  0  0  0  0
   -2.9188   12.5402  -11.7675 C   0  0  0  0  0  0  0  0  0  0  0  0
   -5.6382   13.5428  -12.1051 N   0  0  0  0  0  0  0  0  0  0  0  0
   -5.9683   10.4827   -7.7344 C   0  0  0  0  0  0  0  0  0  0  0  0
   -4.8123    9.7690   -8.0490 C   0  0  0  0  0  0  0  0  0  0  0  0
   -3.5592   10.3237   -7.7969 C   0  0  0  0  0  0  0  0  0  0  0  0
   -3.4543   11.5962   -7.2288 C   0  0  0  0  0  0  0  0  0  0  0  0
   -4.6126   12.3085   -6.9084 C   0  0  0  0  0  0  0  0  0  0  0  0
   -5.8671   11.7538   -7.1613 C   0  0  0  0  0  0  0  0  0  0  0  0
   -2.1058   12.1871   -6.9644 C   0  0  0  0  0  0  0  0  0  0  0  0
   -1.7745   13.4406   -6.4637 C   0  0  0  0  0  0  0  0  0  0  0  0
   -0.4394   13.4976   -6.4041 N   0  0  0  0  0  0  0  0  0  0  0  0
    0.1691   12.4146   -6.8015 N   0  0  0  0  0  0  0  0  0  0  0  0
   -0.8034   11.5995   -7.1773 C   0  0  0  0  0  0  0  0  0  0  0  0
    0.3694   14.6144   -5.9538 C   0  0  0  0  0  0  0  0  0  0  0  0
   -3.6497   15.1720  -11.6865 O   0  0  0  0  0  0  0  0  0  0  0  0
   -4.3650   13.6745   -9.7698 O   0  0  0  0  0  0  0  0  0  0  0  0
   -6.1257   12.2782   -9.8355 H   0  0  0  0  0  0  0  0  0  0  0  0
   -8.1227   10.1152  -13.9085 H   0  0  0  0  0  0  0  0  0  0  0  0
   -6.8205   12.2414  -14.0656 H   0  0  0  0  0  0  0  0  0  0  0  0
   -8.1107   10.5196   -7.5701 H   0  0  0  0  0  0  0  0  0  0  0  0
   -7.3856    8.8762   -7.5645 H   0  0  0  0  0  0  0  0  0  0  0  0
   -1.9543   12.6728  -11.2554 H   0  0  0  0  0  0  0  0  0  0  0  0
   -3.3298   11.5493  -11.5240 H   0  0  0  0  0  0  0  0  0  0  0  0
   -2.7704   12.6186  -12.8546 H   0  0  0  0  0  0  0  0  0  0  0  0
   -4.8884    8.7854   -8.4885 H   0  0  0  0  0  0  0  0  0  0  0  0
   -2.6658    9.7683   -8.0414 H   0  0  0  0  0  0  0  0  0  0  0  0
   -4.5692   12.5155   -5.8289 H   0  0  0  0  0  0  0  0  0  0  0  0
   -4.5666   13.2558   -7.4655 H   0  0  0  0  0  0  0  0  0  0  0  0
   -6.3910   12.4480   -7.8348 H   0  0  0  0  0  0  0  0  0  0  0  0
   -6.3948   11.7100   -6.1971 H   0  0  0  0  0  0  0  0  0  0  0  0
   -2.4642   14.2207   -6.1771 H   0  0  0  0  0  0  0  0  0  0  0  0
   -0.6430   10.6154   -7.5924 H   0  0  0  0  0  0  0  0  0  0  0  0
    1.4345   14.3489   -6.0254 H   0  0  0  0  0  0  0  0  0  0  0  0
    0.1671   15.4918   -6.5857 H   0  0  0  0  0  0  0  0  0  0  0  0
    0.1198   14.8498   -4.9087 H   0  0  0  0  0  0  0  0  0  0  0  0
  1  2  1  0  0  0  0
  1  4  1  0  0  0  0
  1 13  2  3  0  0  0
  2  6  2  0  0  0  0
  3  4  2  0  0  0  0
  3  5  1  0  0  0  0
  5  6  1  0  0  0  0
  5  9  2  0  0  0  0
  6  7  1  0  0  0  0
  7  8  2  0  0  0  0
  7 10  1  0  0  0  0
  8  9  1  0  0  0  0
 10 14  1  0  0  0  0
 11 12  1  0  0  0  0
 11 13  1  0  0  0  0
 11 26  2  0  0  0  0
 11 27  2  0  0  0  0
 14 15  2  0  0  0  0
 14 19  1  0  0  0  0
 15 16  1  0  0  0  0
 16 17  2  0  0  0  0
 17 18  1  0  0  0  0
 17 20  1  0  0  0  0
 18 19  1  0  0  0  0
 20 21  2  0  0  0  0
 20 24  1  0  0  0  0
 21 22  1  0  0  0  0
 22 23  1  0  0  0  0
 22 25  1  0  0  0  0
 23 24  2  0  0  0  0
  2 28  1  0  0  0  0
  3 29  1  0  0  0  0
  4 30  1  0  0  0  0
 10 31  1  0  0  0  0
 10 32  1  0  0  0  0
 12 33  1  0  0  0  0
 12 34  1  0  0  0  0
 12 35  1  0  0  0  0
 15 36  1  0  0  0  0
 16 37  1  0  0  0  0
 18 38  1  0  0  0  0
 18 39  1  0  0  0  0
 19 40  1  0  0  0  0
 19 41  1  0  0  0  0
 21 42  1  0  0  0  0
 24 43  1  0  0  0  0
 25 44  1  0  0  0  0
 25 45  1  0  0  0  0
 25 46  1  0  0  0  0
M  END
> <Name>
25

> <IC50[uM]>
0.073

$$$$
25
  -OEChem-05192314333D
 Structure written by MMmdl.
 46 49  0     1  0  0  0  0  0999 V2000
   -6.3861   12.3623  -11.9697 C   0  0  0  0  0  0  0  0  0  0  0  0
   -6.5480   11.8020  -10.7080 C   0  0  0  0  0  0  0  0  0  0  0  0
   -7.6869   10.5726  -13.0325 C   0  0  0  0  0  0  0  0  0  0  0  0
   -6.9529   11.7665  -13.1047 C   0  0  0  0  0  0  0  0  0  0  0  0
   -7.8210   10.0086  -11.7556 C   0  0  3  0  0  0  0  0  0  0  0  0
   -7.2636   10.6177  -10.5919 C   0  0  0  0  0  0  0  0  0  0  0  0
   -7.6330    9.7421   -9.5104 C   0  0  0  0  0  0  0  0  0  0  0  0
   -8.3023    8.7332   -9.9897 N   0  0  0  0  0  0  0  0  0  0  0  0
   -8.4342    8.8678  -11.3051 N   0  0  0  0  0  0  0  0  0  0  0  0
   -7.3415    9.8758   -8.0215 C   0  0  0  0  0  0  0  0  0  0  0  0
   -4.1211   13.8754  -11.2000 S   0  0  0  0  0  0  0  0  0  0  0  0
   -2.9188   12.5402  -11.7675 C   0  0  0  0  0  0  0  0  0  0  0  0
   -5.6382   13.5428  -12.1051 N   0  0  0  0  0  0  0  0  0  0  0  0
   -5.9683   10.4827   -7.7344 C   0  0  0  0  0  0  0  0  0  0  0  0
   -4.8123    9.7690   -8.0490 C   0  0  0  0  0  0  0  0  0  0  0  0
   -3.5592   10.3237   -7.7969 C   0  0  0  0  0  0  0  0  0  0  0  0
   -3.4543   11.5962   -7.2288 C   0  0  0  0  0  0  0  0  0  0  0  0
   -4.6126   12.3085   -6.9084 C   0  0  0  0  0  0  0  0  0  0  0  0
   -5.8671   11.7538   -7.1613 C   0  0  0  0  0  0  0  0  0  0  0  0
   -2.1058   12.1871   -6.9644 C   0  0  0  0  0  0  0  0  0  0  0  0
   -1.7745   13.4406   -6.4637 C   0  0  0  0  0  0  0  0  0  0  0  0
   -0.4394   13.4976   -6.4041 N   0  0  0  0  0  0  0  0  0  0  0  0
    0.1691   12.4146   -6.8015 N   0  0  0  0  0  0  0  0  0  0  0  0
   -0.8034   11.5995   -7.1773 C   0  0  0  0  0  0  0  0  0  0  0  0
    0.3694   14.6144   -5.9538 C   0  0  0  0  0  0  0  0  0  0  0  0
   -3.6497   15.1720  -11.6865 O   0  0  0  0  0  0  0  0  0  0  0  0
   -4.3650   13.6745   -9.7698 O   0  0  0  0  0  0  0  0  0  0  0  0
   -6.1257   12.2782   -9.8355 H   0  0  0  0  0  0  0  0  0  0  0  0
   -8.1227   10.1152  -13.9085 H   0  0  0  0  0  0  0  0  0  0  0  0
   -6.8205   12.2414  -14.0656 H   0  0  0  0  0  0  0  0  0  0  0  0
   -8.7541   10.5711  -11.6042 H   0  0  0  0  0  0  0  0  0  0  0  0
   -8.0330    9.5733   -7.2490 H   0  0  0  0  0  0  0  0  0  0  0  0
   -1.9543   12.6728  -11.2554 H   0  0  0  0  0  0  0  0  0  0  0  0
   -3.3298   11.5493  -11.5240 H   0  0  0  0  0  0  0  0  0  0  0  0
   -2.7704   12.6186  -12.8546 H   0  0  0  0  0  0  0  0  0  0  0  0
   -5.9765   10.0300   -6.7319 H   0  0  0  0  0  0  0  0  0  0  0  0
   -4.8884    8.7854   -8.4885 H   0  0  0  0  0  0  0  0  0  0  0  0
   -2.6658    9.7683   -8.0414 H   0  0  0  0  0  0  0  0  0  0  0  0
   -3.4550   12.0453   -8.2329 H   0  0  0  0  0  0  0  0  0  0  0  0
   -4.5366   13.2900   -6.4643 H   0  0  0  0  0  0  0  0  0  0  0  0
   -6.7612   12.3068   -6.9141 H   0  0  0  0  0  0  0  0  0  0  0  0
   -2.4642   14.2207   -6.1771 H   0  0  0  0  0  0  0  0  0  0  0  0
   -0.6430   10.6154   -7.5924 H   0  0  0  0  0  0  0  0  0  0  0  0
    1.4345   14.3489   -6.0254 H   0  0  0  0  0  0  0  0  0  0  0  0
    0.1671   15.4918   -6.5857 H   0  0  0  0  0  0  0  0  0  0  0  0
    0.1198   14.8498   -4.9087 H   0  0  0  0  0  0  0  0  0  0  0  0
  1  2  1  0  0  0  0
  1  4  1  0  0  0  0
  1 13  2  3  0  0  0
  2  6  2  0  0  0  0
  3  4  2  0  0  0  0
  3  5  1  0  0  0  0
  5  6  1  0  0  0  0
  5  9  1  0  0  0  0
  6  7  1  0  0  0  0
  7  8  1  0  0  0  0
  7 10  2  3  0  0  0
  8  9  2  0  0  0  0
 10 14  1  0  0  0  0
 11 12  1  0  0  0  0
 11 13  1  0  0  0  0
 11 26  2  0  0  0  0
 11 27  2  0  0  0  0
 14 15  1  0  0  0  0
 14 19  1  0  0  0  0
 15 16  2  0  0  0  0
 16 17  1  0  0  0  0
 17 18  1  0  0  0  0
 17 20  1  0  0  0  0
 18 19  2  0  0  0  0
 20 21  2  0  0  0  0
 20 24  1  0  0  0  0
 21 22  1  0  0  0  0
 22 23  1  0  0  0  0
 22 25  1  0  0  0  0
 23 24  2  0  0  0  0
  2 28  1  0  0  0  0
  3 29  1  0  0  0  0
  4 30  1  0  0  0  0
  5 31  1  0  0  0  0
 10 32  1  0  0  0  0
 12 33  1  0  0  0  0
 12 34  1  0  0  0  0
 12 35  1  0  0  0  0
 14 36  1  0  0  0  0
 15 37  1  0  0  0  0
 16 38  1  0  0  0  0
 17 39  1  0  0  0  0
 18 40  1  0  0  0  0
 19 41  1  0  0  0  0
 21 42  1  0  0  0  0
 24 43  1  0  0  0  0
 25 44  1  0  0  0  0
 25 45  1  0  0  0  0
 25 46  1  0  0  0  0
M  END
> <Name>
25

> <IC50[uM]>
0.073

$$$$
25
  -OEChem-05192314333D
 Structure written by MMmdl.
 46 49  0     1  0  0  0  0  0999 V2000
   -6.3861   12.3623  -11.9697 C   0  0  0  0  0  0  0  0  0  0  0  0
   -6.5480   11.8020  -10.7080 C   0  0  0  0  0  0  0  0  0  0  0  0
   -7.6869   10.5726  -13.0325 C   0  0  0  0  0  0  0  0  0  0  0  0
   -6.9529   11.7665  -13.1047 C   0  0  0  0  0  0  0  0  0  0  0  0
   -7.8210   10.0086  -11.7556 C   0  0  3  0  0  0  0  0  0  0  0  0
   -7.2636   10.6177  -10.5919 C   0  0  0  0  0  0  0  0  0  0  0  0
   -7.6330    9.7421   -9.5104 C   0  0  3  0  0  0  0  0  0  0  0  0
   -8.3023    8.7332   -9.9897 N   0  0  0  0  0  0  0  0  0  0  0  0
   -8.4342    8.8678  -11.3051 N   0  0  0  0  0  0  0  0  0  0  0  0
   -7.3415    9.8758   -8.0215 C   0  0  0  0  0  0  0  0  0  0  0  0
   -4.1211   13.8754  -11.2000 S   0  0  0  0  0  0  0  0  0  0  0  0
   -2.9188   12.5402  -11.7675 C   0  0  0  0  0  0  0  0  0  0  0  0
   -5.6382   13.5428  -12.1051 N   0  0  0  0  0  0  0  0  0  0  0  0
   -5.9683   10.4827   -7.7344 C   0  0  0  0  0  0  0  0  0  0  0  0
   -4.8123    9.7690   -8.0490 C   0  0  0  0  0  0  0  0  0  0  0  0
   -3.5592   10.3237   -7.7969 C   0  0  0  0  0  0  0  0  0  0  0  0
   -3.4543   11.5962   -7.2288 C   0  0  0  0  0  0  0  0  0  0  0  0
   -4.6126   12.3085   -6.9084 C   0  0  0  0  0  0  0  0  0  0  0  0
   -5.8671   11.7538   -7.1613 C   0  0  0  0  0  0  0  0  0  0  0  0
   -2.1058   12.1871   -6.9644 C   0  0  0  0  0  0  0  0  0  0  0  0
   -1.7745   13.4406   -6.4637 C   0  0  0  0  0  0  0  0  0  0  0  0
   -0.4394   13.4976   -6.4041 N   0  0  0  0  0  0  0  0  0  0  0  0
    0.1691   12.4146   -6.8015 N   0  0  0  0  0  0  0  0  0  0  0  0
   -0.8034   11.5995   -7.1773 C   0  0  0  0  0  0  0  0  0  0  0  0
    0.3694   14.6144   -5.9538 C   0  0  0  0  0  0  0  0  0  0  0  0
   -3.6497   15.1720  -11.6865 O   0  0  0  0  0  0  0  0  0  0  0  0
   -4.3650   13.6745   -9.7698 O   0  0  0  0  0  0  0  0  0  0  0  0
   -6.1257   12.2782   -9.8355 H   0  0  0  0  0  0  0  0  0  0  0  0
   -8.1227   10.1152  -13.9085 H   0  0  0  0  0  0  0  0  0  0  0  0
   -6.8205   12.2414  -14.0656 H   0  0  0  0  0  0  0  0  0  0  0  0
   -8.7541   10.5711  -11.6042 H   0  0  0  0  0  0  0  0  0  0  0  0
   -8.5708   10.3015   -9.3774 H   0  0  0  0  0  0  0  0  0  0  0  0
   -8.0330    9.5733   -7.2490 H   0  0  0  0  0  0  0  0  0  0  0  0
   -1.9543   12.6728  -11.2554 H   0  0  0  0  0  0  0  0  0  0  0  0
   -3.3298   11.5493  -11.5240 H   0  0  0  0  0  0  0  0  0  0  0  0
   -2.7704   12.6186  -12.8546 H   0  0  0  0  0  0  0  0  0  0  0  0
   -4.8884    8.7854   -8.4885 H   0  0  0  0  0  0  0  0  0  0  0  0
   -2.6658    9.7683   -8.0414 H   0  0  0  0  0  0  0  0  0  0  0  0
   -3.4550   12.0453   -8.2329 H   0  0  0  0  0  0  0  0  0  0  0  0
   -4.5366   13.2900   -6.4643 H   0  0  0  0  0  0  0  0  0  0  0  0
   -6.7612   12.3068   -6.9141 H   0  0  0  0  0  0  0  0  0  0  0  0
   -2.4642   14.2207   -6.1771 H   0  0  0  0  0  0  0  0  0  0  0  0
   -0.6430   10.6154   -7.5924 H   0  0  0  0  0  0  0  0  0  0  0  0
    1.4345   14.3489   -6.0254 H   0  0  0  0  0  0  0  0  0  0  0  0
    0.1671   15.4918   -6.5857 H   0  0  0  0  0  0  0  0  0  0  0  0
    0.1198   14.8498   -4.9087 H   0  0  0  0  0  0  0  0  0  0  0  0
  1  2  1  0  0  0  0
  1  4  1  0  0  0  0
  1 13  2  3  0  0  0
  2  6  2  0  0  0  0
  3  4  2  0  0  0  0
  3  5  1  0  0  0  0
  5  6  1  0  0  0  0
  5  9  1  0  0  0  0
  6  7  1  0  0  0  0
  7  8  1  0  0  0  0
  7 10  1  0  0  0  0
  8  9  2  0  0  0  0
 10 14  2  0  0  0  0
 11 12  1  0  0  0  0
 11 13  1  0  0  0  0
 11 26  2  0  0  0  0
 11 27  2  0  0  0  0
 14 15  1  0  0  0  0
 14 19  1  0  0  0  0
 15 16  2  0  0  0  0
 16 17  1  0  0  0  0
 17 18  1  0  0  0  0
 17 20  1  0  0  0  0
 18 19  2  0  0  0  0
 20 21  2  0  0  0  0
 20 24  1  0  0  0  0
 21 22  1  0  0  0  0
 22 23  1  0  0  0  0
 22 25  1  0  0  0  0
 23 24  2  0  0  0  0
  2 28  1  0  0  0  0
  3 29  1  0  0  0  0
  4 30  1  0  0  0  0
  5 31  1  0  0  0  0
  7 32  1  0  0  0  0
 10 33  1  0  0  0  0
 12 34  1  0  0  0  0
 12 35  1  0  0  0  0
 12 36  1  0  0  0  0
 15 37  1  0  0  0  0
 16 38  1  0  0  0  0
 17 39  1  0  0  0  0
 18 40  1  0  0  0  0
 19 41  1  0  0  0  0
 21 42  1  0  0  0  0
 24 43  1  0  0  0  0
 25 44  1  0  0  0  0
 25 45  1  0  0  0  0
 25 46  1  0  0  0  0
M  END
> <Name>
25

> <IC50[uM]>
0.073

$$$$
25
  -OEChem-05192314333D
 Structure written by MMmdl.
 46 49  0     0  0  0  0  0  0999 V2000
   -6.3861   12.3623  -11.9697 C   0  0  0  0  0  0  0  0  0  0  0  0
   -6.5480   11.8020  -10.7080 C   0  0  0  0  0  0  0  0  0  0  0  0
   -7.6869   10.5726  -13.0325 C   0  0  0  0  0  0  0  0  0  0  0  0
   -6.9529   11.7665  -13.1047 C   0  0  0  0  0  0  0  0  0  0  0  0
   -7.8210   10.0086  -11.7556 C   0  0  0  0  0  0  0  0  0  0  0  0
   -7.2636   10.6177  -10.5919 C   0  0  0  0  0  0  0  0  0  0  0  0
   -7.6330    9.7421   -9.5104 C   0  0  0  0  0  0  0  0  0  0  0  0
   -8.3023    8.7332   -9.9897 N   0  0  0  0  0  0  0  0  0  0  0  0
   -8.4342    8.8678  -11.3051 N   0  0  0  0  0  0  0  0  0  0  0  0
   -7.3415    9.8758   -8.0215 C   0  0  0  0  0  0  0  0  0  0  0  0
   -4.1211   13.8754  -11.2000 S   0  0  0  0  0  0  0  0  0  0  0  0
   -2.9188   12.5402  -11.7675 C   0  0  0  0  0  0  0  0  0  0  0  0
   -5.6382   13.5428  -12.1051 N   0  0  0  0  0  0  0  0  0  0  0  0
   -5.9683   10.4827   -7.7344 C   0  0  0  0  0  0  0  0  0  0  0  0
   -4.8123    9.7690   -8.0490 C   0  0  0  0  0  0  0  0  0  0  0  0
   -3.5592   10.3237   -7.7969 C   0  0  0  0  0  0  0  0  0  0  0  0
   -3.4543   11.5962   -7.2288 C   0  0  0  0  0  0  0  0  0  0  0  0
   -4.6126   12.3085   -6.9084 C   0  0  0  0  0  0  0  0  0  0  0  0
   -5.8671   11.7538   -7.1613 C   0  0  0  0  0  0  0  0  0  0  0  0
   -2.1058   12.1871   -6.9644 C   0  0  0  0  0  0  0  0  0  0  0  0
   -1.7745   13.4406   -6.4637 C   0  0  0  0  0  0  0  0  0  0  0  0
   -0.4394   13.4976   -6.4041 N   0  0  0  0  0  0  0  0  0  0  0  0
    0.1691   12.4146   -6.8015 N   0  0  0  0  0  0  0  0  0  0  0  0
   -0.8034   11.5995   -7.1773 C   0  0  0  0  0  0  0  0  0  0  0  0
    0.3694   14.6144   -5.9538 C   0  0  0  0  0  0  0  0  0  0  0  0
   -3.6497   15.1720  -11.6865 O   0  0  0  0  0  0  0  0  0  0  0  0
   -4.3650   13.6745   -9.7698 O   0  0  0  0  0  0  0  0  0  0  0  0
   -6.1257   12.2782   -9.8355 H   0  0  0  0  0  0  0  0  0  0  0  0
   -8.1227   10.1152  -13.9085 H   0  0  0  0  0  0  0  0  0  0  0  0
   -7.6287   12.5169  -13.5407 H   0  0  0  0  0  0  0  0  0  0  0  0
   -6.1214   11.5746  -13.7988 H   0  0  0  0  0  0  0  0  0  0  0  0
   -8.0330    9.5733   -7.2490 H   0  0  0  0  0  0  0  0  0  0  0  0
   -1.9543   12.6728  -11.2554 H   0  0  0  0  0  0  0  0  0  0  0  0
   -3.3298   11.5493  -11.5240 H   0  0  0  0  0  0  0  0  0  0  0  0
   -2.7704   12.6186  -12.8546 H   0  0  0  0  0  0  0  0  0  0  0  0
   -5.9765   10.0300   -6.7319 H   0  0  0  0  0  0  0  0  0  0  0  0
   -4.8884    8.7854   -8.4885 H   0  0  0  0  0  0  0  0  0  0  0  0
   -2.6658    9.7683   -8.0414 H   0  0  0  0  0  0  0  0  0  0  0  0
   -3.4550   12.0453   -8.2329 H   0  0  0  0  0  0  0  0  0  0  0  0
   -4.5366   13.2900   -6.4643 H   0  0  0  0  0  0  0  0  0  0  0  0
   -6.7612   12.3068   -6.9141 H   0  0  0  0  0  0  0  0  0  0  0  0
   -2.4642   14.2207   -6.1771 H   0  0  0  0  0  0  0  0  0  0  0  0
   -0.6430   10.6154   -7.5924 H   0  0  0  0  0  0  0  0  0  0  0  0
    1.4345   14.3489   -6.0254 H   0  0  0  0  0  0  0  0  0  0  0  0
    0.1671   15.4918   -6.5857 H   0  0  0  0  0  0  0  0  0  0  0  0
    0.1198   14.8498   -4.9087 H   0  0  0  0  0  0  0  0  0  0  0  0
  1  2  1  0  0  0  0
  1  4  1  0  0  0  0
  1 13  2  3  0  0  0
  2  6  2  0  0  0  0
  3  4  1  0  0  0  0
  3  5  2  0  0  0  0
  5  6  1  0  0  0  0
  5  9  1  0  0  0  0
  6  7  1  0  0  0  0
  7  8  1  0  0  0  0
  7 10  2  3  0  0  0
  8  9  2  0  0  0  0
 10 14  1  0  0  0  0
 11 12  1  0  0  0  0
 11 13  1  0  0  0  0
 11 26  2  0  0  0  0
 11 27  2  0  0  0  0
 14 15  1  0  0  0  0
 14 19  1  0  0  0  0
 15 16  2  0  0  0  0
 16 17  1  0  0  0  0
 17 18  1  0  0  0  0
 17 20  1  0  0  0  0
 18 19  2  0  0  0  0
 20 21  2  0  0  0  0
 20 24  1  0  0  0  0
 21 22  1  0  0  0  0
 22 23  1  0  0  0  0
 22 25  1  0  0  0  0
 23 24  2  0  0  0  0
  2 28  1  0  0  0  0
  3 29  1  0  0  0  0
  4 30  1  0  0  0  0
  4 31  1  0  0  0  0
 10 32  1  0  0  0  0
 12 33  1  0  0  0  0
 12 34  1  0  0  0  0
 12 35  1  0  0  0  0
 14 36  1  0  0  0  0
 15 37  1  0  0  0  0
 16 38  1  0  0  0  0
 17 39  1  0  0  0  0
 18 40  1  0  0  0  0
 19 41  1  0  0  0  0
 21 42  1  0  0  0  0
 24 43  1  0  0  0  0
 25 44  1  0  0  0  0
 25 45  1  0  0  0  0
 25 46  1  0  0  0  0
M  END
> <Name>
25

> <IC50[uM]>
0.073

$$$$
25
  -OEChem-05192314333D
 Structure written by MMmdl.
 46 49  0     1  0  0  0  0  0999 V2000
   -6.3861   12.3623  -11.9697 C   0  0  0  0  0  0  0  0  0  0  0  0
   -6.5480   11.8020  -10.7080 C   0  0  0  0  0  0  0  0  0  0  0  0
   -7.6869   10.5726  -13.0325 C   0  0  0  0  0  0  0  0  0  0  0  0
   -6.9529   11.7665  -13.1047 C   0  0  0  0  0  0  0  0  0  0  0  0
   -7.8210   10.0086  -11.7556 C   0  0  0  0  0  0  0  0  0  0  0  0
   -7.2636   10.6177  -10.5919 C   0  0  0  0  0  0  0  0  0  0  0  0
   -7.6330    9.7421   -9.5104 C   0  0  3  0  0  0  0  0  0  0  0  0
   -8.3023    8.7332   -9.9897 N   0  0  0  0  0  0  0  0  0  0  0  0
   -8.4342    8.8678  -11.3051 N   0  0  0  0  0  0  0  0  0  0  0  0
   -7.3415    9.8758   -8.0215 C   0  0  0  0  0  0  0  0  0  0  0  0
   -4.1211   13.8754  -11.2000 S   0  0  0  0  0  0  0  0  0  0  0  0
   -2.9188   12.5402  -11.7675 C   0  0  0  0  0  0  0  0  0  0  0  0
   -5.6382   13.5428  -12.1051 N   0  0  0  0  0  0  0  0  0  0  0  0
   -5.9683   10.4827   -7.7344 C   0  0  0  0  0  0  0  0  0  0  0  0
   -4.8123    9.7690   -8.0490 C   0  0  0  0  0  0  0  0  0  0  0  0
   -3.5592   10.3237   -7.7969 C   0  0  0  0  0  0  0  0  0  0  0  0
   -3.4543   11.5962   -7.2288 C   0  0  0  0  0  0  0  0  0  0  0  0
   -4.6126   12.3085   -6.9084 C   0  0  0  0  0  0  0  0  0  0  0  0
   -5.8671   11.7538   -7.1613 C   0  0  0  0  0  0  0  0  0  0  0  0
   -2.1058   12.1871   -6.9644 C   0  0  0  0  0  0  0  0  0  0  0  0
   -1.7745   13.4406   -6.4637 C   0  0  0  0  0  0  0  0  0  0  0  0
   -0.4394   13.4976   -6.4041 N   0  0  0  0  0  0  0  0  0  0  0  0
    0.1691   12.4146   -6.8015 N   0  0  0  0  0  0  0  0  0  0  0  0
   -0.8034   11.5995   -7.1773 C   0  0  0  0  0  0  0  0  0  0  0  0
    0.3694   14.6144   -5.9538 C   0  0  0  0  0  0  0  0  0  0  0  0
   -3.6497   15.1720  -11.6865 O   0  0  0  0  0  0  0  0  0  0  0  0
   -4.3650   13.6745   -9.7698 O   0  0  0  0  0  0  0  0  0  0  0  0
   -6.1257   12.2782   -9.8355 H   0  0  0  0  0  0  0  0  0  0  0  0
   -8.1227   10.1152  -13.9085 H   0  0  0  0  0  0  0  0  0  0  0  0
   -7.6287   12.5169  -13.5407 H   0  0  0  0  0  0  0  0  0  0  0  0
   -6.1214   11.5746  -13.7988 H   0  0  0  0  0  0  0  0  0  0  0  0
   -8.5708   10.3015   -9.3774 H   0  0  0  0  0  0  0  0  0  0  0  0
   -8.0330    9.5733   -7.2490 H   0  0  0  0  0  0  0  0  0  0  0  0
   -1.9543   12.6728  -11.2554 H   0  0  0  0  0  0  0  0  0  0  0  0
   -3.3298   11.5493  -11.5240 H   0  0  0  0  0  0  0  0  0  0  0  0
   -2.7704   12.6186  -12.8546 H   0  0  0  0  0  0  0  0  0  0  0  0
   -4.8884    8.7854   -8.4885 H   0  0  0  0  0  0  0  0  0  0  0  0
   -2.6658    9.7683   -8.0414 H   0  0  0  0  0  0  0  0  0  0  0  0
   -3.4550   12.0453   -8.2329 H   0  0  0  0  0  0  0  0  0  0  0  0
   -4.5366   13.2900   -6.4643 H   0  0  0  0  0  0  0  0  0  0  0  0
   -6.7612   12.3068   -6.9141 H   0  0  0  0  0  0  0  0  0  0  0  0
   -2.4642   14.2207   -6.1771 H   0  0  0  0  0  0  0  0  0  0  0  0
   -0.6430   10.6154   -7.5924 H   0  0  0  0  0  0  0  0  0  0  0  0
    1.4345   14.3489   -6.0254 H   0  0  0  0  0  0  0  0  0  0  0  0
    0.1671   15.4918   -6.5857 H   0  0  0  0  0  0  0  0  0  0  0  0
    0.1198   14.8498   -4.9087 H   0  0  0  0  0  0  0  0  0  0  0  0
  1  2  1  0  0  0  0
  1  4  1  0  0  0  0
  1 13  2  3  0  0  0
  2  6  2  0  0  0  0
  3  4  1  0  0  0  0
  3  5  2  0  0  0  0
  5  6  1  0  0  0  0
  5  9  1  0  0  0  0
  6  7  1  0  0  0  0
  7  8  1  0  0  0  0
  7 10  1  0  0  0  0
  8  9  2  0  0  0  0
 10 14  2  0  0  0  0
 11 12  1  0  0  0  0
 11 13  1  0  0  0  0
 11 26  2  0  0  0  0
 11 27  2  0  0  0  0
 14 15  1  0  0  0  0
 14 19  1  0  0  0  0
 15 16  2  0  0  0  0
 16 17  1  0  0  0  0
 17 18  1  0  0  0  0
 17 20  1  0  0  0  0
 18 19  2  0  0  0  0
 20 21  2  0  0  0  0
 20 24  1  0  0  0  0
 21 22  1  0  0  0  0
 22 23  1  0  0  0  0
 22 25  1  0  0  0  0
 23 24  2  0  0  0  0
  2 28  1  0  0  0  0
  3 29  1  0  0  0  0
  4 30  1  0  0  0  0
  4 31  1  0  0  0  0
  7 32  1  0  0  0  0
 10 33  1  0  0  0  0
 12 34  1  0  0  0  0
 12 35  1  0  0  0  0
 12 36  1  0  0  0  0
 15 37  1  0  0  0  0
 16 38  1  0  0  0  0
 17 39  1  0  0  0  0
 18 40  1  0  0  0  0
 19 41  1  0  0  0  0
 21 42  1  0  0  0  0
 24 43  1  0  0  0  0
 25 44  1  0  0  0  0
 25 45  1  0  0  0  0
 25 46  1  0  0  0  0
M  END
> <Name>
25

> <IC50[uM]>
0.073

$$$$
25
  -OEChem-05192314333D
 Structure written by MMmdl.
 46 49  0     1  0  0  0  0  0999 V2000
   -6.3861   12.3623  -11.9697 C   0  0  0  0  0  0  0  0  0  0  0  0
   -6.5480   11.8020  -10.7080 C   0  0  0  0  0  0  0  0  0  0  0  0
   -7.6869   10.5726  -13.0325 C   0  0  0  0  0  0  0  0  0  0  0  0
   -6.9529   11.7665  -13.1047 C   0  0  0  0  0  0  0  0  0  0  0  0
   -7.8210   10.0086  -11.7556 C   0  0  3  0  0  0  0  0  0  0  0  0
   -7.2636   10.6177  -10.5919 C   0  0  0  0  0  0  0  0  0  0  0  0
   -7.6330    9.7421   -9.5104 C   0  0  0  0  0  0  0  0  0  0  0  0
   -8.3023    8.7332   -9.9897 N   0  0  0  0  0  0  0  0  0  0  0  0
   -8.4342    8.8678  -11.3051 N   0  0  0  0  0  0  0  0  0  0  0  0
   -7.3415    9.8758   -8.0215 C   0  0  0  0  0  0  0  0  0  0  0  0
   -4.1211   13.8754  -11.2000 S   0  0  0  0  0  0  0  0  0  0  0  0
   -2.9188   12.5402  -11.7675 C   0  0  0  0  0  0  0  0  0  0  0  0
   -5.6382   13.5428  -12.1051 N   0  0  0  0  0  0  0  0  0  0  0  0
   -5.9683   10.4827   -7.7344 C   0  0  0  0  0  0  0  0  0  0  0  0
   -4.8123    9.7690   -8.0490 C   0  0  0  0  0  0  0  0  0  0  0  0
   -3.5592   10.3237   -7.7969 C   0  0  0  0  0  0  0  0  0  0  0  0
   -3.4543   11.5962   -7.2288 C   0  0  3  0  0  0  0  0  0  0  0  0
   -4.6126   12.3085   -6.9084 C   0  0  0  0  0  0  0  0  0  0  0  0
   -5.8671   11.7538   -7.1613 C   0  0  0  0  0  0  0  0  0  0  0  0
   -2.1058   12.1871   -6.9644 C   0  0  0  0  0  0  0  0  0  0  0  0
   -1.7745   13.4406   -6.4637 C   0  0  0  0  0  0  0  0  0  0  0  0
   -0.4394   13.4976   -6.4041 N   0  0  0  0  0  0  0  0  0  0  0  0
    0.1691   12.4146   -6.8015 N   0  0  0  0  0  0  0  0  0  0  0  0
   -0.8034   11.5995   -7.1773 C   0  0  0  0  0  0  0  0  0  0  0  0
    0.3694   14.6144   -5.9538 C   0  0  0  0  0  0  0  0  0  0  0  0
   -3.6497   15.1720  -11.6865 O   0  0  0  0  0  0  0  0  0  0  0  0
   -4.3650   13.6745   -9.7698 O   0  0  0  0  0  0  0  0  0  0  0  0
   -6.1257   12.2782   -9.8355 H   0  0  0  0  0  0  0  0  0  0  0  0
   -8.1227   10.1152  -13.9085 H   0  0  0  0  0  0  0  0  0  0  0  0
   -6.8205   12.2414  -14.0656 H   0  0  0  0  0  0  0  0  0  0  0  0
   -8.7541   10.5711  -11.6042 H   0  0  0  0  0  0  0  0  0  0  0  0
   -8.0330    9.5733   -7.2490 H   0  0  0  0  0  0  0  0  0  0  0  0
   -1.9543   12.6728  -11.2554 H   0  0  0  0  0  0  0  0  0  0  0  0
   -3.3298   11.5493  -11.5240 H   0  0  0  0  0  0  0  0  0  0  0  0
   -2.7704   12.6186  -12.8546 H   0  0  0  0  0  0  0  0  0  0  0  0
   -4.8884    8.7854   -8.4885 H   0  0  0  0  0  0  0  0  0  0  0  0
   -3.0369    9.6312   -7.1205 H   0  0  0  0  0  0  0  0  0  0  0  0
   -3.0308   10.3630   -8.7609 H   0  0  0  0  0  0  0  0  0  0  0  0
   -3.4550   12.0453   -8.2329 H   0  0  0  0  0  0  0  0  0  0  0  0
   -4.5366   13.2900   -6.4643 H   0  0  0  0  0  0  0  0  0  0  0  0
   -6.7612   12.3068   -6.9141 H   0  0  0  0  0  0  0  0  0  0  0  0
   -2.4642   14.2207   -6.1771 H   0  0  0  0  0  0  0  0  0  0  0  0
   -0.6430   10.6154   -7.5924 H   0  0  0  0  0  0  0  0  0  0  0  0
    1.4345   14.3489   -6.0254 H   0  0  0  0  0  0  0  0  0  0  0  0
    0.1671   15.4918   -6.5857 H   0  0  0  0  0  0  0  0  0  0  0  0
    0.1198   14.8498   -4.9087 H   0  0  0  0  0  0  0  0  0  0  0  0
  1  2  1  0  0  0  0
  1  4  1  0  0  0  0
  1 13  2  3  0  0  0
  2  6  2  0  0  0  0
  3  4  2  0  0  0  0
  3  5  1  0  0  0  0
  5  6  1  0  0  0  0
  5  9  1  0  0  0  0
  6  7  1  0  0  0  0
  7  8  1  0  0  0  0
  7 10  2  3  0  0  0
  8  9  2  0  0  0  0
 10 14  1  0  0  0  0
 11 12  1  0  0  0  0
 11 13  1  0  0  0  0
 11 26  2  0  0  0  0
 11 27  2  0  0  0  0
 14 15  2  0  0  0  0
 14 19  1  0  0  0  0
 15 16  1  0  0  0  0
 16 17  1  0  0  0  0
 17 18  1  0  0  0  0
 17 20  1  0  0  0  0
 18 19  2  0  0  0  0
 20 21  2  0  0  0  0
 20 24  1  0  0  0  0
 21 22  1  0  0  0  0
 22 23  1  0  0  0  0
 22 25  1  0  0  0  0
 23 24  2  0  0  0  0
  2 28  1  0  0  0  0
  3 29  1  0  0  0  0
  4 30  1  0  0  0  0
  5 31  1  0  0  0  0
 10 32  1  0  0  0  0
 12 33  1  0  0  0  0
 12 34  1  0  0  0  0
 12 35  1  0  0  0  0
 15 36  1  0  0  0  0
 16 37  1  0  0  0  0
 16 38  1  0  0  0  0
 17 39  1  0  0  0  0
 18 40  1  0  0  0  0
 19 41  1  0  0  0  0
 21 42  1  0  0  0  0
 24 43  1  0  0  0  0
 25 44  1  0  0  0  0
 25 45  1  0  0  0  0
 25 46  1  0  0  0  0
M  END
> <Name>
25

> <IC50[uM]>
0.073

$$$$
25
  -OEChem-05192314333D
 Structure written by MMmdl.
 46 49  0     1  0  0  0  0  0999 V2000
   -6.3861   12.3623  -11.9697 C   0  0  0  0  0  0  0  0  0  0  0  0
   -6.5480   11.8020  -10.7080 C   0  0  0  0  0  0  0  0  0  0  0  0
   -7.6869   10.5726  -13.0325 C   0  0  0  0  0  0  0  0  0  0  0  0
   -6.9529   11.7665  -13.1047 C   0  0  0  0  0  0  0  0  0  0  0  0
   -7.8210   10.0086  -11.7556 C   0  0  0  0  0  0  0  0  0  0  0  0
   -7.2636   10.6177  -10.5919 C   0  0  0  0  0  0  0  0  0  0  0  0
   -7.6330    9.7421   -9.5104 C   0  0  0  0  0  0  0  0  0  0  0  0
   -8.3023    8.7332   -9.9897 N   0  0  0  0  0  0  0  0  0  0  0  0
   -8.4342    8.8678  -11.3051 N   0  0  0  0  0  0  0  0  0  0  0  0
   -7.3415    9.8758   -8.0215 C   0  0  0  0  0  0  0  0  0  0  0  0
   -4.1211   13.8754  -11.2000 S   0  0  0  0  0  0  0  0  0  0  0  0
   -2.9188   12.5402  -11.7675 C   0  0  0  0  0  0  0  0  0  0  0  0
   -5.6382   13.5428  -12.1051 N   0  0  0  0  0  0  0  0  0  0  0  0
   -5.9683   10.4827   -7.7344 C   0  0  0  0  0  0  0  0  0  0  0  0
   -4.8123    9.7690   -8.0490 C   0  0  0  0  0  0  0  0  0  0  0  0
   -3.5592   10.3237   -7.7969 C   0  0  0  0  0  0  0  0  0  0  0  0
   -3.4543   11.5962   -7.2288 C   0  0  3  0  0  0  0  0  0  0  0  0
   -4.6126   12.3085   -6.9084 C   0  0  0  0  0  0  0  0  0  0  0  0
   -5.8671   11.7538   -7.1613 C   0  0  0  0  0  0  0  0  0  0  0  0
   -2.1058   12.1871   -6.9644 C   0  0  0  0  0  0  0  0  0  0  0  0
   -1.7745   13.4406   -6.4637 C   0  0  0  0  0  0  0  0  0  0  0  0
   -0.4394   13.4976   -6.4041 N   0  0  0  0  0  0  0  0  0  0  0  0
    0.1691   12.4146   -6.8015 N   0  0  0  0  0  0  0  0  0  0  0  0
   -0.8034   11.5995   -7.1773 C   0  0  0  0  0  0  0  0  0  0  0  0
    0.3694   14.6144   -5.9538 C   0  0  0  0  0  0  0  0  0  0  0  0
   -3.6497   15.1720  -11.6865 O   0  0  0  0  0  0  0  0  0  0  0  0
   -4.3650   13.6745   -9.7698 O   0  0  0  0  0  0  0  0  0  0  0  0
   -6.1257   12.2782   -9.8355 H   0  0  0  0  0  0  0  0  0  0  0  0
   -8.1227   10.1152  -13.9085 H   0  0  0  0  0  0  0  0  0  0  0  0
   -7.6287   12.5169  -13.5407 H   0  0  0  0  0  0  0  0  0  0  0  0
   -6.1214   11.5746  -13.7988 H   0  0  0  0  0  0  0  0  0  0  0  0
   -8.0330    9.5733   -7.2490 H   0  0  0  0  0  0  0  0  0  0  0  0
   -1.9543   12.6728  -11.2554 H   0  0  0  0  0  0  0  0  0  0  0  0
   -3.3298   11.5493  -11.5240 H   0  0  0  0  0  0  0  0  0  0  0  0
   -2.7704   12.6186  -12.8546 H   0  0  0  0  0  0  0  0  0  0  0  0
   -4.8884    8.7854   -8.4885 H   0  0  0  0  0  0  0  0  0  0  0  0
   -3.0369    9.6312   -7.1205 H   0  0  0  0  0  0  0  0  0  0  0  0
   -3.0308   10.3630   -8.7609 H   0  0  0  0  0  0  0  0  0  0  0  0
   -3.4550   12.0453   -8.2329 H   0  0  0  0  0  0  0  0  0  0  0  0
   -4.5366   13.2900   -6.4643 H   0  0  0  0  0  0  0  0  0  0  0  0
   -6.7612   12.3068   -6.9141 H   0  0  0  0  0  0  0  0  0  0  0  0
   -2.4642   14.2207   -6.1771 H   0  0  0  0  0  0  0  0  0  0  0  0
   -0.6430   10.6154   -7.5924 H   0  0  0  0  0  0  0  0  0  0  0  0
    1.4345   14.3489   -6.0254 H   0  0  0  0  0  0  0  0  0  0  0  0
    0.1671   15.4918   -6.5857 H   0  0  0  0  0  0  0  0  0  0  0  0
    0.1198   14.8498   -4.9087 H   0  0  0  0  0  0  0  0  0  0  0  0
  1  2  1  0  0  0  0
  1  4  1  0  0  0  0
  1 13  2  3  0  0  0
  2  6  2  0  0  0  0
  3  4  1  0  0  0  0
  3  5  2  0  0  0  0
  5  6  1  0  0  0  0
  5  9  1  0  0  0  0
  6  7  1  0  0  0  0
  7  8  1  0  0  0  0
  7 10  2  3  0  0  0
  8  9  2  0  0  0  0
 10 14  1  0  0  0  0
 11 12  1  0  0  0  0
 11 13  1  0  0  0  0
 11 26  2  0  0  0  0
 11 27  2  0  0  0  0
 14 15  2  0  0  0  0
 14 19  1  0  0  0  0
 15 16  1  0  0  0  0
 16 17  1  0  0  0  0
 17 18  1  0  0  0  0
 17 20  1  0  0  0  0
 18 19  2  0  0  0  0
 20 21  2  0  0  0  0
 20 24  1  0  0  0  0
 21 22  1  0  0  0  0
 22 23  1  0  0  0  0
 22 25  1  0  0  0  0
 23 24  2  0  0  0  0
  2 28  1  0  0  0  0
  3 29  1  0  0  0  0
  4 30  1  0  0  0  0
  4 31  1  0  0  0  0
 10 32  1  0  0  0  0
 12 33  1  0  0  0  0
 12 34  1  0  0  0  0
 12 35  1  0  0  0  0
 15 36  1  0  0  0  0
 16 37  1  0  0  0  0
 16 38  1  0  0  0  0
 17 39  1  0  0  0  0
 18 40  1  0  0  0  0
 19 41  1  0  0  0  0
 21 42  1  0  0  0  0
 24 43  1  0  0  0  0
 25 44  1  0  0  0  0
 25 45  1  0  0  0  0
 25 46  1  0  0  0  0
M  END
> <Name>
25

> <IC50[uM]>
0.073

$$$$
25
  -OEChem-05192314333D
 Structure written by MMmdl.
 46 49  0     1  0  0  0  0  0999 V2000
   -6.3861   12.3623  -11.9697 C   0  0  0  0  0  0  0  0  0  0  0  0
   -6.5480   11.8020  -10.7080 C   0  0  0  0  0  0  0  0  0  0  0  0
   -7.6869   10.5726  -13.0325 C   0  0  0  0  0  0  0  0  0  0  0  0
   -6.9529   11.7665  -13.1047 C   0  0  0  0  0  0  0  0  0  0  0  0
   -7.8210   10.0086  -11.7556 C   0  0  3  0  0  0  0  0  0  0  0  0
   -7.2636   10.6177  -10.5919 C   0  0  0  0  0  0  0  0  0  0  0  0
   -7.6330    9.7421   -9.5104 C   0  0  0  0  0  0  0  0  0  0  0  0
   -8.3023    8.7332   -9.9897 N   0  0  0  0  0  0  0  0  0  0  0  0
   -8.4342    8.8678  -11.3051 N   0  0  0  0  0  0  0  0  0  0  0  0
   -7.3415    9.8758   -8.0215 C   0  0  0  0  0  0  0  0  0  0  0  0
   -4.1211   13.8754  -11.2000 S   0  0  0  0  0  0  0  0  0  0  0  0
   -2.9188   12.5402  -11.7675 C   0  0  0  0  0  0  0  0  0  0  0  0
   -5.6382   13.5428  -12.1051 N   0  0  0  0  0  0  0  0  0  0  0  0
   -5.9683   10.4827   -7.7344 C   0  0  3  0  0  0  0  0  0  0  0  0
   -4.8123    9.7690   -8.0490 C   0  0  0  0  0  0  0  0  0  0  0  0
   -3.5592   10.3237   -7.7969 C   0  0  0  0  0  0  0  0  0  0  0  0
   -3.4543   11.5962   -7.2288 C   0  0  0  0  0  0  0  0  0  0  0  0
   -4.6126   12.3085   -6.9084 C   0  0  0  0  0  0  0  0  0  0  0  0
   -5.8671   11.7538   -7.1613 C   0  0  0  0  0  0  0  0  0  0  0  0
   -2.1058   12.1871   -6.9644 C   0  0  0  0  0  0  0  0  0  0  0  0
   -1.7745   13.4406   -6.4637 C   0  0  0  0  0  0  0  0  0  0  0  0
   -0.4394   13.4976   -6.4041 N   0  0  0  0  0  0  0  0  0  0  0  0
    0.1691   12.4146   -6.8015 N   0  0  0  0  0  0  0  0  0  0  0  0
   -0.8034   11.5995   -7.1773 C   0  0  0  0  0  0  0  0  0  0  0  0
    0.3694   14.6144   -5.9538 C   0  0  0  0  0  0  0  0  0  0  0  0
   -3.6497   15.1720  -11.6865 O   0  0  0  0  0  0  0  0  0  0  0  0
   -4.3650   13.6745   -9.7698 O   0  0  0  0  0  0  0  0  0  0  0  0
   -6.1257   12.2782   -9.8355 H   0  0  0  0  0  0  0  0  0  0  0  0
   -8.1227   10.1152  -13.9085 H   0  0  0  0  0  0  0  0  0  0  0  0
   -6.8205   12.2414  -14.0656 H   0  0  0  0  0  0  0  0  0  0  0  0
   -8.7541   10.5711  -11.6042 H   0  0  0  0  0  0  0  0  0  0  0  0
   -8.0330    9.5733   -7.2490 H   0  0  0  0  0  0  0  0  0  0  0  0
   -1.9543   12.6728  -11.2554 H   0  0  0  0  0  0  0  0  0  0  0  0
   -3.3298   11.5493  -11.5240 H   0  0  0  0  0  0  0  0  0  0  0  0
   -2.7704   12.6186  -12.8546 H   0  0  0  0  0  0  0  0  0  0  0  0
   -5.9765   10.0300   -6.7319 H   0  0  0  0  0  0  0  0  0  0  0  0
   -4.8884    8.7854   -8.4885 H   0  0  0  0  0  0  0  0  0  0  0  0
   -2.6658    9.7683   -8.0414 H   0  0  0  0  0  0  0  0  0  0  0  0
   -4.5366   13.2900   -6.4643 H   0  0  0  0  0  0  0  0  0  0  0  0
   -6.3910   12.4480   -7.8348 H   0  0  0  0  0  0  0  0  0  0  0  0
   -6.3948   11.7100   -6.1971 H   0  0  0  0  0  0  0  0  0  0  0  0
   -2.4642   14.2207   -6.1771 H   0  0  0  0  0  0  0  0  0  0  0  0
   -0.6430   10.6154   -7.5924 H   0  0  0  0  0  0  0  0  0  0  0  0
    1.4345   14.3489   -6.0254 H   0  0  0  0  0  0  0  0  0  0  0  0
    0.1671   15.4918   -6.5857 H   0  0  0  0  0  0  0  0  0  0  0  0
    0.1198   14.8498   -4.9087 H   0  0  0  0  0  0  0  0  0  0  0  0
  1  2  1  0  0  0  0
  1  4  1  0  0  0  0
  1 13  2  3  0  0  0
  2  6  2  0  0  0  0
  3  4  2  0  0  0  0
  3  5  1  0  0  0  0
  5  6  1  0  0  0  0
  5  9  1  0  0  0  0
  6  7  1  0  0  0  0
  7  8  1  0  0  0  0
  7 10  2  3  0  0  0
  8  9  2  0  0  0  0
 10 14  1  0  0  0  0
 11 12  1  0  0  0  0
 11 13  1  0  0  0  0
 11 26  2  0  0  0  0
 11 27  2  0  0  0  0
 14 15  1  0  0  0  0
 14 19  1  0  0  0  0
 15 16  2  0  0  0  0
 16 17  1  0  0  0  0
 17 18  2  0  0  0  0
 17 20  1  0  0  0  0
 18 19  1  0  0  0  0
 20 21  2  0  0  0  0
 20 24  1  0  0  0  0
 21 22  1  0  0  0  0
 22 23  1  0  0  0  0
 22 25  1  0  0  0  0
 23 24  2  0  0  0  0
  2 28  1  0  0  0  0
  3 29  1  0  0  0  0
  4 30  1  0  0  0  0
  5 31  1  0  0  0  0
 10 32  1  0  0  0  0
 12 33  1  0  0  0  0
 12 34  1  0  0  0  0
 12 35  1  0  0  0  0
 14 36  1  0  0  0  0
 15 37  1  0  0  0  0
 16 38  1  0  0  0  0
 18 39  1  0  0  0  0
 19 40  1  0  0  0  0
 19 41  1  0  0  0  0
 21 42  1  0  0  0  0
 24 43  1  0  0  0  0
 25 44  1  0  0  0  0
 25 45  1  0  0  0  0
 25 46  1  0  0  0  0
M  END
> <Name>
25

> <IC50[uM]>
0.073

$$$$
25
  -OEChem-05192314333D
 Structure written by MMmdl.
 46 49  0     1  0  0  0  0  0999 V2000
   -6.3861   12.3623  -11.9697 C   0  0  0  0  0  0  0  0  0  0  0  0
   -6.5480   11.8020  -10.7080 C   0  0  0  0  0  0  0  0  0  0  0  0
   -7.6869   10.5726  -13.0325 C   0  0  0  0  0  0  0  0  0  0  0  0
   -6.9529   11.7665  -13.1047 C   0  0  0  0  0  0  0  0  0  0  0  0
   -7.8210   10.0086  -11.7556 C   0  0  3  0  0  0  0  0  0  0  0  0
   -7.2636   10.6177  -10.5919 C   0  0  0  0  0  0  0  0  0  0  0  0
   -7.6330    9.7421   -9.5104 C   0  0  3  0  0  0  0  0  0  0  0  0
   -8.3023    8.7332   -9.9897 N   0  0  0  0  0  0  0  0  0  0  0  0
   -8.4342    8.8678  -11.3051 N   0  0  0  0  0  0  0  0  0  0  0  0
   -7.3415    9.8758   -8.0215 C   0  0  0  0  0  0  0  0  0  0  0  0
   -4.1211   13.8754  -11.2000 S   0  0  0  0  0  0  0  0  0  0  0  0
   -2.9188   12.5402  -11.7675 C   0  0  0  0  0  0  0  0  0  0  0  0
   -5.6382   13.5428  -12.1051 N   0  0  0  0  0  0  0  0  0  0  0  0
   -5.9683   10.4827   -7.7344 C   0  0  0  0  0  0  0  0  0  0  0  0
   -4.8123    9.7690   -8.0490 C   0  0  0  0  0  0  0  0  0  0  0  0
   -3.5592   10.3237   -7.7969 C   0  0  0  0  0  0  0  0  0  0  0  0
   -3.4543   11.5962   -7.2288 C   0  0  0  0  0  0  0  0  0  0  0  0
   -4.6126   12.3085   -6.9084 C   0  0  0  0  0  0  0  0  0  0  0  0
   -5.8671   11.7538   -7.1613 C   0  0  0  0  0  0  0  0  0  0  0  0
   -2.1058   12.1871   -6.9644 C   0  0  0  0  0  0  0  0  0  0  0  0
   -1.7745   13.4406   -6.4637 C   0  0  0  0  0  0  0  0  0  0  0  0
   -0.4394   13.4976   -6.4041 N   0  0  0  0  0  0  0  0  0  0  0  0
    0.1691   12.4146   -6.8015 N   0  0  0  0  0  0  0  0  0  0  0  0
   -0.8034   11.5995   -7.1773 C   0  0  0  0  0  0  0  0  0  0  0  0
    0.3694   14.6144   -5.9538 C   0  0  0  0  0  0  0  0  0  0  0  0
   -3.6497   15.1720  -11.6865 O   0  0  0  0  0  0  0  0  0  0  0  0
   -4.3650   13.6745   -9.7698 O   0  0  0  0  0  0  0  0  0  0  0  0
   -6.1257   12.2782   -9.8355 H   0  0  0  0  0  0  0  0  0  0  0  0
   -8.1227   10.1152  -13.9085 H   0  0  0  0  0  0  0  0  0  0  0  0
   -6.8205   12.2414  -14.0656 H   0  0  0  0  0  0  0  0  0  0  0  0
   -8.7541   10.5711  -11.6042 H   0  0  0  0  0  0  0  0  0  0  0  0
   -8.5708   10.3015   -9.3774 H   0  0  0  0  0  0  0  0  0  0  0  0
   -8.0330    9.5733   -7.2490 H   0  0  0  0  0  0  0  0  0  0  0  0
   -1.9543   12.6728  -11.2554 H   0  0  0  0  0  0  0  0  0  0  0  0
   -3.3298   11.5493  -11.5240 H   0  0  0  0  0  0  0  0  0  0  0  0
   -2.7704   12.6186  -12.8546 H   0  0  0  0  0  0  0  0  0  0  0  0
   -4.8884    8.7854   -8.4885 H   0  0  0  0  0  0  0  0  0  0  0  0
   -2.6658    9.7683   -8.0414 H   0  0  0  0  0  0  0  0  0  0  0  0
   -4.5366   13.2900   -6.4643 H   0  0  0  0  0  0  0  0  0  0  0  0
   -6.3910   12.4480   -7.8348 H   0  0  0  0  0  0  0  0  0  0  0  0
   -6.3948   11.7100   -6.1971 H   0  0  0  0  0  0  0  0  0  0  0  0
   -2.4642   14.2207   -6.1771 H   0  0  0  0  0  0  0  0  0  0  0  0
   -0.6430   10.6154   -7.5924 H   0  0  0  0  0  0  0  0  0  0  0  0
    1.4345   14.3489   -6.0254 H   0  0  0  0  0  0  0  0  0  0  0  0
    0.1671   15.4918   -6.5857 H   0  0  0  0  0  0  0  0  0  0  0  0
    0.1198   14.8498   -4.9087 H   0  0  0  0  0  0  0  0  0  0  0  0
  1  2  1  0  0  0  0
  1  4  1  0  0  0  0
  1 13  2  3  0  0  0
  2  6  2  0  0  0  0
  3  4  2  0  0  0  0
  3  5  1  0  0  0  0
  5  6  1  0  0  0  0
  5  9  1  0  0  0  0
  6  7  1  0  0  0  0
  7  8  1  0  0  0  0
  7 10  1  0  0  0  0
  8  9  2  0  0  0  0
 10 14  2  3  0  0  0
 11 12  1  0  0  0  0
 11 13  1  0  0  0  0
 11 26  2  0  0  0  0
 11 27  2  0  0  0  0
 14 15  1  0  0  0  0
 14 19  1  0  0  0  0
 15 16  2  0  0  0  0
 16 17  1  0  0  0  0
 17 18  2  0  0  0  0
 17 20  1  0  0  0  0
 18 19  1  0  0  0  0
 20 21  2  0  0  0  0
 20 24  1  0  0  0  0
 21 22  1  0  0  0  0
 22 23  1  0  0  0  0
 22 25  1  0  0  0  0
 23 24  2  0  0  0  0
  2 28  1  0  0  0  0
  3 29  1  0  0  0  0
  4 30  1  0  0  0  0
  5 31  1  0  0  0  0
  7 32  1  0  0  0  0
 10 33  1  0  0  0  0
 12 34  1  0  0  0  0
 12 35  1  0  0  0  0
 12 36  1  0  0  0  0
 15 37  1  0  0  0  0
 16 38  1  0  0  0  0
 18 39  1  0  0  0  0
 19 40  1  0  0  0  0
 19 41  1  0  0  0  0
 21 42  1  0  0  0  0
 24 43  1  0  0  0  0
 25 44  1  0  0  0  0
 25 45  1  0  0  0  0
 25 46  1  0  0  0  0
M  END
> <Name>
25

> <IC50[uM]>
0.073

$$$$
25
  -OEChem-05192314333D
 Structure written by MMmdl.
 46 49  0     1  0  0  0  0  0999 V2000
   -6.3861   12.3623  -11.9697 C   0  0  0  0  0  0  0  0  0  0  0  0
   -6.5480   11.8020  -10.7080 C   0  0  0  0  0  0  0  0  0  0  0  0
   -7.6869   10.5726  -13.0325 C   0  0  0  0  0  0  0  0  0  0  0  0
   -6.9529   11.7665  -13.1047 C   0  0  0  0  0  0  0  0  0  0  0  0
   -7.8210   10.0086  -11.7556 C   0  0  0  0  0  0  0  0  0  0  0  0
   -7.2636   10.6177  -10.5919 C   0  0  0  0  0  0  0  0  0  0  0  0
   -7.6330    9.7421   -9.5104 C   0  0  0  0  0  0  0  0  0  0  0  0
   -8.3023    8.7332   -9.9897 N   0  0  0  0  0  0  0  0  0  0  0  0
   -8.4342    8.8678  -11.3051 N   0  0  0  0  0  0  0  0  0  0  0  0
   -7.3415    9.8758   -8.0215 C   0  0  0  0  0  0  0  0  0  0  0  0
   -4.1211   13.8754  -11.2000 S   0  0  0  0  0  0  0  0  0  0  0  0
   -2.9188   12.5402  -11.7675 C   0  0  0  0  0  0  0  0  0  0  0  0
   -5.6382   13.5428  -12.1051 N   0  0  0  0  0  0  0  0  0  0  0  0
   -5.9683   10.4827   -7.7344 C   0  0  3  0  0  0  0  0  0  0  0  0
   -4.8123    9.7690   -8.0490 C   0  0  0  0  0  0  0  0  0  0  0  0
   -3.5592   10.3237   -7.7969 C   0  0  0  0  0  0  0  0  0  0  0  0
   -3.4543   11.5962   -7.2288 C   0  0  0  0  0  0  0  0  0  0  0  0
   -4.6126   12.3085   -6.9084 C   0  0  0  0  0  0  0  0  0  0  0  0
   -5.8671   11.7538   -7.1613 C   0  0  0  0  0  0  0  0  0  0  0  0
   -2.1058   12.1871   -6.9644 C   0  0  0  0  0  0  0  0  0  0  0  0
   -1.7745   13.4406   -6.4637 C   0  0  0  0  0  0  0  0  0  0  0  0
   -0.4394   13.4976   -6.4041 N   0  0  0  0  0  0  0  0  0  0  0  0
    0.1691   12.4146   -6.8015 N   0  0  0  0  0  0  0  0  0  0  0  0
   -0.8034   11.5995   -7.1773 C   0  0  0  0  0  0  0  0  0  0  0  0
    0.3694   14.6144   -5.9538 C   0  0  0  0  0  0  0  0  0  0  0  0
   -3.6497   15.1720  -11.6865 O   0  0  0  0  0  0  0  0  0  0  0  0
   -4.3650   13.6745   -9.7698 O   0  0  0  0  0  0  0  0  0  0  0  0
   -6.1257   12.2782   -9.8355 H   0  0  0  0  0  0  0  0  0  0  0  0
   -8.1227   10.1152  -13.9085 H   0  0  0  0  0  0  0  0  0  0  0  0
   -7.6287   12.5169  -13.5407 H   0  0  0  0  0  0  0  0  0  0  0  0
   -6.1214   11.5746  -13.7988 H   0  0  0  0  0  0  0  0  0  0  0  0
   -8.0330    9.5733   -7.2490 H   0  0  0  0  0  0  0  0  0  0  0  0
   -1.9543   12.6728  -11.2554 H   0  0  0  0  0  0  0  0  0  0  0  0
   -3.3298   11.5493  -11.5240 H   0  0  0  0  0  0  0  0  0  0  0  0
   -2.7704   12.6186  -12.8546 H   0  0  0  0  0  0  0  0  0  0  0  0
   -5.9765   10.0300   -6.7319 H   0  0  0  0  0  0  0  0  0  0  0  0
   -4.8884    8.7854   -8.4885 H   0  0  0  0  0  0  0  0  0  0  0  0
   -2.6658    9.7683   -8.0414 H   0  0  0  0  0  0  0  0  0  0  0  0
   -4.5366   13.2900   -6.4643 H   0  0  0  0  0  0  0  0  0  0  0  0
   -6.3910   12.4480   -7.8348 H   0  0  0  0  0  0  0  0  0  0  0  0
   -6.3948   11.7100   -6.1971 H   0  0  0  0  0  0  0  0  0  0  0  0
   -2.4642   14.2207   -6.1771 H   0  0  0  0  0  0  0  0  0  0  0  0
   -0.6430   10.6154   -7.5924 H   0  0  0  0  0  0  0  0  0  0  0  0
    1.4345   14.3489   -6.0254 H   0  0  0  0  0  0  0  0  0  0  0  0
    0.1671   15.4918   -6.5857 H   0  0  0  0  0  0  0  0  0  0  0  0
    0.1198   14.8498   -4.9087 H   0  0  0  0  0  0  0  0  0  0  0  0
  1  2  1  0  0  0  0
  1  4  1  0  0  0  0
  1 13  2  3  0  0  0
  2  6  2  0  0  0  0
  3  4  1  0  0  0  0
  3  5  2  0  0  0  0
  5  6  1  0  0  0  0
  5  9  1  0  0  0  0
  6  7  1  0  0  0  0
  7  8  1  0  0  0  0
  7 10  2  3  0  0  0
  8  9  2  0  0  0  0
 10 14  1  0  0  0  0
 11 12  1  0  0  0  0
 11 13  1  0  0  0  0
 11 26  2  0  0  0  0
 11 27  2  0  0  0  0
 14 15  1  0  0  0  0
 14 19  1  0  0  0  0
 15 16  2  0  0  0  0
 16 17  1  0  0  0  0
 17 18  2  0  0  0  0
 17 20  1  0  0  0  0
 18 19  1  0  0  0  0
 20 21  2  0  0  0  0
 20 24  1  0  0  0  0
 21 22  1  0  0  0  0
 22 23  1  0  0  0  0
 22 25  1  0  0  0  0
 23 24  2  0  0  0  0
  2 28  1  0  0  0  0
  3 29  1  0  0  0  0
  4 30  1  0  0  0  0
  4 31  1  0  0  0  0
 10 32  1  0  0  0  0
 12 33  1  0  0  0  0
 12 34  1  0  0  0  0
 12 35  1  0  0  0  0
 14 36  1  0  0  0  0
 15 37  1  0  0  0  0
 16 38  1  0  0  0  0
 18 39  1  0  0  0  0
 19 40  1  0  0  0  0
 19 41  1  0  0  0  0
 21 42  1  0  0  0  0
 24 43  1  0  0  0  0
 25 44  1  0  0  0  0
 25 45  1  0  0  0  0
 25 46  1  0  0  0  0
M  END
> <Name>
25

> <IC50[uM]>
0.073

$$$$
25
  -OEChem-05192314333D
 Structure written by MMmdl.
 46 49  0     1  0  0  0  0  0999 V2000
   -6.3861   12.3623  -11.9697 C   0  0  0  0  0  0  0  0  0  0  0  0
   -6.5480   11.8020  -10.7080 C   0  0  0  0  0  0  0  0  0  0  0  0
   -7.6869   10.5726  -13.0325 C   0  0  0  0  0  0  0  0  0  0  0  0
   -6.9529   11.7665  -13.1047 C   0  0  0  0  0  0  0  0  0  0  0  0
   -7.8210   10.0086  -11.7556 C   0  0  0  0  0  0  0  0  0  0  0  0
   -7.2636   10.6177  -10.5919 C   0  0  0  0  0  0  0  0  0  0  0  0
   -7.6330    9.7421   -9.5104 C   0  0  3  0  0  0  0  0  0  0  0  0
   -8.3023    8.7332   -9.9897 N   0  0  0  0  0  0  0  0  0  0  0  0
   -8.4342    8.8678  -11.3051 N   0  0  0  0  0  0  0  0  0  0  0  0
   -7.3415    9.8758   -8.0215 C   0  0  0  0  0  0  0  0  0  0  0  0
   -4.1211   13.8754  -11.2000 S   0  0  0  0  0  0  0  0  0  0  0  0
   -2.9188   12.5402  -11.7675 C   0  0  0  0  0  0  0  0  0  0  0  0
   -5.6382   13.5428  -12.1051 N   0  0  0  0  0  0  0  0  0  0  0  0
   -5.9683   10.4827   -7.7344 C   0  0  0  0  0  0  0  0  0  0  0  0
   -4.8123    9.7690   -8.0490 C   0  0  0  0  0  0  0  0  0  0  0  0
   -3.5592   10.3237   -7.7969 C   0  0  0  0  0  0  0  0  0  0  0  0
   -3.4543   11.5962   -7.2288 C   0  0  0  0  0  0  0  0  0  0  0  0
   -4.6126   12.3085   -6.9084 C   0  0  0  0  0  0  0  0  0  0  0  0
   -5.8671   11.7538   -7.1613 C   0  0  0  0  0  0  0  0  0  0  0  0
   -2.1058   12.1871   -6.9644 C   0  0  0  0  0  0  0  0  0  0  0  0
   -1.7745   13.4406   -6.4637 C   0  0  0  0  0  0  0  0  0  0  0  0
   -0.4394   13.4976   -6.4041 N   0  0  0  0  0  0  0  0  0  0  0  0
    0.1691   12.4146   -6.8015 N   0  0  0  0  0  0  0  0  0  0  0  0
   -0.8034   11.5995   -7.1773 C   0  0  0  0  0  0  0  0  0  0  0  0
    0.3694   14.6144   -5.9538 C   0  0  0  0  0  0  0  0  0  0  0  0
   -3.6497   15.1720  -11.6865 O   0  0  0  0  0  0  0  0  0  0  0  0
   -4.3650   13.6745   -9.7698 O   0  0  0  0  0  0  0  0  0  0  0  0
   -6.1257   12.2782   -9.8355 H   0  0  0  0  0  0  0  0  0  0  0  0
   -8.1227   10.1152  -13.9085 H   0  0  0  0  0  0  0  0  0  0  0  0
   -7.6287   12.5169  -13.5407 H   0  0  0  0  0  0  0  0  0  0  0  0
   -6.1214   11.5746  -13.7988 H   0  0  0  0  0  0  0  0  0  0  0  0
   -8.5708   10.3015   -9.3774 H   0  0  0  0  0  0  0  0  0  0  0  0
   -8.0330    9.5733   -7.2490 H   0  0  0  0  0  0  0  0  0  0  0  0
   -1.9543   12.6728  -11.2554 H   0  0  0  0  0  0  0  0  0  0  0  0
   -3.3298   11.5493  -11.5240 H   0  0  0  0  0  0  0  0  0  0  0  0
   -2.7704   12.6186  -12.8546 H   0  0  0  0  0  0  0  0  0  0  0  0
   -4.8884    8.7854   -8.4885 H   0  0  0  0  0  0  0  0  0  0  0  0
   -2.6658    9.7683   -8.0414 H   0  0  0  0  0  0  0  0  0  0  0  0
   -4.5366   13.2900   -6.4643 H   0  0  0  0  0  0  0  0  0  0  0  0
   -6.3910   12.4480   -7.8348 H   0  0  0  0  0  0  0  0  0  0  0  0
   -6.3948   11.7100   -6.1971 H   0  0  0  0  0  0  0  0  0  0  0  0
   -2.4642   14.2207   -6.1771 H   0  0  0  0  0  0  0  0  0  0  0  0
   -0.6430   10.6154   -7.5924 H   0  0  0  0  0  0  0  0  0  0  0  0
    1.4345   14.3489   -6.0254 H   0  0  0  0  0  0  0  0  0  0  0  0
    0.1671   15.4918   -6.5857 H   0  0  0  0  0  0  0  0  0  0  0  0
    0.1198   14.8498   -4.9087 H   0  0  0  0  0  0  0  0  0  0  0  0
  1  2  1  0  0  0  0
  1  4  1  0  0  0  0
  1 13  2  3  0  0  0
  2  6  2  0  0  0  0
  3  4  1  0  0  0  0
  3  5  2  0  0  0  0
  5  6  1  0  0  0  0
  5  9  1  0  0  0  0
  6  7  1  0  0  0  0
  7  8  1  0  0  0  0
  7 10  1  0  0  0  0
  8  9  2  0  0  0  0
 10 14  2  3  0  0  0
 11 12  1  0  0  0  0
 11 13  1  0  0  0  0
 11 26  2  0  0  0  0
 11 27  2  0  0  0  0
 14 15  1  0  0  0  0
 14 19  1  0  0  0  0
 15 16  2  0  0  0  0
 16 17  1  0  0  0  0
 17 18  2  0  0  0  0
 17 20  1  0  0  0  0
 18 19  1  0  0  0  0
 20 21  2  0  0  0  0
 20 24  1  0  0  0  0
 21 22  1  0  0  0  0
 22 23  1  0  0  0  0
 22 25  1  0  0  0  0
 23 24  2  0  0  0  0
  2 28  1  0  0  0  0
  3 29  1  0  0  0  0
  4 30  1  0  0  0  0
  4 31  1  0  0  0  0
  7 32  1  0  0  0  0
 10 33  1  0  0  0  0
 12 34  1  0  0  0  0
 12 35  1  0  0  0  0
 12 36  1  0  0  0  0
 15 37  1  0  0  0  0
 16 38  1  0  0  0  0
 18 39  1  0  0  0  0
 19 40  1  0  0  0  0
 19 41  1  0  0  0  0
 21 42  1  0  0  0  0
 24 43  1  0  0  0  0
 25 44  1  0  0  0  0
 25 45  1  0  0  0  0
 25 46  1  0  0  0  0
M  END
> <Name>
25

> <IC50[uM]>
0.073

$$$$
25
  -OEChem-05192314333D
 Structure written by MMmdl.
 46 49  0     1  0  0  0  0  0999 V2000
   -6.3861   12.3623  -11.9697 C   0  0  0  0  0  0  0  0  0  0  0  0
   -6.5480   11.8020  -10.7080 C   0  0  0  0  0  0  0  0  0  0  0  0
   -7.6869   10.5726  -13.0325 C   0  0  0  0  0  0  0  0  0  0  0  0
   -6.9529   11.7665  -13.1047 C   0  0  0  0  0  0  0  0  0  0  0  0
   -7.8210   10.0086  -11.7556 C   0  0  3  0  0  0  0  0  0  0  0  0
   -7.2636   10.6177  -10.5919 C   0  0  0  0  0  0  0  0  0  0  0  0
   -7.6330    9.7421   -9.5104 C   0  0  0  0  0  0  0  0  0  0  0  0
   -8.3023    8.7332   -9.9897 N   0  0  0  0  0  0  0  0  0  0  0  0
   -8.4342    8.8678  -11.3051 N   0  0  0  0  0  0  0  0  0  0  0  0
   -7.3415    9.8758   -8.0215 C   0  0  0  0  0  0  0  0  0  0  0  0
   -4.1211   13.8754  -11.2000 S   0  0  0  0  0  0  0  0  0  0  0  0
   -2.9188   12.5402  -11.7675 C   0  0  0  0  0  0  0  0  0  0  0  0
   -5.6382   13.5428  -12.1051 N   0  0  0  0  0  0  0  0  0  0  0  0
   -5.9683   10.4827   -7.7344 C   0  0  0  0  0  0  0  0  0  0  0  0
   -4.8123    9.7690   -8.0490 C   0  0  0  0  0  0  0  0  0  0  0  0
   -3.5592   10.3237   -7.7969 C   0  0  0  0  0  0  0  0  0  0  0  0
   -3.4543   11.5962   -7.2288 C   0  0  0  0  0  0  0  0  0  0  0  0
   -4.6126   12.3085   -6.9084 C   0  0  0  0  0  0  0  0  0  0  0  0
   -5.8671   11.7538   -7.1613 C   0  0  0  0  0  0  0  0  0  0  0  0
   -2.1058   12.1871   -6.9644 C   0  0  0  0  0  0  0  0  0  0  0  0
   -1.7745   13.4406   -6.4637 C   0  0  0  0  0  0  0  0  0  0  0  0
   -0.4394   13.4976   -6.4041 N   0  0  0  0  0  0  0  0  0  0  0  0
    0.1691   12.4146   -6.8015 N   0  0  0  0  0  0  0  0  0  0  0  0
   -0.8034   11.5995   -7.1773 C   0  0  0  0  0  0  0  0  0  0  0  0
    0.3694   14.6144   -5.9538 C   0  0  0  0  0  0  0  0  0  0  0  0
   -3.6497   15.1720  -11.6865 O   0  0  0  0  0  0  0  0  0  0  0  0
   -4.3650   13.6745   -9.7698 O   0  0  0  0  0  0  0  0  0  0  0  0
   -6.1257   12.2782   -9.8355 H   0  0  0  0  0  0  0  0  0  0  0  0
   -8.1227   10.1152  -13.9085 H   0  0  0  0  0  0  0  0  0  0  0  0
   -6.8205   12.2414  -14.0656 H   0  0  0  0  0  0  0  0  0  0  0  0
   -8.7541   10.5711  -11.6042 H   0  0  0  0  0  0  0  0  0  0  0  0
   -8.0330    9.5733   -7.2490 H   0  0  0  0  0  0  0  0  0  0  0  0
   -1.9543   12.6728  -11.2554 H   0  0  0  0  0  0  0  0  0  0  0  0
   -3.3298   11.5493  -11.5240 H   0  0  0  0  0  0  0  0  0  0  0  0
   -2.7704   12.6186  -12.8546 H   0  0  0  0  0  0  0  0  0  0  0  0
   -4.8884    8.7854   -8.4885 H   0  0  0  0  0  0  0  0  0  0  0  0
   -3.0369    9.6312   -7.1205 H   0  0  0  0  0  0  0  0  0  0  0  0
   -3.0308   10.3630   -8.7609 H   0  0  0  0  0  0  0  0  0  0  0  0
   -4.5366   13.2900   -6.4643 H   0  0  0  0  0  0  0  0  0  0  0  0
   -6.3910   12.4480   -7.8348 H   0  0  0  0  0  0  0  0  0  0  0  0
   -6.3948   11.7100   -6.1971 H   0  0  0  0  0  0  0  0  0  0  0  0
   -2.4642   14.2207   -6.1771 H   0  0  0  0  0  0  0  0  0  0  0  0
   -0.6430   10.6154   -7.5924 H   0  0  0  0  0  0  0  0  0  0  0  0
    1.4345   14.3489   -6.0254 H   0  0  0  0  0  0  0  0  0  0  0  0
    0.1671   15.4918   -6.5857 H   0  0  0  0  0  0  0  0  0  0  0  0
    0.1198   14.8498   -4.9087 H   0  0  0  0  0  0  0  0  0  0  0  0
  1  2  1  0  0  0  0
  1  4  1  0  0  0  0
  1 13  2  3  0  0  0
  2  6  2  0  0  0  0
  3  4  2  0  0  0  0
  3  5  1  0  0  0  0
  5  6  1  0  0  0  0
  5  9  1  0  0  0  0
  6  7  1  0  0  0  0
  7  8  1  0  0  0  0
  7 10  2  3  0  0  0
  8  9  2  0  0  0  0
 10 14  1  0  0  0  0
 11 12  1  0  0  0  0
 11 13  1  0  0  0  0
 11 26  2  0  0  0  0
 11 27  2  0  0  0  0
 14 15  2  0  0  0  0
 14 19  1  0  0  0  0
 15 16  1  0  0  0  0
 16 17  1  0  0  0  0
 17 18  2  0  0  0  0
 17 20  1  0  0  0  0
 18 19  1  0  0  0  0
 20 21  2  0  0  0  0
 20 24  1  0  0  0  0
 21 22  1  0  0  0  0
 22 23  1  0  0  0  0
 22 25  1  0  0  0  0
 23 24  2  0  0  0  0
  2 28  1  0  0  0  0
  3 29  1  0  0  0  0
  4 30  1  0  0  0  0
  5 31  1  0  0  0  0
 10 32  1  0  0  0  0
 12 33  1  0  0  0  0
 12 34  1  0  0  0  0
 12 35  1  0  0  0  0
 15 36  1  0  0  0  0
 16 37  1  0  0  0  0
 16 38  1  0  0  0  0
 18 39  1  0  0  0  0
 19 40  1  0  0  0  0
 19 41  1  0  0  0  0
 21 42  1  0  0  0  0
 24 43  1  0  0  0  0
 25 44  1  0  0  0  0
 25 45  1  0  0  0  0
 25 46  1  0  0  0  0
M  END
> <Name>
25

> <IC50[uM]>
0.073

$$$$
25
  -OEChem-05192314333D
 Structure written by MMmdl.
 46 49  0     0  0  0  0  0  0999 V2000
   -6.3861   12.3623  -11.9697 C   0  0  0  0  0  0  0  0  0  0  0  0
   -6.5480   11.8020  -10.7080 C   0  0  0  0  0  0  0  0  0  0  0  0
   -7.6869   10.5726  -13.0325 C   0  0  0  0  0  0  0  0  0  0  0  0
   -6.9529   11.7665  -13.1047 C   0  0  0  0  0  0  0  0  0  0  0  0
   -7.8210   10.0086  -11.7556 C   0  0  0  0  0  0  0  0  0  0  0  0
   -7.2636   10.6177  -10.5919 C   0  0  0  0  0  0  0  0  0  0  0  0
   -7.6330    9.7421   -9.5104 C   0  0  0  0  0  0  0  0  0  0  0  0
   -8.3023    8.7332   -9.9897 N   0  0  0  0  0  0  0  0  0  0  0  0
   -8.4342    8.8678  -11.3051 N   0  0  0  0  0  0  0  0  0  0  0  0
   -7.3415    9.8758   -8.0215 C   0  0  0  0  0  0  0  0  0  0  0  0
   -4.1211   13.8754  -11.2000 S   0  0  0  0  0  0  0  0  0  0  0  0
   -2.9188   12.5402  -11.7675 C   0  0  0  0  0  0  0  0  0  0  0  0
   -5.6382   13.5428  -12.1051 N   0  0  0  0  0  0  0  0  0  0  0  0
   -5.9683   10.4827   -7.7344 C   0  0  0  0  0  0  0  0  0  0  0  0
   -4.8123    9.7690   -8.0490 C   0  0  0  0  0  0  0  0  0  0  0  0
   -3.5592   10.3237   -7.7969 C   0  0  0  0  0  0  0  0  0  0  0  0
   -3.4543   11.5962   -7.2288 C   0  0  0  0  0  0  0  0  0  0  0  0
   -4.6126   12.3085   -6.9084 C   0  0  0  0  0  0  0  0  0  0  0  0
   -5.8671   11.7538   -7.1613 C   0  0  0  0  0  0  0  0  0  0  0  0
   -2.1058   12.1871   -6.9644 C   0  0  0  0  0  0  0  0  0  0  0  0
   -1.7745   13.4406   -6.4637 C   0  0  0  0  0  0  0  0  0  0  0  0
   -0.4394   13.4976   -6.4041 N   0  0  0  0  0  0  0  0  0  0  0  0
    0.1691   12.4146   -6.8015 N   0  0  0  0  0  0  0  0  0  0  0  0
   -0.8034   11.5995   -7.1773 C   0  0  0  0  0  0  0  0  0  0  0  0
    0.3694   14.6144   -5.9538 C   0  0  0  0  0  0  0  0  0  0  0  0
   -3.6497   15.1720  -11.6865 O   0  0  0  0  0  0  0  0  0  0  0  0
   -4.3650   13.6745   -9.7698 O   0  0  0  0  0  0  0  0  0  0  0  0
   -6.1257   12.2782   -9.8355 H   0  0  0  0  0  0  0  0  0  0  0  0
   -8.1227   10.1152  -13.9085 H   0  0  0  0  0  0  0  0  0  0  0  0
   -7.6287   12.5169  -13.5407 H   0  0  0  0  0  0  0  0  0  0  0  0
   -6.1214   11.5746  -13.7988 H   0  0  0  0  0  0  0  0  0  0  0  0
   -8.0330    9.5733   -7.2490 H   0  0  0  0  0  0  0  0  0  0  0  0
   -1.9543   12.6728  -11.2554 H   0  0  0  0  0  0  0  0  0  0  0  0
   -3.3298   11.5493  -11.5240 H   0  0  0  0  0  0  0  0  0  0  0  0
   -2.7704   12.6186  -12.8546 H   0  0  0  0  0  0  0  0  0  0  0  0
   -4.8884    8.7854   -8.4885 H   0  0  0  0  0  0  0  0  0  0  0  0
   -3.0369    9.6312   -7.1205 H   0  0  0  0  0  0  0  0  0  0  0  0
   -3.0308   10.3630   -8.7609 H   0  0  0  0  0  0  0  0  0  0  0  0
   -4.5366   13.2900   -6.4643 H   0  0  0  0  0  0  0  0  0  0  0  0
   -6.3910   12.4480   -7.8348 H   0  0  0  0  0  0  0  0  0  0  0  0
   -6.3948   11.7100   -6.1971 H   0  0  0  0  0  0  0  0  0  0  0  0
   -2.4642   14.2207   -6.1771 H   0  0  0  0  0  0  0  0  0  0  0  0
   -0.6430   10.6154   -7.5924 H   0  0  0  0  0  0  0  0  0  0  0  0
    1.4345   14.3489   -6.0254 H   0  0  0  0  0  0  0  0  0  0  0  0
    0.1671   15.4918   -6.5857 H   0  0  0  0  0  0  0  0  0  0  0  0
    0.1198   14.8498   -4.9087 H   0  0  0  0  0  0  0  0  0  0  0  0
  1  2  1  0  0  0  0
  1  4  1  0  0  0  0
  1 13  2  3  0  0  0
  2  6  2  0  0  0  0
  3  4  1  0  0  0  0
  3  5  2  0  0  0  0
  5  6  1  0  0  0  0
  5  9  1  0  0  0  0
  6  7  1  0  0  0  0
  7  8  1  0  0  0  0
  7 10  2  3  0  0  0
  8  9  2  0  0  0  0
 10 14  1  0  0  0  0
 11 12  1  0  0  0  0
 11 13  1  0  0  0  0
 11 26  2  0  0  0  0
 11 27  2  0  0  0  0
 14 15  2  0  0  0  0
 14 19  1  0  0  0  0
 15 16  1  0  0  0  0
 16 17  1  0  0  0  0
 17 18  2  0  0  0  0
 17 20  1  0  0  0  0
 18 19  1  0  0  0  0
 20 21  2  0  0  0  0
 20 24  1  0  0  0  0
 21 22  1  0  0  0  0
 22 23  1  0  0  0  0
 22 25  1  0  0  0  0
 23 24  2  0  0  0  0
  2 28  1  0  0  0  0
  3 29  1  0  0  0  0
  4 30  1  0  0  0  0
  4 31  1  0  0  0  0
 10 32  1  0  0  0  0
 12 33  1  0  0  0  0
 12 34  1  0  0  0  0
 12 35  1  0  0  0  0
 15 36  1  0  0  0  0
 16 37  1  0  0  0  0
 16 38  1  0  0  0  0
 18 39  1  0  0  0  0
 19 40  1  0  0  0  0
 19 41  1  0  0  0  0
 21 42  1  0  0  0  0
 24 43  1  0  0  0  0
 25 44  1  0  0  0  0
 25 45  1  0  0  0  0
 25 46  1  0  0  0  0
M  END
> <Name>
25

> <IC50[uM]>
0.073

$$$$
25
  -OEChem-05192314333D
 Structure written by MMmdl.
 46 49  0     1  0  0  0  0  0999 V2000
   -6.3861   12.3623  -11.9697 C   0  0  0  0  0  0  0  0  0  0  0  0
   -6.5480   11.8020  -10.7080 C   0  0  0  0  0  0  0  0  0  0  0  0
   -7.6869   10.5726  -13.0325 C   0  0  0  0  0  0  0  0  0  0  0  0
   -6.9529   11.7665  -13.1047 C   0  0  0  0  0  0  0  0  0  0  0  0
   -7.8210   10.0086  -11.7556 C   0  0  3  0  0  0  0  0  0  0  0  0
   -7.2636   10.6177  -10.5919 C   0  0  0  0  0  0  0  0  0  0  0  0
   -7.6330    9.7421   -9.5104 C   0  0  0  0  0  0  0  0  0  0  0  0
   -8.3023    8.7332   -9.9897 N   0  0  0  0  0  0  0  0  0  0  0  0
   -8.4342    8.8678  -11.3051 N   0  0  0  0  0  0  0  0  0  0  0  0
   -7.3415    9.8758   -8.0215 C   0  0  0  0  0  0  0  0  0  0  0  0
   -4.1211   13.8754  -11.2000 S   0  0  0  0  0  0  0  0  0  0  0  0
   -2.9188   12.5402  -11.7675 C   0  0  0  0  0  0  0  0  0  0  0  0
   -5.6382   13.5428  -12.1051 N   0  0  0  0  0  0  0  0  0  0  0  0
   -5.9683   10.4827   -7.7344 C   0  0  0  0  0  0  0  0  0  0  0  0
   -4.8123    9.7690   -8.0490 C   0  0  0  0  0  0  0  0  0  0  0  0
   -3.5592   10.3237   -7.7969 C   0  0  0  0  0  0  0  0  0  0  0  0
   -3.4543   11.5962   -7.2288 C   0  0  0  0  0  0  0  0  0  0  0  0
   -4.6126   12.3085   -6.9084 C   0  0  0  0  0  0  0  0  0  0  0  0
   -5.8671   11.7538   -7.1613 C   0  0  0  0  0  0  0  0  0  0  0  0
   -2.1058   12.1871   -6.9644 C   0  0  0  0  0  0  0  0  0  0  0  0
   -1.7745   13.4406   -6.4637 C   0  0  0  0  0  0  0  0  0  0  0  0
   -0.4394   13.4976   -6.4041 N   0  0  0  0  0  0  0  0  0  0  0  0
    0.1691   12.4146   -6.8015 N   0  0  0  0  0  0  0  0  0  0  0  0
   -0.8034   11.5995   -7.1773 C   0  0  0  0  0  0  0  0  0  0  0  0
    0.3694   14.6144   -5.9538 C   0  0  0  0  0  0  0  0  0  0  0  0
   -3.6497   15.1720  -11.6865 O   0  0  0  0  0  0  0  0  0  0  0  0
   -4.3650   13.6745   -9.7698 O   0  0  0  0  0  0  0  0  0  0  0  0
   -6.1257   12.2782   -9.8355 H   0  0  0  0  0  0  0  0  0  0  0  0
   -8.1227   10.1152  -13.9085 H   0  0  0  0  0  0  0  0  0  0  0  0
   -6.8205   12.2414  -14.0656 H   0  0  0  0  0  0  0  0  0  0  0  0
   -8.7541   10.5711  -11.6042 H   0  0  0  0  0  0  0  0  0  0  0  0
   -8.0330    9.5733   -7.2490 H   0  0  0  0  0  0  0  0  0  0  0  0
   -1.9543   12.6728  -11.2554 H   0  0  0  0  0  0  0  0  0  0  0  0
   -3.3298   11.5493  -11.5240 H   0  0  0  0  0  0  0  0  0  0  0  0
   -2.7704   12.6186  -12.8546 H   0  0  0  0  0  0  0  0  0  0  0  0
   -4.8884    8.7854   -8.4885 H   0  0  0  0  0  0  0  0  0  0  0  0
   -2.6658    9.7683   -8.0414 H   0  0  0  0  0  0  0  0  0  0  0  0
   -4.5692   12.5155   -5.8289 H   0  0  0  0  0  0  0  0  0  0  0  0
   -4.5666   13.2558   -7.4655 H   0  0  0  0  0  0  0  0  0  0  0  0
   -6.3910   12.4480   -7.8348 H   0  0  0  0  0  0  0  0  0  0  0  0
   -6.3948   11.7100   -6.1971 H   0  0  0  0  0  0  0  0  0  0  0  0
   -2.4642   14.2207   -6.1771 H   0  0  0  0  0  0  0  0  0  0  0  0
   -0.6430   10.6154   -7.5924 H   0  0  0  0  0  0  0  0  0  0  0  0
    1.4345   14.3489   -6.0254 H   0  0  0  0  0  0  0  0  0  0  0  0
    0.1671   15.4918   -6.5857 H   0  0  0  0  0  0  0  0  0  0  0  0
    0.1198   14.8498   -4.9087 H   0  0  0  0  0  0  0  0  0  0  0  0
  1  2  1  0  0  0  0
  1  4  1  0  0  0  0
  1 13  2  3  0  0  0
  2  6  2  0  0  0  0
  3  4  2  0  0  0  0
  3  5  1  0  0  0  0
  5  6  1  0  0  0  0
  5  9  1  0  0  0  0
  6  7  1  0  0  0  0
  7  8  1  0  0  0  0
  7 10  2  3  0  0  0
  8  9  2  0  0  0  0
 10 14  1  0  0  0  0
 11 12  1  0  0  0  0
 11 13  1  0  0  0  0
 11 26  2  0  0  0  0
 11 27  2  0  0  0  0
 14 15  2  0  0  0  0
 14 19  1  0  0  0  0
 15 16  1  0  0  0  0
 16 17  2  0  0  0  0
 17 18  1  0  0  0  0
 17 20  1  0  0  0  0
 18 19  1  0  0  0  0
 20 21  2  0  0  0  0
 20 24  1  0  0  0  0
 21 22  1  0  0  0  0
 22 23  1  0  0  0  0
 22 25  1  0  0  0  0
 23 24  2  0  0  0  0
  2 28  1  0  0  0  0
  3 29  1  0  0  0  0
  4 30  1  0  0  0  0
  5 31  1  0  0  0  0
 10 32  1  0  0  0  0
 12 33  1  0  0  0  0
 12 34  1  0  0  0  0
 12 35  1  0  0  0  0
 15 36  1  0  0  0  0
 16 37  1  0  0  0  0
 18 38  1  0  0  0  0
 18 39  1  0  0  0  0
 19 40  1  0  0  0  0
 19 41  1  0  0  0  0
 21 42  1  0  0  0  0
 24 43  1  0  0  0  0
 25 44  1  0  0  0  0
 25 45  1  0  0  0  0
 25 46  1  0  0  0  0
M  END
> <Name>
25

> <IC50[uM]>
0.073

$$$$
25
  -OEChem-05192314333D
 Structure written by MMmdl.
 46 49  0     0  0  0  0  0  0999 V2000
   -6.3861   12.3623  -11.9697 C   0  0  0  0  0  0  0  0  0  0  0  0
   -6.5480   11.8020  -10.7080 C   0  0  0  0  0  0  0  0  0  0  0  0
   -7.6869   10.5726  -13.0325 C   0  0  0  0  0  0  0  0  0  0  0  0
   -6.9529   11.7665  -13.1047 C   0  0  0  0  0  0  0  0  0  0  0  0
   -7.8210   10.0086  -11.7556 C   0  0  0  0  0  0  0  0  0  0  0  0
   -7.2636   10.6177  -10.5919 C   0  0  0  0  0  0  0  0  0  0  0  0
   -7.6330    9.7421   -9.5104 C   0  0  0  0  0  0  0  0  0  0  0  0
   -8.3023    8.7332   -9.9897 N   0  0  0  0  0  0  0  0  0  0  0  0
   -8.4342    8.8678  -11.3051 N   0  0  0  0  0  0  0  0  0  0  0  0
   -7.3415    9.8758   -8.0215 C   0  0  0  0  0  0  0  0  0  0  0  0
   -4.1211   13.8754  -11.2000 S   0  0  0  0  0  0  0  0  0  0  0  0
   -2.9188   12.5402  -11.7675 C   0  0  0  0  0  0  0  0  0  0  0  0
   -5.6382   13.5428  -12.1051 N   0  0  0  0  0  0  0  0  0  0  0  0
   -5.9683   10.4827   -7.7344 C   0  0  0  0  0  0  0  0  0  0  0  0
   -4.8123    9.7690   -8.0490 C   0  0  0  0  0  0  0  0  0  0  0  0
   -3.5592   10.3237   -7.7969 C   0  0  0  0  0  0  0  0  0  0  0  0
   -3.4543   11.5962   -7.2288 C   0  0  0  0  0  0  0  0  0  0  0  0
   -4.6126   12.3085   -6.9084 C   0  0  0  0  0  0  0  0  0  0  0  0
   -5.8671   11.7538   -7.1613 C   0  0  0  0  0  0  0  0  0  0  0  0
   -2.1058   12.1871   -6.9644 C   0  0  0  0  0  0  0  0  0  0  0  0
   -1.7745   13.4406   -6.4637 C   0  0  0  0  0  0  0  0  0  0  0  0
   -0.4394   13.4976   -6.4041 N   0  0  0  0  0  0  0  0  0  0  0  0
    0.1691   12.4146   -6.8015 N   0  0  0  0  0  0  0  0  0  0  0  0
   -0.8034   11.5995   -7.1773 C   0  0  0  0  0  0  0  0  0  0  0  0
    0.3694   14.6144   -5.9538 C   0  0  0  0  0  0  0  0  0  0  0  0
   -3.6497   15.1720  -11.6865 O   0  0  0  0  0  0  0  0  0  0  0  0
   -4.3650   13.6745   -9.7698 O   0  0  0  0  0  0  0  0  0  0  0  0
   -6.1257   12.2782   -9.8355 H   0  0  0  0  0  0  0  0  0  0  0  0
   -8.1227   10.1152  -13.9085 H   0  0  0  0  0  0  0  0  0  0  0  0
   -7.6287   12.5169  -13.5407 H   0  0  0  0  0  0  0  0  0  0  0  0
   -6.1214   11.5746  -13.7988 H   0  0  0  0  0  0  0  0  0  0  0  0
   -8.0330    9.5733   -7.2490 H   0  0  0  0  0  0  0  0  0  0  0  0
   -1.9543   12.6728  -11.2554 H   0  0  0  0  0  0  0  0  0  0  0  0
   -3.3298   11.5493  -11.5240 H   0  0  0  0  0  0  0  0  0  0  0  0
   -2.7704   12.6186  -12.8546 H   0  0  0  0  0  0  0  0  0  0  0  0
   -4.8884    8.7854   -8.4885 H   0  0  0  0  0  0  0  0  0  0  0  0
   -2.6658    9.7683   -8.0414 H   0  0  0  0  0  0  0  0  0  0  0  0
   -4.5692   12.5155   -5.8289 H   0  0  0  0  0  0  0  0  0  0  0  0
   -4.5666   13.2558   -7.4655 H   0  0  0  0  0  0  0  0  0  0  0  0
   -6.3910   12.4480   -7.8348 H   0  0  0  0  0  0  0  0  0  0  0  0
   -6.3948   11.7100   -6.1971 H   0  0  0  0  0  0  0  0  0  0  0  0
   -2.4642   14.2207   -6.1771 H   0  0  0  0  0  0  0  0  0  0  0  0
   -0.6430   10.6154   -7.5924 H   0  0  0  0  0  0  0  0  0  0  0  0
    1.4345   14.3489   -6.0254 H   0  0  0  0  0  0  0  0  0  0  0  0
    0.1671   15.4918   -6.5857 H   0  0  0  0  0  0  0  0  0  0  0  0
    0.1198   14.8498   -4.9087 H   0  0  0  0  0  0  0  0  0  0  0  0
  1  2  1  0  0  0  0
  1  4  1  0  0  0  0
  1 13  2  3  0  0  0
  2  6  2  0  0  0  0
  3  4  1  0  0  0  0
  3  5  2  0  0  0  0
  5  6  1  0  0  0  0
  5  9  1  0  0  0  0
  6  7  1  0  0  0  0
  7  8  1  0  0  0  0
  7 10  2  3  0  0  0
  8  9  2  0  0  0  0
 10 14  1  0  0  0  0
 11 12  1  0  0  0  0
 11 13  1  0  0  0  0
 11 26  2  0  0  0  0
 11 27  2  0  0  0  0
 14 15  2  0  0  0  0
 14 19  1  0  0  0  0
 15 16  1  0  0  0  0
 16 17  2  0  0  0  0
 17 18  1  0  0  0  0
 17 20  1  0  0  0  0
 18 19  1  0  0  0  0
 20 21  2  0  0  0  0
 20 24  1  0  0  0  0
 21 22  1  0  0  0  0
 22 23  1  0  0  0  0
 22 25  1  0  0  0  0
 23 24  2  0  0  0  0
  2 28  1  0  0  0  0
  3 29  1  0  0  0  0
  4 30  1  0  0  0  0
  4 31  1  0  0  0  0
 10 32  1  0  0  0  0
 12 33  1  0  0  0  0
 12 34  1  0  0  0  0
 12 35  1  0  0  0  0
 15 36  1  0  0  0  0
 16 37  1  0  0  0  0
 18 38  1  0  0  0  0
 18 39  1  0  0  0  0
 19 40  1  0  0  0  0
 19 41  1  0  0  0  0
 21 42  1  0  0  0  0
 24 43  1  0  0  0  0
 25 44  1  0  0  0  0
 25 45  1  0  0  0  0
 25 46  1  0  0  0  0
M  END
> <Name>
25

> <IC50[uM]>
0.073

$$$$
25
  -OEChem-05192314333D
 Structure written by MMmdl.
 46 49  0     0  0  0  0  0  0999 V2000
   -6.3861   12.3623  -11.9697 C   0  0  0  0  0  0  0  0  0  0  0  0
   -6.5480   11.8020  -10.7080 C   0  0  0  0  0  0  0  0  0  0  0  0
   -7.6869   10.5726  -13.0325 C   0  0  0  0  0  0  0  0  0  0  0  0
   -6.9529   11.7665  -13.1047 C   0  0  0  0  0  0  0  0  0  0  0  0
   -7.8210   10.0086  -11.7556 C   0  0  0  0  0  0  0  0  0  0  0  0
   -7.2636   10.6177  -10.5919 C   0  0  0  0  0  0  0  0  0  0  0  0
   -7.6330    9.7421   -9.5104 C   0  0  0  0  0  0  0  0  0  0  0  0
   -8.3023    8.7332   -9.9897 N   0  0  0  0  0  0  0  0  0  0  0  0
   -8.4342    8.8678  -11.3051 N   0  0  0  0  0  0  0  0  0  0  0  0
   -7.3415    9.8758   -8.0215 C   0  0  0  0  0  0  0  0  0  0  0  0
   -4.1211   13.8754  -11.2000 S   0  0  0  0  0  0  0  0  0  0  0  0
   -2.9188   12.5402  -11.7675 C   0  0  0  0  0  0  0  0  0  0  0  0
   -5.6382   13.5428  -12.1051 N   0  0  0  0  0  0  0  0  0  0  0  0
   -5.9683   10.4827   -7.7344 C   0  0  0  0  0  0  0  0  0  0  0  0
   -4.8123    9.7690   -8.0490 C   0  0  0  0  0  0  0  0  0  0  0  0
   -3.5592   10.3237   -7.7969 C   0  0  0  0  0  0  0  0  0  0  0  0
   -3.4543   11.5962   -7.2288 C   0  0  0  0  0  0  0  0  0  0  0  0
   -4.6126   12.3085   -6.9084 C   0  0  0  0  0  0  0  0  0  0  0  0
   -5.8671   11.7538   -7.1613 C   0  0  0  0  0  0  0  0  0  0  0  0
   -2.1058   12.1871   -6.9644 C   0  0  0  0  0  0  0  0  0  0  0  0
   -1.7745   13.4406   -6.4637 C   0  0  0  0  0  0  0  0  0  0  0  0
   -0.4394   13.4976   -6.4041 N   0  0  0  0  0  0  0  0  0  0  0  0
    0.1691   12.4146   -6.8015 N   0  0  0  0  0  0  0  0  0  0  0  0
   -0.8034   11.5995   -7.1773 C   0  0  0  0  0  0  0  0  0  0  0  0
    0.3694   14.6144   -5.9538 C   0  0  0  0  0  0  0  0  0  0  0  0
   -3.6497   15.1720  -11.6865 O   0  0  0  0  0  0  0  0  0  0  0  0
   -4.3650   13.6745   -9.7698 O   0  0  0  0  0  0  0  0  0  0  0  0
   -5.5417   11.6132  -10.3059 H   0  0  0  0  0  0  0  0  0  0  0  0
   -7.0576   12.5509  -10.0840 H   0  0  0  0  0  0  0  0  0  0  0  0
   -8.1227   10.1152  -13.9085 H   0  0  0  0  0  0  0  0  0  0  0  0
   -6.8205   12.2414  -14.0656 H   0  0  0  0  0  0  0  0  0  0  0  0
   -8.0330    9.5733   -7.2490 H   0  0  0  0  0  0  0  0  0  0  0  0
   -1.9543   12.6728  -11.2554 H   0  0  0  0  0  0  0  0  0  0  0  0
   -3.3298   11.5493  -11.5240 H   0  0  0  0  0  0  0  0  0  0  0  0
   -2.7704   12.6186  -12.8546 H   0  0  0  0  0  0  0  0  0  0  0  0
   -5.9765   10.0300   -6.7319 H   0  0  0  0  0  0  0  0  0  0  0  0
   -4.8884    8.7854   -8.4885 H   0  0  0  0  0  0  0  0  0  0  0  0
   -2.6658    9.7683   -8.0414 H   0  0  0  0  0  0  0  0  0  0  0  0
   -3.4550   12.0453   -8.2329 H   0  0  0  0  0  0  0  0  0  0  0  0
   -4.5366   13.2900   -6.4643 H   0  0  0  0  0  0  0  0  0  0  0  0
   -6.7612   12.3068   -6.9141 H   0  0  0  0  0  0  0  0  0  0  0  0
   -2.4642   14.2207   -6.1771 H   0  0  0  0  0  0  0  0  0  0  0  0
   -0.6430   10.6154   -7.5924 H   0  0  0  0  0  0  0  0  0  0  0  0
    1.4345   14.3489   -6.0254 H   0  0  0  0  0  0  0  0  0  0  0  0
    0.1671   15.4918   -6.5857 H   0  0  0  0  0  0  0  0  0  0  0  0
    0.1198   14.8498   -4.9087 H   0  0  0  0  0  0  0  0  0  0  0  0
  1  2  1  0  0  0  0
  1  4  1  0  0  0  0
  1 13  2  3  0  0  0
  2  6  1  0  0  0  0
  3  4  2  0  0  0  0
  3  5  1  0  0  0  0
  5  6  2  0  0  0  0
  5  9  1  0  0  0  0
  6  7  1  0  0  0  0
  7  8  1  0  0  0  0
  7 10  2  3  0  0  0
  8  9  2  0  0  0  0
 10 14  1  0  0  0  0
 11 12  1  0  0  0  0
 11 13  1  0  0  0  0
 11 26  2  0  0  0  0
 11 27  2  0  0  0  0
 14 15  1  0  0  0  0
 14 19  1  0  0  0  0
 15 16  2  0  0  0  0
 16 17  1  0  0  0  0
 17 18  1  0  0  0  0
 17 20  1  0  0  0  0
 18 19  2  0  0  0  0
 20 21  2  0  0  0  0
 20 24  1  0  0  0  0
 21 22  1  0  0  0  0
 22 23  1  0  0  0  0
 22 25  1  0  0  0  0
 23 24  2  0  0  0  0
  2 28  1  0  0  0  0
  2 29  1  0  0  0  0
  3 30  1  0  0  0  0
  4 31  1  0  0  0  0
 10 32  1  0  0  0  0
 12 33  1  0  0  0  0
 12 34  1  0  0  0  0
 12 35  1  0  0  0  0
 14 36  1  0  0  0  0
 15 37  1  0  0  0  0
 16 38  1  0  0  0  0
 17 39  1  0  0  0  0
 18 40  1  0  0  0  0
 19 41  1  0  0  0  0
 21 42  1  0  0  0  0
 24 43  1  0  0  0  0
 25 44  1  0  0  0  0
 25 45  1  0  0  0  0
 25 46  1  0  0  0  0
M  END
> <Name>
25

> <IC50[uM]>
0.073

$$$$
25
  -OEChem-05192314333D
 Structure written by MMmdl.
 46 49  0     1  0  0  0  0  0999 V2000
   -6.3861   12.3623  -11.9697 C   0  0  0  0  0  0  0  0  0  0  0  0
   -6.5480   11.8020  -10.7080 C   0  0  0  0  0  0  0  0  0  0  0  0
   -7.6869   10.5726  -13.0325 C   0  0  0  0  0  0  0  0  0  0  0  0
   -6.9529   11.7665  -13.1047 C   0  0  0  0  0  0  0  0  0  0  0  0
   -7.8210   10.0086  -11.7556 C   0  0  0  0  0  0  0  0  0  0  0  0
   -7.2636   10.6177  -10.5919 C   0  0  0  0  0  0  0  0  0  0  0  0
   -7.6330    9.7421   -9.5104 C   0  0  3  0  0  0  0  0  0  0  0  0
   -8.3023    8.7332   -9.9897 N   0  0  0  0  0  0  0  0  0  0  0  0
   -8.4342    8.8678  -11.3051 N   0  0  0  0  0  0  0  0  0  0  0  0
   -7.3415    9.8758   -8.0215 C   0  0  0  0  0  0  0  0  0  0  0  0
   -4.1211   13.8754  -11.2000 S   0  0  0  0  0  0  0  0  0  0  0  0
   -2.9188   12.5402  -11.7675 C   0  0  0  0  0  0  0  0  0  0  0  0
   -5.6382   13.5428  -12.1051 N   0  0  0  0  0  0  0  0  0  0  0  0
   -5.9683   10.4827   -7.7344 C   0  0  0  0  0  0  0  0  0  0  0  0
   -4.8123    9.7690   -8.0490 C   0  0  0  0  0  0  0  0  0  0  0  0
   -3.5592   10.3237   -7.7969 C   0  0  0  0  0  0  0  0  0  0  0  0
   -3.4543   11.5962   -7.2288 C   0  0  0  0  0  0  0  0  0  0  0  0
   -4.6126   12.3085   -6.9084 C   0  0  0  0  0  0  0  0  0  0  0  0
   -5.8671   11.7538   -7.1613 C   0  0  0  0  0  0  0  0  0  0  0  0
   -2.1058   12.1871   -6.9644 C   0  0  0  0  0  0  0  0  0  0  0  0
   -1.7745   13.4406   -6.4637 C   0  0  0  0  0  0  0  0  0  0  0  0
   -0.4394   13.4976   -6.4041 N   0  0  0  0  0  0  0  0  0  0  0  0
    0.1691   12.4146   -6.8015 N   0  0  0  0  0  0  0  0  0  0  0  0
   -0.8034   11.5995   -7.1773 C   0  0  0  0  0  0  0  0  0  0  0  0
    0.3694   14.6144   -5.9538 C   0  0  0  0  0  0  0  0  0  0  0  0
   -3.6497   15.1720  -11.6865 O   0  0  0  0  0  0  0  0  0  0  0  0
   -4.3650   13.6745   -9.7698 O   0  0  0  0  0  0  0  0  0  0  0  0
   -5.5417   11.6132  -10.3059 H   0  0  0  0  0  0  0  0  0  0  0  0
   -7.0576   12.5509  -10.0840 H   0  0  0  0  0  0  0  0  0  0  0  0
   -8.1227   10.1152  -13.9085 H   0  0  0  0  0  0  0  0  0  0  0  0
   -6.8205   12.2414  -14.0656 H   0  0  0  0  0  0  0  0  0  0  0  0
   -8.5708   10.3015   -9.3774 H   0  0  0  0  0  0  0  0  0  0  0  0
   -8.0330    9.5733   -7.2490 H   0  0  0  0  0  0  0  0  0  0  0  0
   -1.9543   12.6728  -11.2554 H   0  0  0  0  0  0  0  0  0  0  0  0
   -3.3298   11.5493  -11.5240 H   0  0  0  0  0  0  0  0  0  0  0  0
   -2.7704   12.6186  -12.8546 H   0  0  0  0  0  0  0  0  0  0  0  0
   -4.8884    8.7854   -8.4885 H   0  0  0  0  0  0  0  0  0  0  0  0
   -2.6658    9.7683   -8.0414 H   0  0  0  0  0  0  0  0  0  0  0  0
   -3.4550   12.0453   -8.2329 H   0  0  0  0  0  0  0  0  0  0  0  0
   -4.5366   13.2900   -6.4643 H   0  0  0  0  0  0  0  0  0  0  0  0
   -6.7612   12.3068   -6.9141 H   0  0  0  0  0  0  0  0  0  0  0  0
   -2.4642   14.2207   -6.1771 H   0  0  0  0  0  0  0  0  0  0  0  0
   -0.6430   10.6154   -7.5924 H   0  0  0  0  0  0  0  0  0  0  0  0
    1.4345   14.3489   -6.0254 H   0  0  0  0  0  0  0  0  0  0  0  0
    0.1671   15.4918   -6.5857 H   0  0  0  0  0  0  0  0  0  0  0  0
    0.1198   14.8498   -4.9087 H   0  0  0  0  0  0  0  0  0  0  0  0
  1  2  1  0  0  0  0
  1  4  1  0  0  0  0
  1 13  2  3  0  0  0
  2  6  1  0  0  0  0
  3  4  2  0  0  0  0
  3  5  1  0  0  0  0
  5  6  2  0  0  0  0
  5  9  1  0  0  0  0
  6  7  1  0  0  0  0
  7  8  1  0  0  0  0
  7 10  1  0  0  0  0
  8  9  2  0  0  0  0
 10 14  2  0  0  0  0
 11 12  1  0  0  0  0
 11 13  1  0  0  0  0
 11 26  2  0  0  0  0
 11 27  2  0  0  0  0
 14 15  1  0  0  0  0
 14 19  1  0  0  0  0
 15 16  2  0  0  0  0
 16 17  1  0  0  0  0
 17 18  1  0  0  0  0
 17 20  1  0  0  0  0
 18 19  2  0  0  0  0
 20 21  2  0  0  0  0
 20 24  1  0  0  0  0
 21 22  1  0  0  0  0
 22 23  1  0  0  0  0
 22 25  1  0  0  0  0
 23 24  2  0  0  0  0
  2 28  1  0  0  0  0
  2 29  1  0  0  0  0
  3 30  1  0  0  0  0
  4 31  1  0  0  0  0
  7 32  1  0  0  0  0
 10 33  1  0  0  0  0
 12 34  1  0  0  0  0
 12 35  1  0  0  0  0
 12 36  1  0  0  0  0
 15 37  1  0  0  0  0
 16 38  1  0  0  0  0
 17 39  1  0  0  0  0
 18 40  1  0  0  0  0
 19 41  1  0  0  0  0
 21 42  1  0  0  0  0
 24 43  1  0  0  0  0
 25 44  1  0  0  0  0
 25 45  1  0  0  0  0
 25 46  1  0  0  0  0
M  END
> <Name>
25

> <IC50[uM]>
0.073

$$$$
25
  -OEChem-05192314333D
 Structure written by MMmdl.
 46 49  0     1  0  0  0  0  0999 V2000
   -6.3861   12.3623  -11.9697 C   0  0  0  0  0  0  0  0  0  0  0  0
   -6.5480   11.8020  -10.7080 C   0  0  0  0  0  0  0  0  0  0  0  0
   -7.6869   10.5726  -13.0325 C   0  0  0  0  0  0  0  0  0  0  0  0
   -6.9529   11.7665  -13.1047 C   0  0  0  0  0  0  0  0  0  0  0  0
   -7.8210   10.0086  -11.7556 C   0  0  3  0  0  0  0  0  0  0  0  0
   -7.2636   10.6177  -10.5919 C   0  0  0  0  0  0  0  0  0  0  0  0
   -7.6330    9.7421   -9.5104 C   0  0  0  0  0  0  0  0  0  0  0  0
   -8.3023    8.7332   -9.9897 N   0  0  0  0  0  0  0  0  0  0  0  0
   -8.4342    8.8678  -11.3051 N   0  0  0  0  0  0  0  0  0  0  0  0
   -7.3415    9.8758   -8.0215 C   0  0  0  0  0  0  0  0  0  0  0  0
   -4.1211   13.8754  -11.2000 S   0  0  0  0  0  0  0  0  0  0  0  0
   -2.9188   12.5402  -11.7675 C   0  0  0  0  0  0  0  0  0  0  0  0
   -5.6382   13.5428  -12.1051 N   0  0  0  0  0  0  0  0  0  0  0  0
   -5.9683   10.4827   -7.7344 C   0  0  0  0  0  0  0  0  0  0  0  0
   -4.8123    9.7690   -8.0490 C   0  0  0  0  0  0  0  0  0  0  0  0
   -3.5592   10.3237   -7.7969 C   0  0  0  0  0  0  0  0  0  0  0  0
   -3.4543   11.5962   -7.2288 C   0  0  0  0  0  0  0  0  0  0  0  0
   -4.6126   12.3085   -6.9084 C   0  0  0  0  0  0  0  0  0  0  0  0
   -5.8671   11.7538   -7.1613 C   0  0  0  0  0  0  0  0  0  0  0  0
   -2.1058   12.1871   -6.9644 C   0  0  0  0  0  0  0  0  0  0  0  0
   -1.7745   13.4406   -6.4637 C   0  0  0  0  0  0  0  0  0  0  0  0
   -0.4394   13.4976   -6.4041 N   0  0  0  0  0  0  0  0  0  0  0  0
    0.1691   12.4146   -6.8015 N   0  0  0  0  0  0  0  0  0  0  0  0
   -0.8034   11.5995   -7.1773 C   0  0  0  0  0  0  0  0  0  0  0  0
    0.3694   14.6144   -5.9538 C   0  0  0  0  0  0  0  0  0  0  0  0
   -3.6497   15.1720  -11.6865 O   0  0  0  0  0  0  0  0  0  0  0  0
   -4.3650   13.6745   -9.7698 O   0  0  0  0  0  0  0  0  0  0  0  0
   -5.5417   11.6132  -10.3059 H   0  0  0  0  0  0  0  0  0  0  0  0
   -7.0576   12.5509  -10.0840 H   0  0  0  0  0  0  0  0  0  0  0  0
   -8.1227   10.1152  -13.9085 H   0  0  0  0  0  0  0  0  0  0  0  0
   -6.8205   12.2414  -14.0656 H   0  0  0  0  0  0  0  0  0  0  0  0
   -8.7541   10.5711  -11.6042 H   0  0  0  0  0  0  0  0  0  0  0  0
   -8.0330    9.5733   -7.2490 H   0  0  0  0  0  0  0  0  0  0  0  0
   -1.9543   12.6728  -11.2554 H   0  0  0  0  0  0  0  0  0  0  0  0
   -3.3298   11.5493  -11.5240 H   0  0  0  0  0  0  0  0  0  0  0  0
   -2.7704   12.6186  -12.8546 H   0  0  0  0  0  0  0  0  0  0  0  0
   -4.8884    8.7854   -8.4885 H   0  0  0  0  0  0  0  0  0  0  0  0
   -2.6658    9.7683   -8.0414 H   0  0  0  0  0  0  0  0  0  0  0  0
   -3.4550   12.0453   -8.2329 H   0  0  0  0  0  0  0  0  0  0  0  0
   -4.5366   13.2900   -6.4643 H   0  0  0  0  0  0  0  0  0  0  0  0
   -6.7612   12.3068   -6.9141 H   0  0  0  0  0  0  0  0  0  0  0  0
   -2.4642   14.2207   -6.1771 H   0  0  0  0  0  0  0  0  0  0  0  0
   -0.6430   10.6154   -7.5924 H   0  0  0  0  0  0  0  0  0  0  0  0
    1.4345   14.3489   -6.0254 H   0  0  0  0  0  0  0  0  0  0  0  0
    0.1671   15.4918   -6.5857 H   0  0  0  0  0  0  0  0  0  0  0  0
    0.1198   14.8498   -4.9087 H   0  0  0  0  0  0  0  0  0  0  0  0
  1  2  1  0  0  0  0
  1  4  1  0  0  0  0
  1 13  2  3  0  0  0
  2  6  1  0  0  0  0
  3  4  2  0  0  0  0
  3  5  1  0  0  0  0
  5  6  1  0  0  0  0
  5  9  1  0  0  0  0
  6  7  2  0  0  0  0
  7  8  1  0  0  0  0
  7 10  1  0  0  0  0
  8  9  2  0  0  0  0
 10 14  2  0  0  0  0
 11 12  1  0  0  0  0
 11 13  1  0  0  0  0
 11 26  2  0  0  0  0
 11 27  2  0  0  0  0
 14 15  1  0  0  0  0
 14 19  1  0  0  0  0
 15 16  2  0  0  0  0
 16 17  1  0  0  0  0
 17 18  1  0  0  0  0
 17 20  1  0  0  0  0
 18 19  2  0  0  0  0
 20 21  2  0  0  0  0
 20 24  1  0  0  0  0
 21 22  1  0  0  0  0
 22 23  1  0  0  0  0
 22 25  1  0  0  0  0
 23 24  2  0  0  0  0
  2 28  1  0  0  0  0
  2 29  1  0  0  0  0
  3 30  1  0  0  0  0
  4 31  1  0  0  0  0
  5 32  1  0  0  0  0
 10 33  1  0  0  0  0
 12 34  1  0  0  0  0
 12 35  1  0  0  0  0
 12 36  1  0  0  0  0
 15 37  1  0  0  0  0
 16 38  1  0  0  0  0
 17 39  1  0  0  0  0
 18 40  1  0  0  0  0
 19 41  1  0  0  0  0
 21 42  1  0  0  0  0
 24 43  1  0  0  0  0
 25 44  1  0  0  0  0
 25 45  1  0  0  0  0
 25 46  1  0  0  0  0
M  END
> <Name>
25

> <IC50[uM]>
0.073

$$$$
25
  -OEChem-05192314333D
 Structure written by MMmdl.
 46 49  0     0  0  0  0  0  0999 V2000
   -6.3861   12.3623  -11.9697 C   0  0  0  0  0  0  0  0  0  0  0  0
   -6.5480   11.8020  -10.7080 C   0  0  0  0  0  0  0  0  0  0  0  0
   -7.6869   10.5726  -13.0325 C   0  0  0  0  0  0  0  0  0  0  0  0
   -6.9529   11.7665  -13.1047 C   0  0  0  0  0  0  0  0  0  0  0  0
   -7.8210   10.0086  -11.7556 C   0  0  0  0  0  0  0  0  0  0  0  0
   -7.2636   10.6177  -10.5919 C   0  0  0  0  0  0  0  0  0  0  0  0
   -7.6330    9.7421   -9.5104 C   0  0  0  0  0  0  0  0  0  0  0  0
   -8.3023    8.7332   -9.9897 N   0  0  0  0  0  0  0  0  0  0  0  0
   -8.4342    8.8678  -11.3051 N   0  0  0  0  0  0  0  0  0  0  0  0
   -7.3415    9.8758   -8.0215 C   0  0  0  0  0  0  0  0  0  0  0  0
   -4.1211   13.8754  -11.2000 S   0  0  0  0  0  0  0  0  0  0  0  0
   -2.9188   12.5402  -11.7675 C   0  0  0  0  0  0  0  0  0  0  0  0
   -5.6382   13.5428  -12.1051 N   0  0  0  0  0  0  0  0  0  0  0  0
   -5.9683   10.4827   -7.7344 C   0  0  0  0  0  0  0  0  0  0  0  0
   -4.8123    9.7690   -8.0490 C   0  0  0  0  0  0  0  0  0  0  0  0
   -3.5592   10.3237   -7.7969 C   0  0  0  0  0  0  0  0  0  0  0  0
   -3.4543   11.5962   -7.2288 C   0  0  0  0  0  0  0  0  0  0  0  0
   -4.6126   12.3085   -6.9084 C   0  0  0  0  0  0  0  0  0  0  0  0
   -5.8671   11.7538   -7.1613 C   0  0  0  0  0  0  0  0  0  0  0  0
   -2.1058   12.1871   -6.9644 C   0  0  0  0  0  0  0  0  0  0  0  0
   -1.7745   13.4406   -6.4637 C   0  0  0  0  0  0  0  0  0  0  0  0
   -0.4394   13.4976   -6.4041 N   0  0  0  0  0  0  0  0  0  0  0  0
    0.1691   12.4146   -6.8015 N   0  0  0  0  0  0  0  0  0  0  0  0
   -0.8034   11.5995   -7.1773 C   0  0  0  0  0  0  0  0  0  0  0  0
    0.3694   14.6144   -5.9538 C   0  0  0  0  0  0  0  0  0  0  0  0
   -3.6497   15.1720  -11.6865 O   0  0  0  0  0  0  0  0  0  0  0  0
   -4.3650   13.6745   -9.7698 O   0  0  0  0  0  0  0  0  0  0  0  0
   -5.5417   11.6132  -10.3059 H   0  0  0  0  0  0  0  0  0  0  0  0
   -7.0576   12.5509  -10.0840 H   0  0  0  0  0  0  0  0  0  0  0  0
   -8.1227   10.1152  -13.9085 H   0  0  0  0  0  0  0  0  0  0  0  0
   -7.6287   12.5169  -13.5407 H   0  0  0  0  0  0  0  0  0  0  0  0
   -6.1214   11.5746  -13.7988 H   0  0  0  0  0  0  0  0  0  0  0  0
   -8.0330    9.5733   -7.2490 H   0  0  0  0  0  0  0  0  0  0  0  0
   -1.9543   12.6728  -11.2554 H   0  0  0  0  0  0  0  0  0  0  0  0
   -3.3298   11.5493  -11.5240 H   0  0  0  0  0  0  0  0  0  0  0  0
   -2.7704   12.6186  -12.8546 H   0  0  0  0  0  0  0  0  0  0  0  0
   -4.8884    8.7854   -8.4885 H   0  0  0  0  0  0  0  0  0  0  0  0
   -2.6658    9.7683   -8.0414 H   0  0  0  0  0  0  0  0  0  0  0  0
   -3.4550   12.0453   -8.2329 H   0  0  0  0  0  0  0  0  0  0  0  0
   -4.5366   13.2900   -6.4643 H   0  0  0  0  0  0  0  0  0  0  0  0
   -6.7612   12.3068   -6.9141 H   0  0  0  0  0  0  0  0  0  0  0  0
   -2.4642   14.2207   -6.1771 H   0  0  0  0  0  0  0  0  0  0  0  0
   -0.6430   10.6154   -7.5924 H   0  0  0  0  0  0  0  0  0  0  0  0
    1.4345   14.3489   -6.0254 H   0  0  0  0  0  0  0  0  0  0  0  0
    0.1671   15.4918   -6.5857 H   0  0  0  0  0  0  0  0  0  0  0  0
    0.1198   14.8498   -4.9087 H   0  0  0  0  0  0  0  0  0  0  0  0
  1  2  1  0  0  0  0
  1  4  1  0  0  0  0
  1 13  2  3  0  0  0
  2  6  1  0  0  0  0
  3  4  1  0  0  0  0
  3  5  2  0  0  0  0
  5  6  1  0  0  0  0
  5  9  1  0  0  0  0
  6  7  2  0  0  0  0
  7  8  1  0  0  0  0
  7 10  1  0  0  0  0
  8  9  2  0  0  0  0
 10 14  2  0  0  0  0
 11 12  1  0  0  0  0
 11 13  1  0  0  0  0
 11 26  2  0  0  0  0
 11 27  2  0  0  0  0
 14 15  1  0  0  0  0
 14 19  1  0  0  0  0
 15 16  2  0  0  0  0
 16 17  1  0  0  0  0
 17 18  1  0  0  0  0
 17 20  1  0  0  0  0
 18 19  2  0  0  0  0
 20 21  2  0  0  0  0
 20 24  1  0  0  0  0
 21 22  1  0  0  0  0
 22 23  1  0  0  0  0
 22 25  1  0  0  0  0
 23 24  2  0  0  0  0
  2 28  1  0  0  0  0
  2 29  1  0  0  0  0
  3 30  1  0  0  0  0
  4 31  1  0  0  0  0
  4 32  1  0  0  0  0
 10 33  1  0  0  0  0
 12 34  1  0  0  0  0
 12 35  1  0  0  0  0
 12 36  1  0  0  0  0
 15 37  1  0  0  0  0
 16 38  1  0  0  0  0
 17 39  1  0  0  0  0
 18 40  1  0  0  0  0
 19 41  1  0  0  0  0
 21 42  1  0  0  0  0
 24 43  1  0  0  0  0
 25 44  1  0  0  0  0
 25 45  1  0  0  0  0
 25 46  1  0  0  0  0
M  END
> <Name>
25

> <IC50[uM]>
0.073

$$$$
25
  -OEChem-05192314333D
 Structure written by MMmdl.
 46 49  0     1  0  0  0  0  0999 V2000
   -6.3861   12.3623  -11.9697 C   0  0  0  0  0  0  0  0  0  0  0  0
   -6.5480   11.8020  -10.7080 C   0  0  0  0  0  0  0  0  0  0  0  0
   -7.6869   10.5726  -13.0325 C   0  0  0  0  0  0  0  0  0  0  0  0
   -6.9529   11.7665  -13.1047 C   0  0  0  0  0  0  0  0  0  0  0  0
   -7.8210   10.0086  -11.7556 C   0  0  0  0  0  0  0  0  0  0  0  0
   -7.2636   10.6177  -10.5919 C   0  0  0  0  0  0  0  0  0  0  0  0
   -7.6330    9.7421   -9.5104 C   0  0  0  0  0  0  0  0  0  0  0  0
   -8.3023    8.7332   -9.9897 N   0  0  0  0  0  0  0  0  0  0  0  0
   -8.4342    8.8678  -11.3051 N   0  0  0  0  0  0  0  0  0  0  0  0
   -7.3415    9.8758   -8.0215 C   0  0  0  0  0  0  0  0  0  0  0  0
   -4.1211   13.8754  -11.2000 S   0  0  0  0  0  0  0  0  0  0  0  0
   -2.9188   12.5402  -11.7675 C   0  0  0  0  0  0  0  0  0  0  0  0
   -5.6382   13.5428  -12.1051 N   0  0  0  0  0  0  0  0  0  0  0  0
   -5.9683   10.4827   -7.7344 C   0  0  0  0  0  0  0  0  0  0  0  0
   -4.8123    9.7690   -8.0490 C   0  0  0  0  0  0  0  0  0  0  0  0
   -3.5592   10.3237   -7.7969 C   0  0  0  0  0  0  0  0  0  0  0  0
   -3.4543   11.5962   -7.2288 C   0  0  3  0  0  0  0  0  0  0  0  0
   -4.6126   12.3085   -6.9084 C   0  0  0  0  0  0  0  0  0  0  0  0
   -5.8671   11.7538   -7.1613 C   0  0  0  0  0  0  0  0  0  0  0  0
   -2.1058   12.1871   -6.9644 C   0  0  0  0  0  0  0  0  0  0  0  0
   -1.7745   13.4406   -6.4637 C   0  0  0  0  0  0  0  0  0  0  0  0
   -0.4394   13.4976   -6.4041 N   0  0  0  0  0  0  0  0  0  0  0  0
    0.1691   12.4146   -6.8015 N   0  0  0  0  0  0  0  0  0  0  0  0
   -0.8034   11.5995   -7.1773 C   0  0  0  0  0  0  0  0  0  0  0  0
    0.3694   14.6144   -5.9538 C   0  0  0  0  0  0  0  0  0  0  0  0
   -3.6497   15.1720  -11.6865 O   0  0  0  0  0  0  0  0  0  0  0  0
   -4.3650   13.6745   -9.7698 O   0  0  0  0  0  0  0  0  0  0  0  0
   -5.5417   11.6132  -10.3059 H   0  0  0  0  0  0  0  0  0  0  0  0
   -7.0576   12.5509  -10.0840 H   0  0  0  0  0  0  0  0  0  0  0  0
   -8.1227   10.1152  -13.9085 H   0  0  0  0  0  0  0  0  0  0  0  0
   -6.8205   12.2414  -14.0656 H   0  0  0  0  0  0  0  0  0  0  0  0
   -8.0330    9.5733   -7.2490 H   0  0  0  0  0  0  0  0  0  0  0  0
   -1.9543   12.6728  -11.2554 H   0  0  0  0  0  0  0  0  0  0  0  0
   -3.3298   11.5493  -11.5240 H   0  0  0  0  0  0  0  0  0  0  0  0
   -2.7704   12.6186  -12.8546 H   0  0  0  0  0  0  0  0  0  0  0  0
   -4.8884    8.7854   -8.4885 H   0  0  0  0  0  0  0  0  0  0  0  0
   -3.0369    9.6312   -7.1205 H   0  0  0  0  0  0  0  0  0  0  0  0
   -3.0308   10.3630   -8.7609 H   0  0  0  0  0  0  0  0  0  0  0  0
   -3.4550   12.0453   -8.2329 H   0  0  0  0  0  0  0  0  0  0  0  0
   -4.5366   13.2900   -6.4643 H   0  0  0  0  0  0  0  0  0  0  0  0
   -6.7612   12.3068   -6.9141 H   0  0  0  0  0  0  0  0  0  0  0  0
   -2.4642   14.2207   -6.1771 H   0  0  0  0  0  0  0  0  0  0  0  0
   -0.6430   10.6154   -7.5924 H   0  0  0  0  0  0  0  0  0  0  0  0
    1.4345   14.3489   -6.0254 H   0  0  0  0  0  0  0  0  0  0  0  0
    0.1671   15.4918   -6.5857 H   0  0  0  0  0  0  0  0  0  0  0  0
    0.1198   14.8498   -4.9087 H   0  0  0  0  0  0  0  0  0  0  0  0
  1  2  1  0  0  0  0
  1  4  1  0  0  0  0
  1 13  2  3  0  0  0
  2  6  1  0  0  0  0
  3  4  2  0  0  0  0
  3  5  1  0  0  0  0
  5  6  2  0  0  0  0
  5  9  1  0  0  0  0
  6  7  1  0  0  0  0
  7  8  1  0  0  0  0
  7 10  2  3  0  0  0
  8  9  2  0  0  0  0
 10 14  1  0  0  0  0
 11 12  1  0  0  0  0
 11 13  1  0  0  0  0
 11 26  2  0  0  0  0
 11 27  2  0  0  0  0
 14 15  2  0  0  0  0
 14 19  1  0  0  0  0
 15 16  1  0  0  0  0
 16 17  1  0  0  0  0
 17 18  1  0  0  0  0
 17 20  1  0  0  0  0
 18 19  2  0  0  0  0
 20 21  2  0  0  0  0
 20 24  1  0  0  0  0
 21 22  1  0  0  0  0
 22 23  1  0  0  0  0
 22 25  1  0  0  0  0
 23 24  2  0  0  0  0
  2 28  1  0  0  0  0
  2 29  1  0  0  0  0
  3 30  1  0  0  0  0
  4 31  1  0  0  0  0
 10 32  1  0  0  0  0
 12 33  1  0  0  0  0
 12 34  1  0  0  0  0
 12 35  1  0  0  0  0
 15 36  1  0  0  0  0
 16 37  1  0  0  0  0
 16 38  1  0  0  0  0
 17 39  1  0  0  0  0
 18 40  1  0  0  0  0
 19 41  1  0  0  0  0
 21 42  1  0  0  0  0
 24 43  1  0  0  0  0
 25 44  1  0  0  0  0
 25 45  1  0  0  0  0
 25 46  1  0  0  0  0
M  END
> <Name>
25

> <IC50[uM]>
0.073

$$$$
25
  -OEChem-05192314333D
 Structure written by MMmdl.
 46 49  0     1  0  0  0  0  0999 V2000
   -6.3861   12.3623  -11.9697 C   0  0  0  0  0  0  0  0  0  0  0  0
   -6.5480   11.8020  -10.7080 C   0  0  0  0  0  0  0  0  0  0  0  0
   -7.6869   10.5726  -13.0325 C   0  0  0  0  0  0  0  0  0  0  0  0
   -6.9529   11.7665  -13.1047 C   0  0  0  0  0  0  0  0  0  0  0  0
   -7.8210   10.0086  -11.7556 C   0  0  0  0  0  0  0  0  0  0  0  0
   -7.2636   10.6177  -10.5919 C   0  0  0  0  0  0  0  0  0  0  0  0
   -7.6330    9.7421   -9.5104 C   0  0  0  0  0  0  0  0  0  0  0  0
   -8.3023    8.7332   -9.9897 N   0  0  0  0  0  0  0  0  0  0  0  0
   -8.4342    8.8678  -11.3051 N   0  0  0  0  0  0  0  0  0  0  0  0
   -7.3415    9.8758   -8.0215 C   0  0  0  0  0  0  0  0  0  0  0  0
   -4.1211   13.8754  -11.2000 S   0  0  0  0  0  0  0  0  0  0  0  0
   -2.9188   12.5402  -11.7675 C   0  0  0  0  0  0  0  0  0  0  0  0
   -5.6382   13.5428  -12.1051 N   0  0  0  0  0  0  0  0  0  0  0  0
   -5.9683   10.4827   -7.7344 C   0  0  3  0  0  0  0  0  0  0  0  0
   -4.8123    9.7690   -8.0490 C   0  0  0  0  0  0  0  0  0  0  0  0
   -3.5592   10.3237   -7.7969 C   0  0  0  0  0  0  0  0  0  0  0  0
   -3.4543   11.5962   -7.2288 C   0  0  0  0  0  0  0  0  0  0  0  0
   -4.6126   12.3085   -6.9084 C   0  0  0  0  0  0  0  0  0  0  0  0
   -5.8671   11.7538   -7.1613 C   0  0  0  0  0  0  0  0  0  0  0  0
   -2.1058   12.1871   -6.9644 C   0  0  0  0  0  0  0  0  0  0  0  0
   -1.7745   13.4406   -6.4637 C   0  0  0  0  0  0  0  0  0  0  0  0
   -0.4394   13.4976   -6.4041 N   0  0  0  0  0  0  0  0  0  0  0  0
    0.1691   12.4146   -6.8015 N   0  0  0  0  0  0  0  0  0  0  0  0
   -0.8034   11.5995   -7.1773 C   0  0  0  0  0  0  0  0  0  0  0  0
    0.3694   14.6144   -5.9538 C   0  0  0  0  0  0  0  0  0  0  0  0
   -3.6497   15.1720  -11.6865 O   0  0  0  0  0  0  0  0  0  0  0  0
   -4.3650   13.6745   -9.7698 O   0  0  0  0  0  0  0  0  0  0  0  0
   -5.5417   11.6132  -10.3059 H   0  0  0  0  0  0  0  0  0  0  0  0
   -7.0576   12.5509  -10.0840 H   0  0  0  0  0  0  0  0  0  0  0  0
   -8.1227   10.1152  -13.9085 H   0  0  0  0  0  0  0  0  0  0  0  0
   -6.8205   12.2414  -14.0656 H   0  0  0  0  0  0  0  0  0  0  0  0
   -8.0330    9.5733   -7.2490 H   0  0  0  0  0  0  0  0  0  0  0  0
   -1.9543   12.6728  -11.2554 H   0  0  0  0  0  0  0  0  0  0  0  0
   -3.3298   11.5493  -11.5240 H   0  0  0  0  0  0  0  0  0  0  0  0
   -2.7704   12.6186  -12.8546 H   0  0  0  0  0  0  0  0  0  0  0  0
   -5.9765   10.0300   -6.7319 H   0  0  0  0  0  0  0  0  0  0  0  0
   -4.8884    8.7854   -8.4885 H   0  0  0  0  0  0  0  0  0  0  0  0
   -2.6658    9.7683   -8.0414 H   0  0  0  0  0  0  0  0  0  0  0  0
   -4.5366   13.2900   -6.4643 H   0  0  0  0  0  0  0  0  0  0  0  0
   -6.3910   12.4480   -7.8348 H   0  0  0  0  0  0  0  0  0  0  0  0
   -6.3948   11.7100   -6.1971 H   0  0  0  0  0  0  0  0  0  0  0  0
   -2.4642   14.2207   -6.1771 H   0  0  0  0  0  0  0  0  0  0  0  0
   -0.6430   10.6154   -7.5924 H   0  0  0  0  0  0  0  0  0  0  0  0
    1.4345   14.3489   -6.0254 H   0  0  0  0  0  0  0  0  0  0  0  0
    0.1671   15.4918   -6.5857 H   0  0  0  0  0  0  0  0  0  0  0  0
    0.1198   14.8498   -4.9087 H   0  0  0  0  0  0  0  0  0  0  0  0
  1  2  1  0  0  0  0
  1  4  1  0  0  0  0
  1 13  2  3  0  0  0
  2  6  1  0  0  0  0
  3  4  2  0  0  0  0
  3  5  1  0  0  0  0
  5  6  2  0  0  0  0
  5  9  1  0  0  0  0
  6  7  1  0  0  0  0
  7  8  1  0  0  0  0
  7 10  2  3  0  0  0
  8  9  2  0  0  0  0
 10 14  1  0  0  0  0
 11 12  1  0  0  0  0
 11 13  1  0  0  0  0
 11 26  2  0  0  0  0
 11 27  2  0  0  0  0
 14 15  1  0  0  0  0
 14 19  1  0  0  0  0
 15 16  2  0  0  0  0
 16 17  1  0  0  0  0
 17 18  2  0  0  0  0
 17 20  1  0  0  0  0
 18 19  1  0  0  0  0
 20 21  2  0  0  0  0
 20 24  1  0  0  0  0
 21 22  1  0  0  0  0
 22 23  1  0  0  0  0
 22 25  1  0  0  0  0
 23 24  2  0  0  0  0
  2 28  1  0  0  0  0
  2 29  1  0  0  0  0
  3 30  1  0  0  0  0
  4 31  1  0  0  0  0
 10 32  1  0  0  0  0
 12 33  1  0  0  0  0
 12 34  1  0  0  0  0
 12 35  1  0  0  0  0
 14 36  1  0  0  0  0
 15 37  1  0  0  0  0
 16 38  1  0  0  0  0
 18 39  1  0  0  0  0
 19 40  1  0  0  0  0
 19 41  1  0  0  0  0
 21 42  1  0  0  0  0
 24 43  1  0  0  0  0
 25 44  1  0  0  0  0
 25 45  1  0  0  0  0
 25 46  1  0  0  0  0
M  END
> <Name>
25

> <IC50[uM]>
0.073

$$$$
25
  -OEChem-05192314333D
 Structure written by MMmdl.
 46 49  0     1  0  0  0  0  0999 V2000
   -6.3861   12.3623  -11.9697 C   0  0  0  0  0  0  0  0  0  0  0  0
   -6.5480   11.8020  -10.7080 C   0  0  0  0  0  0  0  0  0  0  0  0
   -7.6869   10.5726  -13.0325 C   0  0  0  0  0  0  0  0  0  0  0  0
   -6.9529   11.7665  -13.1047 C   0  0  0  0  0  0  0  0  0  0  0  0
   -7.8210   10.0086  -11.7556 C   0  0  0  0  0  0  0  0  0  0  0  0
   -7.2636   10.6177  -10.5919 C   0  0  0  0  0  0  0  0  0  0  0  0
   -7.6330    9.7421   -9.5104 C   0  0  3  0  0  0  0  0  0  0  0  0
   -8.3023    8.7332   -9.9897 N   0  0  0  0  0  0  0  0  0  0  0  0
   -8.4342    8.8678  -11.3051 N   0  0  0  0  0  0  0  0  0  0  0  0
   -7.3415    9.8758   -8.0215 C   0  0  0  0  0  0  0  0  0  0  0  0
   -4.1211   13.8754  -11.2000 S   0  0  0  0  0  0  0  0  0  0  0  0
   -2.9188   12.5402  -11.7675 C   0  0  0  0  0  0  0  0  0  0  0  0
   -5.6382   13.5428  -12.1051 N   0  0  0  0  0  0  0  0  0  0  0  0
   -5.9683   10.4827   -7.7344 C   0  0  0  0  0  0  0  0  0  0  0  0
   -4.8123    9.7690   -8.0490 C   0  0  0  0  0  0  0  0  0  0  0  0
   -3.5592   10.3237   -7.7969 C   0  0  0  0  0  0  0  0  0  0  0  0
   -3.4543   11.5962   -7.2288 C   0  0  0  0  0  0  0  0  0  0  0  0
   -4.6126   12.3085   -6.9084 C   0  0  0  0  0  0  0  0  0  0  0  0
   -5.8671   11.7538   -7.1613 C   0  0  0  0  0  0  0  0  0  0  0  0
   -2.1058   12.1871   -6.9644 C   0  0  0  0  0  0  0  0  0  0  0  0
   -1.7745   13.4406   -6.4637 C   0  0  0  0  0  0  0  0  0  0  0  0
   -0.4394   13.4976   -6.4041 N   0  0  0  0  0  0  0  0  0  0  0  0
    0.1691   12.4146   -6.8015 N   0  0  0  0  0  0  0  0  0  0  0  0
   -0.8034   11.5995   -7.1773 C   0  0  0  0  0  0  0  0  0  0  0  0
    0.3694   14.6144   -5.9538 C   0  0  0  0  0  0  0  0  0  0  0  0
   -3.6497   15.1720  -11.6865 O   0  0  0  0  0  0  0  0  0  0  0  0
   -4.3650   13.6745   -9.7698 O   0  0  0  0  0  0  0  0  0  0  0  0
   -5.5417   11.6132  -10.3059 H   0  0  0  0  0  0  0  0  0  0  0  0
   -7.0576   12.5509  -10.0840 H   0  0  0  0  0  0  0  0  0  0  0  0
   -8.1227   10.1152  -13.9085 H   0  0  0  0  0  0  0  0  0  0  0  0
   -6.8205   12.2414  -14.0656 H   0  0  0  0  0  0  0  0  0  0  0  0
   -8.5708   10.3015   -9.3774 H   0  0  0  0  0  0  0  0  0  0  0  0
   -8.0330    9.5733   -7.2490 H   0  0  0  0  0  0  0  0  0  0  0  0
   -1.9543   12.6728  -11.2554 H   0  0  0  0  0  0  0  0  0  0  0  0
   -3.3298   11.5493  -11.5240 H   0  0  0  0  0  0  0  0  0  0  0  0
   -2.7704   12.6186  -12.8546 H   0  0  0  0  0  0  0  0  0  0  0  0
   -4.8884    8.7854   -8.4885 H   0  0  0  0  0  0  0  0  0  0  0  0
   -2.6658    9.7683   -8.0414 H   0  0  0  0  0  0  0  0  0  0  0  0
   -4.5366   13.2900   -6.4643 H   0  0  0  0  0  0  0  0  0  0  0  0
   -6.3910   12.4480   -7.8348 H   0  0  0  0  0  0  0  0  0  0  0  0
   -6.3948   11.7100   -6.1971 H   0  0  0  0  0  0  0  0  0  0  0  0
   -2.4642   14.2207   -6.1771 H   0  0  0  0  0  0  0  0  0  0  0  0
   -0.6430   10.6154   -7.5924 H   0  0  0  0  0  0  0  0  0  0  0  0
    1.4345   14.3489   -6.0254 H   0  0  0  0  0  0  0  0  0  0  0  0
    0.1671   15.4918   -6.5857 H   0  0  0  0  0  0  0  0  0  0  0  0
    0.1198   14.8498   -4.9087 H   0  0  0  0  0  0  0  0  0  0  0  0
  1  2  1  0  0  0  0
  1  4  1  0  0  0  0
  1 13  2  3  0  0  0
  2  6  1  0  0  0  0
  3  4  2  0  0  0  0
  3  5  1  0  0  0  0
  5  6  2  0  0  0  0
  5  9  1  0  0  0  0
  6  7  1  0  0  0  0
  7  8  1  0  0  0  0
  7 10  1  0  0  0  0
  8  9  2  0  0  0  0
 10 14  2  3  0  0  0
 11 12  1  0  0  0  0
 11 13  1  0  0  0  0
 11 26  2  0  0  0  0
 11 27  2  0  0  0  0
 14 15  1  0  0  0  0
 14 19  1  0  0  0  0
 15 16  2  0  0  0  0
 16 17  1  0  0  0  0
 17 18  2  0  0  0  0
 17 20  1  0  0  0  0
 18 19  1  0  0  0  0
 20 21  2  0  0  0  0
 20 24  1  0  0  0  0
 21 22  1  0  0  0  0
 22 23  1  0  0  0  0
 22 25  1  0  0  0  0
 23 24  2  0  0  0  0
  2 28  1  0  0  0  0
  2 29  1  0  0  0  0
  3 30  1  0  0  0  0
  4 31  1  0  0  0  0
  7 32  1  0  0  0  0
 10 33  1  0  0  0  0
 12 34  1  0  0  0  0
 12 35  1  0  0  0  0
 12 36  1  0  0  0  0
 15 37  1  0  0  0  0
 16 38  1  0  0  0  0
 18 39  1  0  0  0  0
 19 40  1  0  0  0  0
 19 41  1  0  0  0  0
 21 42  1  0  0  0  0
 24 43  1  0  0  0  0
 25 44  1  0  0  0  0
 25 45  1  0  0  0  0
 25 46  1  0  0  0  0
M  END
> <Name>
25

> <IC50[uM]>
0.073

$$$$
25
  -OEChem-05192314333D
 Structure written by MMmdl.
 46 49  0     1  0  0  0  0  0999 V2000
   -6.3861   12.3623  -11.9697 C   0  0  0  0  0  0  0  0  0  0  0  0
   -6.5480   11.8020  -10.7080 C   0  0  0  0  0  0  0  0  0  0  0  0
   -7.6869   10.5726  -13.0325 C   0  0  0  0  0  0  0  0  0  0  0  0
   -6.9529   11.7665  -13.1047 C   0  0  0  0  0  0  0  0  0  0  0  0
   -7.8210   10.0086  -11.7556 C   0  0  3  0  0  0  0  0  0  0  0  0
   -7.2636   10.6177  -10.5919 C   0  0  0  0  0  0  0  0  0  0  0  0
   -7.6330    9.7421   -9.5104 C   0  0  0  0  0  0  0  0  0  0  0  0
   -8.3023    8.7332   -9.9897 N   0  0  0  0  0  0  0  0  0  0  0  0
   -8.4342    8.8678  -11.3051 N   0  0  0  0  0  0  0  0  0  0  0  0
   -7.3415    9.8758   -8.0215 C   0  0  0  0  0  0  0  0  0  0  0  0
   -4.1211   13.8754  -11.2000 S   0  0  0  0  0  0  0  0  0  0  0  0
   -2.9188   12.5402  -11.7675 C   0  0  0  0  0  0  0  0  0  0  0  0
   -5.6382   13.5428  -12.1051 N   0  0  0  0  0  0  0  0  0  0  0  0
   -5.9683   10.4827   -7.7344 C   0  0  0  0  0  0  0  0  0  0  0  0
   -4.8123    9.7690   -8.0490 C   0  0  0  0  0  0  0  0  0  0  0  0
   -3.5592   10.3237   -7.7969 C   0  0  0  0  0  0  0  0  0  0  0  0
   -3.4543   11.5962   -7.2288 C   0  0  0  0  0  0  0  0  0  0  0  0
   -4.6126   12.3085   -6.9084 C   0  0  0  0  0  0  0  0  0  0  0  0
   -5.8671   11.7538   -7.1613 C   0  0  0  0  0  0  0  0  0  0  0  0
   -2.1058   12.1871   -6.9644 C   0  0  0  0  0  0  0  0  0  0  0  0
   -1.7745   13.4406   -6.4637 C   0  0  0  0  0  0  0  0  0  0  0  0
   -0.4394   13.4976   -6.4041 N   0  0  0  0  0  0  0  0  0  0  0  0
    0.1691   12.4146   -6.8015 N   0  0  0  0  0  0  0  0  0  0  0  0
   -0.8034   11.5995   -7.1773 C   0  0  0  0  0  0  0  0  0  0  0  0
    0.3694   14.6144   -5.9538 C   0  0  0  0  0  0  0  0  0  0  0  0
   -3.6497   15.1720  -11.6865 O   0  0  0  0  0  0  0  0  0  0  0  0
   -4.3650   13.6745   -9.7698 O   0  0  0  0  0  0  0  0  0  0  0  0
   -5.5417   11.6132  -10.3059 H   0  0  0  0  0  0  0  0  0  0  0  0
   -7.0576   12.5509  -10.0840 H   0  0  0  0  0  0  0  0  0  0  0  0
   -8.1227   10.1152  -13.9085 H   0  0  0  0  0  0  0  0  0  0  0  0
   -6.8205   12.2414  -14.0656 H   0  0  0  0  0  0  0  0  0  0  0  0
   -8.7541   10.5711  -11.6042 H   0  0  0  0  0  0  0  0  0  0  0  0
   -8.0330    9.5733   -7.2490 H   0  0  0  0  0  0  0  0  0  0  0  0
   -1.9543   12.6728  -11.2554 H   0  0  0  0  0  0  0  0  0  0  0  0
   -3.3298   11.5493  -11.5240 H   0  0  0  0  0  0  0  0  0  0  0  0
   -2.7704   12.6186  -12.8546 H   0  0  0  0  0  0  0  0  0  0  0  0
   -4.8884    8.7854   -8.4885 H   0  0  0  0  0  0  0  0  0  0  0  0
   -2.6658    9.7683   -8.0414 H   0  0  0  0  0  0  0  0  0  0  0  0
   -4.5366   13.2900   -6.4643 H   0  0  0  0  0  0  0  0  0  0  0  0
   -6.3910   12.4480   -7.8348 H   0  0  0  0  0  0  0  0  0  0  0  0
   -6.3948   11.7100   -6.1971 H   0  0  0  0  0  0  0  0  0  0  0  0
   -2.4642   14.2207   -6.1771 H   0  0  0  0  0  0  0  0  0  0  0  0
   -0.6430   10.6154   -7.5924 H   0  0  0  0  0  0  0  0  0  0  0  0
    1.4345   14.3489   -6.0254 H   0  0  0  0  0  0  0  0  0  0  0  0
    0.1671   15.4918   -6.5857 H   0  0  0  0  0  0  0  0  0  0  0  0
    0.1198   14.8498   -4.9087 H   0  0  0  0  0  0  0  0  0  0  0  0
  1  2  1  0  0  0  0
  1  4  1  0  0  0  0
  1 13  2  3  0  0  0
  2  6  1  0  0  0  0
  3  4  2  0  0  0  0
  3  5  1  0  0  0  0
  5  6  1  0  0  0  0
  5  9  1  0  0  0  0
  6  7  2  0  0  0  0
  7  8  1  0  0  0  0
  7 10  1  0  0  0  0
  8  9  2  0  0  0  0
 10 14  2  3  0  0  0
 11 12  1  0  0  0  0
 11 13  1  0  0  0  0
 11 26  2  0  0  0  0
 11 27  2  0  0  0  0
 14 15  1  0  0  0  0
 14 19  1  0  0  0  0
 15 16  2  0  0  0  0
 16 17  1  0  0  0  0
 17 18  2  0  0  0  0
 17 20  1  0  0  0  0
 18 19  1  0  0  0  0
 20 21  2  0  0  0  0
 20 24  1  0  0  0  0
 21 22  1  0  0  0  0
 22 23  1  0  0  0  0
 22 25  1  0  0  0  0
 23 24  2  0  0  0  0
  2 28  1  0  0  0  0
  2 29  1  0  0  0  0
  3 30  1  0  0  0  0
  4 31  1  0  0  0  0
  5 32  1  0  0  0  0
 10 33  1  0  0  0  0
 12 34  1  0  0  0  0
 12 35  1  0  0  0  0
 12 36  1  0  0  0  0
 15 37  1  0  0  0  0
 16 38  1  0  0  0  0
 18 39  1  0  0  0  0
 19 40  1  0  0  0  0
 19 41  1  0  0  0  0
 21 42  1  0  0  0  0
 24 43  1  0  0  0  0
 25 44  1  0  0  0  0
 25 45  1  0  0  0  0
 25 46  1  0  0  0  0
M  END
> <Name>
25

> <IC50[uM]>
0.073

$$$$
25
  -OEChem-05192314333D
 Structure written by MMmdl.
 46 49  0     0  0  0  0  0  0999 V2000
   -6.3861   12.3623  -11.9697 C   0  0  0  0  0  0  0  0  0  0  0  0
   -6.5480   11.8020  -10.7080 C   0  0  0  0  0  0  0  0  0  0  0  0
   -7.6869   10.5726  -13.0325 C   0  0  0  0  0  0  0  0  0  0  0  0
   -6.9529   11.7665  -13.1047 C   0  0  0  0  0  0  0  0  0  0  0  0
   -7.8210   10.0086  -11.7556 C   0  0  0  0  0  0  0  0  0  0  0  0
   -7.2636   10.6177  -10.5919 C   0  0  0  0  0  0  0  0  0  0  0  0
   -7.6330    9.7421   -9.5104 C   0  0  0  0  0  0  0  0  0  0  0  0
   -8.3023    8.7332   -9.9897 N   0  0  0  0  0  0  0  0  0  0  0  0
   -8.4342    8.8678  -11.3051 N   0  0  0  0  0  0  0  0  0  0  0  0
   -7.3415    9.8758   -8.0215 C   0  0  0  0  0  0  0  0  0  0  0  0
   -4.1211   13.8754  -11.2000 S   0  0  0  0  0  0  0  0  0  0  0  0
   -2.9188   12.5402  -11.7675 C   0  0  0  0  0  0  0  0  0  0  0  0
   -5.6382   13.5428  -12.1051 N   0  0  0  0  0  0  0  0  0  0  0  0
   -5.9683   10.4827   -7.7344 C   0  0  0  0  0  0  0  0  0  0  0  0
   -4.8123    9.7690   -8.0490 C   0  0  0  0  0  0  0  0  0  0  0  0
   -3.5592   10.3237   -7.7969 C   0  0  0  0  0  0  0  0  0  0  0  0
   -3.4543   11.5962   -7.2288 C   0  0  0  0  0  0  0  0  0  0  0  0
   -4.6126   12.3085   -6.9084 C   0  0  0  0  0  0  0  0  0  0  0  0
   -5.8671   11.7538   -7.1613 C   0  0  0  0  0  0  0  0  0  0  0  0
   -2.1058   12.1871   -6.9644 C   0  0  0  0  0  0  0  0  0  0  0  0
   -1.7745   13.4406   -6.4637 C   0  0  0  0  0  0  0  0  0  0  0  0
   -0.4394   13.4976   -6.4041 N   0  0  0  0  0  0  0  0  0  0  0  0
    0.1691   12.4146   -6.8015 N   0  0  0  0  0  0  0  0  0  0  0  0
   -0.8034   11.5995   -7.1773 C   0  0  0  0  0  0  0  0  0  0  0  0
    0.3694   14.6144   -5.9538 C   0  0  0  0  0  0  0  0  0  0  0  0
   -3.6497   15.1720  -11.6865 O   0  0  0  0  0  0  0  0  0  0  0  0
   -4.3650   13.6745   -9.7698 O   0  0  0  0  0  0  0  0  0  0  0  0
   -5.5417   11.6132  -10.3059 H   0  0  0  0  0  0  0  0  0  0  0  0
   -7.0576   12.5509  -10.0840 H   0  0  0  0  0  0  0  0  0  0  0  0
   -8.1227   10.1152  -13.9085 H   0  0  0  0  0  0  0  0  0  0  0  0
   -7.6287   12.5169  -13.5407 H   0  0  0  0  0  0  0  0  0  0  0  0
   -6.1214   11.5746  -13.7988 H   0  0  0  0  0  0  0  0  0  0  0  0
   -8.0330    9.5733   -7.2490 H   0  0  0  0  0  0  0  0  0  0  0  0
   -1.9543   12.6728  -11.2554 H   0  0  0  0  0  0  0  0  0  0  0  0
   -3.3298   11.5493  -11.5240 H   0  0  0  0  0  0  0  0  0  0  0  0
   -2.7704   12.6186  -12.8546 H   0  0  0  0  0  0  0  0  0  0  0  0
   -4.8884    8.7854   -8.4885 H   0  0  0  0  0  0  0  0  0  0  0  0
   -2.6658    9.7683   -8.0414 H   0  0  0  0  0  0  0  0  0  0  0  0
   -4.5366   13.2900   -6.4643 H   0  0  0  0  0  0  0  0  0  0  0  0
   -6.3910   12.4480   -7.8348 H   0  0  0  0  0  0  0  0  0  0  0  0
   -6.3948   11.7100   -6.1971 H   0  0  0  0  0  0  0  0  0  0  0  0
   -2.4642   14.2207   -6.1771 H   0  0  0  0  0  0  0  0  0  0  0  0
   -0.6430   10.6154   -7.5924 H   0  0  0  0  0  0  0  0  0  0  0  0
    1.4345   14.3489   -6.0254 H   0  0  0  0  0  0  0  0  0  0  0  0
    0.1671   15.4918   -6.5857 H   0  0  0  0  0  0  0  0  0  0  0  0
    0.1198   14.8498   -4.9087 H   0  0  0  0  0  0  0  0  0  0  0  0
  1  2  1  0  0  0  0
  1  4  1  0  0  0  0
  1 13  2  3  0  0  0
  2  6  1  0  0  0  0
  3  4  1  0  0  0  0
  3  5  2  0  0  0  0
  5  6  1  0  0  0  0
  5  9  1  0  0  0  0
  6  7  2  0  0  0  0
  7  8  1  0  0  0  0
  7 10  1  0  0  0  0
  8  9  2  0  0  0  0
 10 14  2  3  0  0  0
 11 12  1  0  0  0  0
 11 13  1  0  0  0  0
 11 26  2  0  0  0  0
 11 27  2  0  0  0  0
 14 15  1  0  0  0  0
 14 19  1  0  0  0  0
 15 16  2  0  0  0  0
 16 17  1  0  0  0  0
 17 18  2  0  0  0  0
 17 20  1  0  0  0  0
 18 19  1  0  0  0  0
 20 21  2  0  0  0  0
 20 24  1  0  0  0  0
 21 22  1  0  0  0  0
 22 23  1  0  0  0  0
 22 25  1  0  0  0  0
 23 24  2  0  0  0  0
  2 28  1  0  0  0  0
  2 29  1  0  0  0  0
  3 30  1  0  0  0  0
  4 31  1  0  0  0  0
  4 32  1  0  0  0  0
 10 33  1  0  0  0  0
 12 34  1  0  0  0  0
 12 35  1  0  0  0  0
 12 36  1  0  0  0  0
 15 37  1  0  0  0  0
 16 38  1  0  0  0  0
 18 39  1  0  0  0  0
 19 40  1  0  0  0  0
 19 41  1  0  0  0  0
 21 42  1  0  0  0  0
 24 43  1  0  0  0  0
 25 44  1  0  0  0  0
 25 45  1  0  0  0  0
 25 46  1  0  0  0  0
M  END
> <Name>
25

> <IC50[uM]>
0.073

$$$$
25
  -OEChem-05192314333D
 Structure written by MMmdl.
 46 49  0     0  0  0  0  0  0999 V2000
   -6.3861   12.3623  -11.9697 C   0  0  0  0  0  0  0  0  0  0  0  0
   -6.5480   11.8020  -10.7080 C   0  0  0  0  0  0  0  0  0  0  0  0
   -7.6869   10.5726  -13.0325 C   0  0  0  0  0  0  0  0  0  0  0  0
   -6.9529   11.7665  -13.1047 C   0  0  0  0  0  0  0  0  0  0  0  0
   -7.8210   10.0086  -11.7556 C   0  0  0  0  0  0  0  0  0  0  0  0
   -7.2636   10.6177  -10.5919 C   0  0  0  0  0  0  0  0  0  0  0  0
   -7.6330    9.7421   -9.5104 C   0  0  0  0  0  0  0  0  0  0  0  0
   -8.3023    8.7332   -9.9897 N   0  0  0  0  0  0  0  0  0  0  0  0
   -8.4342    8.8678  -11.3051 N   0  0  0  0  0  0  0  0  0  0  0  0
   -7.3415    9.8758   -8.0215 C   0  0  0  0  0  0  0  0  0  0  0  0
   -4.1211   13.8754  -11.2000 S   0  0  0  0  0  0  0  0  0  0  0  0
   -2.9188   12.5402  -11.7675 C   0  0  0  0  0  0  0  0  0  0  0  0
   -5.6382   13.5428  -12.1051 N   0  0  0  0  0  0  0  0  0  0  0  0
   -5.9683   10.4827   -7.7344 C   0  0  0  0  0  0  0  0  0  0  0  0
   -4.8123    9.7690   -8.0490 C   0  0  0  0  0  0  0  0  0  0  0  0
   -3.5592   10.3237   -7.7969 C   0  0  0  0  0  0  0  0  0  0  0  0
   -3.4543   11.5962   -7.2288 C   0  0  0  0  0  0  0  0  0  0  0  0
   -4.6126   12.3085   -6.9084 C   0  0  0  0  0  0  0  0  0  0  0  0
   -5.8671   11.7538   -7.1613 C   0  0  0  0  0  0  0  0  0  0  0  0
   -2.1058   12.1871   -6.9644 C   0  0  0  0  0  0  0  0  0  0  0  0
   -1.7745   13.4406   -6.4637 C   0  0  0  0  0  0  0  0  0  0  0  0
   -0.4394   13.4976   -6.4041 N   0  0  0  0  0  0  0  0  0  0  0  0
    0.1691   12.4146   -6.8015 N   0  0  0  0  0  0  0  0  0  0  0  0
   -0.8034   11.5995   -7.1773 C   0  0  0  0  0  0  0  0  0  0  0  0
    0.3694   14.6144   -5.9538 C   0  0  0  0  0  0  0  0  0  0  0  0
   -3.6497   15.1720  -11.6865 O   0  0  0  0  0  0  0  0  0  0  0  0
   -4.3650   13.6745   -9.7698 O   0  0  0  0  0  0  0  0  0  0  0  0
   -5.5417   11.6132  -10.3059 H   0  0  0  0  0  0  0  0  0  0  0  0
   -7.0576   12.5509  -10.0840 H   0  0  0  0  0  0  0  0  0  0  0  0
   -8.1227   10.1152  -13.9085 H   0  0  0  0  0  0  0  0  0  0  0  0
   -6.8205   12.2414  -14.0656 H   0  0  0  0  0  0  0  0  0  0  0  0
   -8.0330    9.5733   -7.2490 H   0  0  0  0  0  0  0  0  0  0  0  0
   -1.9543   12.6728  -11.2554 H   0  0  0  0  0  0  0  0  0  0  0  0
   -3.3298   11.5493  -11.5240 H   0  0  0  0  0  0  0  0  0  0  0  0
   -2.7704   12.6186  -12.8546 H   0  0  0  0  0  0  0  0  0  0  0  0
   -4.8884    8.7854   -8.4885 H   0  0  0  0  0  0  0  0  0  0  0  0
   -3.0369    9.6312   -7.1205 H   0  0  0  0  0  0  0  0  0  0  0  0
   -3.0308   10.3630   -8.7609 H   0  0  0  0  0  0  0  0  0  0  0  0
   -4.5366   13.2900   -6.4643 H   0  0  0  0  0  0  0  0  0  0  0  0
   -6.3910   12.4480   -7.8348 H   0  0  0  0  0  0  0  0  0  0  0  0
   -6.3948   11.7100   -6.1971 H   0  0  0  0  0  0  0  0  0  0  0  0
   -2.4642   14.2207   -6.1771 H   0  0  0  0  0  0  0  0  0  0  0  0
   -0.6430   10.6154   -7.5924 H   0  0  0  0  0  0  0  0  0  0  0  0
    1.4345   14.3489   -6.0254 H   0  0  0  0  0  0  0  0  0  0  0  0
    0.1671   15.4918   -6.5857 H   0  0  0  0  0  0  0  0  0  0  0  0
    0.1198   14.8498   -4.9087 H   0  0  0  0  0  0  0  0  0  0  0  0
  1  2  1  0  0  0  0
  1  4  1  0  0  0  0
  1 13  2  3  0  0  0
  2  6  1  0  0  0  0
  3  4  2  0  0  0  0
  3  5  1  0  0  0  0
  5  6  2  0  0  0  0
  5  9  1  0  0  0  0
  6  7  1  0  0  0  0
  7  8  1  0  0  0  0
  7 10  2  3  0  0  0
  8  9  2  0  0  0  0
 10 14  1  0  0  0  0
 11 12  1  0  0  0  0
 11 13  1  0  0  0  0
 11 26  2  0  0  0  0
 11 27  2  0  0  0  0
 14 15  2  0  0  0  0
 14 19  1  0  0  0  0
 15 16  1  0  0  0  0
 16 17  1  0  0  0  0
 17 18  2  0  0  0  0
 17 20  1  0  0  0  0
 18 19  1  0  0  0  0
 20 21  2  0  0  0  0
 20 24  1  0  0  0  0
 21 22  1  0  0  0  0
 22 23  1  0  0  0  0
 22 25  1  0  0  0  0
 23 24  2  0  0  0  0
  2 28  1  0  0  0  0
  2 29  1  0  0  0  0
  3 30  1  0  0  0  0
  4 31  1  0  0  0  0
 10 32  1  0  0  0  0
 12 33  1  0  0  0  0
 12 34  1  0  0  0  0
 12 35  1  0  0  0  0
 15 36  1  0  0  0  0
 16 37  1  0  0  0  0
 16 38  1  0  0  0  0
 18 39  1  0  0  0  0
 19 40  1  0  0  0  0
 19 41  1  0  0  0  0
 21 42  1  0  0  0  0
 24 43  1  0  0  0  0
 25 44  1  0  0  0  0
 25 45  1  0  0  0  0
 25 46  1  0  0  0  0
M  END
> <Name>
25

> <IC50[uM]>
0.073

$$$$
25
  -OEChem-05192314333D
 Structure written by MMmdl.
 46 49  0     0  0  0  0  0  0999 V2000
   -6.3861   12.3623  -11.9697 C   0  0  0  0  0  0  0  0  0  0  0  0
   -6.5480   11.8020  -10.7080 C   0  0  0  0  0  0  0  0  0  0  0  0
   -7.6869   10.5726  -13.0325 C   0  0  0  0  0  0  0  0  0  0  0  0
   -6.9529   11.7665  -13.1047 C   0  0  0  0  0  0  0  0  0  0  0  0
   -7.8210   10.0086  -11.7556 C   0  0  0  0  0  0  0  0  0  0  0  0
   -7.2636   10.6177  -10.5919 C   0  0  0  0  0  0  0  0  0  0  0  0
   -7.6330    9.7421   -9.5104 C   0  0  0  0  0  0  0  0  0  0  0  0
   -8.3023    8.7332   -9.9897 N   0  0  0  0  0  0  0  0  0  0  0  0
   -8.4342    8.8678  -11.3051 N   0  0  0  0  0  0  0  0  0  0  0  0
   -7.3415    9.8758   -8.0215 C   0  0  0  0  0  0  0  0  0  0  0  0
   -4.1211   13.8754  -11.2000 S   0  0  0  0  0  0  0  0  0  0  0  0
   -2.9188   12.5402  -11.7675 C   0  0  0  0  0  0  0  0  0  0  0  0
   -5.6382   13.5428  -12.1051 N   0  0  0  0  0  0  0  0  0  0  0  0
   -5.9683   10.4827   -7.7344 C   0  0  0  0  0  0  0  0  0  0  0  0
   -4.8123    9.7690   -8.0490 C   0  0  0  0  0  0  0  0  0  0  0  0
   -3.5592   10.3237   -7.7969 C   0  0  0  0  0  0  0  0  0  0  0  0
   -3.4543   11.5962   -7.2288 C   0  0  0  0  0  0  0  0  0  0  0  0
   -4.6126   12.3085   -6.9084 C   0  0  0  0  0  0  0  0  0  0  0  0
   -5.8671   11.7538   -7.1613 C   0  0  0  0  0  0  0  0  0  0  0  0
   -2.1058   12.1871   -6.9644 C   0  0  0  0  0  0  0  0  0  0  0  0
   -1.7745   13.4406   -6.4637 C   0  0  0  0  0  0  0  0  0  0  0  0
   -0.4394   13.4976   -6.4041 N   0  0  0  0  0  0  0  0  0  0  0  0
    0.1691   12.4146   -6.8015 N   0  0  0  0  0  0  0  0  0  0  0  0
   -0.8034   11.5995   -7.1773 C   0  0  0  0  0  0  0  0  0  0  0  0
    0.3694   14.6144   -5.9538 C   0  0  0  0  0  0  0  0  0  0  0  0
   -3.6497   15.1720  -11.6865 O   0  0  0  0  0  0  0  0  0  0  0  0
   -4.3650   13.6745   -9.7698 O   0  0  0  0  0  0  0  0  0  0  0  0
   -5.5417   11.6132  -10.3059 H   0  0  0  0  0  0  0  0  0  0  0  0
   -7.0576   12.5509  -10.0840 H   0  0  0  0  0  0  0  0  0  0  0  0
   -8.1227   10.1152  -13.9085 H   0  0  0  0  0  0  0  0  0  0  0  0
   -6.8205   12.2414  -14.0656 H   0  0  0  0  0  0  0  0  0  0  0  0
   -8.0330    9.5733   -7.2490 H   0  0  0  0  0  0  0  0  0  0  0  0
   -1.9543   12.6728  -11.2554 H   0  0  0  0  0  0  0  0  0  0  0  0
   -3.3298   11.5493  -11.5240 H   0  0  0  0  0  0  0  0  0  0  0  0
   -2.7704   12.6186  -12.8546 H   0  0  0  0  0  0  0  0  0  0  0  0
   -4.8884    8.7854   -8.4885 H   0  0  0  0  0  0  0  0  0  0  0  0
   -2.6658    9.7683   -8.0414 H   0  0  0  0  0  0  0  0  0  0  0  0
   -4.5692   12.5155   -5.8289 H   0  0  0  0  0  0  0  0  0  0  0  0
   -4.5666   13.2558   -7.4655 H   0  0  0  0  0  0  0  0  0  0  0  0
   -6.3910   12.4480   -7.8348 H   0  0  0  0  0  0  0  0  0  0  0  0
   -6.3948   11.7100   -6.1971 H   0  0  0  0  0  0  0  0  0  0  0  0
   -2.4642   14.2207   -6.1771 H   0  0  0  0  0  0  0  0  0  0  0  0
   -0.6430   10.6154   -7.5924 H   0  0  0  0  0  0  0  0  0  0  0  0
    1.4345   14.3489   -6.0254 H   0  0  0  0  0  0  0  0  0  0  0  0
    0.1671   15.4918   -6.5857 H   0  0  0  0  0  0  0  0  0  0  0  0
    0.1198   14.8498   -4.9087 H   0  0  0  0  0  0  0  0  0  0  0  0
  1  2  1  0  0  0  0
  1  4  1  0  0  0  0
  1 13  2  3  0  0  0
  2  6  1  0  0  0  0
  3  4  2  0  0  0  0
  3  5  1  0  0  0  0
  5  6  2  0  0  0  0
  5  9  1  0  0  0  0
  6  7  1  0  0  0  0
  7  8  1  0  0  0  0
  7 10  2  3  0  0  0
  8  9  2  0  0  0  0
 10 14  1  0  0  0  0
 11 12  1  0  0  0  0
 11 13  1  0  0  0  0
 11 26  2  0  0  0  0
 11 27  2  0  0  0  0
 14 15  2  0  0  0  0
 14 19  1  0  0  0  0
 15 16  1  0  0  0  0
 16 17  2  0  0  0  0
 17 18  1  0  0  0  0
 17 20  1  0  0  0  0
 18 19  1  0  0  0  0
 20 21  2  0  0  0  0
 20 24  1  0  0  0  0
 21 22  1  0  0  0  0
 22 23  1  0  0  0  0
 22 25  1  0  0  0  0
 23 24  2  0  0  0  0
  2 28  1  0  0  0  0
  2 29  1  0  0  0  0
  3 30  1  0  0  0  0
  4 31  1  0  0  0  0
 10 32  1  0  0  0  0
 12 33  1  0  0  0  0
 12 34  1  0  0  0  0
 12 35  1  0  0  0  0
 15 36  1  0  0  0  0
 16 37  1  0  0  0  0
 18 38  1  0  0  0  0
 18 39  1  0  0  0  0
 19 40  1  0  0  0  0
 19 41  1  0  0  0  0
 21 42  1  0  0  0  0
 24 43  1  0  0  0  0
 25 44  1  0  0  0  0
 25 45  1  0  0  0  0
 25 46  1  0  0  0  0
M  END
> <Name>
25

> <IC50[uM]>
0.073

$$$$
25
  -OEChem-05192314333D
 Structure written by MMmdl.
 46 49  0     1  0  0  0  0  0999 V2000
   -6.3861   12.3623  -11.9697 C   0  0  0  0  0  0  0  0  0  0  0  0
   -6.5480   11.8020  -10.7080 C   0  0  0  0  0  0  0  0  0  0  0  0
   -7.6869   10.5726  -13.0325 C   0  0  0  0  0  0  0  0  0  0  0  0
   -6.9529   11.7665  -13.1047 C   0  0  0  0  0  0  0  0  0  0  0  0
   -7.8210   10.0086  -11.7556 C   0  0  0  0  0  0  0  0  0  0  0  0
   -7.2636   10.6177  -10.5919 C   0  0  3  0  0  0  0  0  0  0  0  0
   -7.6330    9.7421   -9.5104 C   0  0  0  0  0  0  0  0  0  0  0  0
   -8.3023    8.7332   -9.9897 N   0  0  0  0  0  0  0  0  0  0  0  0
   -8.4342    8.8678  -11.3051 N   0  0  0  0  0  0  0  0  0  0  0  0
   -7.3415    9.8758   -8.0215 C   0  0  0  0  0  0  0  0  0  0  0  0
   -4.1211   13.8754  -11.2000 S   0  0  0  0  0  0  0  0  0  0  0  0
   -2.9188   12.5402  -11.7675 C   0  0  0  0  0  0  0  0  0  0  0  0
   -5.6382   13.5428  -12.1051 N   0  0  0  0  0  0  0  0  0  0  0  0
   -5.9683   10.4827   -7.7344 C   0  0  0  0  0  0  0  0  0  0  0  0
   -4.8123    9.7690   -8.0490 C   0  0  0  0  0  0  0  0  0  0  0  0
   -3.5592   10.3237   -7.7969 C   0  0  0  0  0  0  0  0  0  0  0  0
   -3.4543   11.5962   -7.2288 C   0  0  0  0  0  0  0  0  0  0  0  0
   -4.6126   12.3085   -6.9084 C   0  0  0  0  0  0  0  0  0  0  0  0
   -5.8671   11.7538   -7.1613 C   0  0  0  0  0  0  0  0  0  0  0  0
   -2.1058   12.1871   -6.9644 C   0  0  0  0  0  0  0  0  0  0  0  0
   -1.7745   13.4406   -6.4637 C   0  0  0  0  0  0  0  0  0  0  0  0
   -0.4394   13.4976   -6.4041 N   0  0  0  0  0  0  0  0  0  0  0  0
    0.1691   12.4146   -6.8015 N   0  0  0  0  0  0  0  0  0  0  0  0
   -0.8034   11.5995   -7.1773 C   0  0  0  0  0  0  0  0  0  0  0  0
    0.3694   14.6144   -5.9538 C   0  0  0  0  0  0  0  0  0  0  0  0
   -3.6497   15.1720  -11.6865 O   0  0  0  0  0  0  0  0  0  0  0  0
   -4.3650   13.6745   -9.7698 O   0  0  0  0  0  0  0  0  0  0  0  0
   -6.1257   12.2782   -9.8355 H   0  0  0  0  0  0  0  0  0  0  0  0
   -8.1227   10.1152  -13.9085 H   0  0  0  0  0  0  0  0  0  0  0  0
   -6.8205   12.2414  -14.0656 H   0  0  0  0  0  0  0  0  0  0  0  0
   -8.1911   11.1909  -10.4462 H   0  0  0  0  0  0  0  0  0  0  0  0
   -8.0330    9.5733   -7.2490 H   0  0  0  0  0  0  0  0  0  0  0  0
   -1.9543   12.6728  -11.2554 H   0  0  0  0  0  0  0  0  0  0  0  0
   -3.3298   11.5493  -11.5240 H   0  0  0  0  0  0  0  0  0  0  0  0
   -2.7704   12.6186  -12.8546 H   0  0  0  0  0  0  0  0  0  0  0  0
   -5.3954   13.6013  -13.0734 H   0  0  0  0  0  0  0  0  0  0  0  0
   -4.8884    8.7854   -8.4885 H   0  0  0  0  0  0  0  0  0  0  0  0
   -2.6658    9.7683   -8.0414 H   0  0  0  0  0  0  0  0  0  0  0  0
   -3.4550   12.0453   -8.2329 H   0  0  0  0  0  0  0  0  0  0  0  0
   -4.5366   13.2900   -6.4643 H   0  0  0  0  0  0  0  0  0  0  0  0
   -6.7612   12.3068   -6.9141 H   0  0  0  0  0  0  0  0  0  0  0  0
   -2.4642   14.2207   -6.1771 H   0  0  0  0  0  0  0  0  0  0  0  0
   -0.6430   10.6154   -7.5924 H   0  0  0  0  0  0  0  0  0  0  0  0
    1.4345   14.3489   -6.0254 H   0  0  0  0  0  0  0  0  0  0  0  0
    0.1671   15.4918   -6.5857 H   0  0  0  0  0  0  0  0  0  0  0  0
    0.1198   14.8498   -4.9087 H   0  0  0  0  0  0  0  0  0  0  0  0
  1  2  2  0  0  0  0
  1  4  1  0  0  0  0
  1 13  1  0  0  0  0
  2  6  1  0  0  0  0
  3  4  2  0  0  0  0
  3  5  1  0  0  0  0
  5  6  1  0  0  0  0
  5  9  2  0  0  0  0
  6  7  1  0  0  0  0
  7  8  2  0  0  0  0
  7 10  1  0  0  0  0
  8  9  1  0  0  0  0
 10 14  2  0  0  0  0
 11 12  1  0  0  0  0
 11 13  1  0  0  0  0
 11 26  2  0  0  0  0
 11 27  2  0  0  0  0
 14 15  1  0  0  0  0
 14 19  1  0  0  0  0
 15 16  2  0  0  0  0
 16 17  1  0  0  0  0
 17 18  1  0  0  0  0
 17 20  1  0  0  0  0
 18 19  2  0  0  0  0
 20 21  2  0  0  0  0
 20 24  1  0  0  0  0
 21 22  1  0  0  0  0
 22 23  1  0  0  0  0
 22 25  1  0  0  0  0
 23 24  2  0  0  0  0
  2 28  1  0  0  0  0
  3 29  1  0  0  0  0
  4 30  1  0  0  0  0
  6 31  1  0  0  0  0
 10 32  1  0  0  0  0
 12 33  1  0  0  0  0
 12 34  1  0  0  0  0
 12 35  1  0  0  0  0
 13 36  1  0  0  0  0
 15 37  1  0  0  0  0
 16 38  1  0  0  0  0
 17 39  1  0  0  0  0
 18 40  1  0  0  0  0
 19 41  1  0  0  0  0
 21 42  1  0  0  0  0
 24 43  1  0  0  0  0
 25 44  1  0  0  0  0
 25 45  1  0  0  0  0
 25 46  1  0  0  0  0
M  END
> <Name>
25

> <IC50[uM]>
0.073

$$$$
25
  -OEChem-05192314333D
 Structure written by MMmdl.
 46 49  0     1  0  0  0  0  0999 V2000
   -6.3861   12.3623  -11.9697 C   0  0  3  0  0  0  0  0  0  0  0  0
   -6.5480   11.8020  -10.7080 C   0  0  0  0  0  0  0  0  0  0  0  0
   -7.6869   10.5726  -13.0325 C   0  0  0  0  0  0  0  0  0  0  0  0
   -6.9529   11.7665  -13.1047 C   0  0  0  0  0  0  0  0  0  0  0  0
   -7.8210   10.0086  -11.7556 C   0  0  0  0  0  0  0  0  0  0  0  0
   -7.2636   10.6177  -10.5919 C   0  0  0  0  0  0  0  0  0  0  0  0
   -7.6330    9.7421   -9.5104 C   0  0  0  0  0  0  0  0  0  0  0  0
   -8.3023    8.7332   -9.9897 N   0  0  0  0  0  0  0  0  0  0  0  0
   -8.4342    8.8678  -11.3051 N   0  0  0  0  0  0  0  0  0  0  0  0
   -7.3415    9.8758   -8.0215 C   0  0  0  0  0  0  0  0  0  0  0  0
   -4.1211   13.8754  -11.2000 S   0  0  0  0  0  0  0  0  0  0  0  0
   -2.9188   12.5402  -11.7675 C   0  0  0  0  0  0  0  0  0  0  0  0
   -5.6382   13.5428  -12.1051 N   0  0  0  0  0  0  0  0  0  0  0  0
   -5.9683   10.4827   -7.7344 C   0  0  0  0  0  0  0  0  0  0  0  0
   -4.8123    9.7690   -8.0490 C   0  0  0  0  0  0  0  0  0  0  0  0
   -3.5592   10.3237   -7.7969 C   0  0  0  0  0  0  0  0  0  0  0  0
   -3.4543   11.5962   -7.2288 C   0  0  0  0  0  0  0  0  0  0  0  0
   -4.6126   12.3085   -6.9084 C   0  0  0  0  0  0  0  0  0  0  0  0
   -5.8671   11.7538   -7.1613 C   0  0  0  0  0  0  0  0  0  0  0  0
   -2.1058   12.1871   -6.9644 C   0  0  0  0  0  0  0  0  0  0  0  0
   -1.7745   13.4406   -6.4637 C   0  0  0  0  0  0  0  0  0  0  0  0
   -0.4394   13.4976   -6.4041 N   0  0  0  0  0  0  0  0  0  0  0  0
    0.1691   12.4146   -6.8015 N   0  0  0  0  0  0  0  0  0  0  0  0
   -0.8034   11.5995   -7.1773 C   0  0  0  0  0  0  0  0  0  0  0  0
    0.3694   14.6144   -5.9538 C   0  0  0  0  0  0  0  0  0  0  0  0
   -3.6497   15.1720  -11.6865 O   0  0  0  0  0  0  0  0  0  0  0  0
   -4.3650   13.6745   -9.7698 O   0  0  0  0  0  0  0  0  0  0  0  0
   -7.3001   12.9568  -11.8241 H   0  0  0  0  0  0  0  0  0  0  0  0
   -6.1257   12.2782   -9.8355 H   0  0  0  0  0  0  0  0  0  0  0  0
   -8.1227   10.1152  -13.9085 H   0  0  0  0  0  0  0  0  0  0  0  0
   -6.8205   12.2414  -14.0656 H   0  0  0  0  0  0  0  0  0  0  0  0
   -8.0330    9.5733   -7.2490 H   0  0  0  0  0  0  0  0  0  0  0  0
   -1.9543   12.6728  -11.2554 H   0  0  0  0  0  0  0  0  0  0  0  0
   -3.3298   11.5493  -11.5240 H   0  0  0  0  0  0  0  0  0  0  0  0
   -2.7704   12.6186  -12.8546 H   0  0  0  0  0  0  0  0  0  0  0  0
   -5.3954   13.6013  -13.0734 H   0  0  0  0  0  0  0  0  0  0  0  0
   -4.8884    8.7854   -8.4885 H   0  0  0  0  0  0  0  0  0  0  0  0
   -2.6658    9.7683   -8.0414 H   0  0  0  0  0  0  0  0  0  0  0  0
   -3.4550   12.0453   -8.2329 H   0  0  0  0  0  0  0  0  0  0  0  0
   -4.5366   13.2900   -6.4643 H   0  0  0  0  0  0  0  0  0  0  0  0
   -6.7612   12.3068   -6.9141 H   0  0  0  0  0  0  0  0  0  0  0  0
   -2.4642   14.2207   -6.1771 H   0  0  0  0  0  0  0  0  0  0  0  0
   -0.6430   10.6154   -7.5924 H   0  0  0  0  0  0  0  0  0  0  0  0
    1.4345   14.3489   -6.0254 H   0  0  0  0  0  0  0  0  0  0  0  0
    0.1671   15.4918   -6.5857 H   0  0  0  0  0  0  0  0  0  0  0  0
    0.1198   14.8498   -4.9087 H   0  0  0  0  0  0  0  0  0  0  0  0
  1  2  1  0  0  0  0
  1  4  1  0  0  0  0
  1 13  1  0  0  0  0
  2  6  2  0  0  0  0
  3  4  2  0  0  0  0
  3  5  1  0  0  0  0
  5  6  1  0  0  0  0
  5  9  2  0  0  0  0
  6  7  1  0  0  0  0
  7  8  2  0  0  0  0
  7 10  1  0  0  0  0
  8  9  1  0  0  0  0
 10 14  2  0  0  0  0
 11 12  1  0  0  0  0
 11 13  1  0  0  0  0
 11 26  2  0  0  0  0
 11 27  2  0  0  0  0
 14 15  1  0  0  0  0
 14 19  1  0  0  0  0
 15 16  2  0  0  0  0
 16 17  1  0  0  0  0
 17 18  1  0  0  0  0
 17 20  1  0  0  0  0
 18 19  2  0  0  0  0
 20 21  2  0  0  0  0
 20 24  1  0  0  0  0
 21 22  1  0  0  0  0
 22 23  1  0  0  0  0
 22 25  1  0  0  0  0
 23 24  2  0  0  0  0
  1 28  1  0  0  0  0
  2 29  1  0  0  0  0
  3 30  1  0  0  0  0
  4 31  1  0  0  0  0
 10 32  1  0  0  0  0
 12 33  1  0  0  0  0
 12 34  1  0  0  0  0
 12 35  1  0  0  0  0
 13 36  1  0  0  0  0
 15 37  1  0  0  0  0
 16 38  1  0  0  0  0
 17 39  1  0  0  0  0
 18 40  1  0  0  0  0
 19 41  1  0  0  0  0
 21 42  1  0  0  0  0
 24 43  1  0  0  0  0
 25 44  1  0  0  0  0
 25 45  1  0  0  0  0
 25 46  1  0  0  0  0
M  END
> <Name>
25

> <IC50[uM]>
0.073

$$$$
25
  -OEChem-05192314333D
 Structure written by MMmdl.
 46 49  0     1  0  0  0  0  0999 V2000
   -6.3861   12.3623  -11.9697 C   0  0  0  0  0  0  0  0  0  0  0  0
   -6.5480   11.8020  -10.7080 C   0  0  0  0  0  0  0  0  0  0  0  0
   -7.6869   10.5726  -13.0325 C   0  0  0  0  0  0  0  0  0  0  0  0
   -6.9529   11.7665  -13.1047 C   0  0  0  0  0  0  0  0  0  0  0  0
   -7.8210   10.0086  -11.7556 C   0  0  0  0  0  0  0  0  0  0  0  0
   -7.2636   10.6177  -10.5919 C   0  0  0  0  0  0  0  0  0  0  0  0
   -7.6330    9.7421   -9.5104 C   0  0  3  0  0  0  0  0  0  0  0  0
   -8.3023    8.7332   -9.9897 N   0  0  0  0  0  0  0  0  0  0  0  0
   -8.4342    8.8678  -11.3051 N   0  0  0  0  0  0  0  0  0  0  0  0
   -7.3415    9.8758   -8.0215 C   0  0  0  0  0  0  0  0  0  0  0  0
   -4.1211   13.8754  -11.2000 S   0  0  0  0  0  0  0  0  0  0  0  0
   -2.9188   12.5402  -11.7675 C   0  0  0  0  0  0  0  0  0  0  0  0
   -5.6382   13.5428  -12.1051 N   0  0  0  0  0  0  0  0  0  0  0  0
   -5.9683   10.4827   -7.7344 C   0  0  0  0  0  0  0  0  0  0  0  0
   -4.8123    9.7690   -8.0490 C   0  0  0  0  0  0  0  0  0  0  0  0
   -3.5592   10.3237   -7.7969 C   0  0  0  0  0  0  0  0  0  0  0  0
   -3.4543   11.5962   -7.2288 C   0  0  0  0  0  0  0  0  0  0  0  0
   -4.6126   12.3085   -6.9084 C   0  0  0  0  0  0  0  0  0  0  0  0
   -5.8671   11.7538   -7.1613 C   0  0  0  0  0  0  0  0  0  0  0  0
   -2.1058   12.1871   -6.9644 C   0  0  0  0  0  0  0  0  0  0  0  0
   -1.7745   13.4406   -6.4637 C   0  0  0  0  0  0  0  0  0  0  0  0
   -0.4394   13.4976   -6.4041 N   0  0  0  0  0  0  0  0  0  0  0  0
    0.1691   12.4146   -6.8015 N   0  0  0  0  0  0  0  0  0  0  0  0
   -0.8034   11.5995   -7.1773 C   0  0  0  0  0  0  0  0  0  0  0  0
    0.3694   14.6144   -5.9538 C   0  0  0  0  0  0  0  0  0  0  0  0
   -3.6497   15.1720  -11.6865 O   0  0  0  0  0  0  0  0  0  0  0  0
   -4.3650   13.6745   -9.7698 O   0  0  0  0  0  0  0  0  0  0  0  0
   -6.1257   12.2782   -9.8355 H   0  0  0  0  0  0  0  0  0  0  0  0
   -8.1227   10.1152  -13.9085 H   0  0  0  0  0  0  0  0  0  0  0  0
   -6.8205   12.2414  -14.0656 H   0  0  0  0  0  0  0  0  0  0  0  0
   -8.5708   10.3015   -9.3774 H   0  0  0  0  0  0  0  0  0  0  0  0
   -7.8128    7.8844   -9.7898 H   0  0  0  0  0  0  0  0  0  0  0  0
   -8.0330    9.5733   -7.2490 H   0  0  0  0  0  0  0  0  0  0  0  0
   -1.9543   12.6728  -11.2554 H   0  0  0  0  0  0  0  0  0  0  0  0
   -3.3298   11.5493  -11.5240 H   0  0  0  0  0  0  0  0  0  0  0  0
   -2.7704   12.6186  -12.8546 H   0  0  0  0  0  0  0  0  0  0  0  0
   -4.8884    8.7854   -8.4885 H   0  0  0  0  0  0  0  0  0  0  0  0
   -2.6658    9.7683   -8.0414 H   0  0  0  0  0  0  0  0  0  0  0  0
   -3.4550   12.0453   -8.2329 H   0  0  0  0  0  0  0  0  0  0  0  0
   -4.5366   13.2900   -6.4643 H   0  0  0  0  0  0  0  0  0  0  0  0
   -6.7612   12.3068   -6.9141 H   0  0  0  0  0  0  0  0  0  0  0  0
   -2.4642   14.2207   -6.1771 H   0  0  0  0  0  0  0  0  0  0  0  0
   -0.6430   10.6154   -7.5924 H   0  0  0  0  0  0  0  0  0  0  0  0
    1.4345   14.3489   -6.0254 H   0  0  0  0  0  0  0  0  0  0  0  0
    0.1671   15.4918   -6.5857 H   0  0  0  0  0  0  0  0  0  0  0  0
    0.1198   14.8498   -4.9087 H   0  0  0  0  0  0  0  0  0  0  0  0
  1  2  1  0  0  0  0
  1  4  1  0  0  0  0
  1 13  2  3  0  0  0
  2  6  2  0  0  0  0
  3  4  2  0  0  0  0
  3  5  1  0  0  0  0
  5  6  1  0  0  0  0
  5  9  2  0  0  0  0
  6  7  1  0  0  0  0
  7  8  1  0  0  0  0
  7 10  1  0  0  0  0
  8  9  1  0  0  0  0
 10 14  2  0  0  0  0
 11 12  1  0  0  0  0
 11 13  1  0  0  0  0
 11 26  2  0  0  0  0
 11 27  2  0  0  0  0
 14 15  1  0  0  0  0
 14 19  1  0  0  0  0
 15 16  2  0  0  0  0
 16 17  1  0  0  0  0
 17 18  1  0  0  0  0
 17 20  1  0  0  0  0
 18 19  2  0  0  0  0
 20 21  2  0  0  0  0
 20 24  1  0  0  0  0
 21 22  1  0  0  0  0
 22 23  1  0  0  0  0
 22 25  1  0  0  0  0
 23 24  2  0  0  0  0
  2 28  1  0  0  0  0
  3 29  1  0  0  0  0
  4 30  1  0  0  0  0
  7 31  1  0  0  0  0
  8 32  1  0  0  0  0
 10 33  1  0  0  0  0
 12 34  1  0  0  0  0
 12 35  1  0  0  0  0
 12 36  1  0  0  0  0
 15 37  1  0  0  0  0
 16 38  1  0  0  0  0
 17 39  1  0  0  0  0
 18 40  1  0  0  0  0
 19 41  1  0  0  0  0
 21 42  1  0  0  0  0
 24 43  1  0  0  0  0
 25 44  1  0  0  0  0
 25 45  1  0  0  0  0
 25 46  1  0  0  0  0
M  END
> <Name>
25

> <IC50[uM]>
0.073

$$$$
25
  -OEChem-05192314333D
 Structure written by MMmdl.
 46 49  0     1  0  0  0  0  0999 V2000
   -6.3861   12.3623  -11.9697 C   0  0  0  0  0  0  0  0  0  0  0  0
   -6.5480   11.8020  -10.7080 C   0  0  0  0  0  0  0  0  0  0  0  0
   -7.6869   10.5726  -13.0325 C   0  0  0  0  0  0  0  0  0  0  0  0
   -6.9529   11.7665  -13.1047 C   0  0  0  0  0  0  0  0  0  0  0  0
   -7.8210   10.0086  -11.7556 C   0  0  3  0  0  0  0  0  0  0  0  0
   -7.2636   10.6177  -10.5919 C   0  0  0  0  0  0  0  0  0  0  0  0
   -7.6330    9.7421   -9.5104 C   0  0  0  0  0  0  0  0  0  0  0  0
   -8.3023    8.7332   -9.9897 N   0  0  0  0  0  0  0  0  0  0  0  0
   -8.4342    8.8678  -11.3051 N   0  0  0  0  0  0  0  0  0  0  0  0
   -7.3415    9.8758   -8.0215 C   0  0  0  0  0  0  0  0  0  0  0  0
   -4.1211   13.8754  -11.2000 S   0  0  0  0  0  0  0  0  0  0  0  0
   -2.9188   12.5402  -11.7675 C   0  0  0  0  0  0  0  0  0  0  0  0
   -5.6382   13.5428  -12.1051 N   0  0  0  0  0  0  0  0  0  0  0  0
   -5.9683   10.4827   -7.7344 C   0  0  0  0  0  0  0  0  0  0  0  0
   -4.8123    9.7690   -8.0490 C   0  0  0  0  0  0  0  0  0  0  0  0
   -3.5592   10.3237   -7.7969 C   0  0  0  0  0  0  0  0  0  0  0  0
   -3.4543   11.5962   -7.2288 C   0  0  0  0  0  0  0  0  0  0  0  0
   -4.6126   12.3085   -6.9084 C   0  0  0  0  0  0  0  0  0  0  0  0
   -5.8671   11.7538   -7.1613 C   0  0  0  0  0  0  0  0  0  0  0  0
   -2.1058   12.1871   -6.9644 C   0  0  0  0  0  0  0  0  0  0  0  0
   -1.7745   13.4406   -6.4637 C   0  0  0  0  0  0  0  0  0  0  0  0
   -0.4394   13.4976   -6.4041 N   0  0  0  0  0  0  0  0  0  0  0  0
    0.1691   12.4146   -6.8015 N   0  0  0  0  0  0  0  0  0  0  0  0
   -0.8034   11.5995   -7.1773 C   0  0  0  0  0  0  0  0  0  0  0  0
    0.3694   14.6144   -5.9538 C   0  0  0  0  0  0  0  0  0  0  0  0
   -3.6497   15.1720  -11.6865 O   0  0  0  0  0  0  0  0  0  0  0  0
   -4.3650   13.6745   -9.7698 O   0  0  0  0  0  0  0  0  0  0  0  0
   -6.1257   12.2782   -9.8355 H   0  0  0  0  0  0  0  0  0  0  0  0
   -8.1227   10.1152  -13.9085 H   0  0  0  0  0  0  0  0  0  0  0  0
   -6.8205   12.2414  -14.0656 H   0  0  0  0  0  0  0  0  0  0  0  0
   -8.7541   10.5711  -11.6042 H   0  0  0  0  0  0  0  0  0  0  0  0
   -9.4072    8.9103  -11.5318 H   0  0  0  0  0  0  0  0  0  0  0  0
   -8.0330    9.5733   -7.2490 H   0  0  0  0  0  0  0  0  0  0  0  0
   -1.9543   12.6728  -11.2554 H   0  0  0  0  0  0  0  0  0  0  0  0
   -3.3298   11.5493  -11.5240 H   0  0  0  0  0  0  0  0  0  0  0  0
   -2.7704   12.6186  -12.8546 H   0  0  0  0  0  0  0  0  0  0  0  0
   -4.8884    8.7854   -8.4885 H   0  0  0  0  0  0  0  0  0  0  0  0
   -2.6658    9.7683   -8.0414 H   0  0  0  0  0  0  0  0  0  0  0  0
   -3.4550   12.0453   -8.2329 H   0  0  0  0  0  0  0  0  0  0  0  0
   -4.5366   13.2900   -6.4643 H   0  0  0  0  0  0  0  0  0  0  0  0
   -6.7612   12.3068   -6.9141 H   0  0  0  0  0  0  0  0  0  0  0  0
   -2.4642   14.2207   -6.1771 H   0  0  0  0  0  0  0  0  0  0  0  0
   -0.6430   10.6154   -7.5924 H   0  0  0  0  0  0  0  0  0  0  0  0
    1.4345   14.3489   -6.0254 H   0  0  0  0  0  0  0  0  0  0  0  0
    0.1671   15.4918   -6.5857 H   0  0  0  0  0  0  0  0  0  0  0  0
    0.1198   14.8498   -4.9087 H   0  0  0  0  0  0  0  0  0  0  0  0
  1  2  1  0  0  0  0
  1  4  1  0  0  0  0
  1 13  2  3  0  0  0
  2  6  2  0  0  0  0
  3  4  2  0  0  0  0
  3  5  1  0  0  0  0
  5  6  1  0  0  0  0
  5  9  1  0  0  0  0
  6  7  1  0  0  0  0
  7  8  2  0  0  0  0
  7 10  1  0  0  0  0
  8  9  1  0  0  0  0
 10 14  2  0  0  0  0
 11 12  1  0  0  0  0
 11 13  1  0  0  0  0
 11 26  2  0  0  0  0
 11 27  2  0  0  0  0
 14 15  1  0  0  0  0
 14 19  1  0  0  0  0
 15 16  2  0  0  0  0
 16 17  1  0  0  0  0
 17 18  1  0  0  0  0
 17 20  1  0  0  0  0
 18 19  2  0  0  0  0
 20 21  2  0  0  0  0
 20 24  1  0  0  0  0
 21 22  1  0  0  0  0
 22 23  1  0  0  0  0
 22 25  1  0  0  0  0
 23 24  2  0  0  0  0
  2 28  1  0  0  0  0
  3 29  1  0  0  0  0
  4 30  1  0  0  0  0
  5 31  1  0  0  0  0
  9 32  1  0  0  0  0
 10 33  1  0  0  0  0
 12 34  1  0  0  0  0
 12 35  1  0  0  0  0
 12 36  1  0  0  0  0
 15 37  1  0  0  0  0
 16 38  1  0  0  0  0
 17 39  1  0  0  0  0
 18 40  1  0  0  0  0
 19 41  1  0  0  0  0
 21 42  1  0  0  0  0
 24 43  1  0  0  0  0
 25 44  1  0  0  0  0
 25 45  1  0  0  0  0
 25 46  1  0  0  0  0
M  END
> <Name>
25

> <IC50[uM]>
0.073

$$$$
25
  -OEChem-05192314333D
 Structure written by MMmdl.
 46 49  0     0  0  0  0  0  0999 V2000
   -6.3861   12.3623  -11.9697 C   0  0  0  0  0  0  0  0  0  0  0  0
   -6.5480   11.8020  -10.7080 C   0  0  0  0  0  0  0  0  0  0  0  0
   -7.6869   10.5726  -13.0325 C   0  0  0  0  0  0  0  0  0  0  0  0
   -6.9529   11.7665  -13.1047 C   0  0  0  0  0  0  0  0  0  0  0  0
   -7.8210   10.0086  -11.7556 C   0  0  0  0  0  0  0  0  0  0  0  0
   -7.2636   10.6177  -10.5919 C   0  0  0  0  0  0  0  0  0  0  0  0
   -7.6330    9.7421   -9.5104 C   0  0  0  0  0  0  0  0  0  0  0  0
   -8.3023    8.7332   -9.9897 N   0  0  0  0  0  0  0  0  0  0  0  0
   -8.4342    8.8678  -11.3051 N   0  0  0  0  0  0  0  0  0  0  0  0
   -7.3415    9.8758   -8.0215 C   0  0  0  0  0  0  0  0  0  0  0  0
   -4.1211   13.8754  -11.2000 S   0  0  0  0  0  0  0  0  0  0  0  0
   -2.9188   12.5402  -11.7675 C   0  0  0  0  0  0  0  0  0  0  0  0
   -5.6382   13.5428  -12.1051 N   0  0  0  0  0  0  0  0  0  0  0  0
   -5.9683   10.4827   -7.7344 C   0  0  0  0  0  0  0  0  0  0  0  0
   -4.8123    9.7690   -8.0490 C   0  0  0  0  0  0  0  0  0  0  0  0
   -3.5592   10.3237   -7.7969 C   0  0  0  0  0  0  0  0  0  0  0  0
   -3.4543   11.5962   -7.2288 C   0  0  0  0  0  0  0  0  0  0  0  0
   -4.6126   12.3085   -6.9084 C   0  0  0  0  0  0  0  0  0  0  0  0
   -5.8671   11.7538   -7.1613 C   0  0  0  0  0  0  0  0  0  0  0  0
   -2.1058   12.1871   -6.9644 C   0  0  0  0  0  0  0  0  0  0  0  0
   -1.7745   13.4406   -6.4637 C   0  0  0  0  0  0  0  0  0  0  0  0
   -0.4394   13.4976   -6.4041 N   0  0  0  0  0  0  0  0  0  0  0  0
    0.1691   12.4146   -6.8015 N   0  0  0  0  0  0  0  0  0  0  0  0
   -0.8034   11.5995   -7.1773 C   0  0  0  0  0  0  0  0  0  0  0  0
    0.3694   14.6144   -5.9538 C   0  0  0  0  0  0  0  0  0  0  0  0
   -3.6497   15.1720  -11.6865 O   0  0  0  0  0  0  0  0  0  0  0  0
   -4.3650   13.6745   -9.7698 O   0  0  0  0  0  0  0  0  0  0  0  0
   -6.1257   12.2782   -9.8355 H   0  0  0  0  0  0  0  0  0  0  0  0
   -8.6969   10.7748  -13.4186 H   0  0  0  0  0  0  0  0  0  0  0  0
   -7.1895    9.8325  -13.6766 H   0  0  0  0  0  0  0  0  0  0  0  0
   -6.8205   12.2414  -14.0656 H   0  0  0  0  0  0  0  0  0  0  0  0
   -8.0330    9.5733   -7.2490 H   0  0  0  0  0  0  0  0  0  0  0  0
   -1.9543   12.6728  -11.2554 H   0  0  0  0  0  0  0  0  0  0  0  0
   -3.3298   11.5493  -11.5240 H   0  0  0  0  0  0  0  0  0  0  0  0
   -2.7704   12.6186  -12.8546 H   0  0  0  0  0  0  0  0  0  0  0  0
   -5.3954   13.6013  -13.0734 H   0  0  0  0  0  0  0  0  0  0  0  0
   -4.8884    8.7854   -8.4885 H   0  0  0  0  0  0  0  0  0  0  0  0
   -2.6658    9.7683   -8.0414 H   0  0  0  0  0  0  0  0  0  0  0  0
   -3.4550   12.0453   -8.2329 H   0  0  0  0  0  0  0  0  0  0  0  0
   -4.5366   13.2900   -6.4643 H   0  0  0  0  0  0  0  0  0  0  0  0
   -6.7612   12.3068   -6.9141 H   0  0  0  0  0  0  0  0  0  0  0  0
   -2.4642   14.2207   -6.1771 H   0  0  0  0  0  0  0  0  0  0  0  0
   -0.6430   10.6154   -7.5924 H   0  0  0  0  0  0  0  0  0  0  0  0
    1.4345   14.3489   -6.0254 H   0  0  0  0  0  0  0  0  0  0  0  0
    0.1671   15.4918   -6.5857 H   0  0  0  0  0  0  0  0  0  0  0  0
    0.1198   14.8498   -4.9087 H   0  0  0  0  0  0  0  0  0  0  0  0
  1  2  1  0  0  0  0
  1  4  2  0  0  0  0
  1 13  1  0  0  0  0
  2  6  2  0  0  0  0
  3  4  1  0  0  0  0
  3  5  1  0  0  0  0
  5  6  1  0  0  0  0
  5  9  2  0  0  0  0
  6  7  1  0  0  0  0
  7  8  2  0  0  0  0
  7 10  1  0  0  0  0
  8  9  1  0  0  0  0
 10 14  2  0  0  0  0
 11 12  1  0  0  0  0
 11 13  1  0  0  0  0
 11 26  2  0  0  0  0
 11 27  2  0  0  0  0
 14 15  1  0  0  0  0
 14 19  1  0  0  0  0
 15 16  2  0  0  0  0
 16 17  1  0  0  0  0
 17 18  1  0  0  0  0
 17 20  1  0  0  0  0
 18 19  2  0  0  0  0
 20 21  2  0  0  0  0
 20 24  1  0  0  0  0
 21 22  1  0  0  0  0
 22 23  1  0  0  0  0
 22 25  1  0  0  0  0
 23 24  2  0  0  0  0
  2 28  1  0  0  0  0
  3 29  1  0  0  0  0
  3 30  1  0  0  0  0
  4 31  1  0  0  0  0
 10 32  1  0  0  0  0
 12 33  1  0  0  0  0
 12 34  1  0  0  0  0
 12 35  1  0  0  0  0
 13 36  1  0  0  0  0
 15 37  1  0  0  0  0
 16 38  1  0  0  0  0
 17 39  1  0  0  0  0
 18 40  1  0  0  0  0
 19 41  1  0  0  0  0
 21 42  1  0  0  0  0
 24 43  1  0  0  0  0
 25 44  1  0  0  0  0
 25 45  1  0  0  0  0
 25 46  1  0  0  0  0
M  END
> <Name>
25

> <IC50[uM]>
0.073

$$$$
25
  -OEChem-05192314333D
 Structure written by MMmdl.
 46 49  0     1  0  0  0  0  0999 V2000
   -6.3861   12.3623  -11.9697 C   0  0  0  0  0  0  0  0  0  0  0  0
   -6.5480   11.8020  -10.7080 C   0  0  0  0  0  0  0  0  0  0  0  0
   -7.6869   10.5726  -13.0325 C   0  0  0  0  0  0  0  0  0  0  0  0
   -6.9529   11.7665  -13.1047 C   0  0  0  0  0  0  0  0  0  0  0  0
   -7.8210   10.0086  -11.7556 C   0  0  0  0  0  0  0  0  0  0  0  0
   -7.2636   10.6177  -10.5919 C   0  0  3  0  0  0  0  0  0  0  0  0
   -7.6330    9.7421   -9.5104 C   0  0  0  0  0  0  0  0  0  0  0  0
   -8.3023    8.7332   -9.9897 N   0  0  0  0  0  0  0  0  0  0  0  0
   -8.4342    8.8678  -11.3051 N   0  0  0  0  0  0  0  0  0  0  0  0
   -7.3415    9.8758   -8.0215 C   0  0  0  0  0  0  0  0  0  0  0  0
   -4.1211   13.8754  -11.2000 S   0  0  0  0  0  0  0  0  0  0  0  0
   -2.9188   12.5402  -11.7675 C   0  0  0  0  0  0  0  0  0  0  0  0
   -5.6382   13.5428  -12.1051 N   0  0  0  0  0  0  0  0  0  0  0  0
   -5.9683   10.4827   -7.7344 C   0  0  0  0  0  0  0  0  0  0  0  0
   -4.8123    9.7690   -8.0490 C   0  0  0  0  0  0  0  0  0  0  0  0
   -3.5592   10.3237   -7.7969 C   0  0  0  0  0  0  0  0  0  0  0  0
   -3.4543   11.5962   -7.2288 C   0  0  0  0  0  0  0  0  0  0  0  0
   -4.6126   12.3085   -6.9084 C   0  0  0  0  0  0  0  0  0  0  0  0
   -5.8671   11.7538   -7.1613 C   0  0  0  0  0  0  0  0  0  0  0  0
   -2.1058   12.1871   -6.9644 C   0  0  0  0  0  0  0  0  0  0  0  0
   -1.7745   13.4406   -6.4637 C   0  0  0  0  0  0  0  0  0  0  0  0
   -0.4394   13.4976   -6.4041 N   0  0  0  0  0  0  0  0  0  0  0  0
    0.1691   12.4146   -6.8015 N   0  0  0  0  0  0  0  0  0  0  0  0
   -0.8034   11.5995   -7.1773 C   0  0  0  0  0  0  0  0  0  0  0  0
    0.3694   14.6144   -5.9538 C   0  0  0  0  0  0  0  0  0  0  0  0
   -3.6497   15.1720  -11.6865 O   0  0  0  0  0  0  0  0  0  0  0  0
   -4.3650   13.6745   -9.7698 O   0  0  0  0  0  0  0  0  0  0  0  0
   -6.1257   12.2782   -9.8355 H   0  0  0  0  0  0  0  0  0  0  0  0
   -8.1227   10.1152  -13.9085 H   0  0  0  0  0  0  0  0  0  0  0  0
   -6.8205   12.2414  -14.0656 H   0  0  0  0  0  0  0  0  0  0  0  0
   -8.1911   11.1909  -10.4462 H   0  0  0  0  0  0  0  0  0  0  0  0
   -8.0330    9.5733   -7.2490 H   0  0  0  0  0  0  0  0  0  0  0  0
   -1.9543   12.6728  -11.2554 H   0  0  0  0  0  0  0  0  0  0  0  0
   -3.3298   11.5493  -11.5240 H   0  0  0  0  0  0  0  0  0  0  0  0
   -2.7704   12.6186  -12.8546 H   0  0  0  0  0  0  0  0  0  0  0  0
   -5.3954   13.6013  -13.0734 H   0  0  0  0  0  0  0  0  0  0  0  0
   -4.8884    8.7854   -8.4885 H   0  0  0  0  0  0  0  0  0  0  0  0
   -2.6658    9.7683   -8.0414 H   0  0  0  0  0  0  0  0  0  0  0  0
   -4.5366   13.2900   -6.4643 H   0  0  0  0  0  0  0  0  0  0  0  0
   -6.3910   12.4480   -7.8348 H   0  0  0  0  0  0  0  0  0  0  0  0
   -6.3948   11.7100   -6.1971 H   0  0  0  0  0  0  0  0  0  0  0  0
   -2.4642   14.2207   -6.1771 H   0  0  0  0  0  0  0  0  0  0  0  0
   -0.6430   10.6154   -7.5924 H   0  0  0  0  0  0  0  0  0  0  0  0
    1.4345   14.3489   -6.0254 H   0  0  0  0  0  0  0  0  0  0  0  0
    0.1671   15.4918   -6.5857 H   0  0  0  0  0  0  0  0  0  0  0  0
    0.1198   14.8498   -4.9087 H   0  0  0  0  0  0  0  0  0  0  0  0
  1  2  2  0  0  0  0
  1  4  1  0  0  0  0
  1 13  1  0  0  0  0
  2  6  1  0  0  0  0
  3  4  2  0  0  0  0
  3  5  1  0  0  0  0
  5  6  1  0  0  0  0
  5  9  2  0  0  0  0
  6  7  1  0  0  0  0
  7  8  2  0  0  0  0
  7 10  1  0  0  0  0
  8  9  1  0  0  0  0
 10 14  2  3  0  0  0
 11 12  1  0  0  0  0
 11 13  1  0  0  0  0
 11 26  2  0  0  0  0
 11 27  2  0  0  0  0
 14 15  1  0  0  0  0
 14 19  1  0  0  0  0
 15 16  2  0  0  0  0
 16 17  1  0  0  0  0
 17 18  2  0  0  0  0
 17 20  1  0  0  0  0
 18 19  1  0  0  0  0
 20 21  2  0  0  0  0
 20 24  1  0  0  0  0
 21 22  1  0  0  0  0
 22 23  1  0  0  0  0
 22 25  1  0  0  0  0
 23 24  2  0  0  0  0
  2 28  1  0  0  0  0
  3 29  1  0  0  0  0
  4 30  1  0  0  0  0
  6 31  1  0  0  0  0
 10 32  1  0  0  0  0
 12 33  1  0  0  0  0
 12 34  1  0  0  0  0
 12 35  1  0  0  0  0
 13 36  1  0  0  0  0
 15 37  1  0  0  0  0
 16 38  1  0  0  0  0
 18 39  1  0  0  0  0
 19 40  1  0  0  0  0
 19 41  1  0  0  0  0
 21 42  1  0  0  0  0
 24 43  1  0  0  0  0
 25 44  1  0  0  0  0
 25 45  1  0  0  0  0
 25 46  1  0  0  0  0
M  END
> <Name>
25

> <IC50[uM]>
0.073

$$$$
25
  -OEChem-05192314333D
 Structure written by MMmdl.
 46 49  0     1  0  0  0  0  0999 V2000
   -6.3861   12.3623  -11.9697 C   0  0  3  0  0  0  0  0  0  0  0  0
   -6.5480   11.8020  -10.7080 C   0  0  0  0  0  0  0  0  0  0  0  0
   -7.6869   10.5726  -13.0325 C   0  0  0  0  0  0  0  0  0  0  0  0
   -6.9529   11.7665  -13.1047 C   0  0  0  0  0  0  0  0  0  0  0  0
   -7.8210   10.0086  -11.7556 C   0  0  0  0  0  0  0  0  0  0  0  0
   -7.2636   10.6177  -10.5919 C   0  0  0  0  0  0  0  0  0  0  0  0
   -7.6330    9.7421   -9.5104 C   0  0  0  0  0  0  0  0  0  0  0  0
   -8.3023    8.7332   -9.9897 N   0  0  0  0  0  0  0  0  0  0  0  0
   -8.4342    8.8678  -11.3051 N   0  0  0  0  0  0  0  0  0  0  0  0
   -7.3415    9.8758   -8.0215 C   0  0  0  0  0  0  0  0  0  0  0  0
   -4.1211   13.8754  -11.2000 S   0  0  0  0  0  0  0  0  0  0  0  0
   -2.9188   12.5402  -11.7675 C   0  0  0  0  0  0  0  0  0  0  0  0
   -5.6382   13.5428  -12.1051 N   0  0  0  0  0  0  0  0  0  0  0  0
   -5.9683   10.4827   -7.7344 C   0  0  0  0  0  0  0  0  0  0  0  0
   -4.8123    9.7690   -8.0490 C   0  0  0  0  0  0  0  0  0  0  0  0
   -3.5592   10.3237   -7.7969 C   0  0  0  0  0  0  0  0  0  0  0  0
   -3.4543   11.5962   -7.2288 C   0  0  0  0  0  0  0  0  0  0  0  0
   -4.6126   12.3085   -6.9084 C   0  0  0  0  0  0  0  0  0  0  0  0
   -5.8671   11.7538   -7.1613 C   0  0  0  0  0  0  0  0  0  0  0  0
   -2.1058   12.1871   -6.9644 C   0  0  0  0  0  0  0  0  0  0  0  0
   -1.7745   13.4406   -6.4637 C   0  0  0  0  0  0  0  0  0  0  0  0
   -0.4394   13.4976   -6.4041 N   0  0  0  0  0  0  0  0  0  0  0  0
    0.1691   12.4146   -6.8015 N   0  0  0  0  0  0  0  0  0  0  0  0
   -0.8034   11.5995   -7.1773 C   0  0  0  0  0  0  0  0  0  0  0  0
    0.3694   14.6144   -5.9538 C   0  0  0  0  0  0  0  0  0  0  0  0
   -3.6497   15.1720  -11.6865 O   0  0  0  0  0  0  0  0  0  0  0  0
   -4.3650   13.6745   -9.7698 O   0  0  0  0  0  0  0  0  0  0  0  0
   -7.3001   12.9568  -11.8241 H   0  0  0  0  0  0  0  0  0  0  0  0
   -6.1257   12.2782   -9.8355 H   0  0  0  0  0  0  0  0  0  0  0  0
   -8.1227   10.1152  -13.9085 H   0  0  0  0  0  0  0  0  0  0  0  0
   -6.8205   12.2414  -14.0656 H   0  0  0  0  0  0  0  0  0  0  0  0
   -8.0330    9.5733   -7.2490 H   0  0  0  0  0  0  0  0  0  0  0  0
   -1.9543   12.6728  -11.2554 H   0  0  0  0  0  0  0  0  0  0  0  0
   -3.3298   11.5493  -11.5240 H   0  0  0  0  0  0  0  0  0  0  0  0
   -2.7704   12.6186  -12.8546 H   0  0  0  0  0  0  0  0  0  0  0  0
   -5.3954   13.6013  -13.0734 H   0  0  0  0  0  0  0  0  0  0  0  0
   -4.8884    8.7854   -8.4885 H   0  0  0  0  0  0  0  0  0  0  0  0
   -2.6658    9.7683   -8.0414 H   0  0  0  0  0  0  0  0  0  0  0  0
   -4.5366   13.2900   -6.4643 H   0  0  0  0  0  0  0  0  0  0  0  0
   -6.3910   12.4480   -7.8348 H   0  0  0  0  0  0  0  0  0  0  0  0
   -6.3948   11.7100   -6.1971 H   0  0  0  0  0  0  0  0  0  0  0  0
   -2.4642   14.2207   -6.1771 H   0  0  0  0  0  0  0  0  0  0  0  0
   -0.6430   10.6154   -7.5924 H   0  0  0  0  0  0  0  0  0  0  0  0
    1.4345   14.3489   -6.0254 H   0  0  0  0  0  0  0  0  0  0  0  0
    0.1671   15.4918   -6.5857 H   0  0  0  0  0  0  0  0  0  0  0  0
    0.1198   14.8498   -4.9087 H   0  0  0  0  0  0  0  0  0  0  0  0
  1  2  1  0  0  0  0
  1  4  1  0  0  0  0
  1 13  1  0  0  0  0
  2  6  2  0  0  0  0
  3  4  2  0  0  0  0
  3  5  1  0  0  0  0
  5  6  1  0  0  0  0
  5  9  2  0  0  0  0
  6  7  1  0  0  0  0
  7  8  2  0  0  0  0
  7 10  1  0  0  0  0
  8  9  1  0  0  0  0
 10 14  2  3  0  0  0
 11 12  1  0  0  0  0
 11 13  1  0  0  0  0
 11 26  2  0  0  0  0
 11 27  2  0  0  0  0
 14 15  1  0  0  0  0
 14 19  1  0  0  0  0
 15 16  2  0  0  0  0
 16 17  1  0  0  0  0
 17 18  2  0  0  0  0
 17 20  1  0  0  0  0
 18 19  1  0  0  0  0
 20 21  2  0  0  0  0
 20 24  1  0  0  0  0
 21 22  1  0  0  0  0
 22 23  1  0  0  0  0
 22 25  1  0  0  0  0
 23 24  2  0  0  0  0
  1 28  1  0  0  0  0
  2 29  1  0  0  0  0
  3 30  1  0  0  0  0
  4 31  1  0  0  0  0
 10 32  1  0  0  0  0
 12 33  1  0  0  0  0
 12 34  1  0  0  0  0
 12 35  1  0  0  0  0
 13 36  1  0  0  0  0
 15 37  1  0  0  0  0
 16 38  1  0  0  0  0
 18 39  1  0  0  0  0
 19 40  1  0  0  0  0
 19 41  1  0  0  0  0
 21 42  1  0  0  0  0
 24 43  1  0  0  0  0
 25 44  1  0  0  0  0
 25 45  1  0  0  0  0
 25 46  1  0  0  0  0
M  END
> <Name>
25

> <IC50[uM]>
0.073

$$$$
25
  -OEChem-05192314333D
 Structure written by MMmdl.
 46 49  0     1  0  0  0  0  0999 V2000
   -6.3861   12.3623  -11.9697 C   0  0  0  0  0  0  0  0  0  0  0  0
   -6.5480   11.8020  -10.7080 C   0  0  0  0  0  0  0  0  0  0  0  0
   -7.6869   10.5726  -13.0325 C   0  0  0  0  0  0  0  0  0  0  0  0
   -6.9529   11.7665  -13.1047 C   0  0  0  0  0  0  0  0  0  0  0  0
   -7.8210   10.0086  -11.7556 C   0  0  0  0  0  0  0  0  0  0  0  0
   -7.2636   10.6177  -10.5919 C   0  0  0  0  0  0  0  0  0  0  0  0
   -7.6330    9.7421   -9.5104 C   0  0  3  0  0  0  0  0  0  0  0  0
   -8.3023    8.7332   -9.9897 N   0  0  0  0  0  0  0  0  0  0  0  0
   -8.4342    8.8678  -11.3051 N   0  0  0  0  0  0  0  0  0  0  0  0
   -7.3415    9.8758   -8.0215 C   0  0  0  0  0  0  0  0  0  0  0  0
   -4.1211   13.8754  -11.2000 S   0  0  0  0  0  0  0  0  0  0  0  0
   -2.9188   12.5402  -11.7675 C   0  0  0  0  0  0  0  0  0  0  0  0
   -5.6382   13.5428  -12.1051 N   0  0  0  0  0  0  0  0  0  0  0  0
   -5.9683   10.4827   -7.7344 C   0  0  0  0  0  0  0  0  0  0  0  0
   -4.8123    9.7690   -8.0490 C   0  0  0  0  0  0  0  0  0  0  0  0
   -3.5592   10.3237   -7.7969 C   0  0  0  0  0  0  0  0  0  0  0  0
   -3.4543   11.5962   -7.2288 C   0  0  0  0  0  0  0  0  0  0  0  0
   -4.6126   12.3085   -6.9084 C   0  0  0  0  0  0  0  0  0  0  0  0
   -5.8671   11.7538   -7.1613 C   0  0  0  0  0  0  0  0  0  0  0  0
   -2.1058   12.1871   -6.9644 C   0  0  0  0  0  0  0  0  0  0  0  0
   -1.7745   13.4406   -6.4637 C   0  0  0  0  0  0  0  0  0  0  0  0
   -0.4394   13.4976   -6.4041 N   0  0  0  0  0  0  0  0  0  0  0  0
    0.1691   12.4146   -6.8015 N   0  0  0  0  0  0  0  0  0  0  0  0
   -0.8034   11.5995   -7.1773 C   0  0  0  0  0  0  0  0  0  0  0  0
    0.3694   14.6144   -5.9538 C   0  0  0  0  0  0  0  0  0  0  0  0
   -3.6497   15.1720  -11.6865 O   0  0  0  0  0  0  0  0  0  0  0  0
   -4.3650   13.6745   -9.7698 O   0  0  0  0  0  0  0  0  0  0  0  0
   -6.1257   12.2782   -9.8355 H   0  0  0  0  0  0  0  0  0  0  0  0
   -8.1227   10.1152  -13.9085 H   0  0  0  0  0  0  0  0  0  0  0  0
   -6.8205   12.2414  -14.0656 H   0  0  0  0  0  0  0  0  0  0  0  0
   -8.5708   10.3015   -9.3774 H   0  0  0  0  0  0  0  0  0  0  0  0
   -7.8128    7.8844   -9.7898 H   0  0  0  0  0  0  0  0  0  0  0  0
   -8.0330    9.5733   -7.2490 H   0  0  0  0  0  0  0  0  0  0  0  0
   -1.9543   12.6728  -11.2554 H   0  0  0  0  0  0  0  0  0  0  0  0
   -3.3298   11.5493  -11.5240 H   0  0  0  0  0  0  0  0  0  0  0  0
   -2.7704   12.6186  -12.8546 H   0  0  0  0  0  0  0  0  0  0  0  0
   -4.8884    8.7854   -8.4885 H   0  0  0  0  0  0  0  0  0  0  0  0
   -2.6658    9.7683   -8.0414 H   0  0  0  0  0  0  0  0  0  0  0  0
   -4.5366   13.2900   -6.4643 H   0  0  0  0  0  0  0  0  0  0  0  0
   -6.3910   12.4480   -7.8348 H   0  0  0  0  0  0  0  0  0  0  0  0
   -6.3948   11.7100   -6.1971 H   0  0  0  0  0  0  0  0  0  0  0  0
   -2.4642   14.2207   -6.1771 H   0  0  0  0  0  0  0  0  0  0  0  0
   -0.6430   10.6154   -7.5924 H   0  0  0  0  0  0  0  0  0  0  0  0
    1.4345   14.3489   -6.0254 H   0  0  0  0  0  0  0  0  0  0  0  0
    0.1671   15.4918   -6.5857 H   0  0  0  0  0  0  0  0  0  0  0  0
    0.1198   14.8498   -4.9087 H   0  0  0  0  0  0  0  0  0  0  0  0
  1  2  1  0  0  0  0
  1  4  1  0  0  0  0
  1 13  2  3  0  0  0
  2  6  2  0  0  0  0
  3  4  2  0  0  0  0
  3  5  1  0  0  0  0
  5  6  1  0  0  0  0
  5  9  2  0  0  0  0
  6  7  1  0  0  0  0
  7  8  1  0  0  0  0
  7 10  1  0  0  0  0
  8  9  1  0  0  0  0
 10 14  2  3  0  0  0
 11 12  1  0  0  0  0
 11 13  1  0  0  0  0
 11 26  2  0  0  0  0
 11 27  2  0  0  0  0
 14 15  1  0  0  0  0
 14 19  1  0  0  0  0
 15 16  2  0  0  0  0
 16 17  1  0  0  0  0
 17 18  2  0  0  0  0
 17 20  1  0  0  0  0
 18 19  1  0  0  0  0
 20 21  2  0  0  0  0
 20 24  1  0  0  0  0
 21 22  1  0  0  0  0
 22 23  1  0  0  0  0
 22 25  1  0  0  0  0
 23 24  2  0  0  0  0
  2 28  1  0  0  0  0
  3 29  1  0  0  0  0
  4 30  1  0  0  0  0
  7 31  1  0  0  0  0
  8 32  1  0  0  0  0
 10 33  1  0  0  0  0
 12 34  1  0  0  0  0
 12 35  1  0  0  0  0
 12 36  1  0  0  0  0
 15 37  1  0  0  0  0
 16 38  1  0  0  0  0
 18 39  1  0  0  0  0
 19 40  1  0  0  0  0
 19 41  1  0  0  0  0
 21 42  1  0  0  0  0
 24 43  1  0  0  0  0
 25 44  1  0  0  0  0
 25 45  1  0  0  0  0
 25 46  1  0  0  0  0
M  END
> <Name>
25

> <IC50[uM]>
0.073

$$$$
25
  -OEChem-05192314333D
 Structure written by MMmdl.
 46 49  0     1  0  0  0  0  0999 V2000
   -6.3861   12.3623  -11.9697 C   0  0  0  0  0  0  0  0  0  0  0  0
   -6.5480   11.8020  -10.7080 C   0  0  0  0  0  0  0  0  0  0  0  0
   -7.6869   10.5726  -13.0325 C   0  0  0  0  0  0  0  0  0  0  0  0
   -6.9529   11.7665  -13.1047 C   0  0  0  0  0  0  0  0  0  0  0  0
   -7.8210   10.0086  -11.7556 C   0  0  3  0  0  0  0  0  0  0  0  0
   -7.2636   10.6177  -10.5919 C   0  0  0  0  0  0  0  0  0  0  0  0
   -7.6330    9.7421   -9.5104 C   0  0  0  0  0  0  0  0  0  0  0  0
   -8.3023    8.7332   -9.9897 N   0  0  0  0  0  0  0  0  0  0  0  0
   -8.4342    8.8678  -11.3051 N   0  0  0  0  0  0  0  0  0  0  0  0
   -7.3415    9.8758   -8.0215 C   0  0  0  0  0  0  0  0  0  0  0  0
   -4.1211   13.8754  -11.2000 S   0  0  0  0  0  0  0  0  0  0  0  0
   -2.9188   12.5402  -11.7675 C   0  0  0  0  0  0  0  0  0  0  0  0
   -5.6382   13.5428  -12.1051 N   0  0  0  0  0  0  0  0  0  0  0  0
   -5.9683   10.4827   -7.7344 C   0  0  0  0  0  0  0  0  0  0  0  0
   -4.8123    9.7690   -8.0490 C   0  0  0  0  0  0  0  0  0  0  0  0
   -3.5592   10.3237   -7.7969 C   0  0  0  0  0  0  0  0  0  0  0  0
   -3.4543   11.5962   -7.2288 C   0  0  0  0  0  0  0  0  0  0  0  0
   -4.6126   12.3085   -6.9084 C   0  0  0  0  0  0  0  0  0  0  0  0
   -5.8671   11.7538   -7.1613 C   0  0  0  0  0  0  0  0  0  0  0  0
   -2.1058   12.1871   -6.9644 C   0  0  0  0  0  0  0  0  0  0  0  0
   -1.7745   13.4406   -6.4637 C   0  0  0  0  0  0  0  0  0  0  0  0
   -0.4394   13.4976   -6.4041 N   0  0  0  0  0  0  0  0  0  0  0  0
    0.1691   12.4146   -6.8015 N   0  0  0  0  0  0  0  0  0  0  0  0
   -0.8034   11.5995   -7.1773 C   0  0  0  0  0  0  0  0  0  0  0  0
    0.3694   14.6144   -5.9538 C   0  0  0  0  0  0  0  0  0  0  0  0
   -3.6497   15.1720  -11.6865 O   0  0  0  0  0  0  0  0  0  0  0  0
   -4.3650   13.6745   -9.7698 O   0  0  0  0  0  0  0  0  0  0  0  0
   -6.1257   12.2782   -9.8355 H   0  0  0  0  0  0  0  0  0  0  0  0
   -8.1227   10.1152  -13.9085 H   0  0  0  0  0  0  0  0  0  0  0  0
   -6.8205   12.2414  -14.0656 H   0  0  0  0  0  0  0  0  0  0  0  0
   -8.7541   10.5711  -11.6042 H   0  0  0  0  0  0  0  0  0  0  0  0
   -9.4072    8.9103  -11.5318 H   0  0  0  0  0  0  0  0  0  0  0  0
   -8.0330    9.5733   -7.2490 H   0  0  0  0  0  0  0  0  0  0  0  0
   -1.9543   12.6728  -11.2554 H   0  0  0  0  0  0  0  0  0  0  0  0
   -3.3298   11.5493  -11.5240 H   0  0  0  0  0  0  0  0  0  0  0  0
   -2.7704   12.6186  -12.8546 H   0  0  0  0  0  0  0  0  0  0  0  0
   -4.8884    8.7854   -8.4885 H   0  0  0  0  0  0  0  0  0  0  0  0
   -2.6658    9.7683   -8.0414 H   0  0  0  0  0  0  0  0  0  0  0  0
   -4.5366   13.2900   -6.4643 H   0  0  0  0  0  0  0  0  0  0  0  0
   -6.3910   12.4480   -7.8348 H   0  0  0  0  0  0  0  0  0  0  0  0
   -6.3948   11.7100   -6.1971 H   0  0  0  0  0  0  0  0  0  0  0  0
   -2.4642   14.2207   -6.1771 H   0  0  0  0  0  0  0  0  0  0  0  0
   -0.6430   10.6154   -7.5924 H   0  0  0  0  0  0  0  0  0  0  0  0
    1.4345   14.3489   -6.0254 H   0  0  0  0  0  0  0  0  0  0  0  0
    0.1671   15.4918   -6.5857 H   0  0  0  0  0  0  0  0  0  0  0  0
    0.1198   14.8498   -4.9087 H   0  0  0  0  0  0  0  0  0  0  0  0
  1  2  1  0  0  0  0
  1  4  1  0  0  0  0
  1 13  2  3  0  0  0
  2  6  2  0  0  0  0
  3  4  2  0  0  0  0
  3  5  1  0  0  0  0
  5  6  1  0  0  0  0
  5  9  1  0  0  0  0
  6  7  1  0  0  0  0
  7  8  2  0  0  0  0
  7 10  1  0  0  0  0
  8  9  1  0  0  0  0
 10 14  2  3  0  0  0
 11 12  1  0  0  0  0
 11 13  1  0  0  0  0
 11 26  2  0  0  0  0
 11 27  2  0  0  0  0
 14 15  1  0  0  0  0
 14 19  1  0  0  0  0
 15 16  2  0  0  0  0
 16 17  1  0  0  0  0
 17 18  2  0  0  0  0
 17 20  1  0  0  0  0
 18 19  1  0  0  0  0
 20 21  2  0  0  0  0
 20 24  1  0  0  0  0
 21 22  1  0  0  0  0
 22 23  1  0  0  0  0
 22 25  1  0  0  0  0
 23 24  2  0  0  0  0
  2 28  1  0  0  0  0
  3 29  1  0  0  0  0
  4 30  1  0  0  0  0
  5 31  1  0  0  0  0
  9 32  1  0  0  0  0
 10 33  1  0  0  0  0
 12 34  1  0  0  0  0
 12 35  1  0  0  0  0
 12 36  1  0  0  0  0
 15 37  1  0  0  0  0
 16 38  1  0  0  0  0
 18 39  1  0  0  0  0
 19 40  1  0  0  0  0
 19 41  1  0  0  0  0
 21 42  1  0  0  0  0
 24 43  1  0  0  0  0
 25 44  1  0  0  0  0
 25 45  1  0  0  0  0
 25 46  1  0  0  0  0
M  END
> <Name>
25

> <IC50[uM]>
0.073

$$$$
25
  -OEChem-05192314333D
 Structure written by MMmdl.
 46 49  0     0  0  0  0  0  0999 V2000
   -6.3861   12.3623  -11.9697 C   0  0  0  0  0  0  0  0  0  0  0  0
   -6.5480   11.8020  -10.7080 C   0  0  0  0  0  0  0  0  0  0  0  0
   -7.6869   10.5726  -13.0325 C   0  0  0  0  0  0  0  0  0  0  0  0
   -6.9529   11.7665  -13.1047 C   0  0  0  0  0  0  0  0  0  0  0  0
   -7.8210   10.0086  -11.7556 C   0  0  0  0  0  0  0  0  0  0  0  0
   -7.2636   10.6177  -10.5919 C   0  0  0  0  0  0  0  0  0  0  0  0
   -7.6330    9.7421   -9.5104 C   0  0  0  0  0  0  0  0  0  0  0  0
   -8.3023    8.7332   -9.9897 N   0  0  0  0  0  0  0  0  0  0  0  0
   -8.4342    8.8678  -11.3051 N   0  0  0  0  0  0  0  0  0  0  0  0
   -7.3415    9.8758   -8.0215 C   0  0  0  0  0  0  0  0  0  0  0  0
   -4.1211   13.8754  -11.2000 S   0  0  0  0  0  0  0  0  0  0  0  0
   -2.9188   12.5402  -11.7675 C   0  0  0  0  0  0  0  0  0  0  0  0
   -5.6382   13.5428  -12.1051 N   0  0  0  0  0  0  0  0  0  0  0  0
   -5.9683   10.4827   -7.7344 C   0  0  0  0  0  0  0  0  0  0  0  0
   -4.8123    9.7690   -8.0490 C   0  0  0  0  0  0  0  0  0  0  0  0
   -3.5592   10.3237   -7.7969 C   0  0  0  0  0  0  0  0  0  0  0  0
   -3.4543   11.5962   -7.2288 C   0  0  0  0  0  0  0  0  0  0  0  0
   -4.6126   12.3085   -6.9084 C   0  0  0  0  0  0  0  0  0  0  0  0
   -5.8671   11.7538   -7.1613 C   0  0  0  0  0  0  0  0  0  0  0  0
   -2.1058   12.1871   -6.9644 C   0  0  0  0  0  0  0  0  0  0  0  0
   -1.7745   13.4406   -6.4637 C   0  0  0  0  0  0  0  0  0  0  0  0
   -0.4394   13.4976   -6.4041 N   0  0  0  0  0  0  0  0  0  0  0  0
    0.1691   12.4146   -6.8015 N   0  0  0  0  0  0  0  0  0  0  0  0
   -0.8034   11.5995   -7.1773 C   0  0  0  0  0  0  0  0  0  0  0  0
    0.3694   14.6144   -5.9538 C   0  0  0  0  0  0  0  0  0  0  0  0
   -3.6497   15.1720  -11.6865 O   0  0  0  0  0  0  0  0  0  0  0  0
   -4.3650   13.6745   -9.7698 O   0  0  0  0  0  0  0  0  0  0  0  0
   -6.1257   12.2782   -9.8355 H   0  0  0  0  0  0  0  0  0  0  0  0
   -8.6969   10.7748  -13.4186 H   0  0  0  0  0  0  0  0  0  0  0  0
   -7.1895    9.8325  -13.6766 H   0  0  0  0  0  0  0  0  0  0  0  0
   -6.8205   12.2414  -14.0656 H   0  0  0  0  0  0  0  0  0  0  0  0
   -8.0330    9.5733   -7.2490 H   0  0  0  0  0  0  0  0  0  0  0  0
   -1.9543   12.6728  -11.2554 H   0  0  0  0  0  0  0  0  0  0  0  0
   -3.3298   11.5493  -11.5240 H   0  0  0  0  0  0  0  0  0  0  0  0
   -2.7704   12.6186  -12.8546 H   0  0  0  0  0  0  0  0  0  0  0  0
   -5.3954   13.6013  -13.0734 H   0  0  0  0  0  0  0  0  0  0  0  0
   -4.8884    8.7854   -8.4885 H   0  0  0  0  0  0  0  0  0  0  0  0
   -2.6658    9.7683   -8.0414 H   0  0  0  0  0  0  0  0  0  0  0  0
   -4.5366   13.2900   -6.4643 H   0  0  0  0  0  0  0  0  0  0  0  0
   -6.3910   12.4480   -7.8348 H   0  0  0  0  0  0  0  0  0  0  0  0
   -6.3948   11.7100   -6.1971 H   0  0  0  0  0  0  0  0  0  0  0  0
   -2.4642   14.2207   -6.1771 H   0  0  0  0  0  0  0  0  0  0  0  0
   -0.6430   10.6154   -7.5924 H   0  0  0  0  0  0  0  0  0  0  0  0
    1.4345   14.3489   -6.0254 H   0  0  0  0  0  0  0  0  0  0  0  0
    0.1671   15.4918   -6.5857 H   0  0  0  0  0  0  0  0  0  0  0  0
    0.1198   14.8498   -4.9087 H   0  0  0  0  0  0  0  0  0  0  0  0
  1  2  1  0  0  0  0
  1  4  2  0  0  0  0
  1 13  1  0  0  0  0
  2  6  2  0  0  0  0
  3  4  1  0  0  0  0
  3  5  1  0  0  0  0
  5  6  1  0  0  0  0
  5  9  2  0  0  0  0
  6  7  1  0  0  0  0
  7  8  2  0  0  0  0
  7 10  1  0  0  0  0
  8  9  1  0  0  0  0
 10 14  2  3  0  0  0
 11 12  1  0  0  0  0
 11 13  1  0  0  0  0
 11 26  2  0  0  0  0
 11 27  2  0  0  0  0
 14 15  1  0  0  0  0
 14 19  1  0  0  0  0
 15 16  2  0  0  0  0
 16 17  1  0  0  0  0
 17 18  2  0  0  0  0
 17 20  1  0  0  0  0
 18 19  1  0  0  0  0
 20 21  2  0  0  0  0
 20 24  1  0  0  0  0
 21 22  1  0  0  0  0
 22 23  1  0  0  0  0
 22 25  1  0  0  0  0
 23 24  2  0  0  0  0
  2 28  1  0  0  0  0
  3 29  1  0  0  0  0
  3 30  1  0  0  0  0
  4 31  1  0  0  0  0
 10 32  1  0  0  0  0
 12 33  1  0  0  0  0
 12 34  1  0  0  0  0
 12 35  1  0  0  0  0
 13 36  1  0  0  0  0
 15 37  1  0  0  0  0
 16 38  1  0  0  0  0
 18 39  1  0  0  0  0
 19 40  1  0  0  0  0
 19 41  1  0  0  0  0
 21 42  1  0  0  0  0
 24 43  1  0  0  0  0
 25 44  1  0  0  0  0
 25 45  1  0  0  0  0
 25 46  1  0  0  0  0
M  END
> <Name>
25

> <IC50[uM]>
0.073

$$$$
25
  -OEChem-05192314333D
 Structure written by MMmdl.
 46 49  0     1  0  0  0  0  0999 V2000
   -6.3861   12.3623  -11.9697 C   0  0  0  0  0  0  0  0  0  0  0  0
   -6.5480   11.8020  -10.7080 C   0  0  0  0  0  0  0  0  0  0  0  0
   -7.6869   10.5726  -13.0325 C   0  0  0  0  0  0  0  0  0  0  0  0
   -6.9529   11.7665  -13.1047 C   0  0  0  0  0  0  0  0  0  0  0  0
   -7.8210   10.0086  -11.7556 C   0  0  3  0  0  0  0  0  0  0  0  0
   -7.2636   10.6177  -10.5919 C   0  0  0  0  0  0  0  0  0  0  0  0
   -7.6330    9.7421   -9.5104 C   0  0  0  0  0  0  0  0  0  0  0  0
   -8.3023    8.7332   -9.9897 N   0  0  0  0  0  0  0  0  0  0  0  0
   -8.4342    8.8678  -11.3051 N   0  0  0  0  0  0  0  0  0  0  0  0
   -7.3415    9.8758   -8.0215 C   0  0  0  0  0  0  0  0  0  0  0  0
   -4.1211   13.8754  -11.2000 S   0  0  0  0  0  0  0  0  0  0  0  0
   -2.9188   12.5402  -11.7675 C   0  0  0  0  0  0  0  0  0  0  0  0
   -5.6382   13.5428  -12.1051 N   0  0  0  0  0  0  0  0  0  0  0  0
   -5.9683   10.4827   -7.7344 C   0  0  0  0  0  0  0  0  0  0  0  0
   -4.8123    9.7690   -8.0490 C   0  0  0  0  0  0  0  0  0  0  0  0
   -3.5592   10.3237   -7.7969 C   0  0  0  0  0  0  0  0  0  0  0  0
   -3.4543   11.5962   -7.2288 C   0  0  0  0  0  0  0  0  0  0  0  0
   -4.6126   12.3085   -6.9084 C   0  0  0  0  0  0  0  0  0  0  0  0
   -5.8671   11.7538   -7.1613 C   0  0  0  0  0  0  0  0  0  0  0  0
   -2.1058   12.1871   -6.9644 C   0  0  0  0  0  0  0  0  0  0  0  0
   -1.7745   13.4406   -6.4637 C   0  0  0  0  0  0  0  0  0  0  0  0
   -0.4394   13.4976   -6.4041 N   0  0  0  0  0  0  0  0  0  0  0  0
    0.1691   12.4146   -6.8015 N   0  0  0  0  0  0  0  0  0  0  0  0
   -0.8034   11.5995   -7.1773 C   0  0  0  0  0  0  0  0  0  0  0  0
    0.3694   14.6144   -5.9538 C   0  0  0  0  0  0  0  0  0  0  0  0
   -3.6497   15.1720  -11.6865 O   0  0  0  0  0  0  0  0  0  0  0  0
   -4.3650   13.6745   -9.7698 O   0  0  0  0  0  0  0  0  0  0  0  0
   -6.1257   12.2782   -9.8355 H   0  0  0  0  0  0  0  0  0  0  0  0
   -8.1227   10.1152  -13.9085 H   0  0  0  0  0  0  0  0  0  0  0  0
   -6.8205   12.2414  -14.0656 H   0  0  0  0  0  0  0  0  0  0  0  0
   -8.7541   10.5711  -11.6042 H   0  0  0  0  0  0  0  0  0  0  0  0
   -8.0330    9.5733   -7.2490 H   0  0  0  0  0  0  0  0  0  0  0  0
   -1.9543   12.6728  -11.2554 H   0  0  0  0  0  0  0  0  0  0  0  0
   -3.3298   11.5493  -11.5240 H   0  0  0  0  0  0  0  0  0  0  0  0
   -2.7704   12.6186  -12.8546 H   0  0  0  0  0  0  0  0  0  0  0  0
   -5.3954   13.6013  -13.0734 H   0  0  0  0  0  0  0  0  0  0  0  0
   -4.8884    8.7854   -8.4885 H   0  0  0  0  0  0  0  0  0  0  0  0
   -2.6658    9.7683   -8.0414 H   0  0  0  0  0  0  0  0  0  0  0  0
   -3.4550   12.0453   -8.2329 H   0  0  0  0  0  0  0  0  0  0  0  0
   -4.5366   13.2900   -6.4643 H   0  0  0  0  0  0  0  0  0  0  0  0
   -6.7612   12.3068   -6.9141 H   0  0  0  0  0  0  0  0  0  0  0  0
   -2.4642   14.2207   -6.1771 H   0  0  0  0  0  0  0  0  0  0  0  0
   -0.6430   10.6154   -7.5924 H   0  0  0  0  0  0  0  0  0  0  0  0
    1.4345   14.3489   -6.0254 H   0  0  0  0  0  0  0  0  0  0  0  0
    0.1671   15.4918   -6.5857 H   0  0  0  0  0  0  0  0  0  0  0  0
    0.1198   14.8498   -4.9087 H   0  0  0  0  0  0  0  0  0  0  0  0
  1  2  2  0  0  0  0
  1  4  1  0  0  0  0
  1 13  1  0  0  0  0
  2  6  1  0  0  0  0
  3  4  2  0  0  0  0
  3  5  1  0  0  0  0
  5  6  1  0  0  0  0
  5  9  1  0  0  0  0
  6  7  2  0  0  0  0
  7  8  1  0  0  0  0
  7 10  1  0  0  0  0
  8  9  2  0  0  0  0
 10 14  2  0  0  0  0
 11 12  1  0  0  0  0
 11 13  1  0  0  0  0
 11 26  2  0  0  0  0
 11 27  2  0  0  0  0
 14 15  1  0  0  0  0
 14 19  1  0  0  0  0
 15 16  2  0  0  0  0
 16 17  1  0  0  0  0
 17 18  1  0  0  0  0
 17 20  1  0  0  0  0
 18 19  2  0  0  0  0
 20 21  2  0  0  0  0
 20 24  1  0  0  0  0
 21 22  1  0  0  0  0
 22 23  1  0  0  0  0
 22 25  1  0  0  0  0
 23 24  2  0  0  0  0
  2 28  1  0  0  0  0
  3 29  1  0  0  0  0
  4 30  1  0  0  0  0
  5 31  1  0  0  0  0
 10 32  1  0  0  0  0
 12 33  1  0  0  0  0
 12 34  1  0  0  0  0
 12 35  1  0  0  0  0
 13 36  1  0  0  0  0
 15 37  1  0  0  0  0
 16 38  1  0  0  0  0
 17 39  1  0  0  0  0
 18 40  1  0  0  0  0
 19 41  1  0  0  0  0
 21 42  1  0  0  0  0
 24 43  1  0  0  0  0
 25 44  1  0  0  0  0
 25 45  1  0  0  0  0
 25 46  1  0  0  0  0
M  END
> <Name>
25

> <IC50[uM]>
0.073

$$$$
25
  -OEChem-05192314333D
 Structure written by MMmdl.
 46 49  0     0  0  0  0  0  0999 V2000
   -6.3861   12.3623  -11.9697 C   0  0  0  0  0  0  0  0  0  0  0  0
   -6.5480   11.8020  -10.7080 C   0  0  0  0  0  0  0  0  0  0  0  0
   -7.6869   10.5726  -13.0325 C   0  0  0  0  0  0  0  0  0  0  0  0
   -6.9529   11.7665  -13.1047 C   0  0  0  0  0  0  0  0  0  0  0  0
   -7.8210   10.0086  -11.7556 C   0  0  0  0  0  0  0  0  0  0  0  0
   -7.2636   10.6177  -10.5919 C   0  0  0  0  0  0  0  0  0  0  0  0
   -7.6330    9.7421   -9.5104 C   0  0  0  0  0  0  0  0  0  0  0  0
   -8.3023    8.7332   -9.9897 N   0  0  0  0  0  0  0  0  0  0  0  0
   -8.4342    8.8678  -11.3051 N   0  0  0  0  0  0  0  0  0  0  0  0
   -7.3415    9.8758   -8.0215 C   0  0  0  0  0  0  0  0  0  0  0  0
   -4.1211   13.8754  -11.2000 S   0  0  0  0  0  0  0  0  0  0  0  0
   -2.9188   12.5402  -11.7675 C   0  0  0  0  0  0  0  0  0  0  0  0
   -5.6382   13.5428  -12.1051 N   0  0  0  0  0  0  0  0  0  0  0  0
   -5.9683   10.4827   -7.7344 C   0  0  0  0  0  0  0  0  0  0  0  0
   -4.8123    9.7690   -8.0490 C   0  0  0  0  0  0  0  0  0  0  0  0
   -3.5592   10.3237   -7.7969 C   0  0  0  0  0  0  0  0  0  0  0  0
   -3.4543   11.5962   -7.2288 C   0  0  0  0  0  0  0  0  0  0  0  0
   -4.6126   12.3085   -6.9084 C   0  0  0  0  0  0  0  0  0  0  0  0
   -5.8671   11.7538   -7.1613 C   0  0  0  0  0  0  0  0  0  0  0  0
   -2.1058   12.1871   -6.9644 C   0  0  0  0  0  0  0  0  0  0  0  0
   -1.7745   13.4406   -6.4637 C   0  0  0  0  0  0  0  0  0  0  0  0
   -0.4394   13.4976   -6.4041 N   0  0  0  0  0  0  0  0  0  0  0  0
    0.1691   12.4146   -6.8015 N   0  0  0  0  0  0  0  0  0  0  0  0
   -0.8034   11.5995   -7.1773 C   0  0  0  0  0  0  0  0  0  0  0  0
    0.3694   14.6144   -5.9538 C   0  0  0  0  0  0  0  0  0  0  0  0
   -3.6497   15.1720  -11.6865 O   0  0  0  0  0  0  0  0  0  0  0  0
   -4.3650   13.6745   -9.7698 O   0  0  0  0  0  0  0  0  0  0  0  0
   -6.1257   12.2782   -9.8355 H   0  0  0  0  0  0  0  0  0  0  0  0
   -8.1227   10.1152  -13.9085 H   0  0  0  0  0  0  0  0  0  0  0  0
   -7.6287   12.5169  -13.5407 H   0  0  0  0  0  0  0  0  0  0  0  0
   -6.1214   11.5746  -13.7988 H   0  0  0  0  0  0  0  0  0  0  0  0
   -8.0330    9.5733   -7.2490 H   0  0  0  0  0  0  0  0  0  0  0  0
   -1.9543   12.6728  -11.2554 H   0  0  0  0  0  0  0  0  0  0  0  0
   -3.3298   11.5493  -11.5240 H   0  0  0  0  0  0  0  0  0  0  0  0
   -2.7704   12.6186  -12.8546 H   0  0  0  0  0  0  0  0  0  0  0  0
   -5.3954   13.6013  -13.0734 H   0  0  0  0  0  0  0  0  0  0  0  0
   -4.8884    8.7854   -8.4885 H   0  0  0  0  0  0  0  0  0  0  0  0
   -2.6658    9.7683   -8.0414 H   0  0  0  0  0  0  0  0  0  0  0  0
   -3.4550   12.0453   -8.2329 H   0  0  0  0  0  0  0  0  0  0  0  0
   -4.5366   13.2900   -6.4643 H   0  0  0  0  0  0  0  0  0  0  0  0
   -6.7612   12.3068   -6.9141 H   0  0  0  0  0  0  0  0  0  0  0  0
   -2.4642   14.2207   -6.1771 H   0  0  0  0  0  0  0  0  0  0  0  0
   -0.6430   10.6154   -7.5924 H   0  0  0  0  0  0  0  0  0  0  0  0
    1.4345   14.3489   -6.0254 H   0  0  0  0  0  0  0  0  0  0  0  0
    0.1671   15.4918   -6.5857 H   0  0  0  0  0  0  0  0  0  0  0  0
    0.1198   14.8498   -4.9087 H   0  0  0  0  0  0  0  0  0  0  0  0
  1  2  2  0  0  0  0
  1  4  1  0  0  0  0
  1 13  1  0  0  0  0
  2  6  1  0  0  0  0
  3  4  1  0  0  0  0
  3  5  2  0  0  0  0
  5  6  1  0  0  0  0
  5  9  1  0  0  0  0
  6  7  2  0  0  0  0
  7  8  1  0  0  0  0
  7 10  1  0  0  0  0
  8  9  2  0  0  0  0
 10 14  2  0  0  0  0
 11 12  1  0  0  0  0
 11 13  1  0  0  0  0
 11 26  2  0  0  0  0
 11 27  2  0  0  0  0
 14 15  1  0  0  0  0
 14 19  1  0  0  0  0
 15 16  2  0  0  0  0
 16 17  1  0  0  0  0
 17 18  1  0  0  0  0
 17 20  1  0  0  0  0
 18 19  2  0  0  0  0
 20 21  2  0  0  0  0
 20 24  1  0  0  0  0
 21 22  1  0  0  0  0
 22 23  1  0  0  0  0
 22 25  1  0  0  0  0
 23 24  2  0  0  0  0
  2 28  1  0  0  0  0
  3 29  1  0  0  0  0
  4 30  1  0  0  0  0
  4 31  1  0  0  0  0
 10 32  1  0  0  0  0
 12 33  1  0  0  0  0
 12 34  1  0  0  0  0
 12 35  1  0  0  0  0
 13 36  1  0  0  0  0
 15 37  1  0  0  0  0
 16 38  1  0  0  0  0
 17 39  1  0  0  0  0
 18 40  1  0  0  0  0
 19 41  1  0  0  0  0
 21 42  1  0  0  0  0
 24 43  1  0  0  0  0
 25 44  1  0  0  0  0
 25 45  1  0  0  0  0
 25 46  1  0  0  0  0
M  END
> <Name>
25

> <IC50[uM]>
0.073

$$$$
25
  -OEChem-05192314333D
 Structure written by MMmdl.
 46 49  0     1  0  0  0  0  0999 V2000
   -6.3861   12.3623  -11.9697 C   0  0  0  0  0  0  0  0  0  0  0  0
   -6.5480   11.8020  -10.7080 C   0  0  0  0  0  0  0  0  0  0  0  0
   -7.6869   10.5726  -13.0325 C   0  0  0  0  0  0  0  0  0  0  0  0
   -6.9529   11.7665  -13.1047 C   0  0  0  0  0  0  0  0  0  0  0  0
   -7.8210   10.0086  -11.7556 C   0  0  3  0  0  0  0  0  0  0  0  0
   -7.2636   10.6177  -10.5919 C   0  0  0  0  0  0  0  0  0  0  0  0
   -7.6330    9.7421   -9.5104 C   0  0  0  0  0  0  0  0  0  0  0  0
   -8.3023    8.7332   -9.9897 N   0  0  0  0  0  0  0  0  0  0  0  0
   -8.4342    8.8678  -11.3051 N   0  0  0  0  0  0  0  0  0  0  0  0
   -7.3415    9.8758   -8.0215 C   0  0  0  0  0  0  0  0  0  0  0  0
   -4.1211   13.8754  -11.2000 S   0  0  0  0  0  0  0  0  0  0  0  0
   -2.9188   12.5402  -11.7675 C   0  0  0  0  0  0  0  0  0  0  0  0
   -5.6382   13.5428  -12.1051 N   0  0  0  0  0  0  0  0  0  0  0  0
   -5.9683   10.4827   -7.7344 C   0  0  0  0  0  0  0  0  0  0  0  0
   -4.8123    9.7690   -8.0490 C   0  0  0  0  0  0  0  0  0  0  0  0
   -3.5592   10.3237   -7.7969 C   0  0  0  0  0  0  0  0  0  0  0  0
   -3.4543   11.5962   -7.2288 C   0  0  0  0  0  0  0  0  0  0  0  0
   -4.6126   12.3085   -6.9084 C   0  0  0  0  0  0  0  0  0  0  0  0
   -5.8671   11.7538   -7.1613 C   0  0  0  0  0  0  0  0  0  0  0  0
   -2.1058   12.1871   -6.9644 C   0  0  0  0  0  0  0  0  0  0  0  0
   -1.7745   13.4406   -6.4637 C   0  0  0  0  0  0  0  0  0  0  0  0
   -0.4394   13.4976   -6.4041 N   0  0  0  0  0  0  0  0  0  0  0  0
    0.1691   12.4146   -6.8015 N   0  0  0  0  0  0  0  0  0  0  0  0
   -0.8034   11.5995   -7.1773 C   0  0  0  0  0  0  0  0  0  0  0  0
    0.3694   14.6144   -5.9538 C   0  0  0  0  0  0  0  0  0  0  0  0
   -3.6497   15.1720  -11.6865 O   0  0  0  0  0  0  0  0  0  0  0  0
   -4.3650   13.6745   -9.7698 O   0  0  0  0  0  0  0  0  0  0  0  0
   -6.1257   12.2782   -9.8355 H   0  0  0  0  0  0  0  0  0  0  0  0
   -8.1227   10.1152  -13.9085 H   0  0  0  0  0  0  0  0  0  0  0  0
   -6.8205   12.2414  -14.0656 H   0  0  0  0  0  0  0  0  0  0  0  0
   -8.7541   10.5711  -11.6042 H   0  0  0  0  0  0  0  0  0  0  0  0
   -8.0330    9.5733   -7.2490 H   0  0  0  0  0  0  0  0  0  0  0  0
   -1.9543   12.6728  -11.2554 H   0  0  0  0  0  0  0  0  0  0  0  0
   -3.3298   11.5493  -11.5240 H   0  0  0  0  0  0  0  0  0  0  0  0
   -2.7704   12.6186  -12.8546 H   0  0  0  0  0  0  0  0  0  0  0  0
   -5.3954   13.6013  -13.0734 H   0  0  0  0  0  0  0  0  0  0  0  0
   -4.8884    8.7854   -8.4885 H   0  0  0  0  0  0  0  0  0  0  0  0
   -2.6658    9.7683   -8.0414 H   0  0  0  0  0  0  0  0  0  0  0  0
   -4.5366   13.2900   -6.4643 H   0  0  0  0  0  0  0  0  0  0  0  0
   -6.3910   12.4480   -7.8348 H   0  0  0  0  0  0  0  0  0  0  0  0
   -6.3948   11.7100   -6.1971 H   0  0  0  0  0  0  0  0  0  0  0  0
   -2.4642   14.2207   -6.1771 H   0  0  0  0  0  0  0  0  0  0  0  0
   -0.6430   10.6154   -7.5924 H   0  0  0  0  0  0  0  0  0  0  0  0
    1.4345   14.3489   -6.0254 H   0  0  0  0  0  0  0  0  0  0  0  0
    0.1671   15.4918   -6.5857 H   0  0  0  0  0  0  0  0  0  0  0  0
    0.1198   14.8498   -4.9087 H   0  0  0  0  0  0  0  0  0  0  0  0
  1  2  2  0  0  0  0
  1  4  1  0  0  0  0
  1 13  1  0  0  0  0
  2  6  1  0  0  0  0
  3  4  2  0  0  0  0
  3  5  1  0  0  0  0
  5  6  1  0  0  0  0
  5  9  1  0  0  0  0
  6  7  2  0  0  0  0
  7  8  1  0  0  0  0
  7 10  1  0  0  0  0
  8  9  2  0  0  0  0
 10 14  2  3  0  0  0
 11 12  1  0  0  0  0
 11 13  1  0  0  0  0
 11 26  2  0  0  0  0
 11 27  2  0  0  0  0
 14 15  1  0  0  0  0
 14 19  1  0  0  0  0
 15 16  2  0  0  0  0
 16 17  1  0  0  0  0
 17 18  2  0  0  0  0
 17 20  1  0  0  0  0
 18 19  1  0  0  0  0
 20 21  2  0  0  0  0
 20 24  1  0  0  0  0
 21 22  1  0  0  0  0
 22 23  1  0  0  0  0
 22 25  1  0  0  0  0
 23 24  2  0  0  0  0
  2 28  1  0  0  0  0
  3 29  1  0  0  0  0
  4 30  1  0  0  0  0
  5 31  1  0  0  0  0
 10 32  1  0  0  0  0
 12 33  1  0  0  0  0
 12 34  1  0  0  0  0
 12 35  1  0  0  0  0
 13 36  1  0  0  0  0
 15 37  1  0  0  0  0
 16 38  1  0  0  0  0
 18 39  1  0  0  0  0
 19 40  1  0  0  0  0
 19 41  1  0  0  0  0
 21 42  1  0  0  0  0
 24 43  1  0  0  0  0
 25 44  1  0  0  0  0
 25 45  1  0  0  0  0
 25 46  1  0  0  0  0
M  END
> <Name>
25

> <IC50[uM]>
0.073

$$$$
25
  -OEChem-05192314333D
 Structure written by MMmdl.
 46 49  0     0  0  0  0  0  0999 V2000
   -6.3861   12.3623  -11.9697 C   0  0  0  0  0  0  0  0  0  0  0  0
   -6.5480   11.8020  -10.7080 C   0  0  0  0  0  0  0  0  0  0  0  0
   -7.6869   10.5726  -13.0325 C   0  0  0  0  0  0  0  0  0  0  0  0
   -6.9529   11.7665  -13.1047 C   0  0  0  0  0  0  0  0  0  0  0  0
   -7.8210   10.0086  -11.7556 C   0  0  0  0  0  0  0  0  0  0  0  0
   -7.2636   10.6177  -10.5919 C   0  0  0  0  0  0  0  0  0  0  0  0
   -7.6330    9.7421   -9.5104 C   0  0  0  0  0  0  0  0  0  0  0  0
   -8.3023    8.7332   -9.9897 N   0  0  0  0  0  0  0  0  0  0  0  0
   -8.4342    8.8678  -11.3051 N   0  0  0  0  0  0  0  0  0  0  0  0
   -7.3415    9.8758   -8.0215 C   0  0  0  0  0  0  0  0  0  0  0  0
   -4.1211   13.8754  -11.2000 S   0  0  0  0  0  0  0  0  0  0  0  0
   -2.9188   12.5402  -11.7675 C   0  0  0  0  0  0  0  0  0  0  0  0
   -5.6382   13.5428  -12.1051 N   0  0  0  0  0  0  0  0  0  0  0  0
   -5.9683   10.4827   -7.7344 C   0  0  0  0  0  0  0  0  0  0  0  0
   -4.8123    9.7690   -8.0490 C   0  0  0  0  0  0  0  0  0  0  0  0
   -3.5592   10.3237   -7.7969 C   0  0  0  0  0  0  0  0  0  0  0  0
   -3.4543   11.5962   -7.2288 C   0  0  0  0  0  0  0  0  0  0  0  0
   -4.6126   12.3085   -6.9084 C   0  0  0  0  0  0  0  0  0  0  0  0
   -5.8671   11.7538   -7.1613 C   0  0  0  0  0  0  0  0  0  0  0  0
   -2.1058   12.1871   -6.9644 C   0  0  0  0  0  0  0  0  0  0  0  0
   -1.7745   13.4406   -6.4637 C   0  0  0  0  0  0  0  0  0  0  0  0
   -0.4394   13.4976   -6.4041 N   0  0  0  0  0  0  0  0  0  0  0  0
    0.1691   12.4146   -6.8015 N   0  0  0  0  0  0  0  0  0  0  0  0
   -0.8034   11.5995   -7.1773 C   0  0  0  0  0  0  0  0  0  0  0  0
    0.3694   14.6144   -5.9538 C   0  0  0  0  0  0  0  0  0  0  0  0
   -3.6497   15.1720  -11.6865 O   0  0  0  0  0  0  0  0  0  0  0  0
   -4.3650   13.6745   -9.7698 O   0  0  0  0  0  0  0  0  0  0  0  0
   -6.1257   12.2782   -9.8355 H   0  0  0  0  0  0  0  0  0  0  0  0
   -8.1227   10.1152  -13.9085 H   0  0  0  0  0  0  0  0  0  0  0  0
   -7.6287   12.5169  -13.5407 H   0  0  0  0  0  0  0  0  0  0  0  0
   -6.1214   11.5746  -13.7988 H   0  0  0  0  0  0  0  0  0  0  0  0
   -8.0330    9.5733   -7.2490 H   0  0  0  0  0  0  0  0  0  0  0  0
   -1.9543   12.6728  -11.2554 H   0  0  0  0  0  0  0  0  0  0  0  0
   -3.3298   11.5493  -11.5240 H   0  0  0  0  0  0  0  0  0  0  0  0
   -2.7704   12.6186  -12.8546 H   0  0  0  0  0  0  0  0  0  0  0  0
   -5.3954   13.6013  -13.0734 H   0  0  0  0  0  0  0  0  0  0  0  0
   -4.8884    8.7854   -8.4885 H   0  0  0  0  0  0  0  0  0  0  0  0
   -2.6658    9.7683   -8.0414 H   0  0  0  0  0  0  0  0  0  0  0  0
   -4.5366   13.2900   -6.4643 H   0  0  0  0  0  0  0  0  0  0  0  0
   -6.3910   12.4480   -7.8348 H   0  0  0  0  0  0  0  0  0  0  0  0
   -6.3948   11.7100   -6.1971 H   0  0  0  0  0  0  0  0  0  0  0  0
   -2.4642   14.2207   -6.1771 H   0  0  0  0  0  0  0  0  0  0  0  0
   -0.6430   10.6154   -7.5924 H   0  0  0  0  0  0  0  0  0  0  0  0
    1.4345   14.3489   -6.0254 H   0  0  0  0  0  0  0  0  0  0  0  0
    0.1671   15.4918   -6.5857 H   0  0  0  0  0  0  0  0  0  0  0  0
    0.1198   14.8498   -4.9087 H   0  0  0  0  0  0  0  0  0  0  0  0
  1  2  2  0  0  0  0
  1  4  1  0  0  0  0
  1 13  1  0  0  0  0
  2  6  1  0  0  0  0
  3  4  1  0  0  0  0
  3  5  2  0  0  0  0
  5  6  1  0  0  0  0
  5  9  1  0  0  0  0
  6  7  2  0  0  0  0
  7  8  1  0  0  0  0
  7 10  1  0  0  0  0
  8  9  2  0  0  0  0
 10 14  2  3  0  0  0
 11 12  1  0  0  0  0
 11 13  1  0  0  0  0
 11 26  2  0  0  0  0
 11 27  2  0  0  0  0
 14 15  1  0  0  0  0
 14 19  1  0  0  0  0
 15 16  2  0  0  0  0
 16 17  1  0  0  0  0
 17 18  2  0  0  0  0
 17 20  1  0  0  0  0
 18 19  1  0  0  0  0
 20 21  2  0  0  0  0
 20 24  1  0  0  0  0
 21 22  1  0  0  0  0
 22 23  1  0  0  0  0
 22 25  1  0  0  0  0
 23 24  2  0  0  0  0
  2 28  1  0  0  0  0
  3 29  1  0  0  0  0
  4 30  1  0  0  0  0
  4 31  1  0  0  0  0
 10 32  1  0  0  0  0
 12 33  1  0  0  0  0
 12 34  1  0  0  0  0
 12 35  1  0  0  0  0
 13 36  1  0  0  0  0
 15 37  1  0  0  0  0
 16 38  1  0  0  0  0
 18 39  1  0  0  0  0
 19 40  1  0  0  0  0
 19 41  1  0  0  0  0
 21 42  1  0  0  0  0
 24 43  1  0  0  0  0
 25 44  1  0  0  0  0
 25 45  1  0  0  0  0
 25 46  1  0  0  0  0
M  END
> <Name>
25

> <IC50[uM]>
0.073

$$$$
25
  -OEChem-05192314333D
 Structure written by MMmdl.
 46 49  0     0  0  0  0  0  0999 V2000
   -6.3861   12.3623  -11.9697 C   0  0  0  0  0  0  0  0  0  0  0  0
   -6.5480   11.8020  -10.7080 C   0  0  0  0  0  0  0  0  0  0  0  0
   -7.6869   10.5726  -13.0325 C   0  0  0  0  0  0  0  0  0  0  0  0
   -6.9529   11.7665  -13.1047 C   0  0  0  0  0  0  0  0  0  0  0  0
   -7.8210   10.0086  -11.7556 C   0  0  0  0  0  0  0  0  0  0  0  0
   -7.2636   10.6177  -10.5919 C   0  0  0  0  0  0  0  0  0  0  0  0
   -7.6330    9.7421   -9.5104 C   0  0  0  0  0  0  0  0  0  0  0  0
   -8.3023    8.7332   -9.9897 N   0  0  0  0  0  0  0  0  0  0  0  0
   -8.4342    8.8678  -11.3051 N   0  0  0  0  0  0  0  0  0  0  0  0
   -7.3415    9.8758   -8.0215 C   0  0  0  0  0  0  0  0  0  0  0  0
   -4.1211   13.8754  -11.2000 S   0  0  0  0  0  0  0  0  0  0  0  0
   -2.9188   12.5402  -11.7675 C   0  0  0  0  0  0  0  0  0  0  0  0
   -5.6382   13.5428  -12.1051 N   0  0  0  0  0  0  0  0  0  0  0  0
   -5.9683   10.4827   -7.7344 C   0  0  0  0  0  0  0  0  0  0  0  0
   -4.8123    9.7690   -8.0490 C   0  0  0  0  0  0  0  0  0  0  0  0
   -3.5592   10.3237   -7.7969 C   0  0  0  0  0  0  0  0  0  0  0  0
   -3.4543   11.5962   -7.2288 C   0  0  0  0  0  0  0  0  0  0  0  0
   -4.6126   12.3085   -6.9084 C   0  0  0  0  0  0  0  0  0  0  0  0
   -5.8671   11.7538   -7.1613 C   0  0  0  0  0  0  0  0  0  0  0  0
   -2.1058   12.1871   -6.9644 C   0  0  0  0  0  0  0  0  0  0  0  0
   -1.7745   13.4406   -6.4637 C   0  0  0  0  0  0  0  0  0  0  0  0
   -0.4394   13.4976   -6.4041 N   0  0  0  0  0  0  0  0  0  0  0  0
    0.1691   12.4146   -6.8015 N   0  0  0  0  0  0  0  0  0  0  0  0
   -0.8034   11.5995   -7.1773 C   0  0  0  0  0  0  0  0  0  0  0  0
    0.3694   14.6144   -5.9538 C   0  0  0  0  0  0  0  0  0  0  0  0
   -3.6497   15.1720  -11.6865 O   0  0  0  0  0  0  0  0  0  0  0  0
   -4.3650   13.6745   -9.7698 O   0  0  0  0  0  0  0  0  0  0  0  0
   -5.5417   11.6132  -10.3059 H   0  0  0  0  0  0  0  0  0  0  0  0
   -7.0576   12.5509  -10.0840 H   0  0  0  0  0  0  0  0  0  0  0  0
   -8.1227   10.1152  -13.9085 H   0  0  0  0  0  0  0  0  0  0  0  0
   -6.8205   12.2414  -14.0656 H   0  0  0  0  0  0  0  0  0  0  0  0
   -8.0330    9.5733   -7.2490 H   0  0  0  0  0  0  0  0  0  0  0  0
   -1.9543   12.6728  -11.2554 H   0  0  0  0  0  0  0  0  0  0  0  0
   -3.3298   11.5493  -11.5240 H   0  0  0  0  0  0  0  0  0  0  0  0
   -2.7704   12.6186  -12.8546 H   0  0  0  0  0  0  0  0  0  0  0  0
   -5.3954   13.6013  -13.0734 H   0  0  0  0  0  0  0  0  0  0  0  0
   -4.8884    8.7854   -8.4885 H   0  0  0  0  0  0  0  0  0  0  0  0
   -2.6658    9.7683   -8.0414 H   0  0  0  0  0  0  0  0  0  0  0  0
   -3.4550   12.0453   -8.2329 H   0  0  0  0  0  0  0  0  0  0  0  0
   -4.5366   13.2900   -6.4643 H   0  0  0  0  0  0  0  0  0  0  0  0
   -6.7612   12.3068   -6.9141 H   0  0  0  0  0  0  0  0  0  0  0  0
   -2.4642   14.2207   -6.1771 H   0  0  0  0  0  0  0  0  0  0  0  0
   -0.6430   10.6154   -7.5924 H   0  0  0  0  0  0  0  0  0  0  0  0
    1.4345   14.3489   -6.0254 H   0  0  0  0  0  0  0  0  0  0  0  0
    0.1671   15.4918   -6.5857 H   0  0  0  0  0  0  0  0  0  0  0  0
    0.1198   14.8498   -4.9087 H   0  0  0  0  0  0  0  0  0  0  0  0
  1  2  1  0  0  0  0
  1  4  2  0  0  0  0
  1 13  1  0  0  0  0
  2  6  1  0  0  0  0
  3  4  1  0  0  0  0
  3  5  2  0  0  0  0
  5  6  1  0  0  0  0
  5  9  1  0  0  0  0
  6  7  2  0  0  0  0
  7  8  1  0  0  0  0
  7 10  1  0  0  0  0
  8  9  2  0  0  0  0
 10 14  2  0  0  0  0
 11 12  1  0  0  0  0
 11 13  1  0  0  0  0
 11 26  2  0  0  0  0
 11 27  2  0  0  0  0
 14 15  1  0  0  0  0
 14 19  1  0  0  0  0
 15 16  2  0  0  0  0
 16 17  1  0  0  0  0
 17 18  1  0  0  0  0
 17 20  1  0  0  0  0
 18 19  2  0  0  0  0
 20 21  2  0  0  0  0
 20 24  1  0  0  0  0
 21 22  1  0  0  0  0
 22 23  1  0  0  0  0
 22 25  1  0  0  0  0
 23 24  2  0  0  0  0
  2 28  1  0  0  0  0
  2 29  1  0  0  0  0
  3 30  1  0  0  0  0
  4 31  1  0  0  0  0
 10 32  1  0  0  0  0
 12 33  1  0  0  0  0
 12 34  1  0  0  0  0
 12 35  1  0  0  0  0
 13 36  1  0  0  0  0
 15 37  1  0  0  0  0
 16 38  1  0  0  0  0
 17 39  1  0  0  0  0
 18 40  1  0  0  0  0
 19 41  1  0  0  0  0
 21 42  1  0  0  0  0
 24 43  1  0  0  0  0
 25 44  1  0  0  0  0
 25 45  1  0  0  0  0
 25 46  1  0  0  0  0
M  END
> <Name>
25

> <IC50[uM]>
0.073

$$$$
25
  -OEChem-05192314333D
 Structure written by MMmdl.
 46 49  0     0  0  0  0  0  0999 V2000
   -6.3861   12.3623  -11.9697 C   0  0  0  0  0  0  0  0  0  0  0  0
   -6.5480   11.8020  -10.7080 C   0  0  0  0  0  0  0  0  0  0  0  0
   -7.6869   10.5726  -13.0325 C   0  0  0  0  0  0  0  0  0  0  0  0
   -6.9529   11.7665  -13.1047 C   0  0  0  0  0  0  0  0  0  0  0  0
   -7.8210   10.0086  -11.7556 C   0  0  0  0  0  0  0  0  0  0  0  0
   -7.2636   10.6177  -10.5919 C   0  0  0  0  0  0  0  0  0  0  0  0
   -7.6330    9.7421   -9.5104 C   0  0  0  0  0  0  0  0  0  0  0  0
   -8.3023    8.7332   -9.9897 N   0  0  0  0  0  0  0  0  0  0  0  0
   -8.4342    8.8678  -11.3051 N   0  0  0  0  0  0  0  0  0  0  0  0
   -7.3415    9.8758   -8.0215 C   0  0  0  0  0  0  0  0  0  0  0  0
   -4.1211   13.8754  -11.2000 S   0  0  0  0  0  0  0  0  0  0  0  0
   -2.9188   12.5402  -11.7675 C   0  0  0  0  0  0  0  0  0  0  0  0
   -5.6382   13.5428  -12.1051 N   0  0  0  0  0  0  0  0  0  0  0  0
   -5.9683   10.4827   -7.7344 C   0  0  0  0  0  0  0  0  0  0  0  0
   -4.8123    9.7690   -8.0490 C   0  0  0  0  0  0  0  0  0  0  0  0
   -3.5592   10.3237   -7.7969 C   0  0  0  0  0  0  0  0  0  0  0  0
   -3.4543   11.5962   -7.2288 C   0  0  0  0  0  0  0  0  0  0  0  0
   -4.6126   12.3085   -6.9084 C   0  0  0  0  0  0  0  0  0  0  0  0
   -5.8671   11.7538   -7.1613 C   0  0  0  0  0  0  0  0  0  0  0  0
   -2.1058   12.1871   -6.9644 C   0  0  0  0  0  0  0  0  0  0  0  0
   -1.7745   13.4406   -6.4637 C   0  0  0  0  0  0  0  0  0  0  0  0
   -0.4394   13.4976   -6.4041 N   0  0  0  0  0  0  0  0  0  0  0  0
    0.1691   12.4146   -6.8015 N   0  0  0  0  0  0  0  0  0  0  0  0
   -0.8034   11.5995   -7.1773 C   0  0  0  0  0  0  0  0  0  0  0  0
    0.3694   14.6144   -5.9538 C   0  0  0  0  0  0  0  0  0  0  0  0
   -3.6497   15.1720  -11.6865 O   0  0  0  0  0  0  0  0  0  0  0  0
   -4.3650   13.6745   -9.7698 O   0  0  0  0  0  0  0  0  0  0  0  0
   -5.5417   11.6132  -10.3059 H   0  0  0  0  0  0  0  0  0  0  0  0
   -7.0576   12.5509  -10.0840 H   0  0  0  0  0  0  0  0  0  0  0  0
   -8.1227   10.1152  -13.9085 H   0  0  0  0  0  0  0  0  0  0  0  0
   -6.8205   12.2414  -14.0656 H   0  0  0  0  0  0  0  0  0  0  0  0
   -8.0330    9.5733   -7.2490 H   0  0  0  0  0  0  0  0  0  0  0  0
   -1.9543   12.6728  -11.2554 H   0  0  0  0  0  0  0  0  0  0  0  0
   -3.3298   11.5493  -11.5240 H   0  0  0  0  0  0  0  0  0  0  0  0
   -2.7704   12.6186  -12.8546 H   0  0  0  0  0  0  0  0  0  0  0  0
   -5.3954   13.6013  -13.0734 H   0  0  0  0  0  0  0  0  0  0  0  0
   -4.8884    8.7854   -8.4885 H   0  0  0  0  0  0  0  0  0  0  0  0
   -2.6658    9.7683   -8.0414 H   0  0  0  0  0  0  0  0  0  0  0  0
   -4.5366   13.2900   -6.4643 H   0  0  0  0  0  0  0  0  0  0  0  0
   -6.3910   12.4480   -7.8348 H   0  0  0  0  0  0  0  0  0  0  0  0
   -6.3948   11.7100   -6.1971 H   0  0  0  0  0  0  0  0  0  0  0  0
   -2.4642   14.2207   -6.1771 H   0  0  0  0  0  0  0  0  0  0  0  0
   -0.6430   10.6154   -7.5924 H   0  0  0  0  0  0  0  0  0  0  0  0
    1.4345   14.3489   -6.0254 H   0  0  0  0  0  0  0  0  0  0  0  0
    0.1671   15.4918   -6.5857 H   0  0  0  0  0  0  0  0  0  0  0  0
    0.1198   14.8498   -4.9087 H   0  0  0  0  0  0  0  0  0  0  0  0
  1  2  1  0  0  0  0
  1  4  2  0  0  0  0
  1 13  1  0  0  0  0
  2  6  1  0  0  0  0
  3  4  1  0  0  0  0
  3  5  2  0  0  0  0
  5  6  1  0  0  0  0
  5  9  1  0  0  0  0
  6  7  2  0  0  0  0
  7  8  1  0  0  0  0
  7 10  1  0  0  0  0
  8  9  2  0  0  0  0
 10 14  2  3  0  0  0
 11 12  1  0  0  0  0
 11 13  1  0  0  0  0
 11 26  2  0  0  0  0
 11 27  2  0  0  0  0
 14 15  1  0  0  0  0
 14 19  1  0  0  0  0
 15 16  2  0  0  0  0
 16 17  1  0  0  0  0
 17 18  2  0  0  0  0
 17 20  1  0  0  0  0
 18 19  1  0  0  0  0
 20 21  2  0  0  0  0
 20 24  1  0  0  0  0
 21 22  1  0  0  0  0
 22 23  1  0  0  0  0
 22 25  1  0  0  0  0
 23 24  2  0  0  0  0
  2 28  1  0  0  0  0
  2 29  1  0  0  0  0
  3 30  1  0  0  0  0
  4 31  1  0  0  0  0
 10 32  1  0  0  0  0
 12 33  1  0  0  0  0
 12 34  1  0  0  0  0
 12 35  1  0  0  0  0
 13 36  1  0  0  0  0
 15 37  1  0  0  0  0
 16 38  1  0  0  0  0
 18 39  1  0  0  0  0
 19 40  1  0  0  0  0
 19 41  1  0  0  0  0
 21 42  1  0  0  0  0
 24 43  1  0  0  0  0
 25 44  1  0  0  0  0
 25 45  1  0  0  0  0
 25 46  1  0  0  0  0
M  END
> <Name>
25

> <IC50[uM]>
0.073

$$$$
25
  -OEChem-05192314333D
 Structure written by MMmdl.
 46 49  0     1  0  0  0  0  0999 V2000
   -6.3861   12.3623  -11.9697 C   0  0  0  0  0  0  0  0  0  0  0  0
   -6.5480   11.8020  -10.7080 C   0  0  0  0  0  0  0  0  0  0  0  0
   -7.6869   10.5726  -13.0325 C   0  0  0  0  0  0  0  0  0  0  0  0
   -6.9529   11.7665  -13.1047 C   0  0  0  0  0  0  0  0  0  0  0  0
   -7.8210   10.0086  -11.7556 C   0  0  0  0  0  0  0  0  0  0  0  0
   -7.2636   10.6177  -10.5919 C   0  0  0  0  0  0  0  0  0  0  0  0
   -7.6330    9.7421   -9.5104 C   0  0  0  0  0  0  0  0  0  0  0  0
   -8.3023    8.7332   -9.9897 N   0  0  0  0  0  0  0  0  0  0  0  0
   -8.4342    8.8678  -11.3051 N   0  0  0  0  0  0  0  0  0  0  0  0
   -7.3415    9.8758   -8.0215 C   0  0  0  0  0  0  0  0  0  0  0  0
   -4.1211   13.8754  -11.2000 S   0  0  0  0  0  0  0  0  0  0  0  0
   -2.9188   12.5402  -11.7675 C   0  0  0  0  0  0  0  0  0  0  0  0
   -5.6382   13.5428  -12.1051 N   0  0  0  0  0  0  0  0  0  0  0  0
   -5.9683   10.4827   -7.7344 C   0  0  0  0  0  0  0  0  0  0  0  0
   -4.8123    9.7690   -8.0490 C   0  0  0  0  0  0  0  0  0  0  0  0
   -3.5592   10.3237   -7.7969 C   0  0  0  0  0  0  0  0  0  0  0  0
   -3.4543   11.5962   -7.2288 C   0  0  0  0  0  0  0  0  0  0  0  0
   -4.6126   12.3085   -6.9084 C   0  0  0  0  0  0  0  0  0  0  0  0
   -5.8671   11.7538   -7.1613 C   0  0  0  0  0  0  0  0  0  0  0  0
   -2.1058   12.1871   -6.9644 C   0  0  0  0  0  0  0  0  0  0  0  0
   -1.7745   13.4406   -6.4637 C   0  0  0  0  0  0  0  0  0  0  0  0
   -0.4394   13.4976   -6.4041 N   0  0  3  0  0  0  0  0  0  0  0  0
    0.1691   12.4146   -6.8015 N   0  0  0  0  0  0  0  0  0  0  0  0
   -0.8034   11.5995   -7.1773 C   0  0  0  0  0  0  0  0  0  0  0  0
    0.3694   14.6144   -5.9538 C   0  0  0  0  0  0  0  0  0  0  0  0
   -3.6497   15.1720  -11.6865 O   0  0  0  0  0  0  0  0  0  0  0  0
   -4.3650   13.6745   -9.7698 O   0  0  0  0  0  0  0  0  0  0  0  0
   -6.1257   12.2782   -9.8355 H   0  0  0  0  0  0  0  0  0  0  0  0
   -8.1227   10.1152  -13.9085 H   0  0  0  0  0  0  0  0  0  0  0  0
   -6.8205   12.2414  -14.0656 H   0  0  0  0  0  0  0  0  0  0  0  0
   -8.6624    7.9724   -9.4498 H   0  0  0  0  0  0  0  0  0  0  0  0
   -8.0330    9.5733   -7.2490 H   0  0  0  0  0  0  0  0  0  0  0  0
   -1.9543   12.6728  -11.2554 H   0  0  0  0  0  0  0  0  0  0  0  0
   -3.3298   11.5493  -11.5240 H   0  0  0  0  0  0  0  0  0  0  0  0
   -2.7704   12.6186  -12.8546 H   0  0  0  0  0  0  0  0  0  0  0  0
   -5.9765   10.0300   -6.7319 H   0  0  0  0  0  0  0  0  0  0  0  0
   -4.8884    8.7854   -8.4885 H   0  0  0  0  0  0  0  0  0  0  0  0
   -2.6658    9.7683   -8.0414 H   0  0  0  0  0  0  0  0  0  0  0  0
   -4.5366   13.2900   -6.4643 H   0  0  0  0  0  0  0  0  0  0  0  0
   -6.7612   12.3068   -6.9141 H   0  0  0  0  0  0  0  0  0  0  0  0
   -2.1568   14.2271   -7.1311 H   0  0  0  0  0  0  0  0  0  0  0  0
   -2.2034   13.5716   -5.4593 H   0  0  0  0  0  0  0  0  0  0  0  0
   -0.6430   10.6154   -7.5924 H   0  0  0  0  0  0  0  0  0  0  0  0
    1.4345   14.3489   -6.0254 H   0  0  0  0  0  0  0  0  0  0  0  0
    0.1671   15.4918   -6.5857 H   0  0  0  0  0  0  0  0  0  0  0  0
    0.1198   14.8498   -4.9087 H   0  0  0  0  0  0  0  0  0  0  0  0
  1  2  1  0  0  0  0
  1  4  1  0  0  0  0
  1 13  2  3  0  0  0
  2  6  2  0  0  0  0
  3  4  2  0  0  0  0
  3  5  1  0  0  0  0
  5  6  1  0  0  0  0
  5  9  2  0  0  0  0
  6  7  1  0  0  0  0
  7  8  1  0  0  0  0
  7 10  2  3  0  0  0
  8  9  1  0  0  0  0
 10 14  1  0  0  0  0
 11 12  1  0  0  0  0
 11 13  1  0  0  0  0
 11 26  2  0  0  0  0
 11 27  2  0  0  0  0
 14 15  1  0  0  0  0
 14 19  1  0  0  0  0
 15 16  2  0  0  0  0
 16 17  1  0  0  0  0
 17 18  1  0  0  0  0
 17 20  2  0  0  0  0
 18 19  2  0  0  0  0
 20 21  1  0  0  0  0
 20 24  1  0  0  0  0
 21 22  1  0  0  0  0
 22 23  1  0  0  0  0
 22 25  1  0  0  0  0
 23 24  2  0  0  0  0
  2 28  1  0  0  0  0
  3 29  1  0  0  0  0
  4 30  1  0  0  0  0
  8 31  1  0  0  0  0
 10 32  1  0  0  0  0
 12 33  1  0  0  0  0
 12 34  1  0  0  0  0
 12 35  1  0  0  0  0
 14 36  1  0  0  0  0
 15 37  1  0  0  0  0
 16 38  1  0  0  0  0
 18 39  1  0  0  0  0
 19 40  1  0  0  0  0
 21 41  1  0  0  0  0
 21 42  1  0  0  0  0
 24 43  1  0  0  0  0
 25 44  1  0  0  0  0
 25 45  1  0  0  0  0
 25 46  1  0  0  0  0
M  END
> <Name>
25

> <IC50[uM]>
0.073

$$$$
25
  -OEChem-05192314333D
 Structure written by MMmdl.
 46 49  0     1  0  0  0  0  0999 V2000
   -6.3861   12.3623  -11.9697 C   0  0  0  0  0  0  0  0  0  0  0  0
   -6.5480   11.8020  -10.7080 C   0  0  0  0  0  0  0  0  0  0  0  0
   -7.6869   10.5726  -13.0325 C   0  0  0  0  0  0  0  0  0  0  0  0
   -6.9529   11.7665  -13.1047 C   0  0  0  0  0  0  0  0  0  0  0  0
   -7.8210   10.0086  -11.7556 C   0  0  0  0  0  0  0  0  0  0  0  0
   -7.2636   10.6177  -10.5919 C   0  0  0  0  0  0  0  0  0  0  0  0
   -7.6330    9.7421   -9.5104 C   0  0  0  0  0  0  0  0  0  0  0  0
   -8.3023    8.7332   -9.9897 N   0  0  0  0  0  0  0  0  0  0  0  0
   -8.4342    8.8678  -11.3051 N   0  0  0  0  0  0  0  0  0  0  0  0
   -7.3415    9.8758   -8.0215 C   0  0  0  0  0  0  0  0  0  0  0  0
   -4.1211   13.8754  -11.2000 S   0  0  0  0  0  0  0  0  0  0  0  0
   -2.9188   12.5402  -11.7675 C   0  0  0  0  0  0  0  0  0  0  0  0
   -5.6382   13.5428  -12.1051 N   0  0  0  0  0  0  0  0  0  0  0  0
   -5.9683   10.4827   -7.7344 C   0  0  0  0  0  0  0  0  0  0  0  0
   -4.8123    9.7690   -8.0490 C   0  0  0  0  0  0  0  0  0  0  0  0
   -3.5592   10.3237   -7.7969 C   0  0  0  0  0  0  0  0  0  0  0  0
   -3.4543   11.5962   -7.2288 C   0  0  0  0  0  0  0  0  0  0  0  0
   -4.6126   12.3085   -6.9084 C   0  0  0  0  0  0  0  0  0  0  0  0
   -5.8671   11.7538   -7.1613 C   0  0  0  0  0  0  0  0  0  0  0  0
   -2.1058   12.1871   -6.9644 C   0  0  0  0  0  0  0  0  0  0  0  0
   -1.7745   13.4406   -6.4637 C   0  0  0  0  0  0  0  0  0  0  0  0
   -0.4394   13.4976   -6.4041 N   0  0  3  0  0  0  0  0  0  0  0  0
    0.1691   12.4146   -6.8015 N   0  0  0  0  0  0  0  0  0  0  0  0
   -0.8034   11.5995   -7.1773 C   0  0  0  0  0  0  0  0  0  0  0  0
    0.3694   14.6144   -5.9538 C   0  0  0  0  0  0  0  0  0  0  0  0
   -3.6497   15.1720  -11.6865 O   0  0  0  0  0  0  0  0  0  0  0  0
   -4.3650   13.6745   -9.7698 O   0  0  0  0  0  0  0  0  0  0  0  0
   -6.1257   12.2782   -9.8355 H   0  0  0  0  0  0  0  0  0  0  0  0
   -8.1227   10.1152  -13.9085 H   0  0  0  0  0  0  0  0  0  0  0  0
   -6.8205   12.2414  -14.0656 H   0  0  0  0  0  0  0  0  0  0  0  0
   -8.6624    7.9724   -9.4498 H   0  0  0  0  0  0  0  0  0  0  0  0
   -8.0330    9.5733   -7.2490 H   0  0  0  0  0  0  0  0  0  0  0  0
   -1.9543   12.6728  -11.2554 H   0  0  0  0  0  0  0  0  0  0  0  0
   -3.3298   11.5493  -11.5240 H   0  0  0  0  0  0  0  0  0  0  0  0
   -2.7704   12.6186  -12.8546 H   0  0  0  0  0  0  0  0  0  0  0  0
   -4.8884    8.7854   -8.4885 H   0  0  0  0  0  0  0  0  0  0  0  0
   -3.0369    9.6312   -7.1205 H   0  0  0  0  0  0  0  0  0  0  0  0
   -3.0308   10.3630   -8.7609 H   0  0  0  0  0  0  0  0  0  0  0  0
   -4.5366   13.2900   -6.4643 H   0  0  0  0  0  0  0  0  0  0  0  0
   -6.7612   12.3068   -6.9141 H   0  0  0  0  0  0  0  0  0  0  0  0
   -2.1568   14.2271   -7.1311 H   0  0  0  0  0  0  0  0  0  0  0  0
   -2.2034   13.5716   -5.4593 H   0  0  0  0  0  0  0  0  0  0  0  0
   -0.6430   10.6154   -7.5924 H   0  0  0  0  0  0  0  0  0  0  0  0
    1.4345   14.3489   -6.0254 H   0  0  0  0  0  0  0  0  0  0  0  0
    0.1671   15.4918   -6.5857 H   0  0  0  0  0  0  0  0  0  0  0  0
    0.1198   14.8498   -4.9087 H   0  0  0  0  0  0  0  0  0  0  0  0
  1  2  1  0  0  0  0
  1  4  1  0  0  0  0
  1 13  2  3  0  0  0
  2  6  2  0  0  0  0
  3  4  2  0  0  0  0
  3  5  1  0  0  0  0
  5  6  1  0  0  0  0
  5  9  2  0  0  0  0
  6  7  1  0  0  0  0
  7  8  1  0  0  0  0
  7 10  2  3  0  0  0
  8  9  1  0  0  0  0
 10 14  1  0  0  0  0
 11 12  1  0  0  0  0
 11 13  1  0  0  0  0
 11 26  2  0  0  0  0
 11 27  2  0  0  0  0
 14 15  2  0  0  0  0
 14 19  1  0  0  0  0
 15 16  1  0  0  0  0
 16 17  1  0  0  0  0
 17 18  1  0  0  0  0
 17 20  2  0  0  0  0
 18 19  2  0  0  0  0
 20 21  1  0  0  0  0
 20 24  1  0  0  0  0
 21 22  1  0  0  0  0
 22 23  1  0  0  0  0
 22 25  1  0  0  0  0
 23 24  2  0  0  0  0
  2 28  1  0  0  0  0
  3 29  1  0  0  0  0
  4 30  1  0  0  0  0
  8 31  1  0  0  0  0
 10 32  1  0  0  0  0
 12 33  1  0  0  0  0
 12 34  1  0  0  0  0
 12 35  1  0  0  0  0
 15 36  1  0  0  0  0
 16 37  1  0  0  0  0
 16 38  1  0  0  0  0
 18 39  1  0  0  0  0
 19 40  1  0  0  0  0
 21 41  1  0  0  0  0
 21 42  1  0  0  0  0
 24 43  1  0  0  0  0
 25 44  1  0  0  0  0
 25 45  1  0  0  0  0
 25 46  1  0  0  0  0
M  END
> <Name>
25

> <IC50[uM]>
0.073

$$$$
25
  -OEChem-05192314333D
 Structure written by MMmdl.
 46 49  0     1  0  0  0  0  0999 V2000
   -6.3861   12.3623  -11.9697 C   0  0  0  0  0  0  0  0  0  0  0  0
   -6.5480   11.8020  -10.7080 C   0  0  0  0  0  0  0  0  0  0  0  0
   -7.6869   10.5726  -13.0325 C   0  0  0  0  0  0  0  0  0  0  0  0
   -6.9529   11.7665  -13.1047 C   0  0  0  0  0  0  0  0  0  0  0  0
   -7.8210   10.0086  -11.7556 C   0  0  0  0  0  0  0  0  0  0  0  0
   -7.2636   10.6177  -10.5919 C   0  0  0  0  0  0  0  0  0  0  0  0
   -7.6330    9.7421   -9.5104 C   0  0  0  0  0  0  0  0  0  0  0  0
   -8.3023    8.7332   -9.9897 N   0  0  0  0  0  0  0  0  0  0  0  0
   -8.4342    8.8678  -11.3051 N   0  0  0  0  0  0  0  0  0  0  0  0
   -7.3415    9.8758   -8.0215 C   0  0  0  0  0  0  0  0  0  0  0  0
   -4.1211   13.8754  -11.2000 S   0  0  0  0  0  0  0  0  0  0  0  0
   -2.9188   12.5402  -11.7675 C   0  0  0  0  0  0  0  0  0  0  0  0
   -5.6382   13.5428  -12.1051 N   0  0  0  0  0  0  0  0  0  0  0  0
   -5.9683   10.4827   -7.7344 C   0  0  0  0  0  0  0  0  0  0  0  0
   -4.8123    9.7690   -8.0490 C   0  0  0  0  0  0  0  0  0  0  0  0
   -3.5592   10.3237   -7.7969 C   0  0  0  0  0  0  0  0  0  0  0  0
   -3.4543   11.5962   -7.2288 C   0  0  0  0  0  0  0  0  0  0  0  0
   -4.6126   12.3085   -6.9084 C   0  0  0  0  0  0  0  0  0  0  0  0
   -5.8671   11.7538   -7.1613 C   0  0  0  0  0  0  0  0  0  0  0  0
   -2.1058   12.1871   -6.9644 C   0  0  3  0  0  0  0  0  0  0  0  0
   -1.7745   13.4406   -6.4637 C   0  0  0  0  0  0  0  0  0  0  0  0
   -0.4394   13.4976   -6.4041 N   0  0  3  0  0  0  0  0  0  0  0  0
    0.1691   12.4146   -6.8015 N   0  0  0  0  0  0  0  0  0  0  0  0
   -0.8034   11.5995   -7.1773 C   0  0  0  0  0  0  0  0  0  0  0  0
    0.3694   14.6144   -5.9538 C   0  0  0  0  0  0  0  0  0  0  0  0
   -3.6497   15.1720  -11.6865 O   0  0  0  0  0  0  0  0  0  0  0  0
   -4.3650   13.6745   -9.7698 O   0  0  0  0  0  0  0  0  0  0  0  0
   -6.1257   12.2782   -9.8355 H   0  0  0  0  0  0  0  0  0  0  0  0
   -8.1227   10.1152  -13.9085 H   0  0  0  0  0  0  0  0  0  0  0  0
   -6.8205   12.2414  -14.0656 H   0  0  0  0  0  0  0  0  0  0  0  0
   -8.0330    9.5733   -7.2490 H   0  0  0  0  0  0  0  0  0  0  0  0
   -1.9543   12.6728  -11.2554 H   0  0  0  0  0  0  0  0  0  0  0  0
   -3.3298   11.5493  -11.5240 H   0  0  0  0  0  0  0  0  0  0  0  0
   -2.7704   12.6186  -12.8546 H   0  0  0  0  0  0  0  0  0  0  0  0
   -4.8884    8.7854   -8.4885 H   0  0  0  0  0  0  0  0  0  0  0  0
   -2.6658    9.7683   -8.0414 H   0  0  0  0  0  0  0  0  0  0  0  0
   -3.4550   12.0453   -8.2329 H   0  0  0  0  0  0  0  0  0  0  0  0
   -4.5366   13.2900   -6.4643 H   0  0  0  0  0  0  0  0  0  0  0  0
   -6.7612   12.3068   -6.9141 H   0  0  0  0  0  0  0  0  0  0  0  0
   -2.1251   11.7808   -5.9424 H   0  0  0  0  0  0  0  0  0  0  0  0
   -2.1568   14.2271   -7.1311 H   0  0  0  0  0  0  0  0  0  0  0  0
   -2.2034   13.5716   -5.4593 H   0  0  0  0  0  0  0  0  0  0  0  0
   -0.6430   10.6154   -7.5924 H   0  0  0  0  0  0  0  0  0  0  0  0
    1.4345   14.3489   -6.0254 H   0  0  0  0  0  0  0  0  0  0  0  0
    0.1671   15.4918   -6.5857 H   0  0  0  0  0  0  0  0  0  0  0  0
    0.1198   14.8498   -4.9087 H   0  0  0  0  0  0  0  0  0  0  0  0
  1  2  1  0  0  0  0
  1  4  1  0  0  0  0
  1 13  2  3  0  0  0
  2  6  2  0  0  0  0
  3  4  2  0  0  0  0
  3  5  1  0  0  0  0
  5  6  1  0  0  0  0
  5  9  2  0  0  0  0
  6  7  1  0  0  0  0
  7  8  2  0  0  0  0
  7 10  1  0  0  0  0
  8  9  1  0  0  0  0
 10 14  2  0  0  0  0
 11 12  1  0  0  0  0
 11 13  1  0  0  0  0
 11 26  2  0  0  0  0
 11 27  2  0  0  0  0
 14 15  1  0  0  0  0
 14 19  1  0  0  0  0
 15 16  2  0  0  0  0
 16 17  1  0  0  0  0
 17 18  1  0  0  0  0
 17 20  1  0  0  0  0
 18 19  2  0  0  0  0
 20 21  1  0  0  0  0
 20 24  1  0  0  0  0
 21 22  1  0  0  0  0
 22 23  1  0  0  0  0
 22 25  1  0  0  0  0
 23 24  2  0  0  0  0
  2 28  1  0  0  0  0
  3 29  1  0  0  0  0
  4 30  1  0  0  0  0
 10 31  1  0  0  0  0
 12 32  1  0  0  0  0
 12 33  1  0  0  0  0
 12 34  1  0  0  0  0
 15 35  1  0  0  0  0
 16 36  1  0  0  0  0
 17 37  1  0  0  0  0
 18 38  1  0  0  0  0
 19 39  1  0  0  0  0
 20 40  1  0  0  0  0
 21 41  1  0  0  0  0
 21 42  1  0  0  0  0
 24 43  1  0  0  0  0
 25 44  1  0  0  0  0
 25 45  1  0  0  0  0
 25 46  1  0  0  0  0
M  END
> <Name>
25

> <IC50[uM]>
0.073

$$$$
25
  -OEChem-05192314333D
 Structure written by MMmdl.
 46 49  0     1  0  0  0  0  0999 V2000
   -6.3861   12.3623  -11.9697 C   0  0  0  0  0  0  0  0  0  0  0  0
   -6.5480   11.8020  -10.7080 C   0  0  0  0  0  0  0  0  0  0  0  0
   -7.6869   10.5726  -13.0325 C   0  0  0  0  0  0  0  0  0  0  0  0
   -6.9529   11.7665  -13.1047 C   0  0  0  0  0  0  0  0  0  0  0  0
   -7.8210   10.0086  -11.7556 C   0  0  0  0  0  0  0  0  0  0  0  0
   -7.2636   10.6177  -10.5919 C   0  0  0  0  0  0  0  0  0  0  0  0
   -7.6330    9.7421   -9.5104 C   0  0  0  0  0  0  0  0  0  0  0  0
   -8.3023    8.7332   -9.9897 N   0  0  0  0  0  0  0  0  0  0  0  0
   -8.4342    8.8678  -11.3051 N   0  0  0  0  0  0  0  0  0  0  0  0
   -7.3415    9.8758   -8.0215 C   0  0  0  0  0  0  0  0  0  0  0  0
   -4.1211   13.8754  -11.2000 S   0  0  0  0  0  0  0  0  0  0  0  0
   -2.9188   12.5402  -11.7675 C   0  0  0  0  0  0  0  0  0  0  0  0
   -5.6382   13.5428  -12.1051 N   0  0  0  0  0  0  0  0  0  0  0  0
   -5.9683   10.4827   -7.7344 C   0  0  0  0  0  0  0  0  0  0  0  0
   -4.8123    9.7690   -8.0490 C   0  0  0  0  0  0  0  0  0  0  0  0
   -3.5592   10.3237   -7.7969 C   0  0  0  0  0  0  0  0  0  0  0  0
   -3.4543   11.5962   -7.2288 C   0  0  0  0  0  0  0  0  0  0  0  0
   -4.6126   12.3085   -6.9084 C   0  0  0  0  0  0  0  0  0  0  0  0
   -5.8671   11.7538   -7.1613 C   0  0  0  0  0  0  0  0  0  0  0  0
   -2.1058   12.1871   -6.9644 C   0  0  3  0  0  0  0  0  0  0  0  0
   -1.7745   13.4406   -6.4637 C   0  0  0  0  0  0  0  0  0  0  0  0
   -0.4394   13.4976   -6.4041 N   0  0  3  0  0  0  0  0  0  0  0  0
    0.1691   12.4146   -6.8015 N   0  0  0  0  0  0  0  0  0  0  0  0
   -0.8034   11.5995   -7.1773 C   0  0  0  0  0  0  0  0  0  0  0  0
    0.3694   14.6144   -5.9538 C   0  0  0  0  0  0  0  0  0  0  0  0
   -3.6497   15.1720  -11.6865 O   0  0  0  0  0  0  0  0  0  0  0  0
   -4.3650   13.6745   -9.7698 O   0  0  0  0  0  0  0  0  0  0  0  0
   -6.1257   12.2782   -9.8355 H   0  0  0  0  0  0  0  0  0  0  0  0
   -8.1227   10.1152  -13.9085 H   0  0  0  0  0  0  0  0  0  0  0  0
   -6.8205   12.2414  -14.0656 H   0  0  0  0  0  0  0  0  0  0  0  0
   -8.0330    9.5733   -7.2490 H   0  0  0  0  0  0  0  0  0  0  0  0
   -1.9543   12.6728  -11.2554 H   0  0  0  0  0  0  0  0  0  0  0  0
   -3.3298   11.5493  -11.5240 H   0  0  0  0  0  0  0  0  0  0  0  0
   -2.7704   12.6186  -12.8546 H   0  0  0  0  0  0  0  0  0  0  0  0
   -4.8884    8.7854   -8.4885 H   0  0  0  0  0  0  0  0  0  0  0  0
   -2.6658    9.7683   -8.0414 H   0  0  0  0  0  0  0  0  0  0  0  0
   -4.5366   13.2900   -6.4643 H   0  0  0  0  0  0  0  0  0  0  0  0
   -6.3910   12.4480   -7.8348 H   0  0  0  0  0  0  0  0  0  0  0  0
   -6.3948   11.7100   -6.1971 H   0  0  0  0  0  0  0  0  0  0  0  0
   -2.1251   11.7808   -5.9424 H   0  0  0  0  0  0  0  0  0  0  0  0
   -2.1568   14.2271   -7.1311 H   0  0  0  0  0  0  0  0  0  0  0  0
   -2.2034   13.5716   -5.4593 H   0  0  0  0  0  0  0  0  0  0  0  0
   -0.6430   10.6154   -7.5924 H   0  0  0  0  0  0  0  0  0  0  0  0
    1.4345   14.3489   -6.0254 H   0  0  0  0  0  0  0  0  0  0  0  0
    0.1671   15.4918   -6.5857 H   0  0  0  0  0  0  0  0  0  0  0  0
    0.1198   14.8498   -4.9087 H   0  0  0  0  0  0  0  0  0  0  0  0
  1  2  1  0  0  0  0
  1  4  1  0  0  0  0
  1 13  2  3  0  0  0
  2  6  2  0  0  0  0
  3  4  2  0  0  0  0
  3  5  1  0  0  0  0
  5  6  1  0  0  0  0
  5  9  2  0  0  0  0
  6  7  1  0  0  0  0
  7  8  2  0  0  0  0
  7 10  1  0  0  0  0
  8  9  1  0  0  0  0
 10 14  2  3  0  0  0
 11 12  1  0  0  0  0
 11 13  1  0  0  0  0
 11 26  2  0  0  0  0
 11 27  2  0  0  0  0
 14 15  1  0  0  0  0
 14 19  1  0  0  0  0
 15 16  2  0  0  0  0
 16 17  1  0  0  0  0
 17 18  2  0  0  0  0
 17 20  1  0  0  0  0
 18 19  1  0  0  0  0
 20 21  1  0  0  0  0
 20 24  1  0  0  0  0
 21 22  1  0  0  0  0
 22 23  1  0  0  0  0
 22 25  1  0  0  0  0
 23 24  2  0  0  0  0
  2 28  1  0  0  0  0
  3 29  1  0  0  0  0
  4 30  1  0  0  0  0
 10 31  1  0  0  0  0
 12 32  1  0  0  0  0
 12 33  1  0  0  0  0
 12 34  1  0  0  0  0
 15 35  1  0  0  0  0
 16 36  1  0  0  0  0
 18 37  1  0  0  0  0
 19 38  1  0  0  0  0
 19 39  1  0  0  0  0
 20 40  1  0  0  0  0
 21 41  1  0  0  0  0
 21 42  1  0  0  0  0
 24 43  1  0  0  0  0
 25 44  1  0  0  0  0
 25 45  1  0  0  0  0
 25 46  1  0  0  0  0
M  END
> <Name>
25

> <IC50[uM]>
0.073

$$$$
25
  -OEChem-05192314333D
 Structure written by MMmdl.
 46 49  0     1  0  0  0  0  0999 V2000
   -6.3861   12.3623  -11.9697 C   0  0  0  0  0  0  0  0  0  0  0  0
   -6.5480   11.8020  -10.7080 C   0  0  0  0  0  0  0  0  0  0  0  0
   -7.6869   10.5726  -13.0325 C   0  0  0  0  0  0  0  0  0  0  0  0
   -6.9529   11.7665  -13.1047 C   0  0  0  0  0  0  0  0  0  0  0  0
   -7.8210   10.0086  -11.7556 C   0  0  0  0  0  0  0  0  0  0  0  0
   -7.2636   10.6177  -10.5919 C   0  0  0  0  0  0  0  0  0  0  0  0
   -7.6330    9.7421   -9.5104 C   0  0  0  0  0  0  0  0  0  0  0  0
   -8.3023    8.7332   -9.9897 N   0  0  0  0  0  0  0  0  0  0  0  0
   -8.4342    8.8678  -11.3051 N   0  0  0  0  0  0  0  0  0  0  0  0
   -7.3415    9.8758   -8.0215 C   0  0  0  0  0  0  0  0  0  0  0  0
   -4.1211   13.8754  -11.2000 S   0  0  0  0  0  0  0  0  0  0  0  0
   -2.9188   12.5402  -11.7675 C   0  0  0  0  0  0  0  0  0  0  0  0
   -5.6382   13.5428  -12.1051 N   0  0  0  0  0  0  0  0  0  0  0  0
   -5.9683   10.4827   -7.7344 C   0  0  0  0  0  0  0  0  0  0  0  0
   -4.8123    9.7690   -8.0490 C   0  0  0  0  0  0  0  0  0  0  0  0
   -3.5592   10.3237   -7.7969 C   0  0  0  0  0  0  0  0  0  0  0  0
   -3.4543   11.5962   -7.2288 C   0  0  0  0  0  0  0  0  0  0  0  0
   -4.6126   12.3085   -6.9084 C   0  0  0  0  0  0  0  0  0  0  0  0
   -5.8671   11.7538   -7.1613 C   0  0  0  0  0  0  0  0  0  0  0  0
   -2.1058   12.1871   -6.9644 C   0  0  0  0  0  0  0  0  0  0  0  0
   -1.7745   13.4406   -6.4637 C   0  0  0  0  0  0  0  0  0  0  0  0
   -0.4394   13.4976   -6.4041 N   0  0  3  0  0  0  0  0  0  0  0  0
    0.1691   12.4146   -6.8015 N   0  0  0  0  0  0  0  0  0  0  0  0
   -0.8034   11.5995   -7.1773 C   0  0  0  0  0  0  0  0  0  0  0  0
    0.3694   14.6144   -5.9538 C   0  0  0  0  0  0  0  0  0  0  0  0
   -3.6497   15.1720  -11.6865 O   0  0  0  0  0  0  0  0  0  0  0  0
   -4.3650   13.6745   -9.7698 O   0  0  0  0  0  0  0  0  0  0  0  0
   -6.1257   12.2782   -9.8355 H   0  0  0  0  0  0  0  0  0  0  0  0
   -8.1227   10.1152  -13.9085 H   0  0  0  0  0  0  0  0  0  0  0  0
   -6.8205   12.2414  -14.0656 H   0  0  0  0  0  0  0  0  0  0  0  0
   -8.0330    9.5733   -7.2490 H   0  0  0  0  0  0  0  0  0  0  0  0
   -1.9543   12.6728  -11.2554 H   0  0  0  0  0  0  0  0  0  0  0  0
   -3.3298   11.5493  -11.5240 H   0  0  0  0  0  0  0  0  0  0  0  0
   -2.7704   12.6186  -12.8546 H   0  0  0  0  0  0  0  0  0  0  0  0
   -4.8884    8.7854   -8.4885 H   0  0  0  0  0  0  0  0  0  0  0  0
   -2.6658    9.7683   -8.0414 H   0  0  0  0  0  0  0  0  0  0  0  0
   -4.5692   12.5155   -5.8289 H   0  0  0  0  0  0  0  0  0  0  0  0
   -4.5666   13.2558   -7.4655 H   0  0  0  0  0  0  0  0  0  0  0  0
   -6.3910   12.4480   -7.8348 H   0  0  0  0  0  0  0  0  0  0  0  0
   -6.3948   11.7100   -6.1971 H   0  0  0  0  0  0  0  0  0  0  0  0
   -2.1568   14.2271   -7.1311 H   0  0  0  0  0  0  0  0  0  0  0  0
   -2.2034   13.5716   -5.4593 H   0  0  0  0  0  0  0  0  0  0  0  0
   -0.6430   10.6154   -7.5924 H   0  0  0  0  0  0  0  0  0  0  0  0
    1.4345   14.3489   -6.0254 H   0  0  0  0  0  0  0  0  0  0  0  0
    0.1671   15.4918   -6.5857 H   0  0  0  0  0  0  0  0  0  0  0  0
    0.1198   14.8498   -4.9087 H   0  0  0  0  0  0  0  0  0  0  0  0
  1  2  1  0  0  0  0
  1  4  1  0  0  0  0
  1 13  2  3  0  0  0
  2  6  2  0  0  0  0
  3  4  2  0  0  0  0
  3  5  1  0  0  0  0
  5  6  1  0  0  0  0
  5  9  2  0  0  0  0
  6  7  1  0  0  0  0
  7  8  2  0  0  0  0
  7 10  1  0  0  0  0
  8  9  1  0  0  0  0
 10 14  2  3  0  0  0
 11 12  1  0  0  0  0
 11 13  1  0  0  0  0
 11 26  2  0  0  0  0
 11 27  2  0  0  0  0
 14 15  1  0  0  0  0
 14 19  1  0  0  0  0
 15 16  2  0  0  0  0
 16 17  1  0  0  0  0
 17 18  1  0  0  0  0
 17 20  2  0  0  0  0
 18 19  1  0  0  0  0
 20 21  1  0  0  0  0
 20 24  1  0  0  0  0
 21 22  1  0  0  0  0
 22 23  1  0  0  0  0
 22 25  1  0  0  0  0
 23 24  2  0  0  0  0
  2 28  1  0  0  0  0
  3 29  1  0  0  0  0
  4 30  1  0  0  0  0
 10 31  1  0  0  0  0
 12 32  1  0  0  0  0
 12 33  1  0  0  0  0
 12 34  1  0  0  0  0
 15 35  1  0  0  0  0
 16 36  1  0  0  0  0
 18 37  1  0  0  0  0
 18 38  1  0  0  0  0
 19 39  1  0  0  0  0
 19 40  1  0  0  0  0
 21 41  1  0  0  0  0
 21 42  1  0  0  0  0
 24 43  1  0  0  0  0
 25 44  1  0  0  0  0
 25 45  1  0  0  0  0
 25 46  1  0  0  0  0
M  END
> <Name>
25

> <IC50[uM]>
0.073

$$$$
25
  -OEChem-05192314333D
 Structure written by MMmdl.
 46 49  0     1  0  0  0  0  0999 V2000
   -6.3861   12.3623  -11.9697 C   0  0  0  0  0  0  0  0  0  0  0  0
   -6.5480   11.8020  -10.7080 C   0  0  0  0  0  0  0  0  0  0  0  0
   -7.6869   10.5726  -13.0325 C   0  0  0  0  0  0  0  0  0  0  0  0
   -6.9529   11.7665  -13.1047 C   0  0  0  0  0  0  0  0  0  0  0  0
   -7.8210   10.0086  -11.7556 C   0  0  0  0  0  0  0  0  0  0  0  0
   -7.2636   10.6177  -10.5919 C   0  0  0  0  0  0  0  0  0  0  0  0
   -7.6330    9.7421   -9.5104 C   0  0  0  0  0  0  0  0  0  0  0  0
   -8.3023    8.7332   -9.9897 N   0  0  0  0  0  0  0  0  0  0  0  0
   -8.4342    8.8678  -11.3051 N   0  0  0  0  0  0  0  0  0  0  0  0
   -7.3415    9.8758   -8.0215 C   0  0  0  0  0  0  0  0  0  0  0  0
   -4.1211   13.8754  -11.2000 S   0  0  0  0  0  0  0  0  0  0  0  0
   -2.9188   12.5402  -11.7675 C   0  0  0  0  0  0  0  0  0  0  0  0
   -5.6382   13.5428  -12.1051 N   0  0  0  0  0  0  0  0  0  0  0  0
   -5.9683   10.4827   -7.7344 C   0  0  0  0  0  0  0  0  0  0  0  0
   -4.8123    9.7690   -8.0490 C   0  0  0  0  0  0  0  0  0  0  0  0
   -3.5592   10.3237   -7.7969 C   0  0  0  0  0  0  0  0  0  0  0  0
   -3.4543   11.5962   -7.2288 C   0  0  0  0  0  0  0  0  0  0  0  0
   -4.6126   12.3085   -6.9084 C   0  0  0  0  0  0  0  0  0  0  0  0
   -5.8671   11.7538   -7.1613 C   0  0  0  0  0  0  0  0  0  0  0  0
   -2.1058   12.1871   -6.9644 C   0  0  0  0  0  0  0  0  0  0  0  0
   -1.7745   13.4406   -6.4637 C   0  0  0  0  0  0  0  0  0  0  0  0
   -0.4394   13.4976   -6.4041 N   0  0  3  0  0  0  0  0  0  0  0  0
    0.1691   12.4146   -6.8015 N   0  0  0  0  0  0  0  0  0  0  0  0
   -0.8034   11.5995   -7.1773 C   0  0  0  0  0  0  0  0  0  0  0  0
    0.3694   14.6144   -5.9538 C   0  0  0  0  0  0  0  0  0  0  0  0
   -3.6497   15.1720  -11.6865 O   0  0  0  0  0  0  0  0  0  0  0  0
   -4.3650   13.6745   -9.7698 O   0  0  0  0  0  0  0  0  0  0  0  0
   -6.1257   12.2782   -9.8355 H   0  0  0  0  0  0  0  0  0  0  0  0
   -8.1227   10.1152  -13.9085 H   0  0  0  0  0  0  0  0  0  0  0  0
   -6.8205   12.2414  -14.0656 H   0  0  0  0  0  0  0  0  0  0  0  0
   -8.1107   10.5196   -7.5701 H   0  0  0  0  0  0  0  0  0  0  0  0
   -7.3856    8.8762   -7.5645 H   0  0  0  0  0  0  0  0  0  0  0  0
   -1.9543   12.6728  -11.2554 H   0  0  0  0  0  0  0  0  0  0  0  0
   -3.3298   11.5493  -11.5240 H   0  0  0  0  0  0  0  0  0  0  0  0
   -2.7704   12.6186  -12.8546 H   0  0  0  0  0  0  0  0  0  0  0  0
   -5.9765   10.0300   -6.7319 H   0  0  0  0  0  0  0  0  0  0  0  0
   -4.8884    8.7854   -8.4885 H   0  0  0  0  0  0  0  0  0  0  0  0
   -2.6658    9.7683   -8.0414 H   0  0  0  0  0  0  0  0  0  0  0  0
   -4.5366   13.2900   -6.4643 H   0  0  0  0  0  0  0  0  0  0  0  0
   -6.7612   12.3068   -6.9141 H   0  0  0  0  0  0  0  0  0  0  0  0
   -2.1568   14.2271   -7.1311 H   0  0  0  0  0  0  0  0  0  0  0  0
   -2.2034   13.5716   -5.4593 H   0  0  0  0  0  0  0  0  0  0  0  0
   -0.6430   10.6154   -7.5924 H   0  0  0  0  0  0  0  0  0  0  0  0
    1.4345   14.3489   -6.0254 H   0  0  0  0  0  0  0  0  0  0  0  0
    0.1671   15.4918   -6.5857 H   0  0  0  0  0  0  0  0  0  0  0  0
    0.1198   14.8498   -4.9087 H   0  0  0  0  0  0  0  0  0  0  0  0
  1  2  1  0  0  0  0
  1  4  1  0  0  0  0
  1 13  2  3  0  0  0
  2  6  2  0  0  0  0
  3  4  2  0  0  0  0
  3  5  1  0  0  0  0
  5  6  1  0  0  0  0
  5  9  2  0  0  0  0
  6  7  1  0  0  0  0
  7  8  2  0  0  0  0
  7 10  1  0  0  0  0
  8  9  1  0  0  0  0
 10 14  1  0  0  0  0
 11 12  1  0  0  0  0
 11 13  1  0  0  0  0
 11 26  2  0  0  0  0
 11 27  2  0  0  0  0
 14 15  1  0  0  0  0
 14 19  1  0  0  0  0
 15 16  2  0  0  0  0
 16 17  1  0  0  0  0
 17 18  1  0  0  0  0
 17 20  2  0  0  0  0
 18 19  2  0  0  0  0
 20 21  1  0  0  0  0
 20 24  1  0  0  0  0
 21 22  1  0  0  0  0
 22 23  1  0  0  0  0
 22 25  1  0  0  0  0
 23 24  2  0  0  0  0
  2 28  1  0  0  0  0
  3 29  1  0  0  0  0
  4 30  1  0  0  0  0
 10 31  1  0  0  0  0
 10 32  1  0  0  0  0
 12 33  1  0  0  0  0
 12 34  1  0  0  0  0
 12 35  1  0  0  0  0
 14 36  1  0  0  0  0
 15 37  1  0  0  0  0
 16 38  1  0  0  0  0
 18 39  1  0  0  0  0
 19 40  1  0  0  0  0
 21 41  1  0  0  0  0
 21 42  1  0  0  0  0
 24 43  1  0  0  0  0
 25 44  1  0  0  0  0
 25 45  1  0  0  0  0
 25 46  1  0  0  0  0
M  END
> <Name>
25

> <IC50[uM]>
0.073

$$$$
25
  -OEChem-05192314333D
 Structure written by MMmdl.
 46 49  0     1  0  0  0  0  0999 V2000
   -6.3861   12.3623  -11.9697 C   0  0  0  0  0  0  0  0  0  0  0  0
   -6.5480   11.8020  -10.7080 C   0  0  0  0  0  0  0  0  0  0  0  0
   -7.6869   10.5726  -13.0325 C   0  0  0  0  0  0  0  0  0  0  0  0
   -6.9529   11.7665  -13.1047 C   0  0  0  0  0  0  0  0  0  0  0  0
   -7.8210   10.0086  -11.7556 C   0  0  0  0  0  0  0  0  0  0  0  0
   -7.2636   10.6177  -10.5919 C   0  0  0  0  0  0  0  0  0  0  0  0
   -7.6330    9.7421   -9.5104 C   0  0  0  0  0  0  0  0  0  0  0  0
   -8.3023    8.7332   -9.9897 N   0  0  0  0  0  0  0  0  0  0  0  0
   -8.4342    8.8678  -11.3051 N   0  0  0  0  0  0  0  0  0  0  0  0
   -7.3415    9.8758   -8.0215 C   0  0  0  0  0  0  0  0  0  0  0  0
   -4.1211   13.8754  -11.2000 S   0  0  0  0  0  0  0  0  0  0  0  0
   -2.9188   12.5402  -11.7675 C   0  0  0  0  0  0  0  0  0  0  0  0
   -5.6382   13.5428  -12.1051 N   0  0  0  0  0  0  0  0  0  0  0  0
   -5.9683   10.4827   -7.7344 C   0  0  0  0  0  0  0  0  0  0  0  0
   -4.8123    9.7690   -8.0490 C   0  0  0  0  0  0  0  0  0  0  0  0
   -3.5592   10.3237   -7.7969 C   0  0  0  0  0  0  0  0  0  0  0  0
   -3.4543   11.5962   -7.2288 C   0  0  0  0  0  0  0  0  0  0  0  0
   -4.6126   12.3085   -6.9084 C   0  0  0  0  0  0  0  0  0  0  0  0
   -5.8671   11.7538   -7.1613 C   0  0  0  0  0  0  0  0  0  0  0  0
   -2.1058   12.1871   -6.9644 C   0  0  0  0  0  0  0  0  0  0  0  0
   -1.7745   13.4406   -6.4637 C   0  0  0  0  0  0  0  0  0  0  0  0
   -0.4394   13.4976   -6.4041 N   0  0  3  0  0  0  0  0  0  0  0  0
    0.1691   12.4146   -6.8015 N   0  0  0  0  0  0  0  0  0  0  0  0
   -0.8034   11.5995   -7.1773 C   0  0  0  0  0  0  0  0  0  0  0  0
    0.3694   14.6144   -5.9538 C   0  0  0  0  0  0  0  0  0  0  0  0
   -3.6497   15.1720  -11.6865 O   0  0  0  0  0  0  0  0  0  0  0  0
   -4.3650   13.6745   -9.7698 O   0  0  0  0  0  0  0  0  0  0  0  0
   -6.1257   12.2782   -9.8355 H   0  0  0  0  0  0  0  0  0  0  0  0
   -8.1227   10.1152  -13.9085 H   0  0  0  0  0  0  0  0  0  0  0  0
   -6.8205   12.2414  -14.0656 H   0  0  0  0  0  0  0  0  0  0  0  0
   -8.1107   10.5196   -7.5701 H   0  0  0  0  0  0  0  0  0  0  0  0
   -7.3856    8.8762   -7.5645 H   0  0  0  0  0  0  0  0  0  0  0  0
   -1.9543   12.6728  -11.2554 H   0  0  0  0  0  0  0  0  0  0  0  0
   -3.3298   11.5493  -11.5240 H   0  0  0  0  0  0  0  0  0  0  0  0
   -2.7704   12.6186  -12.8546 H   0  0  0  0  0  0  0  0  0  0  0  0
   -4.8884    8.7854   -8.4885 H   0  0  0  0  0  0  0  0  0  0  0  0
   -3.0369    9.6312   -7.1205 H   0  0  0  0  0  0  0  0  0  0  0  0
   -3.0308   10.3630   -8.7609 H   0  0  0  0  0  0  0  0  0  0  0  0
   -4.5366   13.2900   -6.4643 H   0  0  0  0  0  0  0  0  0  0  0  0
   -6.7612   12.3068   -6.9141 H   0  0  0  0  0  0  0  0  0  0  0  0
   -2.1568   14.2271   -7.1311 H   0  0  0  0  0  0  0  0  0  0  0  0
   -2.2034   13.5716   -5.4593 H   0  0  0  0  0  0  0  0  0  0  0  0
   -0.6430   10.6154   -7.5924 H   0  0  0  0  0  0  0  0  0  0  0  0
    1.4345   14.3489   -6.0254 H   0  0  0  0  0  0  0  0  0  0  0  0
    0.1671   15.4918   -6.5857 H   0  0  0  0  0  0  0  0  0  0  0  0
    0.1198   14.8498   -4.9087 H   0  0  0  0  0  0  0  0  0  0  0  0
  1  2  1  0  0  0  0
  1  4  1  0  0  0  0
  1 13  2  3  0  0  0
  2  6  2  0  0  0  0
  3  4  2  0  0  0  0
  3  5  1  0  0  0  0
  5  6  1  0  0  0  0
  5  9  2  0  0  0  0
  6  7  1  0  0  0  0
  7  8  2  0  0  0  0
  7 10  1  0  0  0  0
  8  9  1  0  0  0  0
 10 14  1  0  0  0  0
 11 12  1  0  0  0  0
 11 13  1  0  0  0  0
 11 26  2  0  0  0  0
 11 27  2  0  0  0  0
 14 15  2  0  0  0  0
 14 19  1  0  0  0  0
 15 16  1  0  0  0  0
 16 17  1  0  0  0  0
 17 18  1  0  0  0  0
 17 20  2  0  0  0  0
 18 19  2  0  0  0  0
 20 21  1  0  0  0  0
 20 24  1  0  0  0  0
 21 22  1  0  0  0  0
 22 23  1  0  0  0  0
 22 25  1  0  0  0  0
 23 24  2  0  0  0  0
  2 28  1  0  0  0  0
  3 29  1  0  0  0  0
  4 30  1  0  0  0  0
 10 31  1  0  0  0  0
 10 32  1  0  0  0  0
 12 33  1  0  0  0  0
 12 34  1  0  0  0  0
 12 35  1  0  0  0  0
 15 36  1  0  0  0  0
 16 37  1  0  0  0  0
 16 38  1  0  0  0  0
 18 39  1  0  0  0  0
 19 40  1  0  0  0  0
 21 41  1  0  0  0  0
 21 42  1  0  0  0  0
 24 43  1  0  0  0  0
 25 44  1  0  0  0  0
 25 45  1  0  0  0  0
 25 46  1  0  0  0  0
M  END
> <Name>
25

> <IC50[uM]>
0.073

$$$$
25
  -OEChem-05192314333D
 Structure written by MMmdl.
 46 49  0     1  0  0  0  0  0999 V2000
   -6.3861   12.3623  -11.9697 C   0  0  0  0  0  0  0  0  0  0  0  0
   -6.5480   11.8020  -10.7080 C   0  0  0  0  0  0  0  0  0  0  0  0
   -7.6869   10.5726  -13.0325 C   0  0  0  0  0  0  0  0  0  0  0  0
   -6.9529   11.7665  -13.1047 C   0  0  0  0  0  0  0  0  0  0  0  0
   -7.8210   10.0086  -11.7556 C   0  0  3  0  0  0  0  0  0  0  0  0
   -7.2636   10.6177  -10.5919 C   0  0  0  0  0  0  0  0  0  0  0  0
   -7.6330    9.7421   -9.5104 C   0  0  0  0  0  0  0  0  0  0  0  0
   -8.3023    8.7332   -9.9897 N   0  0  0  0  0  0  0  0  0  0  0  0
   -8.4342    8.8678  -11.3051 N   0  0  0  0  0  0  0  0  0  0  0  0
   -7.3415    9.8758   -8.0215 C   0  0  0  0  0  0  0  0  0  0  0  0
   -4.1211   13.8754  -11.2000 S   0  0  0  0  0  0  0  0  0  0  0  0
   -2.9188   12.5402  -11.7675 C   0  0  0  0  0  0  0  0  0  0  0  0
   -5.6382   13.5428  -12.1051 N   0  0  0  0  0  0  0  0  0  0  0  0
   -5.9683   10.4827   -7.7344 C   0  0  0  0  0  0  0  0  0  0  0  0
   -4.8123    9.7690   -8.0490 C   0  0  0  0  0  0  0  0  0  0  0  0
   -3.5592   10.3237   -7.7969 C   0  0  0  0  0  0  0  0  0  0  0  0
   -3.4543   11.5962   -7.2288 C   0  0  0  0  0  0  0  0  0  0  0  0
   -4.6126   12.3085   -6.9084 C   0  0  0  0  0  0  0  0  0  0  0  0
   -5.8671   11.7538   -7.1613 C   0  0  0  0  0  0  0  0  0  0  0  0
   -2.1058   12.1871   -6.9644 C   0  0  0  0  0  0  0  0  0  0  0  0
   -1.7745   13.4406   -6.4637 C   0  0  0  0  0  0  0  0  0  0  0  0
   -0.4394   13.4976   -6.4041 N   0  0  3  0  0  0  0  0  0  0  0  0
    0.1691   12.4146   -6.8015 N   0  0  0  0  0  0  0  0  0  0  0  0
   -0.8034   11.5995   -7.1773 C   0  0  0  0  0  0  0  0  0  0  0  0
    0.3694   14.6144   -5.9538 C   0  0  0  0  0  0  0  0  0  0  0  0
   -3.6497   15.1720  -11.6865 O   0  0  0  0  0  0  0  0  0  0  0  0
   -4.3650   13.6745   -9.7698 O   0  0  0  0  0  0  0  0  0  0  0  0
   -6.1257   12.2782   -9.8355 H   0  0  0  0  0  0  0  0  0  0  0  0
   -8.1227   10.1152  -13.9085 H   0  0  0  0  0  0  0  0  0  0  0  0
   -6.8205   12.2414  -14.0656 H   0  0  0  0  0  0  0  0  0  0  0  0
   -8.7541   10.5711  -11.6042 H   0  0  0  0  0  0  0  0  0  0  0  0
   -8.0330    9.5733   -7.2490 H   0  0  0  0  0  0  0  0  0  0  0  0
   -1.9543   12.6728  -11.2554 H   0  0  0  0  0  0  0  0  0  0  0  0
   -3.3298   11.5493  -11.5240 H   0  0  0  0  0  0  0  0  0  0  0  0
   -2.7704   12.6186  -12.8546 H   0  0  0  0  0  0  0  0  0  0  0  0
   -5.9765   10.0300   -6.7319 H   0  0  0  0  0  0  0  0  0  0  0  0
   -4.8884    8.7854   -8.4885 H   0  0  0  0  0  0  0  0  0  0  0  0
   -2.6658    9.7683   -8.0414 H   0  0  0  0  0  0  0  0  0  0  0  0
   -4.5366   13.2900   -6.4643 H   0  0  0  0  0  0  0  0  0  0  0  0
   -6.7612   12.3068   -6.9141 H   0  0  0  0  0  0  0  0  0  0  0  0
   -2.1568   14.2271   -7.1311 H   0  0  0  0  0  0  0  0  0  0  0  0
   -2.2034   13.5716   -5.4593 H   0  0  0  0  0  0  0  0  0  0  0  0
   -0.6430   10.6154   -7.5924 H   0  0  0  0  0  0  0  0  0  0  0  0
    1.4345   14.3489   -6.0254 H   0  0  0  0  0  0  0  0  0  0  0  0
    0.1671   15.4918   -6.5857 H   0  0  0  0  0  0  0  0  0  0  0  0
    0.1198   14.8498   -4.9087 H   0  0  0  0  0  0  0  0  0  0  0  0
  1  2  1  0  0  0  0
  1  4  1  0  0  0  0
  1 13  2  3  0  0  0
  2  6  2  0  0  0  0
  3  4  2  0  0  0  0
  3  5  1  0  0  0  0
  5  6  1  0  0  0  0
  5  9  1  0  0  0  0
  6  7  1  0  0  0  0
  7  8  1  0  0  0  0
  7 10  2  3  0  0  0
  8  9  2  0  0  0  0
 10 14  1  0  0  0  0
 11 12  1  0  0  0  0
 11 13  1  0  0  0  0
 11 26  2  0  0  0  0
 11 27  2  0  0  0  0
 14 15  1  0  0  0  0
 14 19  1  0  0  0  0
 15 16  2  0  0  0  0
 16 17  1  0  0  0  0
 17 18  1  0  0  0  0
 17 20  2  0  0  0  0
 18 19  2  0  0  0  0
 20 21  1  0  0  0  0
 20 24  1  0  0  0  0
 21 22  1  0  0  0  0
 22 23  1  0  0  0  0
 22 25  1  0  0  0  0
 23 24  2  0  0  0  0
  2 28  1  0  0  0  0
  3 29  1  0  0  0  0
  4 30  1  0  0  0  0
  5 31  1  0  0  0  0
 10 32  1  0  0  0  0
 12 33  1  0  0  0  0
 12 34  1  0  0  0  0
 12 35  1  0  0  0  0
 14 36  1  0  0  0  0
 15 37  1  0  0  0  0
 16 38  1  0  0  0  0
 18 39  1  0  0  0  0
 19 40  1  0  0  0  0
 21 41  1  0  0  0  0
 21 42  1  0  0  0  0
 24 43  1  0  0  0  0
 25 44  1  0  0  0  0
 25 45  1  0  0  0  0
 25 46  1  0  0  0  0
M  END
> <Name>
25

> <IC50[uM]>
0.073

$$$$
25
  -OEChem-05192314333D
 Structure written by MMmdl.
 46 49  0     1  0  0  0  0  0999 V2000
   -6.3861   12.3623  -11.9697 C   0  0  0  0  0  0  0  0  0  0  0  0
   -6.5480   11.8020  -10.7080 C   0  0  0  0  0  0  0  0  0  0  0  0
   -7.6869   10.5726  -13.0325 C   0  0  0  0  0  0  0  0  0  0  0  0
   -6.9529   11.7665  -13.1047 C   0  0  0  0  0  0  0  0  0  0  0  0
   -7.8210   10.0086  -11.7556 C   0  0  0  0  0  0  0  0  0  0  0  0
   -7.2636   10.6177  -10.5919 C   0  0  0  0  0  0  0  0  0  0  0  0
   -7.6330    9.7421   -9.5104 C   0  0  0  0  0  0  0  0  0  0  0  0
   -8.3023    8.7332   -9.9897 N   0  0  0  0  0  0  0  0  0  0  0  0
   -8.4342    8.8678  -11.3051 N   0  0  0  0  0  0  0  0  0  0  0  0
   -7.3415    9.8758   -8.0215 C   0  0  0  0  0  0  0  0  0  0  0  0
   -4.1211   13.8754  -11.2000 S   0  0  0  0  0  0  0  0  0  0  0  0
   -2.9188   12.5402  -11.7675 C   0  0  0  0  0  0  0  0  0  0  0  0
   -5.6382   13.5428  -12.1051 N   0  0  0  0  0  0  0  0  0  0  0  0
   -5.9683   10.4827   -7.7344 C   0  0  0  0  0  0  0  0  0  0  0  0
   -4.8123    9.7690   -8.0490 C   0  0  0  0  0  0  0  0  0  0  0  0
   -3.5592   10.3237   -7.7969 C   0  0  0  0  0  0  0  0  0  0  0  0
   -3.4543   11.5962   -7.2288 C   0  0  0  0  0  0  0  0  0  0  0  0
   -4.6126   12.3085   -6.9084 C   0  0  0  0  0  0  0  0  0  0  0  0
   -5.8671   11.7538   -7.1613 C   0  0  0  0  0  0  0  0  0  0  0  0
   -2.1058   12.1871   -6.9644 C   0  0  0  0  0  0  0  0  0  0  0  0
   -1.7745   13.4406   -6.4637 C   0  0  0  0  0  0  0  0  0  0  0  0
   -0.4394   13.4976   -6.4041 N   0  0  3  0  0  0  0  0  0  0  0  0
    0.1691   12.4146   -6.8015 N   0  0  0  0  0  0  0  0  0  0  0  0
   -0.8034   11.5995   -7.1773 C   0  0  0  0  0  0  0  0  0  0  0  0
    0.3694   14.6144   -5.9538 C   0  0  0  0  0  0  0  0  0  0  0  0
   -3.6497   15.1720  -11.6865 O   0  0  0  0  0  0  0  0  0  0  0  0
   -4.3650   13.6745   -9.7698 O   0  0  0  0  0  0  0  0  0  0  0  0
   -6.1257   12.2782   -9.8355 H   0  0  0  0  0  0  0  0  0  0  0  0
   -8.1227   10.1152  -13.9085 H   0  0  0  0  0  0  0  0  0  0  0  0
   -7.6287   12.5169  -13.5407 H   0  0  0  0  0  0  0  0  0  0  0  0
   -6.1214   11.5746  -13.7988 H   0  0  0  0  0  0  0  0  0  0  0  0
   -8.0330    9.5733   -7.2490 H   0  0  0  0  0  0  0  0  0  0  0  0
   -1.9543   12.6728  -11.2554 H   0  0  0  0  0  0  0  0  0  0  0  0
   -3.3298   11.5493  -11.5240 H   0  0  0  0  0  0  0  0  0  0  0  0
   -2.7704   12.6186  -12.8546 H   0  0  0  0  0  0  0  0  0  0  0  0
   -5.9765   10.0300   -6.7319 H   0  0  0  0  0  0  0  0  0  0  0  0
   -4.8884    8.7854   -8.4885 H   0  0  0  0  0  0  0  0  0  0  0  0
   -2.6658    9.7683   -8.0414 H   0  0  0  0  0  0  0  0  0  0  0  0
   -4.5366   13.2900   -6.4643 H   0  0  0  0  0  0  0  0  0  0  0  0
   -6.7612   12.3068   -6.9141 H   0  0  0  0  0  0  0  0  0  0  0  0
   -2.1568   14.2271   -7.1311 H   0  0  0  0  0  0  0  0  0  0  0  0
   -2.2034   13.5716   -5.4593 H   0  0  0  0  0  0  0  0  0  0  0  0
   -0.6430   10.6154   -7.5924 H   0  0  0  0  0  0  0  0  0  0  0  0
    1.4345   14.3489   -6.0254 H   0  0  0  0  0  0  0  0  0  0  0  0
    0.1671   15.4918   -6.5857 H   0  0  0  0  0  0  0  0  0  0  0  0
    0.1198   14.8498   -4.9087 H   0  0  0  0  0  0  0  0  0  0  0  0
  1  2  1  0  0  0  0
  1  4  1  0  0  0  0
  1 13  2  3  0  0  0
  2  6  2  0  0  0  0
  3  4  1  0  0  0  0
  3  5  2  0  0  0  0
  5  6  1  0  0  0  0
  5  9  1  0  0  0  0
  6  7  1  0  0  0  0
  7  8  1  0  0  0  0
  7 10  2  3  0  0  0
  8  9  2  0  0  0  0
 10 14  1  0  0  0  0
 11 12  1  0  0  0  0
 11 13  1  0  0  0  0
 11 26  2  0  0  0  0
 11 27  2  0  0  0  0
 14 15  1  0  0  0  0
 14 19  1  0  0  0  0
 15 16  2  0  0  0  0
 16 17  1  0  0  0  0
 17 18  1  0  0  0  0
 17 20  2  0  0  0  0
 18 19  2  0  0  0  0
 20 21  1  0  0  0  0
 20 24  1  0  0  0  0
 21 22  1  0  0  0  0
 22 23  1  0  0  0  0
 22 25  1  0  0  0  0
 23 24  2  0  0  0  0
  2 28  1  0  0  0  0
  3 29  1  0  0  0  0
  4 30  1  0  0  0  0
  4 31  1  0  0  0  0
 10 32  1  0  0  0  0
 12 33  1  0  0  0  0
 12 34  1  0  0  0  0
 12 35  1  0  0  0  0
 14 36  1  0  0  0  0
 15 37  1  0  0  0  0
 16 38  1  0  0  0  0
 18 39  1  0  0  0  0
 19 40  1  0  0  0  0
 21 41  1  0  0  0  0
 21 42  1  0  0  0  0
 24 43  1  0  0  0  0
 25 44  1  0  0  0  0
 25 45  1  0  0  0  0
 25 46  1  0  0  0  0
M  END
> <Name>
25

> <IC50[uM]>
0.073

$$$$
25
  -OEChem-05192314333D
 Structure written by MMmdl.
 46 49  0     1  0  0  0  0  0999 V2000
   -6.3861   12.3623  -11.9697 C   0  0  0  0  0  0  0  0  0  0  0  0
   -6.5480   11.8020  -10.7080 C   0  0  0  0  0  0  0  0  0  0  0  0
   -7.6869   10.5726  -13.0325 C   0  0  0  0  0  0  0  0  0  0  0  0
   -6.9529   11.7665  -13.1047 C   0  0  0  0  0  0  0  0  0  0  0  0
   -7.8210   10.0086  -11.7556 C   0  0  3  0  0  0  0  0  0  0  0  0
   -7.2636   10.6177  -10.5919 C   0  0  0  0  0  0  0  0  0  0  0  0
   -7.6330    9.7421   -9.5104 C   0  0  0  0  0  0  0  0  0  0  0  0
   -8.3023    8.7332   -9.9897 N   0  0  0  0  0  0  0  0  0  0  0  0
   -8.4342    8.8678  -11.3051 N   0  0  0  0  0  0  0  0  0  0  0  0
   -7.3415    9.8758   -8.0215 C   0  0  0  0  0  0  0  0  0  0  0  0
   -4.1211   13.8754  -11.2000 S   0  0  0  0  0  0  0  0  0  0  0  0
   -2.9188   12.5402  -11.7675 C   0  0  0  0  0  0  0  0  0  0  0  0
   -5.6382   13.5428  -12.1051 N   0  0  0  0  0  0  0  0  0  0  0  0
   -5.9683   10.4827   -7.7344 C   0  0  0  0  0  0  0  0  0  0  0  0
   -4.8123    9.7690   -8.0490 C   0  0  0  0  0  0  0  0  0  0  0  0
   -3.5592   10.3237   -7.7969 C   0  0  0  0  0  0  0  0  0  0  0  0
   -3.4543   11.5962   -7.2288 C   0  0  0  0  0  0  0  0  0  0  0  0
   -4.6126   12.3085   -6.9084 C   0  0  0  0  0  0  0  0  0  0  0  0
   -5.8671   11.7538   -7.1613 C   0  0  0  0  0  0  0  0  0  0  0  0
   -2.1058   12.1871   -6.9644 C   0  0  0  0  0  0  0  0  0  0  0  0
   -1.7745   13.4406   -6.4637 C   0  0  0  0  0  0  0  0  0  0  0  0
   -0.4394   13.4976   -6.4041 N   0  0  3  0  0  0  0  0  0  0  0  0
    0.1691   12.4146   -6.8015 N   0  0  0  0  0  0  0  0  0  0  0  0
   -0.8034   11.5995   -7.1773 C   0  0  0  0  0  0  0  0  0  0  0  0
    0.3694   14.6144   -5.9538 C   0  0  0  0  0  0  0  0  0  0  0  0
   -3.6497   15.1720  -11.6865 O   0  0  0  0  0  0  0  0  0  0  0  0
   -4.3650   13.6745   -9.7698 O   0  0  0  0  0  0  0  0  0  0  0  0
   -6.1257   12.2782   -9.8355 H   0  0  0  0  0  0  0  0  0  0  0  0
   -8.1227   10.1152  -13.9085 H   0  0  0  0  0  0  0  0  0  0  0  0
   -6.8205   12.2414  -14.0656 H   0  0  0  0  0  0  0  0  0  0  0  0
   -8.7541   10.5711  -11.6042 H   0  0  0  0  0  0  0  0  0  0  0  0
   -8.0330    9.5733   -7.2490 H   0  0  0  0  0  0  0  0  0  0  0  0
   -1.9543   12.6728  -11.2554 H   0  0  0  0  0  0  0  0  0  0  0  0
   -3.3298   11.5493  -11.5240 H   0  0  0  0  0  0  0  0  0  0  0  0
   -2.7704   12.6186  -12.8546 H   0  0  0  0  0  0  0  0  0  0  0  0
   -4.8884    8.7854   -8.4885 H   0  0  0  0  0  0  0  0  0  0  0  0
   -3.0369    9.6312   -7.1205 H   0  0  0  0  0  0  0  0  0  0  0  0
   -3.0308   10.3630   -8.7609 H   0  0  0  0  0  0  0  0  0  0  0  0
   -4.5366   13.2900   -6.4643 H   0  0  0  0  0  0  0  0  0  0  0  0
   -6.7612   12.3068   -6.9141 H   0  0  0  0  0  0  0  0  0  0  0  0
   -2.1568   14.2271   -7.1311 H   0  0  0  0  0  0  0  0  0  0  0  0
   -2.2034   13.5716   -5.4593 H   0  0  0  0  0  0  0  0  0  0  0  0
   -0.6430   10.6154   -7.5924 H   0  0  0  0  0  0  0  0  0  0  0  0
    1.4345   14.3489   -6.0254 H   0  0  0  0  0  0  0  0  0  0  0  0
    0.1671   15.4918   -6.5857 H   0  0  0  0  0  0  0  0  0  0  0  0
    0.1198   14.8498   -4.9087 H   0  0  0  0  0  0  0  0  0  0  0  0
  1  2  1  0  0  0  0
  1  4  1  0  0  0  0
  1 13  2  3  0  0  0
  2  6  2  0  0  0  0
  3  4  2  0  0  0  0
  3  5  1  0  0  0  0
  5  6  1  0  0  0  0
  5  9  1  0  0  0  0
  6  7  1  0  0  0  0
  7  8  1  0  0  0  0
  7 10  2  3  0  0  0
  8  9  2  0  0  0  0
 10 14  1  0  0  0  0
 11 12  1  0  0  0  0
 11 13  1  0  0  0  0
 11 26  2  0  0  0  0
 11 27  2  0  0  0  0
 14 15  2  0  0  0  0
 14 19  1  0  0  0  0
 15 16  1  0  0  0  0
 16 17  1  0  0  0  0
 17 18  1  0  0  0  0
 17 20  2  0  0  0  0
 18 19  2  0  0  0  0
 20 21  1  0  0  0  0
 20 24  1  0  0  0  0
 21 22  1  0  0  0  0
 22 23  1  0  0  0  0
 22 25  1  0  0  0  0
 23 24  2  0  0  0  0
  2 28  1  0  0  0  0
  3 29  1  0  0  0  0
  4 30  1  0  0  0  0
  5 31  1  0  0  0  0
 10 32  1  0  0  0  0
 12 33  1  0  0  0  0
 12 34  1  0  0  0  0
 12 35  1  0  0  0  0
 15 36  1  0  0  0  0
 16 37  1  0  0  0  0
 16 38  1  0  0  0  0
 18 39  1  0  0  0  0
 19 40  1  0  0  0  0
 21 41  1  0  0  0  0
 21 42  1  0  0  0  0
 24 43  1  0  0  0  0
 25 44  1  0  0  0  0
 25 45  1  0  0  0  0
 25 46  1  0  0  0  0
M  END
> <Name>
25

> <IC50[uM]>
0.073

$$$$
25
  -OEChem-05192314333D
 Structure written by MMmdl.
 46 49  0     1  0  0  0  0  0999 V2000
   -6.3861   12.3623  -11.9697 C   0  0  0  0  0  0  0  0  0  0  0  0
   -6.5480   11.8020  -10.7080 C   0  0  0  0  0  0  0  0  0  0  0  0
   -7.6869   10.5726  -13.0325 C   0  0  0  0  0  0  0  0  0  0  0  0
   -6.9529   11.7665  -13.1047 C   0  0  0  0  0  0  0  0  0  0  0  0
   -7.8210   10.0086  -11.7556 C   0  0  0  0  0  0  0  0  0  0  0  0
   -7.2636   10.6177  -10.5919 C   0  0  0  0  0  0  0  0  0  0  0  0
   -7.6330    9.7421   -9.5104 C   0  0  0  0  0  0  0  0  0  0  0  0
   -8.3023    8.7332   -9.9897 N   0  0  0  0  0  0  0  0  0  0  0  0
   -8.4342    8.8678  -11.3051 N   0  0  0  0  0  0  0  0  0  0  0  0
   -7.3415    9.8758   -8.0215 C   0  0  0  0  0  0  0  0  0  0  0  0
   -4.1211   13.8754  -11.2000 S   0  0  0  0  0  0  0  0  0  0  0  0
   -2.9188   12.5402  -11.7675 C   0  0  0  0  0  0  0  0  0  0  0  0
   -5.6382   13.5428  -12.1051 N   0  0  0  0  0  0  0  0  0  0  0  0
   -5.9683   10.4827   -7.7344 C   0  0  0  0  0  0  0  0  0  0  0  0
   -4.8123    9.7690   -8.0490 C   0  0  0  0  0  0  0  0  0  0  0  0
   -3.5592   10.3237   -7.7969 C   0  0  0  0  0  0  0  0  0  0  0  0
   -3.4543   11.5962   -7.2288 C   0  0  0  0  0  0  0  0  0  0  0  0
   -4.6126   12.3085   -6.9084 C   0  0  0  0  0  0  0  0  0  0  0  0
   -5.8671   11.7538   -7.1613 C   0  0  0  0  0  0  0  0  0  0  0  0
   -2.1058   12.1871   -6.9644 C   0  0  0  0  0  0  0  0  0  0  0  0
   -1.7745   13.4406   -6.4637 C   0  0  0  0  0  0  0  0  0  0  0  0
   -0.4394   13.4976   -6.4041 N   0  0  3  0  0  0  0  0  0  0  0  0
    0.1691   12.4146   -6.8015 N   0  0  0  0  0  0  0  0  0  0  0  0
   -0.8034   11.5995   -7.1773 C   0  0  0  0  0  0  0  0  0  0  0  0
    0.3694   14.6144   -5.9538 C   0  0  0  0  0  0  0  0  0  0  0  0
   -3.6497   15.1720  -11.6865 O   0  0  0  0  0  0  0  0  0  0  0  0
   -4.3650   13.6745   -9.7698 O   0  0  0  0  0  0  0  0  0  0  0  0
   -6.1257   12.2782   -9.8355 H   0  0  0  0  0  0  0  0  0  0  0  0
   -8.1227   10.1152  -13.9085 H   0  0  0  0  0  0  0  0  0  0  0  0
   -7.6287   12.5169  -13.5407 H   0  0  0  0  0  0  0  0  0  0  0  0
   -6.1214   11.5746  -13.7988 H   0  0  0  0  0  0  0  0  0  0  0  0
   -8.0330    9.5733   -7.2490 H   0  0  0  0  0  0  0  0  0  0  0  0
   -1.9543   12.6728  -11.2554 H   0  0  0  0  0  0  0  0  0  0  0  0
   -3.3298   11.5493  -11.5240 H   0  0  0  0  0  0  0  0  0  0  0  0
   -2.7704   12.6186  -12.8546 H   0  0  0  0  0  0  0  0  0  0  0  0
   -4.8884    8.7854   -8.4885 H   0  0  0  0  0  0  0  0  0  0  0  0
   -3.0369    9.6312   -7.1205 H   0  0  0  0  0  0  0  0  0  0  0  0
   -3.0308   10.3630   -8.7609 H   0  0  0  0  0  0  0  0  0  0  0  0
   -4.5366   13.2900   -6.4643 H   0  0  0  0  0  0  0  0  0  0  0  0
   -6.7612   12.3068   -6.9141 H   0  0  0  0  0  0  0  0  0  0  0  0
   -2.1568   14.2271   -7.1311 H   0  0  0  0  0  0  0  0  0  0  0  0
   -2.2034   13.5716   -5.4593 H   0  0  0  0  0  0  0  0  0  0  0  0
   -0.6430   10.6154   -7.5924 H   0  0  0  0  0  0  0  0  0  0  0  0
    1.4345   14.3489   -6.0254 H   0  0  0  0  0  0  0  0  0  0  0  0
    0.1671   15.4918   -6.5857 H   0  0  0  0  0  0  0  0  0  0  0  0
    0.1198   14.8498   -4.9087 H   0  0  0  0  0  0  0  0  0  0  0  0
  1  2  1  0  0  0  0
  1  4  1  0  0  0  0
  1 13  2  3  0  0  0
  2  6  2  0  0  0  0
  3  4  1  0  0  0  0
  3  5  2  0  0  0  0
  5  6  1  0  0  0  0
  5  9  1  0  0  0  0
  6  7  1  0  0  0  0
  7  8  1  0  0  0  0
  7 10  2  3  0  0  0
  8  9  2  0  0  0  0
 10 14  1  0  0  0  0
 11 12  1  0  0  0  0
 11 13  1  0  0  0  0
 11 26  2  0  0  0  0
 11 27  2  0  0  0  0
 14 15  2  0  0  0  0
 14 19  1  0  0  0  0
 15 16  1  0  0  0  0
 16 17  1  0  0  0  0
 17 18  1  0  0  0  0
 17 20  2  0  0  0  0
 18 19  2  0  0  0  0
 20 21  1  0  0  0  0
 20 24  1  0  0  0  0
 21 22  1  0  0  0  0
 22 23  1  0  0  0  0
 22 25  1  0  0  0  0
 23 24  2  0  0  0  0
  2 28  1  0  0  0  0
  3 29  1  0  0  0  0
  4 30  1  0  0  0  0
  4 31  1  0  0  0  0
 10 32  1  0  0  0  0
 12 33  1  0  0  0  0
 12 34  1  0  0  0  0
 12 35  1  0  0  0  0
 15 36  1  0  0  0  0
 16 37  1  0  0  0  0
 16 38  1  0  0  0  0
 18 39  1  0  0  0  0
 19 40  1  0  0  0  0
 21 41  1  0  0  0  0
 21 42  1  0  0  0  0
 24 43  1  0  0  0  0
 25 44  1  0  0  0  0
 25 45  1  0  0  0  0
 25 46  1  0  0  0  0
M  END
> <Name>
25

> <IC50[uM]>
0.073

$$$$
25
  -OEChem-05192314333D
 Structure written by MMmdl.
 46 49  0     1  0  0  0  0  0999 V2000
   -6.3861   12.3623  -11.9697 C   0  0  0  0  0  0  0  0  0  0  0  0
   -6.5480   11.8020  -10.7080 C   0  0  0  0  0  0  0  0  0  0  0  0
   -7.6869   10.5726  -13.0325 C   0  0  0  0  0  0  0  0  0  0  0  0
   -6.9529   11.7665  -13.1047 C   0  0  0  0  0  0  0  0  0  0  0  0
   -7.8210   10.0086  -11.7556 C   0  0  0  0  0  0  0  0  0  0  0  0
   -7.2636   10.6177  -10.5919 C   0  0  0  0  0  0  0  0  0  0  0  0
   -7.6330    9.7421   -9.5104 C   0  0  0  0  0  0  0  0  0  0  0  0
   -8.3023    8.7332   -9.9897 N   0  0  0  0  0  0  0  0  0  0  0  0
   -8.4342    8.8678  -11.3051 N   0  0  0  0  0  0  0  0  0  0  0  0
   -7.3415    9.8758   -8.0215 C   0  0  0  0  0  0  0  0  0  0  0  0
   -4.1211   13.8754  -11.2000 S   0  0  0  0  0  0  0  0  0  0  0  0
   -2.9188   12.5402  -11.7675 C   0  0  0  0  0  0  0  0  0  0  0  0
   -5.6382   13.5428  -12.1051 N   0  0  0  0  0  0  0  0  0  0  0  0
   -5.9683   10.4827   -7.7344 C   0  0  0  0  0  0  0  0  0  0  0  0
   -4.8123    9.7690   -8.0490 C   0  0  0  0  0  0  0  0  0  0  0  0
   -3.5592   10.3237   -7.7969 C   0  0  0  0  0  0  0  0  0  0  0  0
   -3.4543   11.5962   -7.2288 C   0  0  0  0  0  0  0  0  0  0  0  0
   -4.6126   12.3085   -6.9084 C   0  0  0  0  0  0  0  0  0  0  0  0
   -5.8671   11.7538   -7.1613 C   0  0  0  0  0  0  0  0  0  0  0  0
   -2.1058   12.1871   -6.9644 C   0  0  0  0  0  0  0  0  0  0  0  0
   -1.7745   13.4406   -6.4637 C   0  0  0  0  0  0  0  0  0  0  0  0
   -0.4394   13.4976   -6.4041 N   0  0  3  0  0  0  0  0  0  0  0  0
    0.1691   12.4146   -6.8015 N   0  0  0  0  0  0  0  0  0  0  0  0
   -0.8034   11.5995   -7.1773 C   0  0  0  0  0  0  0  0  0  0  0  0
    0.3694   14.6144   -5.9538 C   0  0  0  0  0  0  0  0  0  0  0  0
   -3.6497   15.1720  -11.6865 O   0  0  0  0  0  0  0  0  0  0  0  0
   -4.3650   13.6745   -9.7698 O   0  0  0  0  0  0  0  0  0  0  0  0
   -5.5417   11.6132  -10.3059 H   0  0  0  0  0  0  0  0  0  0  0  0
   -7.0576   12.5509  -10.0840 H   0  0  0  0  0  0  0  0  0  0  0  0
   -8.1227   10.1152  -13.9085 H   0  0  0  0  0  0  0  0  0  0  0  0
   -6.8205   12.2414  -14.0656 H   0  0  0  0  0  0  0  0  0  0  0  0
   -8.0330    9.5733   -7.2490 H   0  0  0  0  0  0  0  0  0  0  0  0
   -1.9543   12.6728  -11.2554 H   0  0  0  0  0  0  0  0  0  0  0  0
   -3.3298   11.5493  -11.5240 H   0  0  0  0  0  0  0  0  0  0  0  0
   -2.7704   12.6186  -12.8546 H   0  0  0  0  0  0  0  0  0  0  0  0
   -5.9765   10.0300   -6.7319 H   0  0  0  0  0  0  0  0  0  0  0  0
   -4.8884    8.7854   -8.4885 H   0  0  0  0  0  0  0  0  0  0  0  0
   -2.6658    9.7683   -8.0414 H   0  0  0  0  0  0  0  0  0  0  0  0
   -4.5366   13.2900   -6.4643 H   0  0  0  0  0  0  0  0  0  0  0  0
   -6.7612   12.3068   -6.9141 H   0  0  0  0  0  0  0  0  0  0  0  0
   -2.1568   14.2271   -7.1311 H   0  0  0  0  0  0  0  0  0  0  0  0
   -2.2034   13.5716   -5.4593 H   0  0  0  0  0  0  0  0  0  0  0  0
   -0.6430   10.6154   -7.5924 H   0  0  0  0  0  0  0  0  0  0  0  0
    1.4345   14.3489   -6.0254 H   0  0  0  0  0  0  0  0  0  0  0  0
    0.1671   15.4918   -6.5857 H   0  0  0  0  0  0  0  0  0  0  0  0
    0.1198   14.8498   -4.9087 H   0  0  0  0  0  0  0  0  0  0  0  0
  1  2  1  0  0  0  0
  1  4  1  0  0  0  0
  1 13  2  3  0  0  0
  2  6  1  0  0  0  0
  3  4  2  0  0  0  0
  3  5  1  0  0  0  0
  5  6  2  0  0  0  0
  5  9  1  0  0  0  0
  6  7  1  0  0  0  0
  7  8  1  0  0  0  0
  7 10  2  3  0  0  0
  8  9  2  0  0  0  0
 10 14  1  0  0  0  0
 11 12  1  0  0  0  0
 11 13  1  0  0  0  0
 11 26  2  0  0  0  0
 11 27  2  0  0  0  0
 14 15  1  0  0  0  0
 14 19  1  0  0  0  0
 15 16  2  0  0  0  0
 16 17  1  0  0  0  0
 17 18  1  0  0  0  0
 17 20  2  0  0  0  0
 18 19  2  0  0  0  0
 20 21  1  0  0  0  0
 20 24  1  0  0  0  0
 21 22  1  0  0  0  0
 22 23  1  0  0  0  0
 22 25  1  0  0  0  0
 23 24  2  0  0  0  0
  2 28  1  0  0  0  0
  2 29  1  0  0  0  0
  3 30  1  0  0  0  0
  4 31  1  0  0  0  0
 10 32  1  0  0  0  0
 12 33  1  0  0  0  0
 12 34  1  0  0  0  0
 12 35  1  0  0  0  0
 14 36  1  0  0  0  0
 15 37  1  0  0  0  0
 16 38  1  0  0  0  0
 18 39  1  0  0  0  0
 19 40  1  0  0  0  0
 21 41  1  0  0  0  0
 21 42  1  0  0  0  0
 24 43  1  0  0  0  0
 25 44  1  0  0  0  0
 25 45  1  0  0  0  0
 25 46  1  0  0  0  0
M  END
> <Name>
25

> <IC50[uM]>
0.073

$$$$
25
  -OEChem-05192314333D
 Structure written by MMmdl.
 46 49  0     1  0  0  0  0  0999 V2000
   -6.3861   12.3623  -11.9697 C   0  0  0  0  0  0  0  0  0  0  0  0
   -6.5480   11.8020  -10.7080 C   0  0  0  0  0  0  0  0  0  0  0  0
   -7.6869   10.5726  -13.0325 C   0  0  0  0  0  0  0  0  0  0  0  0
   -6.9529   11.7665  -13.1047 C   0  0  0  0  0  0  0  0  0  0  0  0
   -7.8210   10.0086  -11.7556 C   0  0  0  0  0  0  0  0  0  0  0  0
   -7.2636   10.6177  -10.5919 C   0  0  0  0  0  0  0  0  0  0  0  0
   -7.6330    9.7421   -9.5104 C   0  0  0  0  0  0  0  0  0  0  0  0
   -8.3023    8.7332   -9.9897 N   0  0  0  0  0  0  0  0  0  0  0  0
   -8.4342    8.8678  -11.3051 N   0  0  0  0  0  0  0  0  0  0  0  0
   -7.3415    9.8758   -8.0215 C   0  0  0  0  0  0  0  0  0  0  0  0
   -4.1211   13.8754  -11.2000 S   0  0  0  0  0  0  0  0  0  0  0  0
   -2.9188   12.5402  -11.7675 C   0  0  0  0  0  0  0  0  0  0  0  0
   -5.6382   13.5428  -12.1051 N   0  0  0  0  0  0  0  0  0  0  0  0
   -5.9683   10.4827   -7.7344 C   0  0  0  0  0  0  0  0  0  0  0  0
   -4.8123    9.7690   -8.0490 C   0  0  0  0  0  0  0  0  0  0  0  0
   -3.5592   10.3237   -7.7969 C   0  0  0  0  0  0  0  0  0  0  0  0
   -3.4543   11.5962   -7.2288 C   0  0  0  0  0  0  0  0  0  0  0  0
   -4.6126   12.3085   -6.9084 C   0  0  0  0  0  0  0  0  0  0  0  0
   -5.8671   11.7538   -7.1613 C   0  0  0  0  0  0  0  0  0  0  0  0
   -2.1058   12.1871   -6.9644 C   0  0  0  0  0  0  0  0  0  0  0  0
   -1.7745   13.4406   -6.4637 C   0  0  0  0  0  0  0  0  0  0  0  0
   -0.4394   13.4976   -6.4041 N   0  0  3  0  0  0  0  0  0  0  0  0
    0.1691   12.4146   -6.8015 N   0  0  0  0  0  0  0  0  0  0  0  0
   -0.8034   11.5995   -7.1773 C   0  0  0  0  0  0  0  0  0  0  0  0
    0.3694   14.6144   -5.9538 C   0  0  0  0  0  0  0  0  0  0  0  0
   -3.6497   15.1720  -11.6865 O   0  0  0  0  0  0  0  0  0  0  0  0
   -4.3650   13.6745   -9.7698 O   0  0  0  0  0  0  0  0  0  0  0  0
   -5.5417   11.6132  -10.3059 H   0  0  0  0  0  0  0  0  0  0  0  0
   -7.0576   12.5509  -10.0840 H   0  0  0  0  0  0  0  0  0  0  0  0
   -8.1227   10.1152  -13.9085 H   0  0  0  0  0  0  0  0  0  0  0  0
   -6.8205   12.2414  -14.0656 H   0  0  0  0  0  0  0  0  0  0  0  0
   -8.0330    9.5733   -7.2490 H   0  0  0  0  0  0  0  0  0  0  0  0
   -1.9543   12.6728  -11.2554 H   0  0  0  0  0  0  0  0  0  0  0  0
   -3.3298   11.5493  -11.5240 H   0  0  0  0  0  0  0  0  0  0  0  0
   -2.7704   12.6186  -12.8546 H   0  0  0  0  0  0  0  0  0  0  0  0
   -4.8884    8.7854   -8.4885 H   0  0  0  0  0  0  0  0  0  0  0  0
   -3.0369    9.6312   -7.1205 H   0  0  0  0  0  0  0  0  0  0  0  0
   -3.0308   10.3630   -8.7609 H   0  0  0  0  0  0  0  0  0  0  0  0
   -4.5366   13.2900   -6.4643 H   0  0  0  0  0  0  0  0  0  0  0  0
   -6.7612   12.3068   -6.9141 H   0  0  0  0  0  0  0  0  0  0  0  0
   -2.1568   14.2271   -7.1311 H   0  0  0  0  0  0  0  0  0  0  0  0
   -2.2034   13.5716   -5.4593 H   0  0  0  0  0  0  0  0  0  0  0  0
   -0.6430   10.6154   -7.5924 H   0  0  0  0  0  0  0  0  0  0  0  0
    1.4345   14.3489   -6.0254 H   0  0  0  0  0  0  0  0  0  0  0  0
    0.1671   15.4918   -6.5857 H   0  0  0  0  0  0  0  0  0  0  0  0
    0.1198   14.8498   -4.9087 H   0  0  0  0  0  0  0  0  0  0  0  0
  1  2  1  0  0  0  0
  1  4  1  0  0  0  0
  1 13  2  3  0  0  0
  2  6  1  0  0  0  0
  3  4  2  0  0  0  0
  3  5  1  0  0  0  0
  5  6  2  0  0  0  0
  5  9  1  0  0  0  0
  6  7  1  0  0  0  0
  7  8  1  0  0  0  0
  7 10  2  3  0  0  0
  8  9  2  0  0  0  0
 10 14  1  0  0  0  0
 11 12  1  0  0  0  0
 11 13  1  0  0  0  0
 11 26  2  0  0  0  0
 11 27  2  0  0  0  0
 14 15  2  0  0  0  0
 14 19  1  0  0  0  0
 15 16  1  0  0  0  0
 16 17  1  0  0  0  0
 17 18  1  0  0  0  0
 17 20  2  0  0  0  0
 18 19  2  0  0  0  0
 20 21  1  0  0  0  0
 20 24  1  0  0  0  0
 21 22  1  0  0  0  0
 22 23  1  0  0  0  0
 22 25  1  0  0  0  0
 23 24  2  0  0  0  0
  2 28  1  0  0  0  0
  2 29  1  0  0  0  0
  3 30  1  0  0  0  0
  4 31  1  0  0  0  0
 10 32  1  0  0  0  0
 12 33  1  0  0  0  0
 12 34  1  0  0  0  0
 12 35  1  0  0  0  0
 15 36  1  0  0  0  0
 16 37  1  0  0  0  0
 16 38  1  0  0  0  0
 18 39  1  0  0  0  0
 19 40  1  0  0  0  0
 21 41  1  0  0  0  0
 21 42  1  0  0  0  0
 24 43  1  0  0  0  0
 25 44  1  0  0  0  0
 25 45  1  0  0  0  0
 25 46  1  0  0  0  0
M  END
> <Name>
25

> <IC50[uM]>
0.073

$$$$
25
  -OEChem-05192314333D
 Structure written by MMmdl.
 46 49  0     1  0  0  0  0  0999 V2000
   -6.3861   12.3623  -11.9697 C   0  0  0  0  0  0  0  0  0  0  0  0
   -6.5480   11.8020  -10.7080 C   0  0  0  0  0  0  0  0  0  0  0  0
   -7.6869   10.5726  -13.0325 C   0  0  0  0  0  0  0  0  0  0  0  0
   -6.9529   11.7665  -13.1047 C   0  0  0  0  0  0  0  0  0  0  0  0
   -7.8210   10.0086  -11.7556 C   0  0  0  0  0  0  0  0  0  0  0  0
   -7.2636   10.6177  -10.5919 C   0  0  0  0  0  0  0  0  0  0  0  0
   -7.6330    9.7421   -9.5104 C   0  0  0  0  0  0  0  0  0  0  0  0
   -8.3023    8.7332   -9.9897 N   0  0  0  0  0  0  0  0  0  0  0  0
   -8.4342    8.8678  -11.3051 N   0  0  0  0  0  0  0  0  0  0  0  0
   -7.3415    9.8758   -8.0215 C   0  0  0  0  0  0  0  0  0  0  0  0
   -4.1211   13.8754  -11.2000 S   0  0  0  0  0  0  0  0  0  0  0  0
   -2.9188   12.5402  -11.7675 C   0  0  0  0  0  0  0  0  0  0  0  0
   -5.6382   13.5428  -12.1051 N   0  0  0  0  0  0  0  0  0  0  0  0
   -5.9683   10.4827   -7.7344 C   0  0  0  0  0  0  0  0  0  0  0  0
   -4.8123    9.7690   -8.0490 C   0  0  0  0  0  0  0  0  0  0  0  0
   -3.5592   10.3237   -7.7969 C   0  0  0  0  0  0  0  0  0  0  0  0
   -3.4543   11.5962   -7.2288 C   0  0  0  0  0  0  0  0  0  0  0  0
   -4.6126   12.3085   -6.9084 C   0  0  0  0  0  0  0  0  0  0  0  0
   -5.8671   11.7538   -7.1613 C   0  0  0  0  0  0  0  0  0  0  0  0
   -2.1058   12.1871   -6.9644 C   0  0  0  0  0  0  0  0  0  0  0  0
   -1.7745   13.4406   -6.4637 C   0  0  0  0  0  0  0  0  0  0  0  0
   -0.4394   13.4976   -6.4041 N   0  0  3  0  0  0  0  0  0  0  0  0
    0.1691   12.4146   -6.8015 N   0  0  0  0  0  0  0  0  0  0  0  0
   -0.8034   11.5995   -7.1773 C   0  0  0  0  0  0  0  0  0  0  0  0
    0.3694   14.6144   -5.9538 C   0  0  0  0  0  0  0  0  0  0  0  0
   -3.6497   15.1720  -11.6865 O   0  0  0  0  0  0  0  0  0  0  0  0
   -4.3650   13.6745   -9.7698 O   0  0  0  0  0  0  0  0  0  0  0  0
   -6.1257   12.2782   -9.8355 H   0  0  0  0  0  0  0  0  0  0  0  0
   -8.1227   10.1152  -13.9085 H   0  0  0  0  0  0  0  0  0  0  0  0
   -6.8205   12.2414  -14.0656 H   0  0  0  0  0  0  0  0  0  0  0  0
   -8.0330    9.5733   -7.2490 H   0  0  0  0  0  0  0  0  0  0  0  0
   -1.9543   12.6728  -11.2554 H   0  0  0  0  0  0  0  0  0  0  0  0
   -3.3298   11.5493  -11.5240 H   0  0  0  0  0  0  0  0  0  0  0  0
   -2.7704   12.6186  -12.8546 H   0  0  0  0  0  0  0  0  0  0  0  0
   -4.8884    8.7854   -8.4885 H   0  0  0  0  0  0  0  0  0  0  0  0
   -2.6658    9.7683   -8.0414 H   0  0  0  0  0  0  0  0  0  0  0  0
   -3.4550   12.0453   -8.2329 H   0  0  0  0  0  0  0  0  0  0  0  0
   -4.5366   13.2900   -6.4643 H   0  0  0  0  0  0  0  0  0  0  0  0
   -6.7612   12.3068   -6.9141 H   0  0  0  0  0  0  0  0  0  0  0  0
   -2.4642   14.2207   -6.1771 H   0  0  0  0  0  0  0  0  0  0  0  0
    0.7780   12.6141   -7.5692 H   0  0  0  0  0  0  0  0  0  0  0  0
   -0.7330   10.6686   -6.5955 H   0  0  0  0  0  0  0  0  0  0  0  0
   -0.6852   11.3731   -8.2472 H   0  0  0  0  0  0  0  0  0  0  0  0
    1.4345   14.3488   -6.0253 H   0  0  0  0  0  0  0  0  0  0  0  0
    0.1672   15.4917   -6.5858 H   0  0  0  0  0  0  0  0  0  0  0  0
    0.1197   14.8499   -4.9087 H   0  0  0  0  0  0  0  0  0  0  0  0
  1  2  1  0  0  0  0
  1  4  1  0  0  0  0
  1 13  2  3  0  0  0
  2  6  2  0  0  0  0
  3  4  2  0  0  0  0
  3  5  1  0  0  0  0
  5  6  1  0  0  0  0
  5  9  2  0  0  0  0
  6  7  1  0  0  0  0
  7  8  2  0  0  0  0
  7 10  1  0  0  0  0
  8  9  1  0  0  0  0
 10 14  2  0  0  0  0
 11 12  1  0  0  0  0
 11 13  1  0  0  0  0
 11 26  2  0  0  0  0
 11 27  2  0  0  0  0
 14 15  1  0  0  0  0
 14 19  1  0  0  0  0
 15 16  2  0  0  0  0
 16 17  1  0  0  0  0
 17 18  1  0  0  0  0
 17 20  1  0  0  0  0
 18 19  2  0  0  0  0
 20 21  2  0  0  0  0
 20 24  1  0  0  0  0
 21 22  1  0  0  0  0
 22 23  1  0  0  0  0
 22 25  1  0  0  0  0
 23 24  1  0  0  0  0
  2 28  1  0  0  0  0
  3 29  1  0  0  0  0
  4 30  1  0  0  0  0
 10 31  1  0  0  0  0
 12 32  1  0  0  0  0
 12 33  1  0  0  0  0
 12 34  1  0  0  0  0
 15 35  1  0  0  0  0
 16 36  1  0  0  0  0
 17 37  1  0  0  0  0
 18 38  1  0  0  0  0
 19 39  1  0  0  0  0
 21 40  1  0  0  0  0
 23 41  1  0  0  0  0
 24 42  1  0  0  0  0
 24 43  1  0  0  0  0
 25 44  1  0  0  0  0
 25 45  1  0  0  0  0
 25 46  1  0  0  0  0
M  END
> <Name>
25

> <IC50[uM]>
0.073

$$$$
25
  -OEChem-05192314333D
 Structure written by MMmdl.
 46 49  0     1  0  0  0  0  0999 V2000
   -6.3861   12.3623  -11.9697 C   0  0  0  0  0  0  0  0  0  0  0  0
   -6.5480   11.8020  -10.7080 C   0  0  0  0  0  0  0  0  0  0  0  0
   -7.6869   10.5726  -13.0325 C   0  0  0  0  0  0  0  0  0  0  0  0
   -6.9529   11.7665  -13.1047 C   0  0  0  0  0  0  0  0  0  0  0  0
   -7.8210   10.0086  -11.7556 C   0  0  0  0  0  0  0  0  0  0  0  0
   -7.2636   10.6177  -10.5919 C   0  0  0  0  0  0  0  0  0  0  0  0
   -7.6330    9.7421   -9.5104 C   0  0  0  0  0  0  0  0  0  0  0  0
   -8.3023    8.7332   -9.9897 N   0  0  0  0  0  0  0  0  0  0  0  0
   -8.4342    8.8678  -11.3051 N   0  0  0  0  0  0  0  0  0  0  0  0
   -7.3415    9.8758   -8.0215 C   0  0  0  0  0  0  0  0  0  0  0  0
   -4.1211   13.8754  -11.2000 S   0  0  0  0  0  0  0  0  0  0  0  0
   -2.9188   12.5402  -11.7675 C   0  0  0  0  0  0  0  0  0  0  0  0
   -5.6382   13.5428  -12.1051 N   0  0  0  0  0  0  0  0  0  0  0  0
   -5.9683   10.4827   -7.7344 C   0  0  0  0  0  0  0  0  0  0  0  0
   -4.8123    9.7690   -8.0490 C   0  0  0  0  0  0  0  0  0  0  0  0
   -3.5592   10.3237   -7.7969 C   0  0  0  0  0  0  0  0  0  0  0  0
   -3.4543   11.5962   -7.2288 C   0  0  0  0  0  0  0  0  0  0  0  0
   -4.6126   12.3085   -6.9084 C   0  0  0  0  0  0  0  0  0  0  0  0
   -5.8671   11.7538   -7.1613 C   0  0  0  0  0  0  0  0  0  0  0  0
   -2.1058   12.1871   -6.9644 C   0  0  0  0  0  0  0  0  0  0  0  0
   -1.7745   13.4406   -6.4637 C   0  0  0  0  0  0  0  0  0  0  0  0
   -0.4394   13.4976   -6.4041 N   0  0  3  0  0  0  0  0  0  0  0  0
    0.1691   12.4146   -6.8015 N   0  0  0  0  0  0  0  0  0  0  0  0
   -0.8034   11.5995   -7.1773 C   0  0  0  0  0  0  0  0  0  0  0  0
    0.3694   14.6144   -5.9538 C   0  0  0  0  0  0  0  0  0  0  0  0
   -3.6497   15.1720  -11.6865 O   0  0  0  0  0  0  0  0  0  0  0  0
   -4.3650   13.6745   -9.7698 O   0  0  0  0  0  0  0  0  0  0  0  0
   -6.1257   12.2782   -9.8355 H   0  0  0  0  0  0  0  0  0  0  0  0
   -8.1227   10.1152  -13.9085 H   0  0  0  0  0  0  0  0  0  0  0  0
   -6.8205   12.2414  -14.0656 H   0  0  0  0  0  0  0  0  0  0  0  0
   -8.0330    9.5733   -7.2490 H   0  0  0  0  0  0  0  0  0  0  0  0
   -1.9543   12.6728  -11.2554 H   0  0  0  0  0  0  0  0  0  0  0  0
   -3.3298   11.5493  -11.5240 H   0  0  0  0  0  0  0  0  0  0  0  0
   -2.7704   12.6186  -12.8546 H   0  0  0  0  0  0  0  0  0  0  0  0
   -4.8884    8.7854   -8.4885 H   0  0  0  0  0  0  0  0  0  0  0  0
   -2.6658    9.7683   -8.0414 H   0  0  0  0  0  0  0  0  0  0  0  0
   -4.5366   13.2900   -6.4643 H   0  0  0  0  0  0  0  0  0  0  0  0
   -6.3910   12.4480   -7.8348 H   0  0  0  0  0  0  0  0  0  0  0  0
   -6.3948   11.7100   -6.1971 H   0  0  0  0  0  0  0  0  0  0  0  0
   -2.4642   14.2207   -6.1771 H   0  0  0  0  0  0  0  0  0  0  0  0
    0.7780   12.6141   -7.5692 H   0  0  0  0  0  0  0  0  0  0  0  0
   -0.7330   10.6686   -6.5955 H   0  0  0  0  0  0  0  0  0  0  0  0
   -0.6852   11.3731   -8.2472 H   0  0  0  0  0  0  0  0  0  0  0  0
    1.4345   14.3488   -6.0253 H   0  0  0  0  0  0  0  0  0  0  0  0
    0.1672   15.4917   -6.5858 H   0  0  0  0  0  0  0  0  0  0  0  0
    0.1197   14.8499   -4.9087 H   0  0  0  0  0  0  0  0  0  0  0  0
  1  2  1  0  0  0  0
  1  4  1  0  0  0  0
  1 13  2  3  0  0  0
  2  6  2  0  0  0  0
  3  4  2  0  0  0  0
  3  5  1  0  0  0  0
  5  6  1  0  0  0  0
  5  9  2  0  0  0  0
  6  7  1  0  0  0  0
  7  8  2  0  0  0  0
  7 10  1  0  0  0  0
  8  9  1  0  0  0  0
 10 14  2  3  0  0  0
 11 12  1  0  0  0  0
 11 13  1  0  0  0  0
 11 26  2  0  0  0  0
 11 27  2  0  0  0  0
 14 15  1  0  0  0  0
 14 19  1  0  0  0  0
 15 16  2  0  0  0  0
 16 17  1  0  0  0  0
 17 18  2  0  0  0  0
 17 20  1  0  0  0  0
 18 19  1  0  0  0  0
 20 21  2  0  0  0  0
 20 24  1  0  0  0  0
 21 22  1  0  0  0  0
 22 23  1  0  0  0  0
 22 25  1  0  0  0  0
 23 24  1  0  0  0  0
  2 28  1  0  0  0  0
  3 29  1  0  0  0  0
  4 30  1  0  0  0  0
 10 31  1  0  0  0  0
 12 32  1  0  0  0  0
 12 33  1  0  0  0  0
 12 34  1  0  0  0  0
 15 35  1  0  0  0  0
 16 36  1  0  0  0  0
 18 37  1  0  0  0  0
 19 38  1  0  0  0  0
 19 39  1  0  0  0  0
 21 40  1  0  0  0  0
 23 41  1  0  0  0  0
 24 42  1  0  0  0  0
 24 43  1  0  0  0  0
 25 44  1  0  0  0  0
 25 45  1  0  0  0  0
 25 46  1  0  0  0  0
M  END
> <Name>
25

> <IC50[uM]>
0.073

$$$$
25
  -OEChem-05192314333D
 Structure written by MMmdl.
 46 49  0     1  0  0  0  0  0999 V2000
   -6.3861   12.3623  -11.9697 C   0  0  0  0  0  0  0  0  0  0  0  0
   -6.5480   11.8020  -10.7080 C   0  0  0  0  0  0  0  0  0  0  0  0
   -7.6869   10.5726  -13.0325 C   0  0  0  0  0  0  0  0  0  0  0  0
   -6.9529   11.7665  -13.1047 C   0  0  0  0  0  0  0  0  0  0  0  0
   -7.8210   10.0086  -11.7556 C   0  0  0  0  0  0  0  0  0  0  0  0
   -7.2636   10.6177  -10.5919 C   0  0  0  0  0  0  0  0  0  0  0  0
   -7.6330    9.7421   -9.5104 C   0  0  0  0  0  0  0  0  0  0  0  0
   -8.3023    8.7332   -9.9897 N   0  0  0  0  0  0  0  0  0  0  0  0
   -8.4342    8.8678  -11.3051 N   0  0  0  0  0  0  0  0  0  0  0  0
   -7.3415    9.8758   -8.0215 C   0  0  0  0  0  0  0  0  0  0  0  0
   -4.1211   13.8754  -11.2000 S   0  0  0  0  0  0  0  0  0  0  0  0
   -2.9188   12.5402  -11.7675 C   0  0  0  0  0  0  0  0  0  0  0  0
   -5.6382   13.5428  -12.1051 N   0  0  0  0  0  0  0  0  0  0  0  0
   -5.9683   10.4827   -7.7344 C   0  0  0  0  0  0  0  0  0  0  0  0
   -4.8123    9.7690   -8.0490 C   0  0  0  0  0  0  0  0  0  0  0  0
   -3.5592   10.3237   -7.7969 C   0  0  0  0  0  0  0  0  0  0  0  0
   -3.4543   11.5962   -7.2288 C   0  0  0  0  0  0  0  0  0  0  0  0
   -4.6126   12.3085   -6.9084 C   0  0  0  0  0  0  0  0  0  0  0  0
   -5.8671   11.7538   -7.1613 C   0  0  0  0  0  0  0  0  0  0  0  0
   -2.1058   12.1871   -6.9644 C   0  0  0  0  0  0  0  0  0  0  0  0
   -1.7745   13.4406   -6.4637 C   0  0  0  0  0  0  0  0  0  0  0  0
   -0.4394   13.4976   -6.4041 N   0  0  3  0  0  0  0  0  0  0  0  0
    0.1691   12.4146   -6.8015 N   0  0  0  0  0  0  0  0  0  0  0  0
   -0.8034   11.5995   -7.1773 C   0  0  0  0  0  0  0  0  0  0  0  0
    0.3694   14.6144   -5.9538 C   0  0  0  0  0  0  0  0  0  0  0  0
   -3.6497   15.1720  -11.6865 O   0  0  0  0  0  0  0  0  0  0  0  0
   -4.3650   13.6745   -9.7698 O   0  0  0  0  0  0  0  0  0  0  0  0
   -6.1257   12.2782   -9.8355 H   0  0  0  0  0  0  0  0  0  0  0  0
   -8.1227   10.1152  -13.9085 H   0  0  0  0  0  0  0  0  0  0  0  0
   -6.8205   12.2414  -14.0656 H   0  0  0  0  0  0  0  0  0  0  0  0
   -8.0330    9.5733   -7.2490 H   0  0  0  0  0  0  0  0  0  0  0  0
   -1.9543   12.6728  -11.2554 H   0  0  0  0  0  0  0  0  0  0  0  0
   -3.3298   11.5493  -11.5240 H   0  0  0  0  0  0  0  0  0  0  0  0
   -2.7704   12.6186  -12.8546 H   0  0  0  0  0  0  0  0  0  0  0  0
   -4.8884    8.7854   -8.4885 H   0  0  0  0  0  0  0  0  0  0  0  0
   -2.6658    9.7683   -8.0414 H   0  0  0  0  0  0  0  0  0  0  0  0
   -3.4550   12.0453   -8.2329 H   0  0  0  0  0  0  0  0  0  0  0  0
   -4.5366   13.2900   -6.4643 H   0  0  0  0  0  0  0  0  0  0  0  0
   -6.7612   12.3068   -6.9141 H   0  0  0  0  0  0  0  0  0  0  0  0
   -2.1568   14.2271   -7.1311 H   0  0  0  0  0  0  0  0  0  0  0  0
   -2.2034   13.5716   -5.4593 H   0  0  0  0  0  0  0  0  0  0  0  0
    0.7780   12.6141   -7.5692 H   0  0  0  0  0  0  0  0  0  0  0  0
   -0.6430   10.6154   -7.5924 H   0  0  0  0  0  0  0  0  0  0  0  0
    1.4345   14.3488   -6.0253 H   0  0  0  0  0  0  0  0  0  0  0  0
    0.1672   15.4917   -6.5858 H   0  0  0  0  0  0  0  0  0  0  0  0
    0.1197   14.8499   -4.9087 H   0  0  0  0  0  0  0  0  0  0  0  0
  1  2  1  0  0  0  0
  1  4  1  0  0  0  0
  1 13  2  3  0  0  0
  2  6  2  0  0  0  0
  3  4  2  0  0  0  0
  3  5  1  0  0  0  0
  5  6  1  0  0  0  0
  5  9  2  0  0  0  0
  6  7  1  0  0  0  0
  7  8  2  0  0  0  0
  7 10  1  0  0  0  0
  8  9  1  0  0  0  0
 10 14  2  0  0  0  0
 11 12  1  0  0  0  0
 11 13  1  0  0  0  0
 11 26  2  0  0  0  0
 11 27  2  0  0  0  0
 14 15  1  0  0  0  0
 14 19  1  0  0  0  0
 15 16  2  0  0  0  0
 16 17  1  0  0  0  0
 17 18  1  0  0  0  0
 17 20  1  0  0  0  0
 18 19  2  0  0  0  0
 20 21  1  0  0  0  0
 20 24  2  0  0  0  0
 21 22  1  0  0  0  0
 22 23  1  0  0  0  0
 22 25  1  0  0  0  0
 23 24  1  0  0  0  0
  2 28  1  0  0  0  0
  3 29  1  0  0  0  0
  4 30  1  0  0  0  0
 10 31  1  0  0  0  0
 12 32  1  0  0  0  0
 12 33  1  0  0  0  0
 12 34  1  0  0  0  0
 15 35  1  0  0  0  0
 16 36  1  0  0  0  0
 17 37  1  0  0  0  0
 18 38  1  0  0  0  0
 19 39  1  0  0  0  0
 21 40  1  0  0  0  0
 21 41  1  0  0  0  0
 23 42  1  0  0  0  0
 24 43  1  0  0  0  0
 25 44  1  0  0  0  0
 25 45  1  0  0  0  0
 25 46  1  0  0  0  0
M  END
> <Name>
25

> <IC50[uM]>
0.073

$$$$
25
  -OEChem-05192314333D
 Structure written by MMmdl.
 46 49  0     1  0  0  0  0  0999 V2000
   -6.3861   12.3623  -11.9697 C   0  0  0  0  0  0  0  0  0  0  0  0
   -6.5480   11.8020  -10.7080 C   0  0  0  0  0  0  0  0  0  0  0  0
   -7.6869   10.5726  -13.0325 C   0  0  0  0  0  0  0  0  0  0  0  0
   -6.9529   11.7665  -13.1047 C   0  0  0  0  0  0  0  0  0  0  0  0
   -7.8210   10.0086  -11.7556 C   0  0  0  0  0  0  0  0  0  0  0  0
   -7.2636   10.6177  -10.5919 C   0  0  0  0  0  0  0  0  0  0  0  0
   -7.6330    9.7421   -9.5104 C   0  0  0  0  0  0  0  0  0  0  0  0
   -8.3023    8.7332   -9.9897 N   0  0  0  0  0  0  0  0  0  0  0  0
   -8.4342    8.8678  -11.3051 N   0  0  0  0  0  0  0  0  0  0  0  0
   -7.3415    9.8758   -8.0215 C   0  0  0  0  0  0  0  0  0  0  0  0
   -4.1211   13.8754  -11.2000 S   0  0  0  0  0  0  0  0  0  0  0  0
   -2.9188   12.5402  -11.7675 C   0  0  0  0  0  0  0  0  0  0  0  0
   -5.6382   13.5428  -12.1051 N   0  0  0  0  0  0  0  0  0  0  0  0
   -5.9683   10.4827   -7.7344 C   0  0  0  0  0  0  0  0  0  0  0  0
   -4.8123    9.7690   -8.0490 C   0  0  0  0  0  0  0  0  0  0  0  0
   -3.5592   10.3237   -7.7969 C   0  0  0  0  0  0  0  0  0  0  0  0
   -3.4543   11.5962   -7.2288 C   0  0  0  0  0  0  0  0  0  0  0  0
   -4.6126   12.3085   -6.9084 C   0  0  0  0  0  0  0  0  0  0  0  0
   -5.8671   11.7538   -7.1613 C   0  0  0  0  0  0  0  0  0  0  0  0
   -2.1058   12.1871   -6.9644 C   0  0  0  0  0  0  0  0  0  0  0  0
   -1.7745   13.4406   -6.4637 C   0  0  0  0  0  0  0  0  0  0  0  0
   -0.4394   13.4976   -6.4041 N   0  0  3  0  0  0  0  0  0  0  0  0
    0.1691   12.4146   -6.8015 N   0  0  0  0  0  0  0  0  0  0  0  0
   -0.8034   11.5995   -7.1773 C   0  0  0  0  0  0  0  0  0  0  0  0
    0.3694   14.6144   -5.9538 C   0  0  0  0  0  0  0  0  0  0  0  0
   -3.6497   15.1720  -11.6865 O   0  0  0  0  0  0  0  0  0  0  0  0
   -4.3650   13.6745   -9.7698 O   0  0  0  0  0  0  0  0  0  0  0  0
   -6.1257   12.2782   -9.8355 H   0  0  0  0  0  0  0  0  0  0  0  0
   -8.1227   10.1152  -13.9085 H   0  0  0  0  0  0  0  0  0  0  0  0
   -6.8205   12.2414  -14.0656 H   0  0  0  0  0  0  0  0  0  0  0  0
   -8.0330    9.5733   -7.2490 H   0  0  0  0  0  0  0  0  0  0  0  0
   -1.9543   12.6728  -11.2554 H   0  0  0  0  0  0  0  0  0  0  0  0
   -3.3298   11.5493  -11.5240 H   0  0  0  0  0  0  0  0  0  0  0  0
   -2.7704   12.6186  -12.8546 H   0  0  0  0  0  0  0  0  0  0  0  0
   -4.8884    8.7854   -8.4885 H   0  0  0  0  0  0  0  0  0  0  0  0
   -2.6658    9.7683   -8.0414 H   0  0  0  0  0  0  0  0  0  0  0  0
   -4.5366   13.2900   -6.4643 H   0  0  0  0  0  0  0  0  0  0  0  0
   -6.3910   12.4480   -7.8348 H   0  0  0  0  0  0  0  0  0  0  0  0
   -6.3948   11.7100   -6.1971 H   0  0  0  0  0  0  0  0  0  0  0  0
   -2.1568   14.2271   -7.1311 H   0  0  0  0  0  0  0  0  0  0  0  0
   -2.2034   13.5716   -5.4593 H   0  0  0  0  0  0  0  0  0  0  0  0
    0.7780   12.6141   -7.5692 H   0  0  0  0  0  0  0  0  0  0  0  0
   -0.6430   10.6154   -7.5924 H   0  0  0  0  0  0  0  0  0  0  0  0
    1.4345   14.3488   -6.0253 H   0  0  0  0  0  0  0  0  0  0  0  0
    0.1672   15.4917   -6.5858 H   0  0  0  0  0  0  0  0  0  0  0  0
    0.1197   14.8499   -4.9087 H   0  0  0  0  0  0  0  0  0  0  0  0
  1  2  1  0  0  0  0
  1  4  1  0  0  0  0
  1 13  2  3  0  0  0
  2  6  2  0  0  0  0
  3  4  2  0  0  0  0
  3  5  1  0  0  0  0
  5  6  1  0  0  0  0
  5  9  2  0  0  0  0
  6  7  1  0  0  0  0
  7  8  2  0  0  0  0
  7 10  1  0  0  0  0
  8  9  1  0  0  0  0
 10 14  2  3  0  0  0
 11 12  1  0  0  0  0
 11 13  1  0  0  0  0
 11 26  2  0  0  0  0
 11 27  2  0  0  0  0
 14 15  1  0  0  0  0
 14 19  1  0  0  0  0
 15 16  2  0  0  0  0
 16 17  1  0  0  0  0
 17 18  2  0  0  0  0
 17 20  1  0  0  0  0
 18 19  1  0  0  0  0
 20 21  1  0  0  0  0
 20 24  2  0  0  0  0
 21 22  1  0  0  0  0
 22 23  1  0  0  0  0
 22 25  1  0  0  0  0
 23 24  1  0  0  0  0
  2 28  1  0  0  0  0
  3 29  1  0  0  0  0
  4 30  1  0  0  0  0
 10 31  1  0  0  0  0
 12 32  1  0  0  0  0
 12 33  1  0  0  0  0
 12 34  1  0  0  0  0
 15 35  1  0  0  0  0
 16 36  1  0  0  0  0
 18 37  1  0  0  0  0
 19 38  1  0  0  0  0
 19 39  1  0  0  0  0
 21 40  1  0  0  0  0
 21 41  1  0  0  0  0
 23 42  1  0  0  0  0
 24 43  1  0  0  0  0
 25 44  1  0  0  0  0
 25 45  1  0  0  0  0
 25 46  1  0  0  0  0
M  END
> <Name>
25

> <IC50[uM]>
0.073

$$$$
