41
  -OEChem-05192314333D
 Structure written by MMmdl.
 55 59  0     0  0  0  0  0  0999 V2000
   -6.3365   12.3514  -12.0169 C   0  0  0  0  0  0  0  0  0  0  0  0
   -6.4737   11.7818  -10.7533 C   0  0  0  0  0  0  0  0  0  0  0  0
   -7.7043   10.5771  -13.0419 C   0  0  0  0  0  0  0  0  0  0  0  0
   -6.9700   11.7706  -13.1413 C   0  0  0  0  0  0  0  0  0  0  0  0
   -7.8117   10.0060  -11.7679 C   0  0  0  0  0  0  0  0  0  0  0  0
   -7.2142   10.6153  -10.6085 C   0  0  0  0  0  0  0  0  0  0  0  0
   -7.6079    9.7475   -9.5180 C   0  0  0  0  0  0  0  0  0  0  0  0
   -8.2848    8.7450   -9.9896 N   0  0  0  0  0  0  0  0  0  0  0  0
   -8.4180    8.8715  -11.3012 N   0  0  0  0  0  0  0  0  0  0  0  0
   -7.3345    9.8877   -8.0248 C   0  0  0  0  0  0  0  0  0  0  0  0
   -4.3847   13.7235  -11.4418 N   0  0  0  0  0  0  0  0  0  0  0  0
   -5.5533   13.6485  -12.1711 C   0  0  0  0  0  0  0  0  0  0  0  0
   -5.9795   14.5724  -12.8566 O   0  0  0  0  0  0  0  0  0  0  0  0
   -5.9627   10.4850   -7.7364 C   0  0  0  0  0  0  0  0  0  0  0  0
   -5.8552   11.7581   -7.1652 C   0  0  0  0  0  0  0  0  0  0  0  0
   -4.5966   12.3060   -6.9181 C   0  0  0  0  0  0  0  0  0  0  0  0
   -3.4424   11.5865   -7.2381 C   0  0  0  0  0  0  0  0  0  0  0  0
   -3.5593   10.3139   -7.8013 C   0  0  0  0  0  0  0  0  0  0  0  0
   -4.8122    9.7647   -8.0513 C   0  0  0  0  0  0  0  0  0  0  0  0
   -2.0942   12.1662   -6.9781 C   0  0  0  0  0  0  0  0  0  0  0  0
   -1.7414   13.4274   -6.4937 C   0  0  0  0  0  0  0  0  0  0  0  0
   -0.4089   13.4560   -6.4321 N   0  0  0  0  0  0  0  0  0  0  0  0
    0.1814   12.3590   -6.8068 N   0  0  0  0  0  0  0  0  0  0  0  0
   -0.8029   11.5527   -7.1728 C   0  0  0  0  0  0  0  0  0  0  0  0
    0.4236   14.5699   -5.9945 C   0  0  0  0  0  0  0  0  0  0  0  0
   -3.7594   15.0422  -11.2114 C   0  0  0  0  0  0  0  0  0  0  0  0
   -2.3424   15.0924  -11.7154 C   0  0  0  0  0  0  0  0  0  0  0  0
   -1.5130   13.9202  -11.2644 C   0  0  0  0  0  0  0  0  0  0  0  0
   -2.1771   12.5990  -11.6641 C   0  0  0  0  0  0  0  0  0  0  0  0
   -3.6239   12.4833  -11.0641 C   0  0  0  0  0  0  0  0  0  0  0  0
   -6.0088   12.2426   -9.8942 H   0  0  0  0  0  0  0  0  0  0  0  0
   -8.1640   10.1218  -13.9067 H   0  0  0  0  0  0  0  0  0  0  0  0
   -6.8867   12.2580  -14.1015 H   0  0  0  0  0  0  0  0  0  0  0  0
   -8.6506    7.9907   -9.4444 H   0  0  0  0  0  0  0  0  0  0  0  0
   -8.1030   10.5405   -7.5852 H   0  0  0  0  0  0  0  0  0  0  0  0
   -7.3903    8.8919   -7.5609 H   0  0  0  0  0  0  0  0  0  0  0  0
   -6.7459   12.3157   -6.9160 H   0  0  0  0  0  0  0  0  0  0  0  0
   -4.5140   13.2889   -6.4783 H   0  0  0  0  0  0  0  0  0  0  0  0
   -2.6697    9.7519   -8.0446 H   0  0  0  0  0  0  0  0  0  0  0  0
   -4.8934    8.7808   -8.4891 H   0  0  0  0  0  0  0  0  0  0  0  0
   -2.4165   14.2253   -6.2216 H   0  0  0  0  0  0  0  0  0  0  0  0
   -0.6572   10.5584   -7.5683 H   0  0  0  0  0  0  0  0  0  0  0  0
    1.4836   14.2826   -6.0565 H   0  0  0  0  0  0  0  0  0  0  0  0
    0.2413   15.4403   -6.6420 H   0  0  0  0  0  0  0  0  0  0  0  0
    0.1739   14.8277   -4.9547 H   0  0  0  0  0  0  0  0  0  0  0  0
   -4.3489   15.8104  -11.7333 H   0  0  0  0  0  0  0  0  0  0  0  0
   -3.7594   15.2509  -10.1314 H   0  0  0  0  0  0  0  0  0  0  0  0
   -2.3623   15.1046  -12.8152 H   0  0  0  0  0  0  0  0  0  0  0  0
   -1.8724   16.0161  -11.3469 H   0  0  0  0  0  0  0  0  0  0  0  0
   -0.5191   13.9803  -11.7319 H   0  0  0  0  0  0  0  0  0  0  0  0
   -1.4061   13.9537  -10.1701 H   0  0  0  0  0  0  0  0  0  0  0  0
   -2.2388   12.5464  -12.7611 H   0  0  0  0  0  0  0  0  0  0  0  0
   -1.5665   11.7637  -11.2908 H   0  0  0  0  0  0  0  0  0  0  0  0
   -3.5680   12.3989   -9.9688 H   0  0  0  0  0  0  0  0  0  0  0  0
   -4.1284   11.5964  -11.4749 H   0  0  0  0  0  0  0  0  0  0  0  0
  1  2  2  0  0  0  0
  1  4  1  0  0  0  0
  1 12  1  0  0  0  0
  2  6  1  0  0  0  0
  3  4  2  0  0  0  0
  3  5  1  0  0  0  0
  5  6  1  0  0  0  0
  5  9  2  0  0  0  0
  6  7  2  0  0  0  0
  7  8  1  0  0  0  0
  7 10  1  0  0  0  0
  8  9  1  0  0  0  0
 10 14  1  0  0  0  0
 11 12  1  0  0  0  0
 11 26  1  0  0  0  0
 11 30  1  0  0  0  0
 12 13  2  0  0  0  0
 14 15  2  0  0  0  0
 14 19  1  0  0  0  0
 15 16  1  0  0  0  0
 16 17  2  0  0  0  0
 17 18  1  0  0  0  0
 17 20  1  0  0  0  0
 18 19  2  0  0  0  0
 20 21  2  0  0  0  0
 20 24  1  0  0  0  0
 21 22  1  0  0  0  0
 22 23  1  0  0  0  0
 22 25  1  0  0  0  0
 23 24  2  0  0  0  0
 26 27  1  0  0  0  0
 27 28  1  0  0  0  0
 28 29  1  0  0  0  0
 29 30  1  0  0  0  0
  2 31  1  0  0  0  0
  3 32  1  0  0  0  0
  4 33  1  0  0  0  0
  8 34  1  0  0  0  0
 10 35  1  0  0  0  0
 10 36  1  0  0  0  0
 15 37  1  0  0  0  0
 16 38  1  0  0  0  0
 18 39  1  0  0  0  0
 19 40  1  0  0  0  0
 21 41  1  0  0  0  0
 24 42  1  0  0  0  0
 25 43  1  0  0  0  0
 25 44  1  0  0  0  0
 25 45  1  0  0  0  0
 26 46  1  0  0  0  0
 26 47  1  0  0  0  0
 27 48  1  0  0  0  0
 27 49  1  0  0  0  0
 28 50  1  0  0  0  0
 28 51  1  0  0  0  0
 29 52  1  0  0  0  0
 29 53  1  0  0  0  0
 30 54  1  0  0  0  0
 30 55  1  0  0  0  0
M  END
> <Name>
41

> <IC50[uM]>
0.006

$$$$
41
  -OEChem-05192314333D
 Structure written by MMmdl.
 55 59  0     0  0  0  0  0  0999 V2000
   -6.3365   12.3514  -12.0169 C   0  0  0  0  0  0  0  0  0  0  0  0
   -6.4737   11.7818  -10.7533 C   0  0  0  0  0  0  0  0  0  0  0  0
   -7.7043   10.5771  -13.0419 C   0  0  0  0  0  0  0  0  0  0  0  0
   -6.9700   11.7706  -13.1413 C   0  0  0  0  0  0  0  0  0  0  0  0
   -7.8117   10.0060  -11.7679 C   0  0  0  0  0  0  0  0  0  0  0  0
   -7.2142   10.6153  -10.6085 C   0  0  0  0  0  0  0  0  0  0  0  0
   -7.6079    9.7475   -9.5180 C   0  0  0  0  0  0  0  0  0  0  0  0
   -8.2848    8.7450   -9.9896 N   0  0  0  0  0  0  0  0  0  0  0  0
   -8.4180    8.8715  -11.3012 N   0  0  0  0  0  0  0  0  0  0  0  0
   -7.3345    9.8877   -8.0248 C   0  0  0  0  0  0  0  0  0  0  0  0
   -4.3847   13.7235  -11.4418 N   0  0  0  0  0  0  0  0  0  0  0  0
   -5.5533   13.6485  -12.1711 C   0  0  0  0  0  0  0  0  0  0  0  0
   -5.9795   14.5724  -12.8566 O   0  0  0  0  0  0  0  0  0  0  0  0
   -5.9627   10.4850   -7.7364 C   0  0  0  0  0  0  0  0  0  0  0  0
   -5.8552   11.7581   -7.1652 C   0  0  0  0  0  0  0  0  0  0  0  0
   -4.5966   12.3060   -6.9181 C   0  0  0  0  0  0  0  0  0  0  0  0
   -3.4424   11.5865   -7.2381 C   0  0  0  0  0  0  0  0  0  0  0  0
   -3.5593   10.3139   -7.8013 C   0  0  0  0  0  0  0  0  0  0  0  0
   -4.8122    9.7647   -8.0513 C   0  0  0  0  0  0  0  0  0  0  0  0
   -2.0942   12.1662   -6.9781 C   0  0  0  0  0  0  0  0  0  0  0  0
   -1.7414   13.4274   -6.4937 C   0  0  0  0  0  0  0  0  0  0  0  0
   -0.4089   13.4560   -6.4321 N   0  0  0  0  0  0  0  0  0  0  0  0
    0.1814   12.3590   -6.8068 N   0  0  0  0  0  0  0  0  0  0  0  0
   -0.8029   11.5527   -7.1728 C   0  0  0  0  0  0  0  0  0  0  0  0
    0.4236   14.5699   -5.9945 C   0  0  0  0  0  0  0  0  0  0  0  0
   -3.7594   15.0422  -11.2114 C   0  0  0  0  0  0  0  0  0  0  0  0
   -2.3424   15.0924  -11.7154 C   0  0  0  0  0  0  0  0  0  0  0  0
   -1.5130   13.9202  -11.2644 C   0  0  0  0  0  0  0  0  0  0  0  0
   -2.1771   12.5990  -11.6641 C   0  0  0  0  0  0  0  0  0  0  0  0
   -3.6239   12.4833  -11.0641 C   0  0  0  0  0  0  0  0  0  0  0  0
   -6.0088   12.2426   -9.8942 H   0  0  0  0  0  0  0  0  0  0  0  0
   -8.1640   10.1218  -13.9067 H   0  0  0  0  0  0  0  0  0  0  0  0
   -6.8867   12.2580  -14.1015 H   0  0  0  0  0  0  0  0  0  0  0  0
   -8.9032    8.2168  -11.8807 H   0  0  0  0  0  0  0  0  0  0  0  0
   -8.1030   10.5405   -7.5852 H   0  0  0  0  0  0  0  0  0  0  0  0
   -7.3903    8.8919   -7.5609 H   0  0  0  0  0  0  0  0  0  0  0  0
   -6.7459   12.3157   -6.9160 H   0  0  0  0  0  0  0  0  0  0  0  0
   -4.5140   13.2889   -6.4783 H   0  0  0  0  0  0  0  0  0  0  0  0
   -2.6697    9.7519   -8.0446 H   0  0  0  0  0  0  0  0  0  0  0  0
   -4.8934    8.7808   -8.4891 H   0  0  0  0  0  0  0  0  0  0  0  0
   -2.4165   14.2253   -6.2216 H   0  0  0  0  0  0  0  0  0  0  0  0
   -0.6572   10.5584   -7.5683 H   0  0  0  0  0  0  0  0  0  0  0  0
    1.4836   14.2826   -6.0565 H   0  0  0  0  0  0  0  0  0  0  0  0
    0.2413   15.4403   -6.6420 H   0  0  0  0  0  0  0  0  0  0  0  0
    0.1739   14.8277   -4.9547 H   0  0  0  0  0  0  0  0  0  0  0  0
   -4.3489   15.8104  -11.7333 H   0  0  0  0  0  0  0  0  0  0  0  0
   -3.7594   15.2509  -10.1314 H   0  0  0  0  0  0  0  0  0  0  0  0
   -2.3623   15.1046  -12.8152 H   0  0  0  0  0  0  0  0  0  0  0  0
   -1.8724   16.0161  -11.3469 H   0  0  0  0  0  0  0  0  0  0  0  0
   -0.5191   13.9803  -11.7319 H   0  0  0  0  0  0  0  0  0  0  0  0
   -1.4061   13.9537  -10.1701 H   0  0  0  0  0  0  0  0  0  0  0  0
   -2.2388   12.5464  -12.7611 H   0  0  0  0  0  0  0  0  0  0  0  0
   -1.5665   11.7637  -11.2908 H   0  0  0  0  0  0  0  0  0  0  0  0
   -3.5680   12.3989   -9.9688 H   0  0  0  0  0  0  0  0  0  0  0  0
   -4.1284   11.5964  -11.4749 H   0  0  0  0  0  0  0  0  0  0  0  0
  1  2  2  0  0  0  0
  1  4  1  0  0  0  0
  1 12  1  0  0  0  0
  2  6  1  0  0  0  0
  3  4  2  0  0  0  0
  3  5  1  0  0  0  0
  5  6  2  0  0  0  0
  5  9  1  0  0  0  0
  6  7  1  0  0  0  0
  7  8  2  0  0  0  0
  7 10  1  0  0  0  0
  8  9  1  0  0  0  0
 10 14  1  0  0  0  0
 11 12  1  0  0  0  0
 11 26  1  0  0  0  0
 11 30  1  0  0  0  0
 12 13  2  0  0  0  0
 14 15  2  0  0  0  0
 14 19  1  0  0  0  0
 15 16  1  0  0  0  0
 16 17  2  0  0  0  0
 17 18  1  0  0  0  0
 17 20  1  0  0  0  0
 18 19  2  0  0  0  0
 20 21  2  0  0  0  0
 20 24  1  0  0  0  0
 21 22  1  0  0  0  0
 22 23  1  0  0  0  0
 22 25  1  0  0  0  0
 23 24  2  0  0  0  0
 26 27  1  0  0  0  0
 27 28  1  0  0  0  0
 28 29  1  0  0  0  0
 29 30  1  0  0  0  0
  2 31  1  0  0  0  0
  3 32  1  0  0  0  0
  4 33  1  0  0  0  0
  9 34  1  0  0  0  0
 10 35  1  0  0  0  0
 10 36  1  0  0  0  0
 15 37  1  0  0  0  0
 16 38  1  0  0  0  0
 18 39  1  0  0  0  0
 19 40  1  0  0  0  0
 21 41  1  0  0  0  0
 24 42  1  0  0  0  0
 25 43  1  0  0  0  0
 25 44  1  0  0  0  0
 25 45  1  0  0  0  0
 26 46  1  0  0  0  0
 26 47  1  0  0  0  0
 27 48  1  0  0  0  0
 27 49  1  0  0  0  0
 28 50  1  0  0  0  0
 28 51  1  0  0  0  0
 29 52  1  0  0  0  0
 29 53  1  0  0  0  0
 30 54  1  0  0  0  0
 30 55  1  0  0  0  0
M  END
> <Name>
41

> <IC50[uM]>
0.006

$$$$
41
  -OEChem-05192314333D
 Structure written by MMmdl.
 55 59  0     1  0  0  0  0  0999 V2000
   -6.3365   12.3514  -12.0169 C   0  0  0  0  0  0  0  0  0  0  0  0
   -6.4737   11.7818  -10.7533 C   0  0  0  0  0  0  0  0  0  0  0  0
   -7.7043   10.5771  -13.0419 C   0  0  0  0  0  0  0  0  0  0  0  0
   -6.9700   11.7706  -13.1413 C   0  0  0  0  0  0  0  0  0  0  0  0
   -7.8117   10.0060  -11.7679 C   0  0  0  0  0  0  0  0  0  0  0  0
   -7.2142   10.6153  -10.6085 C   0  0  0  0  0  0  0  0  0  0  0  0
   -7.6079    9.7475   -9.5180 C   0  0  3  0  0  0  0  0  0  0  0  0
   -8.2848    8.7450   -9.9896 N   0  0  0  0  0  0  0  0  0  0  0  0
   -8.4180    8.8715  -11.3012 N   0  0  0  0  0  0  0  0  0  0  0  0
   -7.3345    9.8877   -8.0248 C   0  0  0  0  0  0  0  0  0  0  0  0
   -4.3847   13.7235  -11.4418 N   0  0  0  0  0  0  0  0  0  0  0  0
   -5.5533   13.6485  -12.1711 C   0  0  0  0  0  0  0  0  0  0  0  0
   -5.9795   14.5724  -12.8566 O   0  0  0  0  0  0  0  0  0  0  0  0
   -5.9627   10.4850   -7.7364 C   0  0  0  0  0  0  0  0  0  0  0  0
   -5.8552   11.7581   -7.1652 C   0  0  0  0  0  0  0  0  0  0  0  0
   -4.5966   12.3060   -6.9181 C   0  0  0  0  0  0  0  0  0  0  0  0
   -3.4424   11.5865   -7.2381 C   0  0  0  0  0  0  0  0  0  0  0  0
   -3.5593   10.3139   -7.8013 C   0  0  0  0  0  0  0  0  0  0  0  0
   -4.8122    9.7647   -8.0513 C   0  0  0  0  0  0  0  0  0  0  0  0
   -2.0942   12.1662   -6.9781 C   0  0  0  0  0  0  0  0  0  0  0  0
   -1.7414   13.4274   -6.4937 C   0  0  0  0  0  0  0  0  0  0  0  0
   -0.4089   13.4560   -6.4321 N   0  0  0  0  0  0  0  0  0  0  0  0
    0.1814   12.3590   -6.8068 N   0  0  0  0  0  0  0  0  0  0  0  0
   -0.8029   11.5527   -7.1728 C   0  0  0  0  0  0  0  0  0  0  0  0
    0.4236   14.5699   -5.9945 C   0  0  0  0  0  0  0  0  0  0  0  0
   -3.7594   15.0422  -11.2114 C   0  0  0  0  0  0  0  0  0  0  0  0
   -2.3424   15.0924  -11.7154 C   0  0  0  0  0  0  0  0  0  0  0  0
   -1.5130   13.9202  -11.2644 C   0  0  0  0  0  0  0  0  0  0  0  0
   -2.1771   12.5990  -11.6641 C   0  0  0  0  0  0  0  0  0  0  0  0
   -3.6239   12.4833  -11.0641 C   0  0  0  0  0  0  0  0  0  0  0  0
   -6.0088   12.2426   -9.8942 H   0  0  0  0  0  0  0  0  0  0  0  0
   -8.1640   10.1218  -13.9067 H   0  0  0  0  0  0  0  0  0  0  0  0
   -6.8867   12.2580  -14.1015 H   0  0  0  0  0  0  0  0  0  0  0  0
   -6.6760    9.1751   -9.6358 H   0  0  0  0  0  0  0  0  0  0  0  0
   -8.1030   10.5405   -7.5852 H   0  0  0  0  0  0  0  0  0  0  0  0
   -7.3903    8.8919   -7.5609 H   0  0  0  0  0  0  0  0  0  0  0  0
   -6.7459   12.3157   -6.9160 H   0  0  0  0  0  0  0  0  0  0  0  0
   -4.5140   13.2889   -6.4783 H   0  0  0  0  0  0  0  0  0  0  0  0
   -2.6697    9.7519   -8.0446 H   0  0  0  0  0  0  0  0  0  0  0  0
   -4.8934    8.7808   -8.4891 H   0  0  0  0  0  0  0  0  0  0  0  0
   -2.4165   14.2253   -6.2216 H   0  0  0  0  0  0  0  0  0  0  0  0
   -0.6572   10.5584   -7.5683 H   0  0  0  0  0  0  0  0  0  0  0  0
    1.4836   14.2826   -6.0565 H   0  0  0  0  0  0  0  0  0  0  0  0
    0.2413   15.4403   -6.6420 H   0  0  0  0  0  0  0  0  0  0  0  0
    0.1739   14.8277   -4.9547 H   0  0  0  0  0  0  0  0  0  0  0  0
   -4.3489   15.8104  -11.7333 H   0  0  0  0  0  0  0  0  0  0  0  0
   -3.7594   15.2509  -10.1314 H   0  0  0  0  0  0  0  0  0  0  0  0
   -2.3623   15.1046  -12.8152 H   0  0  0  0  0  0  0  0  0  0  0  0
   -1.8724   16.0161  -11.3469 H   0  0  0  0  0  0  0  0  0  0  0  0
   -0.5191   13.9803  -11.7319 H   0  0  0  0  0  0  0  0  0  0  0  0
   -1.4061   13.9537  -10.1701 H   0  0  0  0  0  0  0  0  0  0  0  0
   -2.2388   12.5464  -12.7611 H   0  0  0  0  0  0  0  0  0  0  0  0
   -1.5665   11.7637  -11.2908 H   0  0  0  0  0  0  0  0  0  0  0  0
   -3.5680   12.3989   -9.9688 H   0  0  0  0  0  0  0  0  0  0  0  0
   -4.1284   11.5964  -11.4749 H   0  0  0  0  0  0  0  0  0  0  0  0
  1  2  2  0  0  0  0
  1  4  1  0  0  0  0
  1 12  1  0  0  0  0
  2  6  1  0  0  0  0
  3  4  2  0  0  0  0
  3  5  1  0  0  0  0
  5  6  2  0  0  0  0
  5  9  1  0  0  0  0
  6  7  1  0  0  0  0
  7  8  1  0  0  0  0
  7 10  1  0  0  0  0
  8  9  2  0  0  0  0
 10 14  1  0  0  0  0
 11 12  1  0  0  0  0
 11 26  1  0  0  0  0
 11 30  1  0  0  0  0
 12 13  2  0  0  0  0
 14 15  2  0  0  0  0
 14 19  1  0  0  0  0
 15 16  1  0  0  0  0
 16 17  2  0  0  0  0
 17 18  1  0  0  0  0
 17 20  1  0  0  0  0
 18 19  2  0  0  0  0
 20 21  2  0  0  0  0
 20 24  1  0  0  0  0
 21 22  1  0  0  0  0
 22 23  1  0  0  0  0
 22 25  1  0  0  0  0
 23 24  2  0  0  0  0
 26 27  1  0  0  0  0
 27 28  1  0  0  0  0
 28 29  1  0  0  0  0
 29 30  1  0  0  0  0
  2 31  1  0  0  0  0
  3 32  1  0  0  0  0
  4 33  1  0  0  0  0
  7 34  1  0  0  0  0
 10 35  1  0  0  0  0
 10 36  1  0  0  0  0
 15 37  1  0  0  0  0
 16 38  1  0  0  0  0
 18 39  1  0  0  0  0
 19 40  1  0  0  0  0
 21 41  1  0  0  0  0
 24 42  1  0  0  0  0
 25 43  1  0  0  0  0
 25 44  1  0  0  0  0
 25 45  1  0  0  0  0
 26 46  1  0  0  0  0
 26 47  1  0  0  0  0
 27 48  1  0  0  0  0
 27 49  1  0  0  0  0
 28 50  1  0  0  0  0
 28 51  1  0  0  0  0
 29 52  1  0  0  0  0
 29 53  1  0  0  0  0
 30 54  1  0  0  0  0
 30 55  1  0  0  0  0
M  END
> <Name>
41

> <IC50[uM]>
0.006

$$$$
41
  -OEChem-05192314333D
 Structure written by MMmdl.
 55 59  0     0  0  0  0  0  0999 V2000
   -6.3365   12.3514  -12.0169 C   0  0  0  0  0  0  0  0  0  0  0  0
   -6.4737   11.7818  -10.7533 C   0  0  0  0  0  0  0  0  0  0  0  0
   -7.7043   10.5771  -13.0419 C   0  0  0  0  0  0  0  0  0  0  0  0
   -6.9700   11.7706  -13.1413 C   0  0  0  0  0  0  0  0  0  0  0  0
   -7.8117   10.0060  -11.7679 C   0  0  0  0  0  0  0  0  0  0  0  0
   -7.2142   10.6153  -10.6085 C   0  0  0  0  0  0  0  0  0  0  0  0
   -7.6079    9.7475   -9.5180 C   0  0  0  0  0  0  0  0  0  0  0  0
   -8.2848    8.7450   -9.9896 N   0  0  0  0  0  0  0  0  0  0  0  0
   -8.4180    8.8715  -11.3012 N   0  0  0  0  0  0  0  0  0  0  0  0
   -7.3345    9.8877   -8.0248 C   0  0  0  0  0  0  0  0  0  0  0  0
   -4.3847   13.7235  -11.4418 N   0  0  0  0  0  0  0  0  0  0  0  0
   -5.5533   13.6485  -12.1711 C   0  0  0  0  0  0  0  0  0  0  0  0
   -5.9795   14.5724  -12.8566 O   0  0  0  0  0  0  0  0  0  0  0  0
   -5.9627   10.4850   -7.7364 C   0  0  0  0  0  0  0  0  0  0  0  0
   -5.8552   11.7581   -7.1652 C   0  0  0  0  0  0  0  0  0  0  0  0
   -4.5966   12.3060   -6.9181 C   0  0  0  0  0  0  0  0  0  0  0  0
   -3.4424   11.5865   -7.2381 C   0  0  0  0  0  0  0  0  0  0  0  0
   -3.5593   10.3139   -7.8013 C   0  0  0  0  0  0  0  0  0  0  0  0
   -4.8122    9.7647   -8.0513 C   0  0  0  0  0  0  0  0  0  0  0  0
   -2.0942   12.1662   -6.9781 C   0  0  0  0  0  0  0  0  0  0  0  0
   -1.7414   13.4274   -6.4937 C   0  0  0  0  0  0  0  0  0  0  0  0
   -0.4089   13.4560   -6.4321 N   0  0  0  0  0  0  0  0  0  0  0  0
    0.1814   12.3590   -6.8068 N   0  0  0  0  0  0  0  0  0  0  0  0
   -0.8029   11.5527   -7.1728 C   0  0  0  0  0  0  0  0  0  0  0  0
    0.4236   14.5699   -5.9945 C   0  0  0  0  0  0  0  0  0  0  0  0
   -3.7594   15.0422  -11.2114 C   0  0  0  0  0  0  0  0  0  0  0  0
   -2.3424   15.0924  -11.7154 C   0  0  0  0  0  0  0  0  0  0  0  0
   -1.5130   13.9202  -11.2644 C   0  0  0  0  0  0  0  0  0  0  0  0
   -2.1771   12.5990  -11.6641 C   0  0  0  0  0  0  0  0  0  0  0  0
   -3.6239   12.4833  -11.0641 C   0  0  0  0  0  0  0  0  0  0  0  0
   -6.0088   12.2426   -9.8942 H   0  0  0  0  0  0  0  0  0  0  0  0
   -8.1640   10.1218  -13.9067 H   0  0  0  0  0  0  0  0  0  0  0  0
   -6.8867   12.2580  -14.1015 H   0  0  0  0  0  0  0  0  0  0  0  0
   -7.8024    7.8932   -9.7854 H   0  0  0  0  0  0  0  0  0  0  0  0
   -9.3918    8.9097  -11.5252 H   0  0  0  0  0  0  0  0  0  0  0  0
   -8.0354    9.5960   -7.2566 H   0  0  0  0  0  0  0  0  0  0  0  0
   -6.7459   12.3157   -6.9160 H   0  0  0  0  0  0  0  0  0  0  0  0
   -4.5140   13.2889   -6.4783 H   0  0  0  0  0  0  0  0  0  0  0  0
   -2.6697    9.7519   -8.0446 H   0  0  0  0  0  0  0  0  0  0  0  0
   -4.8934    8.7808   -8.4891 H   0  0  0  0  0  0  0  0  0  0  0  0
   -2.4165   14.2253   -6.2216 H   0  0  0  0  0  0  0  0  0  0  0  0
   -0.6572   10.5584   -7.5683 H   0  0  0  0  0  0  0  0  0  0  0  0
    1.4836   14.2826   -6.0565 H   0  0  0  0  0  0  0  0  0  0  0  0
    0.2413   15.4403   -6.6420 H   0  0  0  0  0  0  0  0  0  0  0  0
    0.1739   14.8277   -4.9547 H   0  0  0  0  0  0  0  0  0  0  0  0
   -4.3489   15.8104  -11.7333 H   0  0  0  0  0  0  0  0  0  0  0  0
   -3.7594   15.2509  -10.1314 H   0  0  0  0  0  0  0  0  0  0  0  0
   -2.3623   15.1046  -12.8152 H   0  0  0  0  0  0  0  0  0  0  0  0
   -1.8724   16.0161  -11.3469 H   0  0  0  0  0  0  0  0  0  0  0  0
   -0.5191   13.9803  -11.7319 H   0  0  0  0  0  0  0  0  0  0  0  0
   -1.4061   13.9537  -10.1701 H   0  0  0  0  0  0  0  0  0  0  0  0
   -2.2388   12.5464  -12.7611 H   0  0  0  0  0  0  0  0  0  0  0  0
   -1.5665   11.7637  -11.2908 H   0  0  0  0  0  0  0  0  0  0  0  0
   -3.5680   12.3989   -9.9688 H   0  0  0  0  0  0  0  0  0  0  0  0
   -4.1284   11.5964  -11.4749 H   0  0  0  0  0  0  0  0  0  0  0  0
  1  2  2  0  0  0  0
  1  4  1  0  0  0  0
  1 12  1  0  0  0  0
  2  6  1  0  0  0  0
  3  4  2  0  0  0  0
  3  5  1  0  0  0  0
  5  6  2  0  0  0  0
  5  9  1  0  0  0  0
  6  7  1  0  0  0  0
  7  8  1  0  0  0  0
  7 10  2  3  0  0  0
  8  9  1  0  0  0  0
 10 14  1  0  0  0  0
 11 12  1  0  0  0  0
 11 26  1  0  0  0  0
 11 30  1  0  0  0  0
 12 13  2  0  0  0  0
 14 15  2  0  0  0  0
 14 19  1  0  0  0  0
 15 16  1  0  0  0  0
 16 17  2  0  0  0  0
 17 18  1  0  0  0  0
 17 20  1  0  0  0  0
 18 19  2  0  0  0  0
 20 21  2  0  0  0  0
 20 24  1  0  0  0  0
 21 22  1  0  0  0  0
 22 23  1  0  0  0  0
 22 25  1  0  0  0  0
 23 24  2  0  0  0  0
 26 27  1  0  0  0  0
 27 28  1  0  0  0  0
 28 29  1  0  0  0  0
 29 30  1  0  0  0  0
  2 31  1  0  0  0  0
  3 32  1  0  0  0  0
  4 33  1  0  0  0  0
  8 34  1  0  0  0  0
  9 35  1  0  0  0  0
 10 36  1  0  0  0  0
 15 37  1  0  0  0  0
 16 38  1  0  0  0  0
 18 39  1  0  0  0  0
 19 40  1  0  0  0  0
 21 41  1  0  0  0  0
 24 42  1  0  0  0  0
 25 43  1  0  0  0  0
 25 44  1  0  0  0  0
 25 45  1  0  0  0  0
 26 46  1  0  0  0  0
 26 47  1  0  0  0  0
 27 48  1  0  0  0  0
 27 49  1  0  0  0  0
 28 50  1  0  0  0  0
 28 51  1  0  0  0  0
 29 52  1  0  0  0  0
 29 53  1  0  0  0  0
 30 54  1  0  0  0  0
 30 55  1  0  0  0  0
M  END
> <Name>
41

> <IC50[uM]>
0.006

$$$$
41
  -OEChem-05192314333D
 Structure written by MMmdl.
 55 59  0     1  0  0  0  0  0999 V2000
   -6.3365   12.3514  -12.0169 C   0  0  3  0  0  0  0  0  0  0  0  0
   -6.4737   11.7818  -10.7533 C   0  0  0  0  0  0  0  0  0  0  0  0
   -7.7043   10.5771  -13.0419 C   0  0  0  0  0  0  0  0  0  0  0  0
   -6.9700   11.7706  -13.1413 C   0  0  0  0  0  0  0  0  0  0  0  0
   -7.8117   10.0060  -11.7679 C   0  0  0  0  0  0  0  0  0  0  0  0
   -7.2142   10.6153  -10.6085 C   0  0  0  0  0  0  0  0  0  0  0  0
   -7.6079    9.7475   -9.5180 C   0  0  0  0  0  0  0  0  0  0  0  0
   -8.2848    8.7450   -9.9896 N   0  0  0  0  0  0  0  0  0  0  0  0
   -8.4180    8.8715  -11.3012 N   0  0  0  0  0  0  0  0  0  0  0  0
   -7.3345    9.8877   -8.0248 C   0  0  0  0  0  0  0  0  0  0  0  0
   -4.3847   13.7235  -11.4418 N   0  0  0  0  0  0  0  0  0  0  0  0
   -5.5533   13.6485  -12.1711 C   0  0  0  0  0  0  0  0  0  0  0  0
   -5.9795   14.5724  -12.8566 O   0  0  0  0  0  0  0  0  0  0  0  0
   -5.9627   10.4850   -7.7364 C   0  0  0  0  0  0  0  0  0  0  0  0
   -5.8552   11.7581   -7.1652 C   0  0  0  0  0  0  0  0  0  0  0  0
   -4.5966   12.3060   -6.9181 C   0  0  0  0  0  0  0  0  0  0  0  0
   -3.4424   11.5865   -7.2381 C   0  0  0  0  0  0  0  0  0  0  0  0
   -3.5593   10.3139   -7.8013 C   0  0  0  0  0  0  0  0  0  0  0  0
   -4.8122    9.7647   -8.0513 C   0  0  0  0  0  0  0  0  0  0  0  0
   -2.0942   12.1662   -6.9781 C   0  0  0  0  0  0  0  0  0  0  0  0
   -1.7414   13.4274   -6.4937 C   0  0  0  0  0  0  0  0  0  0  0  0
   -0.4089   13.4560   -6.4321 N   0  0  0  0  0  0  0  0  0  0  0  0
    0.1814   12.3590   -6.8068 N   0  0  0  0  0  0  0  0  0  0  0  0
   -0.8029   11.5527   -7.1728 C   0  0  0  0  0  0  0  0  0  0  0  0
    0.4236   14.5699   -5.9945 C   0  0  0  0  0  0  0  0  0  0  0  0
   -3.7594   15.0422  -11.2114 C   0  0  0  0  0  0  0  0  0  0  0  0
   -2.3424   15.0924  -11.7154 C   0  0  0  0  0  0  0  0  0  0  0  0
   -1.5130   13.9202  -11.2644 C   0  0  0  0  0  0  0  0  0  0  0  0
   -2.1771   12.5990  -11.6641 C   0  0  0  0  0  0  0  0  0  0  0  0
   -3.6239   12.4833  -11.0641 C   0  0  0  0  0  0  0  0  0  0  0  0
   -5.4270   11.7615  -12.2032 H   0  0  0  0  0  0  0  0  0  0  0  0
   -6.0088   12.2426   -9.8942 H   0  0  0  0  0  0  0  0  0  0  0  0
   -8.1640   10.1218  -13.9067 H   0  0  0  0  0  0  0  0  0  0  0  0
   -6.8867   12.2580  -14.1015 H   0  0  0  0  0  0  0  0  0  0  0  0
   -8.6506    7.9907   -9.4444 H   0  0  0  0  0  0  0  0  0  0  0  0
   -8.0354    9.5960   -7.2566 H   0  0  0  0  0  0  0  0  0  0  0  0
   -6.7459   12.3157   -6.9160 H   0  0  0  0  0  0  0  0  0  0  0  0
   -4.5140   13.2889   -6.4783 H   0  0  0  0  0  0  0  0  0  0  0  0
   -2.6697    9.7519   -8.0446 H   0  0  0  0  0  0  0  0  0  0  0  0
   -4.8934    8.7808   -8.4891 H   0  0  0  0  0  0  0  0  0  0  0  0
   -2.4165   14.2253   -6.2216 H   0  0  0  0  0  0  0  0  0  0  0  0
   -0.6572   10.5584   -7.5683 H   0  0  0  0  0  0  0  0  0  0  0  0
    1.4836   14.2826   -6.0565 H   0  0  0  0  0  0  0  0  0  0  0  0
    0.2413   15.4403   -6.6420 H   0  0  0  0  0  0  0  0  0  0  0  0
    0.1739   14.8277   -4.9547 H   0  0  0  0  0  0  0  0  0  0  0  0
   -4.3489   15.8104  -11.7333 H   0  0  0  0  0  0  0  0  0  0  0  0
   -3.7594   15.2509  -10.1314 H   0  0  0  0  0  0  0  0  0  0  0  0
   -2.3623   15.1046  -12.8152 H   0  0  0  0  0  0  0  0  0  0  0  0
   -1.8724   16.0161  -11.3469 H   0  0  0  0  0  0  0  0  0  0  0  0
   -0.5191   13.9803  -11.7319 H   0  0  0  0  0  0  0  0  0  0  0  0
   -1.4061   13.9537  -10.1701 H   0  0  0  0  0  0  0  0  0  0  0  0
   -2.2388   12.5464  -12.7611 H   0  0  0  0  0  0  0  0  0  0  0  0
   -1.5665   11.7637  -11.2908 H   0  0  0  0  0  0  0  0  0  0  0  0
   -3.5680   12.3989   -9.9688 H   0  0  0  0  0  0  0  0  0  0  0  0
   -4.1284   11.5964  -11.4749 H   0  0  0  0  0  0  0  0  0  0  0  0
  1  2  1  0  0  0  0
  1  4  1  0  0  0  0
  1 12  1  0  0  0  0
  2  6  2  0  0  0  0
  3  4  2  0  0  0  0
  3  5  1  0  0  0  0
  5  6  1  0  0  0  0
  5  9  2  0  0  0  0
  6  7  1  0  0  0  0
  7  8  1  0  0  0  0
  7 10  2  3  0  0  0
  8  9  1  0  0  0  0
 10 14  1  0  0  0  0
 11 12  1  0  0  0  0
 11 26  1  0  0  0  0
 11 30  1  0  0  0  0
 12 13  2  0  0  0  0
 14 15  2  0  0  0  0
 14 19  1  0  0  0  0
 15 16  1  0  0  0  0
 16 17  2  0  0  0  0
 17 18  1  0  0  0  0
 17 20  1  0  0  0  0
 18 19  2  0  0  0  0
 20 21  2  0  0  0  0
 20 24  1  0  0  0  0
 21 22  1  0  0  0  0
 22 23  1  0  0  0  0
 22 25  1  0  0  0  0
 23 24  2  0  0  0  0
 26 27  1  0  0  0  0
 27 28  1  0  0  0  0
 28 29  1  0  0  0  0
 29 30  1  0  0  0  0
  1 31  1  0  0  0  0
  2 32  1  0  0  0  0
  3 33  1  0  0  0  0
  4 34  1  0  0  0  0
  8 35  1  0  0  0  0
 10 36  1  0  0  0  0
 15 37  1  0  0  0  0
 16 38  1  0  0  0  0
 18 39  1  0  0  0  0
 19 40  1  0  0  0  0
 21 41  1  0  0  0  0
 24 42  1  0  0  0  0
 25 43  1  0  0  0  0
 25 44  1  0  0  0  0
 25 45  1  0  0  0  0
 26 46  1  0  0  0  0
 26 47  1  0  0  0  0
 27 48  1  0  0  0  0
 27 49  1  0  0  0  0
 28 50  1  0  0  0  0
 28 51  1  0  0  0  0
 29 52  1  0  0  0  0
 29 53  1  0  0  0  0
 30 54  1  0  0  0  0
 30 55  1  0  0  0  0
M  END
> <Name>
41

> <IC50[uM]>
0.006

$$$$
41
  -OEChem-05192314333D
 Structure written by MMmdl.
 55 59  0     0  0  0  0  0  0999 V2000
   -6.3365   12.3514  -12.0169 C   0  0  0  0  0  0  0  0  0  0  0  0
   -6.4737   11.7818  -10.7533 C   0  0  0  0  0  0  0  0  0  0  0  0
   -7.7043   10.5771  -13.0419 C   0  0  0  0  0  0  0  0  0  0  0  0
   -6.9700   11.7706  -13.1413 C   0  0  0  0  0  0  0  0  0  0  0  0
   -7.8117   10.0060  -11.7679 C   0  0  0  0  0  0  0  0  0  0  0  0
   -7.2142   10.6153  -10.6085 C   0  0  0  0  0  0  0  0  0  0  0  0
   -7.6079    9.7475   -9.5180 C   0  0  0  0  0  0  0  0  0  0  0  0
   -8.2848    8.7450   -9.9896 N   0  0  0  0  0  0  0  0  0  0  0  0
   -8.4180    8.8715  -11.3012 N   0  0  0  0  0  0  0  0  0  0  0  0
   -7.3345    9.8877   -8.0248 C   0  0  0  0  0  0  0  0  0  0  0  0
   -4.3847   13.7235  -11.4418 N   0  0  0  0  0  0  0  0  0  0  0  0
   -5.5533   13.6485  -12.1711 C   0  0  0  0  0  0  0  0  0  0  0  0
   -5.9795   14.5724  -12.8566 O   0  0  0  0  0  0  0  0  0  0  0  0
   -5.9627   10.4850   -7.7364 C   0  0  0  0  0  0  0  0  0  0  0  0
   -5.8552   11.7581   -7.1652 C   0  0  0  0  0  0  0  0  0  0  0  0
   -4.5966   12.3060   -6.9181 C   0  0  0  0  0  0  0  0  0  0  0  0
   -3.4424   11.5865   -7.2381 C   0  0  0  0  0  0  0  0  0  0  0  0
   -3.5593   10.3139   -7.8013 C   0  0  0  0  0  0  0  0  0  0  0  0
   -4.8122    9.7647   -8.0513 C   0  0  0  0  0  0  0  0  0  0  0  0
   -2.0942   12.1662   -6.9781 C   0  0  0  0  0  0  0  0  0  0  0  0
   -1.7414   13.4274   -6.4937 C   0  0  0  0  0  0  0  0  0  0  0  0
   -0.4089   13.4560   -6.4321 N   0  0  0  0  0  0  0  0  0  0  0  0
    0.1814   12.3590   -6.8068 N   0  0  0  0  0  0  0  0  0  0  0  0
   -0.8029   11.5527   -7.1728 C   0  0  0  0  0  0  0  0  0  0  0  0
    0.4236   14.5699   -5.9945 C   0  0  0  0  0  0  0  0  0  0  0  0
   -3.7594   15.0422  -11.2114 C   0  0  0  0  0  0  0  0  0  0  0  0
   -2.3424   15.0924  -11.7154 C   0  0  0  0  0  0  0  0  0  0  0  0
   -1.5130   13.9202  -11.2644 C   0  0  0  0  0  0  0  0  0  0  0  0
   -2.1771   12.5990  -11.6641 C   0  0  0  0  0  0  0  0  0  0  0  0
   -3.6239   12.4833  -11.0641 C   0  0  0  0  0  0  0  0  0  0  0  0
   -6.0088   12.2426   -9.8942 H   0  0  0  0  0  0  0  0  0  0  0  0
   -8.7234   10.7825  -13.4015 H   0  0  0  0  0  0  0  0  0  0  0  0
   -7.2258    9.8363  -13.6994 H   0  0  0  0  0  0  0  0  0  0  0  0
   -6.8867   12.2580  -14.1015 H   0  0  0  0  0  0  0  0  0  0  0  0
   -8.6506    7.9907   -9.4444 H   0  0  0  0  0  0  0  0  0  0  0  0
   -8.0354    9.5960   -7.2566 H   0  0  0  0  0  0  0  0  0  0  0  0
   -6.7459   12.3157   -6.9160 H   0  0  0  0  0  0  0  0  0  0  0  0
   -4.5140   13.2889   -6.4783 H   0  0  0  0  0  0  0  0  0  0  0  0
   -2.6697    9.7519   -8.0446 H   0  0  0  0  0  0  0  0  0  0  0  0
   -4.8934    8.7808   -8.4891 H   0  0  0  0  0  0  0  0  0  0  0  0
   -2.4165   14.2253   -6.2216 H   0  0  0  0  0  0  0  0  0  0  0  0
   -0.6572   10.5584   -7.5683 H   0  0  0  0  0  0  0  0  0  0  0  0
    1.4836   14.2826   -6.0565 H   0  0  0  0  0  0  0  0  0  0  0  0
    0.2413   15.4403   -6.6420 H   0  0  0  0  0  0  0  0  0  0  0  0
    0.1739   14.8277   -4.9547 H   0  0  0  0  0  0  0  0  0  0  0  0
   -4.3489   15.8104  -11.7333 H   0  0  0  0  0  0  0  0  0  0  0  0
   -3.7594   15.2509  -10.1314 H   0  0  0  0  0  0  0  0  0  0  0  0
   -2.3623   15.1046  -12.8152 H   0  0  0  0  0  0  0  0  0  0  0  0
   -1.8724   16.0161  -11.3469 H   0  0  0  0  0  0  0  0  0  0  0  0
   -0.5191   13.9803  -11.7319 H   0  0  0  0  0  0  0  0  0  0  0  0
   -1.4061   13.9537  -10.1701 H   0  0  0  0  0  0  0  0  0  0  0  0
   -2.2388   12.5464  -12.7611 H   0  0  0  0  0  0  0  0  0  0  0  0
   -1.5665   11.7637  -11.2908 H   0  0  0  0  0  0  0  0  0  0  0  0
   -3.5680   12.3989   -9.9688 H   0  0  0  0  0  0  0  0  0  0  0  0
   -4.1284   11.5964  -11.4749 H   0  0  0  0  0  0  0  0  0  0  0  0
  1  2  1  0  0  0  0
  1  4  2  0  0  0  0
  1 12  1  0  0  0  0
  2  6  2  0  0  0  0
  3  4  1  0  0  0  0
  3  5  1  0  0  0  0
  5  6  1  0  0  0  0
  5  9  2  0  0  0  0
  6  7  1  0  0  0  0
  7  8  1  0  0  0  0
  7 10  2  3  0  0  0
  8  9  1  0  0  0  0
 10 14  1  0  0  0  0
 11 12  1  0  0  0  0
 11 26  1  0  0  0  0
 11 30  1  0  0  0  0
 12 13  2  0  0  0  0
 14 15  2  0  0  0  0
 14 19  1  0  0  0  0
 15 16  1  0  0  0  0
 16 17  2  0  0  0  0
 17 18  1  0  0  0  0
 17 20  1  0  0  0  0
 18 19  2  0  0  0  0
 20 21  2  0  0  0  0
 20 24  1  0  0  0  0
 21 22  1  0  0  0  0
 22 23  1  0  0  0  0
 22 25  1  0  0  0  0
 23 24  2  0  0  0  0
 26 27  1  0  0  0  0
 27 28  1  0  0  0  0
 28 29  1  0  0  0  0
 29 30  1  0  0  0  0
  2 31  1  0  0  0  0
  3 32  1  0  0  0  0
  3 33  1  0  0  0  0
  4 34  1  0  0  0  0
  8 35  1  0  0  0  0
 10 36  1  0  0  0  0
 15 37  1  0  0  0  0
 16 38  1  0  0  0  0
 18 39  1  0  0  0  0
 19 40  1  0  0  0  0
 21 41  1  0  0  0  0
 24 42  1  0  0  0  0
 25 43  1  0  0  0  0
 25 44  1  0  0  0  0
 25 45  1  0  0  0  0
 26 46  1  0  0  0  0
 26 47  1  0  0  0  0
 27 48  1  0  0  0  0
 27 49  1  0  0  0  0
 28 50  1  0  0  0  0
 28 51  1  0  0  0  0
 29 52  1  0  0  0  0
 29 53  1  0  0  0  0
 30 54  1  0  0  0  0
 30 55  1  0  0  0  0
M  END
> <Name>
41

> <IC50[uM]>
0.006

$$$$
41
  -OEChem-05192314333D
 Structure written by MMmdl.
 55 59  0     1  0  0  0  0  0999 V2000
   -6.3365   12.3514  -12.0169 C   0  0  0  0  0  0  0  0  0  0  0  0
   -6.4737   11.7818  -10.7533 C   0  0  0  0  0  0  0  0  0  0  0  0
   -7.7043   10.5771  -13.0419 C   0  0  0  0  0  0  0  0  0  0  0  0
   -6.9700   11.7706  -13.1413 C   0  0  0  0  0  0  0  0  0  0  0  0
   -7.8117   10.0060  -11.7679 C   0  0  0  0  0  0  0  0  0  0  0  0
   -7.2142   10.6153  -10.6085 C   0  0  0  0  0  0  0  0  0  0  0  0
   -7.6079    9.7475   -9.5180 C   0  0  0  0  0  0  0  0  0  0  0  0
   -8.2848    8.7450   -9.9896 N   0  0  0  0  0  0  0  0  0  0  0  0
   -8.4180    8.8715  -11.3012 N   0  0  0  0  0  0  0  0  0  0  0  0
   -7.3345    9.8877   -8.0248 C   0  0  0  0  0  0  0  0  0  0  0  0
   -4.3847   13.7235  -11.4418 N   0  0  0  0  0  0  0  0  0  0  0  0
   -5.5533   13.6485  -12.1711 C   0  0  0  0  0  0  0  0  0  0  0  0
   -5.9795   14.5724  -12.8566 O   0  0  0  0  0  0  0  0  0  0  0  0
   -5.9627   10.4850   -7.7364 C   0  0  0  0  0  0  0  0  0  0  0  0
   -5.8552   11.7581   -7.1652 C   0  0  0  0  0  0  0  0  0  0  0  0
   -4.5966   12.3060   -6.9181 C   0  0  0  0  0  0  0  0  0  0  0  0
   -3.4424   11.5865   -7.2381 C   0  0  0  0  0  0  0  0  0  0  0  0
   -3.5593   10.3139   -7.8013 C   0  0  0  0  0  0  0  0  0  0  0  0
   -4.8122    9.7647   -8.0513 C   0  0  0  0  0  0  0  0  0  0  0  0
   -2.0942   12.1662   -6.9781 C   0  0  0  0  0  0  0  0  0  0  0  0
   -1.7414   13.4274   -6.4937 C   0  0  0  0  0  0  0  0  0  0  0  0
   -0.4089   13.4560   -6.4321 N   0  0  3  0  0  0  0  0  0  0  0  0
    0.1814   12.3590   -6.8068 N   0  0  0  0  0  0  0  0  0  0  0  0
   -0.8029   11.5527   -7.1728 C   0  0  0  0  0  0  0  0  0  0  0  0
    0.4236   14.5699   -5.9945 C   0  0  0  0  0  0  0  0  0  0  0  0
   -3.7594   15.0422  -11.2114 C   0  0  0  0  0  0  0  0  0  0  0  0
   -2.3424   15.0924  -11.7154 C   0  0  0  0  0  0  0  0  0  0  0  0
   -1.5130   13.9202  -11.2644 C   0  0  0  0  0  0  0  0  0  0  0  0
   -2.1771   12.5990  -11.6641 C   0  0  0  0  0  0  0  0  0  0  0  0
   -3.6239   12.4833  -11.0641 C   0  0  0  0  0  0  0  0  0  0  0  0
   -6.0088   12.2426   -9.8942 H   0  0  0  0  0  0  0  0  0  0  0  0
   -8.1640   10.1218  -13.9067 H   0  0  0  0  0  0  0  0  0  0  0  0
   -6.8867   12.2580  -14.1015 H   0  0  0  0  0  0  0  0  0  0  0  0
   -8.6506    7.9907   -9.4444 H   0  0  0  0  0  0  0  0  0  0  0  0
   -8.0354    9.5960   -7.2566 H   0  0  0  0  0  0  0  0  0  0  0  0
   -6.7459   12.3157   -6.9160 H   0  0  0  0  0  0  0  0  0  0  0  0
   -4.5140   13.2889   -6.4783 H   0  0  0  0  0  0  0  0  0  0  0  0
   -2.6697    9.7519   -8.0446 H   0  0  0  0  0  0  0  0  0  0  0  0
   -4.8934    8.7808   -8.4891 H   0  0  0  0  0  0  0  0  0  0  0  0
   -2.1062   14.2106   -7.1745 H   0  0  0  0  0  0  0  0  0  0  0  0
   -2.1705   13.5826   -5.4928 H   0  0  0  0  0  0  0  0  0  0  0  0
   -0.6572   10.5584   -7.5683 H   0  0  0  0  0  0  0  0  0  0  0  0
    1.4836   14.2826   -6.0565 H   0  0  0  0  0  0  0  0  0  0  0  0
    0.2413   15.4403   -6.6420 H   0  0  0  0  0  0  0  0  0  0  0  0
    0.1739   14.8277   -4.9547 H   0  0  0  0  0  0  0  0  0  0  0  0
   -4.3489   15.8104  -11.7333 H   0  0  0  0  0  0  0  0  0  0  0  0
   -3.7594   15.2509  -10.1314 H   0  0  0  0  0  0  0  0  0  0  0  0
   -2.3623   15.1046  -12.8152 H   0  0  0  0  0  0  0  0  0  0  0  0
   -1.8724   16.0161  -11.3469 H   0  0  0  0  0  0  0  0  0  0  0  0
   -0.5191   13.9803  -11.7319 H   0  0  0  0  0  0  0  0  0  0  0  0
   -1.4061   13.9537  -10.1701 H   0  0  0  0  0  0  0  0  0  0  0  0
   -2.2388   12.5464  -12.7611 H   0  0  0  0  0  0  0  0  0  0  0  0
   -1.5665   11.7637  -11.2908 H   0  0  0  0  0  0  0  0  0  0  0  0
   -3.5680   12.3989   -9.9688 H   0  0  0  0  0  0  0  0  0  0  0  0
   -4.1284   11.5964  -11.4749 H   0  0  0  0  0  0  0  0  0  0  0  0
  1  2  2  0  0  0  0
  1  4  1  0  0  0  0
  1 12  1  0  0  0  0
  2  6  1  0  0  0  0
  3  4  2  0  0  0  0
  3  5  1  0  0  0  0
  5  6  1  0  0  0  0
  5  9  2  0  0  0  0
  6  7  2  0  0  0  0
  7  8  1  0  0  0  0
  7 10  1  0  0  0  0
  8  9  1  0  0  0  0
 10 14  2  0  0  0  0
 11 12  1  0  0  0  0
 11 26  1  0  0  0  0
 11 30  1  0  0  0  0
 12 13  2  0  0  0  0
 14 15  1  0  0  0  0
 14 19  1  0  0  0  0
 15 16  2  0  0  0  0
 16 17  1  0  0  0  0
 17 18  1  0  0  0  0
 17 20  2  0  0  0  0
 18 19  2  0  0  0  0
 20 21  1  0  0  0  0
 20 24  1  0  0  0  0
 21 22  1  0  0  0  0
 22 23  1  0  0  0  0
 22 25  1  0  0  0  0
 23 24  2  0  0  0  0
 26 27  1  0  0  0  0
 27 28  1  0  0  0  0
 28 29  1  0  0  0  0
 29 30  1  0  0  0  0
  2 31  1  0  0  0  0
  3 32  1  0  0  0  0
  4 33  1  0  0  0  0
  8 34  1  0  0  0  0
 10 35  1  0  0  0  0
 15 36  1  0  0  0  0
 16 37  1  0  0  0  0
 18 38  1  0  0  0  0
 19 39  1  0  0  0  0
 21 40  1  0  0  0  0
 21 41  1  0  0  0  0
 24 42  1  0  0  0  0
 25 43  1  0  0  0  0
 25 44  1  0  0  0  0
 25 45  1  0  0  0  0
 26 46  1  0  0  0  0
 26 47  1  0  0  0  0
 27 48  1  0  0  0  0
 27 49  1  0  0  0  0
 28 50  1  0  0  0  0
 28 51  1  0  0  0  0
 29 52  1  0  0  0  0
 29 53  1  0  0  0  0
 30 54  1  0  0  0  0
 30 55  1  0  0  0  0
M  END
> <Name>
41

> <IC50[uM]>
0.006

$$$$
41
  -OEChem-05192314333D
 Structure written by MMmdl.
 55 59  0     1  0  0  0  0  0999 V2000
   -6.3365   12.3514  -12.0169 C   0  0  0  0  0  0  0  0  0  0  0  0
   -6.4737   11.7818  -10.7533 C   0  0  0  0  0  0  0  0  0  0  0  0
   -7.7043   10.5771  -13.0419 C   0  0  0  0  0  0  0  0  0  0  0  0
   -6.9700   11.7706  -13.1413 C   0  0  0  0  0  0  0  0  0  0  0  0
   -7.8117   10.0060  -11.7679 C   0  0  0  0  0  0  0  0  0  0  0  0
   -7.2142   10.6153  -10.6085 C   0  0  0  0  0  0  0  0  0  0  0  0
   -7.6079    9.7475   -9.5180 C   0  0  0  0  0  0  0  0  0  0  0  0
   -8.2848    8.7450   -9.9896 N   0  0  0  0  0  0  0  0  0  0  0  0
   -8.4180    8.8715  -11.3012 N   0  0  0  0  0  0  0  0  0  0  0  0
   -7.3345    9.8877   -8.0248 C   0  0  0  0  0  0  0  0  0  0  0  0
   -4.3847   13.7235  -11.4418 N   0  0  0  0  0  0  0  0  0  0  0  0
   -5.5533   13.6485  -12.1711 C   0  0  0  0  0  0  0  0  0  0  0  0
   -5.9795   14.5724  -12.8566 O   0  0  0  0  0  0  0  0  0  0  0  0
   -5.9627   10.4850   -7.7364 C   0  0  0  0  0  0  0  0  0  0  0  0
   -5.8552   11.7581   -7.1652 C   0  0  0  0  0  0  0  0  0  0  0  0
   -4.5966   12.3060   -6.9181 C   0  0  0  0  0  0  0  0  0  0  0  0
   -3.4424   11.5865   -7.2381 C   0  0  0  0  0  0  0  0  0  0  0  0
   -3.5593   10.3139   -7.8013 C   0  0  0  0  0  0  0  0  0  0  0  0
   -4.8122    9.7647   -8.0513 C   0  0  0  0  0  0  0  0  0  0  0  0
   -2.0942   12.1662   -6.9781 C   0  0  0  0  0  0  0  0  0  0  0  0
   -1.7414   13.4274   -6.4937 C   0  0  0  0  0  0  0  0  0  0  0  0
   -0.4089   13.4560   -6.4321 N   0  0  3  0  0  0  0  0  0  0  0  0
    0.1814   12.3590   -6.8068 N   0  0  0  0  0  0  0  0  0  0  0  0
   -0.8029   11.5527   -7.1728 C   0  0  0  0  0  0  0  0  0  0  0  0
    0.4236   14.5699   -5.9945 C   0  0  0  0  0  0  0  0  0  0  0  0
   -3.7594   15.0422  -11.2114 C   0  0  0  0  0  0  0  0  0  0  0  0
   -2.3424   15.0924  -11.7154 C   0  0  0  0  0  0  0  0  0  0  0  0
   -1.5130   13.9202  -11.2644 C   0  0  0  0  0  0  0  0  0  0  0  0
   -2.1771   12.5990  -11.6641 C   0  0  0  0  0  0  0  0  0  0  0  0
   -3.6239   12.4833  -11.0641 C   0  0  0  0  0  0  0  0  0  0  0  0
   -6.0088   12.2426   -9.8942 H   0  0  0  0  0  0  0  0  0  0  0  0
   -8.1640   10.1218  -13.9067 H   0  0  0  0  0  0  0  0  0  0  0  0
   -6.8867   12.2580  -14.1015 H   0  0  0  0  0  0  0  0  0  0  0  0
   -8.9032    8.2168  -11.8807 H   0  0  0  0  0  0  0  0  0  0  0  0
   -8.0354    9.5960   -7.2566 H   0  0  0  0  0  0  0  0  0  0  0  0
   -6.7459   12.3157   -6.9160 H   0  0  0  0  0  0  0  0  0  0  0  0
   -4.5140   13.2889   -6.4783 H   0  0  0  0  0  0  0  0  0  0  0  0
   -2.6697    9.7519   -8.0446 H   0  0  0  0  0  0  0  0  0  0  0  0
   -4.8934    8.7808   -8.4891 H   0  0  0  0  0  0  0  0  0  0  0  0
   -2.1062   14.2106   -7.1745 H   0  0  0  0  0  0  0  0  0  0  0  0
   -2.1705   13.5826   -5.4928 H   0  0  0  0  0  0  0  0  0  0  0  0
   -0.6572   10.5584   -7.5683 H   0  0  0  0  0  0  0  0  0  0  0  0
    1.4836   14.2826   -6.0565 H   0  0  0  0  0  0  0  0  0  0  0  0
    0.2413   15.4403   -6.6420 H   0  0  0  0  0  0  0  0  0  0  0  0
    0.1739   14.8277   -4.9547 H   0  0  0  0  0  0  0  0  0  0  0  0
   -4.3489   15.8104  -11.7333 H   0  0  0  0  0  0  0  0  0  0  0  0
   -3.7594   15.2509  -10.1314 H   0  0  0  0  0  0  0  0  0  0  0  0
   -2.3623   15.1046  -12.8152 H   0  0  0  0  0  0  0  0  0  0  0  0
   -1.8724   16.0161  -11.3469 H   0  0  0  0  0  0  0  0  0  0  0  0
   -0.5191   13.9803  -11.7319 H   0  0  0  0  0  0  0  0  0  0  0  0
   -1.4061   13.9537  -10.1701 H   0  0  0  0  0  0  0  0  0  0  0  0
   -2.2388   12.5464  -12.7611 H   0  0  0  0  0  0  0  0  0  0  0  0
   -1.5665   11.7637  -11.2908 H   0  0  0  0  0  0  0  0  0  0  0  0
   -3.5680   12.3989   -9.9688 H   0  0  0  0  0  0  0  0  0  0  0  0
   -4.1284   11.5964  -11.4749 H   0  0  0  0  0  0  0  0  0  0  0  0
  1  2  2  0  0  0  0
  1  4  1  0  0  0  0
  1 12  1  0  0  0  0
  2  6  1  0  0  0  0
  3  4  2  0  0  0  0
  3  5  1  0  0  0  0
  5  6  2  0  0  0  0
  5  9  1  0  0  0  0
  6  7  1  0  0  0  0
  7  8  2  0  0  0  0
  7 10  1  0  0  0  0
  8  9  1  0  0  0  0
 10 14  2  0  0  0  0
 11 12  1  0  0  0  0
 11 26  1  0  0  0  0
 11 30  1  0  0  0  0
 12 13  2  0  0  0  0
 14 15  1  0  0  0  0
 14 19  1  0  0  0  0
 15 16  2  0  0  0  0
 16 17  1  0  0  0  0
 17 18  1  0  0  0  0
 17 20  2  0  0  0  0
 18 19  2  0  0  0  0
 20 21  1  0  0  0  0
 20 24  1  0  0  0  0
 21 22  1  0  0  0  0
 22 23  1  0  0  0  0
 22 25  1  0  0  0  0
 23 24  2  0  0  0  0
 26 27  1  0  0  0  0
 27 28  1  0  0  0  0
 28 29  1  0  0  0  0
 29 30  1  0  0  0  0
  2 31  1  0  0  0  0
  3 32  1  0  0  0  0
  4 33  1  0  0  0  0
  9 34  1  0  0  0  0
 10 35  1  0  0  0  0
 15 36  1  0  0  0  0
 16 37  1  0  0  0  0
 18 38  1  0  0  0  0
 19 39  1  0  0  0  0
 21 40  1  0  0  0  0
 21 41  1  0  0  0  0
 24 42  1  0  0  0  0
 25 43  1  0  0  0  0
 25 44  1  0  0  0  0
 25 45  1  0  0  0  0
 26 46  1  0  0  0  0
 26 47  1  0  0  0  0
 27 48  1  0  0  0  0
 27 49  1  0  0  0  0
 28 50  1  0  0  0  0
 28 51  1  0  0  0  0
 29 52  1  0  0  0  0
 29 53  1  0  0  0  0
 30 54  1  0  0  0  0
 30 55  1  0  0  0  0
M  END
> <Name>
41

> <IC50[uM]>
0.006

$$$$
41
  -OEChem-05192314333D
 Structure written by MMmdl.
 55 59  0     0  0  0  0  0  0999 V2000
   -6.3365   12.3514  -12.0169 C   0  0  0  0  0  0  0  0  0  0  0  0
   -6.4737   11.7818  -10.7533 C   0  0  0  0  0  0  0  0  0  0  0  0
   -7.7043   10.5771  -13.0419 C   0  0  0  0  0  0  0  0  0  0  0  0
   -6.9700   11.7706  -13.1413 C   0  0  0  0  0  0  0  0  0  0  0  0
   -7.8117   10.0060  -11.7679 C   0  0  0  0  0  0  0  0  0  0  0  0
   -7.2142   10.6153  -10.6085 C   0  0  0  0  0  0  0  0  0  0  0  0
   -7.6079    9.7475   -9.5180 C   0  0  0  0  0  0  0  0  0  0  0  0
   -8.2848    8.7450   -9.9896 N   0  0  0  0  0  0  0  0  0  0  0  0
   -8.4180    8.8715  -11.3012 N   0  0  0  0  0  0  0  0  0  0  0  0
   -7.3345    9.8877   -8.0248 C   0  0  0  0  0  0  0  0  0  0  0  0
   -4.3847   13.7235  -11.4418 N   0  0  0  0  0  0  0  0  0  0  0  0
   -5.5533   13.6485  -12.1711 C   0  0  0  0  0  0  0  0  0  0  0  0
   -5.9795   14.5724  -12.8566 O   0  0  0  0  0  0  0  0  0  0  0  0
   -5.9627   10.4850   -7.7364 C   0  0  0  0  0  0  0  0  0  0  0  0
   -5.8552   11.7581   -7.1652 C   0  0  0  0  0  0  0  0  0  0  0  0
   -4.5966   12.3060   -6.9181 C   0  0  0  0  0  0  0  0  0  0  0  0
   -3.4424   11.5865   -7.2381 C   0  0  0  0  0  0  0  0  0  0  0  0
   -3.5593   10.3139   -7.8013 C   0  0  0  0  0  0  0  0  0  0  0  0
   -4.8122    9.7647   -8.0513 C   0  0  0  0  0  0  0  0  0  0  0  0
   -2.0942   12.1662   -6.9781 C   0  0  0  0  0  0  0  0  0  0  0  0
   -1.7414   13.4274   -6.4937 C   0  0  0  0  0  0  0  0  0  0  0  0
   -0.4089   13.4560   -6.4321 N   0  0  0  0  0  0  0  0  0  0  0  0
    0.1814   12.3590   -6.8068 N   0  0  0  0  0  0  0  0  0  0  0  0
   -0.8029   11.5527   -7.1728 C   0  0  0  0  0  0  0  0  0  0  0  0
    0.4236   14.5699   -5.9945 C   0  0  0  0  0  0  0  0  0  0  0  0
   -3.7594   15.0422  -11.2114 C   0  0  0  0  0  0  0  0  0  0  0  0
   -2.3424   15.0924  -11.7154 C   0  0  0  0  0  0  0  0  0  0  0  0
   -1.5130   13.9202  -11.2644 C   0  0  0  0  0  0  0  0  0  0  0  0
   -2.1771   12.5990  -11.6641 C   0  0  0  0  0  0  0  0  0  0  0  0
   -3.6239   12.4833  -11.0641 C   0  0  0  0  0  0  0  0  0  0  0  0
   -6.0088   12.2426   -9.8942 H   0  0  0  0  0  0  0  0  0  0  0  0
   -8.1640   10.1218  -13.9067 H   0  0  0  0  0  0  0  0  0  0  0  0
   -6.8867   12.2580  -14.1015 H   0  0  0  0  0  0  0  0  0  0  0  0
   -8.6506    7.9907   -9.4444 H   0  0  0  0  0  0  0  0  0  0  0  0
   -8.0354    9.5960   -7.2566 H   0  0  0  0  0  0  0  0  0  0  0  0
   -6.7459   12.3157   -6.9160 H   0  0  0  0  0  0  0  0  0  0  0  0
   -4.5140   13.2889   -6.4783 H   0  0  0  0  0  0  0  0  0  0  0  0
   -3.4416   12.0327   -8.2435 H   0  0  0  0  0  0  0  0  0  0  0  0
   -2.6697    9.7519   -8.0446 H   0  0  0  0  0  0  0  0  0  0  0  0
   -4.8934    8.7808   -8.4891 H   0  0  0  0  0  0  0  0  0  0  0  0
   -2.4165   14.2253   -6.2216 H   0  0  0  0  0  0  0  0  0  0  0  0
   -0.6572   10.5584   -7.5683 H   0  0  0  0  0  0  0  0  0  0  0  0
    1.4836   14.2826   -6.0565 H   0  0  0  0  0  0  0  0  0  0  0  0
    0.2413   15.4403   -6.6420 H   0  0  0  0  0  0  0  0  0  0  0  0
    0.1739   14.8277   -4.9547 H   0  0  0  0  0  0  0  0  0  0  0  0
   -4.3489   15.8104  -11.7333 H   0  0  0  0  0  0  0  0  0  0  0  0
   -3.7594   15.2509  -10.1314 H   0  0  0  0  0  0  0  0  0  0  0  0
   -2.3623   15.1046  -12.8152 H   0  0  0  0  0  0  0  0  0  0  0  0
   -1.8724   16.0161  -11.3469 H   0  0  0  0  0  0  0  0  0  0  0  0
   -0.5191   13.9803  -11.7319 H   0  0  0  0  0  0  0  0  0  0  0  0
   -1.4061   13.9537  -10.1701 H   0  0  0  0  0  0  0  0  0  0  0  0
   -2.2388   12.5464  -12.7611 H   0  0  0  0  0  0  0  0  0  0  0  0
   -1.5665   11.7637  -11.2908 H   0  0  0  0  0  0  0  0  0  0  0  0
   -3.5680   12.3989   -9.9688 H   0  0  0  0  0  0  0  0  0  0  0  0
   -4.1284   11.5964  -11.4749 H   0  0  0  0  0  0  0  0  0  0  0  0
  1  2  2  0  0  0  0
  1  4  1  0  0  0  0
  1 12  1  0  0  0  0
  2  6  1  0  0  0  0
  3  4  2  0  0  0  0
  3  5  1  0  0  0  0
  5  6  1  0  0  0  0
  5  9  2  0  0  0  0
  6  7  2  0  0  0  0
  7  8  1  0  0  0  0
  7 10  1  0  0  0  0
  8  9  1  0  0  0  0
 10 14  2  0  0  0  0
 11 12  1  0  0  0  0
 11 26  1  0  0  0  0
 11 30  1  0  0  0  0
 12 13  2  0  0  0  0
 14 15  1  0  0  0  0
 14 19  1  0  0  0  0
 15 16  2  0  0  0  0
 16 17  1  0  0  0  0
 17 18  1  0  0  0  0
 17 20  1  0  0  0  0
 18 19  2  0  0  0  0
 20 21  2  0  0  0  0
 20 24  1  0  0  0  0
 21 22  1  0  0  0  0
 22 23  1  0  0  0  0
 22 25  1  0  0  0  0
 23 24  2  0  0  0  0
 26 27  1  0  0  0  0
 27 28  1  0  0  0  0
 28 29  1  0  0  0  0
 29 30  1  0  0  0  0
  2 31  1  0  0  0  0
  3 32  1  0  0  0  0
  4 33  1  0  0  0  0
  8 34  1  0  0  0  0
 10 35  1  0  0  0  0
 15 36  1  0  0  0  0
 16 37  1  0  0  0  0
 17 38  1  0  0  0  0
 18 39  1  0  0  0  0
 19 40  1  0  0  0  0
 21 41  1  0  0  0  0
 24 42  1  0  0  0  0
 25 43  1  0  0  0  0
 25 44  1  0  0  0  0
 25 45  1  0  0  0  0
 26 46  1  0  0  0  0
 26 47  1  0  0  0  0
 27 48  1  0  0  0  0
 27 49  1  0  0  0  0
 28 50  1  0  0  0  0
 28 51  1  0  0  0  0
 29 52  1  0  0  0  0
 29 53  1  0  0  0  0
 30 54  1  0  0  0  0
 30 55  1  0  0  0  0
M  END
> <Name>
41

> <IC50[uM]>
0.006

$$$$
41
  -OEChem-05192314333D
 Structure written by MMmdl.
 55 59  0     0  0  0  0  0  0999 V2000
   -6.3365   12.3514  -12.0169 C   0  0  0  0  0  0  0  0  0  0  0  0
   -6.4737   11.7818  -10.7533 C   0  0  0  0  0  0  0  0  0  0  0  0
   -7.7043   10.5771  -13.0419 C   0  0  0  0  0  0  0  0  0  0  0  0
   -6.9700   11.7706  -13.1413 C   0  0  0  0  0  0  0  0  0  0  0  0
   -7.8117   10.0060  -11.7679 C   0  0  0  0  0  0  0  0  0  0  0  0
   -7.2142   10.6153  -10.6085 C   0  0  0  0  0  0  0  0  0  0  0  0
   -7.6079    9.7475   -9.5180 C   0  0  0  0  0  0  0  0  0  0  0  0
   -8.2848    8.7450   -9.9896 N   0  0  0  0  0  0  0  0  0  0  0  0
   -8.4180    8.8715  -11.3012 N   0  0  0  0  0  0  0  0  0  0  0  0
   -7.3345    9.8877   -8.0248 C   0  0  0  0  0  0  0  0  0  0  0  0
   -4.3847   13.7235  -11.4418 N   0  0  0  0  0  0  0  0  0  0  0  0
   -5.5533   13.6485  -12.1711 C   0  0  0  0  0  0  0  0  0  0  0  0
   -5.9795   14.5724  -12.8566 O   0  0  0  0  0  0  0  0  0  0  0  0
   -5.9627   10.4850   -7.7364 C   0  0  0  0  0  0  0  0  0  0  0  0
   -5.8552   11.7581   -7.1652 C   0  0  0  0  0  0  0  0  0  0  0  0
   -4.5966   12.3060   -6.9181 C   0  0  0  0  0  0  0  0  0  0  0  0
   -3.4424   11.5865   -7.2381 C   0  0  0  0  0  0  0  0  0  0  0  0
   -3.5593   10.3139   -7.8013 C   0  0  0  0  0  0  0  0  0  0  0  0
   -4.8122    9.7647   -8.0513 C   0  0  0  0  0  0  0  0  0  0  0  0
   -2.0942   12.1662   -6.9781 C   0  0  0  0  0  0  0  0  0  0  0  0
   -1.7414   13.4274   -6.4937 C   0  0  0  0  0  0  0  0  0  0  0  0
   -0.4089   13.4560   -6.4321 N   0  0  0  0  0  0  0  0  0  0  0  0
    0.1814   12.3590   -6.8068 N   0  0  0  0  0  0  0  0  0  0  0  0
   -0.8029   11.5527   -7.1728 C   0  0  0  0  0  0  0  0  0  0  0  0
    0.4236   14.5699   -5.9945 C   0  0  0  0  0  0  0  0  0  0  0  0
   -3.7594   15.0422  -11.2114 C   0  0  0  0  0  0  0  0  0  0  0  0
   -2.3424   15.0924  -11.7154 C   0  0  0  0  0  0  0  0  0  0  0  0
   -1.5130   13.9202  -11.2644 C   0  0  0  0  0  0  0  0  0  0  0  0
   -2.1771   12.5990  -11.6641 C   0  0  0  0  0  0  0  0  0  0  0  0
   -3.6239   12.4833  -11.0641 C   0  0  0  0  0  0  0  0  0  0  0  0
   -6.0088   12.2426   -9.8942 H   0  0  0  0  0  0  0  0  0  0  0  0
   -8.1640   10.1218  -13.9067 H   0  0  0  0  0  0  0  0  0  0  0  0
   -6.8867   12.2580  -14.1015 H   0  0  0  0  0  0  0  0  0  0  0  0
   -8.9032    8.2168  -11.8807 H   0  0  0  0  0  0  0  0  0  0  0  0
   -8.0354    9.5960   -7.2566 H   0  0  0  0  0  0  0  0  0  0  0  0
   -6.7459   12.3157   -6.9160 H   0  0  0  0  0  0  0  0  0  0  0  0
   -4.5140   13.2889   -6.4783 H   0  0  0  0  0  0  0  0  0  0  0  0
   -3.4416   12.0327   -8.2435 H   0  0  0  0  0  0  0  0  0  0  0  0
   -2.6697    9.7519   -8.0446 H   0  0  0  0  0  0  0  0  0  0  0  0
   -4.8934    8.7808   -8.4891 H   0  0  0  0  0  0  0  0  0  0  0  0
   -2.4165   14.2253   -6.2216 H   0  0  0  0  0  0  0  0  0  0  0  0
   -0.6572   10.5584   -7.5683 H   0  0  0  0  0  0  0  0  0  0  0  0
    1.4836   14.2826   -6.0565 H   0  0  0  0  0  0  0  0  0  0  0  0
    0.2413   15.4403   -6.6420 H   0  0  0  0  0  0  0  0  0  0  0  0
    0.1739   14.8277   -4.9547 H   0  0  0  0  0  0  0  0  0  0  0  0
   -4.3489   15.8104  -11.7333 H   0  0  0  0  0  0  0  0  0  0  0  0
   -3.7594   15.2509  -10.1314 H   0  0  0  0  0  0  0  0  0  0  0  0
   -2.3623   15.1046  -12.8152 H   0  0  0  0  0  0  0  0  0  0  0  0
   -1.8724   16.0161  -11.3469 H   0  0  0  0  0  0  0  0  0  0  0  0
   -0.5191   13.9803  -11.7319 H   0  0  0  0  0  0  0  0  0  0  0  0
   -1.4061   13.9537  -10.1701 H   0  0  0  0  0  0  0  0  0  0  0  0
   -2.2388   12.5464  -12.7611 H   0  0  0  0  0  0  0  0  0  0  0  0
   -1.5665   11.7637  -11.2908 H   0  0  0  0  0  0  0  0  0  0  0  0
   -3.5680   12.3989   -9.9688 H   0  0  0  0  0  0  0  0  0  0  0  0
   -4.1284   11.5964  -11.4749 H   0  0  0  0  0  0  0  0  0  0  0  0
  1  2  2  0  0  0  0
  1  4  1  0  0  0  0
  1 12  1  0  0  0  0
  2  6  1  0  0  0  0
  3  4  2  0  0  0  0
  3  5  1  0  0  0  0
  5  6  2  0  0  0  0
  5  9  1  0  0  0  0
  6  7  1  0  0  0  0
  7  8  2  0  0  0  0
  7 10  1  0  0  0  0
  8  9  1  0  0  0  0
 10 14  2  0  0  0  0
 11 12  1  0  0  0  0
 11 26  1  0  0  0  0
 11 30  1  0  0  0  0
 12 13  2  0  0  0  0
 14 15  1  0  0  0  0
 14 19  1  0  0  0  0
 15 16  2  0  0  0  0
 16 17  1  0  0  0  0
 17 18  1  0  0  0  0
 17 20  1  0  0  0  0
 18 19  2  0  0  0  0
 20 21  2  0  0  0  0
 20 24  1  0  0  0  0
 21 22  1  0  0  0  0
 22 23  1  0  0  0  0
 22 25  1  0  0  0  0
 23 24  2  0  0  0  0
 26 27  1  0  0  0  0
 27 28  1  0  0  0  0
 28 29  1  0  0  0  0
 29 30  1  0  0  0  0
  2 31  1  0  0  0  0
  3 32  1  0  0  0  0
  4 33  1  0  0  0  0
  9 34  1  0  0  0  0
 10 35  1  0  0  0  0
 15 36  1  0  0  0  0
 16 37  1  0  0  0  0
 17 38  1  0  0  0  0
 18 39  1  0  0  0  0
 19 40  1  0  0  0  0
 21 41  1  0  0  0  0
 24 42  1  0  0  0  0
 25 43  1  0  0  0  0
 25 44  1  0  0  0  0
 25 45  1  0  0  0  0
 26 46  1  0  0  0  0
 26 47  1  0  0  0  0
 27 48  1  0  0  0  0
 27 49  1  0  0  0  0
 28 50  1  0  0  0  0
 28 51  1  0  0  0  0
 29 52  1  0  0  0  0
 29 53  1  0  0  0  0
 30 54  1  0  0  0  0
 30 55  1  0  0  0  0
M  END
> <Name>
41

> <IC50[uM]>
0.006

$$$$
41
  -OEChem-05192314333D
 Structure written by MMmdl.
 55 59  0     0  0  0  0  0  0999 V2000
   -6.3365   12.3514  -12.0169 C   0  0  0  0  0  0  0  0  0  0  0  0
   -6.4737   11.7818  -10.7533 C   0  0  0  0  0  0  0  0  0  0  0  0
   -7.7043   10.5771  -13.0419 C   0  0  0  0  0  0  0  0  0  0  0  0
   -6.9700   11.7706  -13.1413 C   0  0  0  0  0  0  0  0  0  0  0  0
   -7.8117   10.0060  -11.7679 C   0  0  0  0  0  0  0  0  0  0  0  0
   -7.2142   10.6153  -10.6085 C   0  0  0  0  0  0  0  0  0  0  0  0
   -7.6079    9.7475   -9.5180 C   0  0  0  0  0  0  0  0  0  0  0  0
   -8.2848    8.7450   -9.9896 N   0  0  0  0  0  0  0  0  0  0  0  0
   -8.4180    8.8715  -11.3012 N   0  0  0  0  0  0  0  0  0  0  0  0
   -7.3345    9.8877   -8.0248 C   0  0  0  0  0  0  0  0  0  0  0  0
   -4.3847   13.7235  -11.4418 N   0  0  0  0  0  0  0  0  0  0  0  0
   -5.5533   13.6485  -12.1711 C   0  0  0  0  0  0  0  0  0  0  0  0
   -5.9795   14.5724  -12.8566 O   0  0  0  0  0  0  0  0  0  0  0  0
   -5.9627   10.4850   -7.7364 C   0  0  0  0  0  0  0  0  0  0  0  0
   -5.8552   11.7581   -7.1652 C   0  0  0  0  0  0  0  0  0  0  0  0
   -4.5966   12.3060   -6.9181 C   0  0  0  0  0  0  0  0  0  0  0  0
   -3.4424   11.5865   -7.2381 C   0  0  0  0  0  0  0  0  0  0  0  0
   -3.5593   10.3139   -7.8013 C   0  0  0  0  0  0  0  0  0  0  0  0
   -4.8122    9.7647   -8.0513 C   0  0  0  0  0  0  0  0  0  0  0  0
   -2.0942   12.1662   -6.9781 C   0  0  0  0  0  0  0  0  0  0  0  0
   -1.7414   13.4274   -6.4937 C   0  0  0  0  0  0  0  0  0  0  0  0
   -0.4089   13.4560   -6.4321 N   0  0  0  0  0  0  0  0  0  0  0  0
    0.1814   12.3590   -6.8068 N   0  0  0  0  0  0  0  0  0  0  0  0
   -0.8029   11.5527   -7.1728 C   0  0  0  0  0  0  0  0  0  0  0  0
    0.4236   14.5699   -5.9945 C   0  0  0  0  0  0  0  0  0  0  0  0
   -3.7594   15.0422  -11.2114 C   0  0  0  0  0  0  0  0  0  0  0  0
   -2.3424   15.0924  -11.7154 C   0  0  0  0  0  0  0  0  0  0  0  0
   -1.5130   13.9202  -11.2644 C   0  0  0  0  0  0  0  0  0  0  0  0
   -2.1771   12.5990  -11.6641 C   0  0  0  0  0  0  0  0  0  0  0  0
   -3.6239   12.4833  -11.0641 C   0  0  0  0  0  0  0  0  0  0  0  0
   -6.0088   12.2426   -9.8942 H   0  0  0  0  0  0  0  0  0  0  0  0
   -8.1640   10.1218  -13.9067 H   0  0  0  0  0  0  0  0  0  0  0  0
   -6.8867   12.2580  -14.1015 H   0  0  0  0  0  0  0  0  0  0  0  0
   -8.6506    7.9907   -9.4444 H   0  0  0  0  0  0  0  0  0  0  0  0
   -8.0354    9.5960   -7.2566 H   0  0  0  0  0  0  0  0  0  0  0  0
   -6.7459   12.3157   -6.9160 H   0  0  0  0  0  0  0  0  0  0  0  0
   -4.5140   13.2889   -6.4783 H   0  0  0  0  0  0  0  0  0  0  0  0
   -2.6697    9.7519   -8.0446 H   0  0  0  0  0  0  0  0  0  0  0  0
   -4.8638    8.8212   -7.4881 H   0  0  0  0  0  0  0  0  0  0  0  0
   -4.8562    9.5510   -9.1294 H   0  0  0  0  0  0  0  0  0  0  0  0
   -2.4165   14.2253   -6.2216 H   0  0  0  0  0  0  0  0  0  0  0  0
   -0.6572   10.5584   -7.5683 H   0  0  0  0  0  0  0  0  0  0  0  0
    1.4836   14.2826   -6.0565 H   0  0  0  0  0  0  0  0  0  0  0  0
    0.2413   15.4403   -6.6420 H   0  0  0  0  0  0  0  0  0  0  0  0
    0.1739   14.8277   -4.9547 H   0  0  0  0  0  0  0  0  0  0  0  0
   -4.3489   15.8104  -11.7333 H   0  0  0  0  0  0  0  0  0  0  0  0
   -3.7594   15.2509  -10.1314 H   0  0  0  0  0  0  0  0  0  0  0  0
   -2.3623   15.1046  -12.8152 H   0  0  0  0  0  0  0  0  0  0  0  0
   -1.8724   16.0161  -11.3469 H   0  0  0  0  0  0  0  0  0  0  0  0
   -0.5191   13.9803  -11.7319 H   0  0  0  0  0  0  0  0  0  0  0  0
   -1.4061   13.9537  -10.1701 H   0  0  0  0  0  0  0  0  0  0  0  0
   -2.2388   12.5464  -12.7611 H   0  0  0  0  0  0  0  0  0  0  0  0
   -1.5665   11.7637  -11.2908 H   0  0  0  0  0  0  0  0  0  0  0  0
   -3.5680   12.3989   -9.9688 H   0  0  0  0  0  0  0  0  0  0  0  0
   -4.1284   11.5964  -11.4749 H   0  0  0  0  0  0  0  0  0  0  0  0
  1  2  2  0  0  0  0
  1  4  1  0  0  0  0
  1 12  1  0  0  0  0
  2  6  1  0  0  0  0
  3  4  2  0  0  0  0
  3  5  1  0  0  0  0
  5  6  1  0  0  0  0
  5  9  2  0  0  0  0
  6  7  2  0  0  0  0
  7  8  1  0  0  0  0
  7 10  1  0  0  0  0
  8  9  1  0  0  0  0
 10 14  2  3  0  0  0
 11 12  1  0  0  0  0
 11 26  1  0  0  0  0
 11 30  1  0  0  0  0
 12 13  2  0  0  0  0
 14 15  1  0  0  0  0
 14 19  1  0  0  0  0
 15 16  2  0  0  0  0
 16 17  1  0  0  0  0
 17 18  2  0  0  0  0
 17 20  1  0  0  0  0
 18 19  1  0  0  0  0
 20 21  2  0  0  0  0
 20 24  1  0  0  0  0
 21 22  1  0  0  0  0
 22 23  1  0  0  0  0
 22 25  1  0  0  0  0
 23 24  2  0  0  0  0
 26 27  1  0  0  0  0
 27 28  1  0  0  0  0
 28 29  1  0  0  0  0
 29 30  1  0  0  0  0
  2 31  1  0  0  0  0
  3 32  1  0  0  0  0
  4 33  1  0  0  0  0
  8 34  1  0  0  0  0
 10 35  1  0  0  0  0
 15 36  1  0  0  0  0
 16 37  1  0  0  0  0
 18 38  1  0  0  0  0
 19 39  1  0  0  0  0
 19 40  1  0  0  0  0
 21 41  1  0  0  0  0
 24 42  1  0  0  0  0
 25 43  1  0  0  0  0
 25 44  1  0  0  0  0
 25 45  1  0  0  0  0
 26 46  1  0  0  0  0
 26 47  1  0  0  0  0
 27 48  1  0  0  0  0
 27 49  1  0  0  0  0
 28 50  1  0  0  0  0
 28 51  1  0  0  0  0
 29 52  1  0  0  0  0
 29 53  1  0  0  0  0
 30 54  1  0  0  0  0
 30 55  1  0  0  0  0
M  END
> <Name>
41

> <IC50[uM]>
0.006

$$$$
41
  -OEChem-05192314333D
 Structure written by MMmdl.
 55 59  0     0  0  0  0  0  0999 V2000
   -6.3365   12.3514  -12.0169 C   0  0  0  0  0  0  0  0  0  0  0  0
   -6.4737   11.7818  -10.7533 C   0  0  0  0  0  0  0  0  0  0  0  0
   -7.7043   10.5771  -13.0419 C   0  0  0  0  0  0  0  0  0  0  0  0
   -6.9700   11.7706  -13.1413 C   0  0  0  0  0  0  0  0  0  0  0  0
   -7.8117   10.0060  -11.7679 C   0  0  0  0  0  0  0  0  0  0  0  0
   -7.2142   10.6153  -10.6085 C   0  0  0  0  0  0  0  0  0  0  0  0
   -7.6079    9.7475   -9.5180 C   0  0  0  0  0  0  0  0  0  0  0  0
   -8.2848    8.7450   -9.9896 N   0  0  0  0  0  0  0  0  0  0  0  0
   -8.4180    8.8715  -11.3012 N   0  0  0  0  0  0  0  0  0  0  0  0
   -7.3345    9.8877   -8.0248 C   0  0  0  0  0  0  0  0  0  0  0  0
   -4.3847   13.7235  -11.4418 N   0  0  0  0  0  0  0  0  0  0  0  0
   -5.5533   13.6485  -12.1711 C   0  0  0  0  0  0  0  0  0  0  0  0
   -5.9795   14.5724  -12.8566 O   0  0  0  0  0  0  0  0  0  0  0  0
   -5.9627   10.4850   -7.7364 C   0  0  0  0  0  0  0  0  0  0  0  0
   -5.8552   11.7581   -7.1652 C   0  0  0  0  0  0  0  0  0  0  0  0
   -4.5966   12.3060   -6.9181 C   0  0  0  0  0  0  0  0  0  0  0  0
   -3.4424   11.5865   -7.2381 C   0  0  0  0  0  0  0  0  0  0  0  0
   -3.5593   10.3139   -7.8013 C   0  0  0  0  0  0  0  0  0  0  0  0
   -4.8122    9.7647   -8.0513 C   0  0  0  0  0  0  0  0  0  0  0  0
   -2.0942   12.1662   -6.9781 C   0  0  0  0  0  0  0  0  0  0  0  0
   -1.7414   13.4274   -6.4937 C   0  0  0  0  0  0  0  0  0  0  0  0
   -0.4089   13.4560   -6.4321 N   0  0  0  0  0  0  0  0  0  0  0  0
    0.1814   12.3590   -6.8068 N   0  0  0  0  0  0  0  0  0  0  0  0
   -0.8029   11.5527   -7.1728 C   0  0  0  0  0  0  0  0  0  0  0  0
    0.4236   14.5699   -5.9945 C   0  0  0  0  0  0  0  0  0  0  0  0
   -3.7594   15.0422  -11.2114 C   0  0  0  0  0  0  0  0  0  0  0  0
   -2.3424   15.0924  -11.7154 C   0  0  0  0  0  0  0  0  0  0  0  0
   -1.5130   13.9202  -11.2644 C   0  0  0  0  0  0  0  0  0  0  0  0
   -2.1771   12.5990  -11.6641 C   0  0  0  0  0  0  0  0  0  0  0  0
   -3.6239   12.4833  -11.0641 C   0  0  0  0  0  0  0  0  0  0  0  0
   -6.0088   12.2426   -9.8942 H   0  0  0  0  0  0  0  0  0  0  0  0
   -8.1640   10.1218  -13.9067 H   0  0  0  0  0  0  0  0  0  0  0  0
   -6.8867   12.2580  -14.1015 H   0  0  0  0  0  0  0  0  0  0  0  0
   -8.9032    8.2168  -11.8807 H   0  0  0  0  0  0  0  0  0  0  0  0
   -8.0354    9.5960   -7.2566 H   0  0  0  0  0  0  0  0  0  0  0  0
   -6.7459   12.3157   -6.9160 H   0  0  0  0  0  0  0  0  0  0  0  0
   -4.5140   13.2889   -6.4783 H   0  0  0  0  0  0  0  0  0  0  0  0
   -2.6697    9.7519   -8.0446 H   0  0  0  0  0  0  0  0  0  0  0  0
   -4.8638    8.8212   -7.4881 H   0  0  0  0  0  0  0  0  0  0  0  0
   -4.8562    9.5510   -9.1294 H   0  0  0  0  0  0  0  0  0  0  0  0
   -2.4165   14.2253   -6.2216 H   0  0  0  0  0  0  0  0  0  0  0  0
   -0.6572   10.5584   -7.5683 H   0  0  0  0  0  0  0  0  0  0  0  0
    1.4836   14.2826   -6.0565 H   0  0  0  0  0  0  0  0  0  0  0  0
    0.2413   15.4403   -6.6420 H   0  0  0  0  0  0  0  0  0  0  0  0
    0.1739   14.8277   -4.9547 H   0  0  0  0  0  0  0  0  0  0  0  0
   -4.3489   15.8104  -11.7333 H   0  0  0  0  0  0  0  0  0  0  0  0
   -3.7594   15.2509  -10.1314 H   0  0  0  0  0  0  0  0  0  0  0  0
   -2.3623   15.1046  -12.8152 H   0  0  0  0  0  0  0  0  0  0  0  0
   -1.8724   16.0161  -11.3469 H   0  0  0  0  0  0  0  0  0  0  0  0
   -0.5191   13.9803  -11.7319 H   0  0  0  0  0  0  0  0  0  0  0  0
   -1.4061   13.9537  -10.1701 H   0  0  0  0  0  0  0  0  0  0  0  0
   -2.2388   12.5464  -12.7611 H   0  0  0  0  0  0  0  0  0  0  0  0
   -1.5665   11.7637  -11.2908 H   0  0  0  0  0  0  0  0  0  0  0  0
   -3.5680   12.3989   -9.9688 H   0  0  0  0  0  0  0  0  0  0  0  0
   -4.1284   11.5964  -11.4749 H   0  0  0  0  0  0  0  0  0  0  0  0
  1  2  2  0  0  0  0
  1  4  1  0  0  0  0
  1 12  1  0  0  0  0
  2  6  1  0  0  0  0
  3  4  2  0  0  0  0
  3  5  1  0  0  0  0
  5  6  2  0  0  0  0
  5  9  1  0  0  0  0
  6  7  1  0  0  0  0
  7  8  2  0  0  0  0
  7 10  1  0  0  0  0
  8  9  1  0  0  0  0
 10 14  2  3  0  0  0
 11 12  1  0  0  0  0
 11 26  1  0  0  0  0
 11 30  1  0  0  0  0
 12 13  2  0  0  0  0
 14 15  1  0  0  0  0
 14 19  1  0  0  0  0
 15 16  2  0  0  0  0
 16 17  1  0  0  0  0
 17 18  2  0  0  0  0
 17 20  1  0  0  0  0
 18 19  1  0  0  0  0
 20 21  2  0  0  0  0
 20 24  1  0  0  0  0
 21 22  1  0  0  0  0
 22 23  1  0  0  0  0
 22 25  1  0  0  0  0
 23 24  2  0  0  0  0
 26 27  1  0  0  0  0
 27 28  1  0  0  0  0
 28 29  1  0  0  0  0
 29 30  1  0  0  0  0
  2 31  1  0  0  0  0
  3 32  1  0  0  0  0
  4 33  1  0  0  0  0
  9 34  1  0  0  0  0
 10 35  1  0  0  0  0
 15 36  1  0  0  0  0
 16 37  1  0  0  0  0
 18 38  1  0  0  0  0
 19 39  1  0  0  0  0
 19 40  1  0  0  0  0
 21 41  1  0  0  0  0
 24 42  1  0  0  0  0
 25 43  1  0  0  0  0
 25 44  1  0  0  0  0
 25 45  1  0  0  0  0
 26 46  1  0  0  0  0
 26 47  1  0  0  0  0
 27 48  1  0  0  0  0
 27 49  1  0  0  0  0
 28 50  1  0  0  0  0
 28 51  1  0  0  0  0
 29 52  1  0  0  0  0
 29 53  1  0  0  0  0
 30 54  1  0  0  0  0
 30 55  1  0  0  0  0
M  END
> <Name>
41

> <IC50[uM]>
0.006

$$$$
41
  -OEChem-05192314333D
 Structure written by MMmdl.
 55 59  0     1  0  0  0  0  0999 V2000
   -6.3365   12.3514  -12.0169 C   0  0  0  0  0  0  0  0  0  0  0  0
   -6.4737   11.7818  -10.7533 C   0  0  0  0  0  0  0  0  0  0  0  0
   -7.7043   10.5771  -13.0419 C   0  0  0  0  0  0  0  0  0  0  0  0
   -6.9700   11.7706  -13.1413 C   0  0  0  0  0  0  0  0  0  0  0  0
   -7.8117   10.0060  -11.7679 C   0  0  0  0  0  0  0  0  0  0  0  0
   -7.2142   10.6153  -10.6085 C   0  0  0  0  0  0  0  0  0  0  0  0
   -7.6079    9.7475   -9.5180 C   0  0  0  0  0  0  0  0  0  0  0  0
   -8.2848    8.7450   -9.9896 N   0  0  0  0  0  0  0  0  0  0  0  0
   -8.4180    8.8715  -11.3012 N   0  0  0  0  0  0  0  0  0  0  0  0
   -7.3345    9.8877   -8.0248 C   0  0  0  0  0  0  0  0  0  0  0  0
   -4.3847   13.7235  -11.4418 N   0  0  0  0  0  0  0  0  0  0  0  0
   -5.5533   13.6485  -12.1711 C   0  0  0  0  0  0  0  0  0  0  0  0
   -5.9795   14.5724  -12.8566 O   0  0  0  0  0  0  0  0  0  0  0  0
   -5.9627   10.4850   -7.7364 C   0  0  0  0  0  0  0  0  0  0  0  0
   -5.8552   11.7581   -7.1652 C   0  0  0  0  0  0  0  0  0  0  0  0
   -4.5966   12.3060   -6.9181 C   0  0  0  0  0  0  0  0  0  0  0  0
   -3.4424   11.5865   -7.2381 C   0  0  0  0  0  0  0  0  0  0  0  0
   -3.5593   10.3139   -7.8013 C   0  0  0  0  0  0  0  0  0  0  0  0
   -4.8122    9.7647   -8.0513 C   0  0  0  0  0  0  0  0  0  0  0  0
   -2.0942   12.1662   -6.9781 C   0  0  3  0  0  0  0  0  0  0  0  0
   -1.7414   13.4274   -6.4937 C   0  0  0  0  0  0  0  0  0  0  0  0
   -0.4089   13.4560   -6.4321 N   0  0  3  0  0  0  0  0  0  0  0  0
    0.1814   12.3590   -6.8068 N   0  0  0  0  0  0  0  0  0  0  0  0
   -0.8029   11.5527   -7.1728 C   0  0  0  0  0  0  0  0  0  0  0  0
    0.4236   14.5699   -5.9945 C   0  0  0  0  0  0  0  0  0  0  0  0
   -3.7594   15.0422  -11.2114 C   0  0  0  0  0  0  0  0  0  0  0  0
   -2.3424   15.0924  -11.7154 C   0  0  0  0  0  0  0  0  0  0  0  0
   -1.5130   13.9202  -11.2644 C   0  0  0  0  0  0  0  0  0  0  0  0
   -2.1771   12.5990  -11.6641 C   0  0  0  0  0  0  0  0  0  0  0  0
   -3.6239   12.4833  -11.0641 C   0  0  0  0  0  0  0  0  0  0  0  0
   -6.0088   12.2426   -9.8942 H   0  0  0  0  0  0  0  0  0  0  0  0
   -8.1640   10.1218  -13.9067 H   0  0  0  0  0  0  0  0  0  0  0  0
   -6.8867   12.2580  -14.1015 H   0  0  0  0  0  0  0  0  0  0  0  0
   -8.0354    9.5960   -7.2566 H   0  0  0  0  0  0  0  0  0  0  0  0
   -6.7459   12.3157   -6.9160 H   0  0  0  0  0  0  0  0  0  0  0  0
   -4.5140   13.2889   -6.4783 H   0  0  0  0  0  0  0  0  0  0  0  0
   -2.6697    9.7519   -8.0446 H   0  0  0  0  0  0  0  0  0  0  0  0
   -4.8934    8.7808   -8.4891 H   0  0  0  0  0  0  0  0  0  0  0  0
   -2.1246   11.7783   -5.9492 H   0  0  0  0  0  0  0  0  0  0  0  0
   -2.1062   14.2106   -7.1745 H   0  0  0  0  0  0  0  0  0  0  0  0
   -2.1705   13.5826   -5.4928 H   0  0  0  0  0  0  0  0  0  0  0  0
   -0.6572   10.5584   -7.5683 H   0  0  0  0  0  0  0  0  0  0  0  0
    1.4836   14.2826   -6.0565 H   0  0  0  0  0  0  0  0  0  0  0  0
    0.2413   15.4403   -6.6420 H   0  0  0  0  0  0  0  0  0  0  0  0
    0.1739   14.8277   -4.9547 H   0  0  0  0  0  0  0  0  0  0  0  0
   -4.3489   15.8104  -11.7333 H   0  0  0  0  0  0  0  0  0  0  0  0
   -3.7594   15.2509  -10.1314 H   0  0  0  0  0  0  0  0  0  0  0  0
   -2.3623   15.1046  -12.8152 H   0  0  0  0  0  0  0  0  0  0  0  0
   -1.8724   16.0161  -11.3469 H   0  0  0  0  0  0  0  0  0  0  0  0
   -0.5191   13.9803  -11.7319 H   0  0  0  0  0  0  0  0  0  0  0  0
   -1.4061   13.9537  -10.1701 H   0  0  0  0  0  0  0  0  0  0  0  0
   -2.2388   12.5464  -12.7611 H   0  0  0  0  0  0  0  0  0  0  0  0
   -1.5665   11.7637  -11.2908 H   0  0  0  0  0  0  0  0  0  0  0  0
   -3.5680   12.3989   -9.9688 H   0  0  0  0  0  0  0  0  0  0  0  0
   -4.1284   11.5964  -11.4749 H   0  0  0  0  0  0  0  0  0  0  0  0
  1  2  2  0  0  0  0
  1  4  1  0  0  0  0
  1 12  1  0  0  0  0
  2  6  1  0  0  0  0
  3  4  2  0  0  0  0
  3  5  1  0  0  0  0
  5  6  2  0  0  0  0
  5  9  1  0  0  0  0
  6  7  1  0  0  0  0
  7  8  1  0  0  0  0
  7 10  2  3  0  0  0
  8  9  2  0  0  0  0
 10 14  1  0  0  0  0
 11 12  1  0  0  0  0
 11 26  1  0  0  0  0
 11 30  1  0  0  0  0
 12 13  2  0  0  0  0
 14 15  2  0  0  0  0
 14 19  1  0  0  0  0
 15 16  1  0  0  0  0
 16 17  2  0  0  0  0
 17 18  1  0  0  0  0
 17 20  1  0  0  0  0
 18 19  2  0  0  0  0
 20 21  1  0  0  0  0
 20 24  1  0  0  0  0
 21 22  1  0  0  0  0
 22 23  1  0  0  0  0
 22 25  1  0  0  0  0
 23 24  2  0  0  0  0
 26 27  1  0  0  0  0
 27 28  1  0  0  0  0
 28 29  1  0  0  0  0
 29 30  1  0  0  0  0
  2 31  1  0  0  0  0
  3 32  1  0  0  0  0
  4 33  1  0  0  0  0
 10 34  1  0  0  0  0
 15 35  1  0  0  0  0
 16 36  1  0  0  0  0
 18 37  1  0  0  0  0
 19 38  1  0  0  0  0
 20 39  1  0  0  0  0
 21 40  1  0  0  0  0
 21 41  1  0  0  0  0
 24 42  1  0  0  0  0
 25 43  1  0  0  0  0
 25 44  1  0  0  0  0
 25 45  1  0  0  0  0
 26 46  1  0  0  0  0
 26 47  1  0  0  0  0
 27 48  1  0  0  0  0
 27 49  1  0  0  0  0
 28 50  1  0  0  0  0
 28 51  1  0  0  0  0
 29 52  1  0  0  0  0
 29 53  1  0  0  0  0
 30 54  1  0  0  0  0
 30 55  1  0  0  0  0
M  END
> <Name>
41

> <IC50[uM]>
0.006

$$$$
41
  -OEChem-05192314333D
 Structure written by MMmdl.
 55 59  0     1  0  0  0  0  0999 V2000
   -6.3365   12.3514  -12.0169 C   0  0  0  0  0  0  0  0  0  0  0  0
   -6.4737   11.7818  -10.7533 C   0  0  0  0  0  0  0  0  0  0  0  0
   -7.7043   10.5771  -13.0419 C   0  0  0  0  0  0  0  0  0  0  0  0
   -6.9700   11.7706  -13.1413 C   0  0  0  0  0  0  0  0  0  0  0  0
   -7.8117   10.0060  -11.7679 C   0  0  0  0  0  0  0  0  0  0  0  0
   -7.2142   10.6153  -10.6085 C   0  0  0  0  0  0  0  0  0  0  0  0
   -7.6079    9.7475   -9.5180 C   0  0  0  0  0  0  0  0  0  0  0  0
   -8.2848    8.7450   -9.9896 N   0  0  0  0  0  0  0  0  0  0  0  0
   -8.4180    8.8715  -11.3012 N   0  0  0  0  0  0  0  0  0  0  0  0
   -7.3345    9.8877   -8.0248 C   0  0  0  0  0  0  0  0  0  0  0  0
   -4.3847   13.7235  -11.4418 N   0  0  0  0  0  0  0  0  0  0  0  0
   -5.5533   13.6485  -12.1711 C   0  0  0  0  0  0  0  0  0  0  0  0
   -5.9795   14.5724  -12.8566 O   0  0  0  0  0  0  0  0  0  0  0  0
   -5.9627   10.4850   -7.7364 C   0  0  0  0  0  0  0  0  0  0  0  0
   -5.8552   11.7581   -7.1652 C   0  0  0  0  0  0  0  0  0  0  0  0
   -4.5966   12.3060   -6.9181 C   0  0  0  0  0  0  0  0  0  0  0  0
   -3.4424   11.5865   -7.2381 C   0  0  0  0  0  0  0  0  0  0  0  0
   -3.5593   10.3139   -7.8013 C   0  0  0  0  0  0  0  0  0  0  0  0
   -4.8122    9.7647   -8.0513 C   0  0  0  0  0  0  0  0  0  0  0  0
   -2.0942   12.1662   -6.9781 C   0  0  0  0  0  0  0  0  0  0  0  0
   -1.7414   13.4274   -6.4937 C   0  0  0  0  0  0  0  0  0  0  0  0
   -0.4089   13.4560   -6.4321 N   0  0  3  0  0  0  0  0  0  0  0  0
    0.1814   12.3590   -6.8068 N   0  0  0  0  0  0  0  0  0  0  0  0
   -0.8029   11.5527   -7.1728 C   0  0  0  0  0  0  0  0  0  0  0  0
    0.4236   14.5699   -5.9945 C   0  0  0  0  0  0  0  0  0  0  0  0
   -3.7594   15.0422  -11.2114 C   0  0  0  0  0  0  0  0  0  0  0  0
   -2.3424   15.0924  -11.7154 C   0  0  0  0  0  0  0  0  0  0  0  0
   -1.5130   13.9202  -11.2644 C   0  0  0  0  0  0  0  0  0  0  0  0
   -2.1771   12.5990  -11.6641 C   0  0  0  0  0  0  0  0  0  0  0  0
   -3.6239   12.4833  -11.0641 C   0  0  0  0  0  0  0  0  0  0  0  0
   -6.0088   12.2426   -9.8942 H   0  0  0  0  0  0  0  0  0  0  0  0
   -8.1640   10.1218  -13.9067 H   0  0  0  0  0  0  0  0  0  0  0  0
   -6.8867   12.2580  -14.1015 H   0  0  0  0  0  0  0  0  0  0  0  0
   -8.0354    9.5960   -7.2566 H   0  0  0  0  0  0  0  0  0  0  0  0
   -6.7459   12.3157   -6.9160 H   0  0  0  0  0  0  0  0  0  0  0  0
   -4.5140   13.2889   -6.4783 H   0  0  0  0  0  0  0  0  0  0  0  0
   -2.6697    9.7519   -8.0446 H   0  0  0  0  0  0  0  0  0  0  0  0
   -4.8934    8.7808   -8.4891 H   0  0  0  0  0  0  0  0  0  0  0  0
   -2.4165   14.2253   -6.2216 H   0  0  0  0  0  0  0  0  0  0  0  0
    0.7967   12.5349   -7.5752 H   0  0  0  0  0  0  0  0  0  0  0  0
   -0.7514   10.6319   -6.5732 H   0  0  0  0  0  0  0  0  0  0  0  0
   -0.6830   11.3040   -8.2376 H   0  0  0  0  0  0  0  0  0  0  0  0
    1.4837   14.2832   -6.0582 H   0  0  0  0  0  0  0  0  0  0  0  0
    0.2400   15.4408   -6.6409 H   0  0  0  0  0  0  0  0  0  0  0  0
    0.1752   14.8266   -4.9541 H   0  0  0  0  0  0  0  0  0  0  0  0
   -4.3489   15.8104  -11.7333 H   0  0  0  0  0  0  0  0  0  0  0  0
   -3.7594   15.2509  -10.1314 H   0  0  0  0  0  0  0  0  0  0  0  0
   -2.3623   15.1046  -12.8152 H   0  0  0  0  0  0  0  0  0  0  0  0
   -1.8724   16.0161  -11.3469 H   0  0  0  0  0  0  0  0  0  0  0  0
   -0.5191   13.9803  -11.7319 H   0  0  0  0  0  0  0  0  0  0  0  0
   -1.4061   13.9537  -10.1701 H   0  0  0  0  0  0  0  0  0  0  0  0
   -2.2388   12.5464  -12.7611 H   0  0  0  0  0  0  0  0  0  0  0  0
   -1.5665   11.7637  -11.2908 H   0  0  0  0  0  0  0  0  0  0  0  0
   -3.5680   12.3989   -9.9688 H   0  0  0  0  0  0  0  0  0  0  0  0
   -4.1284   11.5964  -11.4749 H   0  0  0  0  0  0  0  0  0  0  0  0
  1  2  2  0  0  0  0
  1  4  1  0  0  0  0
  1 12  1  0  0  0  0
  2  6  1  0  0  0  0
  3  4  2  0  0  0  0
  3  5  1  0  0  0  0
  5  6  2  0  0  0  0
  5  9  1  0  0  0  0
  6  7  1  0  0  0  0
  7  8  1  0  0  0  0
  7 10  2  3  0  0  0
  8  9  2  0  0  0  0
 10 14  1  0  0  0  0
 11 12  1  0  0  0  0
 11 26  1  0  0  0  0
 11 30  1  0  0  0  0
 12 13  2  0  0  0  0
 14 15  2  0  0  0  0
 14 19  1  0  0  0  0
 15 16  1  0  0  0  0
 16 17  2  0  0  0  0
 17 18  1  0  0  0  0
 17 20  1  0  0  0  0
 18 19  2  0  0  0  0
 20 21  2  0  0  0  0
 20 24  1  0  0  0  0
 21 22  1  0  0  0  0
 22 23  1  0  0  0  0
 22 25  1  0  0  0  0
 23 24  1  0  0  0  0
 26 27  1  0  0  0  0
 27 28  1  0  0  0  0
 28 29  1  0  0  0  0
 29 30  1  0  0  0  0
  2 31  1  0  0  0  0
  3 32  1  0  0  0  0
  4 33  1  0  0  0  0
 10 34  1  0  0  0  0
 15 35  1  0  0  0  0
 16 36  1  0  0  0  0
 18 37  1  0  0  0  0
 19 38  1  0  0  0  0
 21 39  1  0  0  0  0
 23 40  1  0  0  0  0
 24 41  1  0  0  0  0
 24 42  1  0  0  0  0
 25 43  1  0  0  0  0
 25 44  1  0  0  0  0
 25 45  1  0  0  0  0
 26 46  1  0  0  0  0
 26 47  1  0  0  0  0
 27 48  1  0  0  0  0
 27 49  1  0  0  0  0
 28 50  1  0  0  0  0
 28 51  1  0  0  0  0
 29 52  1  0  0  0  0
 29 53  1  0  0  0  0
 30 54  1  0  0  0  0
 30 55  1  0  0  0  0
M  END
> <Name>
41

> <IC50[uM]>
0.006

$$$$
41
  -OEChem-05192314333D
 Structure written by MMmdl.
 55 59  0     1  0  0  0  0  0999 V2000
   -6.3365   12.3514  -12.0169 C   0  0  0  0  0  0  0  0  0  0  0  0
   -6.4737   11.7818  -10.7533 C   0  0  0  0  0  0  0  0  0  0  0  0
   -7.7043   10.5771  -13.0419 C   0  0  0  0  0  0  0  0  0  0  0  0
   -6.9700   11.7706  -13.1413 C   0  0  0  0  0  0  0  0  0  0  0  0
   -7.8117   10.0060  -11.7679 C   0  0  0  0  0  0  0  0  0  0  0  0
   -7.2142   10.6153  -10.6085 C   0  0  0  0  0  0  0  0  0  0  0  0
   -7.6079    9.7475   -9.5180 C   0  0  0  0  0  0  0  0  0  0  0  0
   -8.2848    8.7450   -9.9896 N   0  0  0  0  0  0  0  0  0  0  0  0
   -8.4180    8.8715  -11.3012 N   0  0  0  0  0  0  0  0  0  0  0  0
   -7.3345    9.8877   -8.0248 C   0  0  0  0  0  0  0  0  0  0  0  0
   -4.3847   13.7235  -11.4418 N   0  0  0  0  0  0  0  0  0  0  0  0
   -5.5533   13.6485  -12.1711 C   0  0  0  0  0  0  0  0  0  0  0  0
   -5.9795   14.5724  -12.8566 O   0  0  0  0  0  0  0  0  0  0  0  0
   -5.9627   10.4850   -7.7364 C   0  0  0  0  0  0  0  0  0  0  0  0
   -5.8552   11.7581   -7.1652 C   0  0  0  0  0  0  0  0  0  0  0  0
   -4.5966   12.3060   -6.9181 C   0  0  0  0  0  0  0  0  0  0  0  0
   -3.4424   11.5865   -7.2381 C   0  0  0  0  0  0  0  0  0  0  0  0
   -3.5593   10.3139   -7.8013 C   0  0  0  0  0  0  0  0  0  0  0  0
   -4.8122    9.7647   -8.0513 C   0  0  0  0  0  0  0  0  0  0  0  0
   -2.0942   12.1662   -6.9781 C   0  0  0  0  0  0  0  0  0  0  0  0
   -1.7414   13.4274   -6.4937 C   0  0  0  0  0  0  0  0  0  0  0  0
   -0.4089   13.4560   -6.4321 N   0  0  3  0  0  0  0  0  0  0  0  0
    0.1814   12.3590   -6.8068 N   0  0  0  0  0  0  0  0  0  0  0  0
   -0.8029   11.5527   -7.1728 C   0  0  0  0  0  0  0  0  0  0  0  0
    0.4236   14.5699   -5.9945 C   0  0  0  0  0  0  0  0  0  0  0  0
   -3.7594   15.0422  -11.2114 C   0  0  0  0  0  0  0  0  0  0  0  0
   -2.3424   15.0924  -11.7154 C   0  0  0  0  0  0  0  0  0  0  0  0
   -1.5130   13.9202  -11.2644 C   0  0  0  0  0  0  0  0  0  0  0  0
   -2.1771   12.5990  -11.6641 C   0  0  0  0  0  0  0  0  0  0  0  0
   -3.6239   12.4833  -11.0641 C   0  0  0  0  0  0  0  0  0  0  0  0
   -6.0088   12.2426   -9.8942 H   0  0  0  0  0  0  0  0  0  0  0  0
   -8.1640   10.1218  -13.9067 H   0  0  0  0  0  0  0  0  0  0  0  0
   -6.8867   12.2580  -14.1015 H   0  0  0  0  0  0  0  0  0  0  0  0
   -8.0354    9.5960   -7.2566 H   0  0  0  0  0  0  0  0  0  0  0  0
   -6.7459   12.3157   -6.9160 H   0  0  0  0  0  0  0  0  0  0  0  0
   -4.5140   13.2889   -6.4783 H   0  0  0  0  0  0  0  0  0  0  0  0
   -2.6697    9.7519   -8.0446 H   0  0  0  0  0  0  0  0  0  0  0  0
   -4.8934    8.7808   -8.4891 H   0  0  0  0  0  0  0  0  0  0  0  0
   -2.1062   14.2106   -7.1745 H   0  0  0  0  0  0  0  0  0  0  0  0
   -2.1705   13.5826   -5.4928 H   0  0  0  0  0  0  0  0  0  0  0  0
    0.7967   12.5349   -7.5752 H   0  0  0  0  0  0  0  0  0  0  0  0
   -0.6572   10.5584   -7.5683 H   0  0  0  0  0  0  0  0  0  0  0  0
    1.4837   14.2832   -6.0582 H   0  0  0  0  0  0  0  0  0  0  0  0
    0.2400   15.4408   -6.6409 H   0  0  0  0  0  0  0  0  0  0  0  0
    0.1752   14.8266   -4.9541 H   0  0  0  0  0  0  0  0  0  0  0  0
   -4.3489   15.8104  -11.7333 H   0  0  0  0  0  0  0  0  0  0  0  0
   -3.7594   15.2509  -10.1314 H   0  0  0  0  0  0  0  0  0  0  0  0
   -2.3623   15.1046  -12.8152 H   0  0  0  0  0  0  0  0  0  0  0  0
   -1.8724   16.0161  -11.3469 H   0  0  0  0  0  0  0  0  0  0  0  0
   -0.5191   13.9803  -11.7319 H   0  0  0  0  0  0  0  0  0  0  0  0
   -1.4061   13.9537  -10.1701 H   0  0  0  0  0  0  0  0  0  0  0  0
   -2.2388   12.5464  -12.7611 H   0  0  0  0  0  0  0  0  0  0  0  0
   -1.5665   11.7637  -11.2908 H   0  0  0  0  0  0  0  0  0  0  0  0
   -3.5680   12.3989   -9.9688 H   0  0  0  0  0  0  0  0  0  0  0  0
   -4.1284   11.5964  -11.4749 H   0  0  0  0  0  0  0  0  0  0  0  0
  1  2  2  0  0  0  0
  1  4  1  0  0  0  0
  1 12  1  0  0  0  0
  2  6  1  0  0  0  0
  3  4  2  0  0  0  0
  3  5  1  0  0  0  0
  5  6  2  0  0  0  0
  5  9  1  0  0  0  0
  6  7  1  0  0  0  0
  7  8  1  0  0  0  0
  7 10  2  3  0  0  0
  8  9  2  0  0  0  0
 10 14  1  0  0  0  0
 11 12  1  0  0  0  0
 11 26  1  0  0  0  0
 11 30  1  0  0  0  0
 12 13  2  0  0  0  0
 14 15  2  0  0  0  0
 14 19  1  0  0  0  0
 15 16  1  0  0  0  0
 16 17  2  0  0  0  0
 17 18  1  0  0  0  0
 17 20  1  0  0  0  0
 18 19  2  0  0  0  0
 20 21  1  0  0  0  0
 20 24  2  0  0  0  0
 21 22  1  0  0  0  0
 22 23  1  0  0  0  0
 22 25  1  0  0  0  0
 23 24  1  0  0  0  0
 26 27  1  0  0  0  0
 27 28  1  0  0  0  0
 28 29  1  0  0  0  0
 29 30  1  0  0  0  0
  2 31  1  0  0  0  0
  3 32  1  0  0  0  0
  4 33  1  0  0  0  0
 10 34  1  0  0  0  0
 15 35  1  0  0  0  0
 16 36  1  0  0  0  0
 18 37  1  0  0  0  0
 19 38  1  0  0  0  0
 21 39  1  0  0  0  0
 21 40  1  0  0  0  0
 23 41  1  0  0  0  0
 24 42  1  0  0  0  0
 25 43  1  0  0  0  0
 25 44  1  0  0  0  0
 25 45  1  0  0  0  0
 26 46  1  0  0  0  0
 26 47  1  0  0  0  0
 27 48  1  0  0  0  0
 27 49  1  0  0  0  0
 28 50  1  0  0  0  0
 28 51  1  0  0  0  0
 29 52  1  0  0  0  0
 29 53  1  0  0  0  0
 30 54  1  0  0  0  0
 30 55  1  0  0  0  0
M  END
> <Name>
41

> <IC50[uM]>
0.006

$$$$
41
  -OEChem-05192314333D
 Structure written by MMmdl.
 55 59  0     1  0  0  0  0  0999 V2000
   -6.3365   12.3514  -12.0169 C   0  0  0  0  0  0  0  0  0  0  0  0
   -6.4737   11.7818  -10.7533 C   0  0  0  0  0  0  0  0  0  0  0  0
   -7.7043   10.5771  -13.0419 C   0  0  0  0  0  0  0  0  0  0  0  0
   -6.9700   11.7706  -13.1413 C   0  0  0  0  0  0  0  0  0  0  0  0
   -7.8117   10.0060  -11.7679 C   0  0  0  0  0  0  0  0  0  0  0  0
   -7.2142   10.6153  -10.6085 C   0  0  0  0  0  0  0  0  0  0  0  0
   -7.6079    9.7475   -9.5180 C   0  0  3  0  0  0  0  0  0  0  0  0
   -8.2848    8.7450   -9.9896 N   0  0  0  0  0  0  0  0  0  0  0  0
   -8.4180    8.8715  -11.3012 N   0  0  0  0  0  0  0  0  0  0  0  0
   -7.3345    9.8877   -8.0248 C   0  0  0  0  0  0  0  0  0  0  0  0
   -4.3847   13.7235  -11.4418 N   0  0  0  0  0  0  0  0  0  0  0  0
   -5.5533   13.6485  -12.1711 C   0  0  0  0  0  0  0  0  0  0  0  0
   -5.9795   14.5724  -12.8566 O   0  0  0  0  0  0  0  0  0  0  0  0
   -5.9627   10.4850   -7.7364 C   0  0  0  0  0  0  0  0  0  0  0  0
   -5.8552   11.7581   -7.1652 C   0  0  0  0  0  0  0  0  0  0  0  0
   -4.5966   12.3060   -6.9181 C   0  0  0  0  0  0  0  0  0  0  0  0
   -3.4424   11.5865   -7.2381 C   0  0  0  0  0  0  0  0  0  0  0  0
   -3.5593   10.3139   -7.8013 C   0  0  0  0  0  0  0  0  0  0  0  0
   -4.8122    9.7647   -8.0513 C   0  0  0  0  0  0  0  0  0  0  0  0
   -2.0942   12.1662   -6.9781 C   0  0  0  0  0  0  0  0  0  0  0  0
   -1.7414   13.4274   -6.4937 C   0  0  0  0  0  0  0  0  0  0  0  0
   -0.4089   13.4560   -6.4321 N   0  0  3  0  0  0  0  0  0  0  0  0
    0.1814   12.3590   -6.8068 N   0  0  0  0  0  0  0  0  0  0  0  0
   -0.8029   11.5527   -7.1728 C   0  0  0  0  0  0  0  0  0  0  0  0
    0.4236   14.5699   -5.9945 C   0  0  0  0  0  0  0  0  0  0  0  0
   -3.7594   15.0422  -11.2114 C   0  0  0  0  0  0  0  0  0  0  0  0
   -2.3424   15.0924  -11.7154 C   0  0  0  0  0  0  0  0  0  0  0  0
   -1.5130   13.9202  -11.2644 C   0  0  0  0  0  0  0  0  0  0  0  0
   -2.1771   12.5990  -11.6641 C   0  0  0  0  0  0  0  0  0  0  0  0
   -3.6239   12.4833  -11.0641 C   0  0  0  0  0  0  0  0  0  0  0  0
   -6.0088   12.2426   -9.8942 H   0  0  0  0  0  0  0  0  0  0  0  0
   -8.1640   10.1218  -13.9067 H   0  0  0  0  0  0  0  0  0  0  0  0
   -6.8867   12.2580  -14.1015 H   0  0  0  0  0  0  0  0  0  0  0  0
   -6.6760    9.1751   -9.6358 H   0  0  0  0  0  0  0  0  0  0  0  0
   -8.0354    9.5960   -7.2566 H   0  0  0  0  0  0  0  0  0  0  0  0
   -6.7459   12.3157   -6.9160 H   0  0  0  0  0  0  0  0  0  0  0  0
   -4.5140   13.2889   -6.4783 H   0  0  0  0  0  0  0  0  0  0  0  0
   -2.6697    9.7519   -8.0446 H   0  0  0  0  0  0  0  0  0  0  0  0
   -4.8934    8.7808   -8.4891 H   0  0  0  0  0  0  0  0  0  0  0  0
   -2.1062   14.2106   -7.1745 H   0  0  0  0  0  0  0  0  0  0  0  0
   -2.1705   13.5826   -5.4928 H   0  0  0  0  0  0  0  0  0  0  0  0
   -0.6572   10.5584   -7.5683 H   0  0  0  0  0  0  0  0  0  0  0  0
    1.4836   14.2826   -6.0565 H   0  0  0  0  0  0  0  0  0  0  0  0
    0.2413   15.4403   -6.6420 H   0  0  0  0  0  0  0  0  0  0  0  0
    0.1739   14.8277   -4.9547 H   0  0  0  0  0  0  0  0  0  0  0  0
   -4.3489   15.8104  -11.7333 H   0  0  0  0  0  0  0  0  0  0  0  0
   -3.7594   15.2509  -10.1314 H   0  0  0  0  0  0  0  0  0  0  0  0
   -2.3623   15.1046  -12.8152 H   0  0  0  0  0  0  0  0  0  0  0  0
   -1.8724   16.0161  -11.3469 H   0  0  0  0  0  0  0  0  0  0  0  0
   -0.5191   13.9803  -11.7319 H   0  0  0  0  0  0  0  0  0  0  0  0
   -1.4061   13.9537  -10.1701 H   0  0  0  0  0  0  0  0  0  0  0  0
   -2.2388   12.5464  -12.7611 H   0  0  0  0  0  0  0  0  0  0  0  0
   -1.5665   11.7637  -11.2908 H   0  0  0  0  0  0  0  0  0  0  0  0
   -3.5680   12.3989   -9.9688 H   0  0  0  0  0  0  0  0  0  0  0  0
   -4.1284   11.5964  -11.4749 H   0  0  0  0  0  0  0  0  0  0  0  0
  1  2  2  0  0  0  0
  1  4  1  0  0  0  0
  1 12  1  0  0  0  0
  2  6  1  0  0  0  0
  3  4  2  0  0  0  0
  3  5  1  0  0  0  0
  5  6  2  0  0  0  0
  5  9  1  0  0  0  0
  6  7  1  0  0  0  0
  7  8  1  0  0  0  0
  7 10  1  0  0  0  0
  8  9  2  0  0  0  0
 10 14  2  0  0  0  0
 11 12  1  0  0  0  0
 11 26  1  0  0  0  0
 11 30  1  0  0  0  0
 12 13  2  0  0  0  0
 14 15  1  0  0  0  0
 14 19  1  0  0  0  0
 15 16  2  0  0  0  0
 16 17  1  0  0  0  0
 17 18  1  0  0  0  0
 17 20  2  0  0  0  0
 18 19  2  0  0  0  0
 20 21  1  0  0  0  0
 20 24  1  0  0  0  0
 21 22  1  0  0  0  0
 22 23  1  0  0  0  0
 22 25  1  0  0  0  0
 23 24  2  0  0  0  0
 26 27  1  0  0  0  0
 27 28  1  0  0  0  0
 28 29  1  0  0  0  0
 29 30  1  0  0  0  0
  2 31  1  0  0  0  0
  3 32  1  0  0  0  0
  4 33  1  0  0  0  0
  7 34  1  0  0  0  0
 10 35  1  0  0  0  0
 15 36  1  0  0  0  0
 16 37  1  0  0  0  0
 18 38  1  0  0  0  0
 19 39  1  0  0  0  0
 21 40  1  0  0  0  0
 21 41  1  0  0  0  0
 24 42  1  0  0  0  0
 25 43  1  0  0  0  0
 25 44  1  0  0  0  0
 25 45  1  0  0  0  0
 26 46  1  0  0  0  0
 26 47  1  0  0  0  0
 27 48  1  0  0  0  0
 27 49  1  0  0  0  0
 28 50  1  0  0  0  0
 28 51  1  0  0  0  0
 29 52  1  0  0  0  0
 29 53  1  0  0  0  0
 30 54  1  0  0  0  0
 30 55  1  0  0  0  0
M  END
> <Name>
41

> <IC50[uM]>
0.006

$$$$
41
  -OEChem-05192314333D
 Structure written by MMmdl.
 55 59  0     1  0  0  0  0  0999 V2000
   -6.3365   12.3514  -12.0169 C   0  0  3  0  0  0  0  0  0  0  0  0
   -6.4737   11.7818  -10.7533 C   0  0  0  0  0  0  0  0  0  0  0  0
   -7.7043   10.5771  -13.0419 C   0  0  0  0  0  0  0  0  0  0  0  0
   -6.9700   11.7706  -13.1413 C   0  0  0  0  0  0  0  0  0  0  0  0
   -7.8117   10.0060  -11.7679 C   0  0  0  0  0  0  0  0  0  0  0  0
   -7.2142   10.6153  -10.6085 C   0  0  0  0  0  0  0  0  0  0  0  0
   -7.6079    9.7475   -9.5180 C   0  0  0  0  0  0  0  0  0  0  0  0
   -8.2848    8.7450   -9.9896 N   0  0  0  0  0  0  0  0  0  0  0  0
   -8.4180    8.8715  -11.3012 N   0  0  0  0  0  0  0  0  0  0  0  0
   -7.3345    9.8877   -8.0248 C   0  0  0  0  0  0  0  0  0  0  0  0
   -4.3847   13.7235  -11.4418 N   0  0  0  0  0  0  0  0  0  0  0  0
   -5.5533   13.6485  -12.1711 C   0  0  0  0  0  0  0  0  0  0  0  0
   -5.9795   14.5724  -12.8566 O   0  0  0  0  0  0  0  0  0  0  0  0
   -5.9627   10.4850   -7.7364 C   0  0  0  0  0  0  0  0  0  0  0  0
   -5.8552   11.7581   -7.1652 C   0  0  0  0  0  0  0  0  0  0  0  0
   -4.5966   12.3060   -6.9181 C   0  0  0  0  0  0  0  0  0  0  0  0
   -3.4424   11.5865   -7.2381 C   0  0  0  0  0  0  0  0  0  0  0  0
   -3.5593   10.3139   -7.8013 C   0  0  0  0  0  0  0  0  0  0  0  0
   -4.8122    9.7647   -8.0513 C   0  0  0  0  0  0  0  0  0  0  0  0
   -2.0942   12.1662   -6.9781 C   0  0  0  0  0  0  0  0  0  0  0  0
   -1.7414   13.4274   -6.4937 C   0  0  0  0  0  0  0  0  0  0  0  0
   -0.4089   13.4560   -6.4321 N   0  0  0  0  0  0  0  0  0  0  0  0
    0.1814   12.3590   -6.8068 N   0  0  0  0  0  0  0  0  0  0  0  0
   -0.8029   11.5527   -7.1728 C   0  0  0  0  0  0  0  0  0  0  0  0
    0.4236   14.5699   -5.9945 C   0  0  0  0  0  0  0  0  0  0  0  0
   -3.7594   15.0422  -11.2114 C   0  0  0  0  0  0  0  0  0  0  0  0
   -2.3424   15.0924  -11.7154 C   0  0  0  0  0  0  0  0  0  0  0  0
   -1.5130   13.9202  -11.2644 C   0  0  0  0  0  0  0  0  0  0  0  0
   -2.1771   12.5990  -11.6641 C   0  0  0  0  0  0  0  0  0  0  0  0
   -3.6239   12.4833  -11.0641 C   0  0  0  0  0  0  0  0  0  0  0  0
   -5.4270   11.7615  -12.2032 H   0  0  0  0  0  0  0  0  0  0  0  0
   -6.0088   12.2426   -9.8942 H   0  0  0  0  0  0  0  0  0  0  0  0
   -8.1640   10.1218  -13.9067 H   0  0  0  0  0  0  0  0  0  0  0  0
   -6.8867   12.2580  -14.1015 H   0  0  0  0  0  0  0  0  0  0  0  0
   -8.1030   10.5405   -7.5852 H   0  0  0  0  0  0  0  0  0  0  0  0
   -7.3903    8.8919   -7.5609 H   0  0  0  0  0  0  0  0  0  0  0  0
   -6.7459   12.3157   -6.9160 H   0  0  0  0  0  0  0  0  0  0  0  0
   -4.5140   13.2889   -6.4783 H   0  0  0  0  0  0  0  0  0  0  0  0
   -2.6697    9.7519   -8.0446 H   0  0  0  0  0  0  0  0  0  0  0  0
   -4.8934    8.7808   -8.4891 H   0  0  0  0  0  0  0  0  0  0  0  0
   -2.4165   14.2253   -6.2216 H   0  0  0  0  0  0  0  0  0  0  0  0
   -0.6572   10.5584   -7.5683 H   0  0  0  0  0  0  0  0  0  0  0  0
    1.4836   14.2826   -6.0565 H   0  0  0  0  0  0  0  0  0  0  0  0
    0.2413   15.4403   -6.6420 H   0  0  0  0  0  0  0  0  0  0  0  0
    0.1739   14.8277   -4.9547 H   0  0  0  0  0  0  0  0  0  0  0  0
   -4.3489   15.8104  -11.7333 H   0  0  0  0  0  0  0  0  0  0  0  0
   -3.7594   15.2509  -10.1314 H   0  0  0  0  0  0  0  0  0  0  0  0
   -2.3623   15.1046  -12.8152 H   0  0  0  0  0  0  0  0  0  0  0  0
   -1.8724   16.0161  -11.3469 H   0  0  0  0  0  0  0  0  0  0  0  0
   -0.5191   13.9803  -11.7319 H   0  0  0  0  0  0  0  0  0  0  0  0
   -1.4061   13.9537  -10.1701 H   0  0  0  0  0  0  0  0  0  0  0  0
   -2.2388   12.5464  -12.7611 H   0  0  0  0  0  0  0  0  0  0  0  0
   -1.5665   11.7637  -11.2908 H   0  0  0  0  0  0  0  0  0  0  0  0
   -3.5680   12.3989   -9.9688 H   0  0  0  0  0  0  0  0  0  0  0  0
   -4.1284   11.5964  -11.4749 H   0  0  0  0  0  0  0  0  0  0  0  0
  1  2  1  0  0  0  0
  1  4  1  0  0  0  0
  1 12  1  0  0  0  0
  2  6  2  0  0  0  0
  3  4  2  0  0  0  0
  3  5  1  0  0  0  0
  5  6  1  0  0  0  0
  5  9  2  0  0  0  0
  6  7  1  0  0  0  0
  7  8  2  0  0  0  0
  7 10  1  0  0  0  0
  8  9  1  0  0  0  0
 10 14  1  0  0  0  0
 11 12  1  0  0  0  0
 11 26  1  0  0  0  0
 11 30  1  0  0  0  0
 12 13  2  0  0  0  0
 14 15  2  0  0  0  0
 14 19  1  0  0  0  0
 15 16  1  0  0  0  0
 16 17  2  0  0  0  0
 17 18  1  0  0  0  0
 17 20  1  0  0  0  0
 18 19  2  0  0  0  0
 20 21  2  0  0  0  0
 20 24  1  0  0  0  0
 21 22  1  0  0  0  0
 22 23  1  0  0  0  0
 22 25  1  0  0  0  0
 23 24  2  0  0  0  0
 26 27  1  0  0  0  0
 27 28  1  0  0  0  0
 28 29  1  0  0  0  0
 29 30  1  0  0  0  0
  1 31  1  0  0  0  0
  2 32  1  0  0  0  0
  3 33  1  0  0  0  0
  4 34  1  0  0  0  0
 10 35  1  0  0  0  0
 10 36  1  0  0  0  0
 15 37  1  0  0  0  0
 16 38  1  0  0  0  0
 18 39  1  0  0  0  0
 19 40  1  0  0  0  0
 21 41  1  0  0  0  0
 24 42  1  0  0  0  0
 25 43  1  0  0  0  0
 25 44  1  0  0  0  0
 25 45  1  0  0  0  0
 26 46  1  0  0  0  0
 26 47  1  0  0  0  0
 27 48  1  0  0  0  0
 27 49  1  0  0  0  0
 28 50  1  0  0  0  0
 28 51  1  0  0  0  0
 29 52  1  0  0  0  0
 29 53  1  0  0  0  0
 30 54  1  0  0  0  0
 30 55  1  0  0  0  0
M  END
> <Name>
41

> <IC50[uM]>
0.006

$$$$
41
  -OEChem-05192314333D
 Structure written by MMmdl.
 55 59  0     1  0  0  0  0  0999 V2000
   -6.3365   12.3514  -12.0169 C   0  0  0  0  0  0  0  0  0  0  0  0
   -6.4737   11.7818  -10.7533 C   0  0  0  0  0  0  0  0  0  0  0  0
   -7.7043   10.5771  -13.0419 C   0  0  0  0  0  0  0  0  0  0  0  0
   -6.9700   11.7706  -13.1413 C   0  0  0  0  0  0  0  0  0  0  0  0
   -7.8117   10.0060  -11.7679 C   0  0  0  0  0  0  0  0  0  0  0  0
   -7.2142   10.6153  -10.6085 C   0  0  3  0  0  0  0  0  0  0  0  0
   -7.6079    9.7475   -9.5180 C   0  0  0  0  0  0  0  0  0  0  0  0
   -8.2848    8.7450   -9.9896 N   0  0  0  0  0  0  0  0  0  0  0  0
   -8.4180    8.8715  -11.3012 N   0  0  0  0  0  0  0  0  0  0  0  0
   -7.3345    9.8877   -8.0248 C   0  0  0  0  0  0  0  0  0  0  0  0
   -4.3847   13.7235  -11.4418 N   0  0  0  0  0  0  0  0  0  0  0  0
   -5.5533   13.6485  -12.1711 C   0  0  0  0  0  0  0  0  0  0  0  0
   -5.9795   14.5724  -12.8566 O   0  0  0  0  0  0  0  0  0  0  0  0
   -5.9627   10.4850   -7.7364 C   0  0  0  0  0  0  0  0  0  0  0  0
   -5.8552   11.7581   -7.1652 C   0  0  0  0  0  0  0  0  0  0  0  0
   -4.5966   12.3060   -6.9181 C   0  0  0  0  0  0  0  0  0  0  0  0
   -3.4424   11.5865   -7.2381 C   0  0  0  0  0  0  0  0  0  0  0  0
   -3.5593   10.3139   -7.8013 C   0  0  0  0  0  0  0  0  0  0  0  0
   -4.8122    9.7647   -8.0513 C   0  0  0  0  0  0  0  0  0  0  0  0
   -2.0942   12.1662   -6.9781 C   0  0  0  0  0  0  0  0  0  0  0  0
   -1.7414   13.4274   -6.4937 C   0  0  0  0  0  0  0  0  0  0  0  0
   -0.4089   13.4560   -6.4321 N   0  0  0  0  0  0  0  0  0  0  0  0
    0.1814   12.3590   -6.8068 N   0  0  0  0  0  0  0  0  0  0  0  0
   -0.8029   11.5527   -7.1728 C   0  0  0  0  0  0  0  0  0  0  0  0
    0.4236   14.5699   -5.9945 C   0  0  0  0  0  0  0  0  0  0  0  0
   -3.7594   15.0422  -11.2114 C   0  0  0  0  0  0  0  0  0  0  0  0
   -2.3424   15.0924  -11.7154 C   0  0  0  0  0  0  0  0  0  0  0  0
   -1.5130   13.9202  -11.2644 C   0  0  0  0  0  0  0  0  0  0  0  0
   -2.1771   12.5990  -11.6641 C   0  0  0  0  0  0  0  0  0  0  0  0
   -3.6239   12.4833  -11.0641 C   0  0  0  0  0  0  0  0  0  0  0  0
   -6.0088   12.2426   -9.8942 H   0  0  0  0  0  0  0  0  0  0  0  0
   -8.1640   10.1218  -13.9067 H   0  0  0  0  0  0  0  0  0  0  0  0
   -6.8867   12.2580  -14.1015 H   0  0  0  0  0  0  0  0  0  0  0  0
   -6.3042   10.0161  -10.7598 H   0  0  0  0  0  0  0  0  0  0  0  0
   -8.1030   10.5405   -7.5852 H   0  0  0  0  0  0  0  0  0  0  0  0
   -7.3903    8.8919   -7.5609 H   0  0  0  0  0  0  0  0  0  0  0  0
   -6.7459   12.3157   -6.9160 H   0  0  0  0  0  0  0  0  0  0  0  0
   -4.5140   13.2889   -6.4783 H   0  0  0  0  0  0  0  0  0  0  0  0
   -2.6697    9.7519   -8.0446 H   0  0  0  0  0  0  0  0  0  0  0  0
   -4.8934    8.7808   -8.4891 H   0  0  0  0  0  0  0  0  0  0  0  0
   -2.4165   14.2253   -6.2216 H   0  0  0  0  0  0  0  0  0  0  0  0
   -0.6572   10.5584   -7.5683 H   0  0  0  0  0  0  0  0  0  0  0  0
    1.4836   14.2826   -6.0565 H   0  0  0  0  0  0  0  0  0  0  0  0
    0.2413   15.4403   -6.6420 H   0  0  0  0  0  0  0  0  0  0  0  0
    0.1739   14.8277   -4.9547 H   0  0  0  0  0  0  0  0  0  0  0  0
   -4.3489   15.8104  -11.7333 H   0  0  0  0  0  0  0  0  0  0  0  0
   -3.7594   15.2509  -10.1314 H   0  0  0  0  0  0  0  0  0  0  0  0
   -2.3623   15.1046  -12.8152 H   0  0  0  0  0  0  0  0  0  0  0  0
   -1.8724   16.0161  -11.3469 H   0  0  0  0  0  0  0  0  0  0  0  0
   -0.5191   13.9803  -11.7319 H   0  0  0  0  0  0  0  0  0  0  0  0
   -1.4061   13.9537  -10.1701 H   0  0  0  0  0  0  0  0  0  0  0  0
   -2.2388   12.5464  -12.7611 H   0  0  0  0  0  0  0  0  0  0  0  0
   -1.5665   11.7637  -11.2908 H   0  0  0  0  0  0  0  0  0  0  0  0
   -3.5680   12.3989   -9.9688 H   0  0  0  0  0  0  0  0  0  0  0  0
   -4.1284   11.5964  -11.4749 H   0  0  0  0  0  0  0  0  0  0  0  0
  1  2  2  0  0  0  0
  1  4  1  0  0  0  0
  1 12  1  0  0  0  0
  2  6  1  0  0  0  0
  3  4  2  0  0  0  0
  3  5  1  0  0  0  0
  5  6  1  0  0  0  0
  5  9  2  0  0  0  0
  6  7  1  0  0  0  0
  7  8  2  0  0  0  0
  7 10  1  0  0  0  0
  8  9  1  0  0  0  0
 10 14  1  0  0  0  0
 11 12  1  0  0  0  0
 11 26  1  0  0  0  0
 11 30  1  0  0  0  0
 12 13  2  0  0  0  0
 14 15  2  0  0  0  0
 14 19  1  0  0  0  0
 15 16  1  0  0  0  0
 16 17  2  0  0  0  0
 17 18  1  0  0  0  0
 17 20  1  0  0  0  0
 18 19  2  0  0  0  0
 20 21  2  0  0  0  0
 20 24  1  0  0  0  0
 21 22  1  0  0  0  0
 22 23  1  0  0  0  0
 22 25  1  0  0  0  0
 23 24  2  0  0  0  0
 26 27  1  0  0  0  0
 27 28  1  0  0  0  0
 28 29  1  0  0  0  0
 29 30  1  0  0  0  0
  2 31  1  0  0  0  0
  3 32  1  0  0  0  0
  4 33  1  0  0  0  0
  6 34  1  0  0  0  0
 10 35  1  0  0  0  0
 10 36  1  0  0  0  0
 15 37  1  0  0  0  0
 16 38  1  0  0  0  0
 18 39  1  0  0  0  0
 19 40  1  0  0  0  0
 21 41  1  0  0  0  0
 24 42  1  0  0  0  0
 25 43  1  0  0  0  0
 25 44  1  0  0  0  0
 25 45  1  0  0  0  0
 26 46  1  0  0  0  0
 26 47  1  0  0  0  0
 27 48  1  0  0  0  0
 27 49  1  0  0  0  0
 28 50  1  0  0  0  0
 28 51  1  0  0  0  0
 29 52  1  0  0  0  0
 29 53  1  0  0  0  0
 30 54  1  0  0  0  0
 30 55  1  0  0  0  0
M  END
> <Name>
41

> <IC50[uM]>
0.006

$$$$
41
  -OEChem-05192314333D
 Structure written by MMmdl.
 55 59  0     0  0  0  0  0  0999 V2000
   -6.3365   12.3514  -12.0169 C   0  0  0  0  0  0  0  0  0  0  0  0
   -6.4737   11.7818  -10.7533 C   0  0  0  0  0  0  0  0  0  0  0  0
   -7.7043   10.5771  -13.0419 C   0  0  0  0  0  0  0  0  0  0  0  0
   -6.9700   11.7706  -13.1413 C   0  0  0  0  0  0  0  0  0  0  0  0
   -7.8117   10.0060  -11.7679 C   0  0  0  0  0  0  0  0  0  0  0  0
   -7.2142   10.6153  -10.6085 C   0  0  0  0  0  0  0  0  0  0  0  0
   -7.6079    9.7475   -9.5180 C   0  0  0  0  0  0  0  0  0  0  0  0
   -8.2848    8.7450   -9.9896 N   0  0  0  0  0  0  0  0  0  0  0  0
   -8.4180    8.8715  -11.3012 N   0  0  0  0  0  0  0  0  0  0  0  0
   -7.3345    9.8877   -8.0248 C   0  0  0  0  0  0  0  0  0  0  0  0
   -4.3847   13.7235  -11.4418 N   0  0  0  0  0  0  0  0  0  0  0  0
   -5.5533   13.6485  -12.1711 C   0  0  0  0  0  0  0  0  0  0  0  0
   -5.9795   14.5724  -12.8566 O   0  0  0  0  0  0  0  0  0  0  0  0
   -5.9627   10.4850   -7.7364 C   0  0  0  0  0  0  0  0  0  0  0  0
   -5.8552   11.7581   -7.1652 C   0  0  0  0  0  0  0  0  0  0  0  0
   -4.5966   12.3060   -6.9181 C   0  0  0  0  0  0  0  0  0  0  0  0
   -3.4424   11.5865   -7.2381 C   0  0  0  0  0  0  0  0  0  0  0  0
   -3.5593   10.3139   -7.8013 C   0  0  0  0  0  0  0  0  0  0  0  0
   -4.8122    9.7647   -8.0513 C   0  0  0  0  0  0  0  0  0  0  0  0
   -2.0942   12.1662   -6.9781 C   0  0  0  0  0  0  0  0  0  0  0  0
   -1.7414   13.4274   -6.4937 C   0  0  0  0  0  0  0  0  0  0  0  0
   -0.4089   13.4560   -6.4321 N   0  0  0  0  0  0  0  0  0  0  0  0
    0.1814   12.3590   -6.8068 N   0  0  0  0  0  0  0  0  0  0  0  0
   -0.8029   11.5527   -7.1728 C   0  0  0  0  0  0  0  0  0  0  0  0
    0.4236   14.5699   -5.9945 C   0  0  0  0  0  0  0  0  0  0  0  0
   -3.7594   15.0422  -11.2114 C   0  0  0  0  0  0  0  0  0  0  0  0
   -2.3424   15.0924  -11.7154 C   0  0  0  0  0  0  0  0  0  0  0  0
   -1.5130   13.9202  -11.2644 C   0  0  0  0  0  0  0  0  0  0  0  0
   -2.1771   12.5990  -11.6641 C   0  0  0  0  0  0  0  0  0  0  0  0
   -3.6239   12.4833  -11.0641 C   0  0  0  0  0  0  0  0  0  0  0  0
   -6.0088   12.2426   -9.8942 H   0  0  0  0  0  0  0  0  0  0  0  0
   -8.7234   10.7825  -13.4015 H   0  0  0  0  0  0  0  0  0  0  0  0
   -7.2258    9.8363  -13.6994 H   0  0  0  0  0  0  0  0  0  0  0  0
   -6.8867   12.2580  -14.1015 H   0  0  0  0  0  0  0  0  0  0  0  0
   -8.1030   10.5405   -7.5852 H   0  0  0  0  0  0  0  0  0  0  0  0
   -7.3903    8.8919   -7.5609 H   0  0  0  0  0  0  0  0  0  0  0  0
   -6.7459   12.3157   -6.9160 H   0  0  0  0  0  0  0  0  0  0  0  0
   -4.5140   13.2889   -6.4783 H   0  0  0  0  0  0  0  0  0  0  0  0
   -2.6697    9.7519   -8.0446 H   0  0  0  0  0  0  0  0  0  0  0  0
   -4.8934    8.7808   -8.4891 H   0  0  0  0  0  0  0  0  0  0  0  0
   -2.4165   14.2253   -6.2216 H   0  0  0  0  0  0  0  0  0  0  0  0
   -0.6572   10.5584   -7.5683 H   0  0  0  0  0  0  0  0  0  0  0  0
    1.4836   14.2826   -6.0565 H   0  0  0  0  0  0  0  0  0  0  0  0
    0.2413   15.4403   -6.6420 H   0  0  0  0  0  0  0  0  0  0  0  0
    0.1739   14.8277   -4.9547 H   0  0  0  0  0  0  0  0  0  0  0  0
   -4.3489   15.8104  -11.7333 H   0  0  0  0  0  0  0  0  0  0  0  0
   -3.7594   15.2509  -10.1314 H   0  0  0  0  0  0  0  0  0  0  0  0
   -2.3623   15.1046  -12.8152 H   0  0  0  0  0  0  0  0  0  0  0  0
   -1.8724   16.0161  -11.3469 H   0  0  0  0  0  0  0  0  0  0  0  0
   -0.5191   13.9803  -11.7319 H   0  0  0  0  0  0  0  0  0  0  0  0
   -1.4061   13.9537  -10.1701 H   0  0  0  0  0  0  0  0  0  0  0  0
   -2.2388   12.5464  -12.7611 H   0  0  0  0  0  0  0  0  0  0  0  0
   -1.5665   11.7637  -11.2908 H   0  0  0  0  0  0  0  0  0  0  0  0
   -3.5680   12.3989   -9.9688 H   0  0  0  0  0  0  0  0  0  0  0  0
   -4.1284   11.5964  -11.4749 H   0  0  0  0  0  0  0  0  0  0  0  0
  1  2  1  0  0  0  0
  1  4  2  0  0  0  0
  1 12  1  0  0  0  0
  2  6  2  0  0  0  0
  3  4  1  0  0  0  0
  3  5  1  0  0  0  0
  5  6  1  0  0  0  0
  5  9  2  0  0  0  0
  6  7  1  0  0  0  0
  7  8  2  0  0  0  0
  7 10  1  0  0  0  0
  8  9  1  0  0  0  0
 10 14  1  0  0  0  0
 11 12  1  0  0  0  0
 11 26  1  0  0  0  0
 11 30  1  0  0  0  0
 12 13  2  0  0  0  0
 14 15  2  0  0  0  0
 14 19  1  0  0  0  0
 15 16  1  0  0  0  0
 16 17  2  0  0  0  0
 17 18  1  0  0  0  0
 17 20  1  0  0  0  0
 18 19  2  0  0  0  0
 20 21  2  0  0  0  0
 20 24  1  0  0  0  0
 21 22  1  0  0  0  0
 22 23  1  0  0  0  0
 22 25  1  0  0  0  0
 23 24  2  0  0  0  0
 26 27  1  0  0  0  0
 27 28  1  0  0  0  0
 28 29  1  0  0  0  0
 29 30  1  0  0  0  0
  2 31  1  0  0  0  0
  3 32  1  0  0  0  0
  3 33  1  0  0  0  0
  4 34  1  0  0  0  0
 10 35  1  0  0  0  0
 10 36  1  0  0  0  0
 15 37  1  0  0  0  0
 16 38  1  0  0  0  0
 18 39  1  0  0  0  0
 19 40  1  0  0  0  0
 21 41  1  0  0  0  0
 24 42  1  0  0  0  0
 25 43  1  0  0  0  0
 25 44  1  0  0  0  0
 25 45  1  0  0  0  0
 26 46  1  0  0  0  0
 26 47  1  0  0  0  0
 27 48  1  0  0  0  0
 27 49  1  0  0  0  0
 28 50  1  0  0  0  0
 28 51  1  0  0  0  0
 29 52  1  0  0  0  0
 29 53  1  0  0  0  0
 30 54  1  0  0  0  0
 30 55  1  0  0  0  0
M  END
> <Name>
41

> <IC50[uM]>
0.006

$$$$
41
  -OEChem-05192314333D
 Structure written by MMmdl.
 55 59  0     0  0  0  0  0  0999 V2000
   -6.3365   12.3514  -12.0169 C   0  0  0  0  0  0  0  0  0  0  0  0
   -6.4737   11.7818  -10.7533 C   0  0  0  0  0  0  0  0  0  0  0  0
   -7.7043   10.5771  -13.0419 C   0  0  0  0  0  0  0  0  0  0  0  0
   -6.9700   11.7706  -13.1413 C   0  0  0  0  0  0  0  0  0  0  0  0
   -7.8117   10.0060  -11.7679 C   0  0  0  0  0  0  0  0  0  0  0  0
   -7.2142   10.6153  -10.6085 C   0  0  0  0  0  0  0  0  0  0  0  0
   -7.6079    9.7475   -9.5180 C   0  0  0  0  0  0  0  0  0  0  0  0
   -8.2848    8.7450   -9.9896 N   0  0  0  0  0  0  0  0  0  0  0  0
   -8.4180    8.8715  -11.3012 N   0  0  0  0  0  0  0  0  0  0  0  0
   -7.3345    9.8877   -8.0248 C   0  0  0  0  0  0  0  0  0  0  0  0
   -4.3847   13.7235  -11.4418 N   0  0  0  0  0  0  0  0  0  0  0  0
   -5.5533   13.6485  -12.1711 C   0  0  0  0  0  0  0  0  0  0  0  0
   -5.9795   14.5724  -12.8566 O   0  0  0  0  0  0  0  0  0  0  0  0
   -5.9627   10.4850   -7.7364 C   0  0  0  0  0  0  0  0  0  0  0  0
   -5.8552   11.7581   -7.1652 C   0  0  0  0  0  0  0  0  0  0  0  0
   -4.5966   12.3060   -6.9181 C   0  0  0  0  0  0  0  0  0  0  0  0
   -3.4424   11.5865   -7.2381 C   0  0  0  0  0  0  0  0  0  0  0  0
   -3.5593   10.3139   -7.8013 C   0  0  0  0  0  0  0  0  0  0  0  0
   -4.8122    9.7647   -8.0513 C   0  0  0  0  0  0  0  0  0  0  0  0
   -2.0942   12.1662   -6.9781 C   0  0  0  0  0  0  0  0  0  0  0  0
   -1.7414   13.4274   -6.4937 C   0  0  0  0  0  0  0  0  0  0  0  0
   -0.4089   13.4560   -6.4321 N   0  0  0  0  0  0  0  0  0  0  0  0
    0.1814   12.3590   -6.8068 N   0  0  0  0  0  0  0  0  0  0  0  0
   -0.8029   11.5527   -7.1728 C   0  0  0  0  0  0  0  0  0  0  0  0
    0.4236   14.5699   -5.9945 C   0  0  0  0  0  0  0  0  0  0  0  0
   -3.7594   15.0422  -11.2114 C   0  0  0  0  0  0  0  0  0  0  0  0
   -2.3424   15.0924  -11.7154 C   0  0  0  0  0  0  0  0  0  0  0  0
   -1.5130   13.9202  -11.2644 C   0  0  0  0  0  0  0  0  0  0  0  0
   -2.1771   12.5990  -11.6641 C   0  0  0  0  0  0  0  0  0  0  0  0
   -3.6239   12.4833  -11.0641 C   0  0  0  0  0  0  0  0  0  0  0  0
   -6.0088   12.2426   -9.8942 H   0  0  0  0  0  0  0  0  0  0  0  0
   -8.1640   10.1218  -13.9067 H   0  0  0  0  0  0  0  0  0  0  0  0
   -6.8867   12.2580  -14.1015 H   0  0  0  0  0  0  0  0  0  0  0  0
   -8.0354    9.5960   -7.2566 H   0  0  0  0  0  0  0  0  0  0  0  0
   -5.9742   10.0332   -6.7335 H   0  0  0  0  0  0  0  0  0  0  0  0
   -6.7459   12.3157   -6.9160 H   0  0  0  0  0  0  0  0  0  0  0  0
   -4.5140   13.2889   -6.4783 H   0  0  0  0  0  0  0  0  0  0  0  0
   -3.4416   12.0327   -8.2435 H   0  0  0  0  0  0  0  0  0  0  0  0
   -2.6697    9.7519   -8.0446 H   0  0  0  0  0  0  0  0  0  0  0  0
   -4.8934    8.7808   -8.4891 H   0  0  0  0  0  0  0  0  0  0  0  0
   -2.4165   14.2253   -6.2216 H   0  0  0  0  0  0  0  0  0  0  0  0
   -0.6572   10.5584   -7.5683 H   0  0  0  0  0  0  0  0  0  0  0  0
    1.4836   14.2826   -6.0565 H   0  0  0  0  0  0  0  0  0  0  0  0
    0.2413   15.4403   -6.6420 H   0  0  0  0  0  0  0  0  0  0  0  0
    0.1739   14.8277   -4.9547 H   0  0  0  0  0  0  0  0  0  0  0  0
   -4.3489   15.8104  -11.7333 H   0  0  0  0  0  0  0  0  0  0  0  0
   -3.7594   15.2509  -10.1314 H   0  0  0  0  0  0  0  0  0  0  0  0
   -2.3623   15.1046  -12.8152 H   0  0  0  0  0  0  0  0  0  0  0  0
   -1.8724   16.0161  -11.3469 H   0  0  0  0  0  0  0  0  0  0  0  0
   -0.5191   13.9803  -11.7319 H   0  0  0  0  0  0  0  0  0  0  0  0
   -1.4061   13.9537  -10.1701 H   0  0  0  0  0  0  0  0  0  0  0  0
   -2.2388   12.5464  -12.7611 H   0  0  0  0  0  0  0  0  0  0  0  0
   -1.5665   11.7637  -11.2908 H   0  0  0  0  0  0  0  0  0  0  0  0
   -3.5680   12.3989   -9.9688 H   0  0  0  0  0  0  0  0  0  0  0  0
   -4.1284   11.5964  -11.4749 H   0  0  0  0  0  0  0  0  0  0  0  0
  1  2  2  0  0  0  0
  1  4  1  0  0  0  0
  1 12  1  0  0  0  0
  2  6  1  0  0  0  0
  3  4  2  0  0  0  0
  3  5  1  0  0  0  0
  5  6  2  0  0  0  0
  5  9  1  0  0  0  0
  6  7  1  0  0  0  0
  7  8  1  0  0  0  0
  7 10  2  3  0  0  0
  8  9  2  0  0  0  0
 10 14  1  0  0  0  0
 11 12  1  0  0  0  0
 11 26  1  0  0  0  0
 11 30  1  0  0  0  0
 12 13  2  0  0  0  0
 14 15  1  0  0  0  0
 14 19  1  0  0  0  0
 15 16  2  0  0  0  0
 16 17  1  0  0  0  0
 17 18  1  0  0  0  0
 17 20  1  0  0  0  0
 18 19  2  0  0  0  0
 20 21  2  0  0  0  0
 20 24  1  0  0  0  0
 21 22  1  0  0  0  0
 22 23  1  0  0  0  0
 22 25  1  0  0  0  0
 23 24  2  0  0  0  0
 26 27  1  0  0  0  0
 27 28  1  0  0  0  0
 28 29  1  0  0  0  0
 29 30  1  0  0  0  0
  2 31  1  0  0  0  0
  3 32  1  0  0  0  0
  4 33  1  0  0  0  0
 10 34  1  0  0  0  0
 14 35  1  0  0  0  0
 15 36  1  0  0  0  0
 16 37  1  0  0  0  0
 17 38  1  0  0  0  0
 18 39  1  0  0  0  0
 19 40  1  0  0  0  0
 21 41  1  0  0  0  0
 24 42  1  0  0  0  0
 25 43  1  0  0  0  0
 25 44  1  0  0  0  0
 25 45  1  0  0  0  0
 26 46  1  0  0  0  0
 26 47  1  0  0  0  0
 27 48  1  0  0  0  0
 27 49  1  0  0  0  0
 28 50  1  0  0  0  0
 28 51  1  0  0  0  0
 29 52  1  0  0  0  0
 29 53  1  0  0  0  0
 30 54  1  0  0  0  0
 30 55  1  0  0  0  0
M  END
> <Name>
41

> <IC50[uM]>
0.006

$$$$
41
  -OEChem-05192314333D
 Structure written by MMmdl.
 55 59  0     1  0  0  0  0  0999 V2000
   -6.3365   12.3514  -12.0169 C   0  0  0  0  0  0  0  0  0  0  0  0
   -6.4737   11.7818  -10.7533 C   0  0  0  0  0  0  0  0  0  0  0  0
   -7.7043   10.5771  -13.0419 C   0  0  0  0  0  0  0  0  0  0  0  0
   -6.9700   11.7706  -13.1413 C   0  0  0  0  0  0  0  0  0  0  0  0
   -7.8117   10.0060  -11.7679 C   0  0  0  0  0  0  0  0  0  0  0  0
   -7.2142   10.6153  -10.6085 C   0  0  0  0  0  0  0  0  0  0  0  0
   -7.6079    9.7475   -9.5180 C   0  0  3  0  0  0  0  0  0  0  0  0
   -8.2848    8.7450   -9.9896 N   0  0  0  0  0  0  0  0  0  0  0  0
   -8.4180    8.8715  -11.3012 N   0  0  0  0  0  0  0  0  0  0  0  0
   -7.3345    9.8877   -8.0248 C   0  0  0  0  0  0  0  0  0  0  0  0
   -4.3847   13.7235  -11.4418 N   0  0  0  0  0  0  0  0  0  0  0  0
   -5.5533   13.6485  -12.1711 C   0  0  0  0  0  0  0  0  0  0  0  0
   -5.9795   14.5724  -12.8566 O   0  0  0  0  0  0  0  0  0  0  0  0
   -5.9627   10.4850   -7.7364 C   0  0  0  0  0  0  0  0  0  0  0  0
   -5.8552   11.7581   -7.1652 C   0  0  0  0  0  0  0  0  0  0  0  0
   -4.5966   12.3060   -6.9181 C   0  0  0  0  0  0  0  0  0  0  0  0
   -3.4424   11.5865   -7.2381 C   0  0  0  0  0  0  0  0  0  0  0  0
   -3.5593   10.3139   -7.8013 C   0  0  0  0  0  0  0  0  0  0  0  0
   -4.8122    9.7647   -8.0513 C   0  0  0  0  0  0  0  0  0  0  0  0
   -2.0942   12.1662   -6.9781 C   0  0  0  0  0  0  0  0  0  0  0  0
   -1.7414   13.4274   -6.4937 C   0  0  0  0  0  0  0  0  0  0  0  0
   -0.4089   13.4560   -6.4321 N   0  0  0  0  0  0  0  0  0  0  0  0
    0.1814   12.3590   -6.8068 N   0  0  0  0  0  0  0  0  0  0  0  0
   -0.8029   11.5527   -7.1728 C   0  0  0  0  0  0  0  0  0  0  0  0
    0.4236   14.5699   -5.9945 C   0  0  0  0  0  0  0  0  0  0  0  0
   -3.7594   15.0422  -11.2114 C   0  0  0  0  0  0  0  0  0  0  0  0
   -2.3424   15.0924  -11.7154 C   0  0  0  0  0  0  0  0  0  0  0  0
   -1.5130   13.9202  -11.2644 C   0  0  0  0  0  0  0  0  0  0  0  0
   -2.1771   12.5990  -11.6641 C   0  0  0  0  0  0  0  0  0  0  0  0
   -3.6239   12.4833  -11.0641 C   0  0  0  0  0  0  0  0  0  0  0  0
   -6.0088   12.2426   -9.8942 H   0  0  0  0  0  0  0  0  0  0  0  0
   -8.1640   10.1218  -13.9067 H   0  0  0  0  0  0  0  0  0  0  0  0
   -6.8867   12.2580  -14.1015 H   0  0  0  0  0  0  0  0  0  0  0  0
   -6.6760    9.1751   -9.6358 H   0  0  0  0  0  0  0  0  0  0  0  0
   -8.0354    9.5960   -7.2566 H   0  0  0  0  0  0  0  0  0  0  0  0
   -6.7459   12.3157   -6.9160 H   0  0  0  0  0  0  0  0  0  0  0  0
   -4.5140   13.2889   -6.4783 H   0  0  0  0  0  0  0  0  0  0  0  0
   -3.4416   12.0327   -8.2435 H   0  0  0  0  0  0  0  0  0  0  0  0
   -2.6697    9.7519   -8.0446 H   0  0  0  0  0  0  0  0  0  0  0  0
   -4.8934    8.7808   -8.4891 H   0  0  0  0  0  0  0  0  0  0  0  0
   -2.4165   14.2253   -6.2216 H   0  0  0  0  0  0  0  0  0  0  0  0
   -0.6572   10.5584   -7.5683 H   0  0  0  0  0  0  0  0  0  0  0  0
    1.4836   14.2826   -6.0565 H   0  0  0  0  0  0  0  0  0  0  0  0
    0.2413   15.4403   -6.6420 H   0  0  0  0  0  0  0  0  0  0  0  0
    0.1739   14.8277   -4.9547 H   0  0  0  0  0  0  0  0  0  0  0  0
   -4.3489   15.8104  -11.7333 H   0  0  0  0  0  0  0  0  0  0  0  0
   -3.7594   15.2509  -10.1314 H   0  0  0  0  0  0  0  0  0  0  0  0
   -2.3623   15.1046  -12.8152 H   0  0  0  0  0  0  0  0  0  0  0  0
   -1.8724   16.0161  -11.3469 H   0  0  0  0  0  0  0  0  0  0  0  0
   -0.5191   13.9803  -11.7319 H   0  0  0  0  0  0  0  0  0  0  0  0
   -1.4061   13.9537  -10.1701 H   0  0  0  0  0  0  0  0  0  0  0  0
   -2.2388   12.5464  -12.7611 H   0  0  0  0  0  0  0  0  0  0  0  0
   -1.5665   11.7637  -11.2908 H   0  0  0  0  0  0  0  0  0  0  0  0
   -3.5680   12.3989   -9.9688 H   0  0  0  0  0  0  0  0  0  0  0  0
   -4.1284   11.5964  -11.4749 H   0  0  0  0  0  0  0  0  0  0  0  0
  1  2  2  0  0  0  0
  1  4  1  0  0  0  0
  1 12  1  0  0  0  0
  2  6  1  0  0  0  0
  3  4  2  0  0  0  0
  3  5  1  0  0  0  0
  5  6  2  0  0  0  0
  5  9  1  0  0  0  0
  6  7  1  0  0  0  0
  7  8  1  0  0  0  0
  7 10  1  0  0  0  0
  8  9  2  0  0  0  0
 10 14  2  0  0  0  0
 11 12  1  0  0  0  0
 11 26  1  0  0  0  0
 11 30  1  0  0  0  0
 12 13  2  0  0  0  0
 14 15  1  0  0  0  0
 14 19  1  0  0  0  0
 15 16  2  0  0  0  0
 16 17  1  0  0  0  0
 17 18  1  0  0  0  0
 17 20  1  0  0  0  0
 18 19  2  0  0  0  0
 20 21  2  0  0  0  0
 20 24  1  0  0  0  0
 21 22  1  0  0  0  0
 22 23  1  0  0  0  0
 22 25  1  0  0  0  0
 23 24  2  0  0  0  0
 26 27  1  0  0  0  0
 27 28  1  0  0  0  0
 28 29  1  0  0  0  0
 29 30  1  0  0  0  0
  2 31  1  0  0  0  0
  3 32  1  0  0  0  0
  4 33  1  0  0  0  0
  7 34  1  0  0  0  0
 10 35  1  0  0  0  0
 15 36  1  0  0  0  0
 16 37  1  0  0  0  0
 17 38  1  0  0  0  0
 18 39  1  0  0  0  0
 19 40  1  0  0  0  0
 21 41  1  0  0  0  0
 24 42  1  0  0  0  0
 25 43  1  0  0  0  0
 25 44  1  0  0  0  0
 25 45  1  0  0  0  0
 26 46  1  0  0  0  0
 26 47  1  0  0  0  0
 27 48  1  0  0  0  0
 27 49  1  0  0  0  0
 28 50  1  0  0  0  0
 28 51  1  0  0  0  0
 29 52  1  0  0  0  0
 29 53  1  0  0  0  0
 30 54  1  0  0  0  0
 30 55  1  0  0  0  0
M  END
> <Name>
41

> <IC50[uM]>
0.006

$$$$
41
  -OEChem-05192314333D
 Structure written by MMmdl.
 55 59  0     1  0  0  0  0  0999 V2000
   -6.3365   12.3514  -12.0169 C   0  0  3  0  0  0  0  0  0  0  0  0
   -6.4737   11.7818  -10.7533 C   0  0  0  0  0  0  0  0  0  0  0  0
   -7.7043   10.5771  -13.0419 C   0  0  0  0  0  0  0  0  0  0  0  0
   -6.9700   11.7706  -13.1413 C   0  0  0  0  0  0  0  0  0  0  0  0
   -7.8117   10.0060  -11.7679 C   0  0  3  0  0  0  0  0  0  0  0  0
   -7.2142   10.6153  -10.6085 C   0  0  0  0  0  0  0  0  0  0  0  0
   -7.6079    9.7475   -9.5180 C   0  0  0  0  0  0  0  0  0  0  0  0
   -8.2848    8.7450   -9.9896 N   0  0  0  0  0  0  0  0  0  0  0  0
   -8.4180    8.8715  -11.3012 N   0  0  0  0  0  0  0  0  0  0  0  0
   -7.3345    9.8877   -8.0248 C   0  0  0  0  0  0  0  0  0  0  0  0
   -4.3847   13.7235  -11.4418 N   0  0  0  0  0  0  0  0  0  0  0  0
   -5.5533   13.6485  -12.1711 C   0  0  0  0  0  0  0  0  0  0  0  0
   -5.9795   14.5724  -12.8566 O   0  0  0  0  0  0  0  0  0  0  0  0
   -5.9627   10.4850   -7.7364 C   0  0  0  0  0  0  0  0  0  0  0  0
   -5.8552   11.7581   -7.1652 C   0  0  0  0  0  0  0  0  0  0  0  0
   -4.5966   12.3060   -6.9181 C   0  0  0  0  0  0  0  0  0  0  0  0
   -3.4424   11.5865   -7.2381 C   0  0  0  0  0  0  0  0  0  0  0  0
   -3.5593   10.3139   -7.8013 C   0  0  0  0  0  0  0  0  0  0  0  0
   -4.8122    9.7647   -8.0513 C   0  0  0  0  0  0  0  0  0  0  0  0
   -2.0942   12.1662   -6.9781 C   0  0  0  0  0  0  0  0  0  0  0  0
   -1.7414   13.4274   -6.4937 C   0  0  0  0  0  0  0  0  0  0  0  0
   -0.4089   13.4560   -6.4321 N   0  0  0  0  0  0  0  0  0  0  0  0
    0.1814   12.3590   -6.8068 N   0  0  0  0  0  0  0  0  0  0  0  0
   -0.8029   11.5527   -7.1728 C   0  0  0  0  0  0  0  0  0  0  0  0
    0.4236   14.5699   -5.9945 C   0  0  0  0  0  0  0  0  0  0  0  0
   -3.7594   15.0422  -11.2114 C   0  0  0  0  0  0  0  0  0  0  0  0
   -2.3424   15.0924  -11.7154 C   0  0  0  0  0  0  0  0  0  0  0  0
   -1.5130   13.9202  -11.2644 C   0  0  0  0  0  0  0  0  0  0  0  0
   -2.1771   12.5990  -11.6641 C   0  0  0  0  0  0  0  0  0  0  0  0
   -3.6239   12.4833  -11.0641 C   0  0  0  0  0  0  0  0  0  0  0  0
   -5.4270   11.7615  -12.2032 H   0  0  0  0  0  0  0  0  0  0  0  0
   -6.0088   12.2426   -9.8942 H   0  0  0  0  0  0  0  0  0  0  0  0
   -8.1640   10.1218  -13.9067 H   0  0  0  0  0  0  0  0  0  0  0  0
   -6.8867   12.2580  -14.1015 H   0  0  0  0  0  0  0  0  0  0  0  0
   -8.7368   10.5741  -11.5905 H   0  0  0  0  0  0  0  0  0  0  0  0
   -8.0354    9.5960   -7.2566 H   0  0  0  0  0  0  0  0  0  0  0  0
   -6.7459   12.3157   -6.9160 H   0  0  0  0  0  0  0  0  0  0  0  0
   -4.5140   13.2889   -6.4783 H   0  0  0  0  0  0  0  0  0  0  0  0
   -2.6697    9.7519   -8.0446 H   0  0  0  0  0  0  0  0  0  0  0  0
   -4.8934    8.7808   -8.4891 H   0  0  0  0  0  0  0  0  0  0  0  0
   -2.4165   14.2253   -6.2216 H   0  0  0  0  0  0  0  0  0  0  0  0
   -0.6572   10.5584   -7.5683 H   0  0  0  0  0  0  0  0  0  0  0  0
    1.4836   14.2826   -6.0565 H   0  0  0  0  0  0  0  0  0  0  0  0
    0.2413   15.4403   -6.6420 H   0  0  0  0  0  0  0  0  0  0  0  0
    0.1739   14.8277   -4.9547 H   0  0  0  0  0  0  0  0  0  0  0  0
   -4.3489   15.8104  -11.7333 H   0  0  0  0  0  0  0  0  0  0  0  0
   -3.7594   15.2509  -10.1314 H   0  0  0  0  0  0  0  0  0  0  0  0
   -2.3623   15.1046  -12.8152 H   0  0  0  0  0  0  0  0  0  0  0  0
   -1.8724   16.0161  -11.3469 H   0  0  0  0  0  0  0  0  0  0  0  0
   -0.5191   13.9803  -11.7319 H   0  0  0  0  0  0  0  0  0  0  0  0
   -1.4061   13.9537  -10.1701 H   0  0  0  0  0  0  0  0  0  0  0  0
   -2.2388   12.5464  -12.7611 H   0  0  0  0  0  0  0  0  0  0  0  0
   -1.5665   11.7637  -11.2908 H   0  0  0  0  0  0  0  0  0  0  0  0
   -3.5680   12.3989   -9.9688 H   0  0  0  0  0  0  0  0  0  0  0  0
   -4.1284   11.5964  -11.4749 H   0  0  0  0  0  0  0  0  0  0  0  0
  1  2  1  0  0  0  0
  1  4  1  0  0  0  0
  1 12  1  0  0  0  0
  2  6  2  0  0  0  0
  3  4  2  0  0  0  0
  3  5  1  0  0  0  0
  5  6  1  0  0  0  0
  5  9  1  0  0  0  0
  6  7  1  0  0  0  0
  7  8  1  0  0  0  0
  7 10  2  3  0  0  0
  8  9  2  0  0  0  0
 10 14  1  0  0  0  0
 11 12  1  0  0  0  0
 11 26  1  0  0  0  0
 11 30  1  0  0  0  0
 12 13  2  0  0  0  0
 14 15  2  0  0  0  0
 14 19  1  0  0  0  0
 15 16  1  0  0  0  0
 16 17  2  0  0  0  0
 17 18  1  0  0  0  0
 17 20  1  0  0  0  0
 18 19  2  0  0  0  0
 20 21  2  0  0  0  0
 20 24  1  0  0  0  0
 21 22  1  0  0  0  0
 22 23  1  0  0  0  0
 22 25  1  0  0  0  0
 23 24  2  0  0  0  0
 26 27  1  0  0  0  0
 27 28  1  0  0  0  0
 28 29  1  0  0  0  0
 29 30  1  0  0  0  0
  1 31  1  0  0  0  0
  2 32  1  0  0  0  0
  3 33  1  0  0  0  0
  4 34  1  0  0  0  0
  5 35  1  0  0  0  0
 10 36  1  0  0  0  0
 15 37  1  0  0  0  0
 16 38  1  0  0  0  0
 18 39  1  0  0  0  0
 19 40  1  0  0  0  0
 21 41  1  0  0  0  0
 24 42  1  0  0  0  0
 25 43  1  0  0  0  0
 25 44  1  0  0  0  0
 25 45  1  0  0  0  0
 26 46  1  0  0  0  0
 26 47  1  0  0  0  0
 27 48  1  0  0  0  0
 27 49  1  0  0  0  0
 28 50  1  0  0  0  0
 28 51  1  0  0  0  0
 29 52  1  0  0  0  0
 29 53  1  0  0  0  0
 30 54  1  0  0  0  0
 30 55  1  0  0  0  0
M  END
> <Name>
41

> <IC50[uM]>
0.006

$$$$
41
  -OEChem-05192314333D
 Structure written by MMmdl.
 55 59  0     1  0  0  0  0  0999 V2000
   -6.3365   12.3514  -12.0169 C   0  0  0  0  0  0  0  0  0  0  0  0
   -6.4737   11.7818  -10.7533 C   0  0  0  0  0  0  0  0  0  0  0  0
   -7.7043   10.5771  -13.0419 C   0  0  0  0  0  0  0  0  0  0  0  0
   -6.9700   11.7706  -13.1413 C   0  0  0  0  0  0  0  0  0  0  0  0
   -7.8117   10.0060  -11.7679 C   0  0  3  0  0  0  0  0  0  0  0  0
   -7.2142   10.6153  -10.6085 C   0  0  3  0  0  0  0  0  0  0  0  0
   -7.6079    9.7475   -9.5180 C   0  0  0  0  0  0  0  0  0  0  0  0
   -8.2848    8.7450   -9.9896 N   0  0  0  0  0  0  0  0  0  0  0  0
   -8.4180    8.8715  -11.3012 N   0  0  0  0  0  0  0  0  0  0  0  0
   -7.3345    9.8877   -8.0248 C   0  0  0  0  0  0  0  0  0  0  0  0
   -4.3847   13.7235  -11.4418 N   0  0  0  0  0  0  0  0  0  0  0  0
   -5.5533   13.6485  -12.1711 C   0  0  0  0  0  0  0  0  0  0  0  0
   -5.9795   14.5724  -12.8566 O   0  0  0  0  0  0  0  0  0  0  0  0
   -5.9627   10.4850   -7.7364 C   0  0  0  0  0  0  0  0  0  0  0  0
   -5.8552   11.7581   -7.1652 C   0  0  0  0  0  0  0  0  0  0  0  0
   -4.5966   12.3060   -6.9181 C   0  0  0  0  0  0  0  0  0  0  0  0
   -3.4424   11.5865   -7.2381 C   0  0  0  0  0  0  0  0  0  0  0  0
   -3.5593   10.3139   -7.8013 C   0  0  0  0  0  0  0  0  0  0  0  0
   -4.8122    9.7647   -8.0513 C   0  0  0  0  0  0  0  0  0  0  0  0
   -2.0942   12.1662   -6.9781 C   0  0  0  0  0  0  0  0  0  0  0  0
   -1.7414   13.4274   -6.4937 C   0  0  0  0  0  0  0  0  0  0  0  0
   -0.4089   13.4560   -6.4321 N   0  0  0  0  0  0  0  0  0  0  0  0
    0.1814   12.3590   -6.8068 N   0  0  0  0  0  0  0  0  0  0  0  0
   -0.8029   11.5527   -7.1728 C   0  0  0  0  0  0  0  0  0  0  0  0
    0.4236   14.5699   -5.9945 C   0  0  0  0  0  0  0  0  0  0  0  0
   -3.7594   15.0422  -11.2114 C   0  0  0  0  0  0  0  0  0  0  0  0
   -2.3424   15.0924  -11.7154 C   0  0  0  0  0  0  0  0  0  0  0  0
   -1.5130   13.9202  -11.2644 C   0  0  0  0  0  0  0  0  0  0  0  0
   -2.1771   12.5990  -11.6641 C   0  0  0  0  0  0  0  0  0  0  0  0
   -3.6239   12.4833  -11.0641 C   0  0  0  0  0  0  0  0  0  0  0  0
   -6.0088   12.2426   -9.8942 H   0  0  0  0  0  0  0  0  0  0  0  0
   -8.1640   10.1218  -13.9067 H   0  0  0  0  0  0  0  0  0  0  0  0
   -6.8867   12.2580  -14.1015 H   0  0  0  0  0  0  0  0  0  0  0  0
   -8.7368   10.5741  -11.5905 H   0  0  0  0  0  0  0  0  0  0  0  0
   -6.3042   10.0161  -10.7598 H   0  0  0  0  0  0  0  0  0  0  0  0
   -8.0354    9.5960   -7.2566 H   0  0  0  0  0  0  0  0  0  0  0  0
   -6.7459   12.3157   -6.9160 H   0  0  0  0  0  0  0  0  0  0  0  0
   -4.5140   13.2889   -6.4783 H   0  0  0  0  0  0  0  0  0  0  0  0
   -2.6697    9.7519   -8.0446 H   0  0  0  0  0  0  0  0  0  0  0  0
   -4.8934    8.7808   -8.4891 H   0  0  0  0  0  0  0  0  0  0  0  0
   -2.4165   14.2253   -6.2216 H   0  0  0  0  0  0  0  0  0  0  0  0
   -0.6572   10.5584   -7.5683 H   0  0  0  0  0  0  0  0  0  0  0  0
    1.4836   14.2826   -6.0565 H   0  0  0  0  0  0  0  0  0  0  0  0
    0.2413   15.4403   -6.6420 H   0  0  0  0  0  0  0  0  0  0  0  0
    0.1739   14.8277   -4.9547 H   0  0  0  0  0  0  0  0  0  0  0  0
   -4.3489   15.8104  -11.7333 H   0  0  0  0  0  0  0  0  0  0  0  0
   -3.7594   15.2509  -10.1314 H   0  0  0  0  0  0  0  0  0  0  0  0
   -2.3623   15.1046  -12.8152 H   0  0  0  0  0  0  0  0  0  0  0  0
   -1.8724   16.0161  -11.3469 H   0  0  0  0  0  0  0  0  0  0  0  0
   -0.5191   13.9803  -11.7319 H   0  0  0  0  0  0  0  0  0  0  0  0
   -1.4061   13.9537  -10.1701 H   0  0  0  0  0  0  0  0  0  0  0  0
   -2.2388   12.5464  -12.7611 H   0  0  0  0  0  0  0  0  0  0  0  0
   -1.5665   11.7637  -11.2908 H   0  0  0  0  0  0  0  0  0  0  0  0
   -3.5680   12.3989   -9.9688 H   0  0  0  0  0  0  0  0  0  0  0  0
   -4.1284   11.5964  -11.4749 H   0  0  0  0  0  0  0  0  0  0  0  0
  1  2  2  0  0  0  0
  1  4  1  0  0  0  0
  1 12  1  0  0  0  0
  2  6  1  0  0  0  0
  3  4  2  0  0  0  0
  3  5  1  0  0  0  0
  5  6  1  0  0  0  0
  5  9  1  0  0  0  0
  6  7  1  0  0  0  0
  7  8  1  0  0  0  0
  7 10  2  3  0  0  0
  8  9  2  0  0  0  0
 10 14  1  0  0  0  0
 11 12  1  0  0  0  0
 11 26  1  0  0  0  0
 11 30  1  0  0  0  0
 12 13  2  0  0  0  0
 14 15  2  0  0  0  0
 14 19  1  0  0  0  0
 15 16  1  0  0  0  0
 16 17  2  0  0  0  0
 17 18  1  0  0  0  0
 17 20  1  0  0  0  0
 18 19  2  0  0  0  0
 20 21  2  0  0  0  0
 20 24  1  0  0  0  0
 21 22  1  0  0  0  0
 22 23  1  0  0  0  0
 22 25  1  0  0  0  0
 23 24  2  0  0  0  0
 26 27  1  0  0  0  0
 27 28  1  0  0  0  0
 28 29  1  0  0  0  0
 29 30  1  0  0  0  0
  2 31  1  0  0  0  0
  3 32  1  0  0  0  0
  4 33  1  0  0  0  0
  5 34  1  0  0  0  0
  6 35  1  0  0  0  0
 10 36  1  0  0  0  0
 15 37  1  0  0  0  0
 16 38  1  0  0  0  0
 18 39  1  0  0  0  0
 19 40  1  0  0  0  0
 21 41  1  0  0  0  0
 24 42  1  0  0  0  0
 25 43  1  0  0  0  0
 25 44  1  0  0  0  0
 25 45  1  0  0  0  0
 26 46  1  0  0  0  0
 26 47  1  0  0  0  0
 27 48  1  0  0  0  0
 27 49  1  0  0  0  0
 28 50  1  0  0  0  0
 28 51  1  0  0  0  0
 29 52  1  0  0  0  0
 29 53  1  0  0  0  0
 30 54  1  0  0  0  0
 30 55  1  0  0  0  0
M  END
> <Name>
41

> <IC50[uM]>
0.006

$$$$
41
  -OEChem-05192314333D
 Structure written by MMmdl.
 55 59  0     1  0  0  0  0  0999 V2000
   -6.3365   12.3514  -12.0169 C   0  0  0  0  0  0  0  0  0  0  0  0
   -6.4737   11.7818  -10.7533 C   0  0  0  0  0  0  0  0  0  0  0  0
   -7.7043   10.5771  -13.0419 C   0  0  0  0  0  0  0  0  0  0  0  0
   -6.9700   11.7706  -13.1413 C   0  0  0  0  0  0  0  0  0  0  0  0
   -7.8117   10.0060  -11.7679 C   0  0  3  0  0  0  0  0  0  0  0  0
   -7.2142   10.6153  -10.6085 C   0  0  0  0  0  0  0  0  0  0  0  0
   -7.6079    9.7475   -9.5180 C   0  0  0  0  0  0  0  0  0  0  0  0
   -8.2848    8.7450   -9.9896 N   0  0  0  0  0  0  0  0  0  0  0  0
   -8.4180    8.8715  -11.3012 N   0  0  0  0  0  0  0  0  0  0  0  0
   -7.3345    9.8877   -8.0248 C   0  0  0  0  0  0  0  0  0  0  0  0
   -4.3847   13.7235  -11.4418 N   0  0  0  0  0  0  0  0  0  0  0  0
   -5.5533   13.6485  -12.1711 C   0  0  0  0  0  0  0  0  0  0  0  0
   -5.9795   14.5724  -12.8566 O   0  0  0  0  0  0  0  0  0  0  0  0
   -5.9627   10.4850   -7.7364 C   0  0  0  0  0  0  0  0  0  0  0  0
   -5.8552   11.7581   -7.1652 C   0  0  0  0  0  0  0  0  0  0  0  0
   -4.5966   12.3060   -6.9181 C   0  0  0  0  0  0  0  0  0  0  0  0
   -3.4424   11.5865   -7.2381 C   0  0  0  0  0  0  0  0  0  0  0  0
   -3.5593   10.3139   -7.8013 C   0  0  0  0  0  0  0  0  0  0  0  0
   -4.8122    9.7647   -8.0513 C   0  0  0  0  0  0  0  0  0  0  0  0
   -2.0942   12.1662   -6.9781 C   0  0  0  0  0  0  0  0  0  0  0  0
   -1.7414   13.4274   -6.4937 C   0  0  0  0  0  0  0  0  0  0  0  0
   -0.4089   13.4560   -6.4321 N   0  0  0  0  0  0  0  0  0  0  0  0
    0.1814   12.3590   -6.8068 N   0  0  0  0  0  0  0  0  0  0  0  0
   -0.8029   11.5527   -7.1728 C   0  0  0  0  0  0  0  0  0  0  0  0
    0.4236   14.5699   -5.9945 C   0  0  0  0  0  0  0  0  0  0  0  0
   -3.7594   15.0422  -11.2114 C   0  0  0  0  0  0  0  0  0  0  0  0
   -2.3424   15.0924  -11.7154 C   0  0  0  0  0  0  0  0  0  0  0  0
   -1.5130   13.9202  -11.2644 C   0  0  0  0  0  0  0  0  0  0  0  0
   -2.1771   12.5990  -11.6641 C   0  0  0  0  0  0  0  0  0  0  0  0
   -3.6239   12.4833  -11.0641 C   0  0  0  0  0  0  0  0  0  0  0  0
   -6.0088   12.2426   -9.8942 H   0  0  0  0  0  0  0  0  0  0  0  0
   -8.7234   10.7825  -13.4015 H   0  0  0  0  0  0  0  0  0  0  0  0
   -7.2258    9.8363  -13.6994 H   0  0  0  0  0  0  0  0  0  0  0  0
   -6.8867   12.2580  -14.1015 H   0  0  0  0  0  0  0  0  0  0  0  0
   -8.7368   10.5741  -11.5905 H   0  0  0  0  0  0  0  0  0  0  0  0
   -8.0354    9.5960   -7.2566 H   0  0  0  0  0  0  0  0  0  0  0  0
   -6.7459   12.3157   -6.9160 H   0  0  0  0  0  0  0  0  0  0  0  0
   -4.5140   13.2889   -6.4783 H   0  0  0  0  0  0  0  0  0  0  0  0
   -2.6697    9.7519   -8.0446 H   0  0  0  0  0  0  0  0  0  0  0  0
   -4.8934    8.7808   -8.4891 H   0  0  0  0  0  0  0  0  0  0  0  0
   -2.4165   14.2253   -6.2216 H   0  0  0  0  0  0  0  0  0  0  0  0
   -0.6572   10.5584   -7.5683 H   0  0  0  0  0  0  0  0  0  0  0  0
    1.4836   14.2826   -6.0565 H   0  0  0  0  0  0  0  0  0  0  0  0
    0.2413   15.4403   -6.6420 H   0  0  0  0  0  0  0  0  0  0  0  0
    0.1739   14.8277   -4.9547 H   0  0  0  0  0  0  0  0  0  0  0  0
   -4.3489   15.8104  -11.7333 H   0  0  0  0  0  0  0  0  0  0  0  0
   -3.7594   15.2509  -10.1314 H   0  0  0  0  0  0  0  0  0  0  0  0
   -2.3623   15.1046  -12.8152 H   0  0  0  0  0  0  0  0  0  0  0  0
   -1.8724   16.0161  -11.3469 H   0  0  0  0  0  0  0  0  0  0  0  0
   -0.5191   13.9803  -11.7319 H   0  0  0  0  0  0  0  0  0  0  0  0
   -1.4061   13.9537  -10.1701 H   0  0  0  0  0  0  0  0  0  0  0  0
   -2.2388   12.5464  -12.7611 H   0  0  0  0  0  0  0  0  0  0  0  0
   -1.5665   11.7637  -11.2908 H   0  0  0  0  0  0  0  0  0  0  0  0
   -3.5680   12.3989   -9.9688 H   0  0  0  0  0  0  0  0  0  0  0  0
   -4.1284   11.5964  -11.4749 H   0  0  0  0  0  0  0  0  0  0  0  0
  1  2  1  0  0  0  0
  1  4  2  0  0  0  0
  1 12  1  0  0  0  0
  2  6  2  0  0  0  0
  3  4  1  0  0  0  0
  3  5  1  0  0  0  0
  5  6  1  0  0  0  0
  5  9  1  0  0  0  0
  6  7  1  0  0  0  0
  7  8  1  0  0  0  0
  7 10  2  3  0  0  0
  8  9  2  0  0  0  0
 10 14  1  0  0  0  0
 11 12  1  0  0  0  0
 11 26  1  0  0  0  0
 11 30  1  0  0  0  0
 12 13  2  0  0  0  0
 14 15  2  0  0  0  0
 14 19  1  0  0  0  0
 15 16  1  0  0  0  0
 16 17  2  0  0  0  0
 17 18  1  0  0  0  0
 17 20  1  0  0  0  0
 18 19  2  0  0  0  0
 20 21  2  0  0  0  0
 20 24  1  0  0  0  0
 21 22  1  0  0  0  0
 22 23  1  0  0  0  0
 22 25  1  0  0  0  0
 23 24  2  0  0  0  0
 26 27  1  0  0  0  0
 27 28  1  0  0  0  0
 28 29  1  0  0  0  0
 29 30  1  0  0  0  0
  2 31  1  0  0  0  0
  3 32  1  0  0  0  0
  3 33  1  0  0  0  0
  4 34  1  0  0  0  0
  5 35  1  0  0  0  0
 10 36  1  0  0  0  0
 15 37  1  0  0  0  0
 16 38  1  0  0  0  0
 18 39  1  0  0  0  0
 19 40  1  0  0  0  0
 21 41  1  0  0  0  0
 24 42  1  0  0  0  0
 25 43  1  0  0  0  0
 25 44  1  0  0  0  0
 25 45  1  0  0  0  0
 26 46  1  0  0  0  0
 26 47  1  0  0  0  0
 27 48  1  0  0  0  0
 27 49  1  0  0  0  0
 28 50  1  0  0  0  0
 28 51  1  0  0  0  0
 29 52  1  0  0  0  0
 29 53  1  0  0  0  0
 30 54  1  0  0  0  0
 30 55  1  0  0  0  0
M  END
> <Name>
41

> <IC50[uM]>
0.006

$$$$
41
  -OEChem-05192314333D
 Structure written by MMmdl.
 55 59  0     1  0  0  0  0  0999 V2000
   -6.3365   12.3514  -12.0169 C   0  0  0  0  0  0  0  0  0  0  0  0
   -6.4737   11.7818  -10.7533 C   0  0  0  0  0  0  0  0  0  0  0  0
   -7.7043   10.5771  -13.0419 C   0  0  0  0  0  0  0  0  0  0  0  0
   -6.9700   11.7706  -13.1413 C   0  0  0  0  0  0  0  0  0  0  0  0
   -7.8117   10.0060  -11.7679 C   0  0  0  0  0  0  0  0  0  0  0  0
   -7.2142   10.6153  -10.6085 C   0  0  0  0  0  0  0  0  0  0  0  0
   -7.6079    9.7475   -9.5180 C   0  0  0  0  0  0  0  0  0  0  0  0
   -8.2848    8.7450   -9.9896 N   0  0  0  0  0  0  0  0  0  0  0  0
   -8.4180    8.8715  -11.3012 N   0  0  0  0  0  0  0  0  0  0  0  0
   -7.3345    9.8877   -8.0248 C   0  0  0  0  0  0  0  0  0  0  0  0
   -4.3847   13.7235  -11.4418 N   0  0  0  0  0  0  0  0  0  0  0  0
   -5.5533   13.6485  -12.1711 C   0  0  0  0  0  0  0  0  0  0  0  0
   -5.9795   14.5724  -12.8566 O   0  0  0  0  0  0  0  0  0  0  0  0
   -5.9627   10.4850   -7.7364 C   0  0  0  0  0  0  0  0  0  0  0  0
   -5.8552   11.7581   -7.1652 C   0  0  0  0  0  0  0  0  0  0  0  0
   -4.5966   12.3060   -6.9181 C   0  0  0  0  0  0  0  0  0  0  0  0
   -3.4424   11.5865   -7.2381 C   0  0  3  0  0  0  0  0  0  0  0  0
   -3.5593   10.3139   -7.8013 C   0  0  0  0  0  0  0  0  0  0  0  0
   -4.8122    9.7647   -8.0513 C   0  0  0  0  0  0  0  0  0  0  0  0
   -2.0942   12.1662   -6.9781 C   0  0  0  0  0  0  0  0  0  0  0  0
   -1.7414   13.4274   -6.4937 C   0  0  0  0  0  0  0  0  0  0  0  0
   -0.4089   13.4560   -6.4321 N   0  0  0  0  0  0  0  0  0  0  0  0
    0.1814   12.3590   -6.8068 N   0  0  0  0  0  0  0  0  0  0  0  0
   -0.8029   11.5527   -7.1728 C   0  0  0  0  0  0  0  0  0  0  0  0
    0.4236   14.5699   -5.9945 C   0  0  0  0  0  0  0  0  0  0  0  0
   -3.7594   15.0422  -11.2114 C   0  0  0  0  0  0  0  0  0  0  0  0
   -2.3424   15.0924  -11.7154 C   0  0  0  0  0  0  0  0  0  0  0  0
   -1.5130   13.9202  -11.2644 C   0  0  0  0  0  0  0  0  0  0  0  0
   -2.1771   12.5990  -11.6641 C   0  0  0  0  0  0  0  0  0  0  0  0
   -3.6239   12.4833  -11.0641 C   0  0  0  0  0  0  0  0  0  0  0  0
   -6.0088   12.2426   -9.8942 H   0  0  0  0  0  0  0  0  0  0  0  0
   -8.1640   10.1218  -13.9067 H   0  0  0  0  0  0  0  0  0  0  0  0
   -6.8867   12.2580  -14.1015 H   0  0  0  0  0  0  0  0  0  0  0  0
   -8.0354    9.5960   -7.2566 H   0  0  0  0  0  0  0  0  0  0  0  0
   -6.7459   12.3157   -6.9160 H   0  0  0  0  0  0  0  0  0  0  0  0
   -4.5467   13.2507   -7.4793 H   0  0  0  0  0  0  0  0  0  0  0  0
   -4.5493   12.5173   -5.8396 H   0  0  0  0  0  0  0  0  0  0  0  0
   -3.4416   12.0327   -8.2435 H   0  0  0  0  0  0  0  0  0  0  0  0
   -2.6697    9.7519   -8.0446 H   0  0  0  0  0  0  0  0  0  0  0  0
   -4.8934    8.7808   -8.4891 H   0  0  0  0  0  0  0  0  0  0  0  0
   -2.4165   14.2253   -6.2216 H   0  0  0  0  0  0  0  0  0  0  0  0
   -0.6572   10.5584   -7.5683 H   0  0  0  0  0  0  0  0  0  0  0  0
    1.4836   14.2826   -6.0565 H   0  0  0  0  0  0  0  0  0  0  0  0
    0.2413   15.4403   -6.6420 H   0  0  0  0  0  0  0  0  0  0  0  0
    0.1739   14.8277   -4.9547 H   0  0  0  0  0  0  0  0  0  0  0  0
   -4.3489   15.8104  -11.7333 H   0  0  0  0  0  0  0  0  0  0  0  0
   -3.7594   15.2509  -10.1314 H   0  0  0  0  0  0  0  0  0  0  0  0
   -2.3623   15.1046  -12.8152 H   0  0  0  0  0  0  0  0  0  0  0  0
   -1.8724   16.0161  -11.3469 H   0  0  0  0  0  0  0  0  0  0  0  0
   -0.5191   13.9803  -11.7319 H   0  0  0  0  0  0  0  0  0  0  0  0
   -1.4061   13.9537  -10.1701 H   0  0  0  0  0  0  0  0  0  0  0  0
   -2.2388   12.5464  -12.7611 H   0  0  0  0  0  0  0  0  0  0  0  0
   -1.5665   11.7637  -11.2908 H   0  0  0  0  0  0  0  0  0  0  0  0
   -3.5680   12.3989   -9.9688 H   0  0  0  0  0  0  0  0  0  0  0  0
   -4.1284   11.5964  -11.4749 H   0  0  0  0  0  0  0  0  0  0  0  0
  1  2  2  0  0  0  0
  1  4  1  0  0  0  0
  1 12  1  0  0  0  0
  2  6  1  0  0  0  0
  3  4  2  0  0  0  0
  3  5  1  0  0  0  0
  5  6  2  0  0  0  0
  5  9  1  0  0  0  0
  6  7  1  0  0  0  0
  7  8  1  0  0  0  0
  7 10  2  3  0  0  0
  8  9  2  0  0  0  0
 10 14  1  0  0  0  0
 11 12  1  0  0  0  0
 11 26  1  0  0  0  0
 11 30  1  0  0  0  0
 12 13  2  0  0  0  0
 14 15  2  0  0  0  0
 14 19  1  0  0  0  0
 15 16  1  0  0  0  0
 16 17  1  0  0  0  0
 17 18  1  0  0  0  0
 17 20  1  0  0  0  0
 18 19  2  0  0  0  0
 20 21  2  0  0  0  0
 20 24  1  0  0  0  0
 21 22  1  0  0  0  0
 22 23  1  0  0  0  0
 22 25  1  0  0  0  0
 23 24  2  0  0  0  0
 26 27  1  0  0  0  0
 27 28  1  0  0  0  0
 28 29  1  0  0  0  0
 29 30  1  0  0  0  0
  2 31  1  0  0  0  0
  3 32  1  0  0  0  0
  4 33  1  0  0  0  0
 10 34  1  0  0  0  0
 15 35  1  0  0  0  0
 16 36  1  0  0  0  0
 16 37  1  0  0  0  0
 17 38  1  0  0  0  0
 18 39  1  0  0  0  0
 19 40  1  0  0  0  0
 21 41  1  0  0  0  0
 24 42  1  0  0  0  0
 25 43  1  0  0  0  0
 25 44  1  0  0  0  0
 25 45  1  0  0  0  0
 26 46  1  0  0  0  0
 26 47  1  0  0  0  0
 27 48  1  0  0  0  0
 27 49  1  0  0  0  0
 28 50  1  0  0  0  0
 28 51  1  0  0  0  0
 29 52  1  0  0  0  0
 29 53  1  0  0  0  0
 30 54  1  0  0  0  0
 30 55  1  0  0  0  0
M  END
> <Name>
41

> <IC50[uM]>
0.006

$$$$
41
  -OEChem-05192314333D
 Structure written by MMmdl.
 55 59  0     1  0  0  0  0  0999 V2000
   -6.3365   12.3514  -12.0169 C   0  0  3  0  0  0  0  0  0  0  0  0
   -6.4737   11.7818  -10.7533 C   0  0  0  0  0  0  0  0  0  0  0  0
   -7.7043   10.5771  -13.0419 C   0  0  0  0  0  0  0  0  0  0  0  0
   -6.9700   11.7706  -13.1413 C   0  0  0  0  0  0  0  0  0  0  0  0
   -7.8117   10.0060  -11.7679 C   0  0  0  0  0  0  0  0  0  0  0  0
   -7.2142   10.6153  -10.6085 C   0  0  0  0  0  0  0  0  0  0  0  0
   -7.6079    9.7475   -9.5180 C   0  0  0  0  0  0  0  0  0  0  0  0
   -8.2848    8.7450   -9.9896 N   0  0  0  0  0  0  0  0  0  0  0  0
   -8.4180    8.8715  -11.3012 N   0  0  0  0  0  0  0  0  0  0  0  0
   -7.3345    9.8877   -8.0248 C   0  0  0  0  0  0  0  0  0  0  0  0
   -4.3847   13.7235  -11.4418 N   0  0  0  0  0  0  0  0  0  0  0  0
   -5.5533   13.6485  -12.1711 C   0  0  0  0  0  0  0  0  0  0  0  0
   -5.9795   14.5724  -12.8566 O   0  0  0  0  0  0  0  0  0  0  0  0
   -5.9627   10.4850   -7.7364 C   0  0  0  0  0  0  0  0  0  0  0  0
   -5.8552   11.7581   -7.1652 C   0  0  0  0  0  0  0  0  0  0  0  0
   -4.5966   12.3060   -6.9181 C   0  0  0  0  0  0  0  0  0  0  0  0
   -3.4424   11.5865   -7.2381 C   0  0  0  0  0  0  0  0  0  0  0  0
   -3.5593   10.3139   -7.8013 C   0  0  0  0  0  0  0  0  0  0  0  0
   -4.8122    9.7647   -8.0513 C   0  0  0  0  0  0  0  0  0  0  0  0
   -2.0942   12.1662   -6.9781 C   0  0  0  0  0  0  0  0  0  0  0  0
   -1.7414   13.4274   -6.4937 C   0  0  0  0  0  0  0  0  0  0  0  0
   -0.4089   13.4560   -6.4321 N   0  0  0  0  0  0  0  0  0  0  0  0
    0.1814   12.3590   -6.8068 N   0  0  0  0  0  0  0  0  0  0  0  0
   -0.8029   11.5527   -7.1728 C   0  0  0  0  0  0  0  0  0  0  0  0
    0.4236   14.5699   -5.9945 C   0  0  0  0  0  0  0  0  0  0  0  0
   -3.7594   15.0422  -11.2114 C   0  0  0  0  0  0  0  0  0  0  0  0
   -2.3424   15.0924  -11.7154 C   0  0  0  0  0  0  0  0  0  0  0  0
   -1.5130   13.9202  -11.2644 C   0  0  0  0  0  0  0  0  0  0  0  0
   -2.1771   12.5990  -11.6641 C   0  0  0  0  0  0  0  0  0  0  0  0
   -3.6239   12.4833  -11.0641 C   0  0  0  0  0  0  0  0  0  0  0  0
   -5.4270   11.7615  -12.2032 H   0  0  0  0  0  0  0  0  0  0  0  0
   -6.0088   12.2426   -9.8942 H   0  0  0  0  0  0  0  0  0  0  0  0
   -8.1640   10.1218  -13.9067 H   0  0  0  0  0  0  0  0  0  0  0  0
   -7.6647   12.5293  -13.5308 H   0  0  0  0  0  0  0  0  0  0  0  0
   -6.1773   11.5851  -13.8810 H   0  0  0  0  0  0  0  0  0  0  0  0
   -8.0354    9.5960   -7.2566 H   0  0  0  0  0  0  0  0  0  0  0  0
   -6.7459   12.3157   -6.9160 H   0  0  0  0  0  0  0  0  0  0  0  0
   -4.5140   13.2889   -6.4783 H   0  0  0  0  0  0  0  0  0  0  0  0
   -2.6697    9.7519   -8.0446 H   0  0  0  0  0  0  0  0  0  0  0  0
   -4.8934    8.7808   -8.4891 H   0  0  0  0  0  0  0  0  0  0  0  0
   -2.4165   14.2253   -6.2216 H   0  0  0  0  0  0  0  0  0  0  0  0
   -0.6572   10.5584   -7.5683 H   0  0  0  0  0  0  0  0  0  0  0  0
    1.4836   14.2826   -6.0565 H   0  0  0  0  0  0  0  0  0  0  0  0
    0.2413   15.4403   -6.6420 H   0  0  0  0  0  0  0  0  0  0  0  0
    0.1739   14.8277   -4.9547 H   0  0  0  0  0  0  0  0  0  0  0  0
   -4.3489   15.8104  -11.7333 H   0  0  0  0  0  0  0  0  0  0  0  0
   -3.7594   15.2509  -10.1314 H   0  0  0  0  0  0  0  0  0  0  0  0
   -2.3623   15.1046  -12.8152 H   0  0  0  0  0  0  0  0  0  0  0  0
   -1.8724   16.0161  -11.3469 H   0  0  0  0  0  0  0  0  0  0  0  0
   -0.5191   13.9803  -11.7319 H   0  0  0  0  0  0  0  0  0  0  0  0
   -1.4061   13.9537  -10.1701 H   0  0  0  0  0  0  0  0  0  0  0  0
   -2.2388   12.5464  -12.7611 H   0  0  0  0  0  0  0  0  0  0  0  0
   -1.5665   11.7637  -11.2908 H   0  0  0  0  0  0  0  0  0  0  0  0
   -3.5680   12.3989   -9.9688 H   0  0  0  0  0  0  0  0  0  0  0  0
   -4.1284   11.5964  -11.4749 H   0  0  0  0  0  0  0  0  0  0  0  0
  1  2  1  0  0  0  0
  1  4  1  0  0  0  0
  1 12  1  0  0  0  0
  2  6  2  0  0  0  0
  3  4  1  0  0  0  0
  3  5  2  0  0  0  0
  5  6  1  0  0  0  0
  5  9  1  0  0  0  0
  6  7  1  0  0  0  0
  7  8  1  0  0  0  0
  7 10  2  3  0  0  0
  8  9  2  0  0  0  0
 10 14  1  0  0  0  0
 11 12  1  0  0  0  0
 11 26  1  0  0  0  0
 11 30  1  0  0  0  0
 12 13  2  0  0  0  0
 14 15  2  0  0  0  0
 14 19  1  0  0  0  0
 15 16  1  0  0  0  0
 16 17  2  0  0  0  0
 17 18  1  0  0  0  0
 17 20  1  0  0  0  0
 18 19  2  0  0  0  0
 20 21  2  0  0  0  0
 20 24  1  0  0  0  0
 21 22  1  0  0  0  0
 22 23  1  0  0  0  0
 22 25  1  0  0  0  0
 23 24  2  0  0  0  0
 26 27  1  0  0  0  0
 27 28  1  0  0  0  0
 28 29  1  0  0  0  0
 29 30  1  0  0  0  0
  1 31  1  0  0  0  0
  2 32  1  0  0  0  0
  3 33  1  0  0  0  0
  4 34  1  0  0  0  0
  4 35  1  0  0  0  0
 10 36  1  0  0  0  0
 15 37  1  0  0  0  0
 16 38  1  0  0  0  0
 18 39  1  0  0  0  0
 19 40  1  0  0  0  0
 21 41  1  0  0  0  0
 24 42  1  0  0  0  0
 25 43  1  0  0  0  0
 25 44  1  0  0  0  0
 25 45  1  0  0  0  0
 26 46  1  0  0  0  0
 26 47  1  0  0  0  0
 27 48  1  0  0  0  0
 27 49  1  0  0  0  0
 28 50  1  0  0  0  0
 28 51  1  0  0  0  0
 29 52  1  0  0  0  0
 29 53  1  0  0  0  0
 30 54  1  0  0  0  0
 30 55  1  0  0  0  0
M  END
> <Name>
41

> <IC50[uM]>
0.006

$$$$
41
  -OEChem-05192314333D
 Structure written by MMmdl.
 55 59  0     1  0  0  0  0  0999 V2000
   -6.3365   12.3514  -12.0169 C   0  0  0  0  0  0  0  0  0  0  0  0
   -6.4737   11.7818  -10.7533 C   0  0  0  0  0  0  0  0  0  0  0  0
   -7.7043   10.5771  -13.0419 C   0  0  0  0  0  0  0  0  0  0  0  0
   -6.9700   11.7706  -13.1413 C   0  0  0  0  0  0  0  0  0  0  0  0
   -7.8117   10.0060  -11.7679 C   0  0  0  0  0  0  0  0  0  0  0  0
   -7.2142   10.6153  -10.6085 C   0  0  3  0  0  0  0  0  0  0  0  0
   -7.6079    9.7475   -9.5180 C   0  0  0  0  0  0  0  0  0  0  0  0
   -8.2848    8.7450   -9.9896 N   0  0  0  0  0  0  0  0  0  0  0  0
   -8.4180    8.8715  -11.3012 N   0  0  0  0  0  0  0  0  0  0  0  0
   -7.3345    9.8877   -8.0248 C   0  0  0  0  0  0  0  0  0  0  0  0
   -4.3847   13.7235  -11.4418 N   0  0  0  0  0  0  0  0  0  0  0  0
   -5.5533   13.6485  -12.1711 C   0  0  0  0  0  0  0  0  0  0  0  0
   -5.9795   14.5724  -12.8566 O   0  0  0  0  0  0  0  0  0  0  0  0
   -5.9627   10.4850   -7.7364 C   0  0  0  0  0  0  0  0  0  0  0  0
   -5.8552   11.7581   -7.1652 C   0  0  0  0  0  0  0  0  0  0  0  0
   -4.5966   12.3060   -6.9181 C   0  0  0  0  0  0  0  0  0  0  0  0
   -3.4424   11.5865   -7.2381 C   0  0  0  0  0  0  0  0  0  0  0  0
   -3.5593   10.3139   -7.8013 C   0  0  0  0  0  0  0  0  0  0  0  0
   -4.8122    9.7647   -8.0513 C   0  0  0  0  0  0  0  0  0  0  0  0
   -2.0942   12.1662   -6.9781 C   0  0  0  0  0  0  0  0  0  0  0  0
   -1.7414   13.4274   -6.4937 C   0  0  0  0  0  0  0  0  0  0  0  0
   -0.4089   13.4560   -6.4321 N   0  0  0  0  0  0  0  0  0  0  0  0
    0.1814   12.3590   -6.8068 N   0  0  0  0  0  0  0  0  0  0  0  0
   -0.8029   11.5527   -7.1728 C   0  0  0  0  0  0  0  0  0  0  0  0
    0.4236   14.5699   -5.9945 C   0  0  0  0  0  0  0  0  0  0  0  0
   -3.7594   15.0422  -11.2114 C   0  0  0  0  0  0  0  0  0  0  0  0
   -2.3424   15.0924  -11.7154 C   0  0  0  0  0  0  0  0  0  0  0  0
   -1.5130   13.9202  -11.2644 C   0  0  0  0  0  0  0  0  0  0  0  0
   -2.1771   12.5990  -11.6641 C   0  0  0  0  0  0  0  0  0  0  0  0
   -3.6239   12.4833  -11.0641 C   0  0  0  0  0  0  0  0  0  0  0  0
   -6.0088   12.2426   -9.8942 H   0  0  0  0  0  0  0  0  0  0  0  0
   -8.1640   10.1218  -13.9067 H   0  0  0  0  0  0  0  0  0  0  0  0
   -7.6647   12.5293  -13.5308 H   0  0  0  0  0  0  0  0  0  0  0  0
   -6.1773   11.5851  -13.8810 H   0  0  0  0  0  0  0  0  0  0  0  0
   -6.3042   10.0161  -10.7598 H   0  0  0  0  0  0  0  0  0  0  0  0
   -8.0354    9.5960   -7.2566 H   0  0  0  0  0  0  0  0  0  0  0  0
   -6.7459   12.3157   -6.9160 H   0  0  0  0  0  0  0  0  0  0  0  0
   -4.5140   13.2889   -6.4783 H   0  0  0  0  0  0  0  0  0  0  0  0
   -2.6697    9.7519   -8.0446 H   0  0  0  0  0  0  0  0  0  0  0  0
   -4.8934    8.7808   -8.4891 H   0  0  0  0  0  0  0  0  0  0  0  0
   -2.4165   14.2253   -6.2216 H   0  0  0  0  0  0  0  0  0  0  0  0
   -0.6572   10.5584   -7.5683 H   0  0  0  0  0  0  0  0  0  0  0  0
    1.4836   14.2826   -6.0565 H   0  0  0  0  0  0  0  0  0  0  0  0
    0.2413   15.4403   -6.6420 H   0  0  0  0  0  0  0  0  0  0  0  0
    0.1739   14.8277   -4.9547 H   0  0  0  0  0  0  0  0  0  0  0  0
   -4.3489   15.8104  -11.7333 H   0  0  0  0  0  0  0  0  0  0  0  0
   -3.7594   15.2509  -10.1314 H   0  0  0  0  0  0  0  0  0  0  0  0
   -2.3623   15.1046  -12.8152 H   0  0  0  0  0  0  0  0  0  0  0  0
   -1.8724   16.0161  -11.3469 H   0  0  0  0  0  0  0  0  0  0  0  0
   -0.5191   13.9803  -11.7319 H   0  0  0  0  0  0  0  0  0  0  0  0
   -1.4061   13.9537  -10.1701 H   0  0  0  0  0  0  0  0  0  0  0  0
   -2.2388   12.5464  -12.7611 H   0  0  0  0  0  0  0  0  0  0  0  0
   -1.5665   11.7637  -11.2908 H   0  0  0  0  0  0  0  0  0  0  0  0
   -3.5680   12.3989   -9.9688 H   0  0  0  0  0  0  0  0  0  0  0  0
   -4.1284   11.5964  -11.4749 H   0  0  0  0  0  0  0  0  0  0  0  0
  1  2  2  0  0  0  0
  1  4  1  0  0  0  0
  1 12  1  0  0  0  0
  2  6  1  0  0  0  0
  3  4  1  0  0  0  0
  3  5  2  0  0  0  0
  5  6  1  0  0  0  0
  5  9  1  0  0  0  0
  6  7  1  0  0  0  0
  7  8  1  0  0  0  0
  7 10  2  3  0  0  0
  8  9  2  0  0  0  0
 10 14  1  0  0  0  0
 11 12  1  0  0  0  0
 11 26  1  0  0  0  0
 11 30  1  0  0  0  0
 12 13  2  0  0  0  0
 14 15  2  0  0  0  0
 14 19  1  0  0  0  0
 15 16  1  0  0  0  0
 16 17  2  0  0  0  0
 17 18  1  0  0  0  0
 17 20  1  0  0  0  0
 18 19  2  0  0  0  0
 20 21  2  0  0  0  0
 20 24  1  0  0  0  0
 21 22  1  0  0  0  0
 22 23  1  0  0  0  0
 22 25  1  0  0  0  0
 23 24  2  0  0  0  0
 26 27  1  0  0  0  0
 27 28  1  0  0  0  0
 28 29  1  0  0  0  0
 29 30  1  0  0  0  0
  2 31  1  0  0  0  0
  3 32  1  0  0  0  0
  4 33  1  0  0  0  0
  4 34  1  0  0  0  0
  6 35  1  0  0  0  0
 10 36  1  0  0  0  0
 15 37  1  0  0  0  0
 16 38  1  0  0  0  0
 18 39  1  0  0  0  0
 19 40  1  0  0  0  0
 21 41  1  0  0  0  0
 24 42  1  0  0  0  0
 25 43  1  0  0  0  0
 25 44  1  0  0  0  0
 25 45  1  0  0  0  0
 26 46  1  0  0  0  0
 26 47  1  0  0  0  0
 27 48  1  0  0  0  0
 27 49  1  0  0  0  0
 28 50  1  0  0  0  0
 28 51  1  0  0  0  0
 29 52  1  0  0  0  0
 29 53  1  0  0  0  0
 30 54  1  0  0  0  0
 30 55  1  0  0  0  0
M  END
> <Name>
41

> <IC50[uM]>
0.006

$$$$
41
  -OEChem-05192314333D
 Structure written by MMmdl.
 55 59  0     0  0  0  0  0  0999 V2000
   -6.3365   12.3514  -12.0169 C   0  0  0  0  0  0  0  0  0  0  0  0
   -6.4737   11.7818  -10.7533 C   0  0  0  0  0  0  0  0  0  0  0  0
   -7.7043   10.5771  -13.0419 C   0  0  0  0  0  0  0  0  0  0  0  0
   -6.9700   11.7706  -13.1413 C   0  0  0  0  0  0  0  0  0  0  0  0
   -7.8117   10.0060  -11.7679 C   0  0  0  0  0  0  0  0  0  0  0  0
   -7.2142   10.6153  -10.6085 C   0  0  0  0  0  0  0  0  0  0  0  0
   -7.6079    9.7475   -9.5180 C   0  0  0  0  0  0  0  0  0  0  0  0
   -8.2848    8.7450   -9.9896 N   0  0  0  0  0  0  0  0  0  0  0  0
   -8.4180    8.8715  -11.3012 N   0  0  0  0  0  0  0  0  0  0  0  0
   -7.3345    9.8877   -8.0248 C   0  0  0  0  0  0  0  0  0  0  0  0
   -4.3847   13.7235  -11.4418 N   0  0  0  0  0  0  0  0  0  0  0  0
   -5.5533   13.6485  -12.1711 C   0  0  0  0  0  0  0  0  0  0  0  0
   -5.9795   14.5724  -12.8566 O   0  0  0  0  0  0  0  0  0  0  0  0
   -5.9627   10.4850   -7.7364 C   0  0  0  0  0  0  0  0  0  0  0  0
   -5.8552   11.7581   -7.1652 C   0  0  0  0  0  0  0  0  0  0  0  0
   -4.5966   12.3060   -6.9181 C   0  0  0  0  0  0  0  0  0  0  0  0
   -3.4424   11.5865   -7.2381 C   0  0  0  0  0  0  0  0  0  0  0  0
   -3.5593   10.3139   -7.8013 C   0  0  0  0  0  0  0  0  0  0  0  0
   -4.8122    9.7647   -8.0513 C   0  0  0  0  0  0  0  0  0  0  0  0
   -2.0942   12.1662   -6.9781 C   0  0  0  0  0  0  0  0  0  0  0  0
   -1.7414   13.4274   -6.4937 C   0  0  0  0  0  0  0  0  0  0  0  0
   -0.4089   13.4560   -6.4321 N   0  0  0  0  0  0  0  0  0  0  0  0
    0.1814   12.3590   -6.8068 N   0  0  0  0  0  0  0  0  0  0  0  0
   -0.8029   11.5527   -7.1728 C   0  0  0  0  0  0  0  0  0  0  0  0
    0.4236   14.5699   -5.9945 C   0  0  0  0  0  0  0  0  0  0  0  0
   -3.7594   15.0422  -11.2114 C   0  0  0  0  0  0  0  0  0  0  0  0
   -2.3424   15.0924  -11.7154 C   0  0  0  0  0  0  0  0  0  0  0  0
   -1.5130   13.9202  -11.2644 C   0  0  0  0  0  0  0  0  0  0  0  0
   -2.1771   12.5990  -11.6641 C   0  0  0  0  0  0  0  0  0  0  0  0
   -3.6239   12.4833  -11.0641 C   0  0  0  0  0  0  0  0  0  0  0  0
   -6.0088   12.2426   -9.8942 H   0  0  0  0  0  0  0  0  0  0  0  0
   -8.7234   10.7825  -13.4015 H   0  0  0  0  0  0  0  0  0  0  0  0
   -7.2258    9.8363  -13.6994 H   0  0  0  0  0  0  0  0  0  0  0  0
   -7.6647   12.5293  -13.5308 H   0  0  0  0  0  0  0  0  0  0  0  0
   -6.1773   11.5851  -13.8810 H   0  0  0  0  0  0  0  0  0  0  0  0
   -8.0354    9.5960   -7.2566 H   0  0  0  0  0  0  0  0  0  0  0  0
   -6.7459   12.3157   -6.9160 H   0  0  0  0  0  0  0  0  0  0  0  0
   -4.5140   13.2889   -6.4783 H   0  0  0  0  0  0  0  0  0  0  0  0
   -2.6697    9.7519   -8.0446 H   0  0  0  0  0  0  0  0  0  0  0  0
   -4.8934    8.7808   -8.4891 H   0  0  0  0  0  0  0  0  0  0  0  0
   -2.4165   14.2253   -6.2216 H   0  0  0  0  0  0  0  0  0  0  0  0
   -0.6572   10.5584   -7.5683 H   0  0  0  0  0  0  0  0  0  0  0  0
    1.4836   14.2826   -6.0565 H   0  0  0  0  0  0  0  0  0  0  0  0
    0.2413   15.4403   -6.6420 H   0  0  0  0  0  0  0  0  0  0  0  0
    0.1739   14.8277   -4.9547 H   0  0  0  0  0  0  0  0  0  0  0  0
   -4.3489   15.8104  -11.7333 H   0  0  0  0  0  0  0  0  0  0  0  0
   -3.7594   15.2509  -10.1314 H   0  0  0  0  0  0  0  0  0  0  0  0
   -2.3623   15.1046  -12.8152 H   0  0  0  0  0  0  0  0  0  0  0  0
   -1.8724   16.0161  -11.3469 H   0  0  0  0  0  0  0  0  0  0  0  0
   -0.5191   13.9803  -11.7319 H   0  0  0  0  0  0  0  0  0  0  0  0
   -1.4061   13.9537  -10.1701 H   0  0  0  0  0  0  0  0  0  0  0  0
   -2.2388   12.5464  -12.7611 H   0  0  0  0  0  0  0  0  0  0  0  0
   -1.5665   11.7637  -11.2908 H   0  0  0  0  0  0  0  0  0  0  0  0
   -3.5680   12.3989   -9.9688 H   0  0  0  0  0  0  0  0  0  0  0  0
   -4.1284   11.5964  -11.4749 H   0  0  0  0  0  0  0  0  0  0  0  0
  1  2  2  0  0  0  0
  1  4  1  0  0  0  0
  1 12  1  0  0  0  0
  2  6  1  0  0  0  0
  3  4  1  0  0  0  0
  3  5  1  0  0  0  0
  5  6  2  0  0  0  0
  5  9  1  0  0  0  0
  6  7  1  0  0  0  0
  7  8  1  0  0  0  0
  7 10  2  3  0  0  0
  8  9  2  0  0  0  0
 10 14  1  0  0  0  0
 11 12  1  0  0  0  0
 11 26  1  0  0  0  0
 11 30  1  0  0  0  0
 12 13  2  0  0  0  0
 14 15  2  0  0  0  0
 14 19  1  0  0  0  0
 15 16  1  0  0  0  0
 16 17  2  0  0  0  0
 17 18  1  0  0  0  0
 17 20  1  0  0  0  0
 18 19  2  0  0  0  0
 20 21  2  0  0  0  0
 20 24  1  0  0  0  0
 21 22  1  0  0  0  0
 22 23  1  0  0  0  0
 22 25  1  0  0  0  0
 23 24  2  0  0  0  0
 26 27  1  0  0  0  0
 27 28  1  0  0  0  0
 28 29  1  0  0  0  0
 29 30  1  0  0  0  0
  2 31  1  0  0  0  0
  3 32  1  0  0  0  0
  3 33  1  0  0  0  0
  4 34  1  0  0  0  0
  4 35  1  0  0  0  0
 10 36  1  0  0  0  0
 15 37  1  0  0  0  0
 16 38  1  0  0  0  0
 18 39  1  0  0  0  0
 19 40  1  0  0  0  0
 21 41  1  0  0  0  0
 24 42  1  0  0  0  0
 25 43  1  0  0  0  0
 25 44  1  0  0  0  0
 25 45  1  0  0  0  0
 26 46  1  0  0  0  0
 26 47  1  0  0  0  0
 27 48  1  0  0  0  0
 27 49  1  0  0  0  0
 28 50  1  0  0  0  0
 28 51  1  0  0  0  0
 29 52  1  0  0  0  0
 29 53  1  0  0  0  0
 30 54  1  0  0  0  0
 30 55  1  0  0  0  0
M  END
> <Name>
41

> <IC50[uM]>
0.006

$$$$
41
  -OEChem-05192314333D
 Structure written by MMmdl.
 55 59  0     1  0  0  0  0  0999 V2000
   -6.3365   12.3514  -12.0169 C   0  0  0  0  0  0  0  0  0  0  0  0
   -6.4737   11.7818  -10.7533 C   0  0  0  0  0  0  0  0  0  0  0  0
   -7.7043   10.5771  -13.0419 C   0  0  0  0  0  0  0  0  0  0  0  0
   -6.9700   11.7706  -13.1413 C   0  0  0  0  0  0  0  0  0  0  0  0
   -7.8117   10.0060  -11.7679 C   0  0  0  0  0  0  0  0  0  0  0  0
   -7.2142   10.6153  -10.6085 C   0  0  0  0  0  0  0  0  0  0  0  0
   -7.6079    9.7475   -9.5180 C   0  0  0  0  0  0  0  0  0  0  0  0
   -8.2848    8.7450   -9.9896 N   0  0  0  0  0  0  0  0  0  0  0  0
   -8.4180    8.8715  -11.3012 N   0  0  0  0  0  0  0  0  0  0  0  0
   -7.3345    9.8877   -8.0248 C   0  0  0  0  0  0  0  0  0  0  0  0
   -4.3847   13.7235  -11.4418 N   0  0  0  0  0  0  0  0  0  0  0  0
   -5.5533   13.6485  -12.1711 C   0  0  0  0  0  0  0  0  0  0  0  0
   -5.9795   14.5724  -12.8566 O   0  0  0  0  0  0  0  0  0  0  0  0
   -5.9627   10.4850   -7.7364 C   0  0  3  0  0  0  0  0  0  0  0  0
   -5.8552   11.7581   -7.1652 C   0  0  0  0  0  0  0  0  0  0  0  0
   -4.5966   12.3060   -6.9181 C   0  0  0  0  0  0  0  0  0  0  0  0
   -3.4424   11.5865   -7.2381 C   0  0  0  0  0  0  0  0  0  0  0  0
   -3.5593   10.3139   -7.8013 C   0  0  0  0  0  0  0  0  0  0  0  0
   -4.8122    9.7647   -8.0513 C   0  0  0  0  0  0  0  0  0  0  0  0
   -2.0942   12.1662   -6.9781 C   0  0  0  0  0  0  0  0  0  0  0  0
   -1.7414   13.4274   -6.4937 C   0  0  0  0  0  0  0  0  0  0  0  0
   -0.4089   13.4560   -6.4321 N   0  0  0  0  0  0  0  0  0  0  0  0
    0.1814   12.3590   -6.8068 N   0  0  0  0  0  0  0  0  0  0  0  0
   -0.8029   11.5527   -7.1728 C   0  0  0  0  0  0  0  0  0  0  0  0
    0.4236   14.5699   -5.9945 C   0  0  0  0  0  0  0  0  0  0  0  0
   -3.7594   15.0422  -11.2114 C   0  0  0  0  0  0  0  0  0  0  0  0
   -2.3424   15.0924  -11.7154 C   0  0  0  0  0  0  0  0  0  0  0  0
   -1.5130   13.9202  -11.2644 C   0  0  0  0  0  0  0  0  0  0  0  0
   -2.1771   12.5990  -11.6641 C   0  0  0  0  0  0  0  0  0  0  0  0
   -3.6239   12.4833  -11.0641 C   0  0  0  0  0  0  0  0  0  0  0  0
   -6.0088   12.2426   -9.8942 H   0  0  0  0  0  0  0  0  0  0  0  0
   -8.1640   10.1218  -13.9067 H   0  0  0  0  0  0  0  0  0  0  0  0
   -6.8867   12.2580  -14.1015 H   0  0  0  0  0  0  0  0  0  0  0  0
   -8.0354    9.5960   -7.2566 H   0  0  0  0  0  0  0  0  0  0  0  0
   -5.9742   10.0332   -6.7335 H   0  0  0  0  0  0  0  0  0  0  0  0
   -6.7459   12.3157   -6.9160 H   0  0  0  0  0  0  0  0  0  0  0  0
   -4.5140   13.2889   -6.4783 H   0  0  0  0  0  0  0  0  0  0  0  0
   -2.6697    9.7519   -8.0446 H   0  0  0  0  0  0  0  0  0  0  0  0
   -4.8638    8.8212   -7.4881 H   0  0  0  0  0  0  0  0  0  0  0  0
   -4.8562    9.5510   -9.1294 H   0  0  0  0  0  0  0  0  0  0  0  0
   -2.4165   14.2253   -6.2216 H   0  0  0  0  0  0  0  0  0  0  0  0
   -0.6572   10.5584   -7.5683 H   0  0  0  0  0  0  0  0  0  0  0  0
    1.4836   14.2826   -6.0565 H   0  0  0  0  0  0  0  0  0  0  0  0
    0.2413   15.4403   -6.6420 H   0  0  0  0  0  0  0  0  0  0  0  0
    0.1739   14.8277   -4.9547 H   0  0  0  0  0  0  0  0  0  0  0  0
   -4.3489   15.8104  -11.7333 H   0  0  0  0  0  0  0  0  0  0  0  0
   -3.7594   15.2509  -10.1314 H   0  0  0  0  0  0  0  0  0  0  0  0
   -2.3623   15.1046  -12.8152 H   0  0  0  0  0  0  0  0  0  0  0  0
   -1.8724   16.0161  -11.3469 H   0  0  0  0  0  0  0  0  0  0  0  0
   -0.5191   13.9803  -11.7319 H   0  0  0  0  0  0  0  0  0  0  0  0
   -1.4061   13.9537  -10.1701 H   0  0  0  0  0  0  0  0  0  0  0  0
   -2.2388   12.5464  -12.7611 H   0  0  0  0  0  0  0  0  0  0  0  0
   -1.5665   11.7637  -11.2908 H   0  0  0  0  0  0  0  0  0  0  0  0
   -3.5680   12.3989   -9.9688 H   0  0  0  0  0  0  0  0  0  0  0  0
   -4.1284   11.5964  -11.4749 H   0  0  0  0  0  0  0  0  0  0  0  0
  1  2  2  0  0  0  0
  1  4  1  0  0  0  0
  1 12  1  0  0  0  0
  2  6  1  0  0  0  0
  3  4  2  0  0  0  0
  3  5  1  0  0  0  0
  5  6  2  0  0  0  0
  5  9  1  0  0  0  0
  6  7  1  0  0  0  0
  7  8  1  0  0  0  0
  7 10  2  3  0  0  0
  8  9  2  0  0  0  0
 10 14  1  0  0  0  0
 11 12  1  0  0  0  0
 11 26  1  0  0  0  0
 11 30  1  0  0  0  0
 12 13  2  0  0  0  0
 14 15  1  0  0  0  0
 14 19  1  0  0  0  0
 15 16  2  0  0  0  0
 16 17  1  0  0  0  0
 17 18  2  0  0  0  0
 17 20  1  0  0  0  0
 18 19  1  0  0  0  0
 20 21  2  0  0  0  0
 20 24  1  0  0  0  0
 21 22  1  0  0  0  0
 22 23  1  0  0  0  0
 22 25  1  0  0  0  0
 23 24  2  0  0  0  0
 26 27  1  0  0  0  0
 27 28  1  0  0  0  0
 28 29  1  0  0  0  0
 29 30  1  0  0  0  0
  2 31  1  0  0  0  0
  3 32  1  0  0  0  0
  4 33  1  0  0  0  0
 10 34  1  0  0  0  0
 14 35  1  0  0  0  0
 15 36  1  0  0  0  0
 16 37  1  0  0  0  0
 18 38  1  0  0  0  0
 19 39  1  0  0  0  0
 19 40  1  0  0  0  0
 21 41  1  0  0  0  0
 24 42  1  0  0  0  0
 25 43  1  0  0  0  0
 25 44  1  0  0  0  0
 25 45  1  0  0  0  0
 26 46  1  0  0  0  0
 26 47  1  0  0  0  0
 27 48  1  0  0  0  0
 27 49  1  0  0  0  0
 28 50  1  0  0  0  0
 28 51  1  0  0  0  0
 29 52  1  0  0  0  0
 29 53  1  0  0  0  0
 30 54  1  0  0  0  0
 30 55  1  0  0  0  0
M  END
> <Name>
41

> <IC50[uM]>
0.006

$$$$
41
  -OEChem-05192314333D
 Structure written by MMmdl.
 55 59  0     1  0  0  0  0  0999 V2000
   -6.3365   12.3514  -12.0169 C   0  0  0  0  0  0  0  0  0  0  0  0
   -6.4737   11.7818  -10.7533 C   0  0  0  0  0  0  0  0  0  0  0  0
   -7.7043   10.5771  -13.0419 C   0  0  0  0  0  0  0  0  0  0  0  0
   -6.9700   11.7706  -13.1413 C   0  0  0  0  0  0  0  0  0  0  0  0
   -7.8117   10.0060  -11.7679 C   0  0  0  0  0  0  0  0  0  0  0  0
   -7.2142   10.6153  -10.6085 C   0  0  0  0  0  0  0  0  0  0  0  0
   -7.6079    9.7475   -9.5180 C   0  0  3  0  0  0  0  0  0  0  0  0
   -8.2848    8.7450   -9.9896 N   0  0  0  0  0  0  0  0  0  0  0  0
   -8.4180    8.8715  -11.3012 N   0  0  0  0  0  0  0  0  0  0  0  0
   -7.3345    9.8877   -8.0248 C   0  0  0  0  0  0  0  0  0  0  0  0
   -4.3847   13.7235  -11.4418 N   0  0  0  0  0  0  0  0  0  0  0  0
   -5.5533   13.6485  -12.1711 C   0  0  0  0  0  0  0  0  0  0  0  0
   -5.9795   14.5724  -12.8566 O   0  0  0  0  0  0  0  0  0  0  0  0
   -5.9627   10.4850   -7.7364 C   0  0  0  0  0  0  0  0  0  0  0  0
   -5.8552   11.7581   -7.1652 C   0  0  0  0  0  0  0  0  0  0  0  0
   -4.5966   12.3060   -6.9181 C   0  0  0  0  0  0  0  0  0  0  0  0
   -3.4424   11.5865   -7.2381 C   0  0  0  0  0  0  0  0  0  0  0  0
   -3.5593   10.3139   -7.8013 C   0  0  0  0  0  0  0  0  0  0  0  0
   -4.8122    9.7647   -8.0513 C   0  0  0  0  0  0  0  0  0  0  0  0
   -2.0942   12.1662   -6.9781 C   0  0  0  0  0  0  0  0  0  0  0  0
   -1.7414   13.4274   -6.4937 C   0  0  0  0  0  0  0  0  0  0  0  0
   -0.4089   13.4560   -6.4321 N   0  0  0  0  0  0  0  0  0  0  0  0
    0.1814   12.3590   -6.8068 N   0  0  0  0  0  0  0  0  0  0  0  0
   -0.8029   11.5527   -7.1728 C   0  0  0  0  0  0  0  0  0  0  0  0
    0.4236   14.5699   -5.9945 C   0  0  0  0  0  0  0  0  0  0  0  0
   -3.7594   15.0422  -11.2114 C   0  0  0  0  0  0  0  0  0  0  0  0
   -2.3424   15.0924  -11.7154 C   0  0  0  0  0  0  0  0  0  0  0  0
   -1.5130   13.9202  -11.2644 C   0  0  0  0  0  0  0  0  0  0  0  0
   -2.1771   12.5990  -11.6641 C   0  0  0  0  0  0  0  0  0  0  0  0
   -3.6239   12.4833  -11.0641 C   0  0  0  0  0  0  0  0  0  0  0  0
   -6.0088   12.2426   -9.8942 H   0  0  0  0  0  0  0  0  0  0  0  0
   -8.1640   10.1218  -13.9067 H   0  0  0  0  0  0  0  0  0  0  0  0
   -6.8867   12.2580  -14.1015 H   0  0  0  0  0  0  0  0  0  0  0  0
   -6.6760    9.1751   -9.6358 H   0  0  0  0  0  0  0  0  0  0  0  0
   -8.0354    9.5960   -7.2566 H   0  0  0  0  0  0  0  0  0  0  0  0
   -6.7459   12.3157   -6.9160 H   0  0  0  0  0  0  0  0  0  0  0  0
   -4.5140   13.2889   -6.4783 H   0  0  0  0  0  0  0  0  0  0  0  0
   -2.6697    9.7519   -8.0446 H   0  0  0  0  0  0  0  0  0  0  0  0
   -4.8638    8.8212   -7.4881 H   0  0  0  0  0  0  0  0  0  0  0  0
   -4.8562    9.5510   -9.1294 H   0  0  0  0  0  0  0  0  0  0  0  0
   -2.4165   14.2253   -6.2216 H   0  0  0  0  0  0  0  0  0  0  0  0
   -0.6572   10.5584   -7.5683 H   0  0  0  0  0  0  0  0  0  0  0  0
    1.4836   14.2826   -6.0565 H   0  0  0  0  0  0  0  0  0  0  0  0
    0.2413   15.4403   -6.6420 H   0  0  0  0  0  0  0  0  0  0  0  0
    0.1739   14.8277   -4.9547 H   0  0  0  0  0  0  0  0  0  0  0  0
   -4.3489   15.8104  -11.7333 H   0  0  0  0  0  0  0  0  0  0  0  0
   -3.7594   15.2509  -10.1314 H   0  0  0  0  0  0  0  0  0  0  0  0
   -2.3623   15.1046  -12.8152 H   0  0  0  0  0  0  0  0  0  0  0  0
   -1.8724   16.0161  -11.3469 H   0  0  0  0  0  0  0  0  0  0  0  0
   -0.5191   13.9803  -11.7319 H   0  0  0  0  0  0  0  0  0  0  0  0
   -1.4061   13.9537  -10.1701 H   0  0  0  0  0  0  0  0  0  0  0  0
   -2.2388   12.5464  -12.7611 H   0  0  0  0  0  0  0  0  0  0  0  0
   -1.5665   11.7637  -11.2908 H   0  0  0  0  0  0  0  0  0  0  0  0
   -3.5680   12.3989   -9.9688 H   0  0  0  0  0  0  0  0  0  0  0  0
   -4.1284   11.5964  -11.4749 H   0  0  0  0  0  0  0  0  0  0  0  0
  1  2  2  0  0  0  0
  1  4  1  0  0  0  0
  1 12  1  0  0  0  0
  2  6  1  0  0  0  0
  3  4  2  0  0  0  0
  3  5  1  0  0  0  0
  5  6  2  0  0  0  0
  5  9  1  0  0  0  0
  6  7  1  0  0  0  0
  7  8  1  0  0  0  0
  7 10  1  0  0  0  0
  8  9  2  0  0  0  0
 10 14  2  3  0  0  0
 11 12  1  0  0  0  0
 11 26  1  0  0  0  0
 11 30  1  0  0  0  0
 12 13  2  0  0  0  0
 14 15  1  0  0  0  0
 14 19  1  0  0  0  0
 15 16  2  0  0  0  0
 16 17  1  0  0  0  0
 17 18  2  0  0  0  0
 17 20  1  0  0  0  0
 18 19  1  0  0  0  0
 20 21  2  0  0  0  0
 20 24  1  0  0  0  0
 21 22  1  0  0  0  0
 22 23  1  0  0  0  0
 22 25  1  0  0  0  0
 23 24  2  0  0  0  0
 26 27  1  0  0  0  0
 27 28  1  0  0  0  0
 28 29  1  0  0  0  0
 29 30  1  0  0  0  0
  2 31  1  0  0  0  0
  3 32  1  0  0  0  0
  4 33  1  0  0  0  0
  7 34  1  0  0  0  0
 10 35  1  0  0  0  0
 15 36  1  0  0  0  0
 16 37  1  0  0  0  0
 18 38  1  0  0  0  0
 19 39  1  0  0  0  0
 19 40  1  0  0  0  0
 21 41  1  0  0  0  0
 24 42  1  0  0  0  0
 25 43  1  0  0  0  0
 25 44  1  0  0  0  0
 25 45  1  0  0  0  0
 26 46  1  0  0  0  0
 26 47  1  0  0  0  0
 27 48  1  0  0  0  0
 27 49  1  0  0  0  0
 28 50  1  0  0  0  0
 28 51  1  0  0  0  0
 29 52  1  0  0  0  0
 29 53  1  0  0  0  0
 30 54  1  0  0  0  0
 30 55  1  0  0  0  0
M  END
> <Name>
41

> <IC50[uM]>
0.006

$$$$
41
  -OEChem-05192314333D
 Structure written by MMmdl.
 55 59  0     0  0  0  0  0  0999 V2000
   -6.3365   12.3514  -12.0169 C   0  0  0  0  0  0  0  0  0  0  0  0
   -6.4737   11.7818  -10.7533 C   0  0  0  0  0  0  0  0  0  0  0  0
   -7.7043   10.5771  -13.0419 C   0  0  0  0  0  0  0  0  0  0  0  0
   -6.9700   11.7706  -13.1413 C   0  0  0  0  0  0  0  0  0  0  0  0
   -7.8117   10.0060  -11.7679 C   0  0  0  0  0  0  0  0  0  0  0  0
   -7.2142   10.6153  -10.6085 C   0  0  0  0  0  0  0  0  0  0  0  0
   -7.6079    9.7475   -9.5180 C   0  0  0  0  0  0  0  0  0  0  0  0
   -8.2848    8.7450   -9.9896 N   0  0  0  0  0  0  0  0  0  0  0  0
   -8.4180    8.8715  -11.3012 N   0  0  0  0  0  0  0  0  0  0  0  0
   -7.3345    9.8877   -8.0248 C   0  0  0  0  0  0  0  0  0  0  0  0
   -4.3847   13.7235  -11.4418 N   0  0  0  0  0  0  0  0  0  0  0  0
   -5.5533   13.6485  -12.1711 C   0  0  0  0  0  0  0  0  0  0  0  0
   -5.9795   14.5724  -12.8566 O   0  0  0  0  0  0  0  0  0  0  0  0
   -5.9627   10.4850   -7.7364 C   0  0  0  0  0  0  0  0  0  0  0  0
   -5.8552   11.7581   -7.1652 C   0  0  0  0  0  0  0  0  0  0  0  0
   -4.5966   12.3060   -6.9181 C   0  0  0  0  0  0  0  0  0  0  0  0
   -3.4424   11.5865   -7.2381 C   0  0  0  0  0  0  0  0  0  0  0  0
   -3.5593   10.3139   -7.8013 C   0  0  0  0  0  0  0  0  0  0  0  0
   -4.8122    9.7647   -8.0513 C   0  0  0  0  0  0  0  0  0  0  0  0
   -2.0942   12.1662   -6.9781 C   0  0  0  0  0  0  0  0  0  0  0  0
   -1.7414   13.4274   -6.4937 C   0  0  0  0  0  0  0  0  0  0  0  0
   -0.4089   13.4560   -6.4321 N   0  0  0  0  0  0  0  0  0  0  0  0
    0.1814   12.3590   -6.8068 N   0  0  0  0  0  0  0  0  0  0  0  0
   -0.8029   11.5527   -7.1728 C   0  0  0  0  0  0  0  0  0  0  0  0
    0.4236   14.5699   -5.9945 C   0  0  0  0  0  0  0  0  0  0  0  0
   -3.7594   15.0422  -11.2114 C   0  0  0  0  0  0  0  0  0  0  0  0
   -2.3424   15.0924  -11.7154 C   0  0  0  0  0  0  0  0  0  0  0  0
   -1.5130   13.9202  -11.2644 C   0  0  0  0  0  0  0  0  0  0  0  0
   -2.1771   12.5990  -11.6641 C   0  0  0  0  0  0  0  0  0  0  0  0
   -3.6239   12.4833  -11.0641 C   0  0  0  0  0  0  0  0  0  0  0  0
   -6.0088   12.2426   -9.8942 H   0  0  0  0  0  0  0  0  0  0  0  0
   -8.1640   10.1218  -13.9067 H   0  0  0  0  0  0  0  0  0  0  0  0
   -6.8867   12.2580  -14.1015 H   0  0  0  0  0  0  0  0  0  0  0  0
   -8.0354    9.5960   -7.2566 H   0  0  0  0  0  0  0  0  0  0  0  0
   -6.7459   12.3157   -6.9160 H   0  0  0  0  0  0  0  0  0  0  0  0
   -4.5467   13.2507   -7.4793 H   0  0  0  0  0  0  0  0  0  0  0  0
   -4.5493   12.5173   -5.8396 H   0  0  0  0  0  0  0  0  0  0  0  0
   -2.6697    9.7519   -8.0446 H   0  0  0  0  0  0  0  0  0  0  0  0
   -4.8638    8.8212   -7.4881 H   0  0  0  0  0  0  0  0  0  0  0  0
   -4.8562    9.5510   -9.1294 H   0  0  0  0  0  0  0  0  0  0  0  0
   -2.4165   14.2253   -6.2216 H   0  0  0  0  0  0  0  0  0  0  0  0
   -0.6572   10.5584   -7.5683 H   0  0  0  0  0  0  0  0  0  0  0  0
    1.4836   14.2826   -6.0565 H   0  0  0  0  0  0  0  0  0  0  0  0
    0.2413   15.4403   -6.6420 H   0  0  0  0  0  0  0  0  0  0  0  0
    0.1739   14.8277   -4.9547 H   0  0  0  0  0  0  0  0  0  0  0  0
   -4.3489   15.8104  -11.7333 H   0  0  0  0  0  0  0  0  0  0  0  0
   -3.7594   15.2509  -10.1314 H   0  0  0  0  0  0  0  0  0  0  0  0
   -2.3623   15.1046  -12.8152 H   0  0  0  0  0  0  0  0  0  0  0  0
   -1.8724   16.0161  -11.3469 H   0  0  0  0  0  0  0  0  0  0  0  0
   -0.5191   13.9803  -11.7319 H   0  0  0  0  0  0  0  0  0  0  0  0
   -1.4061   13.9537  -10.1701 H   0  0  0  0  0  0  0  0  0  0  0  0
   -2.2388   12.5464  -12.7611 H   0  0  0  0  0  0  0  0  0  0  0  0
   -1.5665   11.7637  -11.2908 H   0  0  0  0  0  0  0  0  0  0  0  0
   -3.5680   12.3989   -9.9688 H   0  0  0  0  0  0  0  0  0  0  0  0
   -4.1284   11.5964  -11.4749 H   0  0  0  0  0  0  0  0  0  0  0  0
  1  2  2  0  0  0  0
  1  4  1  0  0  0  0
  1 12  1  0  0  0  0
  2  6  1  0  0  0  0
  3  4  2  0  0  0  0
  3  5  1  0  0  0  0
  5  6  2  0  0  0  0
  5  9  1  0  0  0  0
  6  7  1  0  0  0  0
  7  8  1  0  0  0  0
  7 10  2  3  0  0  0
  8  9  2  0  0  0  0
 10 14  1  0  0  0  0
 11 12  1  0  0  0  0
 11 26  1  0  0  0  0
 11 30  1  0  0  0  0
 12 13  2  0  0  0  0
 14 15  2  0  0  0  0
 14 19  1  0  0  0  0
 15 16  1  0  0  0  0
 16 17  1  0  0  0  0
 17 18  2  0  0  0  0
 17 20  1  0  0  0  0
 18 19  1  0  0  0  0
 20 21  2  0  0  0  0
 20 24  1  0  0  0  0
 21 22  1  0  0  0  0
 22 23  1  0  0  0  0
 22 25  1  0  0  0  0
 23 24  2  0  0  0  0
 26 27  1  0  0  0  0
 27 28  1  0  0  0  0
 28 29  1  0  0  0  0
 29 30  1  0  0  0  0
  2 31  1  0  0  0  0
  3 32  1  0  0  0  0
  4 33  1  0  0  0  0
 10 34  1  0  0  0  0
 15 35  1  0  0  0  0
 16 36  1  0  0  0  0
 16 37  1  0  0  0  0
 18 38  1  0  0  0  0
 19 39  1  0  0  0  0
 19 40  1  0  0  0  0
 21 41  1  0  0  0  0
 24 42  1  0  0  0  0
 25 43  1  0  0  0  0
 25 44  1  0  0  0  0
 25 45  1  0  0  0  0
 26 46  1  0  0  0  0
 26 47  1  0  0  0  0
 27 48  1  0  0  0  0
 27 49  1  0  0  0  0
 28 50  1  0  0  0  0
 28 51  1  0  0  0  0
 29 52  1  0  0  0  0
 29 53  1  0  0  0  0
 30 54  1  0  0  0  0
 30 55  1  0  0  0  0
M  END
> <Name>
41

> <IC50[uM]>
0.006

$$$$
41
  -OEChem-05192314333D
 Structure written by MMmdl.
 55 59  0     0  0  0  0  0  0999 V2000
   -6.3365   12.3514  -12.0169 C   0  0  0  0  0  0  0  0  0  0  0  0
   -6.4737   11.7818  -10.7533 C   0  0  0  0  0  0  0  0  0  0  0  0
   -7.7043   10.5771  -13.0419 C   0  0  0  0  0  0  0  0  0  0  0  0
   -6.9700   11.7706  -13.1413 C   0  0  0  0  0  0  0  0  0  0  0  0
   -7.8117   10.0060  -11.7679 C   0  0  0  0  0  0  0  0  0  0  0  0
   -7.2142   10.6153  -10.6085 C   0  0  0  0  0  0  0  0  0  0  0  0
   -7.6079    9.7475   -9.5180 C   0  0  0  0  0  0  0  0  0  0  0  0
   -8.2848    8.7450   -9.9896 N   0  0  0  0  0  0  0  0  0  0  0  0
   -8.4180    8.8715  -11.3012 N   0  0  0  0  0  0  0  0  0  0  0  0
   -7.3345    9.8877   -8.0248 C   0  0  0  0  0  0  0  0  0  0  0  0
   -4.3847   13.7235  -11.4418 N   0  0  0  0  0  0  0  0  0  0  0  0
   -5.5533   13.6485  -12.1711 C   0  0  0  0  0  0  0  0  0  0  0  0
   -5.9795   14.5724  -12.8566 O   0  0  0  0  0  0  0  0  0  0  0  0
   -5.9627   10.4850   -7.7364 C   0  0  0  0  0  0  0  0  0  0  0  0
   -5.8552   11.7581   -7.1652 C   0  0  0  0  0  0  0  0  0  0  0  0
   -4.5966   12.3060   -6.9181 C   0  0  0  0  0  0  0  0  0  0  0  0
   -3.4424   11.5865   -7.2381 C   0  0  0  0  0  0  0  0  0  0  0  0
   -3.5593   10.3139   -7.8013 C   0  0  0  0  0  0  0  0  0  0  0  0
   -4.8122    9.7647   -8.0513 C   0  0  0  0  0  0  0  0  0  0  0  0
   -2.0942   12.1662   -6.9781 C   0  0  0  0  0  0  0  0  0  0  0  0
   -1.7414   13.4274   -6.4937 C   0  0  0  0  0  0  0  0  0  0  0  0
   -0.4089   13.4560   -6.4321 N   0  0  0  0  0  0  0  0  0  0  0  0
    0.1814   12.3590   -6.8068 N   0  0  0  0  0  0  0  0  0  0  0  0
   -0.8029   11.5527   -7.1728 C   0  0  0  0  0  0  0  0  0  0  0  0
    0.4236   14.5699   -5.9945 C   0  0  0  0  0  0  0  0  0  0  0  0
   -3.7594   15.0422  -11.2114 C   0  0  0  0  0  0  0  0  0  0  0  0
   -2.3424   15.0924  -11.7154 C   0  0  0  0  0  0  0  0  0  0  0  0
   -1.5130   13.9202  -11.2644 C   0  0  0  0  0  0  0  0  0  0  0  0
   -2.1771   12.5990  -11.6641 C   0  0  0  0  0  0  0  0  0  0  0  0
   -3.6239   12.4833  -11.0641 C   0  0  0  0  0  0  0  0  0  0  0  0
   -6.0088   12.2426   -9.8942 H   0  0  0  0  0  0  0  0  0  0  0  0
   -8.1640   10.1218  -13.9067 H   0  0  0  0  0  0  0  0  0  0  0  0
   -6.8867   12.2580  -14.1015 H   0  0  0  0  0  0  0  0  0  0  0  0
   -8.0354    9.5960   -7.2566 H   0  0  0  0  0  0  0  0  0  0  0  0
   -6.7459   12.3157   -6.9160 H   0  0  0  0  0  0  0  0  0  0  0  0
   -4.5140   13.2889   -6.4783 H   0  0  0  0  0  0  0  0  0  0  0  0
   -3.0314   10.3465   -8.7658 H   0  0  0  0  0  0  0  0  0  0  0  0
   -3.0409    9.6203   -7.1229 H   0  0  0  0  0  0  0  0  0  0  0  0
   -4.8638    8.8212   -7.4881 H   0  0  0  0  0  0  0  0  0  0  0  0
   -4.8562    9.5510   -9.1294 H   0  0  0  0  0  0  0  0  0  0  0  0
   -2.4165   14.2253   -6.2216 H   0  0  0  0  0  0  0  0  0  0  0  0
   -0.6572   10.5584   -7.5683 H   0  0  0  0  0  0  0  0  0  0  0  0
    1.4836   14.2826   -6.0565 H   0  0  0  0  0  0  0  0  0  0  0  0
    0.2413   15.4403   -6.6420 H   0  0  0  0  0  0  0  0  0  0  0  0
    0.1739   14.8277   -4.9547 H   0  0  0  0  0  0  0  0  0  0  0  0
   -4.3489   15.8104  -11.7333 H   0  0  0  0  0  0  0  0  0  0  0  0
   -3.7594   15.2509  -10.1314 H   0  0  0  0  0  0  0  0  0  0  0  0
   -2.3623   15.1046  -12.8152 H   0  0  0  0  0  0  0  0  0  0  0  0
   -1.8724   16.0161  -11.3469 H   0  0  0  0  0  0  0  0  0  0  0  0
   -0.5191   13.9803  -11.7319 H   0  0  0  0  0  0  0  0  0  0  0  0
   -1.4061   13.9537  -10.1701 H   0  0  0  0  0  0  0  0  0  0  0  0
   -2.2388   12.5464  -12.7611 H   0  0  0  0  0  0  0  0  0  0  0  0
   -1.5665   11.7637  -11.2908 H   0  0  0  0  0  0  0  0  0  0  0  0
   -3.5680   12.3989   -9.9688 H   0  0  0  0  0  0  0  0  0  0  0  0
   -4.1284   11.5964  -11.4749 H   0  0  0  0  0  0  0  0  0  0  0  0
  1  2  2  0  0  0  0
  1  4  1  0  0  0  0
  1 12  1  0  0  0  0
  2  6  1  0  0  0  0
  3  4  2  0  0  0  0
  3  5  1  0  0  0  0
  5  6  2  0  0  0  0
  5  9  1  0  0  0  0
  6  7  1  0  0  0  0
  7  8  1  0  0  0  0
  7 10  2  3  0  0  0
  8  9  2  0  0  0  0
 10 14  1  0  0  0  0
 11 12  1  0  0  0  0
 11 26  1  0  0  0  0
 11 30  1  0  0  0  0
 12 13  2  0  0  0  0
 14 15  2  0  0  0  0
 14 19  1  0  0  0  0
 15 16  1  0  0  0  0
 16 17  2  0  0  0  0
 17 18  1  0  0  0  0
 17 20  1  0  0  0  0
 18 19  1  0  0  0  0
 20 21  2  0  0  0  0
 20 24  1  0  0  0  0
 21 22  1  0  0  0  0
 22 23  1  0  0  0  0
 22 25  1  0  0  0  0
 23 24  2  0  0  0  0
 26 27  1  0  0  0  0
 27 28  1  0  0  0  0
 28 29  1  0  0  0  0
 29 30  1  0  0  0  0
  2 31  1  0  0  0  0
  3 32  1  0  0  0  0
  4 33  1  0  0  0  0
 10 34  1  0  0  0  0
 15 35  1  0  0  0  0
 16 36  1  0  0  0  0
 18 37  1  0  0  0  0
 18 38  1  0  0  0  0
 19 39  1  0  0  0  0
 19 40  1  0  0  0  0
 21 41  1  0  0  0  0
 24 42  1  0  0  0  0
 25 43  1  0  0  0  0
 25 44  1  0  0  0  0
 25 45  1  0  0  0  0
 26 46  1  0  0  0  0
 26 47  1  0  0  0  0
 27 48  1  0  0  0  0
 27 49  1  0  0  0  0
 28 50  1  0  0  0  0
 28 51  1  0  0  0  0
 29 52  1  0  0  0  0
 29 53  1  0  0  0  0
 30 54  1  0  0  0  0
 30 55  1  0  0  0  0
M  END
> <Name>
41

> <IC50[uM]>
0.006

$$$$
41
  -OEChem-05192314333D
 Structure written by MMmdl.
 55 59  0     1  0  0  0  0  0999 V2000
   -6.3365   12.3514  -12.0169 C   0  0  3  0  0  0  0  0  0  0  0  0
   -6.4737   11.7818  -10.7533 C   0  0  0  0  0  0  0  0  0  0  0  0
   -7.7043   10.5771  -13.0419 C   0  0  0  0  0  0  0  0  0  0  0  0
   -6.9700   11.7706  -13.1413 C   0  0  0  0  0  0  0  0  0  0  0  0
   -7.8117   10.0060  -11.7679 C   0  0  0  0  0  0  0  0  0  0  0  0
   -7.2142   10.6153  -10.6085 C   0  0  0  0  0  0  0  0  0  0  0  0
   -7.6079    9.7475   -9.5180 C   0  0  0  0  0  0  0  0  0  0  0  0
   -8.2848    8.7450   -9.9896 N   0  0  0  0  0  0  0  0  0  0  0  0
   -8.4180    8.8715  -11.3012 N   0  0  0  0  0  0  0  0  0  0  0  0
   -7.3345    9.8877   -8.0248 C   0  0  0  0  0  0  0  0  0  0  0  0
   -4.3847   13.7235  -11.4418 N   0  0  0  0  0  0  0  0  0  0  0  0
   -5.5533   13.6485  -12.1711 C   0  0  0  0  0  0  0  0  0  0  0  0
   -5.9795   14.5724  -12.8566 O   0  0  0  0  0  0  0  0  0  0  0  0
   -5.9627   10.4850   -7.7364 C   0  0  0  0  0  0  0  0  0  0  0  0
   -5.8552   11.7581   -7.1652 C   0  0  0  0  0  0  0  0  0  0  0  0
   -4.5966   12.3060   -6.9181 C   0  0  0  0  0  0  0  0  0  0  0  0
   -3.4424   11.5865   -7.2381 C   0  0  0  0  0  0  0  0  0  0  0  0
   -3.5593   10.3139   -7.8013 C   0  0  0  0  0  0  0  0  0  0  0  0
   -4.8122    9.7647   -8.0513 C   0  0  0  0  0  0  0  0  0  0  0  0
   -2.0942   12.1662   -6.9781 C   0  0  0  0  0  0  0  0  0  0  0  0
   -1.7414   13.4274   -6.4937 C   0  0  0  0  0  0  0  0  0  0  0  0
   -0.4089   13.4560   -6.4321 N   0  0  0  0  0  0  0  0  0  0  0  0
    0.1814   12.3590   -6.8068 N   0  0  0  0  0  0  0  0  0  0  0  0
   -0.8029   11.5527   -7.1728 C   0  0  0  0  0  0  0  0  0  0  0  0
    0.4236   14.5699   -5.9945 C   0  0  0  0  0  0  0  0  0  0  0  0
   -3.7594   15.0422  -11.2114 C   0  0  0  0  0  0  0  0  0  0  0  0
   -2.3424   15.0924  -11.7154 C   0  0  0  0  0  0  0  0  0  0  0  0
   -1.5130   13.9202  -11.2644 C   0  0  0  0  0  0  0  0  0  0  0  0
   -2.1771   12.5990  -11.6641 C   0  0  0  0  0  0  0  0  0  0  0  0
   -3.6239   12.4833  -11.0641 C   0  0  0  0  0  0  0  0  0  0  0  0
   -5.4270   11.7615  -12.2032 H   0  0  0  0  0  0  0  0  0  0  0  0
   -5.4592   11.5650  -10.3875 H   0  0  0  0  0  0  0  0  0  0  0  0
   -6.9415   12.5405  -10.1087 H   0  0  0  0  0  0  0  0  0  0  0  0
   -8.1640   10.1218  -13.9067 H   0  0  0  0  0  0  0  0  0  0  0  0
   -6.8867   12.2580  -14.1015 H   0  0  0  0  0  0  0  0  0  0  0  0
   -8.0354    9.5960   -7.2566 H   0  0  0  0  0  0  0  0  0  0  0  0
   -6.7459   12.3157   -6.9160 H   0  0  0  0  0  0  0  0  0  0  0  0
   -4.5140   13.2889   -6.4783 H   0  0  0  0  0  0  0  0  0  0  0  0
   -2.6697    9.7519   -8.0446 H   0  0  0  0  0  0  0  0  0  0  0  0
   -4.8934    8.7808   -8.4891 H   0  0  0  0  0  0  0  0  0  0  0  0
   -2.4165   14.2253   -6.2216 H   0  0  0  0  0  0  0  0  0  0  0  0
   -0.6572   10.5584   -7.5683 H   0  0  0  0  0  0  0  0  0  0  0  0
    1.4836   14.2826   -6.0565 H   0  0  0  0  0  0  0  0  0  0  0  0
    0.2413   15.4403   -6.6420 H   0  0  0  0  0  0  0  0  0  0  0  0
    0.1739   14.8277   -4.9547 H   0  0  0  0  0  0  0  0  0  0  0  0
   -4.3489   15.8104  -11.7333 H   0  0  0  0  0  0  0  0  0  0  0  0
   -3.7594   15.2509  -10.1314 H   0  0  0  0  0  0  0  0  0  0  0  0
   -2.3623   15.1046  -12.8152 H   0  0  0  0  0  0  0  0  0  0  0  0
   -1.8724   16.0161  -11.3469 H   0  0  0  0  0  0  0  0  0  0  0  0
   -0.5191   13.9803  -11.7319 H   0  0  0  0  0  0  0  0  0  0  0  0
   -1.4061   13.9537  -10.1701 H   0  0  0  0  0  0  0  0  0  0  0  0
   -2.2388   12.5464  -12.7611 H   0  0  0  0  0  0  0  0  0  0  0  0
   -1.5665   11.7637  -11.2908 H   0  0  0  0  0  0  0  0  0  0  0  0
   -3.5680   12.3989   -9.9688 H   0  0  0  0  0  0  0  0  0  0  0  0
   -4.1284   11.5964  -11.4749 H   0  0  0  0  0  0  0  0  0  0  0  0
  1  2  1  0  0  0  0
  1  4  1  0  0  0  0
  1 12  1  0  0  0  0
  2  6  1  0  0  0  0
  3  4  2  0  0  0  0
  3  5  1  0  0  0  0
  5  6  2  0  0  0  0
  5  9  1  0  0  0  0
  6  7  1  0  0  0  0
  7  8  1  0  0  0  0
  7 10  2  3  0  0  0
  8  9  2  0  0  0  0
 10 14  1  0  0  0  0
 11 12  1  0  0  0  0
 11 26  1  0  0  0  0
 11 30  1  0  0  0  0
 12 13  2  0  0  0  0
 14 15  2  0  0  0  0
 14 19  1  0  0  0  0
 15 16  1  0  0  0  0
 16 17  2  0  0  0  0
 17 18  1  0  0  0  0
 17 20  1  0  0  0  0
 18 19  2  0  0  0  0
 20 21  2  0  0  0  0
 20 24  1  0  0  0  0
 21 22  1  0  0  0  0
 22 23  1  0  0  0  0
 22 25  1  0  0  0  0
 23 24  2  0  0  0  0
 26 27  1  0  0  0  0
 27 28  1  0  0  0  0
 28 29  1  0  0  0  0
 29 30  1  0  0  0  0
  1 31  1  0  0  0  0
  2 32  1  0  0  0  0
  2 33  1  0  0  0  0
  3 34  1  0  0  0  0
  4 35  1  0  0  0  0
 10 36  1  0  0  0  0
 15 37  1  0  0  0  0
 16 38  1  0  0  0  0
 18 39  1  0  0  0  0
 19 40  1  0  0  0  0
 21 41  1  0  0  0  0
 24 42  1  0  0  0  0
 25 43  1  0  0  0  0
 25 44  1  0  0  0  0
 25 45  1  0  0  0  0
 26 46  1  0  0  0  0
 26 47  1  0  0  0  0
 27 48  1  0  0  0  0
 27 49  1  0  0  0  0
 28 50  1  0  0  0  0
 28 51  1  0  0  0  0
 29 52  1  0  0  0  0
 29 53  1  0  0  0  0
 30 54  1  0  0  0  0
 30 55  1  0  0  0  0
M  END
> <Name>
41

> <IC50[uM]>
0.006

$$$$
41
  -OEChem-05192314333D
 Structure written by MMmdl.
 55 59  0     1  0  0  0  0  0999 V2000
   -6.3365   12.3514  -12.0169 C   0  0  0  0  0  0  0  0  0  0  0  0
   -6.4737   11.7818  -10.7533 C   0  0  0  0  0  0  0  0  0  0  0  0
   -7.7043   10.5771  -13.0419 C   0  0  0  0  0  0  0  0  0  0  0  0
   -6.9700   11.7706  -13.1413 C   0  0  0  0  0  0  0  0  0  0  0  0
   -7.8117   10.0060  -11.7679 C   0  0  0  0  0  0  0  0  0  0  0  0
   -7.2142   10.6153  -10.6085 C   0  0  3  0  0  0  0  0  0  0  0  0
   -7.6079    9.7475   -9.5180 C   0  0  0  0  0  0  0  0  0  0  0  0
   -8.2848    8.7450   -9.9896 N   0  0  0  0  0  0  0  0  0  0  0  0
   -8.4180    8.8715  -11.3012 N   0  0  0  0  0  0  0  0  0  0  0  0
   -7.3345    9.8877   -8.0248 C   0  0  0  0  0  0  0  0  0  0  0  0
   -4.3847   13.7235  -11.4418 N   0  0  0  0  0  0  0  0  0  0  0  0
   -5.5533   13.6485  -12.1711 C   0  0  0  0  0  0  0  0  0  0  0  0
   -5.9795   14.5724  -12.8566 O   0  0  0  0  0  0  0  0  0  0  0  0
   -5.9627   10.4850   -7.7364 C   0  0  0  0  0  0  0  0  0  0  0  0
   -5.8552   11.7581   -7.1652 C   0  0  0  0  0  0  0  0  0  0  0  0
   -4.5966   12.3060   -6.9181 C   0  0  0  0  0  0  0  0  0  0  0  0
   -3.4424   11.5865   -7.2381 C   0  0  0  0  0  0  0  0  0  0  0  0
   -3.5593   10.3139   -7.8013 C   0  0  0  0  0  0  0  0  0  0  0  0
   -4.8122    9.7647   -8.0513 C   0  0  0  0  0  0  0  0  0  0  0  0
   -2.0942   12.1662   -6.9781 C   0  0  0  0  0  0  0  0  0  0  0  0
   -1.7414   13.4274   -6.4937 C   0  0  0  0  0  0  0  0  0  0  0  0
   -0.4089   13.4560   -6.4321 N   0  0  0  0  0  0  0  0  0  0  0  0
    0.1814   12.3590   -6.8068 N   0  0  0  0  0  0  0  0  0  0  0  0
   -0.8029   11.5527   -7.1728 C   0  0  0  0  0  0  0  0  0  0  0  0
    0.4236   14.5699   -5.9945 C   0  0  0  0  0  0  0  0  0  0  0  0
   -3.7594   15.0422  -11.2114 C   0  0  0  0  0  0  0  0  0  0  0  0
   -2.3424   15.0924  -11.7154 C   0  0  0  0  0  0  0  0  0  0  0  0
   -1.5130   13.9202  -11.2644 C   0  0  0  0  0  0  0  0  0  0  0  0
   -2.1771   12.5990  -11.6641 C   0  0  0  0  0  0  0  0  0  0  0  0
   -3.6239   12.4833  -11.0641 C   0  0  0  0  0  0  0  0  0  0  0  0
   -5.4592   11.5650  -10.3875 H   0  0  0  0  0  0  0  0  0  0  0  0
   -6.9415   12.5405  -10.1087 H   0  0  0  0  0  0  0  0  0  0  0  0
   -8.1640   10.1218  -13.9067 H   0  0  0  0  0  0  0  0  0  0  0  0
   -6.8867   12.2580  -14.1015 H   0  0  0  0  0  0  0  0  0  0  0  0
   -6.3042   10.0161  -10.7598 H   0  0  0  0  0  0  0  0  0  0  0  0
   -8.0354    9.5960   -7.2566 H   0  0  0  0  0  0  0  0  0  0  0  0
   -6.7459   12.3157   -6.9160 H   0  0  0  0  0  0  0  0  0  0  0  0
   -4.5140   13.2889   -6.4783 H   0  0  0  0  0  0  0  0  0  0  0  0
   -2.6697    9.7519   -8.0446 H   0  0  0  0  0  0  0  0  0  0  0  0
   -4.8934    8.7808   -8.4891 H   0  0  0  0  0  0  0  0  0  0  0  0
   -2.4165   14.2253   -6.2216 H   0  0  0  0  0  0  0  0  0  0  0  0
   -0.6572   10.5584   -7.5683 H   0  0  0  0  0  0  0  0  0  0  0  0
    1.4836   14.2826   -6.0565 H   0  0  0  0  0  0  0  0  0  0  0  0
    0.2413   15.4403   -6.6420 H   0  0  0  0  0  0  0  0  0  0  0  0
    0.1739   14.8277   -4.9547 H   0  0  0  0  0  0  0  0  0  0  0  0
   -4.3489   15.8104  -11.7333 H   0  0  0  0  0  0  0  0  0  0  0  0
   -3.7594   15.2509  -10.1314 H   0  0  0  0  0  0  0  0  0  0  0  0
   -2.3623   15.1046  -12.8152 H   0  0  0  0  0  0  0  0  0  0  0  0
   -1.8724   16.0161  -11.3469 H   0  0  0  0  0  0  0  0  0  0  0  0
   -0.5191   13.9803  -11.7319 H   0  0  0  0  0  0  0  0  0  0  0  0
   -1.4061   13.9537  -10.1701 H   0  0  0  0  0  0  0  0  0  0  0  0
   -2.2388   12.5464  -12.7611 H   0  0  0  0  0  0  0  0  0  0  0  0
   -1.5665   11.7637  -11.2908 H   0  0  0  0  0  0  0  0  0  0  0  0
   -3.5680   12.3989   -9.9688 H   0  0  0  0  0  0  0  0  0  0  0  0
   -4.1284   11.5964  -11.4749 H   0  0  0  0  0  0  0  0  0  0  0  0
  1  2  1  0  0  0  0
  1  4  2  0  0  0  0
  1 12  1  0  0  0  0
  2  6  1  0  0  0  0
  3  4  1  0  0  0  0
  3  5  2  0  0  0  0
  5  6  1  0  0  0  0
  5  9  1  0  0  0  0
  6  7  1  0  0  0  0
  7  8  1  0  0  0  0
  7 10  2  3  0  0  0
  8  9  2  0  0  0  0
 10 14  1  0  0  0  0
 11 12  1  0  0  0  0
 11 26  1  0  0  0  0
 11 30  1  0  0  0  0
 12 13  2  0  0  0  0
 14 15  2  0  0  0  0
 14 19  1  0  0  0  0
 15 16  1  0  0  0  0
 16 17  2  0  0  0  0
 17 18  1  0  0  0  0
 17 20  1  0  0  0  0
 18 19  2  0  0  0  0
 20 21  2  0  0  0  0
 20 24  1  0  0  0  0
 21 22  1  0  0  0  0
 22 23  1  0  0  0  0
 22 25  1  0  0  0  0
 23 24  2  0  0  0  0
 26 27  1  0  0  0  0
 27 28  1  0  0  0  0
 28 29  1  0  0  0  0
 29 30  1  0  0  0  0
  2 31  1  0  0  0  0
  2 32  1  0  0  0  0
  3 33  1  0  0  0  0
  4 34  1  0  0  0  0
  6 35  1  0  0  0  0
 10 36  1  0  0  0  0
 15 37  1  0  0  0  0
 16 38  1  0  0  0  0
 18 39  1  0  0  0  0
 19 40  1  0  0  0  0
 21 41  1  0  0  0  0
 24 42  1  0  0  0  0
 25 43  1  0  0  0  0
 25 44  1  0  0  0  0
 25 45  1  0  0  0  0
 26 46  1  0  0  0  0
 26 47  1  0  0  0  0
 27 48  1  0  0  0  0
 27 49  1  0  0  0  0
 28 50  1  0  0  0  0
 28 51  1  0  0  0  0
 29 52  1  0  0  0  0
 29 53  1  0  0  0  0
 30 54  1  0  0  0  0
 30 55  1  0  0  0  0
M  END
> <Name>
41

> <IC50[uM]>
0.006

$$$$
41
  -OEChem-05192314333D
 Structure written by MMmdl.
 55 59  0     0  0  0  0  0  0999 V2000
   -6.3365   12.3514  -12.0169 C   0  0  0  0  0  0  0  0  0  0  0  0
   -6.4737   11.7818  -10.7533 C   0  0  0  0  0  0  0  0  0  0  0  0
   -7.7043   10.5771  -13.0419 C   0  0  0  0  0  0  0  0  0  0  0  0
   -6.9700   11.7706  -13.1413 C   0  0  0  0  0  0  0  0  0  0  0  0
   -7.8117   10.0060  -11.7679 C   0  0  0  0  0  0  0  0  0  0  0  0
   -7.2142   10.6153  -10.6085 C   0  0  0  0  0  0  0  0  0  0  0  0
   -7.6079    9.7475   -9.5180 C   0  0  0  0  0  0  0  0  0  0  0  0
   -8.2848    8.7450   -9.9896 N   0  0  0  0  0  0  0  0  0  0  0  0
   -8.4180    8.8715  -11.3012 N   0  0  0  0  0  0  0  0  0  0  0  0
   -7.3345    9.8877   -8.0248 C   0  0  0  0  0  0  0  0  0  0  0  0
   -4.3847   13.7235  -11.4418 N   0  0  0  0  0  0  0  0  0  0  0  0
   -5.5533   13.6485  -12.1711 C   0  0  0  0  0  0  0  0  0  0  0  0
   -5.9795   14.5724  -12.8566 O   0  0  0  0  0  0  0  0  0  0  0  0
   -5.9627   10.4850   -7.7364 C   0  0  0  0  0  0  0  0  0  0  0  0
   -5.8552   11.7581   -7.1652 C   0  0  0  0  0  0  0  0  0  0  0  0
   -4.5966   12.3060   -6.9181 C   0  0  0  0  0  0  0  0  0  0  0  0
   -3.4424   11.5865   -7.2381 C   0  0  0  0  0  0  0  0  0  0  0  0
   -3.5593   10.3139   -7.8013 C   0  0  0  0  0  0  0  0  0  0  0  0
   -4.8122    9.7647   -8.0513 C   0  0  0  0  0  0  0  0  0  0  0  0
   -2.0942   12.1662   -6.9781 C   0  0  0  0  0  0  0  0  0  0  0  0
   -1.7414   13.4274   -6.4937 C   0  0  0  0  0  0  0  0  0  0  0  0
   -0.4089   13.4560   -6.4321 N   0  0  0  0  0  0  0  0  0  0  0  0
    0.1814   12.3590   -6.8068 N   0  0  0  0  0  0  0  0  0  0  0  0
   -0.8029   11.5527   -7.1728 C   0  0  0  0  0  0  0  0  0  0  0  0
    0.4236   14.5699   -5.9945 C   0  0  0  0  0  0  0  0  0  0  0  0
   -3.7594   15.0422  -11.2114 C   0  0  0  0  0  0  0  0  0  0  0  0
   -2.3424   15.0924  -11.7154 C   0  0  0  0  0  0  0  0  0  0  0  0
   -1.5130   13.9202  -11.2644 C   0  0  0  0  0  0  0  0  0  0  0  0
   -2.1771   12.5990  -11.6641 C   0  0  0  0  0  0  0  0  0  0  0  0
   -3.6239   12.4833  -11.0641 C   0  0  0  0  0  0  0  0  0  0  0  0
   -5.4592   11.5650  -10.3875 H   0  0  0  0  0  0  0  0  0  0  0  0
   -6.9415   12.5405  -10.1087 H   0  0  0  0  0  0  0  0  0  0  0  0
   -8.7234   10.7825  -13.4015 H   0  0  0  0  0  0  0  0  0  0  0  0
   -7.2258    9.8363  -13.6994 H   0  0  0  0  0  0  0  0  0  0  0  0
   -6.8867   12.2580  -14.1015 H   0  0  0  0  0  0  0  0  0  0  0  0
   -8.0354    9.5960   -7.2566 H   0  0  0  0  0  0  0  0  0  0  0  0
   -6.7459   12.3157   -6.9160 H   0  0  0  0  0  0  0  0  0  0  0  0
   -4.5140   13.2889   -6.4783 H   0  0  0  0  0  0  0  0  0  0  0  0
   -2.6697    9.7519   -8.0446 H   0  0  0  0  0  0  0  0  0  0  0  0
   -4.8934    8.7808   -8.4891 H   0  0  0  0  0  0  0  0  0  0  0  0
   -2.4165   14.2253   -6.2216 H   0  0  0  0  0  0  0  0  0  0  0  0
   -0.6572   10.5584   -7.5683 H   0  0  0  0  0  0  0  0  0  0  0  0
    1.4836   14.2826   -6.0565 H   0  0  0  0  0  0  0  0  0  0  0  0
    0.2413   15.4403   -6.6420 H   0  0  0  0  0  0  0  0  0  0  0  0
    0.1739   14.8277   -4.9547 H   0  0  0  0  0  0  0  0  0  0  0  0
   -4.3489   15.8104  -11.7333 H   0  0  0  0  0  0  0  0  0  0  0  0
   -3.7594   15.2509  -10.1314 H   0  0  0  0  0  0  0  0  0  0  0  0
   -2.3623   15.1046  -12.8152 H   0  0  0  0  0  0  0  0  0  0  0  0
   -1.8724   16.0161  -11.3469 H   0  0  0  0  0  0  0  0  0  0  0  0
   -0.5191   13.9803  -11.7319 H   0  0  0  0  0  0  0  0  0  0  0  0
   -1.4061   13.9537  -10.1701 H   0  0  0  0  0  0  0  0  0  0  0  0
   -2.2388   12.5464  -12.7611 H   0  0  0  0  0  0  0  0  0  0  0  0
   -1.5665   11.7637  -11.2908 H   0  0  0  0  0  0  0  0  0  0  0  0
   -3.5680   12.3989   -9.9688 H   0  0  0  0  0  0  0  0  0  0  0  0
   -4.1284   11.5964  -11.4749 H   0  0  0  0  0  0  0  0  0  0  0  0
  1  2  1  0  0  0  0
  1  4  2  0  0  0  0
  1 12  1  0  0  0  0
  2  6  1  0  0  0  0
  3  4  1  0  0  0  0
  3  5  1  0  0  0  0
  5  6  2  0  0  0  0
  5  9  1  0  0  0  0
  6  7  1  0  0  0  0
  7  8  1  0  0  0  0
  7 10  2  3  0  0  0
  8  9  2  0  0  0  0
 10 14  1  0  0  0  0
 11 12  1  0  0  0  0
 11 26  1  0  0  0  0
 11 30  1  0  0  0  0
 12 13  2  0  0  0  0
 14 15  2  0  0  0  0
 14 19  1  0  0  0  0
 15 16  1  0  0  0  0
 16 17  2  0  0  0  0
 17 18  1  0  0  0  0
 17 20  1  0  0  0  0
 18 19  2  0  0  0  0
 20 21  2  0  0  0  0
 20 24  1  0  0  0  0
 21 22  1  0  0  0  0
 22 23  1  0  0  0  0
 22 25  1  0  0  0  0
 23 24  2  0  0  0  0
 26 27  1  0  0  0  0
 27 28  1  0  0  0  0
 28 29  1  0  0  0  0
 29 30  1  0  0  0  0
  2 31  1  0  0  0  0
  2 32  1  0  0  0  0
  3 33  1  0  0  0  0
  3 34  1  0  0  0  0
  4 35  1  0  0  0  0
 10 36  1  0  0  0  0
 15 37  1  0  0  0  0
 16 38  1  0  0  0  0
 18 39  1  0  0  0  0
 19 40  1  0  0  0  0
 21 41  1  0  0  0  0
 24 42  1  0  0  0  0
 25 43  1  0  0  0  0
 25 44  1  0  0  0  0
 25 45  1  0  0  0  0
 26 46  1  0  0  0  0
 26 47  1  0  0  0  0
 27 48  1  0  0  0  0
 27 49  1  0  0  0  0
 28 50  1  0  0  0  0
 28 51  1  0  0  0  0
 29 52  1  0  0  0  0
 29 53  1  0  0  0  0
 30 54  1  0  0  0  0
 30 55  1  0  0  0  0
M  END
> <Name>
41

> <IC50[uM]>
0.006

$$$$
41
  -OEChem-05192314333D
 Structure written by MMmdl.
 55 59  0     1  0  0  0  0  0999 V2000
   -6.3365   12.3514  -12.0169 C   0  0  0  0  0  0  0  0  0  0  0  0
   -6.4737   11.7818  -10.7533 C   0  0  0  0  0  0  0  0  0  0  0  0
   -7.7043   10.5771  -13.0419 C   0  0  0  0  0  0  0  0  0  0  0  0
   -6.9700   11.7706  -13.1413 C   0  0  0  0  0  0  0  0  0  0  0  0
   -7.8117   10.0060  -11.7679 C   0  0  3  0  0  0  0  0  0  0  0  0
   -7.2142   10.6153  -10.6085 C   0  0  0  0  0  0  0  0  0  0  0  0
   -7.6079    9.7475   -9.5180 C   0  0  0  0  0  0  0  0  0  0  0  0
   -8.2848    8.7450   -9.9896 N   0  0  0  0  0  0  0  0  0  0  0  0
   -8.4180    8.8715  -11.3012 N   0  0  0  0  0  0  0  0  0  0  0  0
   -7.3345    9.8877   -8.0248 C   0  0  0  0  0  0  0  0  0  0  0  0
   -4.3847   13.7235  -11.4418 N   0  0  0  0  0  0  0  0  0  0  0  0
   -5.5533   13.6485  -12.1711 C   0  0  0  0  0  0  0  0  0  0  0  0
   -5.9795   14.5724  -12.8566 O   0  0  0  0  0  0  0  0  0  0  0  0
   -5.9627   10.4850   -7.7364 C   0  0  0  0  0  0  0  0  0  0  0  0
   -5.8552   11.7581   -7.1652 C   0  0  0  0  0  0  0  0  0  0  0  0
   -4.5966   12.3060   -6.9181 C   0  0  0  0  0  0  0  0  0  0  0  0
   -3.4424   11.5865   -7.2381 C   0  0  0  0  0  0  0  0  0  0  0  0
   -3.5593   10.3139   -7.8013 C   0  0  0  0  0  0  0  0  0  0  0  0
   -4.8122    9.7647   -8.0513 C   0  0  0  0  0  0  0  0  0  0  0  0
   -2.0942   12.1662   -6.9781 C   0  0  0  0  0  0  0  0  0  0  0  0
   -1.7414   13.4274   -6.4937 C   0  0  0  0  0  0  0  0  0  0  0  0
   -0.4089   13.4560   -6.4321 N   0  0  0  0  0  0  0  0  0  0  0  0
    0.1814   12.3590   -6.8068 N   0  0  0  0  0  0  0  0  0  0  0  0
   -0.8029   11.5527   -7.1728 C   0  0  0  0  0  0  0  0  0  0  0  0
    0.4236   14.5699   -5.9945 C   0  0  0  0  0  0  0  0  0  0  0  0
   -3.7594   15.0422  -11.2114 C   0  0  0  0  0  0  0  0  0  0  0  0
   -2.3424   15.0924  -11.7154 C   0  0  0  0  0  0  0  0  0  0  0  0
   -1.5130   13.9202  -11.2644 C   0  0  0  0  0  0  0  0  0  0  0  0
   -2.1771   12.5990  -11.6641 C   0  0  0  0  0  0  0  0  0  0  0  0
   -3.6239   12.4833  -11.0641 C   0  0  0  0  0  0  0  0  0  0  0  0
   -6.0088   12.2426   -9.8942 H   0  0  0  0  0  0  0  0  0  0  0  0
   -8.1640   10.1218  -13.9067 H   0  0  0  0  0  0  0  0  0  0  0  0
   -6.8867   12.2580  -14.1015 H   0  0  0  0  0  0  0  0  0  0  0  0
   -8.7368   10.5741  -11.5905 H   0  0  0  0  0  0  0  0  0  0  0  0
   -8.1030   10.5405   -7.5852 H   0  0  0  0  0  0  0  0  0  0  0  0
   -7.3903    8.8919   -7.5609 H   0  0  0  0  0  0  0  0  0  0  0  0
   -6.7459   12.3157   -6.9160 H   0  0  0  0  0  0  0  0  0  0  0  0
   -4.5140   13.2889   -6.4783 H   0  0  0  0  0  0  0  0  0  0  0  0
   -2.6697    9.7519   -8.0446 H   0  0  0  0  0  0  0  0  0  0  0  0
   -4.8934    8.7808   -8.4891 H   0  0  0  0  0  0  0  0  0  0  0  0
   -2.4165   14.2253   -6.2216 H   0  0  0  0  0  0  0  0  0  0  0  0
   -0.6572   10.5584   -7.5683 H   0  0  0  0  0  0  0  0  0  0  0  0
    1.4836   14.2826   -6.0565 H   0  0  0  0  0  0  0  0  0  0  0  0
    0.2413   15.4403   -6.6420 H   0  0  0  0  0  0  0  0  0  0  0  0
    0.1739   14.8277   -4.9547 H   0  0  0  0  0  0  0  0  0  0  0  0
   -4.3489   15.8104  -11.7333 H   0  0  0  0  0  0  0  0  0  0  0  0
   -3.7594   15.2509  -10.1314 H   0  0  0  0  0  0  0  0  0  0  0  0
   -2.3623   15.1046  -12.8152 H   0  0  0  0  0  0  0  0  0  0  0  0
   -1.8724   16.0161  -11.3469 H   0  0  0  0  0  0  0  0  0  0  0  0
   -0.5191   13.9803  -11.7319 H   0  0  0  0  0  0  0  0  0  0  0  0
   -1.4061   13.9537  -10.1701 H   0  0  0  0  0  0  0  0  0  0  0  0
   -2.2388   12.5464  -12.7611 H   0  0  0  0  0  0  0  0  0  0  0  0
   -1.5665   11.7637  -11.2908 H   0  0  0  0  0  0  0  0  0  0  0  0
   -3.5680   12.3989   -9.9688 H   0  0  0  0  0  0  0  0  0  0  0  0
   -4.1284   11.5964  -11.4749 H   0  0  0  0  0  0  0  0  0  0  0  0
  1  2  2  0  0  0  0
  1  4  1  0  0  0  0
  1 12  1  0  0  0  0
  2  6  1  0  0  0  0
  3  4  2  0  0  0  0
  3  5  1  0  0  0  0
  5  6  1  0  0  0  0
  5  9  1  0  0  0  0
  6  7  2  0  0  0  0
  7  8  1  0  0  0  0
  7 10  1  0  0  0  0
  8  9  2  0  0  0  0
 10 14  1  0  0  0  0
 11 12  1  0  0  0  0
 11 26  1  0  0  0  0
 11 30  1  0  0  0  0
 12 13  2  0  0  0  0
 14 15  2  0  0  0  0
 14 19  1  0  0  0  0
 15 16  1  0  0  0  0
 16 17  2  0  0  0  0
 17 18  1  0  0  0  0
 17 20  1  0  0  0  0
 18 19  2  0  0  0  0
 20 21  2  0  0  0  0
 20 24  1  0  0  0  0
 21 22  1  0  0  0  0
 22 23  1  0  0  0  0
 22 25  1  0  0  0  0
 23 24  2  0  0  0  0
 26 27  1  0  0  0  0
 27 28  1  0  0  0  0
 28 29  1  0  0  0  0
 29 30  1  0  0  0  0
  2 31  1  0  0  0  0
  3 32  1  0  0  0  0
  4 33  1  0  0  0  0
  5 34  1  0  0  0  0
 10 35  1  0  0  0  0
 10 36  1  0  0  0  0
 15 37  1  0  0  0  0
 16 38  1  0  0  0  0
 18 39  1  0  0  0  0
 19 40  1  0  0  0  0
 21 41  1  0  0  0  0
 24 42  1  0  0  0  0
 25 43  1  0  0  0  0
 25 44  1  0  0  0  0
 25 45  1  0  0  0  0
 26 46  1  0  0  0  0
 26 47  1  0  0  0  0
 27 48  1  0  0  0  0
 27 49  1  0  0  0  0
 28 50  1  0  0  0  0
 28 51  1  0  0  0  0
 29 52  1  0  0  0  0
 29 53  1  0  0  0  0
 30 54  1  0  0  0  0
 30 55  1  0  0  0  0
M  END
> <Name>
41

> <IC50[uM]>
0.006

$$$$
41
  -OEChem-05192314333D
 Structure written by MMmdl.
 55 59  0     0  0  0  0  0  0999 V2000
   -6.3365   12.3514  -12.0169 C   0  0  0  0  0  0  0  0  0  0  0  0
   -6.4737   11.7818  -10.7533 C   0  0  0  0  0  0  0  0  0  0  0  0
   -7.7043   10.5771  -13.0419 C   0  0  0  0  0  0  0  0  0  0  0  0
   -6.9700   11.7706  -13.1413 C   0  0  0  0  0  0  0  0  0  0  0  0
   -7.8117   10.0060  -11.7679 C   0  0  0  0  0  0  0  0  0  0  0  0
   -7.2142   10.6153  -10.6085 C   0  0  0  0  0  0  0  0  0  0  0  0
   -7.6079    9.7475   -9.5180 C   0  0  0  0  0  0  0  0  0  0  0  0
   -8.2848    8.7450   -9.9896 N   0  0  0  0  0  0  0  0  0  0  0  0
   -8.4180    8.8715  -11.3012 N   0  0  0  0  0  0  0  0  0  0  0  0
   -7.3345    9.8877   -8.0248 C   0  0  0  0  0  0  0  0  0  0  0  0
   -4.3847   13.7235  -11.4418 N   0  0  0  0  0  0  0  0  0  0  0  0
   -5.5533   13.6485  -12.1711 C   0  0  0  0  0  0  0  0  0  0  0  0
   -5.9795   14.5724  -12.8566 O   0  0  0  0  0  0  0  0  0  0  0  0
   -5.9627   10.4850   -7.7364 C   0  0  0  0  0  0  0  0  0  0  0  0
   -5.8552   11.7581   -7.1652 C   0  0  0  0  0  0  0  0  0  0  0  0
   -4.5966   12.3060   -6.9181 C   0  0  0  0  0  0  0  0  0  0  0  0
   -3.4424   11.5865   -7.2381 C   0  0  0  0  0  0  0  0  0  0  0  0
   -3.5593   10.3139   -7.8013 C   0  0  0  0  0  0  0  0  0  0  0  0
   -4.8122    9.7647   -8.0513 C   0  0  0  0  0  0  0  0  0  0  0  0
   -2.0942   12.1662   -6.9781 C   0  0  0  0  0  0  0  0  0  0  0  0
   -1.7414   13.4274   -6.4937 C   0  0  0  0  0  0  0  0  0  0  0  0
   -0.4089   13.4560   -6.4321 N   0  0  0  0  0  0  0  0  0  0  0  0
    0.1814   12.3590   -6.8068 N   0  0  0  0  0  0  0  0  0  0  0  0
   -0.8029   11.5527   -7.1728 C   0  0  0  0  0  0  0  0  0  0  0  0
    0.4236   14.5699   -5.9945 C   0  0  0  0  0  0  0  0  0  0  0  0
   -3.7594   15.0422  -11.2114 C   0  0  0  0  0  0  0  0  0  0  0  0
   -2.3424   15.0924  -11.7154 C   0  0  0  0  0  0  0  0  0  0  0  0
   -1.5130   13.9202  -11.2644 C   0  0  0  0  0  0  0  0  0  0  0  0
   -2.1771   12.5990  -11.6641 C   0  0  0  0  0  0  0  0  0  0  0  0
   -3.6239   12.4833  -11.0641 C   0  0  0  0  0  0  0  0  0  0  0  0
   -6.0088   12.2426   -9.8942 H   0  0  0  0  0  0  0  0  0  0  0  0
   -8.1640   10.1218  -13.9067 H   0  0  0  0  0  0  0  0  0  0  0  0
   -7.6647   12.5293  -13.5308 H   0  0  0  0  0  0  0  0  0  0  0  0
   -6.1773   11.5851  -13.8810 H   0  0  0  0  0  0  0  0  0  0  0  0
   -8.1030   10.5405   -7.5852 H   0  0  0  0  0  0  0  0  0  0  0  0
   -7.3903    8.8919   -7.5609 H   0  0  0  0  0  0  0  0  0  0  0  0
   -6.7459   12.3157   -6.9160 H   0  0  0  0  0  0  0  0  0  0  0  0
   -4.5140   13.2889   -6.4783 H   0  0  0  0  0  0  0  0  0  0  0  0
   -2.6697    9.7519   -8.0446 H   0  0  0  0  0  0  0  0  0  0  0  0
   -4.8934    8.7808   -8.4891 H   0  0  0  0  0  0  0  0  0  0  0  0
   -2.4165   14.2253   -6.2216 H   0  0  0  0  0  0  0  0  0  0  0  0
   -0.6572   10.5584   -7.5683 H   0  0  0  0  0  0  0  0  0  0  0  0
    1.4836   14.2826   -6.0565 H   0  0  0  0  0  0  0  0  0  0  0  0
    0.2413   15.4403   -6.6420 H   0  0  0  0  0  0  0  0  0  0  0  0
    0.1739   14.8277   -4.9547 H   0  0  0  0  0  0  0  0  0  0  0  0
   -4.3489   15.8104  -11.7333 H   0  0  0  0  0  0  0  0  0  0  0  0
   -3.7594   15.2509  -10.1314 H   0  0  0  0  0  0  0  0  0  0  0  0
   -2.3623   15.1046  -12.8152 H   0  0  0  0  0  0  0  0  0  0  0  0
   -1.8724   16.0161  -11.3469 H   0  0  0  0  0  0  0  0  0  0  0  0
   -0.5191   13.9803  -11.7319 H   0  0  0  0  0  0  0  0  0  0  0  0
   -1.4061   13.9537  -10.1701 H   0  0  0  0  0  0  0  0  0  0  0  0
   -2.2388   12.5464  -12.7611 H   0  0  0  0  0  0  0  0  0  0  0  0
   -1.5665   11.7637  -11.2908 H   0  0  0  0  0  0  0  0  0  0  0  0
   -3.5680   12.3989   -9.9688 H   0  0  0  0  0  0  0  0  0  0  0  0
   -4.1284   11.5964  -11.4749 H   0  0  0  0  0  0  0  0  0  0  0  0
  1  2  2  0  0  0  0
  1  4  1  0  0  0  0
  1 12  1  0  0  0  0
  2  6  1  0  0  0  0
  3  4  1  0  0  0  0
  3  5  2  0  0  0  0
  5  6  1  0  0  0  0
  5  9  1  0  0  0  0
  6  7  2  0  0  0  0
  7  8  1  0  0  0  0
  7 10  1  0  0  0  0
  8  9  2  0  0  0  0
 10 14  1  0  0  0  0
 11 12  1  0  0  0  0
 11 26  1  0  0  0  0
 11 30  1  0  0  0  0
 12 13  2  0  0  0  0
 14 15  2  0  0  0  0
 14 19  1  0  0  0  0
 15 16  1  0  0  0  0
 16 17  2  0  0  0  0
 17 18  1  0  0  0  0
 17 20  1  0  0  0  0
 18 19  2  0  0  0  0
 20 21  2  0  0  0  0
 20 24  1  0  0  0  0
 21 22  1  0  0  0  0
 22 23  1  0  0  0  0
 22 25  1  0  0  0  0
 23 24  2  0  0  0  0
 26 27  1  0  0  0  0
 27 28  1  0  0  0  0
 28 29  1  0  0  0  0
 29 30  1  0  0  0  0
  2 31  1  0  0  0  0
  3 32  1  0  0  0  0
  4 33  1  0  0  0  0
  4 34  1  0  0  0  0
 10 35  1  0  0  0  0
 10 36  1  0  0  0  0
 15 37  1  0  0  0  0
 16 38  1  0  0  0  0
 18 39  1  0  0  0  0
 19 40  1  0  0  0  0
 21 41  1  0  0  0  0
 24 42  1  0  0  0  0
 25 43  1  0  0  0  0
 25 44  1  0  0  0  0
 25 45  1  0  0  0  0
 26 46  1  0  0  0  0
 26 47  1  0  0  0  0
 27 48  1  0  0  0  0
 27 49  1  0  0  0  0
 28 50  1  0  0  0  0
 28 51  1  0  0  0  0
 29 52  1  0  0  0  0
 29 53  1  0  0  0  0
 30 54  1  0  0  0  0
 30 55  1  0  0  0  0
M  END
> <Name>
41

> <IC50[uM]>
0.006

$$$$
41
  -OEChem-05192314333D
 Structure written by MMmdl.
 55 59  0     0  0  0  0  0  0999 V2000
   -6.3365   12.3514  -12.0169 C   0  0  0  0  0  0  0  0  0  0  0  0
   -6.4737   11.7818  -10.7533 C   0  0  0  0  0  0  0  0  0  0  0  0
   -7.7043   10.5771  -13.0419 C   0  0  0  0  0  0  0  0  0  0  0  0
   -6.9700   11.7706  -13.1413 C   0  0  0  0  0  0  0  0  0  0  0  0
   -7.8117   10.0060  -11.7679 C   0  0  0  0  0  0  0  0  0  0  0  0
   -7.2142   10.6153  -10.6085 C   0  0  0  0  0  0  0  0  0  0  0  0
   -7.6079    9.7475   -9.5180 C   0  0  0  0  0  0  0  0  0  0  0  0
   -8.2848    8.7450   -9.9896 N   0  0  0  0  0  0  0  0  0  0  0  0
   -8.4180    8.8715  -11.3012 N   0  0  0  0  0  0  0  0  0  0  0  0
   -7.3345    9.8877   -8.0248 C   0  0  0  0  0  0  0  0  0  0  0  0
   -4.3847   13.7235  -11.4418 N   0  0  0  0  0  0  0  0  0  0  0  0
   -5.5533   13.6485  -12.1711 C   0  0  0  0  0  0  0  0  0  0  0  0
   -5.9795   14.5724  -12.8566 O   0  0  0  0  0  0  0  0  0  0  0  0
   -5.9627   10.4850   -7.7364 C   0  0  0  0  0  0  0  0  0  0  0  0
   -5.8552   11.7581   -7.1652 C   0  0  0  0  0  0  0  0  0  0  0  0
   -4.5966   12.3060   -6.9181 C   0  0  0  0  0  0  0  0  0  0  0  0
   -3.4424   11.5865   -7.2381 C   0  0  0  0  0  0  0  0  0  0  0  0
   -3.5593   10.3139   -7.8013 C   0  0  0  0  0  0  0  0  0  0  0  0
   -4.8122    9.7647   -8.0513 C   0  0  0  0  0  0  0  0  0  0  0  0
   -2.0942   12.1662   -6.9781 C   0  0  0  0  0  0  0  0  0  0  0  0
   -1.7414   13.4274   -6.4937 C   0  0  0  0  0  0  0  0  0  0  0  0
   -0.4089   13.4560   -6.4321 N   0  0  0  0  0  0  0  0  0  0  0  0
    0.1814   12.3590   -6.8068 N   0  0  0  0  0  0  0  0  0  0  0  0
   -0.8029   11.5527   -7.1728 C   0  0  0  0  0  0  0  0  0  0  0  0
    0.4236   14.5699   -5.9945 C   0  0  0  0  0  0  0  0  0  0  0  0
   -3.7594   15.0422  -11.2114 C   0  0  0  0  0  0  0  0  0  0  0  0
   -2.3424   15.0924  -11.7154 C   0  0  0  0  0  0  0  0  0  0  0  0
   -1.5130   13.9202  -11.2644 C   0  0  0  0  0  0  0  0  0  0  0  0
   -2.1771   12.5990  -11.6641 C   0  0  0  0  0  0  0  0  0  0  0  0
   -3.6239   12.4833  -11.0641 C   0  0  0  0  0  0  0  0  0  0  0  0
   -5.4592   11.5650  -10.3875 H   0  0  0  0  0  0  0  0  0  0  0  0
   -6.9415   12.5405  -10.1087 H   0  0  0  0  0  0  0  0  0  0  0  0
   -8.1640   10.1218  -13.9067 H   0  0  0  0  0  0  0  0  0  0  0  0
   -6.8867   12.2580  -14.1015 H   0  0  0  0  0  0  0  0  0  0  0  0
   -8.1030   10.5405   -7.5852 H   0  0  0  0  0  0  0  0  0  0  0  0
   -7.3903    8.8919   -7.5609 H   0  0  0  0  0  0  0  0  0  0  0  0
   -6.7459   12.3157   -6.9160 H   0  0  0  0  0  0  0  0  0  0  0  0
   -4.5140   13.2889   -6.4783 H   0  0  0  0  0  0  0  0  0  0  0  0
   -2.6697    9.7519   -8.0446 H   0  0  0  0  0  0  0  0  0  0  0  0
   -4.8934    8.7808   -8.4891 H   0  0  0  0  0  0  0  0  0  0  0  0
   -2.4165   14.2253   -6.2216 H   0  0  0  0  0  0  0  0  0  0  0  0
   -0.6572   10.5584   -7.5683 H   0  0  0  0  0  0  0  0  0  0  0  0
    1.4836   14.2826   -6.0565 H   0  0  0  0  0  0  0  0  0  0  0  0
    0.2413   15.4403   -6.6420 H   0  0  0  0  0  0  0  0  0  0  0  0
    0.1739   14.8277   -4.9547 H   0  0  0  0  0  0  0  0  0  0  0  0
   -4.3489   15.8104  -11.7333 H   0  0  0  0  0  0  0  0  0  0  0  0
   -3.7594   15.2509  -10.1314 H   0  0  0  0  0  0  0  0  0  0  0  0
   -2.3623   15.1046  -12.8152 H   0  0  0  0  0  0  0  0  0  0  0  0
   -1.8724   16.0161  -11.3469 H   0  0  0  0  0  0  0  0  0  0  0  0
   -0.5191   13.9803  -11.7319 H   0  0  0  0  0  0  0  0  0  0  0  0
   -1.4061   13.9537  -10.1701 H   0  0  0  0  0  0  0  0  0  0  0  0
   -2.2388   12.5464  -12.7611 H   0  0  0  0  0  0  0  0  0  0  0  0
   -1.5665   11.7637  -11.2908 H   0  0  0  0  0  0  0  0  0  0  0  0
   -3.5680   12.3989   -9.9688 H   0  0  0  0  0  0  0  0  0  0  0  0
   -4.1284   11.5964  -11.4749 H   0  0  0  0  0  0  0  0  0  0  0  0
  1  2  1  0  0  0  0
  1  4  2  0  0  0  0
  1 12  1  0  0  0  0
  2  6  1  0  0  0  0
  3  4  1  0  0  0  0
  3  5  2  0  0  0  0
  5  6  1  0  0  0  0
  5  9  1  0  0  0  0
  6  7  2  0  0  0  0
  7  8  1  0  0  0  0
  7 10  1  0  0  0  0
  8  9  2  0  0  0  0
 10 14  1  0  0  0  0
 11 12  1  0  0  0  0
 11 26  1  0  0  0  0
 11 30  1  0  0  0  0
 12 13  2  0  0  0  0
 14 15  2  0  0  0  0
 14 19  1  0  0  0  0
 15 16  1  0  0  0  0
 16 17  2  0  0  0  0
 17 18  1  0  0  0  0
 17 20  1  0  0  0  0
 18 19  2  0  0  0  0
 20 21  2  0  0  0  0
 20 24  1  0  0  0  0
 21 22  1  0  0  0  0
 22 23  1  0  0  0  0
 22 25  1  0  0  0  0
 23 24  2  0  0  0  0
 26 27  1  0  0  0  0
 27 28  1  0  0  0  0
 28 29  1  0  0  0  0
 29 30  1  0  0  0  0
  2 31  1  0  0  0  0
  2 32  1  0  0  0  0
  3 33  1  0  0  0  0
  4 34  1  0  0  0  0
 10 35  1  0  0  0  0
 10 36  1  0  0  0  0
 15 37  1  0  0  0  0
 16 38  1  0  0  0  0
 18 39  1  0  0  0  0
 19 40  1  0  0  0  0
 21 41  1  0  0  0  0
 24 42  1  0  0  0  0
 25 43  1  0  0  0  0
 25 44  1  0  0  0  0
 25 45  1  0  0  0  0
 26 46  1  0  0  0  0
 26 47  1  0  0  0  0
 27 48  1  0  0  0  0
 27 49  1  0  0  0  0
 28 50  1  0  0  0  0
 28 51  1  0  0  0  0
 29 52  1  0  0  0  0
 29 53  1  0  0  0  0
 30 54  1  0  0  0  0
 30 55  1  0  0  0  0
M  END
> <Name>
41

> <IC50[uM]>
0.006

$$$$
41
  -OEChem-05192314333D
 Structure written by MMmdl.
 55 59  0     1  0  0  0  0  0999 V2000
   -6.3365   12.3514  -12.0169 C   0  0  0  0  0  0  0  0  0  0  0  0
   -6.4737   11.7818  -10.7533 C   0  0  0  0  0  0  0  0  0  0  0  0
   -7.7043   10.5771  -13.0419 C   0  0  0  0  0  0  0  0  0  0  0  0
   -6.9700   11.7706  -13.1413 C   0  0  0  0  0  0  0  0  0  0  0  0
   -7.8117   10.0060  -11.7679 C   0  0  0  0  0  0  0  0  0  0  0  0
   -7.2142   10.6153  -10.6085 C   0  0  3  0  0  0  0  0  0  0  0  0
   -7.6079    9.7475   -9.5180 C   0  0  0  0  0  0  0  0  0  0  0  0
   -8.2848    8.7450   -9.9896 N   0  0  0  0  0  0  0  0  0  0  0  0
   -8.4180    8.8715  -11.3012 N   0  0  0  0  0  0  0  0  0  0  0  0
   -7.3345    9.8877   -8.0248 C   0  0  0  0  0  0  0  0  0  0  0  0
   -4.3847   13.7235  -11.4418 N   0  0  0  0  0  0  0  0  0  0  0  0
   -5.5533   13.6485  -12.1711 C   0  0  0  0  0  0  0  0  0  0  0  0
   -5.9795   14.5724  -12.8566 O   0  0  0  0  0  0  0  0  0  0  0  0
   -5.9627   10.4850   -7.7364 C   0  0  0  0  0  0  0  0  0  0  0  0
   -5.8552   11.7581   -7.1652 C   0  0  0  0  0  0  0  0  0  0  0  0
   -4.5966   12.3060   -6.9181 C   0  0  0  0  0  0  0  0  0  0  0  0
   -3.4424   11.5865   -7.2381 C   0  0  0  0  0  0  0  0  0  0  0  0
   -3.5593   10.3139   -7.8013 C   0  0  0  0  0  0  0  0  0  0  0  0
   -4.8122    9.7647   -8.0513 C   0  0  0  0  0  0  0  0  0  0  0  0
   -2.0942   12.1662   -6.9781 C   0  0  0  0  0  0  0  0  0  0  0  0
   -1.7414   13.4274   -6.4937 C   0  0  0  0  0  0  0  0  0  0  0  0
   -0.4089   13.4560   -6.4321 N   0  0  0  0  0  0  0  0  0  0  0  0
    0.1814   12.3590   -6.8068 N   0  0  0  0  0  0  0  0  0  0  0  0
   -0.8029   11.5527   -7.1728 C   0  0  0  0  0  0  0  0  0  0  0  0
    0.4236   14.5699   -5.9945 C   0  0  0  0  0  0  0  0  0  0  0  0
   -3.7594   15.0422  -11.2114 C   0  0  0  0  0  0  0  0  0  0  0  0
   -2.3424   15.0924  -11.7154 C   0  0  0  0  0  0  0  0  0  0  0  0
   -1.5130   13.9202  -11.2644 C   0  0  0  0  0  0  0  0  0  0  0  0
   -2.1771   12.5990  -11.6641 C   0  0  0  0  0  0  0  0  0  0  0  0
   -3.6239   12.4833  -11.0641 C   0  0  0  0  0  0  0  0  0  0  0  0
   -6.0088   12.2426   -9.8942 H   0  0  0  0  0  0  0  0  0  0  0  0
   -8.1640   10.1218  -13.9067 H   0  0  0  0  0  0  0  0  0  0  0  0
   -6.8867   12.2580  -14.1015 H   0  0  0  0  0  0  0  0  0  0  0  0
   -6.3042   10.0161  -10.7598 H   0  0  0  0  0  0  0  0  0  0  0  0
   -8.6506    7.9907   -9.4444 H   0  0  0  0  0  0  0  0  0  0  0  0
   -8.0354    9.5960   -7.2566 H   0  0  0  0  0  0  0  0  0  0  0  0
   -6.7459   12.3157   -6.9160 H   0  0  0  0  0  0  0  0  0  0  0  0
   -4.5140   13.2889   -6.4783 H   0  0  0  0  0  0  0  0  0  0  0  0
   -2.6697    9.7519   -8.0446 H   0  0  0  0  0  0  0  0  0  0  0  0
   -4.8934    8.7808   -8.4891 H   0  0  0  0  0  0  0  0  0  0  0  0
   -2.4165   14.2253   -6.2216 H   0  0  0  0  0  0  0  0  0  0  0  0
   -0.6572   10.5584   -7.5683 H   0  0  0  0  0  0  0  0  0  0  0  0
    1.4836   14.2826   -6.0565 H   0  0  0  0  0  0  0  0  0  0  0  0
    0.2413   15.4403   -6.6420 H   0  0  0  0  0  0  0  0  0  0  0  0
    0.1739   14.8277   -4.9547 H   0  0  0  0  0  0  0  0  0  0  0  0
   -4.3489   15.8104  -11.7333 H   0  0  0  0  0  0  0  0  0  0  0  0
   -3.7594   15.2509  -10.1314 H   0  0  0  0  0  0  0  0  0  0  0  0
   -2.3623   15.1046  -12.8152 H   0  0  0  0  0  0  0  0  0  0  0  0
   -1.8724   16.0161  -11.3469 H   0  0  0  0  0  0  0  0  0  0  0  0
   -0.5191   13.9803  -11.7319 H   0  0  0  0  0  0  0  0  0  0  0  0
   -1.4061   13.9537  -10.1701 H   0  0  0  0  0  0  0  0  0  0  0  0
   -2.2388   12.5464  -12.7611 H   0  0  0  0  0  0  0  0  0  0  0  0
   -1.5665   11.7637  -11.2908 H   0  0  0  0  0  0  0  0  0  0  0  0
   -3.5680   12.3989   -9.9688 H   0  0  0  0  0  0  0  0  0  0  0  0
   -4.1284   11.5964  -11.4749 H   0  0  0  0  0  0  0  0  0  0  0  0
  1  2  2  0  0  0  0
  1  4  1  0  0  0  0
  1 12  1  0  0  0  0
  2  6  1  0  0  0  0
  3  4  2  0  0  0  0
  3  5  1  0  0  0  0
  5  6  1  0  0  0  0
  5  9  2  0  0  0  0
  6  7  1  0  0  0  0
  7  8  1  0  0  0  0
  7 10  2  3  0  0  0
  8  9  1  0  0  0  0
 10 14  1  0  0  0  0
 11 12  1  0  0  0  0
 11 26  1  0  0  0  0
 11 30  1  0  0  0  0
 12 13  2  0  0  0  0
 14 15  2  0  0  0  0
 14 19  1  0  0  0  0
 15 16  1  0  0  0  0
 16 17  2  0  0  0  0
 17 18  1  0  0  0  0
 17 20  1  0  0  0  0
 18 19  2  0  0  0  0
 20 21  2  0  0  0  0
 20 24  1  0  0  0  0
 21 22  1  0  0  0  0
 22 23  1  0  0  0  0
 22 25  1  0  0  0  0
 23 24  2  0  0  0  0
 26 27  1  0  0  0  0
 27 28  1  0  0  0  0
 28 29  1  0  0  0  0
 29 30  1  0  0  0  0
  2 31  1  0  0  0  0
  3 32  1  0  0  0  0
  4 33  1  0  0  0  0
  6 34  1  0  0  0  0
  8 35  1  0  0  0  0
 10 36  1  0  0  0  0
 15 37  1  0  0  0  0
 16 38  1  0  0  0  0
 18 39  1  0  0  0  0
 19 40  1  0  0  0  0
 21 41  1  0  0  0  0
 24 42  1  0  0  0  0
 25 43  1  0  0  0  0
 25 44  1  0  0  0  0
 25 45  1  0  0  0  0
 26 46  1  0  0  0  0
 26 47  1  0  0  0  0
 27 48  1  0  0  0  0
 27 49  1  0  0  0  0
 28 50  1  0  0  0  0
 28 51  1  0  0  0  0
 29 52  1  0  0  0  0
 29 53  1  0  0  0  0
 30 54  1  0  0  0  0
 30 55  1  0  0  0  0
M  END
> <Name>
41

> <IC50[uM]>
0.006

$$$$
41
  -OEChem-05192314333D
 Structure written by MMmdl.
 55 59  0     1  0  0  0  0  0999 V2000
   -6.3365   12.3514  -12.0169 C   0  0  0  0  0  0  0  0  0  0  0  0
   -6.4737   11.7818  -10.7533 C   0  0  0  0  0  0  0  0  0  0  0  0
   -7.7043   10.5771  -13.0419 C   0  0  0  0  0  0  0  0  0  0  0  0
   -6.9700   11.7706  -13.1413 C   0  0  0  0  0  0  0  0  0  0  0  0
   -7.8117   10.0060  -11.7679 C   0  0  0  0  0  0  0  0  0  0  0  0
   -7.2142   10.6153  -10.6085 C   0  0  0  0  0  0  0  0  0  0  0  0
   -7.6079    9.7475   -9.5180 C   0  0  0  0  0  0  0  0  0  0  0  0
   -8.2848    8.7450   -9.9896 N   0  0  0  0  0  0  0  0  0  0  0  0
   -8.4180    8.8715  -11.3012 N   0  0  0  0  0  0  0  0  0  0  0  0
   -7.3345    9.8877   -8.0248 C   0  0  0  0  0  0  0  0  0  0  0  0
   -4.3847   13.7235  -11.4418 N   0  0  0  0  0  0  0  0  0  0  0  0
   -5.5533   13.6485  -12.1711 C   0  0  0  0  0  0  0  0  0  0  0  0
   -5.9795   14.5724  -12.8566 O   0  0  0  0  0  0  0  0  0  0  0  0
   -5.9627   10.4850   -7.7364 C   0  0  0  0  0  0  0  0  0  0  0  0
   -5.8552   11.7581   -7.1652 C   0  0  0  0  0  0  0  0  0  0  0  0
   -4.5966   12.3060   -6.9181 C   0  0  0  0  0  0  0  0  0  0  0  0
   -3.4424   11.5865   -7.2381 C   0  0  0  0  0  0  0  0  0  0  0  0
   -3.5593   10.3139   -7.8013 C   0  0  0  0  0  0  0  0  0  0  0  0
   -4.8122    9.7647   -8.0513 C   0  0  0  0  0  0  0  0  0  0  0  0
   -2.0942   12.1662   -6.9781 C   0  0  0  0  0  0  0  0  0  0  0  0
   -1.7414   13.4274   -6.4937 C   0  0  0  0  0  0  0  0  0  0  0  0
   -0.4089   13.4560   -6.4321 N   0  0  3  0  0  0  0  0  0  0  0  0
    0.1814   12.3590   -6.8068 N   0  0  0  0  0  0  0  0  0  0  0  0
   -0.8029   11.5527   -7.1728 C   0  0  0  0  0  0  0  0  0  0  0  0
    0.4236   14.5699   -5.9945 C   0  0  0  0  0  0  0  0  0  0  0  0
   -3.7594   15.0422  -11.2114 C   0  0  0  0  0  0  0  0  0  0  0  0
   -2.3424   15.0924  -11.7154 C   0  0  0  0  0  0  0  0  0  0  0  0
   -1.5130   13.9202  -11.2644 C   0  0  0  0  0  0  0  0  0  0  0  0
   -2.1771   12.5990  -11.6641 C   0  0  0  0  0  0  0  0  0  0  0  0
   -3.6239   12.4833  -11.0641 C   0  0  0  0  0  0  0  0  0  0  0  0
   -6.0088   12.2426   -9.8942 H   0  0  0  0  0  0  0  0  0  0  0  0
   -8.1640   10.1218  -13.9067 H   0  0  0  0  0  0  0  0  0  0  0  0
   -6.8867   12.2580  -14.1015 H   0  0  0  0  0  0  0  0  0  0  0  0
   -8.0354    9.5960   -7.2566 H   0  0  0  0  0  0  0  0  0  0  0  0
   -5.9742   10.0332   -6.7335 H   0  0  0  0  0  0  0  0  0  0  0  0
   -6.7459   12.3157   -6.9160 H   0  0  0  0  0  0  0  0  0  0  0  0
   -4.5140   13.2889   -6.4783 H   0  0  0  0  0  0  0  0  0  0  0  0
   -2.6697    9.7519   -8.0446 H   0  0  0  0  0  0  0  0  0  0  0  0
   -4.8934    8.7808   -8.4891 H   0  0  0  0  0  0  0  0  0  0  0  0
   -2.1062   14.2106   -7.1745 H   0  0  0  0  0  0  0  0  0  0  0  0
   -2.1705   13.5826   -5.4928 H   0  0  0  0  0  0  0  0  0  0  0  0
   -0.6572   10.5584   -7.5683 H   0  0  0  0  0  0  0  0  0  0  0  0
    1.4836   14.2826   -6.0565 H   0  0  0  0  0  0  0  0  0  0  0  0
    0.2413   15.4403   -6.6420 H   0  0  0  0  0  0  0  0  0  0  0  0
    0.1739   14.8277   -4.9547 H   0  0  0  0  0  0  0  0  0  0  0  0
   -4.3489   15.8104  -11.7333 H   0  0  0  0  0  0  0  0  0  0  0  0
   -3.7594   15.2509  -10.1314 H   0  0  0  0  0  0  0  0  0  0  0  0
   -2.3623   15.1046  -12.8152 H   0  0  0  0  0  0  0  0  0  0  0  0
   -1.8724   16.0161  -11.3469 H   0  0  0  0  0  0  0  0  0  0  0  0
   -0.5191   13.9803  -11.7319 H   0  0  0  0  0  0  0  0  0  0  0  0
   -1.4061   13.9537  -10.1701 H   0  0  0  0  0  0  0  0  0  0  0  0
   -2.2388   12.5464  -12.7611 H   0  0  0  0  0  0  0  0  0  0  0  0
   -1.5665   11.7637  -11.2908 H   0  0  0  0  0  0  0  0  0  0  0  0
   -3.5680   12.3989   -9.9688 H   0  0  0  0  0  0  0  0  0  0  0  0
   -4.1284   11.5964  -11.4749 H   0  0  0  0  0  0  0  0  0  0  0  0
  1  2  2  0  0  0  0
  1  4  1  0  0  0  0
  1 12  1  0  0  0  0
  2  6  1  0  0  0  0
  3  4  2  0  0  0  0
  3  5  1  0  0  0  0
  5  6  2  0  0  0  0
  5  9  1  0  0  0  0
  6  7  1  0  0  0  0
  7  8  1  0  0  0  0
  7 10  2  3  0  0  0
  8  9  2  0  0  0  0
 10 14  1  0  0  0  0
 11 12  1  0  0  0  0
 11 26  1  0  0  0  0
 11 30  1  0  0  0  0
 12 13  2  0  0  0  0
 14 15  1  0  0  0  0
 14 19  1  0  0  0  0
 15 16  2  0  0  0  0
 16 17  1  0  0  0  0
 17 18  1  0  0  0  0
 17 20  2  0  0  0  0
 18 19  2  0  0  0  0
 20 21  1  0  0  0  0
 20 24  1  0  0  0  0
 21 22  1  0  0  0  0
 22 23  1  0  0  0  0
 22 25  1  0  0  0  0
 23 24  2  0  0  0  0
 26 27  1  0  0  0  0
 27 28  1  0  0  0  0
 28 29  1  0  0  0  0
 29 30  1  0  0  0  0
  2 31  1  0  0  0  0
  3 32  1  0  0  0  0
  4 33  1  0  0  0  0
 10 34  1  0  0  0  0
 14 35  1  0  0  0  0
 15 36  1  0  0  0  0
 16 37  1  0  0  0  0
 18 38  1  0  0  0  0
 19 39  1  0  0  0  0
 21 40  1  0  0  0  0
 21 41  1  0  0  0  0
 24 42  1  0  0  0  0
 25 43  1  0  0  0  0
 25 44  1  0  0  0  0
 25 45  1  0  0  0  0
 26 46  1  0  0  0  0
 26 47  1  0  0  0  0
 27 48  1  0  0  0  0
 27 49  1  0  0  0  0
 28 50  1  0  0  0  0
 28 51  1  0  0  0  0
 29 52  1  0  0  0  0
 29 53  1  0  0  0  0
 30 54  1  0  0  0  0
 30 55  1  0  0  0  0
M  END
> <Name>
41

> <IC50[uM]>
0.006

$$$$
41
  -OEChem-05192314333D
 Structure written by MMmdl.
 55 59  0     1  0  0  0  0  0999 V2000
   -6.3365   12.3514  -12.0169 C   0  0  0  0  0  0  0  0  0  0  0  0
   -6.4737   11.7818  -10.7533 C   0  0  0  0  0  0  0  0  0  0  0  0
   -7.7043   10.5771  -13.0419 C   0  0  0  0  0  0  0  0  0  0  0  0
   -6.9700   11.7706  -13.1413 C   0  0  0  0  0  0  0  0  0  0  0  0
   -7.8117   10.0060  -11.7679 C   0  0  0  0  0  0  0  0  0  0  0  0
   -7.2142   10.6153  -10.6085 C   0  0  0  0  0  0  0  0  0  0  0  0
   -7.6079    9.7475   -9.5180 C   0  0  0  0  0  0  0  0  0  0  0  0
   -8.2848    8.7450   -9.9896 N   0  0  0  0  0  0  0  0  0  0  0  0
   -8.4180    8.8715  -11.3012 N   0  0  0  0  0  0  0  0  0  0  0  0
   -7.3345    9.8877   -8.0248 C   0  0  0  0  0  0  0  0  0  0  0  0
   -4.3847   13.7235  -11.4418 N   0  0  0  0  0  0  0  0  0  0  0  0
   -5.5533   13.6485  -12.1711 C   0  0  0  0  0  0  0  0  0  0  0  0
   -5.9795   14.5724  -12.8566 O   0  0  0  0  0  0  0  0  0  0  0  0
   -5.9627   10.4850   -7.7364 C   0  0  0  0  0  0  0  0  0  0  0  0
   -5.8552   11.7581   -7.1652 C   0  0  0  0  0  0  0  0  0  0  0  0
   -4.5966   12.3060   -6.9181 C   0  0  0  0  0  0  0  0  0  0  0  0
   -3.4424   11.5865   -7.2381 C   0  0  0  0  0  0  0  0  0  0  0  0
   -3.5593   10.3139   -7.8013 C   0  0  0  0  0  0  0  0  0  0  0  0
   -4.8122    9.7647   -8.0513 C   0  0  0  0  0  0  0  0  0  0  0  0
   -2.0942   12.1662   -6.9781 C   0  0  0  0  0  0  0  0  0  0  0  0
   -1.7414   13.4274   -6.4937 C   0  0  0  0  0  0  0  0  0  0  0  0
   -0.4089   13.4560   -6.4321 N   0  0  3  0  0  0  0  0  0  0  0  0
    0.1814   12.3590   -6.8068 N   0  0  0  0  0  0  0  0  0  0  0  0
   -0.8029   11.5527   -7.1728 C   0  0  0  0  0  0  0  0  0  0  0  0
    0.4236   14.5699   -5.9945 C   0  0  0  0  0  0  0  0  0  0  0  0
   -3.7594   15.0422  -11.2114 C   0  0  0  0  0  0  0  0  0  0  0  0
   -2.3424   15.0924  -11.7154 C   0  0  0  0  0  0  0  0  0  0  0  0
   -1.5130   13.9202  -11.2644 C   0  0  0  0  0  0  0  0  0  0  0  0
   -2.1771   12.5990  -11.6641 C   0  0  0  0  0  0  0  0  0  0  0  0
   -3.6239   12.4833  -11.0641 C   0  0  0  0  0  0  0  0  0  0  0  0
   -6.0088   12.2426   -9.8942 H   0  0  0  0  0  0  0  0  0  0  0  0
   -8.1640   10.1218  -13.9067 H   0  0  0  0  0  0  0  0  0  0  0  0
   -6.8867   12.2580  -14.1015 H   0  0  0  0  0  0  0  0  0  0  0  0
   -8.0354    9.5960   -7.2566 H   0  0  0  0  0  0  0  0  0  0  0  0
   -6.7459   12.3157   -6.9160 H   0  0  0  0  0  0  0  0  0  0  0  0
   -4.5467   13.2507   -7.4793 H   0  0  0  0  0  0  0  0  0  0  0  0
   -4.5493   12.5173   -5.8396 H   0  0  0  0  0  0  0  0  0  0  0  0
   -2.6697    9.7519   -8.0446 H   0  0  0  0  0  0  0  0  0  0  0  0
   -4.8934    8.7808   -8.4891 H   0  0  0  0  0  0  0  0  0  0  0  0
   -2.1062   14.2106   -7.1745 H   0  0  0  0  0  0  0  0  0  0  0  0
   -2.1705   13.5826   -5.4928 H   0  0  0  0  0  0  0  0  0  0  0  0
   -0.6572   10.5584   -7.5683 H   0  0  0  0  0  0  0  0  0  0  0  0
    1.4836   14.2826   -6.0565 H   0  0  0  0  0  0  0  0  0  0  0  0
    0.2413   15.4403   -6.6420 H   0  0  0  0  0  0  0  0  0  0  0  0
    0.1739   14.8277   -4.9547 H   0  0  0  0  0  0  0  0  0  0  0  0
   -4.3489   15.8104  -11.7333 H   0  0  0  0  0  0  0  0  0  0  0  0
   -3.7594   15.2509  -10.1314 H   0  0  0  0  0  0  0  0  0  0  0  0
   -2.3623   15.1046  -12.8152 H   0  0  0  0  0  0  0  0  0  0  0  0
   -1.8724   16.0161  -11.3469 H   0  0  0  0  0  0  0  0  0  0  0  0
   -0.5191   13.9803  -11.7319 H   0  0  0  0  0  0  0  0  0  0  0  0
   -1.4061   13.9537  -10.1701 H   0  0  0  0  0  0  0  0  0  0  0  0
   -2.2388   12.5464  -12.7611 H   0  0  0  0  0  0  0  0  0  0  0  0
   -1.5665   11.7637  -11.2908 H   0  0  0  0  0  0  0  0  0  0  0  0
   -3.5680   12.3989   -9.9688 H   0  0  0  0  0  0  0  0  0  0  0  0
   -4.1284   11.5964  -11.4749 H   0  0  0  0  0  0  0  0  0  0  0  0
  1  2  2  0  0  0  0
  1  4  1  0  0  0  0
  1 12  1  0  0  0  0
  2  6  1  0  0  0  0
  3  4  2  0  0  0  0
  3  5  1  0  0  0  0
  5  6  2  0  0  0  0
  5  9  1  0  0  0  0
  6  7  1  0  0  0  0
  7  8  1  0  0  0  0
  7 10  2  3  0  0  0
  8  9  2  0  0  0  0
 10 14  1  0  0  0  0
 11 12  1  0  0  0  0
 11 26  1  0  0  0  0
 11 30  1  0  0  0  0
 12 13  2  0  0  0  0
 14 15  2  0  0  0  0
 14 19  1  0  0  0  0
 15 16  1  0  0  0  0
 16 17  1  0  0  0  0
 17 18  1  0  0  0  0
 17 20  2  0  0  0  0
 18 19  2  0  0  0  0
 20 21  1  0  0  0  0
 20 24  1  0  0  0  0
 21 22  1  0  0  0  0
 22 23  1  0  0  0  0
 22 25  1  0  0  0  0
 23 24  2  0  0  0  0
 26 27  1  0  0  0  0
 27 28  1  0  0  0  0
 28 29  1  0  0  0  0
 29 30  1  0  0  0  0
  2 31  1  0  0  0  0
  3 32  1  0  0  0  0
  4 33  1  0  0  0  0
 10 34  1  0  0  0  0
 15 35  1  0  0  0  0
 16 36  1  0  0  0  0
 16 37  1  0  0  0  0
 18 38  1  0  0  0  0
 19 39  1  0  0  0  0
 21 40  1  0  0  0  0
 21 41  1  0  0  0  0
 24 42  1  0  0  0  0
 25 43  1  0  0  0  0
 25 44  1  0  0  0  0
 25 45  1  0  0  0  0
 26 46  1  0  0  0  0
 26 47  1  0  0  0  0
 27 48  1  0  0  0  0
 27 49  1  0  0  0  0
 28 50  1  0  0  0  0
 28 51  1  0  0  0  0
 29 52  1  0  0  0  0
 29 53  1  0  0  0  0
 30 54  1  0  0  0  0
 30 55  1  0  0  0  0
M  END
> <Name>
41

> <IC50[uM]>
0.006

$$$$
41
  -OEChem-05192314333D
 Structure written by MMmdl.
 55 59  0     1  0  0  0  0  0999 V2000
   -6.3365   12.3514  -12.0169 C   0  0  3  0  0  0  0  0  0  0  0  0
   -6.4737   11.7818  -10.7533 C   0  0  0  0  0  0  0  0  0  0  0  0
   -7.7043   10.5771  -13.0419 C   0  0  0  0  0  0  0  0  0  0  0  0
   -6.9700   11.7706  -13.1413 C   0  0  0  0  0  0  0  0  0  0  0  0
   -7.8117   10.0060  -11.7679 C   0  0  0  0  0  0  0  0  0  0  0  0
   -7.2142   10.6153  -10.6085 C   0  0  0  0  0  0  0  0  0  0  0  0
   -7.6079    9.7475   -9.5180 C   0  0  0  0  0  0  0  0  0  0  0  0
   -8.2848    8.7450   -9.9896 N   0  0  0  0  0  0  0  0  0  0  0  0
   -8.4180    8.8715  -11.3012 N   0  0  0  0  0  0  0  0  0  0  0  0
   -7.3345    9.8877   -8.0248 C   0  0  0  0  0  0  0  0  0  0  0  0
   -4.3847   13.7235  -11.4418 N   0  0  0  0  0  0  0  0  0  0  0  0
   -5.5533   13.6485  -12.1711 C   0  0  0  0  0  0  0  0  0  0  0  0
   -5.9795   14.5724  -12.8566 O   0  0  0  0  0  0  0  0  0  0  0  0
   -5.9627   10.4850   -7.7364 C   0  0  0  0  0  0  0  0  0  0  0  0
   -5.8552   11.7581   -7.1652 C   0  0  0  0  0  0  0  0  0  0  0  0
   -4.5966   12.3060   -6.9181 C   0  0  0  0  0  0  0  0  0  0  0  0
   -3.4424   11.5865   -7.2381 C   0  0  0  0  0  0  0  0  0  0  0  0
   -3.5593   10.3139   -7.8013 C   0  0  0  0  0  0  0  0  0  0  0  0
   -4.8122    9.7647   -8.0513 C   0  0  0  0  0  0  0  0  0  0  0  0
   -2.0942   12.1662   -6.9781 C   0  0  0  0  0  0  0  0  0  0  0  0
   -1.7414   13.4274   -6.4937 C   0  0  0  0  0  0  0  0  0  0  0  0
   -0.4089   13.4560   -6.4321 N   0  0  3  0  0  0  0  0  0  0  0  0
    0.1814   12.3590   -6.8068 N   0  0  0  0  0  0  0  0  0  0  0  0
   -0.8029   11.5527   -7.1728 C   0  0  0  0  0  0  0  0  0  0  0  0
    0.4236   14.5699   -5.9945 C   0  0  0  0  0  0  0  0  0  0  0  0
   -3.7594   15.0422  -11.2114 C   0  0  0  0  0  0  0  0  0  0  0  0
   -2.3424   15.0924  -11.7154 C   0  0  0  0  0  0  0  0  0  0  0  0
   -1.5130   13.9202  -11.2644 C   0  0  0  0  0  0  0  0  0  0  0  0
   -2.1771   12.5990  -11.6641 C   0  0  0  0  0  0  0  0  0  0  0  0
   -3.6239   12.4833  -11.0641 C   0  0  0  0  0  0  0  0  0  0  0  0
   -5.4270   11.7615  -12.2032 H   0  0  0  0  0  0  0  0  0  0  0  0
   -6.0088   12.2426   -9.8942 H   0  0  0  0  0  0  0  0  0  0  0  0
   -8.1640   10.1218  -13.9067 H   0  0  0  0  0  0  0  0  0  0  0  0
   -6.8867   12.2580  -14.1015 H   0  0  0  0  0  0  0  0  0  0  0  0
   -8.0354    9.5960   -7.2566 H   0  0  0  0  0  0  0  0  0  0  0  0
   -6.7459   12.3157   -6.9160 H   0  0  0  0  0  0  0  0  0  0  0  0
   -4.5140   13.2889   -6.4783 H   0  0  0  0  0  0  0  0  0  0  0  0
   -2.6697    9.7519   -8.0446 H   0  0  0  0  0  0  0  0  0  0  0  0
   -4.8934    8.7808   -8.4891 H   0  0  0  0  0  0  0  0  0  0  0  0
   -2.1062   14.2106   -7.1745 H   0  0  0  0  0  0  0  0  0  0  0  0
   -2.1705   13.5826   -5.4928 H   0  0  0  0  0  0  0  0  0  0  0  0
   -0.6572   10.5584   -7.5683 H   0  0  0  0  0  0  0  0  0  0  0  0
    1.4836   14.2826   -6.0565 H   0  0  0  0  0  0  0  0  0  0  0  0
    0.2413   15.4403   -6.6420 H   0  0  0  0  0  0  0  0  0  0  0  0
    0.1739   14.8277   -4.9547 H   0  0  0  0  0  0  0  0  0  0  0  0
   -4.3489   15.8104  -11.7333 H   0  0  0  0  0  0  0  0  0  0  0  0
   -3.7594   15.2509  -10.1314 H   0  0  0  0  0  0  0  0  0  0  0  0
   -2.3623   15.1046  -12.8152 H   0  0  0  0  0  0  0  0  0  0  0  0
   -1.8724   16.0161  -11.3469 H   0  0  0  0  0  0  0  0  0  0  0  0
   -0.5191   13.9803  -11.7319 H   0  0  0  0  0  0  0  0  0  0  0  0
   -1.4061   13.9537  -10.1701 H   0  0  0  0  0  0  0  0  0  0  0  0
   -2.2388   12.5464  -12.7611 H   0  0  0  0  0  0  0  0  0  0  0  0
   -1.5665   11.7637  -11.2908 H   0  0  0  0  0  0  0  0  0  0  0  0
   -3.5680   12.3989   -9.9688 H   0  0  0  0  0  0  0  0  0  0  0  0
   -4.1284   11.5964  -11.4749 H   0  0  0  0  0  0  0  0  0  0  0  0
  1  2  1  0  0  0  0
  1  4  1  0  0  0  0
  1 12  1  0  0  0  0
  2  6  2  0  0  0  0
  3  4  2  0  0  0  0
  3  5  1  0  0  0  0
  5  6  1  0  0  0  0
  5  9  2  0  0  0  0
  6  7  1  0  0  0  0
  7  8  2  0  0  0  0
  7 10  1  0  0  0  0
  8  9  1  0  0  0  0
 10 14  2  0  0  0  0
 11 12  1  0  0  0  0
 11 26  1  0  0  0  0
 11 30  1  0  0  0  0
 12 13  2  0  0  0  0
 14 15  1  0  0  0  0
 14 19  1  0  0  0  0
 15 16  2  0  0  0  0
 16 17  1  0  0  0  0
 17 18  1  0  0  0  0
 17 20  2  0  0  0  0
 18 19  2  0  0  0  0
 20 21  1  0  0  0  0
 20 24  1  0  0  0  0
 21 22  1  0  0  0  0
 22 23  1  0  0  0  0
 22 25  1  0  0  0  0
 23 24  2  0  0  0  0
 26 27  1  0  0  0  0
 27 28  1  0  0  0  0
 28 29  1  0  0  0  0
 29 30  1  0  0  0  0
  1 31  1  0  0  0  0
  2 32  1  0  0  0  0
  3 33  1  0  0  0  0
  4 34  1  0  0  0  0
 10 35  1  0  0  0  0
 15 36  1  0  0  0  0
 16 37  1  0  0  0  0
 18 38  1  0  0  0  0
 19 39  1  0  0  0  0
 21 40  1  0  0  0  0
 21 41  1  0  0  0  0
 24 42  1  0  0  0  0
 25 43  1  0  0  0  0
 25 44  1  0  0  0  0
 25 45  1  0  0  0  0
 26 46  1  0  0  0  0
 26 47  1  0  0  0  0
 27 48  1  0  0  0  0
 27 49  1  0  0  0  0
 28 50  1  0  0  0  0
 28 51  1  0  0  0  0
 29 52  1  0  0  0  0
 29 53  1  0  0  0  0
 30 54  1  0  0  0  0
 30 55  1  0  0  0  0
M  END
> <Name>
41

> <IC50[uM]>
0.006

$$$$
41
  -OEChem-05192314333D
 Structure written by MMmdl.
 55 59  0     1  0  0  0  0  0999 V2000
   -6.3365   12.3514  -12.0169 C   0  0  0  0  0  0  0  0  0  0  0  0
   -6.4737   11.7818  -10.7533 C   0  0  0  0  0  0  0  0  0  0  0  0
   -7.7043   10.5771  -13.0419 C   0  0  0  0  0  0  0  0  0  0  0  0
   -6.9700   11.7706  -13.1413 C   0  0  0  0  0  0  0  0  0  0  0  0
   -7.8117   10.0060  -11.7679 C   0  0  0  0  0  0  0  0  0  0  0  0
   -7.2142   10.6153  -10.6085 C   0  0  3  0  0  0  0  0  0  0  0  0
   -7.6079    9.7475   -9.5180 C   0  0  0  0  0  0  0  0  0  0  0  0
   -8.2848    8.7450   -9.9896 N   0  0  0  0  0  0  0  0  0  0  0  0
   -8.4180    8.8715  -11.3012 N   0  0  0  0  0  0  0  0  0  0  0  0
   -7.3345    9.8877   -8.0248 C   0  0  0  0  0  0  0  0  0  0  0  0
   -4.3847   13.7235  -11.4418 N   0  0  0  0  0  0  0  0  0  0  0  0
   -5.5533   13.6485  -12.1711 C   0  0  0  0  0  0  0  0  0  0  0  0
   -5.9795   14.5724  -12.8566 O   0  0  0  0  0  0  0  0  0  0  0  0
   -5.9627   10.4850   -7.7364 C   0  0  0  0  0  0  0  0  0  0  0  0
   -5.8552   11.7581   -7.1652 C   0  0  0  0  0  0  0  0  0  0  0  0
   -4.5966   12.3060   -6.9181 C   0  0  0  0  0  0  0  0  0  0  0  0
   -3.4424   11.5865   -7.2381 C   0  0  0  0  0  0  0  0  0  0  0  0
   -3.5593   10.3139   -7.8013 C   0  0  0  0  0  0  0  0  0  0  0  0
   -4.8122    9.7647   -8.0513 C   0  0  0  0  0  0  0  0  0  0  0  0
   -2.0942   12.1662   -6.9781 C   0  0  0  0  0  0  0  0  0  0  0  0
   -1.7414   13.4274   -6.4937 C   0  0  0  0  0  0  0  0  0  0  0  0
   -0.4089   13.4560   -6.4321 N   0  0  3  0  0  0  0  0  0  0  0  0
    0.1814   12.3590   -6.8068 N   0  0  0  0  0  0  0  0  0  0  0  0
   -0.8029   11.5527   -7.1728 C   0  0  0  0  0  0  0  0  0  0  0  0
    0.4236   14.5699   -5.9945 C   0  0  0  0  0  0  0  0  0  0  0  0
   -3.7594   15.0422  -11.2114 C   0  0  0  0  0  0  0  0  0  0  0  0
   -2.3424   15.0924  -11.7154 C   0  0  0  0  0  0  0  0  0  0  0  0
   -1.5130   13.9202  -11.2644 C   0  0  0  0  0  0  0  0  0  0  0  0
   -2.1771   12.5990  -11.6641 C   0  0  0  0  0  0  0  0  0  0  0  0
   -3.6239   12.4833  -11.0641 C   0  0  0  0  0  0  0  0  0  0  0  0
   -6.0088   12.2426   -9.8942 H   0  0  0  0  0  0  0  0  0  0  0  0
   -8.1640   10.1218  -13.9067 H   0  0  0  0  0  0  0  0  0  0  0  0
   -6.8867   12.2580  -14.1015 H   0  0  0  0  0  0  0  0  0  0  0  0
   -6.3042   10.0161  -10.7598 H   0  0  0  0  0  0  0  0  0  0  0  0
   -8.0354    9.5960   -7.2566 H   0  0  0  0  0  0  0  0  0  0  0  0
   -6.7459   12.3157   -6.9160 H   0  0  0  0  0  0  0  0  0  0  0  0
   -4.5140   13.2889   -6.4783 H   0  0  0  0  0  0  0  0  0  0  0  0
   -2.6697    9.7519   -8.0446 H   0  0  0  0  0  0  0  0  0  0  0  0
   -4.8934    8.7808   -8.4891 H   0  0  0  0  0  0  0  0  0  0  0  0
   -2.1062   14.2106   -7.1745 H   0  0  0  0  0  0  0  0  0  0  0  0
   -2.1705   13.5826   -5.4928 H   0  0  0  0  0  0  0  0  0  0  0  0
   -0.6572   10.5584   -7.5683 H   0  0  0  0  0  0  0  0  0  0  0  0
    1.4836   14.2826   -6.0565 H   0  0  0  0  0  0  0  0  0  0  0  0
    0.2413   15.4403   -6.6420 H   0  0  0  0  0  0  0  0  0  0  0  0
    0.1739   14.8277   -4.9547 H   0  0  0  0  0  0  0  0  0  0  0  0
   -4.3489   15.8104  -11.7333 H   0  0  0  0  0  0  0  0  0  0  0  0
   -3.7594   15.2509  -10.1314 H   0  0  0  0  0  0  0  0  0  0  0  0
   -2.3623   15.1046  -12.8152 H   0  0  0  0  0  0  0  0  0  0  0  0
   -1.8724   16.0161  -11.3469 H   0  0  0  0  0  0  0  0  0  0  0  0
   -0.5191   13.9803  -11.7319 H   0  0  0  0  0  0  0  0  0  0  0  0
   -1.4061   13.9537  -10.1701 H   0  0  0  0  0  0  0  0  0  0  0  0
   -2.2388   12.5464  -12.7611 H   0  0  0  0  0  0  0  0  0  0  0  0
   -1.5665   11.7637  -11.2908 H   0  0  0  0  0  0  0  0  0  0  0  0
   -3.5680   12.3989   -9.9688 H   0  0  0  0  0  0  0  0  0  0  0  0
   -4.1284   11.5964  -11.4749 H   0  0  0  0  0  0  0  0  0  0  0  0
  1  2  2  0  0  0  0
  1  4  1  0  0  0  0
  1 12  1  0  0  0  0
  2  6  1  0  0  0  0
  3  4  2  0  0  0  0
  3  5  1  0  0  0  0
  5  6  1  0  0  0  0
  5  9  2  0  0  0  0
  6  7  1  0  0  0  0
  7  8  2  0  0  0  0
  7 10  1  0  0  0  0
  8  9  1  0  0  0  0
 10 14  2  0  0  0  0
 11 12  1  0  0  0  0
 11 26  1  0  0  0  0
 11 30  1  0  0  0  0
 12 13  2  0  0  0  0
 14 15  1  0  0  0  0
 14 19  1  0  0  0  0
 15 16  2  0  0  0  0
 16 17  1  0  0  0  0
 17 18  1  0  0  0  0
 17 20  2  0  0  0  0
 18 19  2  0  0  0  0
 20 21  1  0  0  0  0
 20 24  1  0  0  0  0
 21 22  1  0  0  0  0
 22 23  1  0  0  0  0
 22 25  1  0  0  0  0
 23 24  2  0  0  0  0
 26 27  1  0  0  0  0
 27 28  1  0  0  0  0
 28 29  1  0  0  0  0
 29 30  1  0  0  0  0
  2 31  1  0  0  0  0
  3 32  1  0  0  0  0
  4 33  1  0  0  0  0
  6 34  1  0  0  0  0
 10 35  1  0  0  0  0
 15 36  1  0  0  0  0
 16 37  1  0  0  0  0
 18 38  1  0  0  0  0
 19 39  1  0  0  0  0
 21 40  1  0  0  0  0
 21 41  1  0  0  0  0
 24 42  1  0  0  0  0
 25 43  1  0  0  0  0
 25 44  1  0  0  0  0
 25 45  1  0  0  0  0
 26 46  1  0  0  0  0
 26 47  1  0  0  0  0
 27 48  1  0  0  0  0
 27 49  1  0  0  0  0
 28 50  1  0  0  0  0
 28 51  1  0  0  0  0
 29 52  1  0  0  0  0
 29 53  1  0  0  0  0
 30 54  1  0  0  0  0
 30 55  1  0  0  0  0
M  END
> <Name>
41

> <IC50[uM]>
0.006

$$$$
41
  -OEChem-05192314333D
 Structure written by MMmdl.
 55 59  0     1  0  0  0  0  0999 V2000
   -6.3365   12.3514  -12.0169 C   0  0  0  0  0  0  0  0  0  0  0  0
   -6.4737   11.7818  -10.7533 C   0  0  0  0  0  0  0  0  0  0  0  0
   -7.7043   10.5771  -13.0419 C   0  0  0  0  0  0  0  0  0  0  0  0
   -6.9700   11.7706  -13.1413 C   0  0  0  0  0  0  0  0  0  0  0  0
   -7.8117   10.0060  -11.7679 C   0  0  0  0  0  0  0  0  0  0  0  0
   -7.2142   10.6153  -10.6085 C   0  0  0  0  0  0  0  0  0  0  0  0
   -7.6079    9.7475   -9.5180 C   0  0  0  0  0  0  0  0  0  0  0  0
   -8.2848    8.7450   -9.9896 N   0  0  0  0  0  0  0  0  0  0  0  0
   -8.4180    8.8715  -11.3012 N   0  0  0  0  0  0  0  0  0  0  0  0
   -7.3345    9.8877   -8.0248 C   0  0  0  0  0  0  0  0  0  0  0  0
   -4.3847   13.7235  -11.4418 N   0  0  0  0  0  0  0  0  0  0  0  0
   -5.5533   13.6485  -12.1711 C   0  0  0  0  0  0  0  0  0  0  0  0
   -5.9795   14.5724  -12.8566 O   0  0  0  0  0  0  0  0  0  0  0  0
   -5.9627   10.4850   -7.7364 C   0  0  0  0  0  0  0  0  0  0  0  0
   -5.8552   11.7581   -7.1652 C   0  0  0  0  0  0  0  0  0  0  0  0
   -4.5966   12.3060   -6.9181 C   0  0  0  0  0  0  0  0  0  0  0  0
   -3.4424   11.5865   -7.2381 C   0  0  0  0  0  0  0  0  0  0  0  0
   -3.5593   10.3139   -7.8013 C   0  0  0  0  0  0  0  0  0  0  0  0
   -4.8122    9.7647   -8.0513 C   0  0  0  0  0  0  0  0  0  0  0  0
   -2.0942   12.1662   -6.9781 C   0  0  0  0  0  0  0  0  0  0  0  0
   -1.7414   13.4274   -6.4937 C   0  0  0  0  0  0  0  0  0  0  0  0
   -0.4089   13.4560   -6.4321 N   0  0  3  0  0  0  0  0  0  0  0  0
    0.1814   12.3590   -6.8068 N   0  0  0  0  0  0  0  0  0  0  0  0
   -0.8029   11.5527   -7.1728 C   0  0  0  0  0  0  0  0  0  0  0  0
    0.4236   14.5699   -5.9945 C   0  0  0  0  0  0  0  0  0  0  0  0
   -3.7594   15.0422  -11.2114 C   0  0  0  0  0  0  0  0  0  0  0  0
   -2.3424   15.0924  -11.7154 C   0  0  0  0  0  0  0  0  0  0  0  0
   -1.5130   13.9202  -11.2644 C   0  0  0  0  0  0  0  0  0  0  0  0
   -2.1771   12.5990  -11.6641 C   0  0  0  0  0  0  0  0  0  0  0  0
   -3.6239   12.4833  -11.0641 C   0  0  0  0  0  0  0  0  0  0  0  0
   -6.0088   12.2426   -9.8942 H   0  0  0  0  0  0  0  0  0  0  0  0
   -8.7234   10.7825  -13.4015 H   0  0  0  0  0  0  0  0  0  0  0  0
   -7.2258    9.8363  -13.6994 H   0  0  0  0  0  0  0  0  0  0  0  0
   -6.8867   12.2580  -14.1015 H   0  0  0  0  0  0  0  0  0  0  0  0
   -8.0354    9.5960   -7.2566 H   0  0  0  0  0  0  0  0  0  0  0  0
   -6.7459   12.3157   -6.9160 H   0  0  0  0  0  0  0  0  0  0  0  0
   -4.5140   13.2889   -6.4783 H   0  0  0  0  0  0  0  0  0  0  0  0
   -2.6697    9.7519   -8.0446 H   0  0  0  0  0  0  0  0  0  0  0  0
   -4.8934    8.7808   -8.4891 H   0  0  0  0  0  0  0  0  0  0  0  0
   -2.1062   14.2106   -7.1745 H   0  0  0  0  0  0  0  0  0  0  0  0
   -2.1705   13.5826   -5.4928 H   0  0  0  0  0  0  0  0  0  0  0  0
   -0.6572   10.5584   -7.5683 H   0  0  0  0  0  0  0  0  0  0  0  0
    1.4836   14.2826   -6.0565 H   0  0  0  0  0  0  0  0  0  0  0  0
    0.2413   15.4403   -6.6420 H   0  0  0  0  0  0  0  0  0  0  0  0
    0.1739   14.8277   -4.9547 H   0  0  0  0  0  0  0  0  0  0  0  0
   -4.3489   15.8104  -11.7333 H   0  0  0  0  0  0  0  0  0  0  0  0
   -3.7594   15.2509  -10.1314 H   0  0  0  0  0  0  0  0  0  0  0  0
   -2.3623   15.1046  -12.8152 H   0  0  0  0  0  0  0  0  0  0  0  0
   -1.8724   16.0161  -11.3469 H   0  0  0  0  0  0  0  0  0  0  0  0
   -0.5191   13.9803  -11.7319 H   0  0  0  0  0  0  0  0  0  0  0  0
   -1.4061   13.9537  -10.1701 H   0  0  0  0  0  0  0  0  0  0  0  0
   -2.2388   12.5464  -12.7611 H   0  0  0  0  0  0  0  0  0  0  0  0
   -1.5665   11.7637  -11.2908 H   0  0  0  0  0  0  0  0  0  0  0  0
   -3.5680   12.3989   -9.9688 H   0  0  0  0  0  0  0  0  0  0  0  0
   -4.1284   11.5964  -11.4749 H   0  0  0  0  0  0  0  0  0  0  0  0
  1  2  1  0  0  0  0
  1  4  2  0  0  0  0
  1 12  1  0  0  0  0
  2  6  2  0  0  0  0
  3  4  1  0  0  0  0
  3  5  1  0  0  0  0
  5  6  1  0  0  0  0
  5  9  2  0  0  0  0
  6  7  1  0  0  0  0
  7  8  2  0  0  0  0
  7 10  1  0  0  0  0
  8  9  1  0  0  0  0
 10 14  2  0  0  0  0
 11 12  1  0  0  0  0
 11 26  1  0  0  0  0
 11 30  1  0  0  0  0
 12 13  2  0  0  0  0
 14 15  1  0  0  0  0
 14 19  1  0  0  0  0
 15 16  2  0  0  0  0
 16 17  1  0  0  0  0
 17 18  1  0  0  0  0
 17 20  2  0  0  0  0
 18 19  2  0  0  0  0
 20 21  1  0  0  0  0
 20 24  1  0  0  0  0
 21 22  1  0  0  0  0
 22 23  1  0  0  0  0
 22 25  1  0  0  0  0
 23 24  2  0  0  0  0
 26 27  1  0  0  0  0
 27 28  1  0  0  0  0
 28 29  1  0  0  0  0
 29 30  1  0  0  0  0
  2 31  1  0  0  0  0
  3 32  1  0  0  0  0
  3 33  1  0  0  0  0
  4 34  1  0  0  0  0
 10 35  1  0  0  0  0
 15 36  1  0  0  0  0
 16 37  1  0  0  0  0
 18 38  1  0  0  0  0
 19 39  1  0  0  0  0
 21 40  1  0  0  0  0
 21 41  1  0  0  0  0
 24 42  1  0  0  0  0
 25 43  1  0  0  0  0
 25 44  1  0  0  0  0
 25 45  1  0  0  0  0
 26 46  1  0  0  0  0
 26 47  1  0  0  0  0
 27 48  1  0  0  0  0
 27 49  1  0  0  0  0
 28 50  1  0  0  0  0
 28 51  1  0  0  0  0
 29 52  1  0  0  0  0
 29 53  1  0  0  0  0
 30 54  1  0  0  0  0
 30 55  1  0  0  0  0
M  END
> <Name>
41

> <IC50[uM]>
0.006

$$$$
41
  -OEChem-05192314333D
 Structure written by MMmdl.
 55 59  0     1  0  0  0  0  0999 V2000
   -6.3365   12.3514  -12.0169 C   0  0  0  0  0  0  0  0  0  0  0  0
   -6.4737   11.7818  -10.7533 C   0  0  0  0  0  0  0  0  0  0  0  0
   -7.7043   10.5771  -13.0419 C   0  0  0  0  0  0  0  0  0  0  0  0
   -6.9700   11.7706  -13.1413 C   0  0  0  0  0  0  0  0  0  0  0  0
   -7.8117   10.0060  -11.7679 C   0  0  3  0  0  0  0  0  0  0  0  0
   -7.2142   10.6153  -10.6085 C   0  0  0  0  0  0  0  0  0  0  0  0
   -7.6079    9.7475   -9.5180 C   0  0  0  0  0  0  0  0  0  0  0  0
   -8.2848    8.7450   -9.9896 N   0  0  0  0  0  0  0  0  0  0  0  0
   -8.4180    8.8715  -11.3012 N   0  0  0  0  0  0  0  0  0  0  0  0
   -7.3345    9.8877   -8.0248 C   0  0  0  0  0  0  0  0  0  0  0  0
   -4.3847   13.7235  -11.4418 N   0  0  0  0  0  0  0  0  0  0  0  0
   -5.5533   13.6485  -12.1711 C   0  0  0  0  0  0  0  0  0  0  0  0
   -5.9795   14.5724  -12.8566 O   0  0  0  0  0  0  0  0  0  0  0  0
   -5.9627   10.4850   -7.7364 C   0  0  0  0  0  0  0  0  0  0  0  0
   -5.8552   11.7581   -7.1652 C   0  0  0  0  0  0  0  0  0  0  0  0
   -4.5966   12.3060   -6.9181 C   0  0  0  0  0  0  0  0  0  0  0  0
   -3.4424   11.5865   -7.2381 C   0  0  0  0  0  0  0  0  0  0  0  0
   -3.5593   10.3139   -7.8013 C   0  0  0  0  0  0  0  0  0  0  0  0
   -4.8122    9.7647   -8.0513 C   0  0  0  0  0  0  0  0  0  0  0  0
   -2.0942   12.1662   -6.9781 C   0  0  0  0  0  0  0  0  0  0  0  0
   -1.7414   13.4274   -6.4937 C   0  0  0  0  0  0  0  0  0  0  0  0
   -0.4089   13.4560   -6.4321 N   0  0  3  0  0  0  0  0  0  0  0  0
    0.1814   12.3590   -6.8068 N   0  0  0  0  0  0  0  0  0  0  0  0
   -0.8029   11.5527   -7.1728 C   0  0  0  0  0  0  0  0  0  0  0  0
    0.4236   14.5699   -5.9945 C   0  0  0  0  0  0  0  0  0  0  0  0
   -3.7594   15.0422  -11.2114 C   0  0  0  0  0  0  0  0  0  0  0  0
   -2.3424   15.0924  -11.7154 C   0  0  0  0  0  0  0  0  0  0  0  0
   -1.5130   13.9202  -11.2644 C   0  0  0  0  0  0  0  0  0  0  0  0
   -2.1771   12.5990  -11.6641 C   0  0  0  0  0  0  0  0  0  0  0  0
   -3.6239   12.4833  -11.0641 C   0  0  0  0  0  0  0  0  0  0  0  0
   -6.0088   12.2426   -9.8942 H   0  0  0  0  0  0  0  0  0  0  0  0
   -8.1640   10.1218  -13.9067 H   0  0  0  0  0  0  0  0  0  0  0  0
   -6.8867   12.2580  -14.1015 H   0  0  0  0  0  0  0  0  0  0  0  0
   -8.7368   10.5741  -11.5905 H   0  0  0  0  0  0  0  0  0  0  0  0
   -8.0354    9.5960   -7.2566 H   0  0  0  0  0  0  0  0  0  0  0  0
   -6.7459   12.3157   -6.9160 H   0  0  0  0  0  0  0  0  0  0  0  0
   -4.5140   13.2889   -6.4783 H   0  0  0  0  0  0  0  0  0  0  0  0
   -2.6697    9.7519   -8.0446 H   0  0  0  0  0  0  0  0  0  0  0  0
   -4.8934    8.7808   -8.4891 H   0  0  0  0  0  0  0  0  0  0  0  0
   -2.1062   14.2106   -7.1745 H   0  0  0  0  0  0  0  0  0  0  0  0
   -2.1705   13.5826   -5.4928 H   0  0  0  0  0  0  0  0  0  0  0  0
   -0.6572   10.5584   -7.5683 H   0  0  0  0  0  0  0  0  0  0  0  0
    1.4836   14.2826   -6.0565 H   0  0  0  0  0  0  0  0  0  0  0  0
    0.2413   15.4403   -6.6420 H   0  0  0  0  0  0  0  0  0  0  0  0
    0.1739   14.8277   -4.9547 H   0  0  0  0  0  0  0  0  0  0  0  0
   -4.3489   15.8104  -11.7333 H   0  0  0  0  0  0  0  0  0  0  0  0
   -3.7594   15.2509  -10.1314 H   0  0  0  0  0  0  0  0  0  0  0  0
   -2.3623   15.1046  -12.8152 H   0  0  0  0  0  0  0  0  0  0  0  0
   -1.8724   16.0161  -11.3469 H   0  0  0  0  0  0  0  0  0  0  0  0
   -0.5191   13.9803  -11.7319 H   0  0  0  0  0  0  0  0  0  0  0  0
   -1.4061   13.9537  -10.1701 H   0  0  0  0  0  0  0  0  0  0  0  0
   -2.2388   12.5464  -12.7611 H   0  0  0  0  0  0  0  0  0  0  0  0
   -1.5665   11.7637  -11.2908 H   0  0  0  0  0  0  0  0  0  0  0  0
   -3.5680   12.3989   -9.9688 H   0  0  0  0  0  0  0  0  0  0  0  0
   -4.1284   11.5964  -11.4749 H   0  0  0  0  0  0  0  0  0  0  0  0
  1  2  2  0  0  0  0
  1  4  1  0  0  0  0
  1 12  1  0  0  0  0
  2  6  1  0  0  0  0
  3  4  2  0  0  0  0
  3  5  1  0  0  0  0
  5  6  1  0  0  0  0
  5  9  1  0  0  0  0
  6  7  2  0  0  0  0
  7  8  1  0  0  0  0
  7 10  1  0  0  0  0
  8  9  2  0  0  0  0
 10 14  2  0  0  0  0
 11 12  1  0  0  0  0
 11 26  1  0  0  0  0
 11 30  1  0  0  0  0
 12 13  2  0  0  0  0
 14 15  1  0  0  0  0
 14 19  1  0  0  0  0
 15 16  2  0  0  0  0
 16 17  1  0  0  0  0
 17 18  1  0  0  0  0
 17 20  2  0  0  0  0
 18 19  2  0  0  0  0
 20 21  1  0  0  0  0
 20 24  1  0  0  0  0
 21 22  1  0  0  0  0
 22 23  1  0  0  0  0
 22 25  1  0  0  0  0
 23 24  2  0  0  0  0
 26 27  1  0  0  0  0
 27 28  1  0  0  0  0
 28 29  1  0  0  0  0
 29 30  1  0  0  0  0
  2 31  1  0  0  0  0
  3 32  1  0  0  0  0
  4 33  1  0  0  0  0
  5 34  1  0  0  0  0
 10 35  1  0  0  0  0
 15 36  1  0  0  0  0
 16 37  1  0  0  0  0
 18 38  1  0  0  0  0
 19 39  1  0  0  0  0
 21 40  1  0  0  0  0
 21 41  1  0  0  0  0
 24 42  1  0  0  0  0
 25 43  1  0  0  0  0
 25 44  1  0  0  0  0
 25 45  1  0  0  0  0
 26 46  1  0  0  0  0
 26 47  1  0  0  0  0
 27 48  1  0  0  0  0
 27 49  1  0  0  0  0
 28 50  1  0  0  0  0
 28 51  1  0  0  0  0
 29 52  1  0  0  0  0
 29 53  1  0  0  0  0
 30 54  1  0  0  0  0
 30 55  1  0  0  0  0
M  END
> <Name>
41

> <IC50[uM]>
0.006

$$$$
41
  -OEChem-05192314333D
 Structure written by MMmdl.
 55 59  0     1  0  0  0  0  0999 V2000
   -6.3365   12.3514  -12.0169 C   0  0  0  0  0  0  0  0  0  0  0  0
   -6.4737   11.7818  -10.7533 C   0  0  0  0  0  0  0  0  0  0  0  0
   -7.7043   10.5771  -13.0419 C   0  0  0  0  0  0  0  0  0  0  0  0
   -6.9700   11.7706  -13.1413 C   0  0  0  0  0  0  0  0  0  0  0  0
   -7.8117   10.0060  -11.7679 C   0  0  0  0  0  0  0  0  0  0  0  0
   -7.2142   10.6153  -10.6085 C   0  0  0  0  0  0  0  0  0  0  0  0
   -7.6079    9.7475   -9.5180 C   0  0  0  0  0  0  0  0  0  0  0  0
   -8.2848    8.7450   -9.9896 N   0  0  0  0  0  0  0  0  0  0  0  0
   -8.4180    8.8715  -11.3012 N   0  0  0  0  0  0  0  0  0  0  0  0
   -7.3345    9.8877   -8.0248 C   0  0  0  0  0  0  0  0  0  0  0  0
   -4.3847   13.7235  -11.4418 N   0  0  0  0  0  0  0  0  0  0  0  0
   -5.5533   13.6485  -12.1711 C   0  0  0  0  0  0  0  0  0  0  0  0
   -5.9795   14.5724  -12.8566 O   0  0  0  0  0  0  0  0  0  0  0  0
   -5.9627   10.4850   -7.7364 C   0  0  0  0  0  0  0  0  0  0  0  0
   -5.8552   11.7581   -7.1652 C   0  0  0  0  0  0  0  0  0  0  0  0
   -4.5966   12.3060   -6.9181 C   0  0  0  0  0  0  0  0  0  0  0  0
   -3.4424   11.5865   -7.2381 C   0  0  0  0  0  0  0  0  0  0  0  0
   -3.5593   10.3139   -7.8013 C   0  0  0  0  0  0  0  0  0  0  0  0
   -4.8122    9.7647   -8.0513 C   0  0  0  0  0  0  0  0  0  0  0  0
   -2.0942   12.1662   -6.9781 C   0  0  0  0  0  0  0  0  0  0  0  0
   -1.7414   13.4274   -6.4937 C   0  0  0  0  0  0  0  0  0  0  0  0
   -0.4089   13.4560   -6.4321 N   0  0  3  0  0  0  0  0  0  0  0  0
    0.1814   12.3590   -6.8068 N   0  0  0  0  0  0  0  0  0  0  0  0
   -0.8029   11.5527   -7.1728 C   0  0  0  0  0  0  0  0  0  0  0  0
    0.4236   14.5699   -5.9945 C   0  0  0  0  0  0  0  0  0  0  0  0
   -3.7594   15.0422  -11.2114 C   0  0  0  0  0  0  0  0  0  0  0  0
   -2.3424   15.0924  -11.7154 C   0  0  0  0  0  0  0  0  0  0  0  0
   -1.5130   13.9202  -11.2644 C   0  0  0  0  0  0  0  0  0  0  0  0
   -2.1771   12.5990  -11.6641 C   0  0  0  0  0  0  0  0  0  0  0  0
   -3.6239   12.4833  -11.0641 C   0  0  0  0  0  0  0  0  0  0  0  0
   -6.0088   12.2426   -9.8942 H   0  0  0  0  0  0  0  0  0  0  0  0
   -8.1640   10.1218  -13.9067 H   0  0  0  0  0  0  0  0  0  0  0  0
   -7.6647   12.5293  -13.5308 H   0  0  0  0  0  0  0  0  0  0  0  0
   -6.1773   11.5851  -13.8810 H   0  0  0  0  0  0  0  0  0  0  0  0
   -8.0354    9.5960   -7.2566 H   0  0  0  0  0  0  0  0  0  0  0  0
   -6.7459   12.3157   -6.9160 H   0  0  0  0  0  0  0  0  0  0  0  0
   -4.5140   13.2889   -6.4783 H   0  0  0  0  0  0  0  0  0  0  0  0
   -2.6697    9.7519   -8.0446 H   0  0  0  0  0  0  0  0  0  0  0  0
   -4.8934    8.7808   -8.4891 H   0  0  0  0  0  0  0  0  0  0  0  0
   -2.1062   14.2106   -7.1745 H   0  0  0  0  0  0  0  0  0  0  0  0
   -2.1705   13.5826   -5.4928 H   0  0  0  0  0  0  0  0  0  0  0  0
   -0.6572   10.5584   -7.5683 H   0  0  0  0  0  0  0  0  0  0  0  0
    1.4836   14.2826   -6.0565 H   0  0  0  0  0  0  0  0  0  0  0  0
    0.2413   15.4403   -6.6420 H   0  0  0  0  0  0  0  0  0  0  0  0
    0.1739   14.8277   -4.9547 H   0  0  0  0  0  0  0  0  0  0  0  0
   -4.3489   15.8104  -11.7333 H   0  0  0  0  0  0  0  0  0  0  0  0
   -3.7594   15.2509  -10.1314 H   0  0  0  0  0  0  0  0  0  0  0  0
   -2.3623   15.1046  -12.8152 H   0  0  0  0  0  0  0  0  0  0  0  0
   -1.8724   16.0161  -11.3469 H   0  0  0  0  0  0  0  0  0  0  0  0
   -0.5191   13.9803  -11.7319 H   0  0  0  0  0  0  0  0  0  0  0  0
   -1.4061   13.9537  -10.1701 H   0  0  0  0  0  0  0  0  0  0  0  0
   -2.2388   12.5464  -12.7611 H   0  0  0  0  0  0  0  0  0  0  0  0
   -1.5665   11.7637  -11.2908 H   0  0  0  0  0  0  0  0  0  0  0  0
   -3.5680   12.3989   -9.9688 H   0  0  0  0  0  0  0  0  0  0  0  0
   -4.1284   11.5964  -11.4749 H   0  0  0  0  0  0  0  0  0  0  0  0
  1  2  2  0  0  0  0
  1  4  1  0  0  0  0
  1 12  1  0  0  0  0
  2  6  1  0  0  0  0
  3  4  1  0  0  0  0
  3  5  2  0  0  0  0
  5  6  1  0  0  0  0
  5  9  1  0  0  0  0
  6  7  2  0  0  0  0
  7  8  1  0  0  0  0
  7 10  1  0  0  0  0
  8  9  2  0  0  0  0
 10 14  2  0  0  0  0
 11 12  1  0  0  0  0
 11 26  1  0  0  0  0
 11 30  1  0  0  0  0
 12 13  2  0  0  0  0
 14 15  1  0  0  0  0
 14 19  1  0  0  0  0
 15 16  2  0  0  0  0
 16 17  1  0  0  0  0
 17 18  1  0  0  0  0
 17 20  2  0  0  0  0
 18 19  2  0  0  0  0
 20 21  1  0  0  0  0
 20 24  1  0  0  0  0
 21 22  1  0  0  0  0
 22 23  1  0  0  0  0
 22 25  1  0  0  0  0
 23 24  2  0  0  0  0
 26 27  1  0  0  0  0
 27 28  1  0  0  0  0
 28 29  1  0  0  0  0
 29 30  1  0  0  0  0
  2 31  1  0  0  0  0
  3 32  1  0  0  0  0
  4 33  1  0  0  0  0
  4 34  1  0  0  0  0
 10 35  1  0  0  0  0
 15 36  1  0  0  0  0
 16 37  1  0  0  0  0
 18 38  1  0  0  0  0
 19 39  1  0  0  0  0
 21 40  1  0  0  0  0
 21 41  1  0  0  0  0
 24 42  1  0  0  0  0
 25 43  1  0  0  0  0
 25 44  1  0  0  0  0
 25 45  1  0  0  0  0
 26 46  1  0  0  0  0
 26 47  1  0  0  0  0
 27 48  1  0  0  0  0
 27 49  1  0  0  0  0
 28 50  1  0  0  0  0
 28 51  1  0  0  0  0
 29 52  1  0  0  0  0
 29 53  1  0  0  0  0
 30 54  1  0  0  0  0
 30 55  1  0  0  0  0
M  END
> <Name>
41

> <IC50[uM]>
0.006

$$$$
41
  -OEChem-05192314333D
 Structure written by MMmdl.
 55 59  0     1  0  0  0  0  0999 V2000
   -6.3365   12.3514  -12.0169 C   0  0  0  0  0  0  0  0  0  0  0  0
   -6.4737   11.7818  -10.7533 C   0  0  0  0  0  0  0  0  0  0  0  0
   -7.7043   10.5771  -13.0419 C   0  0  0  0  0  0  0  0  0  0  0  0
   -6.9700   11.7706  -13.1413 C   0  0  0  0  0  0  0  0  0  0  0  0
   -7.8117   10.0060  -11.7679 C   0  0  0  0  0  0  0  0  0  0  0  0
   -7.2142   10.6153  -10.6085 C   0  0  0  0  0  0  0  0  0  0  0  0
   -7.6079    9.7475   -9.5180 C   0  0  0  0  0  0  0  0  0  0  0  0
   -8.2848    8.7450   -9.9896 N   0  0  0  0  0  0  0  0  0  0  0  0
   -8.4180    8.8715  -11.3012 N   0  0  0  0  0  0  0  0  0  0  0  0
   -7.3345    9.8877   -8.0248 C   0  0  0  0  0  0  0  0  0  0  0  0
   -4.3847   13.7235  -11.4418 N   0  0  0  0  0  0  0  0  0  0  0  0
   -5.5533   13.6485  -12.1711 C   0  0  0  0  0  0  0  0  0  0  0  0
   -5.9795   14.5724  -12.8566 O   0  0  0  0  0  0  0  0  0  0  0  0
   -5.9627   10.4850   -7.7364 C   0  0  0  0  0  0  0  0  0  0  0  0
   -5.8552   11.7581   -7.1652 C   0  0  0  0  0  0  0  0  0  0  0  0
   -4.5966   12.3060   -6.9181 C   0  0  0  0  0  0  0  0  0  0  0  0
   -3.4424   11.5865   -7.2381 C   0  0  0  0  0  0  0  0  0  0  0  0
   -3.5593   10.3139   -7.8013 C   0  0  0  0  0  0  0  0  0  0  0  0
   -4.8122    9.7647   -8.0513 C   0  0  0  0  0  0  0  0  0  0  0  0
   -2.0942   12.1662   -6.9781 C   0  0  0  0  0  0  0  0  0  0  0  0
   -1.7414   13.4274   -6.4937 C   0  0  0  0  0  0  0  0  0  0  0  0
   -0.4089   13.4560   -6.4321 N   0  0  3  0  0  0  0  0  0  0  0  0
    0.1814   12.3590   -6.8068 N   0  0  0  0  0  0  0  0  0  0  0  0
   -0.8029   11.5527   -7.1728 C   0  0  0  0  0  0  0  0  0  0  0  0
    0.4236   14.5699   -5.9945 C   0  0  0  0  0  0  0  0  0  0  0  0
   -3.7594   15.0422  -11.2114 C   0  0  0  0  0  0  0  0  0  0  0  0
   -2.3424   15.0924  -11.7154 C   0  0  0  0  0  0  0  0  0  0  0  0
   -1.5130   13.9202  -11.2644 C   0  0  0  0  0  0  0  0  0  0  0  0
   -2.1771   12.5990  -11.6641 C   0  0  0  0  0  0  0  0  0  0  0  0
   -3.6239   12.4833  -11.0641 C   0  0  0  0  0  0  0  0  0  0  0  0
   -5.4592   11.5650  -10.3875 H   0  0  0  0  0  0  0  0  0  0  0  0
   -6.9415   12.5405  -10.1087 H   0  0  0  0  0  0  0  0  0  0  0  0
   -8.1640   10.1218  -13.9067 H   0  0  0  0  0  0  0  0  0  0  0  0
   -6.8867   12.2580  -14.1015 H   0  0  0  0  0  0  0  0  0  0  0  0
   -8.0354    9.5960   -7.2566 H   0  0  0  0  0  0  0  0  0  0  0  0
   -6.7459   12.3157   -6.9160 H   0  0  0  0  0  0  0  0  0  0  0  0
   -4.5140   13.2889   -6.4783 H   0  0  0  0  0  0  0  0  0  0  0  0
   -2.6697    9.7519   -8.0446 H   0  0  0  0  0  0  0  0  0  0  0  0
   -4.8934    8.7808   -8.4891 H   0  0  0  0  0  0  0  0  0  0  0  0
   -2.1062   14.2106   -7.1745 H   0  0  0  0  0  0  0  0  0  0  0  0
   -2.1705   13.5826   -5.4928 H   0  0  0  0  0  0  0  0  0  0  0  0
   -0.6572   10.5584   -7.5683 H   0  0  0  0  0  0  0  0  0  0  0  0
    1.4836   14.2826   -6.0565 H   0  0  0  0  0  0  0  0  0  0  0  0
    0.2413   15.4403   -6.6420 H   0  0  0  0  0  0  0  0  0  0  0  0
    0.1739   14.8277   -4.9547 H   0  0  0  0  0  0  0  0  0  0  0  0
   -4.3489   15.8104  -11.7333 H   0  0  0  0  0  0  0  0  0  0  0  0
   -3.7594   15.2509  -10.1314 H   0  0  0  0  0  0  0  0  0  0  0  0
   -2.3623   15.1046  -12.8152 H   0  0  0  0  0  0  0  0  0  0  0  0
   -1.8724   16.0161  -11.3469 H   0  0  0  0  0  0  0  0  0  0  0  0
   -0.5191   13.9803  -11.7319 H   0  0  0  0  0  0  0  0  0  0  0  0
   -1.4061   13.9537  -10.1701 H   0  0  0  0  0  0  0  0  0  0  0  0
   -2.2388   12.5464  -12.7611 H   0  0  0  0  0  0  0  0  0  0  0  0
   -1.5665   11.7637  -11.2908 H   0  0  0  0  0  0  0  0  0  0  0  0
   -3.5680   12.3989   -9.9688 H   0  0  0  0  0  0  0  0  0  0  0  0
   -4.1284   11.5964  -11.4749 H   0  0  0  0  0  0  0  0  0  0  0  0
  1  2  1  0  0  0  0
  1  4  2  0  0  0  0
  1 12  1  0  0  0  0
  2  6  1  0  0  0  0
  3  4  1  0  0  0  0
  3  5  2  0  0  0  0
  5  6  1  0  0  0  0
  5  9  1  0  0  0  0
  6  7  2  0  0  0  0
  7  8  1  0  0  0  0
  7 10  1  0  0  0  0
  8  9  2  0  0  0  0
 10 14  2  0  0  0  0
 11 12  1  0  0  0  0
 11 26  1  0  0  0  0
 11 30  1  0  0  0  0
 12 13  2  0  0  0  0
 14 15  1  0  0  0  0
 14 19  1  0  0  0  0
 15 16  2  0  0  0  0
 16 17  1  0  0  0  0
 17 18  1  0  0  0  0
 17 20  2  0  0  0  0
 18 19  2  0  0  0  0
 20 21  1  0  0  0  0
 20 24  1  0  0  0  0
 21 22  1  0  0  0  0
 22 23  1  0  0  0  0
 22 25  1  0  0  0  0
 23 24  2  0  0  0  0
 26 27  1  0  0  0  0
 27 28  1  0  0  0  0
 28 29  1  0  0  0  0
 29 30  1  0  0  0  0
  2 31  1  0  0  0  0
  2 32  1  0  0  0  0
  3 33  1  0  0  0  0
  4 34  1  0  0  0  0
 10 35  1  0  0  0  0
 15 36  1  0  0  0  0
 16 37  1  0  0  0  0
 18 38  1  0  0  0  0
 19 39  1  0  0  0  0
 21 40  1  0  0  0  0
 21 41  1  0  0  0  0
 24 42  1  0  0  0  0
 25 43  1  0  0  0  0
 25 44  1  0  0  0  0
 25 45  1  0  0  0  0
 26 46  1  0  0  0  0
 26 47  1  0  0  0  0
 27 48  1  0  0  0  0
 27 49  1  0  0  0  0
 28 50  1  0  0  0  0
 28 51  1  0  0  0  0
 29 52  1  0  0  0  0
 29 53  1  0  0  0  0
 30 54  1  0  0  0  0
 30 55  1  0  0  0  0
M  END
> <Name>
41

> <IC50[uM]>
0.006

$$$$
41
  -OEChem-05192314333D
 Structure written by MMmdl.
 55 59  0     1  0  0  0  0  0999 V2000
   -6.3365   12.3514  -12.0169 C   0  0  3  0  0  0  0  0  0  0  0  0
   -6.4737   11.7818  -10.7533 C   0  0  0  0  0  0  0  0  0  0  0  0
   -7.7043   10.5771  -13.0419 C   0  0  0  0  0  0  0  0  0  0  0  0
   -6.9700   11.7706  -13.1413 C   0  0  0  0  0  0  0  0  0  0  0  0
   -7.8117   10.0060  -11.7679 C   0  0  0  0  0  0  0  0  0  0  0  0
   -7.2142   10.6153  -10.6085 C   0  0  0  0  0  0  0  0  0  0  0  0
   -7.6079    9.7475   -9.5180 C   0  0  0  0  0  0  0  0  0  0  0  0
   -8.2848    8.7450   -9.9896 N   0  0  0  0  0  0  0  0  0  0  0  0
   -8.4180    8.8715  -11.3012 N   0  0  0  0  0  0  0  0  0  0  0  0
   -7.3345    9.8877   -8.0248 C   0  0  0  0  0  0  0  0  0  0  0  0
   -4.3847   13.7235  -11.4418 N   0  0  0  0  0  0  0  0  0  0  0  0
   -5.5533   13.6485  -12.1711 C   0  0  0  0  0  0  0  0  0  0  0  0
   -5.9795   14.5724  -12.8566 O   0  0  0  0  0  0  0  0  0  0  0  0
   -5.9627   10.4850   -7.7364 C   0  0  0  0  0  0  0  0  0  0  0  0
   -5.8552   11.7581   -7.1652 C   0  0  0  0  0  0  0  0  0  0  0  0
   -4.5966   12.3060   -6.9181 C   0  0  0  0  0  0  0  0  0  0  0  0
   -3.4424   11.5865   -7.2381 C   0  0  0  0  0  0  0  0  0  0  0  0
   -3.5593   10.3139   -7.8013 C   0  0  0  0  0  0  0  0  0  0  0  0
   -4.8122    9.7647   -8.0513 C   0  0  0  0  0  0  0  0  0  0  0  0
   -2.0942   12.1662   -6.9781 C   0  0  0  0  0  0  0  0  0  0  0  0
   -1.7414   13.4274   -6.4937 C   0  0  0  0  0  0  0  0  0  0  0  0
   -0.4089   13.4560   -6.4321 N   0  0  0  0  0  0  0  0  0  0  0  0
    0.1814   12.3590   -6.8068 N   0  0  0  0  0  0  0  0  0  0  0  0
   -0.8029   11.5527   -7.1728 C   0  0  0  0  0  0  0  0  0  0  0  0
    0.4236   14.5699   -5.9945 C   0  0  0  0  0  0  0  0  0  0  0  0
   -3.7594   15.0422  -11.2114 C   0  0  0  0  0  0  0  0  0  0  0  0
   -2.3424   15.0924  -11.7154 C   0  0  0  0  0  0  0  0  0  0  0  0
   -1.5130   13.9202  -11.2644 C   0  0  0  0  0  0  0  0  0  0  0  0
   -2.1771   12.5990  -11.6641 C   0  0  0  0  0  0  0  0  0  0  0  0
   -3.6239   12.4833  -11.0641 C   0  0  0  0  0  0  0  0  0  0  0  0
   -5.4270   11.7615  -12.2032 H   0  0  0  0  0  0  0  0  0  0  0  0
   -6.0088   12.2426   -9.8942 H   0  0  0  0  0  0  0  0  0  0  0  0
   -8.1640   10.1218  -13.9067 H   0  0  0  0  0  0  0  0  0  0  0  0
   -6.8867   12.2580  -14.1015 H   0  0  0  0  0  0  0  0  0  0  0  0
   -8.0354    9.5960   -7.2566 H   0  0  0  0  0  0  0  0  0  0  0  0
   -6.7459   12.3157   -6.9160 H   0  0  0  0  0  0  0  0  0  0  0  0
   -4.5140   13.2889   -6.4783 H   0  0  0  0  0  0  0  0  0  0  0  0
   -3.4416   12.0327   -8.2435 H   0  0  0  0  0  0  0  0  0  0  0  0
   -2.6697    9.7519   -8.0446 H   0  0  0  0  0  0  0  0  0  0  0  0
   -4.8934    8.7808   -8.4891 H   0  0  0  0  0  0  0  0  0  0  0  0
   -2.4165   14.2253   -6.2216 H   0  0  0  0  0  0  0  0  0  0  0  0
   -0.6572   10.5584   -7.5683 H   0  0  0  0  0  0  0  0  0  0  0  0
    1.4836   14.2826   -6.0565 H   0  0  0  0  0  0  0  0  0  0  0  0
    0.2413   15.4403   -6.6420 H   0  0  0  0  0  0  0  0  0  0  0  0
    0.1739   14.8277   -4.9547 H   0  0  0  0  0  0  0  0  0  0  0  0
   -4.3489   15.8104  -11.7333 H   0  0  0  0  0  0  0  0  0  0  0  0
   -3.7594   15.2509  -10.1314 H   0  0  0  0  0  0  0  0  0  0  0  0
   -2.3623   15.1046  -12.8152 H   0  0  0  0  0  0  0  0  0  0  0  0
   -1.8724   16.0161  -11.3469 H   0  0  0  0  0  0  0  0  0  0  0  0
   -0.5191   13.9803  -11.7319 H   0  0  0  0  0  0  0  0  0  0  0  0
   -1.4061   13.9537  -10.1701 H   0  0  0  0  0  0  0  0  0  0  0  0
   -2.2388   12.5464  -12.7611 H   0  0  0  0  0  0  0  0  0  0  0  0
   -1.5665   11.7637  -11.2908 H   0  0  0  0  0  0  0  0  0  0  0  0
   -3.5680   12.3989   -9.9688 H   0  0  0  0  0  0  0  0  0  0  0  0
   -4.1284   11.5964  -11.4749 H   0  0  0  0  0  0  0  0  0  0  0  0
  1  2  1  0  0  0  0
  1  4  1  0  0  0  0
  1 12  1  0  0  0  0
  2  6  2  0  0  0  0
  3  4  2  0  0  0  0
  3  5  1  0  0  0  0
  5  6  1  0  0  0  0
  5  9  2  0  0  0  0
  6  7  1  0  0  0  0
  7  8  2  0  0  0  0
  7 10  1  0  0  0  0
  8  9  1  0  0  0  0
 10 14  2  0  0  0  0
 11 12  1  0  0  0  0
 11 26  1  0  0  0  0
 11 30  1  0  0  0  0
 12 13  2  0  0  0  0
 14 15  1  0  0  0  0
 14 19  1  0  0  0  0
 15 16  2  0  0  0  0
 16 17  1  0  0  0  0
 17 18  1  0  0  0  0
 17 20  1  0  0  0  0
 18 19  2  0  0  0  0
 20 21  2  0  0  0  0
 20 24  1  0  0  0  0
 21 22  1  0  0  0  0
 22 23  1  0  0  0  0
 22 25  1  0  0  0  0
 23 24  2  0  0  0  0
 26 27  1  0  0  0  0
 27 28  1  0  0  0  0
 28 29  1  0  0  0  0
 29 30  1  0  0  0  0
  1 31  1  0  0  0  0
  2 32  1  0  0  0  0
  3 33  1  0  0  0  0
  4 34  1  0  0  0  0
 10 35  1  0  0  0  0
 15 36  1  0  0  0  0
 16 37  1  0  0  0  0
 17 38  1  0  0  0  0
 18 39  1  0  0  0  0
 19 40  1  0  0  0  0
 21 41  1  0  0  0  0
 24 42  1  0  0  0  0
 25 43  1  0  0  0  0
 25 44  1  0  0  0  0
 25 45  1  0  0  0  0
 26 46  1  0  0  0  0
 26 47  1  0  0  0  0
 27 48  1  0  0  0  0
 27 49  1  0  0  0  0
 28 50  1  0  0  0  0
 28 51  1  0  0  0  0
 29 52  1  0  0  0  0
 29 53  1  0  0  0  0
 30 54  1  0  0  0  0
 30 55  1  0  0  0  0
M  END
> <Name>
41

> <IC50[uM]>
0.006

$$$$
41
  -OEChem-05192314333D
 Structure written by MMmdl.
 55 59  0     1  0  0  0  0  0999 V2000
   -6.3365   12.3514  -12.0169 C   0  0  0  0  0  0  0  0  0  0  0  0
   -6.4737   11.7818  -10.7533 C   0  0  0  0  0  0  0  0  0  0  0  0
   -7.7043   10.5771  -13.0419 C   0  0  0  0  0  0  0  0  0  0  0  0
   -6.9700   11.7706  -13.1413 C   0  0  0  0  0  0  0  0  0  0  0  0
   -7.8117   10.0060  -11.7679 C   0  0  0  0  0  0  0  0  0  0  0  0
   -7.2142   10.6153  -10.6085 C   0  0  3  0  0  0  0  0  0  0  0  0
   -7.6079    9.7475   -9.5180 C   0  0  0  0  0  0  0  0  0  0  0  0
   -8.2848    8.7450   -9.9896 N   0  0  0  0  0  0  0  0  0  0  0  0
   -8.4180    8.8715  -11.3012 N   0  0  0  0  0  0  0  0  0  0  0  0
   -7.3345    9.8877   -8.0248 C   0  0  0  0  0  0  0  0  0  0  0  0
   -4.3847   13.7235  -11.4418 N   0  0  0  0  0  0  0  0  0  0  0  0
   -5.5533   13.6485  -12.1711 C   0  0  0  0  0  0  0  0  0  0  0  0
   -5.9795   14.5724  -12.8566 O   0  0  0  0  0  0  0  0  0  0  0  0
   -5.9627   10.4850   -7.7364 C   0  0  0  0  0  0  0  0  0  0  0  0
   -5.8552   11.7581   -7.1652 C   0  0  0  0  0  0  0  0  0  0  0  0
   -4.5966   12.3060   -6.9181 C   0  0  0  0  0  0  0  0  0  0  0  0
   -3.4424   11.5865   -7.2381 C   0  0  0  0  0  0  0  0  0  0  0  0
   -3.5593   10.3139   -7.8013 C   0  0  0  0  0  0  0  0  0  0  0  0
   -4.8122    9.7647   -8.0513 C   0  0  0  0  0  0  0  0  0  0  0  0
   -2.0942   12.1662   -6.9781 C   0  0  0  0  0  0  0  0  0  0  0  0
   -1.7414   13.4274   -6.4937 C   0  0  0  0  0  0  0  0  0  0  0  0
   -0.4089   13.4560   -6.4321 N   0  0  0  0  0  0  0  0  0  0  0  0
    0.1814   12.3590   -6.8068 N   0  0  0  0  0  0  0  0  0  0  0  0
   -0.8029   11.5527   -7.1728 C   0  0  0  0  0  0  0  0  0  0  0  0
    0.4236   14.5699   -5.9945 C   0  0  0  0  0  0  0  0  0  0  0  0
   -3.7594   15.0422  -11.2114 C   0  0  0  0  0  0  0  0  0  0  0  0
   -2.3424   15.0924  -11.7154 C   0  0  0  0  0  0  0  0  0  0  0  0
   -1.5130   13.9202  -11.2644 C   0  0  0  0  0  0  0  0  0  0  0  0
   -2.1771   12.5990  -11.6641 C   0  0  0  0  0  0  0  0  0  0  0  0
   -3.6239   12.4833  -11.0641 C   0  0  0  0  0  0  0  0  0  0  0  0
   -6.0088   12.2426   -9.8942 H   0  0  0  0  0  0  0  0  0  0  0  0
   -8.1640   10.1218  -13.9067 H   0  0  0  0  0  0  0  0  0  0  0  0
   -6.8867   12.2580  -14.1015 H   0  0  0  0  0  0  0  0  0  0  0  0
   -6.3042   10.0161  -10.7598 H   0  0  0  0  0  0  0  0  0  0  0  0
   -8.0354    9.5960   -7.2566 H   0  0  0  0  0  0  0  0  0  0  0  0
   -6.7459   12.3157   -6.9160 H   0  0  0  0  0  0  0  0  0  0  0  0
   -4.5140   13.2889   -6.4783 H   0  0  0  0  0  0  0  0  0  0  0  0
   -3.4416   12.0327   -8.2435 H   0  0  0  0  0  0  0  0  0  0  0  0
   -2.6697    9.7519   -8.0446 H   0  0  0  0  0  0  0  0  0  0  0  0
   -4.8934    8.7808   -8.4891 H   0  0  0  0  0  0  0  0  0  0  0  0
   -2.4165   14.2253   -6.2216 H   0  0  0  0  0  0  0  0  0  0  0  0
   -0.6572   10.5584   -7.5683 H   0  0  0  0  0  0  0  0  0  0  0  0
    1.4836   14.2826   -6.0565 H   0  0  0  0  0  0  0  0  0  0  0  0
    0.2413   15.4403   -6.6420 H   0  0  0  0  0  0  0  0  0  0  0  0
    0.1739   14.8277   -4.9547 H   0  0  0  0  0  0  0  0  0  0  0  0
   -4.3489   15.8104  -11.7333 H   0  0  0  0  0  0  0  0  0  0  0  0
   -3.7594   15.2509  -10.1314 H   0  0  0  0  0  0  0  0  0  0  0  0
   -2.3623   15.1046  -12.8152 H   0  0  0  0  0  0  0  0  0  0  0  0
   -1.8724   16.0161  -11.3469 H   0  0  0  0  0  0  0  0  0  0  0  0
   -0.5191   13.9803  -11.7319 H   0  0  0  0  0  0  0  0  0  0  0  0
   -1.4061   13.9537  -10.1701 H   0  0  0  0  0  0  0  0  0  0  0  0
   -2.2388   12.5464  -12.7611 H   0  0  0  0  0  0  0  0  0  0  0  0
   -1.5665   11.7637  -11.2908 H   0  0  0  0  0  0  0  0  0  0  0  0
   -3.5680   12.3989   -9.9688 H   0  0  0  0  0  0  0  0  0  0  0  0
   -4.1284   11.5964  -11.4749 H   0  0  0  0  0  0  0  0  0  0  0  0
  1  2  2  0  0  0  0
  1  4  1  0  0  0  0
  1 12  1  0  0  0  0
  2  6  1  0  0  0  0
  3  4  2  0  0  0  0
  3  5  1  0  0  0  0
  5  6  1  0  0  0  0
  5  9  2  0  0  0  0
  6  7  1  0  0  0  0
  7  8  2  0  0  0  0
  7 10  1  0  0  0  0
  8  9  1  0  0  0  0
 10 14  2  0  0  0  0
 11 12  1  0  0  0  0
 11 26  1  0  0  0  0
 11 30  1  0  0  0  0
 12 13  2  0  0  0  0
 14 15  1  0  0  0  0
 14 19  1  0  0  0  0
 15 16  2  0  0  0  0
 16 17  1  0  0  0  0
 17 18  1  0  0  0  0
 17 20  1  0  0  0  0
 18 19  2  0  0  0  0
 20 21  2  0  0  0  0
 20 24  1  0  0  0  0
 21 22  1  0  0  0  0
 22 23  1  0  0  0  0
 22 25  1  0  0  0  0
 23 24  2  0  0  0  0
 26 27  1  0  0  0  0
 27 28  1  0  0  0  0
 28 29  1  0  0  0  0
 29 30  1  0  0  0  0
  2 31  1  0  0  0  0
  3 32  1  0  0  0  0
  4 33  1  0  0  0  0
  6 34  1  0  0  0  0
 10 35  1  0  0  0  0
 15 36  1  0  0  0  0
 16 37  1  0  0  0  0
 17 38  1  0  0  0  0
 18 39  1  0  0  0  0
 19 40  1  0  0  0  0
 21 41  1  0  0  0  0
 24 42  1  0  0  0  0
 25 43  1  0  0  0  0
 25 44  1  0  0  0  0
 25 45  1  0  0  0  0
 26 46  1  0  0  0  0
 26 47  1  0  0  0  0
 27 48  1  0  0  0  0
 27 49  1  0  0  0  0
 28 50  1  0  0  0  0
 28 51  1  0  0  0  0
 29 52  1  0  0  0  0
 29 53  1  0  0  0  0
 30 54  1  0  0  0  0
 30 55  1  0  0  0  0
M  END
> <Name>
41

> <IC50[uM]>
0.006

$$$$
41
  -OEChem-05192314333D
 Structure written by MMmdl.
 55 59  0     0  0  0  0  0  0999 V2000
   -6.3365   12.3514  -12.0169 C   0  0  0  0  0  0  0  0  0  0  0  0
   -6.4737   11.7818  -10.7533 C   0  0  0  0  0  0  0  0  0  0  0  0
   -7.7043   10.5771  -13.0419 C   0  0  0  0  0  0  0  0  0  0  0  0
   -6.9700   11.7706  -13.1413 C   0  0  0  0  0  0  0  0  0  0  0  0
   -7.8117   10.0060  -11.7679 C   0  0  0  0  0  0  0  0  0  0  0  0
   -7.2142   10.6153  -10.6085 C   0  0  0  0  0  0  0  0  0  0  0  0
   -7.6079    9.7475   -9.5180 C   0  0  0  0  0  0  0  0  0  0  0  0
   -8.2848    8.7450   -9.9896 N   0  0  0  0  0  0  0  0  0  0  0  0
   -8.4180    8.8715  -11.3012 N   0  0  0  0  0  0  0  0  0  0  0  0
   -7.3345    9.8877   -8.0248 C   0  0  0  0  0  0  0  0  0  0  0  0
   -4.3847   13.7235  -11.4418 N   0  0  0  0  0  0  0  0  0  0  0  0
   -5.5533   13.6485  -12.1711 C   0  0  0  0  0  0  0  0  0  0  0  0
   -5.9795   14.5724  -12.8566 O   0  0  0  0  0  0  0  0  0  0  0  0
   -5.9627   10.4850   -7.7364 C   0  0  0  0  0  0  0  0  0  0  0  0
   -5.8552   11.7581   -7.1652 C   0  0  0  0  0  0  0  0  0  0  0  0
   -4.5966   12.3060   -6.9181 C   0  0  0  0  0  0  0  0  0  0  0  0
   -3.4424   11.5865   -7.2381 C   0  0  0  0  0  0  0  0  0  0  0  0
   -3.5593   10.3139   -7.8013 C   0  0  0  0  0  0  0  0  0  0  0  0
   -4.8122    9.7647   -8.0513 C   0  0  0  0  0  0  0  0  0  0  0  0
   -2.0942   12.1662   -6.9781 C   0  0  0  0  0  0  0  0  0  0  0  0
   -1.7414   13.4274   -6.4937 C   0  0  0  0  0  0  0  0  0  0  0  0
   -0.4089   13.4560   -6.4321 N   0  0  0  0  0  0  0  0  0  0  0  0
    0.1814   12.3590   -6.8068 N   0  0  0  0  0  0  0  0  0  0  0  0
   -0.8029   11.5527   -7.1728 C   0  0  0  0  0  0  0  0  0  0  0  0
    0.4236   14.5699   -5.9945 C   0  0  0  0  0  0  0  0  0  0  0  0
   -3.7594   15.0422  -11.2114 C   0  0  0  0  0  0  0  0  0  0  0  0
   -2.3424   15.0924  -11.7154 C   0  0  0  0  0  0  0  0  0  0  0  0
   -1.5130   13.9202  -11.2644 C   0  0  0  0  0  0  0  0  0  0  0  0
   -2.1771   12.5990  -11.6641 C   0  0  0  0  0  0  0  0  0  0  0  0
   -3.6239   12.4833  -11.0641 C   0  0  0  0  0  0  0  0  0  0  0  0
   -6.0088   12.2426   -9.8942 H   0  0  0  0  0  0  0  0  0  0  0  0
   -8.7234   10.7825  -13.4015 H   0  0  0  0  0  0  0  0  0  0  0  0
   -7.2258    9.8363  -13.6994 H   0  0  0  0  0  0  0  0  0  0  0  0
   -6.8867   12.2580  -14.1015 H   0  0  0  0  0  0  0  0  0  0  0  0
   -8.0354    9.5960   -7.2566 H   0  0  0  0  0  0  0  0  0  0  0  0
   -6.7459   12.3157   -6.9160 H   0  0  0  0  0  0  0  0  0  0  0  0
   -4.5140   13.2889   -6.4783 H   0  0  0  0  0  0  0  0  0  0  0  0
   -3.4416   12.0327   -8.2435 H   0  0  0  0  0  0  0  0  0  0  0  0
   -2.6697    9.7519   -8.0446 H   0  0  0  0  0  0  0  0  0  0  0  0
   -4.8934    8.7808   -8.4891 H   0  0  0  0  0  0  0  0  0  0  0  0
   -2.4165   14.2253   -6.2216 H   0  0  0  0  0  0  0  0  0  0  0  0
   -0.6572   10.5584   -7.5683 H   0  0  0  0  0  0  0  0  0  0  0  0
    1.4836   14.2826   -6.0565 H   0  0  0  0  0  0  0  0  0  0  0  0
    0.2413   15.4403   -6.6420 H   0  0  0  0  0  0  0  0  0  0  0  0
    0.1739   14.8277   -4.9547 H   0  0  0  0  0  0  0  0  0  0  0  0
   -4.3489   15.8104  -11.7333 H   0  0  0  0  0  0  0  0  0  0  0  0
   -3.7594   15.2509  -10.1314 H   0  0  0  0  0  0  0  0  0  0  0  0
   -2.3623   15.1046  -12.8152 H   0  0  0  0  0  0  0  0  0  0  0  0
   -1.8724   16.0161  -11.3469 H   0  0  0  0  0  0  0  0  0  0  0  0
   -0.5191   13.9803  -11.7319 H   0  0  0  0  0  0  0  0  0  0  0  0
   -1.4061   13.9537  -10.1701 H   0  0  0  0  0  0  0  0  0  0  0  0
   -2.2388   12.5464  -12.7611 H   0  0  0  0  0  0  0  0  0  0  0  0
   -1.5665   11.7637  -11.2908 H   0  0  0  0  0  0  0  0  0  0  0  0
   -3.5680   12.3989   -9.9688 H   0  0  0  0  0  0  0  0  0  0  0  0
   -4.1284   11.5964  -11.4749 H   0  0  0  0  0  0  0  0  0  0  0  0
  1  2  1  0  0  0  0
  1  4  2  0  0  0  0
  1 12  1  0  0  0  0
  2  6  2  0  0  0  0
  3  4  1  0  0  0  0
  3  5  1  0  0  0  0
  5  6  1  0  0  0  0
  5  9  2  0  0  0  0
  6  7  1  0  0  0  0
  7  8  2  0  0  0  0
  7 10  1  0  0  0  0
  8  9  1  0  0  0  0
 10 14  2  0  0  0  0
 11 12  1  0  0  0  0
 11 26  1  0  0  0  0
 11 30  1  0  0  0  0
 12 13  2  0  0  0  0
 14 15  1  0  0  0  0
 14 19  1  0  0  0  0
 15 16  2  0  0  0  0
 16 17  1  0  0  0  0
 17 18  1  0  0  0  0
 17 20  1  0  0  0  0
 18 19  2  0  0  0  0
 20 21  2  0  0  0  0
 20 24  1  0  0  0  0
 21 22  1  0  0  0  0
 22 23  1  0  0  0  0
 22 25  1  0  0  0  0
 23 24  2  0  0  0  0
 26 27  1  0  0  0  0
 27 28  1  0  0  0  0
 28 29  1  0  0  0  0
 29 30  1  0  0  0  0
  2 31  1  0  0  0  0
  3 32  1  0  0  0  0
  3 33  1  0  0  0  0
  4 34  1  0  0  0  0
 10 35  1  0  0  0  0
 15 36  1  0  0  0  0
 16 37  1  0  0  0  0
 17 38  1  0  0  0  0
 18 39  1  0  0  0  0
 19 40  1  0  0  0  0
 21 41  1  0  0  0  0
 24 42  1  0  0  0  0
 25 43  1  0  0  0  0
 25 44  1  0  0  0  0
 25 45  1  0  0  0  0
 26 46  1  0  0  0  0
 26 47  1  0  0  0  0
 27 48  1  0  0  0  0
 27 49  1  0  0  0  0
 28 50  1  0  0  0  0
 28 51  1  0  0  0  0
 29 52  1  0  0  0  0
 29 53  1  0  0  0  0
 30 54  1  0  0  0  0
 30 55  1  0  0  0  0
M  END
> <Name>
41

> <IC50[uM]>
0.006

$$$$
41
  -OEChem-05192314333D
 Structure written by MMmdl.
 55 59  0     1  0  0  0  0  0999 V2000
   -6.3365   12.3514  -12.0169 C   0  0  3  0  0  0  0  0  0  0  0  0
   -6.4737   11.7818  -10.7533 C   0  0  0  0  0  0  0  0  0  0  0  0
   -7.7043   10.5771  -13.0419 C   0  0  0  0  0  0  0  0  0  0  0  0
   -6.9700   11.7706  -13.1413 C   0  0  0  0  0  0  0  0  0  0  0  0
   -7.8117   10.0060  -11.7679 C   0  0  0  0  0  0  0  0  0  0  0  0
   -7.2142   10.6153  -10.6085 C   0  0  0  0  0  0  0  0  0  0  0  0
   -7.6079    9.7475   -9.5180 C   0  0  0  0  0  0  0  0  0  0  0  0
   -8.2848    8.7450   -9.9896 N   0  0  0  0  0  0  0  0  0  0  0  0
   -8.4180    8.8715  -11.3012 N   0  0  0  0  0  0  0  0  0  0  0  0
   -7.3345    9.8877   -8.0248 C   0  0  0  0  0  0  0  0  0  0  0  0
   -4.3847   13.7235  -11.4418 N   0  0  0  0  0  0  0  0  0  0  0  0
   -5.5533   13.6485  -12.1711 C   0  0  0  0  0  0  0  0  0  0  0  0
   -5.9795   14.5724  -12.8566 O   0  0  0  0  0  0  0  0  0  0  0  0
   -5.9627   10.4850   -7.7364 C   0  0  0  0  0  0  0  0  0  0  0  0
   -5.8552   11.7581   -7.1652 C   0  0  0  0  0  0  0  0  0  0  0  0
   -4.5966   12.3060   -6.9181 C   0  0  0  0  0  0  0  0  0  0  0  0
   -3.4424   11.5865   -7.2381 C   0  0  0  0  0  0  0  0  0  0  0  0
   -3.5593   10.3139   -7.8013 C   0  0  0  0  0  0  0  0  0  0  0  0
   -4.8122    9.7647   -8.0513 C   0  0  0  0  0  0  0  0  0  0  0  0
   -2.0942   12.1662   -6.9781 C   0  0  0  0  0  0  0  0  0  0  0  0
   -1.7414   13.4274   -6.4937 C   0  0  0  0  0  0  0  0  0  0  0  0
   -0.4089   13.4560   -6.4321 N   0  0  0  0  0  0  0  0  0  0  0  0
    0.1814   12.3590   -6.8068 N   0  0  0  0  0  0  0  0  0  0  0  0
   -0.8029   11.5527   -7.1728 C   0  0  0  0  0  0  0  0  0  0  0  0
    0.4236   14.5699   -5.9945 C   0  0  0  0  0  0  0  0  0  0  0  0
   -3.7594   15.0422  -11.2114 C   0  0  0  0  0  0  0  0  0  0  0  0
   -2.3424   15.0924  -11.7154 C   0  0  0  0  0  0  0  0  0  0  0  0
   -1.5130   13.9202  -11.2644 C   0  0  0  0  0  0  0  0  0  0  0  0
   -2.1771   12.5990  -11.6641 C   0  0  0  0  0  0  0  0  0  0  0  0
   -3.6239   12.4833  -11.0641 C   0  0  0  0  0  0  0  0  0  0  0  0
   -5.4270   11.7615  -12.2032 H   0  0  0  0  0  0  0  0  0  0  0  0
   -6.0088   12.2426   -9.8942 H   0  0  0  0  0  0  0  0  0  0  0  0
   -8.1640   10.1218  -13.9067 H   0  0  0  0  0  0  0  0  0  0  0  0
   -6.8867   12.2580  -14.1015 H   0  0  0  0  0  0  0  0  0  0  0  0
   -8.0354    9.5960   -7.2566 H   0  0  0  0  0  0  0  0  0  0  0  0
   -6.7459   12.3157   -6.9160 H   0  0  0  0  0  0  0  0  0  0  0  0
   -4.5140   13.2889   -6.4783 H   0  0  0  0  0  0  0  0  0  0  0  0
   -2.6697    9.7519   -8.0446 H   0  0  0  0  0  0  0  0  0  0  0  0
   -4.8638    8.8212   -7.4881 H   0  0  0  0  0  0  0  0  0  0  0  0
   -4.8562    9.5510   -9.1294 H   0  0  0  0  0  0  0  0  0  0  0  0
   -2.4165   14.2253   -6.2216 H   0  0  0  0  0  0  0  0  0  0  0  0
   -0.6572   10.5584   -7.5683 H   0  0  0  0  0  0  0  0  0  0  0  0
    1.4836   14.2826   -6.0565 H   0  0  0  0  0  0  0  0  0  0  0  0
    0.2413   15.4403   -6.6420 H   0  0  0  0  0  0  0  0  0  0  0  0
    0.1739   14.8277   -4.9547 H   0  0  0  0  0  0  0  0  0  0  0  0
   -4.3489   15.8104  -11.7333 H   0  0  0  0  0  0  0  0  0  0  0  0
   -3.7594   15.2509  -10.1314 H   0  0  0  0  0  0  0  0  0  0  0  0
   -2.3623   15.1046  -12.8152 H   0  0  0  0  0  0  0  0  0  0  0  0
   -1.8724   16.0161  -11.3469 H   0  0  0  0  0  0  0  0  0  0  0  0
   -0.5191   13.9803  -11.7319 H   0  0  0  0  0  0  0  0  0  0  0  0
   -1.4061   13.9537  -10.1701 H   0  0  0  0  0  0  0  0  0  0  0  0
   -2.2388   12.5464  -12.7611 H   0  0  0  0  0  0  0  0  0  0  0  0
   -1.5665   11.7637  -11.2908 H   0  0  0  0  0  0  0  0  0  0  0  0
   -3.5680   12.3989   -9.9688 H   0  0  0  0  0  0  0  0  0  0  0  0
   -4.1284   11.5964  -11.4749 H   0  0  0  0  0  0  0  0  0  0  0  0
  1  2  1  0  0  0  0
  1  4  1  0  0  0  0
  1 12  1  0  0  0  0
  2  6  2  0  0  0  0
  3  4  2  0  0  0  0
  3  5  1  0  0  0  0
  5  6  1  0  0  0  0
  5  9  2  0  0  0  0
  6  7  1  0  0  0  0
  7  8  2  0  0  0  0
  7 10  1  0  0  0  0
  8  9  1  0  0  0  0
 10 14  2  3  0  0  0
 11 12  1  0  0  0  0
 11 26  1  0  0  0  0
 11 30  1  0  0  0  0
 12 13  2  0  0  0  0
 14 15  1  0  0  0  0
 14 19  1  0  0  0  0
 15 16  2  0  0  0  0
 16 17  1  0  0  0  0
 17 18  2  0  0  0  0
 17 20  1  0  0  0  0
 18 19  1  0  0  0  0
 20 21  2  0  0  0  0
 20 24  1  0  0  0  0
 21 22  1  0  0  0  0
 22 23  1  0  0  0  0
 22 25  1  0  0  0  0
 23 24  2  0  0  0  0
 26 27  1  0  0  0  0
 27 28  1  0  0  0  0
 28 29  1  0  0  0  0
 29 30  1  0  0  0  0
  1 31  1  0  0  0  0
  2 32  1  0  0  0  0
  3 33  1  0  0  0  0
  4 34  1  0  0  0  0
 10 35  1  0  0  0  0
 15 36  1  0  0  0  0
 16 37  1  0  0  0  0
 18 38  1  0  0  0  0
 19 39  1  0  0  0  0
 19 40  1  0  0  0  0
 21 41  1  0  0  0  0
 24 42  1  0  0  0  0
 25 43  1  0  0  0  0
 25 44  1  0  0  0  0
 25 45  1  0  0  0  0
 26 46  1  0  0  0  0
 26 47  1  0  0  0  0
 27 48  1  0  0  0  0
 27 49  1  0  0  0  0
 28 50  1  0  0  0  0
 28 51  1  0  0  0  0
 29 52  1  0  0  0  0
 29 53  1  0  0  0  0
 30 54  1  0  0  0  0
 30 55  1  0  0  0  0
M  END
> <Name>
41

> <IC50[uM]>
0.006

$$$$
41
  -OEChem-05192314333D
 Structure written by MMmdl.
 55 59  0     1  0  0  0  0  0999 V2000
   -6.3365   12.3514  -12.0169 C   0  0  0  0  0  0  0  0  0  0  0  0
   -6.4737   11.7818  -10.7533 C   0  0  0  0  0  0  0  0  0  0  0  0
   -7.7043   10.5771  -13.0419 C   0  0  0  0  0  0  0  0  0  0  0  0
   -6.9700   11.7706  -13.1413 C   0  0  0  0  0  0  0  0  0  0  0  0
   -7.8117   10.0060  -11.7679 C   0  0  0  0  0  0  0  0  0  0  0  0
   -7.2142   10.6153  -10.6085 C   0  0  3  0  0  0  0  0  0  0  0  0
   -7.6079    9.7475   -9.5180 C   0  0  0  0  0  0  0  0  0  0  0  0
   -8.2848    8.7450   -9.9896 N   0  0  0  0  0  0  0  0  0  0  0  0
   -8.4180    8.8715  -11.3012 N   0  0  0  0  0  0  0  0  0  0  0  0
   -7.3345    9.8877   -8.0248 C   0  0  0  0  0  0  0  0  0  0  0  0
   -4.3847   13.7235  -11.4418 N   0  0  0  0  0  0  0  0  0  0  0  0
   -5.5533   13.6485  -12.1711 C   0  0  0  0  0  0  0  0  0  0  0  0
   -5.9795   14.5724  -12.8566 O   0  0  0  0  0  0  0  0  0  0  0  0
   -5.9627   10.4850   -7.7364 C   0  0  0  0  0  0  0  0  0  0  0  0
   -5.8552   11.7581   -7.1652 C   0  0  0  0  0  0  0  0  0  0  0  0
   -4.5966   12.3060   -6.9181 C   0  0  0  0  0  0  0  0  0  0  0  0
   -3.4424   11.5865   -7.2381 C   0  0  0  0  0  0  0  0  0  0  0  0
   -3.5593   10.3139   -7.8013 C   0  0  0  0  0  0  0  0  0  0  0  0
   -4.8122    9.7647   -8.0513 C   0  0  0  0  0  0  0  0  0  0  0  0
   -2.0942   12.1662   -6.9781 C   0  0  0  0  0  0  0  0  0  0  0  0
   -1.7414   13.4274   -6.4937 C   0  0  0  0  0  0  0  0  0  0  0  0
   -0.4089   13.4560   -6.4321 N   0  0  0  0  0  0  0  0  0  0  0  0
    0.1814   12.3590   -6.8068 N   0  0  0  0  0  0  0  0  0  0  0  0
   -0.8029   11.5527   -7.1728 C   0  0  0  0  0  0  0  0  0  0  0  0
    0.4236   14.5699   -5.9945 C   0  0  0  0  0  0  0  0  0  0  0  0
   -3.7594   15.0422  -11.2114 C   0  0  0  0  0  0  0  0  0  0  0  0
   -2.3424   15.0924  -11.7154 C   0  0  0  0  0  0  0  0  0  0  0  0
   -1.5130   13.9202  -11.2644 C   0  0  0  0  0  0  0  0  0  0  0  0
   -2.1771   12.5990  -11.6641 C   0  0  0  0  0  0  0  0  0  0  0  0
   -3.6239   12.4833  -11.0641 C   0  0  0  0  0  0  0  0  0  0  0  0
   -6.0088   12.2426   -9.8942 H   0  0  0  0  0  0  0  0  0  0  0  0
   -8.1640   10.1218  -13.9067 H   0  0  0  0  0  0  0  0  0  0  0  0
   -6.8867   12.2580  -14.1015 H   0  0  0  0  0  0  0  0  0  0  0  0
   -6.3042   10.0161  -10.7598 H   0  0  0  0  0  0  0  0  0  0  0  0
   -8.0354    9.5960   -7.2566 H   0  0  0  0  0  0  0  0  0  0  0  0
   -6.7459   12.3157   -6.9160 H   0  0  0  0  0  0  0  0  0  0  0  0
   -4.5140   13.2889   -6.4783 H   0  0  0  0  0  0  0  0  0  0  0  0
   -2.6697    9.7519   -8.0446 H   0  0  0  0  0  0  0  0  0  0  0  0
   -4.8638    8.8212   -7.4881 H   0  0  0  0  0  0  0  0  0  0  0  0
   -4.8562    9.5510   -9.1294 H   0  0  0  0  0  0  0  0  0  0  0  0
   -2.4165   14.2253   -6.2216 H   0  0  0  0  0  0  0  0  0  0  0  0
   -0.6572   10.5584   -7.5683 H   0  0  0  0  0  0  0  0  0  0  0  0
    1.4836   14.2826   -6.0565 H   0  0  0  0  0  0  0  0  0  0  0  0
    0.2413   15.4403   -6.6420 H   0  0  0  0  0  0  0  0  0  0  0  0
    0.1739   14.8277   -4.9547 H   0  0  0  0  0  0  0  0  0  0  0  0
   -4.3489   15.8104  -11.7333 H   0  0  0  0  0  0  0  0  0  0  0  0
   -3.7594   15.2509  -10.1314 H   0  0  0  0  0  0  0  0  0  0  0  0
   -2.3623   15.1046  -12.8152 H   0  0  0  0  0  0  0  0  0  0  0  0
   -1.8724   16.0161  -11.3469 H   0  0  0  0  0  0  0  0  0  0  0  0
   -0.5191   13.9803  -11.7319 H   0  0  0  0  0  0  0  0  0  0  0  0
   -1.4061   13.9537  -10.1701 H   0  0  0  0  0  0  0  0  0  0  0  0
   -2.2388   12.5464  -12.7611 H   0  0  0  0  0  0  0  0  0  0  0  0
   -1.5665   11.7637  -11.2908 H   0  0  0  0  0  0  0  0  0  0  0  0
   -3.5680   12.3989   -9.9688 H   0  0  0  0  0  0  0  0  0  0  0  0
   -4.1284   11.5964  -11.4749 H   0  0  0  0  0  0  0  0  0  0  0  0
  1  2  2  0  0  0  0
  1  4  1  0  0  0  0
  1 12  1  0  0  0  0
  2  6  1  0  0  0  0
  3  4  2  0  0  0  0
  3  5  1  0  0  0  0
  5  6  1  0  0  0  0
  5  9  2  0  0  0  0
  6  7  1  0  0  0  0
  7  8  2  0  0  0  0
  7 10  1  0  0  0  0
  8  9  1  0  0  0  0
 10 14  2  3  0  0  0
 11 12  1  0  0  0  0
 11 26  1  0  0  0  0
 11 30  1  0  0  0  0
 12 13  2  0  0  0  0
 14 15  1  0  0  0  0
 14 19  1  0  0  0  0
 15 16  2  0  0  0  0
 16 17  1  0  0  0  0
 17 18  2  0  0  0  0
 17 20  1  0  0  0  0
 18 19  1  0  0  0  0
 20 21  2  0  0  0  0
 20 24  1  0  0  0  0
 21 22  1  0  0  0  0
 22 23  1  0  0  0  0
 22 25  1  0  0  0  0
 23 24  2  0  0  0  0
 26 27  1  0  0  0  0
 27 28  1  0  0  0  0
 28 29  1  0  0  0  0
 29 30  1  0  0  0  0
  2 31  1  0  0  0  0
  3 32  1  0  0  0  0
  4 33  1  0  0  0  0
  6 34  1  0  0  0  0
 10 35  1  0  0  0  0
 15 36  1  0  0  0  0
 16 37  1  0  0  0  0
 18 38  1  0  0  0  0
 19 39  1  0  0  0  0
 19 40  1  0  0  0  0
 21 41  1  0  0  0  0
 24 42  1  0  0  0  0
 25 43  1  0  0  0  0
 25 44  1  0  0  0  0
 25 45  1  0  0  0  0
 26 46  1  0  0  0  0
 26 47  1  0  0  0  0
 27 48  1  0  0  0  0
 27 49  1  0  0  0  0
 28 50  1  0  0  0  0
 28 51  1  0  0  0  0
 29 52  1  0  0  0  0
 29 53  1  0  0  0  0
 30 54  1  0  0  0  0
 30 55  1  0  0  0  0
M  END
> <Name>
41

> <IC50[uM]>
0.006

$$$$
41
  -OEChem-05192314333D
 Structure written by MMmdl.
 55 59  0     0  0  0  0  0  0999 V2000
   -6.3365   12.3514  -12.0169 C   0  0  0  0  0  0  0  0  0  0  0  0
   -6.4737   11.7818  -10.7533 C   0  0  0  0  0  0  0  0  0  0  0  0
   -7.7043   10.5771  -13.0419 C   0  0  0  0  0  0  0  0  0  0  0  0
   -6.9700   11.7706  -13.1413 C   0  0  0  0  0  0  0  0  0  0  0  0
   -7.8117   10.0060  -11.7679 C   0  0  0  0  0  0  0  0  0  0  0  0
   -7.2142   10.6153  -10.6085 C   0  0  0  0  0  0  0  0  0  0  0  0
   -7.6079    9.7475   -9.5180 C   0  0  0  0  0  0  0  0  0  0  0  0
   -8.2848    8.7450   -9.9896 N   0  0  0  0  0  0  0  0  0  0  0  0
   -8.4180    8.8715  -11.3012 N   0  0  0  0  0  0  0  0  0  0  0  0
   -7.3345    9.8877   -8.0248 C   0  0  0  0  0  0  0  0  0  0  0  0
   -4.3847   13.7235  -11.4418 N   0  0  0  0  0  0  0  0  0  0  0  0
   -5.5533   13.6485  -12.1711 C   0  0  0  0  0  0  0  0  0  0  0  0
   -5.9795   14.5724  -12.8566 O   0  0  0  0  0  0  0  0  0  0  0  0
   -5.9627   10.4850   -7.7364 C   0  0  0  0  0  0  0  0  0  0  0  0
   -5.8552   11.7581   -7.1652 C   0  0  0  0  0  0  0  0  0  0  0  0
   -4.5966   12.3060   -6.9181 C   0  0  0  0  0  0  0  0  0  0  0  0
   -3.4424   11.5865   -7.2381 C   0  0  0  0  0  0  0  0  0  0  0  0
   -3.5593   10.3139   -7.8013 C   0  0  0  0  0  0  0  0  0  0  0  0
   -4.8122    9.7647   -8.0513 C   0  0  0  0  0  0  0  0  0  0  0  0
   -2.0942   12.1662   -6.9781 C   0  0  0  0  0  0  0  0  0  0  0  0
   -1.7414   13.4274   -6.4937 C   0  0  0  0  0  0  0  0  0  0  0  0
   -0.4089   13.4560   -6.4321 N   0  0  0  0  0  0  0  0  0  0  0  0
    0.1814   12.3590   -6.8068 N   0  0  0  0  0  0  0  0  0  0  0  0
   -0.8029   11.5527   -7.1728 C   0  0  0  0  0  0  0  0  0  0  0  0
    0.4236   14.5699   -5.9945 C   0  0  0  0  0  0  0  0  0  0  0  0
   -3.7594   15.0422  -11.2114 C   0  0  0  0  0  0  0  0  0  0  0  0
   -2.3424   15.0924  -11.7154 C   0  0  0  0  0  0  0  0  0  0  0  0
   -1.5130   13.9202  -11.2644 C   0  0  0  0  0  0  0  0  0  0  0  0
   -2.1771   12.5990  -11.6641 C   0  0  0  0  0  0  0  0  0  0  0  0
   -3.6239   12.4833  -11.0641 C   0  0  0  0  0  0  0  0  0  0  0  0
   -6.0088   12.2426   -9.8942 H   0  0  0  0  0  0  0  0  0  0  0  0
   -8.7234   10.7825  -13.4015 H   0  0  0  0  0  0  0  0  0  0  0  0
   -7.2258    9.8363  -13.6994 H   0  0  0  0  0  0  0  0  0  0  0  0
   -6.8867   12.2580  -14.1015 H   0  0  0  0  0  0  0  0  0  0  0  0
   -8.0354    9.5960   -7.2566 H   0  0  0  0  0  0  0  0  0  0  0  0
   -6.7459   12.3157   -6.9160 H   0  0  0  0  0  0  0  0  0  0  0  0
   -4.5140   13.2889   -6.4783 H   0  0  0  0  0  0  0  0  0  0  0  0
   -2.6697    9.7519   -8.0446 H   0  0  0  0  0  0  0  0  0  0  0  0
   -4.8638    8.8212   -7.4881 H   0  0  0  0  0  0  0  0  0  0  0  0
   -4.8562    9.5510   -9.1294 H   0  0  0  0  0  0  0  0  0  0  0  0
   -2.4165   14.2253   -6.2216 H   0  0  0  0  0  0  0  0  0  0  0  0
   -0.6572   10.5584   -7.5683 H   0  0  0  0  0  0  0  0  0  0  0  0
    1.4836   14.2826   -6.0565 H   0  0  0  0  0  0  0  0  0  0  0  0
    0.2413   15.4403   -6.6420 H   0  0  0  0  0  0  0  0  0  0  0  0
    0.1739   14.8277   -4.9547 H   0  0  0  0  0  0  0  0  0  0  0  0
   -4.3489   15.8104  -11.7333 H   0  0  0  0  0  0  0  0  0  0  0  0
   -3.7594   15.2509  -10.1314 H   0  0  0  0  0  0  0  0  0  0  0  0
   -2.3623   15.1046  -12.8152 H   0  0  0  0  0  0  0  0  0  0  0  0
   -1.8724   16.0161  -11.3469 H   0  0  0  0  0  0  0  0  0  0  0  0
   -0.5191   13.9803  -11.7319 H   0  0  0  0  0  0  0  0  0  0  0  0
   -1.4061   13.9537  -10.1701 H   0  0  0  0  0  0  0  0  0  0  0  0
   -2.2388   12.5464  -12.7611 H   0  0  0  0  0  0  0  0  0  0  0  0
   -1.5665   11.7637  -11.2908 H   0  0  0  0  0  0  0  0  0  0  0  0
   -3.5680   12.3989   -9.9688 H   0  0  0  0  0  0  0  0  0  0  0  0
   -4.1284   11.5964  -11.4749 H   0  0  0  0  0  0  0  0  0  0  0  0
  1  2  1  0  0  0  0
  1  4  2  0  0  0  0
  1 12  1  0  0  0  0
  2  6  2  0  0  0  0
  3  4  1  0  0  0  0
  3  5  1  0  0  0  0
  5  6  1  0  0  0  0
  5  9  2  0  0  0  0
  6  7  1  0  0  0  0
  7  8  2  0  0  0  0
  7 10  1  0  0  0  0
  8  9  1  0  0  0  0
 10 14  2  3  0  0  0
 11 12  1  0  0  0  0
 11 26  1  0  0  0  0
 11 30  1  0  0  0  0
 12 13  2  0  0  0  0
 14 15  1  0  0  0  0
 14 19  1  0  0  0  0
 15 16  2  0  0  0  0
 16 17  1  0  0  0  0
 17 18  2  0  0  0  0
 17 20  1  0  0  0  0
 18 19  1  0  0  0  0
 20 21  2  0  0  0  0
 20 24  1  0  0  0  0
 21 22  1  0  0  0  0
 22 23  1  0  0  0  0
 22 25  1  0  0  0  0
 23 24  2  0  0  0  0
 26 27  1  0  0  0  0
 27 28  1  0  0  0  0
 28 29  1  0  0  0  0
 29 30  1  0  0  0  0
  2 31  1  0  0  0  0
  3 32  1  0  0  0  0
  3 33  1  0  0  0  0
  4 34  1  0  0  0  0
 10 35  1  0  0  0  0
 15 36  1  0  0  0  0
 16 37  1  0  0  0  0
 18 38  1  0  0  0  0
 19 39  1  0  0  0  0
 19 40  1  0  0  0  0
 21 41  1  0  0  0  0
 24 42  1  0  0  0  0
 25 43  1  0  0  0  0
 25 44  1  0  0  0  0
 25 45  1  0  0  0  0
 26 46  1  0  0  0  0
 26 47  1  0  0  0  0
 27 48  1  0  0  0  0
 27 49  1  0  0  0  0
 28 50  1  0  0  0  0
 28 51  1  0  0  0  0
 29 52  1  0  0  0  0
 29 53  1  0  0  0  0
 30 54  1  0  0  0  0
 30 55  1  0  0  0  0
M  END
> <Name>
41

> <IC50[uM]>
0.006

$$$$
41
  -OEChem-05192314333D
 Structure written by MMmdl.
 55 59  0     1  0  0  0  0  0999 V2000
   -6.3365   12.3514  -12.0169 C   0  0  0  0  0  0  0  0  0  0  0  0
   -6.4737   11.7818  -10.7533 C   0  0  0  0  0  0  0  0  0  0  0  0
   -7.7043   10.5771  -13.0419 C   0  0  0  0  0  0  0  0  0  0  0  0
   -6.9700   11.7706  -13.1413 C   0  0  0  0  0  0  0  0  0  0  0  0
   -7.8117   10.0060  -11.7679 C   0  0  3  0  0  0  0  0  0  0  0  0
   -7.2142   10.6153  -10.6085 C   0  0  0  0  0  0  0  0  0  0  0  0
   -7.6079    9.7475   -9.5180 C   0  0  0  0  0  0  0  0  0  0  0  0
   -8.2848    8.7450   -9.9896 N   0  0  0  0  0  0  0  0  0  0  0  0
   -8.4180    8.8715  -11.3012 N   0  0  0  0  0  0  0  0  0  0  0  0
   -7.3345    9.8877   -8.0248 C   0  0  0  0  0  0  0  0  0  0  0  0
   -4.3847   13.7235  -11.4418 N   0  0  0  0  0  0  0  0  0  0  0  0
   -5.5533   13.6485  -12.1711 C   0  0  0  0  0  0  0  0  0  0  0  0
   -5.9795   14.5724  -12.8566 O   0  0  0  0  0  0  0  0  0  0  0  0
   -5.9627   10.4850   -7.7364 C   0  0  0  0  0  0  0  0  0  0  0  0
   -5.8552   11.7581   -7.1652 C   0  0  0  0  0  0  0  0  0  0  0  0
   -4.5966   12.3060   -6.9181 C   0  0  0  0  0  0  0  0  0  0  0  0
   -3.4424   11.5865   -7.2381 C   0  0  0  0  0  0  0  0  0  0  0  0
   -3.5593   10.3139   -7.8013 C   0  0  0  0  0  0  0  0  0  0  0  0
   -4.8122    9.7647   -8.0513 C   0  0  0  0  0  0  0  0  0  0  0  0
   -2.0942   12.1662   -6.9781 C   0  0  0  0  0  0  0  0  0  0  0  0
   -1.7414   13.4274   -6.4937 C   0  0  0  0  0  0  0  0  0  0  0  0
   -0.4089   13.4560   -6.4321 N   0  0  0  0  0  0  0  0  0  0  0  0
    0.1814   12.3590   -6.8068 N   0  0  0  0  0  0  0  0  0  0  0  0
   -0.8029   11.5527   -7.1728 C   0  0  0  0  0  0  0  0  0  0  0  0
    0.4236   14.5699   -5.9945 C   0  0  0  0  0  0  0  0  0  0  0  0
   -3.7594   15.0422  -11.2114 C   0  0  0  0  0  0  0  0  0  0  0  0
   -2.3424   15.0924  -11.7154 C   0  0  0  0  0  0  0  0  0  0  0  0
   -1.5130   13.9202  -11.2644 C   0  0  0  0  0  0  0  0  0  0  0  0
   -2.1771   12.5990  -11.6641 C   0  0  0  0  0  0  0  0  0  0  0  0
   -3.6239   12.4833  -11.0641 C   0  0  0  0  0  0  0  0  0  0  0  0
   -6.0088   12.2426   -9.8942 H   0  0  0  0  0  0  0  0  0  0  0  0
   -8.1640   10.1218  -13.9067 H   0  0  0  0  0  0  0  0  0  0  0  0
   -6.8867   12.2580  -14.1015 H   0  0  0  0  0  0  0  0  0  0  0  0
   -8.7368   10.5741  -11.5905 H   0  0  0  0  0  0  0  0  0  0  0  0
   -8.0354    9.5960   -7.2566 H   0  0  0  0  0  0  0  0  0  0  0  0
   -6.7459   12.3157   -6.9160 H   0  0  0  0  0  0  0  0  0  0  0  0
   -4.5140   13.2889   -6.4783 H   0  0  0  0  0  0  0  0  0  0  0  0
   -3.4416   12.0327   -8.2435 H   0  0  0  0  0  0  0  0  0  0  0  0
   -2.6697    9.7519   -8.0446 H   0  0  0  0  0  0  0  0  0  0  0  0
   -4.8934    8.7808   -8.4891 H   0  0  0  0  0  0  0  0  0  0  0  0
   -2.4165   14.2253   -6.2216 H   0  0  0  0  0  0  0  0  0  0  0  0
   -0.6572   10.5584   -7.5683 H   0  0  0  0  0  0  0  0  0  0  0  0
    1.4836   14.2826   -6.0565 H   0  0  0  0  0  0  0  0  0  0  0  0
    0.2413   15.4403   -6.6420 H   0  0  0  0  0  0  0  0  0  0  0  0
    0.1739   14.8277   -4.9547 H   0  0  0  0  0  0  0  0  0  0  0  0
   -4.3489   15.8104  -11.7333 H   0  0  0  0  0  0  0  0  0  0  0  0
   -3.7594   15.2509  -10.1314 H   0  0  0  0  0  0  0  0  0  0  0  0
   -2.3623   15.1046  -12.8152 H   0  0  0  0  0  0  0  0  0  0  0  0
   -1.8724   16.0161  -11.3469 H   0  0  0  0  0  0  0  0  0  0  0  0
   -0.5191   13.9803  -11.7319 H   0  0  0  0  0  0  0  0  0  0  0  0
   -1.4061   13.9537  -10.1701 H   0  0  0  0  0  0  0  0  0  0  0  0
   -2.2388   12.5464  -12.7611 H   0  0  0  0  0  0  0  0  0  0  0  0
   -1.5665   11.7637  -11.2908 H   0  0  0  0  0  0  0  0  0  0  0  0
   -3.5680   12.3989   -9.9688 H   0  0  0  0  0  0  0  0  0  0  0  0
   -4.1284   11.5964  -11.4749 H   0  0  0  0  0  0  0  0  0  0  0  0
  1  2  2  0  0  0  0
  1  4  1  0  0  0  0
  1 12  1  0  0  0  0
  2  6  1  0  0  0  0
  3  4  2  0  0  0  0
  3  5  1  0  0  0  0
  5  6  1  0  0  0  0
  5  9  1  0  0  0  0
  6  7  2  0  0  0  0
  7  8  1  0  0  0  0
  7 10  1  0  0  0  0
  8  9  2  0  0  0  0
 10 14  2  0  0  0  0
 11 12  1  0  0  0  0
 11 26  1  0  0  0  0
 11 30  1  0  0  0  0
 12 13  2  0  0  0  0
 14 15  1  0  0  0  0
 14 19  1  0  0  0  0
 15 16  2  0  0  0  0
 16 17  1  0  0  0  0
 17 18  1  0  0  0  0
 17 20  1  0  0  0  0
 18 19  2  0  0  0  0
 20 21  2  0  0  0  0
 20 24  1  0  0  0  0
 21 22  1  0  0  0  0
 22 23  1  0  0  0  0
 22 25  1  0  0  0  0
 23 24  2  0  0  0  0
 26 27  1  0  0  0  0
 27 28  1  0  0  0  0
 28 29  1  0  0  0  0
 29 30  1  0  0  0  0
  2 31  1  0  0  0  0
  3 32  1  0  0  0  0
  4 33  1  0  0  0  0
  5 34  1  0  0  0  0
 10 35  1  0  0  0  0
 15 36  1  0  0  0  0
 16 37  1  0  0  0  0
 17 38  1  0  0  0  0
 18 39  1  0  0  0  0
 19 40  1  0  0  0  0
 21 41  1  0  0  0  0
 24 42  1  0  0  0  0
 25 43  1  0  0  0  0
 25 44  1  0  0  0  0
 25 45  1  0  0  0  0
 26 46  1  0  0  0  0
 26 47  1  0  0  0  0
 27 48  1  0  0  0  0
 27 49  1  0  0  0  0
 28 50  1  0  0  0  0
 28 51  1  0  0  0  0
 29 52  1  0  0  0  0
 29 53  1  0  0  0  0
 30 54  1  0  0  0  0
 30 55  1  0  0  0  0
M  END
> <Name>
41

> <IC50[uM]>
0.006

$$$$
41
  -OEChem-05192314333D
 Structure written by MMmdl.
 55 59  0     0  0  0  0  0  0999 V2000
   -6.3365   12.3514  -12.0169 C   0  0  0  0  0  0  0  0  0  0  0  0
   -6.4737   11.7818  -10.7533 C   0  0  0  0  0  0  0  0  0  0  0  0
   -7.7043   10.5771  -13.0419 C   0  0  0  0  0  0  0  0  0  0  0  0
   -6.9700   11.7706  -13.1413 C   0  0  0  0  0  0  0  0  0  0  0  0
   -7.8117   10.0060  -11.7679 C   0  0  0  0  0  0  0  0  0  0  0  0
   -7.2142   10.6153  -10.6085 C   0  0  0  0  0  0  0  0  0  0  0  0
   -7.6079    9.7475   -9.5180 C   0  0  0  0  0  0  0  0  0  0  0  0
   -8.2848    8.7450   -9.9896 N   0  0  0  0  0  0  0  0  0  0  0  0
   -8.4180    8.8715  -11.3012 N   0  0  0  0  0  0  0  0  0  0  0  0
   -7.3345    9.8877   -8.0248 C   0  0  0  0  0  0  0  0  0  0  0  0
   -4.3847   13.7235  -11.4418 N   0  0  0  0  0  0  0  0  0  0  0  0
   -5.5533   13.6485  -12.1711 C   0  0  0  0  0  0  0  0  0  0  0  0
   -5.9795   14.5724  -12.8566 O   0  0  0  0  0  0  0  0  0  0  0  0
   -5.9627   10.4850   -7.7364 C   0  0  0  0  0  0  0  0  0  0  0  0
   -5.8552   11.7581   -7.1652 C   0  0  0  0  0  0  0  0  0  0  0  0
   -4.5966   12.3060   -6.9181 C   0  0  0  0  0  0  0  0  0  0  0  0
   -3.4424   11.5865   -7.2381 C   0  0  0  0  0  0  0  0  0  0  0  0
   -3.5593   10.3139   -7.8013 C   0  0  0  0  0  0  0  0  0  0  0  0
   -4.8122    9.7647   -8.0513 C   0  0  0  0  0  0  0  0  0  0  0  0
   -2.0942   12.1662   -6.9781 C   0  0  0  0  0  0  0  0  0  0  0  0
   -1.7414   13.4274   -6.4937 C   0  0  0  0  0  0  0  0  0  0  0  0
   -0.4089   13.4560   -6.4321 N   0  0  0  0  0  0  0  0  0  0  0  0
    0.1814   12.3590   -6.8068 N   0  0  0  0  0  0  0  0  0  0  0  0
   -0.8029   11.5527   -7.1728 C   0  0  0  0  0  0  0  0  0  0  0  0
    0.4236   14.5699   -5.9945 C   0  0  0  0  0  0  0  0  0  0  0  0
   -3.7594   15.0422  -11.2114 C   0  0  0  0  0  0  0  0  0  0  0  0
   -2.3424   15.0924  -11.7154 C   0  0  0  0  0  0  0  0  0  0  0  0
   -1.5130   13.9202  -11.2644 C   0  0  0  0  0  0  0  0  0  0  0  0
   -2.1771   12.5990  -11.6641 C   0  0  0  0  0  0  0  0  0  0  0  0
   -3.6239   12.4833  -11.0641 C   0  0  0  0  0  0  0  0  0  0  0  0
   -6.0088   12.2426   -9.8942 H   0  0  0  0  0  0  0  0  0  0  0  0
   -8.1640   10.1218  -13.9067 H   0  0  0  0  0  0  0  0  0  0  0  0
   -7.6647   12.5293  -13.5308 H   0  0  0  0  0  0  0  0  0  0  0  0
   -6.1773   11.5851  -13.8810 H   0  0  0  0  0  0  0  0  0  0  0  0
   -8.0354    9.5960   -7.2566 H   0  0  0  0  0  0  0  0  0  0  0  0
   -6.7459   12.3157   -6.9160 H   0  0  0  0  0  0  0  0  0  0  0  0
   -4.5140   13.2889   -6.4783 H   0  0  0  0  0  0  0  0  0  0  0  0
   -3.4416   12.0327   -8.2435 H   0  0  0  0  0  0  0  0  0  0  0  0
   -2.6697    9.7519   -8.0446 H   0  0  0  0  0  0  0  0  0  0  0  0
   -4.8934    8.7808   -8.4891 H   0  0  0  0  0  0  0  0  0  0  0  0
   -2.4165   14.2253   -6.2216 H   0  0  0  0  0  0  0  0  0  0  0  0
   -0.6572   10.5584   -7.5683 H   0  0  0  0  0  0  0  0  0  0  0  0
    1.4836   14.2826   -6.0565 H   0  0  0  0  0  0  0  0  0  0  0  0
    0.2413   15.4403   -6.6420 H   0  0  0  0  0  0  0  0  0  0  0  0
    0.1739   14.8277   -4.9547 H   0  0  0  0  0  0  0  0  0  0  0  0
   -4.3489   15.8104  -11.7333 H   0  0  0  0  0  0  0  0  0  0  0  0
   -3.7594   15.2509  -10.1314 H   0  0  0  0  0  0  0  0  0  0  0  0
   -2.3623   15.1046  -12.8152 H   0  0  0  0  0  0  0  0  0  0  0  0
   -1.8724   16.0161  -11.3469 H   0  0  0  0  0  0  0  0  0  0  0  0
   -0.5191   13.9803  -11.7319 H   0  0  0  0  0  0  0  0  0  0  0  0
   -1.4061   13.9537  -10.1701 H   0  0  0  0  0  0  0  0  0  0  0  0
   -2.2388   12.5464  -12.7611 H   0  0  0  0  0  0  0  0  0  0  0  0
   -1.5665   11.7637  -11.2908 H   0  0  0  0  0  0  0  0  0  0  0  0
   -3.5680   12.3989   -9.9688 H   0  0  0  0  0  0  0  0  0  0  0  0
   -4.1284   11.5964  -11.4749 H   0  0  0  0  0  0  0  0  0  0  0  0
  1  2  2  0  0  0  0
  1  4  1  0  0  0  0
  1 12  1  0  0  0  0
  2  6  1  0  0  0  0
  3  4  1  0  0  0  0
  3  5  2  0  0  0  0
  5  6  1  0  0  0  0
  5  9  1  0  0  0  0
  6  7  2  0  0  0  0
  7  8  1  0  0  0  0
  7 10  1  0  0  0  0
  8  9  2  0  0  0  0
 10 14  2  0  0  0  0
 11 12  1  0  0  0  0
 11 26  1  0  0  0  0
 11 30  1  0  0  0  0
 12 13  2  0  0  0  0
 14 15  1  0  0  0  0
 14 19  1  0  0  0  0
 15 16  2  0  0  0  0
 16 17  1  0  0  0  0
 17 18  1  0  0  0  0
 17 20  1  0  0  0  0
 18 19  2  0  0  0  0
 20 21  2  0  0  0  0
 20 24  1  0  0  0  0
 21 22  1  0  0  0  0
 22 23  1  0  0  0  0
 22 25  1  0  0  0  0
 23 24  2  0  0  0  0
 26 27  1  0  0  0  0
 27 28  1  0  0  0  0
 28 29  1  0  0  0  0
 29 30  1  0  0  0  0
  2 31  1  0  0  0  0
  3 32  1  0  0  0  0
  4 33  1  0  0  0  0
  4 34  1  0  0  0  0
 10 35  1  0  0  0  0
 15 36  1  0  0  0  0
 16 37  1  0  0  0  0
 17 38  1  0  0  0  0
 18 39  1  0  0  0  0
 19 40  1  0  0  0  0
 21 41  1  0  0  0  0
 24 42  1  0  0  0  0
 25 43  1  0  0  0  0
 25 44  1  0  0  0  0
 25 45  1  0  0  0  0
 26 46  1  0  0  0  0
 26 47  1  0  0  0  0
 27 48  1  0  0  0  0
 27 49  1  0  0  0  0
 28 50  1  0  0  0  0
 28 51  1  0  0  0  0
 29 52  1  0  0  0  0
 29 53  1  0  0  0  0
 30 54  1  0  0  0  0
 30 55  1  0  0  0  0
M  END
> <Name>
41

> <IC50[uM]>
0.006

$$$$
41
  -OEChem-05192314333D
 Structure written by MMmdl.
 55 59  0     1  0  0  0  0  0999 V2000
   -6.3365   12.3514  -12.0169 C   0  0  0  0  0  0  0  0  0  0  0  0
   -6.4737   11.7818  -10.7533 C   0  0  0  0  0  0  0  0  0  0  0  0
   -7.7043   10.5771  -13.0419 C   0  0  0  0  0  0  0  0  0  0  0  0
   -6.9700   11.7706  -13.1413 C   0  0  0  0  0  0  0  0  0  0  0  0
   -7.8117   10.0060  -11.7679 C   0  0  3  0  0  0  0  0  0  0  0  0
   -7.2142   10.6153  -10.6085 C   0  0  0  0  0  0  0  0  0  0  0  0
   -7.6079    9.7475   -9.5180 C   0  0  0  0  0  0  0  0  0  0  0  0
   -8.2848    8.7450   -9.9896 N   0  0  0  0  0  0  0  0  0  0  0  0
   -8.4180    8.8715  -11.3012 N   0  0  0  0  0  0  0  0  0  0  0  0
   -7.3345    9.8877   -8.0248 C   0  0  0  0  0  0  0  0  0  0  0  0
   -4.3847   13.7235  -11.4418 N   0  0  0  0  0  0  0  0  0  0  0  0
   -5.5533   13.6485  -12.1711 C   0  0  0  0  0  0  0  0  0  0  0  0
   -5.9795   14.5724  -12.8566 O   0  0  0  0  0  0  0  0  0  0  0  0
   -5.9627   10.4850   -7.7364 C   0  0  0  0  0  0  0  0  0  0  0  0
   -5.8552   11.7581   -7.1652 C   0  0  0  0  0  0  0  0  0  0  0  0
   -4.5966   12.3060   -6.9181 C   0  0  0  0  0  0  0  0  0  0  0  0
   -3.4424   11.5865   -7.2381 C   0  0  0  0  0  0  0  0  0  0  0  0
   -3.5593   10.3139   -7.8013 C   0  0  0  0  0  0  0  0  0  0  0  0
   -4.8122    9.7647   -8.0513 C   0  0  0  0  0  0  0  0  0  0  0  0
   -2.0942   12.1662   -6.9781 C   0  0  0  0  0  0  0  0  0  0  0  0
   -1.7414   13.4274   -6.4937 C   0  0  0  0  0  0  0  0  0  0  0  0
   -0.4089   13.4560   -6.4321 N   0  0  0  0  0  0  0  0  0  0  0  0
    0.1814   12.3590   -6.8068 N   0  0  0  0  0  0  0  0  0  0  0  0
   -0.8029   11.5527   -7.1728 C   0  0  0  0  0  0  0  0  0  0  0  0
    0.4236   14.5699   -5.9945 C   0  0  0  0  0  0  0  0  0  0  0  0
   -3.7594   15.0422  -11.2114 C   0  0  0  0  0  0  0  0  0  0  0  0
   -2.3424   15.0924  -11.7154 C   0  0  0  0  0  0  0  0  0  0  0  0
   -1.5130   13.9202  -11.2644 C   0  0  0  0  0  0  0  0  0  0  0  0
   -2.1771   12.5990  -11.6641 C   0  0  0  0  0  0  0  0  0  0  0  0
   -3.6239   12.4833  -11.0641 C   0  0  0  0  0  0  0  0  0  0  0  0
   -6.0088   12.2426   -9.8942 H   0  0  0  0  0  0  0  0  0  0  0  0
   -8.1640   10.1218  -13.9067 H   0  0  0  0  0  0  0  0  0  0  0  0
   -6.8867   12.2580  -14.1015 H   0  0  0  0  0  0  0  0  0  0  0  0
   -8.7368   10.5741  -11.5905 H   0  0  0  0  0  0  0  0  0  0  0  0
   -8.0354    9.5960   -7.2566 H   0  0  0  0  0  0  0  0  0  0  0  0
   -6.7459   12.3157   -6.9160 H   0  0  0  0  0  0  0  0  0  0  0  0
   -4.5140   13.2889   -6.4783 H   0  0  0  0  0  0  0  0  0  0  0  0
   -2.6697    9.7519   -8.0446 H   0  0  0  0  0  0  0  0  0  0  0  0
   -4.8638    8.8212   -7.4881 H   0  0  0  0  0  0  0  0  0  0  0  0
   -4.8562    9.5510   -9.1294 H   0  0  0  0  0  0  0  0  0  0  0  0
   -2.4165   14.2253   -6.2216 H   0  0  0  0  0  0  0  0  0  0  0  0
   -0.6572   10.5584   -7.5683 H   0  0  0  0  0  0  0  0  0  0  0  0
    1.4836   14.2826   -6.0565 H   0  0  0  0  0  0  0  0  0  0  0  0
    0.2413   15.4403   -6.6420 H   0  0  0  0  0  0  0  0  0  0  0  0
    0.1739   14.8277   -4.9547 H   0  0  0  0  0  0  0  0  0  0  0  0
   -4.3489   15.8104  -11.7333 H   0  0  0  0  0  0  0  0  0  0  0  0
   -3.7594   15.2509  -10.1314 H   0  0  0  0  0  0  0  0  0  0  0  0
   -2.3623   15.1046  -12.8152 H   0  0  0  0  0  0  0  0  0  0  0  0
   -1.8724   16.0161  -11.3469 H   0  0  0  0  0  0  0  0  0  0  0  0
   -0.5191   13.9803  -11.7319 H   0  0  0  0  0  0  0  0  0  0  0  0
   -1.4061   13.9537  -10.1701 H   0  0  0  0  0  0  0  0  0  0  0  0
   -2.2388   12.5464  -12.7611 H   0  0  0  0  0  0  0  0  0  0  0  0
   -1.5665   11.7637  -11.2908 H   0  0  0  0  0  0  0  0  0  0  0  0
   -3.5680   12.3989   -9.9688 H   0  0  0  0  0  0  0  0  0  0  0  0
   -4.1284   11.5964  -11.4749 H   0  0  0  0  0  0  0  0  0  0  0  0
  1  2  2  0  0  0  0
  1  4  1  0  0  0  0
  1 12  1  0  0  0  0
  2  6  1  0  0  0  0
  3  4  2  0  0  0  0
  3  5  1  0  0  0  0
  5  6  1  0  0  0  0
  5  9  1  0  0  0  0
  6  7  2  0  0  0  0
  7  8  1  0  0  0  0
  7 10  1  0  0  0  0
  8  9  2  0  0  0  0
 10 14  2  3  0  0  0
 11 12  1  0  0  0  0
 11 26  1  0  0  0  0
 11 30  1  0  0  0  0
 12 13  2  0  0  0  0
 14 15  1  0  0  0  0
 14 19  1  0  0  0  0
 15 16  2  0  0  0  0
 16 17  1  0  0  0  0
 17 18  2  0  0  0  0
 17 20  1  0  0  0  0
 18 19  1  0  0  0  0
 20 21  2  0  0  0  0
 20 24  1  0  0  0  0
 21 22  1  0  0  0  0
 22 23  1  0  0  0  0
 22 25  1  0  0  0  0
 23 24  2  0  0  0  0
 26 27  1  0  0  0  0
 27 28  1  0  0  0  0
 28 29  1  0  0  0  0
 29 30  1  0  0  0  0
  2 31  1  0  0  0  0
  3 32  1  0  0  0  0
  4 33  1  0  0  0  0
  5 34  1  0  0  0  0
 10 35  1  0  0  0  0
 15 36  1  0  0  0  0
 16 37  1  0  0  0  0
 18 38  1  0  0  0  0
 19 39  1  0  0  0  0
 19 40  1  0  0  0  0
 21 41  1  0  0  0  0
 24 42  1  0  0  0  0
 25 43  1  0  0  0  0
 25 44  1  0  0  0  0
 25 45  1  0  0  0  0
 26 46  1  0  0  0  0
 26 47  1  0  0  0  0
 27 48  1  0  0  0  0
 27 49  1  0  0  0  0
 28 50  1  0  0  0  0
 28 51  1  0  0  0  0
 29 52  1  0  0  0  0
 29 53  1  0  0  0  0
 30 54  1  0  0  0  0
 30 55  1  0  0  0  0
M  END
> <Name>
41

> <IC50[uM]>
0.006

$$$$
41
  -OEChem-05192314333D
 Structure written by MMmdl.
 55 59  0     0  0  0  0  0  0999 V2000
   -6.3365   12.3514  -12.0169 C   0  0  0  0  0  0  0  0  0  0  0  0
   -6.4737   11.7818  -10.7533 C   0  0  0  0  0  0  0  0  0  0  0  0
   -7.7043   10.5771  -13.0419 C   0  0  0  0  0  0  0  0  0  0  0  0
   -6.9700   11.7706  -13.1413 C   0  0  0  0  0  0  0  0  0  0  0  0
   -7.8117   10.0060  -11.7679 C   0  0  0  0  0  0  0  0  0  0  0  0
   -7.2142   10.6153  -10.6085 C   0  0  0  0  0  0  0  0  0  0  0  0
   -7.6079    9.7475   -9.5180 C   0  0  0  0  0  0  0  0  0  0  0  0
   -8.2848    8.7450   -9.9896 N   0  0  0  0  0  0  0  0  0  0  0  0
   -8.4180    8.8715  -11.3012 N   0  0  0  0  0  0  0  0  0  0  0  0
   -7.3345    9.8877   -8.0248 C   0  0  0  0  0  0  0  0  0  0  0  0
   -4.3847   13.7235  -11.4418 N   0  0  0  0  0  0  0  0  0  0  0  0
   -5.5533   13.6485  -12.1711 C   0  0  0  0  0  0  0  0  0  0  0  0
   -5.9795   14.5724  -12.8566 O   0  0  0  0  0  0  0  0  0  0  0  0
   -5.9627   10.4850   -7.7364 C   0  0  0  0  0  0  0  0  0  0  0  0
   -5.8552   11.7581   -7.1652 C   0  0  0  0  0  0  0  0  0  0  0  0
   -4.5966   12.3060   -6.9181 C   0  0  0  0  0  0  0  0  0  0  0  0
   -3.4424   11.5865   -7.2381 C   0  0  0  0  0  0  0  0  0  0  0  0
   -3.5593   10.3139   -7.8013 C   0  0  0  0  0  0  0  0  0  0  0  0
   -4.8122    9.7647   -8.0513 C   0  0  0  0  0  0  0  0  0  0  0  0
   -2.0942   12.1662   -6.9781 C   0  0  0  0  0  0  0  0  0  0  0  0
   -1.7414   13.4274   -6.4937 C   0  0  0  0  0  0  0  0  0  0  0  0
   -0.4089   13.4560   -6.4321 N   0  0  0  0  0  0  0  0  0  0  0  0
    0.1814   12.3590   -6.8068 N   0  0  0  0  0  0  0  0  0  0  0  0
   -0.8029   11.5527   -7.1728 C   0  0  0  0  0  0  0  0  0  0  0  0
    0.4236   14.5699   -5.9945 C   0  0  0  0  0  0  0  0  0  0  0  0
   -3.7594   15.0422  -11.2114 C   0  0  0  0  0  0  0  0  0  0  0  0
   -2.3424   15.0924  -11.7154 C   0  0  0  0  0  0  0  0  0  0  0  0
   -1.5130   13.9202  -11.2644 C   0  0  0  0  0  0  0  0  0  0  0  0
   -2.1771   12.5990  -11.6641 C   0  0  0  0  0  0  0  0  0  0  0  0
   -3.6239   12.4833  -11.0641 C   0  0  0  0  0  0  0  0  0  0  0  0
   -6.0088   12.2426   -9.8942 H   0  0  0  0  0  0  0  0  0  0  0  0
   -8.1640   10.1218  -13.9067 H   0  0  0  0  0  0  0  0  0  0  0  0
   -7.6647   12.5293  -13.5308 H   0  0  0  0  0  0  0  0  0  0  0  0
   -6.1773   11.5851  -13.8810 H   0  0  0  0  0  0  0  0  0  0  0  0
   -8.0354    9.5960   -7.2566 H   0  0  0  0  0  0  0  0  0  0  0  0
   -6.7459   12.3157   -6.9160 H   0  0  0  0  0  0  0  0  0  0  0  0
   -4.5140   13.2889   -6.4783 H   0  0  0  0  0  0  0  0  0  0  0  0
   -2.6697    9.7519   -8.0446 H   0  0  0  0  0  0  0  0  0  0  0  0
   -4.8638    8.8212   -7.4881 H   0  0  0  0  0  0  0  0  0  0  0  0
   -4.8562    9.5510   -9.1294 H   0  0  0  0  0  0  0  0  0  0  0  0
   -2.4165   14.2253   -6.2216 H   0  0  0  0  0  0  0  0  0  0  0  0
   -0.6572   10.5584   -7.5683 H   0  0  0  0  0  0  0  0  0  0  0  0
    1.4836   14.2826   -6.0565 H   0  0  0  0  0  0  0  0  0  0  0  0
    0.2413   15.4403   -6.6420 H   0  0  0  0  0  0  0  0  0  0  0  0
    0.1739   14.8277   -4.9547 H   0  0  0  0  0  0  0  0  0  0  0  0
   -4.3489   15.8104  -11.7333 H   0  0  0  0  0  0  0  0  0  0  0  0
   -3.7594   15.2509  -10.1314 H   0  0  0  0  0  0  0  0  0  0  0  0
   -2.3623   15.1046  -12.8152 H   0  0  0  0  0  0  0  0  0  0  0  0
   -1.8724   16.0161  -11.3469 H   0  0  0  0  0  0  0  0  0  0  0  0
   -0.5191   13.9803  -11.7319 H   0  0  0  0  0  0  0  0  0  0  0  0
   -1.4061   13.9537  -10.1701 H   0  0  0  0  0  0  0  0  0  0  0  0
   -2.2388   12.5464  -12.7611 H   0  0  0  0  0  0  0  0  0  0  0  0
   -1.5665   11.7637  -11.2908 H   0  0  0  0  0  0  0  0  0  0  0  0
   -3.5680   12.3989   -9.9688 H   0  0  0  0  0  0  0  0  0  0  0  0
   -4.1284   11.5964  -11.4749 H   0  0  0  0  0  0  0  0  0  0  0  0
  1  2  2  0  0  0  0
  1  4  1  0  0  0  0
  1 12  1  0  0  0  0
  2  6  1  0  0  0  0
  3  4  1  0  0  0  0
  3  5  2  0  0  0  0
  5  6  1  0  0  0  0
  5  9  1  0  0  0  0
  6  7  2  0  0  0  0
  7  8  1  0  0  0  0
  7 10  1  0  0  0  0
  8  9  2  0  0  0  0
 10 14  2  3  0  0  0
 11 12  1  0  0  0  0
 11 26  1  0  0  0  0
 11 30  1  0  0  0  0
 12 13  2  0  0  0  0
 14 15  1  0  0  0  0
 14 19  1  0  0  0  0
 15 16  2  0  0  0  0
 16 17  1  0  0  0  0
 17 18  2  0  0  0  0
 17 20  1  0  0  0  0
 18 19  1  0  0  0  0
 20 21  2  0  0  0  0
 20 24  1  0  0  0  0
 21 22  1  0  0  0  0
 22 23  1  0  0  0  0
 22 25  1  0  0  0  0
 23 24  2  0  0  0  0
 26 27  1  0  0  0  0
 27 28  1  0  0  0  0
 28 29  1  0  0  0  0
 29 30  1  0  0  0  0
  2 31  1  0  0  0  0
  3 32  1  0  0  0  0
  4 33  1  0  0  0  0
  4 34  1  0  0  0  0
 10 35  1  0  0  0  0
 15 36  1  0  0  0  0
 16 37  1  0  0  0  0
 18 38  1  0  0  0  0
 19 39  1  0  0  0  0
 19 40  1  0  0  0  0
 21 41  1  0  0  0  0
 24 42  1  0  0  0  0
 25 43  1  0  0  0  0
 25 44  1  0  0  0  0
 25 45  1  0  0  0  0
 26 46  1  0  0  0  0
 26 47  1  0  0  0  0
 27 48  1  0  0  0  0
 27 49  1  0  0  0  0
 28 50  1  0  0  0  0
 28 51  1  0  0  0  0
 29 52  1  0  0  0  0
 29 53  1  0  0  0  0
 30 54  1  0  0  0  0
 30 55  1  0  0  0  0
M  END
> <Name>
41

> <IC50[uM]>
0.006

$$$$
41
  -OEChem-05192314333D
 Structure written by MMmdl.
 55 59  0     0  0  0  0  0  0999 V2000
   -6.3365   12.3514  -12.0169 C   0  0  0  0  0  0  0  0  0  0  0  0
   -6.4737   11.7818  -10.7533 C   0  0  0  0  0  0  0  0  0  0  0  0
   -7.7043   10.5771  -13.0419 C   0  0  0  0  0  0  0  0  0  0  0  0
   -6.9700   11.7706  -13.1413 C   0  0  0  0  0  0  0  0  0  0  0  0
   -7.8117   10.0060  -11.7679 C   0  0  0  0  0  0  0  0  0  0  0  0
   -7.2142   10.6153  -10.6085 C   0  0  0  0  0  0  0  0  0  0  0  0
   -7.6079    9.7475   -9.5180 C   0  0  0  0  0  0  0  0  0  0  0  0
   -8.2848    8.7450   -9.9896 N   0  0  0  0  0  0  0  0  0  0  0  0
   -8.4180    8.8715  -11.3012 N   0  0  0  0  0  0  0  0  0  0  0  0
   -7.3345    9.8877   -8.0248 C   0  0  0  0  0  0  0  0  0  0  0  0
   -4.3847   13.7235  -11.4418 N   0  0  0  0  0  0  0  0  0  0  0  0
   -5.5533   13.6485  -12.1711 C   0  0  0  0  0  0  0  0  0  0  0  0
   -5.9795   14.5724  -12.8566 O   0  0  0  0  0  0  0  0  0  0  0  0
   -5.9627   10.4850   -7.7364 C   0  0  0  0  0  0  0  0  0  0  0  0
   -5.8552   11.7581   -7.1652 C   0  0  0  0  0  0  0  0  0  0  0  0
   -4.5966   12.3060   -6.9181 C   0  0  0  0  0  0  0  0  0  0  0  0
   -3.4424   11.5865   -7.2381 C   0  0  0  0  0  0  0  0  0  0  0  0
   -3.5593   10.3139   -7.8013 C   0  0  0  0  0  0  0  0  0  0  0  0
   -4.8122    9.7647   -8.0513 C   0  0  0  0  0  0  0  0  0  0  0  0
   -2.0942   12.1662   -6.9781 C   0  0  0  0  0  0  0  0  0  0  0  0
   -1.7414   13.4274   -6.4937 C   0  0  0  0  0  0  0  0  0  0  0  0
   -0.4089   13.4560   -6.4321 N   0  0  0  0  0  0  0  0  0  0  0  0
    0.1814   12.3590   -6.8068 N   0  0  0  0  0  0  0  0  0  0  0  0
   -0.8029   11.5527   -7.1728 C   0  0  0  0  0  0  0  0  0  0  0  0
    0.4236   14.5699   -5.9945 C   0  0  0  0  0  0  0  0  0  0  0  0
   -3.7594   15.0422  -11.2114 C   0  0  0  0  0  0  0  0  0  0  0  0
   -2.3424   15.0924  -11.7154 C   0  0  0  0  0  0  0  0  0  0  0  0
   -1.5130   13.9202  -11.2644 C   0  0  0  0  0  0  0  0  0  0  0  0
   -2.1771   12.5990  -11.6641 C   0  0  0  0  0  0  0  0  0  0  0  0
   -3.6239   12.4833  -11.0641 C   0  0  0  0  0  0  0  0  0  0  0  0
   -5.4592   11.5650  -10.3875 H   0  0  0  0  0  0  0  0  0  0  0  0
   -6.9415   12.5405  -10.1087 H   0  0  0  0  0  0  0  0  0  0  0  0
   -8.1640   10.1218  -13.9067 H   0  0  0  0  0  0  0  0  0  0  0  0
   -6.8867   12.2580  -14.1015 H   0  0  0  0  0  0  0  0  0  0  0  0
   -8.0354    9.5960   -7.2566 H   0  0  0  0  0  0  0  0  0  0  0  0
   -6.7459   12.3157   -6.9160 H   0  0  0  0  0  0  0  0  0  0  0  0
   -4.5140   13.2889   -6.4783 H   0  0  0  0  0  0  0  0  0  0  0  0
   -3.4416   12.0327   -8.2435 H   0  0  0  0  0  0  0  0  0  0  0  0
   -2.6697    9.7519   -8.0446 H   0  0  0  0  0  0  0  0  0  0  0  0
   -4.8934    8.7808   -8.4891 H   0  0  0  0  0  0  0  0  0  0  0  0
   -2.4165   14.2253   -6.2216 H   0  0  0  0  0  0  0  0  0  0  0  0
   -0.6572   10.5584   -7.5683 H   0  0  0  0  0  0  0  0  0  0  0  0
    1.4836   14.2826   -6.0565 H   0  0  0  0  0  0  0  0  0  0  0  0
    0.2413   15.4403   -6.6420 H   0  0  0  0  0  0  0  0  0  0  0  0
    0.1739   14.8277   -4.9547 H   0  0  0  0  0  0  0  0  0  0  0  0
   -4.3489   15.8104  -11.7333 H   0  0  0  0  0  0  0  0  0  0  0  0
   -3.7594   15.2509  -10.1314 H   0  0  0  0  0  0  0  0  0  0  0  0
   -2.3623   15.1046  -12.8152 H   0  0  0  0  0  0  0  0  0  0  0  0
   -1.8724   16.0161  -11.3469 H   0  0  0  0  0  0  0  0  0  0  0  0
   -0.5191   13.9803  -11.7319 H   0  0  0  0  0  0  0  0  0  0  0  0
   -1.4061   13.9537  -10.1701 H   0  0  0  0  0  0  0  0  0  0  0  0
   -2.2388   12.5464  -12.7611 H   0  0  0  0  0  0  0  0  0  0  0  0
   -1.5665   11.7637  -11.2908 H   0  0  0  0  0  0  0  0  0  0  0  0
   -3.5680   12.3989   -9.9688 H   0  0  0  0  0  0  0  0  0  0  0  0
   -4.1284   11.5964  -11.4749 H   0  0  0  0  0  0  0  0  0  0  0  0
  1  2  1  0  0  0  0
  1  4  2  0  0  0  0
  1 12  1  0  0  0  0
  2  6  1  0  0  0  0
  3  4  1  0  0  0  0
  3  5  2  0  0  0  0
  5  6  1  0  0  0  0
  5  9  1  0  0  0  0
  6  7  2  0  0  0  0
  7  8  1  0  0  0  0
  7 10  1  0  0  0  0
  8  9  2  0  0  0  0
 10 14  2  0  0  0  0
 11 12  1  0  0  0  0
 11 26  1  0  0  0  0
 11 30  1  0  0  0  0
 12 13  2  0  0  0  0
 14 15  1  0  0  0  0
 14 19  1  0  0  0  0
 15 16  2  0  0  0  0
 16 17  1  0  0  0  0
 17 18  1  0  0  0  0
 17 20  1  0  0  0  0
 18 19  2  0  0  0  0
 20 21  2  0  0  0  0
 20 24  1  0  0  0  0
 21 22  1  0  0  0  0
 22 23  1  0  0  0  0
 22 25  1  0  0  0  0
 23 24  2  0  0  0  0
 26 27  1  0  0  0  0
 27 28  1  0  0  0  0
 28 29  1  0  0  0  0
 29 30  1  0  0  0  0
  2 31  1  0  0  0  0
  2 32  1  0  0  0  0
  3 33  1  0  0  0  0
  4 34  1  0  0  0  0
 10 35  1  0  0  0  0
 15 36  1  0  0  0  0
 16 37  1  0  0  0  0
 17 38  1  0  0  0  0
 18 39  1  0  0  0  0
 19 40  1  0  0  0  0
 21 41  1  0  0  0  0
 24 42  1  0  0  0  0
 25 43  1  0  0  0  0
 25 44  1  0  0  0  0
 25 45  1  0  0  0  0
 26 46  1  0  0  0  0
 26 47  1  0  0  0  0
 27 48  1  0  0  0  0
 27 49  1  0  0  0  0
 28 50  1  0  0  0  0
 28 51  1  0  0  0  0
 29 52  1  0  0  0  0
 29 53  1  0  0  0  0
 30 54  1  0  0  0  0
 30 55  1  0  0  0  0
M  END
> <Name>
41

> <IC50[uM]>
0.006

$$$$
41
  -OEChem-05192314333D
 Structure written by MMmdl.
 55 59  0     0  0  0  0  0  0999 V2000
   -6.3365   12.3514  -12.0169 C   0  0  0  0  0  0  0  0  0  0  0  0
   -6.4737   11.7818  -10.7533 C   0  0  0  0  0  0  0  0  0  0  0  0
   -7.7043   10.5771  -13.0419 C   0  0  0  0  0  0  0  0  0  0  0  0
   -6.9700   11.7706  -13.1413 C   0  0  0  0  0  0  0  0  0  0  0  0
   -7.8117   10.0060  -11.7679 C   0  0  0  0  0  0  0  0  0  0  0  0
   -7.2142   10.6153  -10.6085 C   0  0  0  0  0  0  0  0  0  0  0  0
   -7.6079    9.7475   -9.5180 C   0  0  0  0  0  0  0  0  0  0  0  0
   -8.2848    8.7450   -9.9896 N   0  0  0  0  0  0  0  0  0  0  0  0
   -8.4180    8.8715  -11.3012 N   0  0  0  0  0  0  0  0  0  0  0  0
   -7.3345    9.8877   -8.0248 C   0  0  0  0  0  0  0  0  0  0  0  0
   -4.3847   13.7235  -11.4418 N   0  0  0  0  0  0  0  0  0  0  0  0
   -5.5533   13.6485  -12.1711 C   0  0  0  0  0  0  0  0  0  0  0  0
   -5.9795   14.5724  -12.8566 O   0  0  0  0  0  0  0  0  0  0  0  0
   -5.9627   10.4850   -7.7364 C   0  0  0  0  0  0  0  0  0  0  0  0
   -5.8552   11.7581   -7.1652 C   0  0  0  0  0  0  0  0  0  0  0  0
   -4.5966   12.3060   -6.9181 C   0  0  0  0  0  0  0  0  0  0  0  0
   -3.4424   11.5865   -7.2381 C   0  0  0  0  0  0  0  0  0  0  0  0
   -3.5593   10.3139   -7.8013 C   0  0  0  0  0  0  0  0  0  0  0  0
   -4.8122    9.7647   -8.0513 C   0  0  0  0  0  0  0  0  0  0  0  0
   -2.0942   12.1662   -6.9781 C   0  0  0  0  0  0  0  0  0  0  0  0
   -1.7414   13.4274   -6.4937 C   0  0  0  0  0  0  0  0  0  0  0  0
   -0.4089   13.4560   -6.4321 N   0  0  0  0  0  0  0  0  0  0  0  0
    0.1814   12.3590   -6.8068 N   0  0  0  0  0  0  0  0  0  0  0  0
   -0.8029   11.5527   -7.1728 C   0  0  0  0  0  0  0  0  0  0  0  0
    0.4236   14.5699   -5.9945 C   0  0  0  0  0  0  0  0  0  0  0  0
   -3.7594   15.0422  -11.2114 C   0  0  0  0  0  0  0  0  0  0  0  0
   -2.3424   15.0924  -11.7154 C   0  0  0  0  0  0  0  0  0  0  0  0
   -1.5130   13.9202  -11.2644 C   0  0  0  0  0  0  0  0  0  0  0  0
   -2.1771   12.5990  -11.6641 C   0  0  0  0  0  0  0  0  0  0  0  0
   -3.6239   12.4833  -11.0641 C   0  0  0  0  0  0  0  0  0  0  0  0
   -5.4592   11.5650  -10.3875 H   0  0  0  0  0  0  0  0  0  0  0  0
   -6.9415   12.5405  -10.1087 H   0  0  0  0  0  0  0  0  0  0  0  0
   -8.1640   10.1218  -13.9067 H   0  0  0  0  0  0  0  0  0  0  0  0
   -6.8867   12.2580  -14.1015 H   0  0  0  0  0  0  0  0  0  0  0  0
   -8.0354    9.5960   -7.2566 H   0  0  0  0  0  0  0  0  0  0  0  0
   -6.7459   12.3157   -6.9160 H   0  0  0  0  0  0  0  0  0  0  0  0
   -4.5140   13.2889   -6.4783 H   0  0  0  0  0  0  0  0  0  0  0  0
   -2.6697    9.7519   -8.0446 H   0  0  0  0  0  0  0  0  0  0  0  0
   -4.8638    8.8212   -7.4881 H   0  0  0  0  0  0  0  0  0  0  0  0
   -4.8562    9.5510   -9.1294 H   0  0  0  0  0  0  0  0  0  0  0  0
   -2.4165   14.2253   -6.2216 H   0  0  0  0  0  0  0  0  0  0  0  0
   -0.6572   10.5584   -7.5683 H   0  0  0  0  0  0  0  0  0  0  0  0
    1.4836   14.2826   -6.0565 H   0  0  0  0  0  0  0  0  0  0  0  0
    0.2413   15.4403   -6.6420 H   0  0  0  0  0  0  0  0  0  0  0  0
    0.1739   14.8277   -4.9547 H   0  0  0  0  0  0  0  0  0  0  0  0
   -4.3489   15.8104  -11.7333 H   0  0  0  0  0  0  0  0  0  0  0  0
   -3.7594   15.2509  -10.1314 H   0  0  0  0  0  0  0  0  0  0  0  0
   -2.3623   15.1046  -12.8152 H   0  0  0  0  0  0  0  0  0  0  0  0
   -1.8724   16.0161  -11.3469 H   0  0  0  0  0  0  0  0  0  0  0  0
   -0.5191   13.9803  -11.7319 H   0  0  0  0  0  0  0  0  0  0  0  0
   -1.4061   13.9537  -10.1701 H   0  0  0  0  0  0  0  0  0  0  0  0
   -2.2388   12.5464  -12.7611 H   0  0  0  0  0  0  0  0  0  0  0  0
   -1.5665   11.7637  -11.2908 H   0  0  0  0  0  0  0  0  0  0  0  0
   -3.5680   12.3989   -9.9688 H   0  0  0  0  0  0  0  0  0  0  0  0
   -4.1284   11.5964  -11.4749 H   0  0  0  0  0  0  0  0  0  0  0  0
  1  2  1  0  0  0  0
  1  4  2  0  0  0  0
  1 12  1  0  0  0  0
  2  6  1  0  0  0  0
  3  4  1  0  0  0  0
  3  5  2  0  0  0  0
  5  6  1  0  0  0  0
  5  9  1  0  0  0  0
  6  7  2  0  0  0  0
  7  8  1  0  0  0  0
  7 10  1  0  0  0  0
  8  9  2  0  0  0  0
 10 14  2  3  0  0  0
 11 12  1  0  0  0  0
 11 26  1  0  0  0  0
 11 30  1  0  0  0  0
 12 13  2  0  0  0  0
 14 15  1  0  0  0  0
 14 19  1  0  0  0  0
 15 16  2  0  0  0  0
 16 17  1  0  0  0  0
 17 18  2  0  0  0  0
 17 20  1  0  0  0  0
 18 19  1  0  0  0  0
 20 21  2  0  0  0  0
 20 24  1  0  0  0  0
 21 22  1  0  0  0  0
 22 23  1  0  0  0  0
 22 25  1  0  0  0  0
 23 24  2  0  0  0  0
 26 27  1  0  0  0  0
 27 28  1  0  0  0  0
 28 29  1  0  0  0  0
 29 30  1  0  0  0  0
  2 31  1  0  0  0  0
  2 32  1  0  0  0  0
  3 33  1  0  0  0  0
  4 34  1  0  0  0  0
 10 35  1  0  0  0  0
 15 36  1  0  0  0  0
 16 37  1  0  0  0  0
 18 38  1  0  0  0  0
 19 39  1  0  0  0  0
 19 40  1  0  0  0  0
 21 41  1  0  0  0  0
 24 42  1  0  0  0  0
 25 43  1  0  0  0  0
 25 44  1  0  0  0  0
 25 45  1  0  0  0  0
 26 46  1  0  0  0  0
 26 47  1  0  0  0  0
 27 48  1  0  0  0  0
 27 49  1  0  0  0  0
 28 50  1  0  0  0  0
 28 51  1  0  0  0  0
 29 52  1  0  0  0  0
 29 53  1  0  0  0  0
 30 54  1  0  0  0  0
 30 55  1  0  0  0  0
M  END
> <Name>
41

> <IC50[uM]>
0.006

$$$$
41
  -OEChem-05192314333D
 Structure written by MMmdl.
 55 59  0     0  0  0  0  0  0999 V2000
   -6.3365   12.3514  -12.0169 C   0  0  0  0  0  0  0  0  0  0  0  0
   -6.4737   11.7818  -10.7533 C   0  0  0  0  0  0  0  0  0  0  0  0
   -7.7043   10.5771  -13.0419 C   0  0  0  0  0  0  0  0  0  0  0  0
   -6.9700   11.7706  -13.1413 C   0  0  0  0  0  0  0  0  0  0  0  0
   -7.8117   10.0060  -11.7679 C   0  0  0  0  0  0  0  0  0  0  0  0
   -7.2142   10.6153  -10.6085 C   0  0  0  0  0  0  0  0  0  0  0  0
   -7.6079    9.7475   -9.5180 C   0  0  0  0  0  0  0  0  0  0  0  0
   -8.2848    8.7450   -9.9896 N   0  0  0  0  0  0  0  0  0  0  0  0
   -8.4180    8.8715  -11.3012 N   0  0  0  0  0  0  0  0  0  0  0  0
   -7.3345    9.8877   -8.0248 C   0  0  0  0  0  0  0  0  0  0  0  0
   -4.3847   13.7235  -11.4418 N   0  0  0  0  0  0  0  0  0  0  0  0
   -5.5533   13.6485  -12.1711 C   0  0  0  0  0  0  0  0  0  0  0  0
   -5.9795   14.5724  -12.8566 O   0  0  0  0  0  0  0  0  0  0  0  0
   -5.9627   10.4850   -7.7364 C   0  0  0  0  0  0  0  0  0  0  0  0
   -5.8552   11.7581   -7.1652 C   0  0  0  0  0  0  0  0  0  0  0  0
   -4.5966   12.3060   -6.9181 C   0  0  0  0  0  0  0  0  0  0  0  0
   -3.4424   11.5865   -7.2381 C   0  0  0  0  0  0  0  0  0  0  0  0
   -3.5593   10.3139   -7.8013 C   0  0  0  0  0  0  0  0  0  0  0  0
   -4.8122    9.7647   -8.0513 C   0  0  0  0  0  0  0  0  0  0  0  0
   -2.0942   12.1662   -6.9781 C   0  0  0  0  0  0  0  0  0  0  0  0
   -1.7414   13.4274   -6.4937 C   0  0  0  0  0  0  0  0  0  0  0  0
   -0.4089   13.4560   -6.4321 N   0  0  0  0  0  0  0  0  0  0  0  0
    0.1814   12.3590   -6.8068 N   0  0  0  0  0  0  0  0  0  0  0  0
   -0.8029   11.5527   -7.1728 C   0  0  0  0  0  0  0  0  0  0  0  0
    0.4236   14.5699   -5.9945 C   0  0  0  0  0  0  0  0  0  0  0  0
   -3.7594   15.0422  -11.2114 C   0  0  0  0  0  0  0  0  0  0  0  0
   -2.3424   15.0924  -11.7154 C   0  0  0  0  0  0  0  0  0  0  0  0
   -1.5130   13.9202  -11.2644 C   0  0  0  0  0  0  0  0  0  0  0  0
   -2.1771   12.5990  -11.6641 C   0  0  0  0  0  0  0  0  0  0  0  0
   -3.6239   12.4833  -11.0641 C   0  0  0  0  0  0  0  0  0  0  0  0
   -6.0088   12.2426   -9.8942 H   0  0  0  0  0  0  0  0  0  0  0  0
   -8.1640   10.1218  -13.9067 H   0  0  0  0  0  0  0  0  0  0  0  0
   -6.8867   12.2580  -14.1015 H   0  0  0  0  0  0  0  0  0  0  0  0
   -8.6506    7.9907   -9.4444 H   0  0  0  0  0  0  0  0  0  0  0  0
   -8.0354    9.5960   -7.2566 H   0  0  0  0  0  0  0  0  0  0  0  0
   -5.3618   15.2939  -12.8358 H   0  0  0  0  0  0  0  0  0  0  0  0
   -6.7459   12.3157   -6.9160 H   0  0  0  0  0  0  0  0  0  0  0  0
   -4.5140   13.2889   -6.4783 H   0  0  0  0  0  0  0  0  0  0  0  0
   -2.6697    9.7519   -8.0446 H   0  0  0  0  0  0  0  0  0  0  0  0
   -4.8934    8.7808   -8.4891 H   0  0  0  0  0  0  0  0  0  0  0  0
   -2.4165   14.2253   -6.2216 H   0  0  0  0  0  0  0  0  0  0  0  0
   -0.6572   10.5584   -7.5683 H   0  0  0  0  0  0  0  0  0  0  0  0
    1.4836   14.2826   -6.0565 H   0  0  0  0  0  0  0  0  0  0  0  0
    0.2413   15.4403   -6.6420 H   0  0  0  0  0  0  0  0  0  0  0  0
    0.1739   14.8277   -4.9547 H   0  0  0  0  0  0  0  0  0  0  0  0
   -4.3489   15.8104  -11.7333 H   0  0  0  0  0  0  0  0  0  0  0  0
   -3.7594   15.2509  -10.1314 H   0  0  0  0  0  0  0  0  0  0  0  0
   -2.3623   15.1046  -12.8152 H   0  0  0  0  0  0  0  0  0  0  0  0
   -1.8724   16.0161  -11.3469 H   0  0  0  0  0  0  0  0  0  0  0  0
   -0.5191   13.9803  -11.7319 H   0  0  0  0  0  0  0  0  0  0  0  0
   -1.4061   13.9537  -10.1701 H   0  0  0  0  0  0  0  0  0  0  0  0
   -2.2388   12.5464  -12.7611 H   0  0  0  0  0  0  0  0  0  0  0  0
   -1.5665   11.7637  -11.2908 H   0  0  0  0  0  0  0  0  0  0  0  0
   -3.5680   12.3989   -9.9688 H   0  0  0  0  0  0  0  0  0  0  0  0
   -4.1284   11.5964  -11.4749 H   0  0  0  0  0  0  0  0  0  0  0  0
  1  2  1  0  0  0  0
  1  4  1  0  0  0  0
  1 12  2  3  0  0  0
  2  6  2  0  0  0  0
  3  4  2  0  0  0  0
  3  5  1  0  0  0  0
  5  6  1  0  0  0  0
  5  9  2  0  0  0  0
  6  7  1  0  0  0  0
  7  8  1  0  0  0  0
  7 10  2  3  0  0  0
  8  9  1  0  0  0  0
 10 14  1  0  0  0  0
 11 12  1  0  0  0  0
 11 26  1  0  0  0  0
 11 30  1  0  0  0  0
 12 13  1  0  0  0  0
 14 15  2  0  0  0  0
 14 19  1  0  0  0  0
 15 16  1  0  0  0  0
 16 17  2  0  0  0  0
 17 18  1  0  0  0  0
 17 20  1  0  0  0  0
 18 19  2  0  0  0  0
 20 21  2  0  0  0  0
 20 24  1  0  0  0  0
 21 22  1  0  0  0  0
 22 23  1  0  0  0  0
 22 25  1  0  0  0  0
 23 24  2  0  0  0  0
 26 27  1  0  0  0  0
 27 28  1  0  0  0  0
 28 29  1  0  0  0  0
 29 30  1  0  0  0  0
  2 31  1  0  0  0  0
  3 32  1  0  0  0  0
  4 33  1  0  0  0  0
  8 34  1  0  0  0  0
 10 35  1  0  0  0  0
 13 36  1  0  0  0  0
 15 37  1  0  0  0  0
 16 38  1  0  0  0  0
 18 39  1  0  0  0  0
 19 40  1  0  0  0  0
 21 41  1  0  0  0  0
 24 42  1  0  0  0  0
 25 43  1  0  0  0  0
 25 44  1  0  0  0  0
 25 45  1  0  0  0  0
 26 46  1  0  0  0  0
 26 47  1  0  0  0  0
 27 48  1  0  0  0  0
 27 49  1  0  0  0  0
 28 50  1  0  0  0  0
 28 51  1  0  0  0  0
 29 52  1  0  0  0  0
 29 53  1  0  0  0  0
 30 54  1  0  0  0  0
 30 55  1  0  0  0  0
M  END
> <Name>
41

> <IC50[uM]>
0.006

$$$$
41
  -OEChem-05192314333D
 Structure written by MMmdl.
 55 59  0     1  0  0  0  0  0999 V2000
   -6.3365   12.3514  -12.0169 C   0  0  0  0  0  0  0  0  0  0  0  0
   -6.4737   11.7818  -10.7533 C   0  0  0  0  0  0  0  0  0  0  0  0
   -7.7043   10.5771  -13.0419 C   0  0  0  0  0  0  0  0  0  0  0  0
   -6.9700   11.7706  -13.1413 C   0  0  0  0  0  0  0  0  0  0  0  0
   -7.8117   10.0060  -11.7679 C   0  0  0  0  0  0  0  0  0  0  0  0
   -7.2142   10.6153  -10.6085 C   0  0  0  0  0  0  0  0  0  0  0  0
   -7.6079    9.7475   -9.5180 C   0  0  0  0  0  0  0  0  0  0  0  0
   -8.2848    8.7450   -9.9896 N   0  0  0  0  0  0  0  0  0  0  0  0
   -8.4180    8.8715  -11.3012 N   0  0  0  0  0  0  0  0  0  0  0  0
   -7.3345    9.8877   -8.0248 C   0  0  0  0  0  0  0  0  0  0  0  0
   -4.3847   13.7235  -11.4418 N   0  0  0  0  0  0  0  0  0  0  0  0
   -5.5533   13.6485  -12.1711 C   0  0  3  0  0  0  0  0  0  0  0  0
   -5.9795   14.5724  -12.8566 O   0  0  0  0  0  0  0  0  0  0  0  0
   -5.9627   10.4850   -7.7364 C   0  0  0  0  0  0  0  0  0  0  0  0
   -5.8552   11.7581   -7.1652 C   0  0  0  0  0  0  0  0  0  0  0  0
   -4.5966   12.3060   -6.9181 C   0  0  0  0  0  0  0  0  0  0  0  0
   -3.4424   11.5865   -7.2381 C   0  0  0  0  0  0  0  0  0  0  0  0
   -3.5593   10.3139   -7.8013 C   0  0  0  0  0  0  0  0  0  0  0  0
   -4.8122    9.7647   -8.0513 C   0  0  0  0  0  0  0  0  0  0  0  0
   -2.0942   12.1662   -6.9781 C   0  0  0  0  0  0  0  0  0  0  0  0
   -1.7414   13.4274   -6.4937 C   0  0  0  0  0  0  0  0  0  0  0  0
   -0.4089   13.4560   -6.4321 N   0  0  0  0  0  0  0  0  0  0  0  0
    0.1814   12.3590   -6.8068 N   0  0  0  0  0  0  0  0  0  0  0  0
   -0.8029   11.5527   -7.1728 C   0  0  0  0  0  0  0  0  0  0  0  0
    0.4236   14.5699   -5.9945 C   0  0  0  0  0  0  0  0  0  0  0  0
   -3.7594   15.0422  -11.2114 C   0  0  0  0  0  0  0  0  0  0  0  0
   -2.3424   15.0924  -11.7154 C   0  0  0  0  0  0  0  0  0  0  0  0
   -1.5130   13.9202  -11.2644 C   0  0  0  0  0  0  0  0  0  0  0  0
   -2.1771   12.5990  -11.6641 C   0  0  0  0  0  0  0  0  0  0  0  0
   -3.6239   12.4833  -11.0641 C   0  0  0  0  0  0  0  0  0  0  0  0
   -6.0088   12.2426   -9.8942 H   0  0  0  0  0  0  0  0  0  0  0  0
   -8.1640   10.1218  -13.9067 H   0  0  0  0  0  0  0  0  0  0  0  0
   -6.8867   12.2580  -14.1015 H   0  0  0  0  0  0  0  0  0  0  0  0
   -8.0354    9.5960   -7.2566 H   0  0  0  0  0  0  0  0  0  0  0  0
   -5.0088   13.2352  -13.0329 H   0  0  0  0  0  0  0  0  0  0  0  0
   -5.3618   15.2939  -12.8358 H   0  0  0  0  0  0  0  0  0  0  0  0
   -6.7459   12.3157   -6.9160 H   0  0  0  0  0  0  0  0  0  0  0  0
   -4.5140   13.2889   -6.4783 H   0  0  0  0  0  0  0  0  0  0  0  0
   -2.6697    9.7519   -8.0446 H   0  0  0  0  0  0  0  0  0  0  0  0
   -4.8934    8.7808   -8.4891 H   0  0  0  0  0  0  0  0  0  0  0  0
   -2.4165   14.2253   -6.2216 H   0  0  0  0  0  0  0  0  0  0  0  0
   -0.6572   10.5584   -7.5683 H   0  0  0  0  0  0  0  0  0  0  0  0
    1.4836   14.2826   -6.0565 H   0  0  0  0  0  0  0  0  0  0  0  0
    0.2413   15.4403   -6.6420 H   0  0  0  0  0  0  0  0  0  0  0  0
    0.1739   14.8277   -4.9547 H   0  0  0  0  0  0  0  0  0  0  0  0
   -4.3489   15.8104  -11.7333 H   0  0  0  0  0  0  0  0  0  0  0  0
   -3.7594   15.2509  -10.1314 H   0  0  0  0  0  0  0  0  0  0  0  0
   -2.3623   15.1046  -12.8152 H   0  0  0  0  0  0  0  0  0  0  0  0
   -1.8724   16.0161  -11.3469 H   0  0  0  0  0  0  0  0  0  0  0  0
   -0.5191   13.9803  -11.7319 H   0  0  0  0  0  0  0  0  0  0  0  0
   -1.4061   13.9537  -10.1701 H   0  0  0  0  0  0  0  0  0  0  0  0
   -2.2388   12.5464  -12.7611 H   0  0  0  0  0  0  0  0  0  0  0  0
   -1.5665   11.7637  -11.2908 H   0  0  0  0  0  0  0  0  0  0  0  0
   -3.5680   12.3989   -9.9688 H   0  0  0  0  0  0  0  0  0  0  0  0
   -4.1284   11.5964  -11.4749 H   0  0  0  0  0  0  0  0  0  0  0  0
  1  2  2  0  0  0  0
  1  4  1  0  0  0  0
  1 12  1  0  0  0  0
  2  6  1  0  0  0  0
  3  4  2  0  0  0  0
  3  5  1  0  0  0  0
  5  6  2  0  0  0  0
  5  9  1  0  0  0  0
  6  7  1  0  0  0  0
  7  8  1  0  0  0  0
  7 10  2  3  0  0  0
  8  9  2  0  0  0  0
 10 14  1  0  0  0  0
 11 12  1  0  0  0  0
 11 26  1  0  0  0  0
 11 30  1  0  0  0  0
 12 13  1  0  0  0  0
 14 15  2  0  0  0  0
 14 19  1  0  0  0  0
 15 16  1  0  0  0  0
 16 17  2  0  0  0  0
 17 18  1  0  0  0  0
 17 20  1  0  0  0  0
 18 19  2  0  0  0  0
 20 21  2  0  0  0  0
 20 24  1  0  0  0  0
 21 22  1  0  0  0  0
 22 23  1  0  0  0  0
 22 25  1  0  0  0  0
 23 24  2  0  0  0  0
 26 27  1  0  0  0  0
 27 28  1  0  0  0  0
 28 29  1  0  0  0  0
 29 30  1  0  0  0  0
  2 31  1  0  0  0  0
  3 32  1  0  0  0  0
  4 33  1  0  0  0  0
 10 34  1  0  0  0  0
 12 35  1  0  0  0  0
 13 36  1  0  0  0  0
 15 37  1  0  0  0  0
 16 38  1  0  0  0  0
 18 39  1  0  0  0  0
 19 40  1  0  0  0  0
 21 41  1  0  0  0  0
 24 42  1  0  0  0  0
 25 43  1  0  0  0  0
 25 44  1  0  0  0  0
 25 45  1  0  0  0  0
 26 46  1  0  0  0  0
 26 47  1  0  0  0  0
 27 48  1  0  0  0  0
 27 49  1  0  0  0  0
 28 50  1  0  0  0  0
 28 51  1  0  0  0  0
 29 52  1  0  0  0  0
 29 53  1  0  0  0  0
 30 54  1  0  0  0  0
 30 55  1  0  0  0  0
M  END
> <Name>
41

> <IC50[uM]>
0.006

$$$$
41
  -OEChem-05192314333D
 Structure written by MMmdl.
 55 59  0     0  0  0  0  0  0999 V2000
   -6.3365   12.3514  -12.0169 C   0  0  0  0  0  0  0  0  0  0  0  0
   -6.4737   11.7818  -10.7533 C   0  0  0  0  0  0  0  0  0  0  0  0
   -7.7043   10.5771  -13.0419 C   0  0  0  0  0  0  0  0  0  0  0  0
   -6.9700   11.7706  -13.1413 C   0  0  0  0  0  0  0  0  0  0  0  0
   -7.8117   10.0060  -11.7679 C   0  0  0  0  0  0  0  0  0  0  0  0
   -7.2142   10.6153  -10.6085 C   0  0  0  0  0  0  0  0  0  0  0  0
   -7.6079    9.7475   -9.5180 C   0  0  0  0  0  0  0  0  0  0  0  0
   -8.2848    8.7450   -9.9896 N   0  0  0  0  0  0  0  0  0  0  0  0
   -8.4180    8.8715  -11.3012 N   0  0  0  0  0  0  0  0  0  0  0  0
   -7.3345    9.8877   -8.0248 C   0  0  0  0  0  0  0  0  0  0  0  0
   -4.3847   13.7235  -11.4418 N   0  0  0  0  0  0  0  0  0  0  0  0
   -5.5533   13.6485  -12.1711 C   0  0  0  0  0  0  0  0  0  0  0  0
   -5.9795   14.5724  -12.8566 O   0  0  0  0  0  0  0  0  0  0  0  0
   -5.9627   10.4850   -7.7364 C   0  0  0  0  0  0  0  0  0  0  0  0
   -5.8552   11.7581   -7.1652 C   0  0  0  0  0  0  0  0  0  0  0  0
   -4.5966   12.3060   -6.9181 C   0  0  0  0  0  0  0  0  0  0  0  0
   -3.4424   11.5865   -7.2381 C   0  0  0  0  0  0  0  0  0  0  0  0
   -3.5593   10.3139   -7.8013 C   0  0  0  0  0  0  0  0  0  0  0  0
   -4.8122    9.7647   -8.0513 C   0  0  0  0  0  0  0  0  0  0  0  0
   -2.0942   12.1662   -6.9781 C   0  0  0  0  0  0  0  0  0  0  0  0
   -1.7414   13.4274   -6.4937 C   0  0  0  0  0  0  0  0  0  0  0  0
   -0.4089   13.4560   -6.4321 N   0  0  0  0  0  0  0  0  0  0  0  0
    0.1814   12.3590   -6.8068 N   0  0  0  0  0  0  0  0  0  0  0  0
   -0.8029   11.5527   -7.1728 C   0  0  0  0  0  0  0  0  0  0  0  0
    0.4236   14.5699   -5.9945 C   0  0  0  0  0  0  0  0  0  0  0  0
   -3.7594   15.0422  -11.2114 C   0  0  0  0  0  0  0  0  0  0  0  0
   -2.3424   15.0924  -11.7154 C   0  0  0  0  0  0  0  0  0  0  0  0
   -1.5130   13.9202  -11.2644 C   0  0  0  0  0  0  0  0  0  0  0  0
   -2.1771   12.5990  -11.6641 C   0  0  0  0  0  0  0  0  0  0  0  0
   -3.6239   12.4833  -11.0641 C   0  0  0  0  0  0  0  0  0  0  0  0
   -6.0088   12.2426   -9.8942 H   0  0  0  0  0  0  0  0  0  0  0  0
   -8.1640   10.1218  -13.9067 H   0  0  0  0  0  0  0  0  0  0  0  0
   -6.8867   12.2580  -14.1015 H   0  0  0  0  0  0  0  0  0  0  0  0
   -8.1030   10.5405   -7.5852 H   0  0  0  0  0  0  0  0  0  0  0  0
   -7.3903    8.8919   -7.5609 H   0  0  0  0  0  0  0  0  0  0  0  0
   -5.3618   15.2939  -12.8358 H   0  0  0  0  0  0  0  0  0  0  0  0
   -6.7459   12.3157   -6.9160 H   0  0  0  0  0  0  0  0  0  0  0  0
   -4.5140   13.2889   -6.4783 H   0  0  0  0  0  0  0  0  0  0  0  0
   -2.6697    9.7519   -8.0446 H   0  0  0  0  0  0  0  0  0  0  0  0
   -4.8934    8.7808   -8.4891 H   0  0  0  0  0  0  0  0  0  0  0  0
   -2.4165   14.2253   -6.2216 H   0  0  0  0  0  0  0  0  0  0  0  0
   -0.6572   10.5584   -7.5683 H   0  0  0  0  0  0  0  0  0  0  0  0
    1.4836   14.2826   -6.0565 H   0  0  0  0  0  0  0  0  0  0  0  0
    0.2413   15.4403   -6.6420 H   0  0  0  0  0  0  0  0  0  0  0  0
    0.1739   14.8277   -4.9547 H   0  0  0  0  0  0  0  0  0  0  0  0
   -4.3489   15.8104  -11.7333 H   0  0  0  0  0  0  0  0  0  0  0  0
   -3.7594   15.2509  -10.1314 H   0  0  0  0  0  0  0  0  0  0  0  0
   -2.3623   15.1046  -12.8152 H   0  0  0  0  0  0  0  0  0  0  0  0
   -1.8724   16.0161  -11.3469 H   0  0  0  0  0  0  0  0  0  0  0  0
   -0.5191   13.9803  -11.7319 H   0  0  0  0  0  0  0  0  0  0  0  0
   -1.4061   13.9537  -10.1701 H   0  0  0  0  0  0  0  0  0  0  0  0
   -2.2388   12.5464  -12.7611 H   0  0  0  0  0  0  0  0  0  0  0  0
   -1.5665   11.7637  -11.2908 H   0  0  0  0  0  0  0  0  0  0  0  0
   -3.5680   12.3989   -9.9688 H   0  0  0  0  0  0  0  0  0  0  0  0
   -4.1284   11.5964  -11.4749 H   0  0  0  0  0  0  0  0  0  0  0  0
  1  2  1  0  0  0  0
  1  4  1  0  0  0  0
  1 12  2  3  0  0  0
  2  6  2  0  0  0  0
  3  4  2  0  0  0  0
  3  5  1  0  0  0  0
  5  6  1  0  0  0  0
  5  9  2  0  0  0  0
  6  7  1  0  0  0  0
  7  8  2  0  0  0  0
  7 10  1  0  0  0  0
  8  9  1  0  0  0  0
 10 14  1  0  0  0  0
 11 12  1  0  0  0  0
 11 26  1  0  0  0  0
 11 30  1  0  0  0  0
 12 13  1  0  0  0  0
 14 15  2  0  0  0  0
 14 19  1  0  0  0  0
 15 16  1  0  0  0  0
 16 17  2  0  0  0  0
 17 18  1  0  0  0  0
 17 20  1  0  0  0  0
 18 19  2  0  0  0  0
 20 21  2  0  0  0  0
 20 24  1  0  0  0  0
 21 22  1  0  0  0  0
 22 23  1  0  0  0  0
 22 25  1  0  0  0  0
 23 24  2  0  0  0  0
 26 27  1  0  0  0  0
 27 28  1  0  0  0  0
 28 29  1  0  0  0  0
 29 30  1  0  0  0  0
  2 31  1  0  0  0  0
  3 32  1  0  0  0  0
  4 33  1  0  0  0  0
 10 34  1  0  0  0  0
 10 35  1  0  0  0  0
 13 36  1  0  0  0  0
 15 37  1  0  0  0  0
 16 38  1  0  0  0  0
 18 39  1  0  0  0  0
 19 40  1  0  0  0  0
 21 41  1  0  0  0  0
 24 42  1  0  0  0  0
 25 43  1  0  0  0  0
 25 44  1  0  0  0  0
 25 45  1  0  0  0  0
 26 46  1  0  0  0  0
 26 47  1  0  0  0  0
 27 48  1  0  0  0  0
 27 49  1  0  0  0  0
 28 50  1  0  0  0  0
 28 51  1  0  0  0  0
 29 52  1  0  0  0  0
 29 53  1  0  0  0  0
 30 54  1  0  0  0  0
 30 55  1  0  0  0  0
M  END
> <Name>
41

> <IC50[uM]>
0.006

$$$$
41
  -OEChem-05192314333D
 Structure written by MMmdl.
 55 59  0     1  0  0  0  0  0999 V2000
   -6.3365   12.3514  -12.0169 C   0  0  0  0  0  0  0  0  0  0  0  0
   -6.4737   11.7818  -10.7533 C   0  0  0  0  0  0  0  0  0  0  0  0
   -7.7043   10.5771  -13.0419 C   0  0  0  0  0  0  0  0  0  0  0  0
   -6.9700   11.7706  -13.1413 C   0  0  0  0  0  0  0  0  0  0  0  0
   -7.8117   10.0060  -11.7679 C   0  0  0  0  0  0  0  0  0  0  0  0
   -7.2142   10.6153  -10.6085 C   0  0  0  0  0  0  0  0  0  0  0  0
   -7.6079    9.7475   -9.5180 C   0  0  0  0  0  0  0  0  0  0  0  0
   -8.2848    8.7450   -9.9896 N   0  0  0  0  0  0  0  0  0  0  0  0
   -8.4180    8.8715  -11.3012 N   0  0  0  0  0  0  0  0  0  0  0  0
   -7.3345    9.8877   -8.0248 C   0  0  0  0  0  0  0  0  0  0  0  0
   -4.3847   13.7235  -11.4418 N   0  0  0  0  0  0  0  0  0  0  0  0
   -5.5533   13.6485  -12.1711 C   0  0  0  0  0  0  0  0  0  0  0  0
   -5.9795   14.5724  -12.8566 O   0  0  0  0  0  0  0  0  0  0  0  0
   -5.9627   10.4850   -7.7364 C   0  0  0  0  0  0  0  0  0  0  0  0
   -5.8552   11.7581   -7.1652 C   0  0  0  0  0  0  0  0  0  0  0  0
   -4.5966   12.3060   -6.9181 C   0  0  0  0  0  0  0  0  0  0  0  0
   -3.4424   11.5865   -7.2381 C   0  0  0  0  0  0  0  0  0  0  0  0
   -3.5593   10.3139   -7.8013 C   0  0  0  0  0  0  0  0  0  0  0  0
   -4.8122    9.7647   -8.0513 C   0  0  0  0  0  0  0  0  0  0  0  0
   -2.0942   12.1662   -6.9781 C   0  0  0  0  0  0  0  0  0  0  0  0
   -1.7414   13.4274   -6.4937 C   0  0  0  0  0  0  0  0  0  0  0  0
   -0.4089   13.4560   -6.4321 N   0  0  3  0  0  0  0  0  0  0  0  0
    0.1814   12.3590   -6.8068 N   0  0  0  0  0  0  0  0  0  0  0  0
   -0.8029   11.5527   -7.1728 C   0  0  0  0  0  0  0  0  0  0  0  0
    0.4236   14.5699   -5.9945 C   0  0  0  0  0  0  0  0  0  0  0  0
   -3.7594   15.0422  -11.2114 C   0  0  0  0  0  0  0  0  0  0  0  0
   -2.3424   15.0924  -11.7154 C   0  0  0  0  0  0  0  0  0  0  0  0
   -1.5130   13.9202  -11.2644 C   0  0  0  0  0  0  0  0  0  0  0  0
   -2.1771   12.5990  -11.6641 C   0  0  0  0  0  0  0  0  0  0  0  0
   -3.6239   12.4833  -11.0641 C   0  0  0  0  0  0  0  0  0  0  0  0
   -6.0088   12.2426   -9.8942 H   0  0  0  0  0  0  0  0  0  0  0  0
   -8.1640   10.1218  -13.9067 H   0  0  0  0  0  0  0  0  0  0  0  0
   -6.8867   12.2580  -14.1015 H   0  0  0  0  0  0  0  0  0  0  0  0
   -8.0354    9.5960   -7.2566 H   0  0  0  0  0  0  0  0  0  0  0  0
   -5.3618   15.2939  -12.8358 H   0  0  0  0  0  0  0  0  0  0  0  0
   -6.7459   12.3157   -6.9160 H   0  0  0  0  0  0  0  0  0  0  0  0
   -4.5140   13.2889   -6.4783 H   0  0  0  0  0  0  0  0  0  0  0  0
   -2.6697    9.7519   -8.0446 H   0  0  0  0  0  0  0  0  0  0  0  0
   -4.8934    8.7808   -8.4891 H   0  0  0  0  0  0  0  0  0  0  0  0
   -2.1062   14.2106   -7.1745 H   0  0  0  0  0  0  0  0  0  0  0  0
   -2.1705   13.5826   -5.4928 H   0  0  0  0  0  0  0  0  0  0  0  0
   -0.6572   10.5584   -7.5683 H   0  0  0  0  0  0  0  0  0  0  0  0
    1.4836   14.2826   -6.0565 H   0  0  0  0  0  0  0  0  0  0  0  0
    0.2413   15.4403   -6.6420 H   0  0  0  0  0  0  0  0  0  0  0  0
    0.1739   14.8277   -4.9547 H   0  0  0  0  0  0  0  0  0  0  0  0
   -4.3489   15.8104  -11.7333 H   0  0  0  0  0  0  0  0  0  0  0  0
   -3.7594   15.2509  -10.1314 H   0  0  0  0  0  0  0  0  0  0  0  0
   -2.3623   15.1046  -12.8152 H   0  0  0  0  0  0  0  0  0  0  0  0
   -1.8724   16.0161  -11.3469 H   0  0  0  0  0  0  0  0  0  0  0  0
   -0.5191   13.9803  -11.7319 H   0  0  0  0  0  0  0  0  0  0  0  0
   -1.4061   13.9537  -10.1701 H   0  0  0  0  0  0  0  0  0  0  0  0
   -2.2388   12.5464  -12.7611 H   0  0  0  0  0  0  0  0  0  0  0  0
   -1.5665   11.7637  -11.2908 H   0  0  0  0  0  0  0  0  0  0  0  0
   -3.5680   12.3989   -9.9688 H   0  0  0  0  0  0  0  0  0  0  0  0
   -4.1284   11.5964  -11.4749 H   0  0  0  0  0  0  0  0  0  0  0  0
  1  2  1  0  0  0  0
  1  4  1  0  0  0  0
  1 12  2  3  0  0  0
  2  6  2  0  0  0  0
  3  4  2  0  0  0  0
  3  5  1  0  0  0  0
  5  6  1  0  0  0  0
  5  9  2  0  0  0  0
  6  7  1  0  0  0  0
  7  8  2  0  0  0  0
  7 10  1  0  0  0  0
  8  9  1  0  0  0  0
 10 14  2  0  0  0  0
 11 12  1  0  0  0  0
 11 26  1  0  0  0  0
 11 30  1  0  0  0  0
 12 13  1  0  0  0  0
 14 15  1  0  0  0  0
 14 19  1  0  0  0  0
 15 16  2  0  0  0  0
 16 17  1  0  0  0  0
 17 18  1  0  0  0  0
 17 20  2  0  0  0  0
 18 19  2  0  0  0  0
 20 21  1  0  0  0  0
 20 24  1  0  0  0  0
 21 22  1  0  0  0  0
 22 23  1  0  0  0  0
 22 25  1  0  0  0  0
 23 24  2  0  0  0  0
 26 27  1  0  0  0  0
 27 28  1  0  0  0  0
 28 29  1  0  0  0  0
 29 30  1  0  0  0  0
  2 31  1  0  0  0  0
  3 32  1  0  0  0  0
  4 33  1  0  0  0  0
 10 34  1  0  0  0  0
 13 35  1  0  0  0  0
 15 36  1  0  0  0  0
 16 37  1  0  0  0  0
 18 38  1  0  0  0  0
 19 39  1  0  0  0  0
 21 40  1  0  0  0  0
 21 41  1  0  0  0  0
 24 42  1  0  0  0  0
 25 43  1  0  0  0  0
 25 44  1  0  0  0  0
 25 45  1  0  0  0  0
 26 46  1  0  0  0  0
 26 47  1  0  0  0  0
 27 48  1  0  0  0  0
 27 49  1  0  0  0  0
 28 50  1  0  0  0  0
 28 51  1  0  0  0  0
 29 52  1  0  0  0  0
 29 53  1  0  0  0  0
 30 54  1  0  0  0  0
 30 55  1  0  0  0  0
M  END
> <Name>
41

> <IC50[uM]>
0.006

$$$$
41
  -OEChem-05192314333D
 Structure written by MMmdl.
 55 59  0     1  0  0  0  0  0999 V2000
   -6.3365   12.3514  -12.0169 C   0  0  0  0  0  0  0  0  0  0  0  0
   -6.4737   11.7818  -10.7533 C   0  0  0  0  0  0  0  0  0  0  0  0
   -7.7043   10.5771  -13.0419 C   0  0  0  0  0  0  0  0  0  0  0  0
   -6.9700   11.7706  -13.1413 C   0  0  0  0  0  0  0  0  0  0  0  0
   -7.8117   10.0060  -11.7679 C   0  0  3  0  0  0  0  0  0  0  0  0
   -7.2142   10.6153  -10.6085 C   0  0  0  0  0  0  0  0  0  0  0  0
   -7.6079    9.7475   -9.5180 C   0  0  0  0  0  0  0  0  0  0  0  0
   -8.2848    8.7450   -9.9896 N   0  0  0  0  0  0  0  0  0  0  0  0
   -8.4180    8.8715  -11.3012 N   0  0  0  0  0  0  0  0  0  0  0  0
   -7.3345    9.8877   -8.0248 C   0  0  0  0  0  0  0  0  0  0  0  0
   -4.3847   13.7235  -11.4418 N   0  0  0  0  0  0  0  0  0  0  0  0
   -5.5533   13.6485  -12.1711 C   0  0  0  0  0  0  0  0  0  0  0  0
   -5.9795   14.5724  -12.8566 O   0  0  0  0  0  0  0  0  0  0  0  0
   -5.9627   10.4850   -7.7364 C   0  0  0  0  0  0  0  0  0  0  0  0
   -5.8552   11.7581   -7.1652 C   0  0  0  0  0  0  0  0  0  0  0  0
   -4.5966   12.3060   -6.9181 C   0  0  0  0  0  0  0  0  0  0  0  0
   -3.4424   11.5865   -7.2381 C   0  0  0  0  0  0  0  0  0  0  0  0
   -3.5593   10.3139   -7.8013 C   0  0  0  0  0  0  0  0  0  0  0  0
   -4.8122    9.7647   -8.0513 C   0  0  0  0  0  0  0  0  0  0  0  0
   -2.0942   12.1662   -6.9781 C   0  0  0  0  0  0  0  0  0  0  0  0
   -1.7414   13.4274   -6.4937 C   0  0  0  0  0  0  0  0  0  0  0  0
   -0.4089   13.4560   -6.4321 N   0  0  0  0  0  0  0  0  0  0  0  0
    0.1814   12.3590   -6.8068 N   0  0  0  0  0  0  0  0  0  0  0  0
   -0.8029   11.5527   -7.1728 C   0  0  0  0  0  0  0  0  0  0  0  0
    0.4236   14.5699   -5.9945 C   0  0  0  0  0  0  0  0  0  0  0  0
   -3.7594   15.0422  -11.2114 C   0  0  0  0  0  0  0  0  0  0  0  0
   -2.3424   15.0924  -11.7154 C   0  0  0  0  0  0  0  0  0  0  0  0
   -1.5130   13.9202  -11.2644 C   0  0  0  0  0  0  0  0  0  0  0  0
   -2.1771   12.5990  -11.6641 C   0  0  0  0  0  0  0  0  0  0  0  0
   -3.6239   12.4833  -11.0641 C   0  0  0  0  0  0  0  0  0  0  0  0
   -6.0088   12.2426   -9.8942 H   0  0  0  0  0  0  0  0  0  0  0  0
   -8.1640   10.1218  -13.9067 H   0  0  0  0  0  0  0  0  0  0  0  0
   -6.8867   12.2580  -14.1015 H   0  0  0  0  0  0  0  0  0  0  0  0
   -8.7368   10.5741  -11.5905 H   0  0  0  0  0  0  0  0  0  0  0  0
   -8.0354    9.5960   -7.2566 H   0  0  0  0  0  0  0  0  0  0  0  0
   -5.3618   15.2939  -12.8358 H   0  0  0  0  0  0  0  0  0  0  0  0
   -6.7459   12.3157   -6.9160 H   0  0  0  0  0  0  0  0  0  0  0  0
   -4.5140   13.2889   -6.4783 H   0  0  0  0  0  0  0  0  0  0  0  0
   -2.6697    9.7519   -8.0446 H   0  0  0  0  0  0  0  0  0  0  0  0
   -4.8934    8.7808   -8.4891 H   0  0  0  0  0  0  0  0  0  0  0  0
   -2.4165   14.2253   -6.2216 H   0  0  0  0  0  0  0  0  0  0  0  0
   -0.6572   10.5584   -7.5683 H   0  0  0  0  0  0  0  0  0  0  0  0
    1.4836   14.2826   -6.0565 H   0  0  0  0  0  0  0  0  0  0  0  0
    0.2413   15.4403   -6.6420 H   0  0  0  0  0  0  0  0  0  0  0  0
    0.1739   14.8277   -4.9547 H   0  0  0  0  0  0  0  0  0  0  0  0
   -4.3489   15.8104  -11.7333 H   0  0  0  0  0  0  0  0  0  0  0  0
   -3.7594   15.2509  -10.1314 H   0  0  0  0  0  0  0  0  0  0  0  0
   -2.3623   15.1046  -12.8152 H   0  0  0  0  0  0  0  0  0  0  0  0
   -1.8724   16.0161  -11.3469 H   0  0  0  0  0  0  0  0  0  0  0  0
   -0.5191   13.9803  -11.7319 H   0  0  0  0  0  0  0  0  0  0  0  0
   -1.4061   13.9537  -10.1701 H   0  0  0  0  0  0  0  0  0  0  0  0
   -2.2388   12.5464  -12.7611 H   0  0  0  0  0  0  0  0  0  0  0  0
   -1.5665   11.7637  -11.2908 H   0  0  0  0  0  0  0  0  0  0  0  0
   -3.5680   12.3989   -9.9688 H   0  0  0  0  0  0  0  0  0  0  0  0
   -4.1284   11.5964  -11.4749 H   0  0  0  0  0  0  0  0  0  0  0  0
  1  2  1  0  0  0  0
  1  4  1  0  0  0  0
  1 12  2  3  0  0  0
  2  6  2  0  0  0  0
  3  4  2  0  0  0  0
  3  5  1  0  0  0  0
  5  6  1  0  0  0  0
  5  9  1  0  0  0  0
  6  7  1  0  0  0  0
  7  8  1  0  0  0  0
  7 10  2  3  0  0  0
  8  9  2  0  0  0  0
 10 14  1  0  0  0  0
 11 12  1  0  0  0  0
 11 26  1  0  0  0  0
 11 30  1  0  0  0  0
 12 13  1  0  0  0  0
 14 15  2  0  0  0  0
 14 19  1  0  0  0  0
 15 16  1  0  0  0  0
 16 17  2  0  0  0  0
 17 18  1  0  0  0  0
 17 20  1  0  0  0  0
 18 19  2  0  0  0  0
 20 21  2  0  0  0  0
 20 24  1  0  0  0  0
 21 22  1  0  0  0  0
 22 23  1  0  0  0  0
 22 25  1  0  0  0  0
 23 24  2  0  0  0  0
 26 27  1  0  0  0  0
 27 28  1  0  0  0  0
 28 29  1  0  0  0  0
 29 30  1  0  0  0  0
  2 31  1  0  0  0  0
  3 32  1  0  0  0  0
  4 33  1  0  0  0  0
  5 34  1  0  0  0  0
 10 35  1  0  0  0  0
 13 36  1  0  0  0  0
 15 37  1  0  0  0  0
 16 38  1  0  0  0  0
 18 39  1  0  0  0  0
 19 40  1  0  0  0  0
 21 41  1  0  0  0  0
 24 42  1  0  0  0  0
 25 43  1  0  0  0  0
 25 44  1  0  0  0  0
 25 45  1  0  0  0  0
 26 46  1  0  0  0  0
 26 47  1  0  0  0  0
 27 48  1  0  0  0  0
 27 49  1  0  0  0  0
 28 50  1  0  0  0  0
 28 51  1  0  0  0  0
 29 52  1  0  0  0  0
 29 53  1  0  0  0  0
 30 54  1  0  0  0  0
 30 55  1  0  0  0  0
M  END
> <Name>
41

> <IC50[uM]>
0.006

$$$$
41
  -OEChem-05192314333D
 Structure written by MMmdl.
 55 59  0     0  0  0  0  0  0999 V2000
   -6.3365   12.3514  -12.0169 C   0  0  0  0  0  0  0  0  0  0  0  0
   -6.4737   11.7818  -10.7533 C   0  0  0  0  0  0  0  0  0  0  0  0
   -7.7043   10.5771  -13.0419 C   0  0  0  0  0  0  0  0  0  0  0  0
   -6.9700   11.7706  -13.1413 C   0  0  0  0  0  0  0  0  0  0  0  0
   -7.8117   10.0060  -11.7679 C   0  0  0  0  0  0  0  0  0  0  0  0
   -7.2142   10.6153  -10.6085 C   0  0  0  0  0  0  0  0  0  0  0  0
   -7.6079    9.7475   -9.5180 C   0  0  0  0  0  0  0  0  0  0  0  0
   -8.2848    8.7450   -9.9896 N   0  0  0  0  0  0  0  0  0  0  0  0
   -8.4180    8.8715  -11.3012 N   0  0  0  0  0  0  0  0  0  0  0  0
   -7.3345    9.8877   -8.0248 C   0  0  0  0  0  0  0  0  0  0  0  0
   -4.3847   13.7235  -11.4418 N   0  0  0  0  0  0  0  0  0  0  0  0
   -5.5533   13.6485  -12.1711 C   0  0  0  0  0  0  0  0  0  0  0  0
   -5.9795   14.5724  -12.8566 O   0  0  0  0  0  0  0  0  0  0  0  0
   -5.9627   10.4850   -7.7364 C   0  0  0  0  0  0  0  0  0  0  0  0
   -5.8552   11.7581   -7.1652 C   0  0  0  0  0  0  0  0  0  0  0  0
   -4.5966   12.3060   -6.9181 C   0  0  0  0  0  0  0  0  0  0  0  0
   -3.4424   11.5865   -7.2381 C   0  0  0  0  0  0  0  0  0  0  0  0
   -3.5593   10.3139   -7.8013 C   0  0  0  0  0  0  0  0  0  0  0  0
   -4.8122    9.7647   -8.0513 C   0  0  0  0  0  0  0  0  0  0  0  0
   -2.0942   12.1662   -6.9781 C   0  0  0  0  0  0  0  0  0  0  0  0
   -1.7414   13.4274   -6.4937 C   0  0  0  0  0  0  0  0  0  0  0  0
   -0.4089   13.4560   -6.4321 N   0  0  0  0  0  0  0  0  0  0  0  0
    0.1814   12.3590   -6.8068 N   0  0  0  0  0  0  0  0  0  0  0  0
   -0.8029   11.5527   -7.1728 C   0  0  0  0  0  0  0  0  0  0  0  0
    0.4236   14.5699   -5.9945 C   0  0  0  0  0  0  0  0  0  0  0  0
   -3.7594   15.0422  -11.2114 C   0  0  0  0  0  0  0  0  0  0  0  0
   -2.3424   15.0924  -11.7154 C   0  0  0  0  0  0  0  0  0  0  0  0
   -1.5130   13.9202  -11.2644 C   0  0  0  0  0  0  0  0  0  0  0  0
   -2.1771   12.5990  -11.6641 C   0  0  0  0  0  0  0  0  0  0  0  0
   -3.6239   12.4833  -11.0641 C   0  0  0  0  0  0  0  0  0  0  0  0
   -6.0088   12.2426   -9.8942 H   0  0  0  0  0  0  0  0  0  0  0  0
   -8.1640   10.1218  -13.9067 H   0  0  0  0  0  0  0  0  0  0  0  0
   -7.6647   12.5293  -13.5308 H   0  0  0  0  0  0  0  0  0  0  0  0
   -6.1773   11.5851  -13.8810 H   0  0  0  0  0  0  0  0  0  0  0  0
   -8.0354    9.5960   -7.2566 H   0  0  0  0  0  0  0  0  0  0  0  0
   -5.3618   15.2939  -12.8358 H   0  0  0  0  0  0  0  0  0  0  0  0
   -6.7459   12.3157   -6.9160 H   0  0  0  0  0  0  0  0  0  0  0  0
   -4.5140   13.2889   -6.4783 H   0  0  0  0  0  0  0  0  0  0  0  0
   -2.6697    9.7519   -8.0446 H   0  0  0  0  0  0  0  0  0  0  0  0
   -4.8934    8.7808   -8.4891 H   0  0  0  0  0  0  0  0  0  0  0  0
   -2.4165   14.2253   -6.2216 H   0  0  0  0  0  0  0  0  0  0  0  0
   -0.6572   10.5584   -7.5683 H   0  0  0  0  0  0  0  0  0  0  0  0
    1.4836   14.2826   -6.0565 H   0  0  0  0  0  0  0  0  0  0  0  0
    0.2413   15.4403   -6.6420 H   0  0  0  0  0  0  0  0  0  0  0  0
    0.1739   14.8277   -4.9547 H   0  0  0  0  0  0  0  0  0  0  0  0
   -4.3489   15.8104  -11.7333 H   0  0  0  0  0  0  0  0  0  0  0  0
   -3.7594   15.2509  -10.1314 H   0  0  0  0  0  0  0  0  0  0  0  0
   -2.3623   15.1046  -12.8152 H   0  0  0  0  0  0  0  0  0  0  0  0
   -1.8724   16.0161  -11.3469 H   0  0  0  0  0  0  0  0  0  0  0  0
   -0.5191   13.9803  -11.7319 H   0  0  0  0  0  0  0  0  0  0  0  0
   -1.4061   13.9537  -10.1701 H   0  0  0  0  0  0  0  0  0  0  0  0
   -2.2388   12.5464  -12.7611 H   0  0  0  0  0  0  0  0  0  0  0  0
   -1.5665   11.7637  -11.2908 H   0  0  0  0  0  0  0  0  0  0  0  0
   -3.5680   12.3989   -9.9688 H   0  0  0  0  0  0  0  0  0  0  0  0
   -4.1284   11.5964  -11.4749 H   0  0  0  0  0  0  0  0  0  0  0  0
  1  2  1  0  0  0  0
  1  4  1  0  0  0  0
  1 12  2  3  0  0  0
  2  6  2  0  0  0  0
  3  4  1  0  0  0  0
  3  5  2  0  0  0  0
  5  6  1  0  0  0  0
  5  9  1  0  0  0  0
  6  7  1  0  0  0  0
  7  8  1  0  0  0  0
  7 10  2  3  0  0  0
  8  9  2  0  0  0  0
 10 14  1  0  0  0  0
 11 12  1  0  0  0  0
 11 26  1  0  0  0  0
 11 30  1  0  0  0  0
 12 13  1  0  0  0  0
 14 15  2  0  0  0  0
 14 19  1  0  0  0  0
 15 16  1  0  0  0  0
 16 17  2  0  0  0  0
 17 18  1  0  0  0  0
 17 20  1  0  0  0  0
 18 19  2  0  0  0  0
 20 21  2  0  0  0  0
 20 24  1  0  0  0  0
 21 22  1  0  0  0  0
 22 23  1  0  0  0  0
 22 25  1  0  0  0  0
 23 24  2  0  0  0  0
 26 27  1  0  0  0  0
 27 28  1  0  0  0  0
 28 29  1  0  0  0  0
 29 30  1  0  0  0  0
  2 31  1  0  0  0  0
  3 32  1  0  0  0  0
  4 33  1  0  0  0  0
  4 34  1  0  0  0  0
 10 35  1  0  0  0  0
 13 36  1  0  0  0  0
 15 37  1  0  0  0  0
 16 38  1  0  0  0  0
 18 39  1  0  0  0  0
 19 40  1  0  0  0  0
 21 41  1  0  0  0  0
 24 42  1  0  0  0  0
 25 43  1  0  0  0  0
 25 44  1  0  0  0  0
 25 45  1  0  0  0  0
 26 46  1  0  0  0  0
 26 47  1  0  0  0  0
 27 48  1  0  0  0  0
 27 49  1  0  0  0  0
 28 50  1  0  0  0  0
 28 51  1  0  0  0  0
 29 52  1  0  0  0  0
 29 53  1  0  0  0  0
 30 54  1  0  0  0  0
 30 55  1  0  0  0  0
M  END
> <Name>
41

> <IC50[uM]>
0.006

$$$$
41
  -OEChem-05192314333D
 Structure written by MMmdl.
 55 59  0     0  0  0  0  0  0999 V2000
   -6.3365   12.3514  -12.0169 C   0  0  0  0  0  0  0  0  0  0  0  0
   -6.4737   11.7818  -10.7533 C   0  0  0  0  0  0  0  0  0  0  0  0
   -7.7043   10.5771  -13.0419 C   0  0  0  0  0  0  0  0  0  0  0  0
   -6.9700   11.7706  -13.1413 C   0  0  0  0  0  0  0  0  0  0  0  0
   -7.8117   10.0060  -11.7679 C   0  0  0  0  0  0  0  0  0  0  0  0
   -7.2142   10.6153  -10.6085 C   0  0  0  0  0  0  0  0  0  0  0  0
   -7.6079    9.7475   -9.5180 C   0  0  0  0  0  0  0  0  0  0  0  0
   -8.2848    8.7450   -9.9896 N   0  0  0  0  0  0  0  0  0  0  0  0
   -8.4180    8.8715  -11.3012 N   0  0  0  0  0  0  0  0  0  0  0  0
   -7.3345    9.8877   -8.0248 C   0  0  0  0  0  0  0  0  0  0  0  0
   -4.3847   13.7235  -11.4418 N   0  0  0  0  0  0  0  0  0  0  0  0
   -5.5533   13.6485  -12.1711 C   0  0  0  0  0  0  0  0  0  0  0  0
   -5.9795   14.5724  -12.8566 O   0  0  0  0  0  0  0  0  0  0  0  0
   -5.9627   10.4850   -7.7364 C   0  0  0  0  0  0  0  0  0  0  0  0
   -5.8552   11.7581   -7.1652 C   0  0  0  0  0  0  0  0  0  0  0  0
   -4.5966   12.3060   -6.9181 C   0  0  0  0  0  0  0  0  0  0  0  0
   -3.4424   11.5865   -7.2381 C   0  0  0  0  0  0  0  0  0  0  0  0
   -3.5593   10.3139   -7.8013 C   0  0  0  0  0  0  0  0  0  0  0  0
   -4.8122    9.7647   -8.0513 C   0  0  0  0  0  0  0  0  0  0  0  0
   -2.0942   12.1662   -6.9781 C   0  0  0  0  0  0  0  0  0  0  0  0
   -1.7414   13.4274   -6.4937 C   0  0  0  0  0  0  0  0  0  0  0  0
   -0.4089   13.4560   -6.4321 N   0  0  0  0  0  0  0  0  0  0  0  0
    0.1814   12.3590   -6.8068 N   0  0  0  0  0  0  0  0  0  0  0  0
   -0.8029   11.5527   -7.1728 C   0  0  0  0  0  0  0  0  0  0  0  0
    0.4236   14.5699   -5.9945 C   0  0  0  0  0  0  0  0  0  0  0  0
   -3.7594   15.0422  -11.2114 C   0  0  0  0  0  0  0  0  0  0  0  0
   -2.3424   15.0924  -11.7154 C   0  0  0  0  0  0  0  0  0  0  0  0
   -1.5130   13.9202  -11.2644 C   0  0  0  0  0  0  0  0  0  0  0  0
   -2.1771   12.5990  -11.6641 C   0  0  0  0  0  0  0  0  0  0  0  0
   -3.6239   12.4833  -11.0641 C   0  0  0  0  0  0  0  0  0  0  0  0
   -5.4592   11.5650  -10.3875 H   0  0  0  0  0  0  0  0  0  0  0  0
   -6.9415   12.5405  -10.1087 H   0  0  0  0  0  0  0  0  0  0  0  0
   -8.1640   10.1218  -13.9067 H   0  0  0  0  0  0  0  0  0  0  0  0
   -6.8867   12.2580  -14.1015 H   0  0  0  0  0  0  0  0  0  0  0  0
   -8.0354    9.5960   -7.2566 H   0  0  0  0  0  0  0  0  0  0  0  0
   -5.3618   15.2939  -12.8358 H   0  0  0  0  0  0  0  0  0  0  0  0
   -6.7459   12.3157   -6.9160 H   0  0  0  0  0  0  0  0  0  0  0  0
   -4.5140   13.2889   -6.4783 H   0  0  0  0  0  0  0  0  0  0  0  0
   -2.6697    9.7519   -8.0446 H   0  0  0  0  0  0  0  0  0  0  0  0
   -4.8934    8.7808   -8.4891 H   0  0  0  0  0  0  0  0  0  0  0  0
   -2.4165   14.2253   -6.2216 H   0  0  0  0  0  0  0  0  0  0  0  0
   -0.6572   10.5584   -7.5683 H   0  0  0  0  0  0  0  0  0  0  0  0
    1.4836   14.2826   -6.0565 H   0  0  0  0  0  0  0  0  0  0  0  0
    0.2413   15.4403   -6.6420 H   0  0  0  0  0  0  0  0  0  0  0  0
    0.1739   14.8277   -4.9547 H   0  0  0  0  0  0  0  0  0  0  0  0
   -4.3489   15.8104  -11.7333 H   0  0  0  0  0  0  0  0  0  0  0  0
   -3.7594   15.2509  -10.1314 H   0  0  0  0  0  0  0  0  0  0  0  0
   -2.3623   15.1046  -12.8152 H   0  0  0  0  0  0  0  0  0  0  0  0
   -1.8724   16.0161  -11.3469 H   0  0  0  0  0  0  0  0  0  0  0  0
   -0.5191   13.9803  -11.7319 H   0  0  0  0  0  0  0  0  0  0  0  0
   -1.4061   13.9537  -10.1701 H   0  0  0  0  0  0  0  0  0  0  0  0
   -2.2388   12.5464  -12.7611 H   0  0  0  0  0  0  0  0  0  0  0  0
   -1.5665   11.7637  -11.2908 H   0  0  0  0  0  0  0  0  0  0  0  0
   -3.5680   12.3989   -9.9688 H   0  0  0  0  0  0  0  0  0  0  0  0
   -4.1284   11.5964  -11.4749 H   0  0  0  0  0  0  0  0  0  0  0  0
  1  2  1  0  0  0  0
  1  4  1  0  0  0  0
  1 12  2  3  0  0  0
  2  6  1  0  0  0  0
  3  4  2  0  0  0  0
  3  5  1  0  0  0  0
  5  6  2  0  0  0  0
  5  9  1  0  0  0  0
  6  7  1  0  0  0  0
  7  8  1  0  0  0  0
  7 10  2  3  0  0  0
  8  9  2  0  0  0  0
 10 14  1  0  0  0  0
 11 12  1  0  0  0  0
 11 26  1  0  0  0  0
 11 30  1  0  0  0  0
 12 13  1  0  0  0  0
 14 15  2  0  0  0  0
 14 19  1  0  0  0  0
 15 16  1  0  0  0  0
 16 17  2  0  0  0  0
 17 18  1  0  0  0  0
 17 20  1  0  0  0  0
 18 19  2  0  0  0  0
 20 21  2  0  0  0  0
 20 24  1  0  0  0  0
 21 22  1  0  0  0  0
 22 23  1  0  0  0  0
 22 25  1  0  0  0  0
 23 24  2  0  0  0  0
 26 27  1  0  0  0  0
 27 28  1  0  0  0  0
 28 29  1  0  0  0  0
 29 30  1  0  0  0  0
  2 31  1  0  0  0  0
  2 32  1  0  0  0  0
  3 33  1  0  0  0  0
  4 34  1  0  0  0  0
 10 35  1  0  0  0  0
 13 36  1  0  0  0  0
 15 37  1  0  0  0  0
 16 38  1  0  0  0  0
 18 39  1  0  0  0  0
 19 40  1  0  0  0  0
 21 41  1  0  0  0  0
 24 42  1  0  0  0  0
 25 43  1  0  0  0  0
 25 44  1  0  0  0  0
 25 45  1  0  0  0  0
 26 46  1  0  0  0  0
 26 47  1  0  0  0  0
 27 48  1  0  0  0  0
 27 49  1  0  0  0  0
 28 50  1  0  0  0  0
 28 51  1  0  0  0  0
 29 52  1  0  0  0  0
 29 53  1  0  0  0  0
 30 54  1  0  0  0  0
 30 55  1  0  0  0  0
M  END
> <Name>
41

> <IC50[uM]>
0.006

$$$$
41
  -OEChem-05192314333D
 Structure written by MMmdl.
 55 59  0     0  0  0  0  0  0999 V2000
   -6.3365   12.3514  -12.0169 C   0  0  0  0  0  0  0  0  0  0  0  0
   -6.4737   11.7818  -10.7533 C   0  0  0  0  0  0  0  0  0  0  0  0
   -7.7043   10.5771  -13.0419 C   0  0  0  0  0  0  0  0  0  0  0  0
   -6.9700   11.7706  -13.1413 C   0  0  0  0  0  0  0  0  0  0  0  0
   -7.8117   10.0060  -11.7679 C   0  0  0  0  0  0  0  0  0  0  0  0
   -7.2142   10.6153  -10.6085 C   0  0  0  0  0  0  0  0  0  0  0  0
   -7.6079    9.7475   -9.5180 C   0  0  0  0  0  0  0  0  0  0  0  0
   -8.2848    8.7450   -9.9896 N   0  0  0  0  0  0  0  0  0  0  0  0
   -8.4180    8.8715  -11.3012 N   0  0  0  0  0  0  0  0  0  0  0  0
   -7.3345    9.8877   -8.0248 C   0  0  0  0  0  0  0  0  0  0  0  0
   -4.3847   13.7235  -11.4418 N   0  0  0  0  0  0  0  0  0  0  0  0
   -5.5533   13.6485  -12.1711 C   0  0  0  0  0  0  0  0  0  0  0  0
   -5.9795   14.5724  -12.8566 O   0  0  0  0  0  0  0  0  0  0  0  0
   -5.9627   10.4850   -7.7364 C   0  0  0  0  0  0  0  0  0  0  0  0
   -5.8552   11.7581   -7.1652 C   0  0  0  0  0  0  0  0  0  0  0  0
   -4.5966   12.3060   -6.9181 C   0  0  0  0  0  0  0  0  0  0  0  0
   -3.4424   11.5865   -7.2381 C   0  0  0  0  0  0  0  0  0  0  0  0
   -3.5593   10.3139   -7.8013 C   0  0  0  0  0  0  0  0  0  0  0  0
   -4.8122    9.7647   -8.0513 C   0  0  0  0  0  0  0  0  0  0  0  0
   -2.0942   12.1662   -6.9781 C   0  0  0  0  0  0  0  0  0  0  0  0
   -1.7414   13.4274   -6.4937 C   0  0  0  0  0  0  0  0  0  0  0  0
   -0.4089   13.4560   -6.4321 N   0  0  0  0  0  0  0  0  0  0  0  0
    0.1814   12.3590   -6.8068 N   0  0  0  0  0  0  0  0  0  0  0  0
   -0.8029   11.5527   -7.1728 C   0  0  0  0  0  0  0  0  0  0  0  0
    0.4236   14.5699   -5.9945 C   0  0  0  0  0  0  0  0  0  0  0  0
   -3.7594   15.0422  -11.2114 C   0  0  0  0  0  0  0  0  0  0  0  0
   -2.3424   15.0924  -11.7154 C   0  0  0  0  0  0  0  0  0  0  0  0
   -1.5130   13.9202  -11.2644 C   0  0  0  0  0  0  0  0  0  0  0  0
   -2.1771   12.5990  -11.6641 C   0  0  0  0  0  0  0  0  0  0  0  0
   -3.6239   12.4833  -11.0641 C   0  0  0  0  0  0  0  0  0  0  0  0
   -6.0088   12.2426   -9.8942 H   0  0  0  0  0  0  0  0  0  0  0  0
   -8.1640   10.1218  -13.9067 H   0  0  0  0  0  0  0  0  0  0  0  0
   -6.8867   12.2580  -14.1015 H   0  0  0  0  0  0  0  0  0  0  0  0
   -8.0354    9.5960   -7.2566 H   0  0  0  0  0  0  0  0  0  0  0  0
   -5.3618   15.2939  -12.8358 H   0  0  0  0  0  0  0  0  0  0  0  0
   -6.7459   12.3157   -6.9160 H   0  0  0  0  0  0  0  0  0  0  0  0
   -4.5140   13.2889   -6.4783 H   0  0  0  0  0  0  0  0  0  0  0  0
   -3.4416   12.0327   -8.2435 H   0  0  0  0  0  0  0  0  0  0  0  0
   -2.6697    9.7519   -8.0446 H   0  0  0  0  0  0  0  0  0  0  0  0
   -4.8934    8.7808   -8.4891 H   0  0  0  0  0  0  0  0  0  0  0  0
   -2.4165   14.2253   -6.2216 H   0  0  0  0  0  0  0  0  0  0  0  0
   -0.6572   10.5584   -7.5683 H   0  0  0  0  0  0  0  0  0  0  0  0
    1.4836   14.2826   -6.0565 H   0  0  0  0  0  0  0  0  0  0  0  0
    0.2413   15.4403   -6.6420 H   0  0  0  0  0  0  0  0  0  0  0  0
    0.1739   14.8277   -4.9547 H   0  0  0  0  0  0  0  0  0  0  0  0
   -4.3489   15.8104  -11.7333 H   0  0  0  0  0  0  0  0  0  0  0  0
   -3.7594   15.2509  -10.1314 H   0  0  0  0  0  0  0  0  0  0  0  0
   -2.3623   15.1046  -12.8152 H   0  0  0  0  0  0  0  0  0  0  0  0
   -1.8724   16.0161  -11.3469 H   0  0  0  0  0  0  0  0  0  0  0  0
   -0.5191   13.9803  -11.7319 H   0  0  0  0  0  0  0  0  0  0  0  0
   -1.4061   13.9537  -10.1701 H   0  0  0  0  0  0  0  0  0  0  0  0
   -2.2388   12.5464  -12.7611 H   0  0  0  0  0  0  0  0  0  0  0  0
   -1.5665   11.7637  -11.2908 H   0  0  0  0  0  0  0  0  0  0  0  0
   -3.5680   12.3989   -9.9688 H   0  0  0  0  0  0  0  0  0  0  0  0
   -4.1284   11.5964  -11.4749 H   0  0  0  0  0  0  0  0  0  0  0  0
  1  2  1  0  0  0  0
  1  4  1  0  0  0  0
  1 12  2  3  0  0  0
  2  6  2  0  0  0  0
  3  4  2  0  0  0  0
  3  5  1  0  0  0  0
  5  6  1  0  0  0  0
  5  9  2  0  0  0  0
  6  7  1  0  0  0  0
  7  8  2  0  0  0  0
  7 10  1  0  0  0  0
  8  9  1  0  0  0  0
 10 14  2  0  0  0  0
 11 12  1  0  0  0  0
 11 26  1  0  0  0  0
 11 30  1  0  0  0  0
 12 13  1  0  0  0  0
 14 15  1  0  0  0  0
 14 19  1  0  0  0  0
 15 16  2  0  0  0  0
 16 17  1  0  0  0  0
 17 18  1  0  0  0  0
 17 20  1  0  0  0  0
 18 19  2  0  0  0  0
 20 21  2  0  0  0  0
 20 24  1  0  0  0  0
 21 22  1  0  0  0  0
 22 23  1  0  0  0  0
 22 25  1  0  0  0  0
 23 24  2  0  0  0  0
 26 27  1  0  0  0  0
 27 28  1  0  0  0  0
 28 29  1  0  0  0  0
 29 30  1  0  0  0  0
  2 31  1  0  0  0  0
  3 32  1  0  0  0  0
  4 33  1  0  0  0  0
 10 34  1  0  0  0  0
 13 35  1  0  0  0  0
 15 36  1  0  0  0  0
 16 37  1  0  0  0  0
 17 38  1  0  0  0  0
 18 39  1  0  0  0  0
 19 40  1  0  0  0  0
 21 41  1  0  0  0  0
 24 42  1  0  0  0  0
 25 43  1  0  0  0  0
 25 44  1  0  0  0  0
 25 45  1  0  0  0  0
 26 46  1  0  0  0  0
 26 47  1  0  0  0  0
 27 48  1  0  0  0  0
 27 49  1  0  0  0  0
 28 50  1  0  0  0  0
 28 51  1  0  0  0  0
 29 52  1  0  0  0  0
 29 53  1  0  0  0  0
 30 54  1  0  0  0  0
 30 55  1  0  0  0  0
M  END
> <Name>
41

> <IC50[uM]>
0.006

$$$$
41
  -OEChem-05192314333D
 Structure written by MMmdl.
 55 59  0     0  0  0  0  0  0999 V2000
   -6.3365   12.3514  -12.0169 C   0  0  0  0  0  0  0  0  0  0  0  0
   -6.4737   11.7818  -10.7533 C   0  0  0  0  0  0  0  0  0  0  0  0
   -7.7043   10.5771  -13.0419 C   0  0  0  0  0  0  0  0  0  0  0  0
   -6.9700   11.7706  -13.1413 C   0  0  0  0  0  0  0  0  0  0  0  0
   -7.8117   10.0060  -11.7679 C   0  0  0  0  0  0  0  0  0  0  0  0
   -7.2142   10.6153  -10.6085 C   0  0  0  0  0  0  0  0  0  0  0  0
   -7.6079    9.7475   -9.5180 C   0  0  0  0  0  0  0  0  0  0  0  0
   -8.2848    8.7450   -9.9896 N   0  0  0  0  0  0  0  0  0  0  0  0
   -8.4180    8.8715  -11.3012 N   0  0  0  0  0  0  0  0  0  0  0  0
   -7.3345    9.8877   -8.0248 C   0  0  0  0  0  0  0  0  0  0  0  0
   -4.3847   13.7235  -11.4418 N   0  0  0  0  0  0  0  0  0  0  0  0
   -5.5533   13.6485  -12.1711 C   0  0  0  0  0  0  0  0  0  0  0  0
   -5.9795   14.5724  -12.8566 O   0  0  0  0  0  0  0  0  0  0  0  0
   -5.9627   10.4850   -7.7364 C   0  0  0  0  0  0  0  0  0  0  0  0
   -5.8552   11.7581   -7.1652 C   0  0  0  0  0  0  0  0  0  0  0  0
   -4.5966   12.3060   -6.9181 C   0  0  0  0  0  0  0  0  0  0  0  0
   -3.4424   11.5865   -7.2381 C   0  0  0  0  0  0  0  0  0  0  0  0
   -3.5593   10.3139   -7.8013 C   0  0  0  0  0  0  0  0  0  0  0  0
   -4.8122    9.7647   -8.0513 C   0  0  0  0  0  0  0  0  0  0  0  0
   -2.0942   12.1662   -6.9781 C   0  0  0  0  0  0  0  0  0  0  0  0
   -1.7414   13.4274   -6.4937 C   0  0  0  0  0  0  0  0  0  0  0  0
   -0.4089   13.4560   -6.4321 N   0  0  0  0  0  0  0  0  0  0  0  0
    0.1814   12.3590   -6.8068 N   0  0  0  0  0  0  0  0  0  0  0  0
   -0.8029   11.5527   -7.1728 C   0  0  0  0  0  0  0  0  0  0  0  0
    0.4236   14.5699   -5.9945 C   0  0  0  0  0  0  0  0  0  0  0  0
   -3.7594   15.0422  -11.2114 C   0  0  0  0  0  0  0  0  0  0  0  0
   -2.3424   15.0924  -11.7154 C   0  0  0  0  0  0  0  0  0  0  0  0
   -1.5130   13.9202  -11.2644 C   0  0  0  0  0  0  0  0  0  0  0  0
   -2.1771   12.5990  -11.6641 C   0  0  0  0  0  0  0  0  0  0  0  0
   -3.6239   12.4833  -11.0641 C   0  0  0  0  0  0  0  0  0  0  0  0
   -6.0088   12.2426   -9.8942 H   0  0  0  0  0  0  0  0  0  0  0  0
   -8.1640   10.1218  -13.9067 H   0  0  0  0  0  0  0  0  0  0  0  0
   -6.8867   12.2580  -14.1015 H   0  0  0  0  0  0  0  0  0  0  0  0
   -8.0354    9.5960   -7.2566 H   0  0  0  0  0  0  0  0  0  0  0  0
   -5.3618   15.2939  -12.8358 H   0  0  0  0  0  0  0  0  0  0  0  0
   -6.7459   12.3157   -6.9160 H   0  0  0  0  0  0  0  0  0  0  0  0
   -4.5140   13.2889   -6.4783 H   0  0  0  0  0  0  0  0  0  0  0  0
   -2.6697    9.7519   -8.0446 H   0  0  0  0  0  0  0  0  0  0  0  0
   -4.8638    8.8212   -7.4881 H   0  0  0  0  0  0  0  0  0  0  0  0
   -4.8562    9.5510   -9.1294 H   0  0  0  0  0  0  0  0  0  0  0  0
   -2.4165   14.2253   -6.2216 H   0  0  0  0  0  0  0  0  0  0  0  0
   -0.6572   10.5584   -7.5683 H   0  0  0  0  0  0  0  0  0  0  0  0
    1.4836   14.2826   -6.0565 H   0  0  0  0  0  0  0  0  0  0  0  0
    0.2413   15.4403   -6.6420 H   0  0  0  0  0  0  0  0  0  0  0  0
    0.1739   14.8277   -4.9547 H   0  0  0  0  0  0  0  0  0  0  0  0
   -4.3489   15.8104  -11.7333 H   0  0  0  0  0  0  0  0  0  0  0  0
   -3.7594   15.2509  -10.1314 H   0  0  0  0  0  0  0  0  0  0  0  0
   -2.3623   15.1046  -12.8152 H   0  0  0  0  0  0  0  0  0  0  0  0
   -1.8724   16.0161  -11.3469 H   0  0  0  0  0  0  0  0  0  0  0  0
   -0.5191   13.9803  -11.7319 H   0  0  0  0  0  0  0  0  0  0  0  0
   -1.4061   13.9537  -10.1701 H   0  0  0  0  0  0  0  0  0  0  0  0
   -2.2388   12.5464  -12.7611 H   0  0  0  0  0  0  0  0  0  0  0  0
   -1.5665   11.7637  -11.2908 H   0  0  0  0  0  0  0  0  0  0  0  0
   -3.5680   12.3989   -9.9688 H   0  0  0  0  0  0  0  0  0  0  0  0
   -4.1284   11.5964  -11.4749 H   0  0  0  0  0  0  0  0  0  0  0  0
  1  2  1  0  0  0  0
  1  4  1  0  0  0  0
  1 12  2  3  0  0  0
  2  6  2  0  0  0  0
  3  4  2  0  0  0  0
  3  5  1  0  0  0  0
  5  6  1  0  0  0  0
  5  9  2  0  0  0  0
  6  7  1  0  0  0  0
  7  8  2  0  0  0  0
  7 10  1  0  0  0  0
  8  9  1  0  0  0  0
 10 14  2  3  0  0  0
 11 12  1  0  0  0  0
 11 26  1  0  0  0  0
 11 30  1  0  0  0  0
 12 13  1  0  0  0  0
 14 15  1  0  0  0  0
 14 19  1  0  0  0  0
 15 16  2  0  0  0  0
 16 17  1  0  0  0  0
 17 18  2  0  0  0  0
 17 20  1  0  0  0  0
 18 19  1  0  0  0  0
 20 21  2  0  0  0  0
 20 24  1  0  0  0  0
 21 22  1  0  0  0  0
 22 23  1  0  0  0  0
 22 25  1  0  0  0  0
 23 24  2  0  0  0  0
 26 27  1  0  0  0  0
 27 28  1  0  0  0  0
 28 29  1  0  0  0  0
 29 30  1  0  0  0  0
  2 31  1  0  0  0  0
  3 32  1  0  0  0  0
  4 33  1  0  0  0  0
 10 34  1  0  0  0  0
 13 35  1  0  0  0  0
 15 36  1  0  0  0  0
 16 37  1  0  0  0  0
 18 38  1  0  0  0  0
 19 39  1  0  0  0  0
 19 40  1  0  0  0  0
 21 41  1  0  0  0  0
 24 42  1  0  0  0  0
 25 43  1  0  0  0  0
 25 44  1  0  0  0  0
 25 45  1  0  0  0  0
 26 46  1  0  0  0  0
 26 47  1  0  0  0  0
 27 48  1  0  0  0  0
 27 49  1  0  0  0  0
 28 50  1  0  0  0  0
 28 51  1  0  0  0  0
 29 52  1  0  0  0  0
 29 53  1  0  0  0  0
 30 54  1  0  0  0  0
 30 55  1  0  0  0  0
M  END
> <Name>
41

> <IC50[uM]>
0.006

$$$$
