27
  -OEChem-05192314333D
 Structure written by MMmdl.
 53 56  0     0  0  0  0  0  0999 V2000
   -6.3855   12.3606  -12.0031 C   0  0  0  0  0  0  0  0  0  0  0  0
   -6.5214   11.8004  -10.7171 C   0  0  0  0  0  0  0  0  0  0  0  0
   -7.6991   10.5797  -13.0384 C   0  0  0  0  0  0  0  0  0  0  0  0
   -6.9626   11.7779  -13.1031 C   0  0  0  0  0  0  0  0  0  0  0  0
   -7.8238   10.0198  -11.7523 C   0  0  0  0  0  0  0  0  0  0  0  0
   -7.2557   10.6213  -10.5956 C   0  0  0  0  0  0  0  0  0  0  0  0
   -7.6268    9.7501   -9.5073 C   0  0  0  0  0  0  0  0  0  0  0  0
   -8.3057    8.7491   -9.9816 N   0  0  0  0  0  0  0  0  0  0  0  0
   -8.4330    8.8776  -11.2917 N   0  0  0  0  0  0  0  0  0  0  0  0
   -7.3352    9.8817   -8.0196 C   0  0  0  0  0  0  0  0  0  0  0  0
   -5.6205   13.5372  -12.2095 N   0  0  0  0  0  0  0  0  0  0  0  0
   -5.9727   10.4835   -7.7324 C   0  0  0  0  0  0  0  0  0  0  0  0
   -5.8611   11.7523   -7.1657 C   0  0  0  0  0  0  0  0  0  0  0  0
   -4.5946   12.2988   -6.9068 C   0  0  0  0  0  0  0  0  0  0  0  0
   -3.4432   11.5806   -7.2147 C   0  0  0  0  0  0  0  0  0  0  0  0
   -3.5570   10.3109   -7.7899 C   0  0  0  0  0  0  0  0  0  0  0  0
   -4.8253    9.7663   -8.0483 C   0  0  0  0  0  0  0  0  0  0  0  0
   -2.0926   12.1556   -6.9444 C   0  0  0  0  0  0  0  0  0  0  0  0
   -1.7338   13.4204   -6.4594 C   0  0  0  0  0  0  0  0  0  0  0  0
   -0.4064   13.4584   -6.4114 N   0  0  0  0  0  0  0  0  0  0  0  0
    0.1793   12.3493   -6.7865 N   0  0  0  0  0  0  0  0  0  0  0  0
   -0.7954   11.5387   -7.1512 C   0  0  0  0  0  0  0  0  0  0  0  0
    0.4205   14.5767   -6.0073 C   0  0  0  0  0  0  0  0  0  0  0  0
   -4.6894   13.8945  -11.1046 C   0  0  0  0  0  0  0  0  0  0  0  0
   -3.7822   15.1171  -11.3990 C   0  0  0  0  0  0  0  0  0  0  0  0
   -2.3310   14.9579  -11.2532 N   0  0  0  0  0  0  0  0  0  0  0  0
   -1.8099   14.4326  -10.1320 C   0  0  0  0  0  0  0  0  0  0  0  0
   -2.5019   14.0442   -9.2076 O   0  0  0  0  0  0  0  0  0  0  0  0
   -0.2869   14.3494  -10.0364 C   0  0  0  0  0  0  0  0  0  0  0  0
   -6.0716   12.2689   -9.8542 H   0  0  0  0  0  0  0  0  0  0  0  0
   -8.1374   10.1224  -13.9131 H   0  0  0  0  0  0  0  0  0  0  0  0
   -6.8466   12.2604  -14.0624 H   0  0  0  0  0  0  0  0  0  0  0  0
   -8.6759    7.9956   -9.4383 H   0  0  0  0  0  0  0  0  0  0  0  0
   -8.1046   10.5248   -7.5674 H   0  0  0  0  0  0  0  0  0  0  0  0
   -7.3794    8.8814   -7.5641 H   0  0  0  0  0  0  0  0  0  0  0  0
   -5.0791   13.4115  -13.0408 H   0  0  0  0  0  0  0  0  0  0  0  0
   -6.7507   12.3156   -6.9255 H   0  0  0  0  0  0  0  0  0  0  0  0
   -4.5132   13.2816   -6.4664 H   0  0  0  0  0  0  0  0  0  0  0  0
   -2.6683    9.7485   -8.0357 H   0  0  0  0  0  0  0  0  0  0  0  0
   -4.9092    8.7863   -8.4943 H   0  0  0  0  0  0  0  0  0  0  0  0
   -2.4090   14.2148   -6.1776 H   0  0  0  0  0  0  0  0  0  0  0  0
   -0.6475   10.5464   -7.5511 H   0  0  0  0  0  0  0  0  0  0  0  0
    1.4812   14.2962   -6.0855 H   0  0  0  0  0  0  0  0  0  0  0  0
    0.2196   15.4369   -6.6628 H   0  0  0  0  0  0  0  0  0  0  0  0
    0.1886   14.8468   -4.9665 H   0  0  0  0  0  0  0  0  0  0  0  0
   -5.2882   14.1185  -10.2095 H   0  0  0  0  0  0  0  0  0  0  0  0
   -4.0431   13.0269  -10.9057 H   0  0  0  0  0  0  0  0  0  0  0  0
   -3.9735   15.4217  -12.4385 H   0  0  0  0  0  0  0  0  0  0  0  0
   -4.0914   15.9235  -10.7178 H   0  0  0  0  0  0  0  0  0  0  0  0
   -1.7243   15.2430  -11.9952 H   0  0  0  0  0  0  0  0  0  0  0  0
   -0.0031   13.9147   -9.0666 H   0  0  0  0  0  0  0  0  0  0  0  0
    0.0973   13.7152  -10.8489 H   0  0  0  0  0  0  0  0  0  0  0  0
    0.1416   15.3586  -10.1252 H   0  0  0  0  0  0  0  0  0  0  0  0
  1  2  2  0  0  0  0
  1  4  1  0  0  0  0
  1 11  1  0  0  0  0
  2  6  1  0  0  0  0
  3  4  2  0  0  0  0
  3  5  1  0  0  0  0
  5  6  1  0  0  0  0
  5  9  2  0  0  0  0
  6  7  2  0  0  0  0
  7  8  1  0  0  0  0
  7 10  1  0  0  0  0
  8  9  1  0  0  0  0
 10 12  1  0  0  0  0
 11 24  1  0  0  0  0
 12 13  2  0  0  0  0
 12 17  1  0  0  0  0
 13 14  1  0  0  0  0
 14 15  2  0  0  0  0
 15 16  1  0  0  0  0
 15 18  1  0  0  0  0
 16 17  2  0  0  0  0
 18 19  2  0  0  0  0
 18 22  1  0  0  0  0
 19 20  1  0  0  0  0
 20 21  1  0  0  0  0
 20 23  1  0  0  0  0
 21 22  2  0  0  0  0
 24 25  1  0  0  0  0
 25 26  1  0  0  0  0
 26 27  1  0  0  0  0
 27 28  2  0  0  0  0
 27 29  1  0  0  0  0
  2 30  1  0  0  0  0
  3 31  1  0  0  0  0
  4 32  1  0  0  0  0
  8 33  1  0  0  0  0
 10 34  1  0  0  0  0
 10 35  1  0  0  0  0
 11 36  1  0  0  0  0
 13 37  1  0  0  0  0
 14 38  1  0  0  0  0
 16 39  1  0  0  0  0
 17 40  1  0  0  0  0
 19 41  1  0  0  0  0
 22 42  1  0  0  0  0
 23 43  1  0  0  0  0
 23 44  1  0  0  0  0
 23 45  1  0  0  0  0
 24 46  1  0  0  0  0
 24 47  1  0  0  0  0
 25 48  1  0  0  0  0
 25 49  1  0  0  0  0
 26 50  1  0  0  0  0
 29 51  1  0  0  0  0
 29 52  1  0  0  0  0
 29 53  1  0  0  0  0
M  END
> <Name>
27

> <IC50[uM]>
0.68

$$$$
27
  -OEChem-05192314333D
 Structure written by MMmdl.
 53 56  0     0  0  0  0  0  0999 V2000
   -6.3855   12.3606  -12.0031 C   0  0  0  0  0  0  0  0  0  0  0  0
   -6.5214   11.8004  -10.7171 C   0  0  0  0  0  0  0  0  0  0  0  0
   -7.6991   10.5797  -13.0384 C   0  0  0  0  0  0  0  0  0  0  0  0
   -6.9626   11.7779  -13.1031 C   0  0  0  0  0  0  0  0  0  0  0  0
   -7.8238   10.0198  -11.7523 C   0  0  0  0  0  0  0  0  0  0  0  0
   -7.2557   10.6213  -10.5956 C   0  0  0  0  0  0  0  0  0  0  0  0
   -7.6268    9.7501   -9.5073 C   0  0  0  0  0  0  0  0  0  0  0  0
   -8.3057    8.7491   -9.9816 N   0  0  0  0  0  0  0  0  0  0  0  0
   -8.4330    8.8776  -11.2917 N   0  0  0  0  0  0  0  0  0  0  0  0
   -7.3352    9.8817   -8.0196 C   0  0  0  0  0  0  0  0  0  0  0  0
   -5.6205   13.5372  -12.2095 N   0  0  0  0  0  0  0  0  0  0  0  0
   -5.9727   10.4835   -7.7324 C   0  0  0  0  0  0  0  0  0  0  0  0
   -5.8611   11.7523   -7.1657 C   0  0  0  0  0  0  0  0  0  0  0  0
   -4.5946   12.2988   -6.9068 C   0  0  0  0  0  0  0  0  0  0  0  0
   -3.4432   11.5806   -7.2147 C   0  0  0  0  0  0  0  0  0  0  0  0
   -3.5570   10.3109   -7.7899 C   0  0  0  0  0  0  0  0  0  0  0  0
   -4.8253    9.7663   -8.0483 C   0  0  0  0  0  0  0  0  0  0  0  0
   -2.0926   12.1556   -6.9444 C   0  0  0  0  0  0  0  0  0  0  0  0
   -1.7338   13.4204   -6.4594 C   0  0  0  0  0  0  0  0  0  0  0  0
   -0.4064   13.4584   -6.4114 N   0  0  0  0  0  0  0  0  0  0  0  0
    0.1793   12.3493   -6.7865 N   0  0  0  0  0  0  0  0  0  0  0  0
   -0.7954   11.5387   -7.1512 C   0  0  0  0  0  0  0  0  0  0  0  0
    0.4205   14.5767   -6.0073 C   0  0  0  0  0  0  0  0  0  0  0  0
   -4.6894   13.8945  -11.1046 C   0  0  0  0  0  0  0  0  0  0  0  0
   -3.7822   15.1171  -11.3990 C   0  0  0  0  0  0  0  0  0  0  0  0
   -2.3310   14.9579  -11.2532 N   0  0  0  0  0  0  0  0  0  0  0  0
   -1.8099   14.4326  -10.1320 C   0  0  0  0  0  0  0  0  0  0  0  0
   -2.5019   14.0442   -9.2076 O   0  0  0  0  0  0  0  0  0  0  0  0
   -0.2869   14.3494  -10.0364 C   0  0  0  0  0  0  0  0  0  0  0  0
   -6.0716   12.2689   -9.8542 H   0  0  0  0  0  0  0  0  0  0  0  0
   -8.1374   10.1224  -13.9131 H   0  0  0  0  0  0  0  0  0  0  0  0
   -6.8466   12.2604  -14.0624 H   0  0  0  0  0  0  0  0  0  0  0  0
   -8.9138    8.2235  -11.8756 H   0  0  0  0  0  0  0  0  0  0  0  0
   -8.1046   10.5248   -7.5674 H   0  0  0  0  0  0  0  0  0  0  0  0
   -7.3794    8.8814   -7.5641 H   0  0  0  0  0  0  0  0  0  0  0  0
   -5.0791   13.4115  -13.0408 H   0  0  0  0  0  0  0  0  0  0  0  0
   -6.7507   12.3156   -6.9255 H   0  0  0  0  0  0  0  0  0  0  0  0
   -4.5132   13.2816   -6.4664 H   0  0  0  0  0  0  0  0  0  0  0  0
   -2.6683    9.7485   -8.0357 H   0  0  0  0  0  0  0  0  0  0  0  0
   -4.9092    8.7863   -8.4943 H   0  0  0  0  0  0  0  0  0  0  0  0
   -2.4090   14.2148   -6.1776 H   0  0  0  0  0  0  0  0  0  0  0  0
   -0.6475   10.5464   -7.5511 H   0  0  0  0  0  0  0  0  0  0  0  0
    1.4812   14.2962   -6.0855 H   0  0  0  0  0  0  0  0  0  0  0  0
    0.2196   15.4369   -6.6628 H   0  0  0  0  0  0  0  0  0  0  0  0
    0.1886   14.8468   -4.9665 H   0  0  0  0  0  0  0  0  0  0  0  0
   -5.2882   14.1185  -10.2095 H   0  0  0  0  0  0  0  0  0  0  0  0
   -4.0431   13.0269  -10.9057 H   0  0  0  0  0  0  0  0  0  0  0  0
   -3.9735   15.4217  -12.4385 H   0  0  0  0  0  0  0  0  0  0  0  0
   -4.0914   15.9235  -10.7178 H   0  0  0  0  0  0  0  0  0  0  0  0
   -1.7243   15.2430  -11.9952 H   0  0  0  0  0  0  0  0  0  0  0  0
   -0.0031   13.9147   -9.0666 H   0  0  0  0  0  0  0  0  0  0  0  0
    0.0973   13.7152  -10.8489 H   0  0  0  0  0  0  0  0  0  0  0  0
    0.1416   15.3586  -10.1252 H   0  0  0  0  0  0  0  0  0  0  0  0
  1  2  2  0  0  0  0
  1  4  1  0  0  0  0
  1 11  1  0  0  0  0
  2  6  1  0  0  0  0
  3  4  2  0  0  0  0
  3  5  1  0  0  0  0
  5  6  2  0  0  0  0
  5  9  1  0  0  0  0
  6  7  1  0  0  0  0
  7  8  2  0  0  0  0
  7 10  1  0  0  0  0
  8  9  1  0  0  0  0
 10 12  1  0  0  0  0
 11 24  1  0  0  0  0
 12 13  2  0  0  0  0
 12 17  1  0  0  0  0
 13 14  1  0  0  0  0
 14 15  2  0  0  0  0
 15 16  1  0  0  0  0
 15 18  1  0  0  0  0
 16 17  2  0  0  0  0
 18 19  2  0  0  0  0
 18 22  1  0  0  0  0
 19 20  1  0  0  0  0
 20 21  1  0  0  0  0
 20 23  1  0  0  0  0
 21 22  2  0  0  0  0
 24 25  1  0  0  0  0
 25 26  1  0  0  0  0
 26 27  1  0  0  0  0
 27 28  2  0  0  0  0
 27 29  1  0  0  0  0
  2 30  1  0  0  0  0
  3 31  1  0  0  0  0
  4 32  1  0  0  0  0
  9 33  1  0  0  0  0
 10 34  1  0  0  0  0
 10 35  1  0  0  0  0
 11 36  1  0  0  0  0
 13 37  1  0  0  0  0
 14 38  1  0  0  0  0
 16 39  1  0  0  0  0
 17 40  1  0  0  0  0
 19 41  1  0  0  0  0
 22 42  1  0  0  0  0
 23 43  1  0  0  0  0
 23 44  1  0  0  0  0
 23 45  1  0  0  0  0
 24 46  1  0  0  0  0
 24 47  1  0  0  0  0
 25 48  1  0  0  0  0
 25 49  1  0  0  0  0
 26 50  1  0  0  0  0
 29 51  1  0  0  0  0
 29 52  1  0  0  0  0
 29 53  1  0  0  0  0
M  END
> <Name>
27

> <IC50[uM]>
0.68

$$$$
27
  -OEChem-05192314333D
 Structure written by MMmdl.
 53 56  0     0  0  0  0  0  0999 V2000
   -6.3855   12.3606  -12.0031 C   0  0  0  0  0  0  0  0  0  0  0  0
   -6.5214   11.8004  -10.7171 C   0  0  0  0  0  0  0  0  0  0  0  0
   -7.6991   10.5797  -13.0384 C   0  0  0  0  0  0  0  0  0  0  0  0
   -6.9626   11.7779  -13.1031 C   0  0  0  0  0  0  0  0  0  0  0  0
   -7.8238   10.0198  -11.7523 C   0  0  0  0  0  0  0  0  0  0  0  0
   -7.2557   10.6213  -10.5956 C   0  0  0  0  0  0  0  0  0  0  0  0
   -7.6268    9.7501   -9.5073 C   0  0  0  0  0  0  0  0  0  0  0  0
   -8.3057    8.7491   -9.9816 N   0  0  0  0  0  0  0  0  0  0  0  0
   -8.4330    8.8776  -11.2917 N   0  0  0  0  0  0  0  0  0  0  0  0
   -7.3352    9.8817   -8.0196 C   0  0  0  0  0  0  0  0  0  0  0  0
   -5.6205   13.5372  -12.2095 N   0  0  0  0  0  0  0  0  0  0  0  0
   -5.9727   10.4835   -7.7324 C   0  0  0  0  0  0  0  0  0  0  0  0
   -5.8611   11.7523   -7.1657 C   0  0  0  0  0  0  0  0  0  0  0  0
   -4.5946   12.2988   -6.9068 C   0  0  0  0  0  0  0  0  0  0  0  0
   -3.4432   11.5806   -7.2147 C   0  0  0  0  0  0  0  0  0  0  0  0
   -3.5570   10.3109   -7.7899 C   0  0  0  0  0  0  0  0  0  0  0  0
   -4.8253    9.7663   -8.0483 C   0  0  0  0  0  0  0  0  0  0  0  0
   -2.0926   12.1556   -6.9444 C   0  0  0  0  0  0  0  0  0  0  0  0
   -1.7338   13.4204   -6.4594 C   0  0  0  0  0  0  0  0  0  0  0  0
   -0.4064   13.4584   -6.4114 N   0  0  0  0  0  0  0  0  0  0  0  0
    0.1793   12.3493   -6.7865 N   0  0  0  0  0  0  0  0  0  0  0  0
   -0.7954   11.5387   -7.1512 C   0  0  0  0  0  0  0  0  0  0  0  0
    0.4205   14.5767   -6.0073 C   0  0  0  0  0  0  0  0  0  0  0  0
   -4.6894   13.8945  -11.1046 C   0  0  0  0  0  0  0  0  0  0  0  0
   -3.7822   15.1171  -11.3990 C   0  0  0  0  0  0  0  0  0  0  0  0
   -2.3310   14.9579  -11.2532 N   0  0  0  0  0  0  0  0  0  0  0  0
   -1.8099   14.4326  -10.1320 C   0  0  0  0  0  0  0  0  0  0  0  0
   -2.5019   14.0442   -9.2076 O   0  0  0  0  0  0  0  0  0  0  0  0
   -0.2869   14.3494  -10.0364 C   0  0  0  0  0  0  0  0  0  0  0  0
   -6.0716   12.2689   -9.8542 H   0  0  0  0  0  0  0  0  0  0  0  0
   -8.1374   10.1224  -13.9131 H   0  0  0  0  0  0  0  0  0  0  0  0
   -6.8466   12.2604  -14.0624 H   0  0  0  0  0  0  0  0  0  0  0  0
   -8.6759    7.9956   -9.4383 H   0  0  0  0  0  0  0  0  0  0  0  0
   -8.1046   10.5248   -7.5674 H   0  0  0  0  0  0  0  0  0  0  0  0
   -7.3794    8.8814   -7.5641 H   0  0  0  0  0  0  0  0  0  0  0  0
   -5.0791   13.4115  -13.0408 H   0  0  0  0  0  0  0  0  0  0  0  0
   -6.7507   12.3156   -6.9255 H   0  0  0  0  0  0  0  0  0  0  0  0
   -4.5132   13.2816   -6.4664 H   0  0  0  0  0  0  0  0  0  0  0  0
   -2.6683    9.7485   -8.0357 H   0  0  0  0  0  0  0  0  0  0  0  0
   -4.9092    8.7863   -8.4943 H   0  0  0  0  0  0  0  0  0  0  0  0
   -2.4090   14.2148   -6.1776 H   0  0  0  0  0  0  0  0  0  0  0  0
   -0.6475   10.5464   -7.5511 H   0  0  0  0  0  0  0  0  0  0  0  0
    1.4812   14.2962   -6.0855 H   0  0  0  0  0  0  0  0  0  0  0  0
    0.2196   15.4369   -6.6628 H   0  0  0  0  0  0  0  0  0  0  0  0
    0.1886   14.8468   -4.9665 H   0  0  0  0  0  0  0  0  0  0  0  0
   -5.2882   14.1185  -10.2095 H   0  0  0  0  0  0  0  0  0  0  0  0
   -4.0431   13.0269  -10.9057 H   0  0  0  0  0  0  0  0  0  0  0  0
   -3.9735   15.4217  -12.4385 H   0  0  0  0  0  0  0  0  0  0  0  0
   -4.0914   15.9235  -10.7178 H   0  0  0  0  0  0  0  0  0  0  0  0
   -1.9457   13.7098   -8.5138 H   0  0  0  0  0  0  0  0  0  0  0  0
   -0.0034   13.9020   -9.0723 H   0  0  0  0  0  0  0  0  0  0  0  0
    0.0984   13.7264  -10.8570 H   0  0  0  0  0  0  0  0  0  0  0  0
    0.1408   15.3601  -10.1114 H   0  0  0  0  0  0  0  0  0  0  0  0
  1  2  2  0  0  0  0
  1  4  1  0  0  0  0
  1 11  1  0  0  0  0
  2  6  1  0  0  0  0
  3  4  2  0  0  0  0
  3  5  1  0  0  0  0
  5  6  1  0  0  0  0
  5  9  2  0  0  0  0
  6  7  2  0  0  0  0
  7  8  1  0  0  0  0
  7 10  1  0  0  0  0
  8  9  1  0  0  0  0
 10 12  1  0  0  0  0
 11 24  1  0  0  0  0
 12 13  2  0  0  0  0
 12 17  1  0  0  0  0
 13 14  1  0  0  0  0
 14 15  2  0  0  0  0
 15 16  1  0  0  0  0
 15 18  1  0  0  0  0
 16 17  2  0  0  0  0
 18 19  2  0  0  0  0
 18 22  1  0  0  0  0
 19 20  1  0  0  0  0
 20 21  1  0  0  0  0
 20 23  1  0  0  0  0
 21 22  2  0  0  0  0
 24 25  1  0  0  0  0
 25 26  1  0  0  0  0
 26 27  2  0  0  0  0
 27 28  1  0  0  0  0
 27 29  1  0  0  0  0
  2 30  1  0  0  0  0
  3 31  1  0  0  0  0
  4 32  1  0  0  0  0
  8 33  1  0  0  0  0
 10 34  1  0  0  0  0
 10 35  1  0  0  0  0
 11 36  1  0  0  0  0
 13 37  1  0  0  0  0
 14 38  1  0  0  0  0
 16 39  1  0  0  0  0
 17 40  1  0  0  0  0
 19 41  1  0  0  0  0
 22 42  1  0  0  0  0
 23 43  1  0  0  0  0
 23 44  1  0  0  0  0
 23 45  1  0  0  0  0
 24 46  1  0  0  0  0
 24 47  1  0  0  0  0
 25 48  1  0  0  0  0
 25 49  1  0  0  0  0
 28 50  1  0  0  0  0
 29 51  1  0  0  0  0
 29 52  1  0  0  0  0
 29 53  1  0  0  0  0
M  END
> <Name>
27

> <IC50[uM]>
0.68

$$$$
27
  -OEChem-05192314333D
 Structure written by MMmdl.
 53 56  0     0  0  0  0  0  0999 V2000
   -6.3855   12.3606  -12.0031 C   0  0  0  0  0  0  0  0  0  0  0  0
   -6.5214   11.8004  -10.7171 C   0  0  0  0  0  0  0  0  0  0  0  0
   -7.6991   10.5797  -13.0384 C   0  0  0  0  0  0  0  0  0  0  0  0
   -6.9626   11.7779  -13.1031 C   0  0  0  0  0  0  0  0  0  0  0  0
   -7.8238   10.0198  -11.7523 C   0  0  0  0  0  0  0  0  0  0  0  0
   -7.2557   10.6213  -10.5956 C   0  0  0  0  0  0  0  0  0  0  0  0
   -7.6268    9.7501   -9.5073 C   0  0  0  0  0  0  0  0  0  0  0  0
   -8.3057    8.7491   -9.9816 N   0  0  0  0  0  0  0  0  0  0  0  0
   -8.4330    8.8776  -11.2917 N   0  0  0  0  0  0  0  0  0  0  0  0
   -7.3352    9.8817   -8.0196 C   0  0  0  0  0  0  0  0  0  0  0  0
   -5.6205   13.5372  -12.2095 N   0  0  0  0  0  0  0  0  0  0  0  0
   -5.9727   10.4835   -7.7324 C   0  0  0  0  0  0  0  0  0  0  0  0
   -5.8611   11.7523   -7.1657 C   0  0  0  0  0  0  0  0  0  0  0  0
   -4.5946   12.2988   -6.9068 C   0  0  0  0  0  0  0  0  0  0  0  0
   -3.4432   11.5806   -7.2147 C   0  0  0  0  0  0  0  0  0  0  0  0
   -3.5570   10.3109   -7.7899 C   0  0  0  0  0  0  0  0  0  0  0  0
   -4.8253    9.7663   -8.0483 C   0  0  0  0  0  0  0  0  0  0  0  0
   -2.0926   12.1556   -6.9444 C   0  0  0  0  0  0  0  0  0  0  0  0
   -1.7338   13.4204   -6.4594 C   0  0  0  0  0  0  0  0  0  0  0  0
   -0.4064   13.4584   -6.4114 N   0  0  0  0  0  0  0  0  0  0  0  0
    0.1793   12.3493   -6.7865 N   0  0  0  0  0  0  0  0  0  0  0  0
   -0.7954   11.5387   -7.1512 C   0  0  0  0  0  0  0  0  0  0  0  0
    0.4205   14.5767   -6.0073 C   0  0  0  0  0  0  0  0  0  0  0  0
   -4.6894   13.8945  -11.1046 C   0  0  0  0  0  0  0  0  0  0  0  0
   -3.7822   15.1171  -11.3990 C   0  0  0  0  0  0  0  0  0  0  0  0
   -2.3310   14.9579  -11.2532 N   0  0  0  0  0  0  0  0  0  0  0  0
   -1.8099   14.4326  -10.1320 C   0  0  0  0  0  0  0  0  0  0  0  0
   -2.5019   14.0442   -9.2076 O   0  0  0  0  0  0  0  0  0  0  0  0
   -0.2869   14.3494  -10.0364 C   0  0  0  0  0  0  0  0  0  0  0  0
   -6.0716   12.2689   -9.8542 H   0  0  0  0  0  0  0  0  0  0  0  0
   -8.1374   10.1224  -13.9131 H   0  0  0  0  0  0  0  0  0  0  0  0
   -6.8466   12.2604  -14.0624 H   0  0  0  0  0  0  0  0  0  0  0  0
   -8.9138    8.2235  -11.8756 H   0  0  0  0  0  0  0  0  0  0  0  0
   -8.1046   10.5248   -7.5674 H   0  0  0  0  0  0  0  0  0  0  0  0
   -7.3794    8.8814   -7.5641 H   0  0  0  0  0  0  0  0  0  0  0  0
   -5.0791   13.4115  -13.0408 H   0  0  0  0  0  0  0  0  0  0  0  0
   -6.7507   12.3156   -6.9255 H   0  0  0  0  0  0  0  0  0  0  0  0
   -4.5132   13.2816   -6.4664 H   0  0  0  0  0  0  0  0  0  0  0  0
   -2.6683    9.7485   -8.0357 H   0  0  0  0  0  0  0  0  0  0  0  0
   -4.9092    8.7863   -8.4943 H   0  0  0  0  0  0  0  0  0  0  0  0
   -2.4090   14.2148   -6.1776 H   0  0  0  0  0  0  0  0  0  0  0  0
   -0.6475   10.5464   -7.5511 H   0  0  0  0  0  0  0  0  0  0  0  0
    1.4812   14.2962   -6.0855 H   0  0  0  0  0  0  0  0  0  0  0  0
    0.2196   15.4369   -6.6628 H   0  0  0  0  0  0  0  0  0  0  0  0
    0.1886   14.8468   -4.9665 H   0  0  0  0  0  0  0  0  0  0  0  0
   -5.2882   14.1185  -10.2095 H   0  0  0  0  0  0  0  0  0  0  0  0
   -4.0431   13.0269  -10.9057 H   0  0  0  0  0  0  0  0  0  0  0  0
   -3.9735   15.4217  -12.4385 H   0  0  0  0  0  0  0  0  0  0  0  0
   -4.0914   15.9235  -10.7178 H   0  0  0  0  0  0  0  0  0  0  0  0
   -1.9457   13.7098   -8.5138 H   0  0  0  0  0  0  0  0  0  0  0  0
   -0.0034   13.9020   -9.0723 H   0  0  0  0  0  0  0  0  0  0  0  0
    0.0984   13.7264  -10.8570 H   0  0  0  0  0  0  0  0  0  0  0  0
    0.1408   15.3601  -10.1114 H   0  0  0  0  0  0  0  0  0  0  0  0
  1  2  2  0  0  0  0
  1  4  1  0  0  0  0
  1 11  1  0  0  0  0
  2  6  1  0  0  0  0
  3  4  2  0  0  0  0
  3  5  1  0  0  0  0
  5  6  2  0  0  0  0
  5  9  1  0  0  0  0
  6  7  1  0  0  0  0
  7  8  2  0  0  0  0
  7 10  1  0  0  0  0
  8  9  1  0  0  0  0
 10 12  1  0  0  0  0
 11 24  1  0  0  0  0
 12 13  2  0  0  0  0
 12 17  1  0  0  0  0
 13 14  1  0  0  0  0
 14 15  2  0  0  0  0
 15 16  1  0  0  0  0
 15 18  1  0  0  0  0
 16 17  2  0  0  0  0
 18 19  2  0  0  0  0
 18 22  1  0  0  0  0
 19 20  1  0  0  0  0
 20 21  1  0  0  0  0
 20 23  1  0  0  0  0
 21 22  2  0  0  0  0
 24 25  1  0  0  0  0
 25 26  1  0  0  0  0
 26 27  2  0  0  0  0
 27 28  1  0  0  0  0
 27 29  1  0  0  0  0
  2 30  1  0  0  0  0
  3 31  1  0  0  0  0
  4 32  1  0  0  0  0
  9 33  1  0  0  0  0
 10 34  1  0  0  0  0
 10 35  1  0  0  0  0
 11 36  1  0  0  0  0
 13 37  1  0  0  0  0
 14 38  1  0  0  0  0
 16 39  1  0  0  0  0
 17 40  1  0  0  0  0
 19 41  1  0  0  0  0
 22 42  1  0  0  0  0
 23 43  1  0  0  0  0
 23 44  1  0  0  0  0
 23 45  1  0  0  0  0
 24 46  1  0  0  0  0
 24 47  1  0  0  0  0
 25 48  1  0  0  0  0
 25 49  1  0  0  0  0
 28 50  1  0  0  0  0
 29 51  1  0  0  0  0
 29 52  1  0  0  0  0
 29 53  1  0  0  0  0
M  END
> <Name>
27

> <IC50[uM]>
0.68

$$$$
27
  -OEChem-05192314333D
 Structure written by MMmdl.
 53 56  0     1  0  0  0  0  0999 V2000
   -6.3855   12.3606  -12.0031 C   0  0  0  0  0  0  0  0  0  0  0  0
   -6.5214   11.8004  -10.7171 C   0  0  0  0  0  0  0  0  0  0  0  0
   -7.6991   10.5797  -13.0384 C   0  0  0  0  0  0  0  0  0  0  0  0
   -6.9626   11.7779  -13.1031 C   0  0  0  0  0  0  0  0  0  0  0  0
   -7.8238   10.0198  -11.7523 C   0  0  0  0  0  0  0  0  0  0  0  0
   -7.2557   10.6213  -10.5956 C   0  0  0  0  0  0  0  0  0  0  0  0
   -7.6268    9.7501   -9.5073 C   0  0  3  0  0  0  0  0  0  0  0  0
   -8.3057    8.7491   -9.9816 N   0  0  0  0  0  0  0  0  0  0  0  0
   -8.4330    8.8776  -11.2917 N   0  0  0  0  0  0  0  0  0  0  0  0
   -7.3352    9.8817   -8.0196 C   0  0  0  0  0  0  0  0  0  0  0  0
   -5.6205   13.5372  -12.2095 N   0  0  0  0  0  0  0  0  0  0  0  0
   -5.9727   10.4835   -7.7324 C   0  0  0  0  0  0  0  0  0  0  0  0
   -5.8611   11.7523   -7.1657 C   0  0  0  0  0  0  0  0  0  0  0  0
   -4.5946   12.2988   -6.9068 C   0  0  0  0  0  0  0  0  0  0  0  0
   -3.4432   11.5806   -7.2147 C   0  0  0  0  0  0  0  0  0  0  0  0
   -3.5570   10.3109   -7.7899 C   0  0  0  0  0  0  0  0  0  0  0  0
   -4.8253    9.7663   -8.0483 C   0  0  0  0  0  0  0  0  0  0  0  0
   -2.0926   12.1556   -6.9444 C   0  0  0  0  0  0  0  0  0  0  0  0
   -1.7338   13.4204   -6.4594 C   0  0  0  0  0  0  0  0  0  0  0  0
   -0.4064   13.4584   -6.4114 N   0  0  0  0  0  0  0  0  0  0  0  0
    0.1793   12.3493   -6.7865 N   0  0  0  0  0  0  0  0  0  0  0  0
   -0.7954   11.5387   -7.1512 C   0  0  0  0  0  0  0  0  0  0  0  0
    0.4205   14.5767   -6.0073 C   0  0  0  0  0  0  0  0  0  0  0  0
   -4.6894   13.8945  -11.1046 C   0  0  0  0  0  0  0  0  0  0  0  0
   -3.7822   15.1171  -11.3990 C   0  0  0  0  0  0  0  0  0  0  0  0
   -2.3310   14.9579  -11.2532 N   0  0  0  0  0  0  0  0  0  0  0  0
   -1.8099   14.4326  -10.1320 C   0  0  0  0  0  0  0  0  0  0  0  0
   -2.5019   14.0442   -9.2076 O   0  0  0  0  0  0  0  0  0  0  0  0
   -0.2869   14.3494  -10.0364 C   0  0  0  0  0  0  0  0  0  0  0  0
   -6.0716   12.2689   -9.8542 H   0  0  0  0  0  0  0  0  0  0  0  0
   -8.1374   10.1224  -13.9131 H   0  0  0  0  0  0  0  0  0  0  0  0
   -6.8466   12.2604  -14.0624 H   0  0  0  0  0  0  0  0  0  0  0  0
   -6.6939    9.1829   -9.6414 H   0  0  0  0  0  0  0  0  0  0  0  0
   -8.1046   10.5248   -7.5674 H   0  0  0  0  0  0  0  0  0  0  0  0
   -7.3794    8.8814   -7.5641 H   0  0  0  0  0  0  0  0  0  0  0  0
   -5.0791   13.4115  -13.0408 H   0  0  0  0  0  0  0  0  0  0  0  0
   -6.7507   12.3156   -6.9255 H   0  0  0  0  0  0  0  0  0  0  0  0
   -4.5132   13.2816   -6.4664 H   0  0  0  0  0  0  0  0  0  0  0  0
   -2.6683    9.7485   -8.0357 H   0  0  0  0  0  0  0  0  0  0  0  0
   -4.9092    8.7863   -8.4943 H   0  0  0  0  0  0  0  0  0  0  0  0
   -2.4090   14.2148   -6.1776 H   0  0  0  0  0  0  0  0  0  0  0  0
   -0.6475   10.5464   -7.5511 H   0  0  0  0  0  0  0  0  0  0  0  0
    1.4812   14.2962   -6.0855 H   0  0  0  0  0  0  0  0  0  0  0  0
    0.2196   15.4369   -6.6628 H   0  0  0  0  0  0  0  0  0  0  0  0
    0.1886   14.8468   -4.9665 H   0  0  0  0  0  0  0  0  0  0  0  0
   -5.2882   14.1185  -10.2095 H   0  0  0  0  0  0  0  0  0  0  0  0
   -4.0431   13.0269  -10.9057 H   0  0  0  0  0  0  0  0  0  0  0  0
   -3.9735   15.4217  -12.4385 H   0  0  0  0  0  0  0  0  0  0  0  0
   -4.0914   15.9235  -10.7178 H   0  0  0  0  0  0  0  0  0  0  0  0
   -1.7243   15.2430  -11.9952 H   0  0  0  0  0  0  0  0  0  0  0  0
   -0.0031   13.9147   -9.0666 H   0  0  0  0  0  0  0  0  0  0  0  0
    0.0973   13.7152  -10.8489 H   0  0  0  0  0  0  0  0  0  0  0  0
    0.1416   15.3586  -10.1252 H   0  0  0  0  0  0  0  0  0  0  0  0
  1  2  2  0  0  0  0
  1  4  1  0  0  0  0
  1 11  1  0  0  0  0
  2  6  1  0  0  0  0
  3  4  2  0  0  0  0
  3  5  1  0  0  0  0
  5  6  2  0  0  0  0
  5  9  1  0  0  0  0
  6  7  1  0  0  0  0
  7  8  1  0  0  0  0
  7 10  1  0  0  0  0
  8  9  2  0  0  0  0
 10 12  1  0  0  0  0
 11 24  1  0  0  0  0
 12 13  2  0  0  0  0
 12 17  1  0  0  0  0
 13 14  1  0  0  0  0
 14 15  2  0  0  0  0
 15 16  1  0  0  0  0
 15 18  1  0  0  0  0
 16 17  2  0  0  0  0
 18 19  2  0  0  0  0
 18 22  1  0  0  0  0
 19 20  1  0  0  0  0
 20 21  1  0  0  0  0
 20 23  1  0  0  0  0
 21 22  2  0  0  0  0
 24 25  1  0  0  0  0
 25 26  1  0  0  0  0
 26 27  1  0  0  0  0
 27 28  2  0  0  0  0
 27 29  1  0  0  0  0
  2 30  1  0  0  0  0
  3 31  1  0  0  0  0
  4 32  1  0  0  0  0
  7 33  1  0  0  0  0
 10 34  1  0  0  0  0
 10 35  1  0  0  0  0
 11 36  1  0  0  0  0
 13 37  1  0  0  0  0
 14 38  1  0  0  0  0
 16 39  1  0  0  0  0
 17 40  1  0  0  0  0
 19 41  1  0  0  0  0
 22 42  1  0  0  0  0
 23 43  1  0  0  0  0
 23 44  1  0  0  0  0
 23 45  1  0  0  0  0
 24 46  1  0  0  0  0
 24 47  1  0  0  0  0
 25 48  1  0  0  0  0
 25 49  1  0  0  0  0
 26 50  1  0  0  0  0
 29 51  1  0  0  0  0
 29 52  1  0  0  0  0
 29 53  1  0  0  0  0
M  END
> <Name>
27

> <IC50[uM]>
0.68

$$$$
27
  -OEChem-05192314333D
 Structure written by MMmdl.
 53 56  0     1  0  0  0  0  0999 V2000
   -6.3855   12.3606  -12.0031 C   0  0  0  0  0  0  0  0  0  0  0  0
   -6.5214   11.8004  -10.7171 C   0  0  0  0  0  0  0  0  0  0  0  0
   -7.6991   10.5797  -13.0384 C   0  0  0  0  0  0  0  0  0  0  0  0
   -6.9626   11.7779  -13.1031 C   0  0  0  0  0  0  0  0  0  0  0  0
   -7.8238   10.0198  -11.7523 C   0  0  0  0  0  0  0  0  0  0  0  0
   -7.2557   10.6213  -10.5956 C   0  0  0  0  0  0  0  0  0  0  0  0
   -7.6268    9.7501   -9.5073 C   0  0  3  0  0  0  0  0  0  0  0  0
   -8.3057    8.7491   -9.9816 N   0  0  0  0  0  0  0  0  0  0  0  0
   -8.4330    8.8776  -11.2917 N   0  0  0  0  0  0  0  0  0  0  0  0
   -7.3352    9.8817   -8.0196 C   0  0  0  0  0  0  0  0  0  0  0  0
   -5.6205   13.5372  -12.2095 N   0  0  0  0  0  0  0  0  0  0  0  0
   -5.9727   10.4835   -7.7324 C   0  0  0  0  0  0  0  0  0  0  0  0
   -5.8611   11.7523   -7.1657 C   0  0  0  0  0  0  0  0  0  0  0  0
   -4.5946   12.2988   -6.9068 C   0  0  0  0  0  0  0  0  0  0  0  0
   -3.4432   11.5806   -7.2147 C   0  0  0  0  0  0  0  0  0  0  0  0
   -3.5570   10.3109   -7.7899 C   0  0  0  0  0  0  0  0  0  0  0  0
   -4.8253    9.7663   -8.0483 C   0  0  0  0  0  0  0  0  0  0  0  0
   -2.0926   12.1556   -6.9444 C   0  0  0  0  0  0  0  0  0  0  0  0
   -1.7338   13.4204   -6.4594 C   0  0  0  0  0  0  0  0  0  0  0  0
   -0.4064   13.4584   -6.4114 N   0  0  0  0  0  0  0  0  0  0  0  0
    0.1793   12.3493   -6.7865 N   0  0  0  0  0  0  0  0  0  0  0  0
   -0.7954   11.5387   -7.1512 C   0  0  0  0  0  0  0  0  0  0  0  0
    0.4205   14.5767   -6.0073 C   0  0  0  0  0  0  0  0  0  0  0  0
   -4.6894   13.8945  -11.1046 C   0  0  0  0  0  0  0  0  0  0  0  0
   -3.7822   15.1171  -11.3990 C   0  0  0  0  0  0  0  0  0  0  0  0
   -2.3310   14.9579  -11.2532 N   0  0  0  0  0  0  0  0  0  0  0  0
   -1.8099   14.4326  -10.1320 C   0  0  0  0  0  0  0  0  0  0  0  0
   -2.5019   14.0442   -9.2076 O   0  0  0  0  0  0  0  0  0  0  0  0
   -0.2869   14.3494  -10.0364 C   0  0  0  0  0  0  0  0  0  0  0  0
   -6.0716   12.2689   -9.8542 H   0  0  0  0  0  0  0  0  0  0  0  0
   -8.1374   10.1224  -13.9131 H   0  0  0  0  0  0  0  0  0  0  0  0
   -6.8466   12.2604  -14.0624 H   0  0  0  0  0  0  0  0  0  0  0  0
   -6.6939    9.1829   -9.6414 H   0  0  0  0  0  0  0  0  0  0  0  0
   -8.1046   10.5248   -7.5674 H   0  0  0  0  0  0  0  0  0  0  0  0
   -7.3794    8.8814   -7.5641 H   0  0  0  0  0  0  0  0  0  0  0  0
   -5.0791   13.4115  -13.0408 H   0  0  0  0  0  0  0  0  0  0  0  0
   -6.7507   12.3156   -6.9255 H   0  0  0  0  0  0  0  0  0  0  0  0
   -4.5132   13.2816   -6.4664 H   0  0  0  0  0  0  0  0  0  0  0  0
   -2.6683    9.7485   -8.0357 H   0  0  0  0  0  0  0  0  0  0  0  0
   -4.9092    8.7863   -8.4943 H   0  0  0  0  0  0  0  0  0  0  0  0
   -2.4090   14.2148   -6.1776 H   0  0  0  0  0  0  0  0  0  0  0  0
   -0.6475   10.5464   -7.5511 H   0  0  0  0  0  0  0  0  0  0  0  0
    1.4812   14.2962   -6.0855 H   0  0  0  0  0  0  0  0  0  0  0  0
    0.2196   15.4369   -6.6628 H   0  0  0  0  0  0  0  0  0  0  0  0
    0.1886   14.8468   -4.9665 H   0  0  0  0  0  0  0  0  0  0  0  0
   -5.2882   14.1185  -10.2095 H   0  0  0  0  0  0  0  0  0  0  0  0
   -4.0431   13.0269  -10.9057 H   0  0  0  0  0  0  0  0  0  0  0  0
   -3.9735   15.4217  -12.4385 H   0  0  0  0  0  0  0  0  0  0  0  0
   -4.0914   15.9235  -10.7178 H   0  0  0  0  0  0  0  0  0  0  0  0
   -1.9457   13.7098   -8.5138 H   0  0  0  0  0  0  0  0  0  0  0  0
   -0.0034   13.9020   -9.0723 H   0  0  0  0  0  0  0  0  0  0  0  0
    0.0984   13.7264  -10.8570 H   0  0  0  0  0  0  0  0  0  0  0  0
    0.1408   15.3601  -10.1114 H   0  0  0  0  0  0  0  0  0  0  0  0
  1  2  2  0  0  0  0
  1  4  1  0  0  0  0
  1 11  1  0  0  0  0
  2  6  1  0  0  0  0
  3  4  2  0  0  0  0
  3  5  1  0  0  0  0
  5  6  2  0  0  0  0
  5  9  1  0  0  0  0
  6  7  1  0  0  0  0
  7  8  1  0  0  0  0
  7 10  1  0  0  0  0
  8  9  2  0  0  0  0
 10 12  1  0  0  0  0
 11 24  1  0  0  0  0
 12 13  2  0  0  0  0
 12 17  1  0  0  0  0
 13 14  1  0  0  0  0
 14 15  2  0  0  0  0
 15 16  1  0  0  0  0
 15 18  1  0  0  0  0
 16 17  2  0  0  0  0
 18 19  2  0  0  0  0
 18 22  1  0  0  0  0
 19 20  1  0  0  0  0
 20 21  1  0  0  0  0
 20 23  1  0  0  0  0
 21 22  2  0  0  0  0
 24 25  1  0  0  0  0
 25 26  1  0  0  0  0
 26 27  2  0  0  0  0
 27 28  1  0  0  0  0
 27 29  1  0  0  0  0
  2 30  1  0  0  0  0
  3 31  1  0  0  0  0
  4 32  1  0  0  0  0
  7 33  1  0  0  0  0
 10 34  1  0  0  0  0
 10 35  1  0  0  0  0
 11 36  1  0  0  0  0
 13 37  1  0  0  0  0
 14 38  1  0  0  0  0
 16 39  1  0  0  0  0
 17 40  1  0  0  0  0
 19 41  1  0  0  0  0
 22 42  1  0  0  0  0
 23 43  1  0  0  0  0
 23 44  1  0  0  0  0
 23 45  1  0  0  0  0
 24 46  1  0  0  0  0
 24 47  1  0  0  0  0
 25 48  1  0  0  0  0
 25 49  1  0  0  0  0
 28 50  1  0  0  0  0
 29 51  1  0  0  0  0
 29 52  1  0  0  0  0
 29 53  1  0  0  0  0
M  END
> <Name>
27

> <IC50[uM]>
0.68

$$$$
27
  -OEChem-05192314333D
 Structure written by MMmdl.
 53 56  0     0  0  0  0  0  0999 V2000
   -6.3855   12.3606  -12.0031 C   0  0  0  0  0  0  0  0  0  0  0  0
   -6.5214   11.8004  -10.7171 C   0  0  0  0  0  0  0  0  0  0  0  0
   -7.6991   10.5797  -13.0384 C   0  0  0  0  0  0  0  0  0  0  0  0
   -6.9626   11.7779  -13.1031 C   0  0  0  0  0  0  0  0  0  0  0  0
   -7.8238   10.0198  -11.7523 C   0  0  0  0  0  0  0  0  0  0  0  0
   -7.2557   10.6213  -10.5956 C   0  0  0  0  0  0  0  0  0  0  0  0
   -7.6268    9.7501   -9.5073 C   0  0  0  0  0  0  0  0  0  0  0  0
   -8.3057    8.7491   -9.9816 N   0  0  0  0  0  0  0  0  0  0  0  0
   -8.4330    8.8776  -11.2917 N   0  0  0  0  0  0  0  0  0  0  0  0
   -7.3352    9.8817   -8.0196 C   0  0  0  0  0  0  0  0  0  0  0  0
   -5.6205   13.5372  -12.2095 N   0  0  0  0  0  0  0  0  0  0  0  0
   -5.9727   10.4835   -7.7324 C   0  0  0  0  0  0  0  0  0  0  0  0
   -5.8611   11.7523   -7.1657 C   0  0  0  0  0  0  0  0  0  0  0  0
   -4.5946   12.2988   -6.9068 C   0  0  0  0  0  0  0  0  0  0  0  0
   -3.4432   11.5806   -7.2147 C   0  0  0  0  0  0  0  0  0  0  0  0
   -3.5570   10.3109   -7.7899 C   0  0  0  0  0  0  0  0  0  0  0  0
   -4.8253    9.7663   -8.0483 C   0  0  0  0  0  0  0  0  0  0  0  0
   -2.0926   12.1556   -6.9444 C   0  0  0  0  0  0  0  0  0  0  0  0
   -1.7338   13.4204   -6.4594 C   0  0  0  0  0  0  0  0  0  0  0  0
   -0.4064   13.4584   -6.4114 N   0  0  0  0  0  0  0  0  0  0  0  0
    0.1793   12.3493   -6.7865 N   0  0  0  0  0  0  0  0  0  0  0  0
   -0.7954   11.5387   -7.1512 C   0  0  0  0  0  0  0  0  0  0  0  0
    0.4205   14.5767   -6.0073 C   0  0  0  0  0  0  0  0  0  0  0  0
   -4.6894   13.8945  -11.1046 C   0  0  0  0  0  0  0  0  0  0  0  0
   -3.7822   15.1171  -11.3990 C   0  0  0  0  0  0  0  0  0  0  0  0
   -2.3310   14.9579  -11.2532 N   0  0  0  0  0  0  0  0  0  0  0  0
   -1.8099   14.4326  -10.1320 C   0  0  0  0  0  0  0  0  0  0  0  0
   -2.5019   14.0442   -9.2076 O   0  0  0  0  0  0  0  0  0  0  0  0
   -0.2869   14.3494  -10.0364 C   0  0  0  0  0  0  0  0  0  0  0  0
   -6.0716   12.2689   -9.8542 H   0  0  0  0  0  0  0  0  0  0  0  0
   -8.1374   10.1224  -13.9131 H   0  0  0  0  0  0  0  0  0  0  0  0
   -6.8466   12.2604  -14.0624 H   0  0  0  0  0  0  0  0  0  0  0  0
   -7.8268    7.8956   -9.7763 H   0  0  0  0  0  0  0  0  0  0  0  0
   -9.4057    8.9143  -11.5206 H   0  0  0  0  0  0  0  0  0  0  0  0
   -8.0269    9.5780   -7.2478 H   0  0  0  0  0  0  0  0  0  0  0  0
   -5.0791   13.4115  -13.0408 H   0  0  0  0  0  0  0  0  0  0  0  0
   -6.7507   12.3156   -6.9255 H   0  0  0  0  0  0  0  0  0  0  0  0
   -4.5132   13.2816   -6.4664 H   0  0  0  0  0  0  0  0  0  0  0  0
   -2.6683    9.7485   -8.0357 H   0  0  0  0  0  0  0  0  0  0  0  0
   -4.9092    8.7863   -8.4943 H   0  0  0  0  0  0  0  0  0  0  0  0
   -2.4090   14.2148   -6.1776 H   0  0  0  0  0  0  0  0  0  0  0  0
   -0.6475   10.5464   -7.5511 H   0  0  0  0  0  0  0  0  0  0  0  0
    1.4812   14.2962   -6.0855 H   0  0  0  0  0  0  0  0  0  0  0  0
    0.2196   15.4369   -6.6628 H   0  0  0  0  0  0  0  0  0  0  0  0
    0.1886   14.8468   -4.9665 H   0  0  0  0  0  0  0  0  0  0  0  0
   -5.2882   14.1185  -10.2095 H   0  0  0  0  0  0  0  0  0  0  0  0
   -4.0431   13.0269  -10.9057 H   0  0  0  0  0  0  0  0  0  0  0  0
   -3.9735   15.4217  -12.4385 H   0  0  0  0  0  0  0  0  0  0  0  0
   -4.0914   15.9235  -10.7178 H   0  0  0  0  0  0  0  0  0  0  0  0
   -1.7243   15.2430  -11.9952 H   0  0  0  0  0  0  0  0  0  0  0  0
   -0.0031   13.9147   -9.0666 H   0  0  0  0  0  0  0  0  0  0  0  0
    0.0973   13.7152  -10.8489 H   0  0  0  0  0  0  0  0  0  0  0  0
    0.1416   15.3586  -10.1252 H   0  0  0  0  0  0  0  0  0  0  0  0
  1  2  2  0  0  0  0
  1  4  1  0  0  0  0
  1 11  1  0  0  0  0
  2  6  1  0  0  0  0
  3  4  2  0  0  0  0
  3  5  1  0  0  0  0
  5  6  2  0  0  0  0
  5  9  1  0  0  0  0
  6  7  1  0  0  0  0
  7  8  1  0  0  0  0
  7 10  2  3  0  0  0
  8  9  1  0  0  0  0
 10 12  1  0  0  0  0
 11 24  1  0  0  0  0
 12 13  2  0  0  0  0
 12 17  1  0  0  0  0
 13 14  1  0  0  0  0
 14 15  2  0  0  0  0
 15 16  1  0  0  0  0
 15 18  1  0  0  0  0
 16 17  2  0  0  0  0
 18 19  2  0  0  0  0
 18 22  1  0  0  0  0
 19 20  1  0  0  0  0
 20 21  1  0  0  0  0
 20 23  1  0  0  0  0
 21 22  2  0  0  0  0
 24 25  1  0  0  0  0
 25 26  1  0  0  0  0
 26 27  1  0  0  0  0
 27 28  2  0  0  0  0
 27 29  1  0  0  0  0
  2 30  1  0  0  0  0
  3 31  1  0  0  0  0
  4 32  1  0  0  0  0
  8 33  1  0  0  0  0
  9 34  1  0  0  0  0
 10 35  1  0  0  0  0
 11 36  1  0  0  0  0
 13 37  1  0  0  0  0
 14 38  1  0  0  0  0
 16 39  1  0  0  0  0
 17 40  1  0  0  0  0
 19 41  1  0  0  0  0
 22 42  1  0  0  0  0
 23 43  1  0  0  0  0
 23 44  1  0  0  0  0
 23 45  1  0  0  0  0
 24 46  1  0  0  0  0
 24 47  1  0  0  0  0
 25 48  1  0  0  0  0
 25 49  1  0  0  0  0
 26 50  1  0  0  0  0
 29 51  1  0  0  0  0
 29 52  1  0  0  0  0
 29 53  1  0  0  0  0
M  END
> <Name>
27

> <IC50[uM]>
0.68

$$$$
27
  -OEChem-05192314333D
 Structure written by MMmdl.
 53 56  0     0  0  0  0  0  0999 V2000
   -6.3855   12.3606  -12.0031 C   0  0  0  0  0  0  0  0  0  0  0  0
   -6.5214   11.8004  -10.7171 C   0  0  0  0  0  0  0  0  0  0  0  0
   -7.6991   10.5797  -13.0384 C   0  0  0  0  0  0  0  0  0  0  0  0
   -6.9626   11.7779  -13.1031 C   0  0  0  0  0  0  0  0  0  0  0  0
   -7.8238   10.0198  -11.7523 C   0  0  0  0  0  0  0  0  0  0  0  0
   -7.2557   10.6213  -10.5956 C   0  0  0  0  0  0  0  0  0  0  0  0
   -7.6268    9.7501   -9.5073 C   0  0  0  0  0  0  0  0  0  0  0  0
   -8.3057    8.7491   -9.9816 N   0  0  0  0  0  0  0  0  0  0  0  0
   -8.4330    8.8776  -11.2917 N   0  0  0  0  0  0  0  0  0  0  0  0
   -7.3352    9.8817   -8.0196 C   0  0  0  0  0  0  0  0  0  0  0  0
   -5.6205   13.5372  -12.2095 N   0  0  0  0  0  0  0  0  0  0  0  0
   -5.9727   10.4835   -7.7324 C   0  0  0  0  0  0  0  0  0  0  0  0
   -5.8611   11.7523   -7.1657 C   0  0  0  0  0  0  0  0  0  0  0  0
   -4.5946   12.2988   -6.9068 C   0  0  0  0  0  0  0  0  0  0  0  0
   -3.4432   11.5806   -7.2147 C   0  0  0  0  0  0  0  0  0  0  0  0
   -3.5570   10.3109   -7.7899 C   0  0  0  0  0  0  0  0  0  0  0  0
   -4.8253    9.7663   -8.0483 C   0  0  0  0  0  0  0  0  0  0  0  0
   -2.0926   12.1556   -6.9444 C   0  0  0  0  0  0  0  0  0  0  0  0
   -1.7338   13.4204   -6.4594 C   0  0  0  0  0  0  0  0  0  0  0  0
   -0.4064   13.4584   -6.4114 N   0  0  0  0  0  0  0  0  0  0  0  0
    0.1793   12.3493   -6.7865 N   0  0  0  0  0  0  0  0  0  0  0  0
   -0.7954   11.5387   -7.1512 C   0  0  0  0  0  0  0  0  0  0  0  0
    0.4205   14.5767   -6.0073 C   0  0  0  0  0  0  0  0  0  0  0  0
   -4.6894   13.8945  -11.1046 C   0  0  0  0  0  0  0  0  0  0  0  0
   -3.7822   15.1171  -11.3990 C   0  0  0  0  0  0  0  0  0  0  0  0
   -2.3310   14.9579  -11.2532 N   0  0  0  0  0  0  0  0  0  0  0  0
   -1.8099   14.4326  -10.1320 C   0  0  0  0  0  0  0  0  0  0  0  0
   -2.5019   14.0442   -9.2076 O   0  0  0  0  0  0  0  0  0  0  0  0
   -0.2869   14.3494  -10.0364 C   0  0  0  0  0  0  0  0  0  0  0  0
   -6.0716   12.2689   -9.8542 H   0  0  0  0  0  0  0  0  0  0  0  0
   -8.1374   10.1224  -13.9131 H   0  0  0  0  0  0  0  0  0  0  0  0
   -6.8466   12.2604  -14.0624 H   0  0  0  0  0  0  0  0  0  0  0  0
   -7.8268    7.8956   -9.7763 H   0  0  0  0  0  0  0  0  0  0  0  0
   -9.4057    8.9143  -11.5206 H   0  0  0  0  0  0  0  0  0  0  0  0
   -8.0269    9.5780   -7.2478 H   0  0  0  0  0  0  0  0  0  0  0  0
   -5.0791   13.4115  -13.0408 H   0  0  0  0  0  0  0  0  0  0  0  0
   -6.7507   12.3156   -6.9255 H   0  0  0  0  0  0  0  0  0  0  0  0
   -4.5132   13.2816   -6.4664 H   0  0  0  0  0  0  0  0  0  0  0  0
   -2.6683    9.7485   -8.0357 H   0  0  0  0  0  0  0  0  0  0  0  0
   -4.9092    8.7863   -8.4943 H   0  0  0  0  0  0  0  0  0  0  0  0
   -2.4090   14.2148   -6.1776 H   0  0  0  0  0  0  0  0  0  0  0  0
   -0.6475   10.5464   -7.5511 H   0  0  0  0  0  0  0  0  0  0  0  0
    1.4812   14.2962   -6.0855 H   0  0  0  0  0  0  0  0  0  0  0  0
    0.2196   15.4369   -6.6628 H   0  0  0  0  0  0  0  0  0  0  0  0
    0.1886   14.8468   -4.9665 H   0  0  0  0  0  0  0  0  0  0  0  0
   -5.2882   14.1185  -10.2095 H   0  0  0  0  0  0  0  0  0  0  0  0
   -4.0431   13.0269  -10.9057 H   0  0  0  0  0  0  0  0  0  0  0  0
   -3.9735   15.4217  -12.4385 H   0  0  0  0  0  0  0  0  0  0  0  0
   -4.0914   15.9235  -10.7178 H   0  0  0  0  0  0  0  0  0  0  0  0
   -1.9457   13.7098   -8.5138 H   0  0  0  0  0  0  0  0  0  0  0  0
   -0.0034   13.9020   -9.0723 H   0  0  0  0  0  0  0  0  0  0  0  0
    0.0984   13.7264  -10.8570 H   0  0  0  0  0  0  0  0  0  0  0  0
    0.1408   15.3601  -10.1114 H   0  0  0  0  0  0  0  0  0  0  0  0
  1  2  2  0  0  0  0
  1  4  1  0  0  0  0
  1 11  1  0  0  0  0
  2  6  1  0  0  0  0
  3  4  2  0  0  0  0
  3  5  1  0  0  0  0
  5  6  2  0  0  0  0
  5  9  1  0  0  0  0
  6  7  1  0  0  0  0
  7  8  1  0  0  0  0
  7 10  2  3  0  0  0
  8  9  1  0  0  0  0
 10 12  1  0  0  0  0
 11 24  1  0  0  0  0
 12 13  2  0  0  0  0
 12 17  1  0  0  0  0
 13 14  1  0  0  0  0
 14 15  2  0  0  0  0
 15 16  1  0  0  0  0
 15 18  1  0  0  0  0
 16 17  2  0  0  0  0
 18 19  2  0  0  0  0
 18 22  1  0  0  0  0
 19 20  1  0  0  0  0
 20 21  1  0  0  0  0
 20 23  1  0  0  0  0
 21 22  2  0  0  0  0
 24 25  1  0  0  0  0
 25 26  1  0  0  0  0
 26 27  2  0  0  0  0
 27 28  1  0  0  0  0
 27 29  1  0  0  0  0
  2 30  1  0  0  0  0
  3 31  1  0  0  0  0
  4 32  1  0  0  0  0
  8 33  1  0  0  0  0
  9 34  1  0  0  0  0
 10 35  1  0  0  0  0
 11 36  1  0  0  0  0
 13 37  1  0  0  0  0
 14 38  1  0  0  0  0
 16 39  1  0  0  0  0
 17 40  1  0  0  0  0
 19 41  1  0  0  0  0
 22 42  1  0  0  0  0
 23 43  1  0  0  0  0
 23 44  1  0  0  0  0
 23 45  1  0  0  0  0
 24 46  1  0  0  0  0
 24 47  1  0  0  0  0
 25 48  1  0  0  0  0
 25 49  1  0  0  0  0
 28 50  1  0  0  0  0
 29 51  1  0  0  0  0
 29 52  1  0  0  0  0
 29 53  1  0  0  0  0
M  END
> <Name>
27

> <IC50[uM]>
0.68

$$$$
27
  -OEChem-05192314333D
 Structure written by MMmdl.
 53 56  0     0  0  0  0  0  0999 V2000
   -6.3855   12.3606  -12.0031 C   0  0  0  0  0  0  0  0  0  0  0  0
   -6.5214   11.8004  -10.7171 C   0  0  0  0  0  0  0  0  0  0  0  0
   -7.6991   10.5797  -13.0384 C   0  0  0  0  0  0  0  0  0  0  0  0
   -6.9626   11.7779  -13.1031 C   0  0  0  0  0  0  0  0  0  0  0  0
   -7.8238   10.0198  -11.7523 C   0  0  0  0  0  0  0  0  0  0  0  0
   -7.2557   10.6213  -10.5956 C   0  0  0  0  0  0  0  0  0  0  0  0
   -7.6268    9.7501   -9.5073 C   0  0  0  0  0  0  0  0  0  0  0  0
   -8.3057    8.7491   -9.9816 N   0  0  0  0  0  0  0  0  0  0  0  0
   -8.4330    8.8776  -11.2917 N   0  0  0  0  0  0  0  0  0  0  0  0
   -7.3352    9.8817   -8.0196 C   0  0  0  0  0  0  0  0  0  0  0  0
   -5.6205   13.5372  -12.2095 N   0  0  0  0  0  0  0  0  0  0  0  0
   -5.9727   10.4835   -7.7324 C   0  0  0  0  0  0  0  0  0  0  0  0
   -5.8611   11.7523   -7.1657 C   0  0  0  0  0  0  0  0  0  0  0  0
   -4.5946   12.2988   -6.9068 C   0  0  0  0  0  0  0  0  0  0  0  0
   -3.4432   11.5806   -7.2147 C   0  0  0  0  0  0  0  0  0  0  0  0
   -3.5570   10.3109   -7.7899 C   0  0  0  0  0  0  0  0  0  0  0  0
   -4.8253    9.7663   -8.0483 C   0  0  0  0  0  0  0  0  0  0  0  0
   -2.0926   12.1556   -6.9444 C   0  0  0  0  0  0  0  0  0  0  0  0
   -1.7338   13.4204   -6.4594 C   0  0  0  0  0  0  0  0  0  0  0  0
   -0.4064   13.4584   -6.4114 N   0  0  0  0  0  0  0  0  0  0  0  0
    0.1793   12.3493   -6.7865 N   0  0  0  0  0  0  0  0  0  0  0  0
   -0.7954   11.5387   -7.1512 C   0  0  0  0  0  0  0  0  0  0  0  0
    0.4205   14.5767   -6.0073 C   0  0  0  0  0  0  0  0  0  0  0  0
   -4.6894   13.8945  -11.1046 C   0  0  0  0  0  0  0  0  0  0  0  0
   -3.7822   15.1171  -11.3990 C   0  0  0  0  0  0  0  0  0  0  0  0
   -2.3310   14.9579  -11.2532 N   0  0  0  0  0  0  0  0  0  0  0  0
   -1.8099   14.4326  -10.1320 C   0  0  0  0  0  0  0  0  0  0  0  0
   -2.5019   14.0442   -9.2076 O   0  0  0  0  0  0  0  0  0  0  0  0
   -0.2869   14.3494  -10.0364 C   0  0  0  0  0  0  0  0  0  0  0  0
   -5.5086   11.5965  -10.3394 H   0  0  0  0  0  0  0  0  0  0  0  0
   -7.0053   12.5553  -10.0799 H   0  0  0  0  0  0  0  0  0  0  0  0
   -8.1374   10.1224  -13.9131 H   0  0  0  0  0  0  0  0  0  0  0  0
   -6.8466   12.2604  -14.0624 H   0  0  0  0  0  0  0  0  0  0  0  0
   -8.6759    7.9956   -9.4383 H   0  0  0  0  0  0  0  0  0  0  0  0
   -8.1046   10.5248   -7.5674 H   0  0  0  0  0  0  0  0  0  0  0  0
   -7.3794    8.8814   -7.5641 H   0  0  0  0  0  0  0  0  0  0  0  0
   -6.7507   12.3156   -6.9255 H   0  0  0  0  0  0  0  0  0  0  0  0
   -4.5132   13.2816   -6.4664 H   0  0  0  0  0  0  0  0  0  0  0  0
   -2.6683    9.7485   -8.0357 H   0  0  0  0  0  0  0  0  0  0  0  0
   -4.9092    8.7863   -8.4943 H   0  0  0  0  0  0  0  0  0  0  0  0
   -2.4090   14.2148   -6.1776 H   0  0  0  0  0  0  0  0  0  0  0  0
   -0.6475   10.5464   -7.5511 H   0  0  0  0  0  0  0  0  0  0  0  0
    1.4812   14.2962   -6.0855 H   0  0  0  0  0  0  0  0  0  0  0  0
    0.2196   15.4369   -6.6628 H   0  0  0  0  0  0  0  0  0  0  0  0
    0.1886   14.8468   -4.9665 H   0  0  0  0  0  0  0  0  0  0  0  0
   -5.2882   14.1185  -10.2095 H   0  0  0  0  0  0  0  0  0  0  0  0
   -4.0431   13.0269  -10.9057 H   0  0  0  0  0  0  0  0  0  0  0  0
   -3.9735   15.4217  -12.4385 H   0  0  0  0  0  0  0  0  0  0  0  0
   -4.0914   15.9235  -10.7178 H   0  0  0  0  0  0  0  0  0  0  0  0
   -1.7243   15.2430  -11.9952 H   0  0  0  0  0  0  0  0  0  0  0  0
   -0.0031   13.9147   -9.0666 H   0  0  0  0  0  0  0  0  0  0  0  0
    0.0973   13.7152  -10.8489 H   0  0  0  0  0  0  0  0  0  0  0  0
    0.1416   15.3586  -10.1252 H   0  0  0  0  0  0  0  0  0  0  0  0
  1  2  1  0  0  0  0
  1  4  1  0  0  0  0
  1 11  2  0  0  0  0
  2  6  1  0  0  0  0
  3  4  2  0  0  0  0
  3  5  1  0  0  0  0
  5  6  1  0  0  0  0
  5  9  2  0  0  0  0
  6  7  2  0  0  0  0
  7  8  1  0  0  0  0
  7 10  1  0  0  0  0
  8  9  1  0  0  0  0
 10 12  1  0  0  0  0
 11 24  1  0  0  0  0
 12 13  2  0  0  0  0
 12 17  1  0  0  0  0
 13 14  1  0  0  0  0
 14 15  2  0  0  0  0
 15 16  1  0  0  0  0
 15 18  1  0  0  0  0
 16 17  2  0  0  0  0
 18 19  2  0  0  0  0
 18 22  1  0  0  0  0
 19 20  1  0  0  0  0
 20 21  1  0  0  0  0
 20 23  1  0  0  0  0
 21 22  2  0  0  0  0
 24 25  1  0  0  0  0
 25 26  1  0  0  0  0
 26 27  1  0  0  0  0
 27 28  2  0  0  0  0
 27 29  1  0  0  0  0
  2 30  1  0  0  0  0
  2 31  1  0  0  0  0
  3 32  1  0  0  0  0
  4 33  1  0  0  0  0
  8 34  1  0  0  0  0
 10 35  1  0  0  0  0
 10 36  1  0  0  0  0
 13 37  1  0  0  0  0
 14 38  1  0  0  0  0
 16 39  1  0  0  0  0
 17 40  1  0  0  0  0
 19 41  1  0  0  0  0
 22 42  1  0  0  0  0
 23 43  1  0  0  0  0
 23 44  1  0  0  0  0
 23 45  1  0  0  0  0
 24 46  1  0  0  0  0
 24 47  1  0  0  0  0
 25 48  1  0  0  0  0
 25 49  1  0  0  0  0
 26 50  1  0  0  0  0
 29 51  1  0  0  0  0
 29 52  1  0  0  0  0
 29 53  1  0  0  0  0
M  END
> <Name>
27

> <IC50[uM]>
0.68

$$$$
27
  -OEChem-05192314333D
 Structure written by MMmdl.
 53 56  0     0  0  0  0  0  0999 V2000
   -6.3855   12.3606  -12.0031 C   0  0  0  0  0  0  0  0  0  0  0  0
   -6.5214   11.8004  -10.7171 C   0  0  0  0  0  0  0  0  0  0  0  0
   -7.6991   10.5797  -13.0384 C   0  0  0  0  0  0  0  0  0  0  0  0
   -6.9626   11.7779  -13.1031 C   0  0  0  0  0  0  0  0  0  0  0  0
   -7.8238   10.0198  -11.7523 C   0  0  0  0  0  0  0  0  0  0  0  0
   -7.2557   10.6213  -10.5956 C   0  0  0  0  0  0  0  0  0  0  0  0
   -7.6268    9.7501   -9.5073 C   0  0  0  0  0  0  0  0  0  0  0  0
   -8.3057    8.7491   -9.9816 N   0  0  0  0  0  0  0  0  0  0  0  0
   -8.4330    8.8776  -11.2917 N   0  0  0  0  0  0  0  0  0  0  0  0
   -7.3352    9.8817   -8.0196 C   0  0  0  0  0  0  0  0  0  0  0  0
   -5.6205   13.5372  -12.2095 N   0  0  0  0  0  0  0  0  0  0  0  0
   -5.9727   10.4835   -7.7324 C   0  0  0  0  0  0  0  0  0  0  0  0
   -5.8611   11.7523   -7.1657 C   0  0  0  0  0  0  0  0  0  0  0  0
   -4.5946   12.2988   -6.9068 C   0  0  0  0  0  0  0  0  0  0  0  0
   -3.4432   11.5806   -7.2147 C   0  0  0  0  0  0  0  0  0  0  0  0
   -3.5570   10.3109   -7.7899 C   0  0  0  0  0  0  0  0  0  0  0  0
   -4.8253    9.7663   -8.0483 C   0  0  0  0  0  0  0  0  0  0  0  0
   -2.0926   12.1556   -6.9444 C   0  0  0  0  0  0  0  0  0  0  0  0
   -1.7338   13.4204   -6.4594 C   0  0  0  0  0  0  0  0  0  0  0  0
   -0.4064   13.4584   -6.4114 N   0  0  0  0  0  0  0  0  0  0  0  0
    0.1793   12.3493   -6.7865 N   0  0  0  0  0  0  0  0  0  0  0  0
   -0.7954   11.5387   -7.1512 C   0  0  0  0  0  0  0  0  0  0  0  0
    0.4205   14.5767   -6.0073 C   0  0  0  0  0  0  0  0  0  0  0  0
   -4.6894   13.8945  -11.1046 C   0  0  0  0  0  0  0  0  0  0  0  0
   -3.7822   15.1171  -11.3990 C   0  0  0  0  0  0  0  0  0  0  0  0
   -2.3310   14.9579  -11.2532 N   0  0  0  0  0  0  0  0  0  0  0  0
   -1.8099   14.4326  -10.1320 C   0  0  0  0  0  0  0  0  0  0  0  0
   -2.5019   14.0442   -9.2076 O   0  0  0  0  0  0  0  0  0  0  0  0
   -0.2869   14.3494  -10.0364 C   0  0  0  0  0  0  0  0  0  0  0  0
   -5.5086   11.5965  -10.3394 H   0  0  0  0  0  0  0  0  0  0  0  0
   -7.0053   12.5553  -10.0799 H   0  0  0  0  0  0  0  0  0  0  0  0
   -8.1374   10.1224  -13.9131 H   0  0  0  0  0  0  0  0  0  0  0  0
   -6.8466   12.2604  -14.0624 H   0  0  0  0  0  0  0  0  0  0  0  0
   -8.9138    8.2235  -11.8756 H   0  0  0  0  0  0  0  0  0  0  0  0
   -8.1046   10.5248   -7.5674 H   0  0  0  0  0  0  0  0  0  0  0  0
   -7.3794    8.8814   -7.5641 H   0  0  0  0  0  0  0  0  0  0  0  0
   -6.7507   12.3156   -6.9255 H   0  0  0  0  0  0  0  0  0  0  0  0
   -4.5132   13.2816   -6.4664 H   0  0  0  0  0  0  0  0  0  0  0  0
   -2.6683    9.7485   -8.0357 H   0  0  0  0  0  0  0  0  0  0  0  0
   -4.9092    8.7863   -8.4943 H   0  0  0  0  0  0  0  0  0  0  0  0
   -2.4090   14.2148   -6.1776 H   0  0  0  0  0  0  0  0  0  0  0  0
   -0.6475   10.5464   -7.5511 H   0  0  0  0  0  0  0  0  0  0  0  0
    1.4812   14.2962   -6.0855 H   0  0  0  0  0  0  0  0  0  0  0  0
    0.2196   15.4369   -6.6628 H   0  0  0  0  0  0  0  0  0  0  0  0
    0.1886   14.8468   -4.9665 H   0  0  0  0  0  0  0  0  0  0  0  0
   -5.2882   14.1185  -10.2095 H   0  0  0  0  0  0  0  0  0  0  0  0
   -4.0431   13.0269  -10.9057 H   0  0  0  0  0  0  0  0  0  0  0  0
   -3.9735   15.4217  -12.4385 H   0  0  0  0  0  0  0  0  0  0  0  0
   -4.0914   15.9235  -10.7178 H   0  0  0  0  0  0  0  0  0  0  0  0
   -1.7243   15.2430  -11.9952 H   0  0  0  0  0  0  0  0  0  0  0  0
   -0.0031   13.9147   -9.0666 H   0  0  0  0  0  0  0  0  0  0  0  0
    0.0973   13.7152  -10.8489 H   0  0  0  0  0  0  0  0  0  0  0  0
    0.1416   15.3586  -10.1252 H   0  0  0  0  0  0  0  0  0  0  0  0
  1  2  1  0  0  0  0
  1  4  1  0  0  0  0
  1 11  2  0  0  0  0
  2  6  1  0  0  0  0
  3  4  2  0  0  0  0
  3  5  1  0  0  0  0
  5  6  2  0  0  0  0
  5  9  1  0  0  0  0
  6  7  1  0  0  0  0
  7  8  2  0  0  0  0
  7 10  1  0  0  0  0
  8  9  1  0  0  0  0
 10 12  1  0  0  0  0
 11 24  1  0  0  0  0
 12 13  2  0  0  0  0
 12 17  1  0  0  0  0
 13 14  1  0  0  0  0
 14 15  2  0  0  0  0
 15 16  1  0  0  0  0
 15 18  1  0  0  0  0
 16 17  2  0  0  0  0
 18 19  2  0  0  0  0
 18 22  1  0  0  0  0
 19 20  1  0  0  0  0
 20 21  1  0  0  0  0
 20 23  1  0  0  0  0
 21 22  2  0  0  0  0
 24 25  1  0  0  0  0
 25 26  1  0  0  0  0
 26 27  1  0  0  0  0
 27 28  2  0  0  0  0
 27 29  1  0  0  0  0
  2 30  1  0  0  0  0
  2 31  1  0  0  0  0
  3 32  1  0  0  0  0
  4 33  1  0  0  0  0
  9 34  1  0  0  0  0
 10 35  1  0  0  0  0
 10 36  1  0  0  0  0
 13 37  1  0  0  0  0
 14 38  1  0  0  0  0
 16 39  1  0  0  0  0
 17 40  1  0  0  0  0
 19 41  1  0  0  0  0
 22 42  1  0  0  0  0
 23 43  1  0  0  0  0
 23 44  1  0  0  0  0
 23 45  1  0  0  0  0
 24 46  1  0  0  0  0
 24 47  1  0  0  0  0
 25 48  1  0  0  0  0
 25 49  1  0  0  0  0
 26 50  1  0  0  0  0
 29 51  1  0  0  0  0
 29 52  1  0  0  0  0
 29 53  1  0  0  0  0
M  END
> <Name>
27

> <IC50[uM]>
0.68

$$$$
27
  -OEChem-05192314333D
 Structure written by MMmdl.
 53 56  0     0  0  0  0  0  0999 V2000
   -6.3855   12.3606  -12.0031 C   0  0  0  0  0  0  0  0  0  0  0  0
   -6.5214   11.8004  -10.7171 C   0  0  0  0  0  0  0  0  0  0  0  0
   -7.6991   10.5797  -13.0384 C   0  0  0  0  0  0  0  0  0  0  0  0
   -6.9626   11.7779  -13.1031 C   0  0  0  0  0  0  0  0  0  0  0  0
   -7.8238   10.0198  -11.7523 C   0  0  0  0  0  0  0  0  0  0  0  0
   -7.2557   10.6213  -10.5956 C   0  0  0  0  0  0  0  0  0  0  0  0
   -7.6268    9.7501   -9.5073 C   0  0  0  0  0  0  0  0  0  0  0  0
   -8.3057    8.7491   -9.9816 N   0  0  0  0  0  0  0  0  0  0  0  0
   -8.4330    8.8776  -11.2917 N   0  0  0  0  0  0  0  0  0  0  0  0
   -7.3352    9.8817   -8.0196 C   0  0  0  0  0  0  0  0  0  0  0  0
   -5.6205   13.5372  -12.2095 N   0  0  0  0  0  0  0  0  0  0  0  0
   -5.9727   10.4835   -7.7324 C   0  0  0  0  0  0  0  0  0  0  0  0
   -5.8611   11.7523   -7.1657 C   0  0  0  0  0  0  0  0  0  0  0  0
   -4.5946   12.2988   -6.9068 C   0  0  0  0  0  0  0  0  0  0  0  0
   -3.4432   11.5806   -7.2147 C   0  0  0  0  0  0  0  0  0  0  0  0
   -3.5570   10.3109   -7.7899 C   0  0  0  0  0  0  0  0  0  0  0  0
   -4.8253    9.7663   -8.0483 C   0  0  0  0  0  0  0  0  0  0  0  0
   -2.0926   12.1556   -6.9444 C   0  0  0  0  0  0  0  0  0  0  0  0
   -1.7338   13.4204   -6.4594 C   0  0  0  0  0  0  0  0  0  0  0  0
   -0.4064   13.4584   -6.4114 N   0  0  0  0  0  0  0  0  0  0  0  0
    0.1793   12.3493   -6.7865 N   0  0  0  0  0  0  0  0  0  0  0  0
   -0.7954   11.5387   -7.1512 C   0  0  0  0  0  0  0  0  0  0  0  0
    0.4205   14.5767   -6.0073 C   0  0  0  0  0  0  0  0  0  0  0  0
   -4.6894   13.8945  -11.1046 C   0  0  0  0  0  0  0  0  0  0  0  0
   -3.7822   15.1171  -11.3990 C   0  0  0  0  0  0  0  0  0  0  0  0
   -2.3310   14.9579  -11.2532 N   0  0  0  0  0  0  0  0  0  0  0  0
   -1.8099   14.4326  -10.1320 C   0  0  0  0  0  0  0  0  0  0  0  0
   -2.5019   14.0442   -9.2076 O   0  0  0  0  0  0  0  0  0  0  0  0
   -0.2869   14.3494  -10.0364 C   0  0  0  0  0  0  0  0  0  0  0  0
   -5.5086   11.5965  -10.3394 H   0  0  0  0  0  0  0  0  0  0  0  0
   -7.0053   12.5553  -10.0799 H   0  0  0  0  0  0  0  0  0  0  0  0
   -8.1374   10.1224  -13.9131 H   0  0  0  0  0  0  0  0  0  0  0  0
   -6.8466   12.2604  -14.0624 H   0  0  0  0  0  0  0  0  0  0  0  0
   -8.6759    7.9956   -9.4383 H   0  0  0  0  0  0  0  0  0  0  0  0
   -8.1046   10.5248   -7.5674 H   0  0  0  0  0  0  0  0  0  0  0  0
   -7.3794    8.8814   -7.5641 H   0  0  0  0  0  0  0  0  0  0  0  0
   -6.7507   12.3156   -6.9255 H   0  0  0  0  0  0  0  0  0  0  0  0
   -4.5132   13.2816   -6.4664 H   0  0  0  0  0  0  0  0  0  0  0  0
   -2.6683    9.7485   -8.0357 H   0  0  0  0  0  0  0  0  0  0  0  0
   -4.9092    8.7863   -8.4943 H   0  0  0  0  0  0  0  0  0  0  0  0
   -2.4090   14.2148   -6.1776 H   0  0  0  0  0  0  0  0  0  0  0  0
   -0.6475   10.5464   -7.5511 H   0  0  0  0  0  0  0  0  0  0  0  0
    1.4812   14.2962   -6.0855 H   0  0  0  0  0  0  0  0  0  0  0  0
    0.2196   15.4369   -6.6628 H   0  0  0  0  0  0  0  0  0  0  0  0
    0.1886   14.8468   -4.9665 H   0  0  0  0  0  0  0  0  0  0  0  0
   -5.2882   14.1185  -10.2095 H   0  0  0  0  0  0  0  0  0  0  0  0
   -4.0431   13.0269  -10.9057 H   0  0  0  0  0  0  0  0  0  0  0  0
   -3.9735   15.4217  -12.4385 H   0  0  0  0  0  0  0  0  0  0  0  0
   -4.0914   15.9235  -10.7178 H   0  0  0  0  0  0  0  0  0  0  0  0
   -1.9457   13.7098   -8.5138 H   0  0  0  0  0  0  0  0  0  0  0  0
   -0.0034   13.9020   -9.0723 H   0  0  0  0  0  0  0  0  0  0  0  0
    0.0984   13.7264  -10.8570 H   0  0  0  0  0  0  0  0  0  0  0  0
    0.1408   15.3601  -10.1114 H   0  0  0  0  0  0  0  0  0  0  0  0
  1  2  1  0  0  0  0
  1  4  1  0  0  0  0
  1 11  2  0  0  0  0
  2  6  1  0  0  0  0
  3  4  2  0  0  0  0
  3  5  1  0  0  0  0
  5  6  1  0  0  0  0
  5  9  2  0  0  0  0
  6  7  2  0  0  0  0
  7  8  1  0  0  0  0
  7 10  1  0  0  0  0
  8  9  1  0  0  0  0
 10 12  1  0  0  0  0
 11 24  1  0  0  0  0
 12 13  2  0  0  0  0
 12 17  1  0  0  0  0
 13 14  1  0  0  0  0
 14 15  2  0  0  0  0
 15 16  1  0  0  0  0
 15 18  1  0  0  0  0
 16 17  2  0  0  0  0
 18 19  2  0  0  0  0
 18 22  1  0  0  0  0
 19 20  1  0  0  0  0
 20 21  1  0  0  0  0
 20 23  1  0  0  0  0
 21 22  2  0  0  0  0
 24 25  1  0  0  0  0
 25 26  1  0  0  0  0
 26 27  2  0  0  0  0
 27 28  1  0  0  0  0
 27 29  1  0  0  0  0
  2 30  1  0  0  0  0
  2 31  1  0  0  0  0
  3 32  1  0  0  0  0
  4 33  1  0  0  0  0
  8 34  1  0  0  0  0
 10 35  1  0  0  0  0
 10 36  1  0  0  0  0
 13 37  1  0  0  0  0
 14 38  1  0  0  0  0
 16 39  1  0  0  0  0
 17 40  1  0  0  0  0
 19 41  1  0  0  0  0
 22 42  1  0  0  0  0
 23 43  1  0  0  0  0
 23 44  1  0  0  0  0
 23 45  1  0  0  0  0
 24 46  1  0  0  0  0
 24 47  1  0  0  0  0
 25 48  1  0  0  0  0
 25 49  1  0  0  0  0
 28 50  1  0  0  0  0
 29 51  1  0  0  0  0
 29 52  1  0  0  0  0
 29 53  1  0  0  0  0
M  END
> <Name>
27

> <IC50[uM]>
0.68

$$$$
27
  -OEChem-05192314333D
 Structure written by MMmdl.
 53 56  0     0  0  0  0  0  0999 V2000
   -6.3855   12.3606  -12.0031 C   0  0  0  0  0  0  0  0  0  0  0  0
   -6.5214   11.8004  -10.7171 C   0  0  0  0  0  0  0  0  0  0  0  0
   -7.6991   10.5797  -13.0384 C   0  0  0  0  0  0  0  0  0  0  0  0
   -6.9626   11.7779  -13.1031 C   0  0  0  0  0  0  0  0  0  0  0  0
   -7.8238   10.0198  -11.7523 C   0  0  0  0  0  0  0  0  0  0  0  0
   -7.2557   10.6213  -10.5956 C   0  0  0  0  0  0  0  0  0  0  0  0
   -7.6268    9.7501   -9.5073 C   0  0  0  0  0  0  0  0  0  0  0  0
   -8.3057    8.7491   -9.9816 N   0  0  0  0  0  0  0  0  0  0  0  0
   -8.4330    8.8776  -11.2917 N   0  0  0  0  0  0  0  0  0  0  0  0
   -7.3352    9.8817   -8.0196 C   0  0  0  0  0  0  0  0  0  0  0  0
   -5.6205   13.5372  -12.2095 N   0  0  0  0  0  0  0  0  0  0  0  0
   -5.9727   10.4835   -7.7324 C   0  0  0  0  0  0  0  0  0  0  0  0
   -5.8611   11.7523   -7.1657 C   0  0  0  0  0  0  0  0  0  0  0  0
   -4.5946   12.2988   -6.9068 C   0  0  0  0  0  0  0  0  0  0  0  0
   -3.4432   11.5806   -7.2147 C   0  0  0  0  0  0  0  0  0  0  0  0
   -3.5570   10.3109   -7.7899 C   0  0  0  0  0  0  0  0  0  0  0  0
   -4.8253    9.7663   -8.0483 C   0  0  0  0  0  0  0  0  0  0  0  0
   -2.0926   12.1556   -6.9444 C   0  0  0  0  0  0  0  0  0  0  0  0
   -1.7338   13.4204   -6.4594 C   0  0  0  0  0  0  0  0  0  0  0  0
   -0.4064   13.4584   -6.4114 N   0  0  0  0  0  0  0  0  0  0  0  0
    0.1793   12.3493   -6.7865 N   0  0  0  0  0  0  0  0  0  0  0  0
   -0.7954   11.5387   -7.1512 C   0  0  0  0  0  0  0  0  0  0  0  0
    0.4205   14.5767   -6.0073 C   0  0  0  0  0  0  0  0  0  0  0  0
   -4.6894   13.8945  -11.1046 C   0  0  0  0  0  0  0  0  0  0  0  0
   -3.7822   15.1171  -11.3990 C   0  0  0  0  0  0  0  0  0  0  0  0
   -2.3310   14.9579  -11.2532 N   0  0  0  0  0  0  0  0  0  0  0  0
   -1.8099   14.4326  -10.1320 C   0  0  0  0  0  0  0  0  0  0  0  0
   -2.5019   14.0442   -9.2076 O   0  0  0  0  0  0  0  0  0  0  0  0
   -0.2869   14.3494  -10.0364 C   0  0  0  0  0  0  0  0  0  0  0  0
   -5.5086   11.5965  -10.3394 H   0  0  0  0  0  0  0  0  0  0  0  0
   -7.0053   12.5553  -10.0799 H   0  0  0  0  0  0  0  0  0  0  0  0
   -8.1374   10.1224  -13.9131 H   0  0  0  0  0  0  0  0  0  0  0  0
   -6.8466   12.2604  -14.0624 H   0  0  0  0  0  0  0  0  0  0  0  0
   -8.9138    8.2235  -11.8756 H   0  0  0  0  0  0  0  0  0  0  0  0
   -8.1046   10.5248   -7.5674 H   0  0  0  0  0  0  0  0  0  0  0  0
   -7.3794    8.8814   -7.5641 H   0  0  0  0  0  0  0  0  0  0  0  0
   -6.7507   12.3156   -6.9255 H   0  0  0  0  0  0  0  0  0  0  0  0
   -4.5132   13.2816   -6.4664 H   0  0  0  0  0  0  0  0  0  0  0  0
   -2.6683    9.7485   -8.0357 H   0  0  0  0  0  0  0  0  0  0  0  0
   -4.9092    8.7863   -8.4943 H   0  0  0  0  0  0  0  0  0  0  0  0
   -2.4090   14.2148   -6.1776 H   0  0  0  0  0  0  0  0  0  0  0  0
   -0.6475   10.5464   -7.5511 H   0  0  0  0  0  0  0  0  0  0  0  0
    1.4812   14.2962   -6.0855 H   0  0  0  0  0  0  0  0  0  0  0  0
    0.2196   15.4369   -6.6628 H   0  0  0  0  0  0  0  0  0  0  0  0
    0.1886   14.8468   -4.9665 H   0  0  0  0  0  0  0  0  0  0  0  0
   -5.2882   14.1185  -10.2095 H   0  0  0  0  0  0  0  0  0  0  0  0
   -4.0431   13.0269  -10.9057 H   0  0  0  0  0  0  0  0  0  0  0  0
   -3.9735   15.4217  -12.4385 H   0  0  0  0  0  0  0  0  0  0  0  0
   -4.0914   15.9235  -10.7178 H   0  0  0  0  0  0  0  0  0  0  0  0
   -1.9457   13.7098   -8.5138 H   0  0  0  0  0  0  0  0  0  0  0  0
   -0.0034   13.9020   -9.0723 H   0  0  0  0  0  0  0  0  0  0  0  0
    0.0984   13.7264  -10.8570 H   0  0  0  0  0  0  0  0  0  0  0  0
    0.1408   15.3601  -10.1114 H   0  0  0  0  0  0  0  0  0  0  0  0
  1  2  1  0  0  0  0
  1  4  1  0  0  0  0
  1 11  2  0  0  0  0
  2  6  1  0  0  0  0
  3  4  2  0  0  0  0
  3  5  1  0  0  0  0
  5  6  2  0  0  0  0
  5  9  1  0  0  0  0
  6  7  1  0  0  0  0
  7  8  2  0  0  0  0
  7 10  1  0  0  0  0
  8  9  1  0  0  0  0
 10 12  1  0  0  0  0
 11 24  1  0  0  0  0
 12 13  2  0  0  0  0
 12 17  1  0  0  0  0
 13 14  1  0  0  0  0
 14 15  2  0  0  0  0
 15 16  1  0  0  0  0
 15 18  1  0  0  0  0
 16 17  2  0  0  0  0
 18 19  2  0  0  0  0
 18 22  1  0  0  0  0
 19 20  1  0  0  0  0
 20 21  1  0  0  0  0
 20 23  1  0  0  0  0
 21 22  2  0  0  0  0
 24 25  1  0  0  0  0
 25 26  1  0  0  0  0
 26 27  2  0  0  0  0
 27 28  1  0  0  0  0
 27 29  1  0  0  0  0
  2 30  1  0  0  0  0
  2 31  1  0  0  0  0
  3 32  1  0  0  0  0
  4 33  1  0  0  0  0
  9 34  1  0  0  0  0
 10 35  1  0  0  0  0
 10 36  1  0  0  0  0
 13 37  1  0  0  0  0
 14 38  1  0  0  0  0
 16 39  1  0  0  0  0
 17 40  1  0  0  0  0
 19 41  1  0  0  0  0
 22 42  1  0  0  0  0
 23 43  1  0  0  0  0
 23 44  1  0  0  0  0
 23 45  1  0  0  0  0
 24 46  1  0  0  0  0
 24 47  1  0  0  0  0
 25 48  1  0  0  0  0
 25 49  1  0  0  0  0
 28 50  1  0  0  0  0
 29 51  1  0  0  0  0
 29 52  1  0  0  0  0
 29 53  1  0  0  0  0
M  END
> <Name>
27

> <IC50[uM]>
0.68

$$$$
27
  -OEChem-05192314333D
 Structure written by MMmdl.
 53 56  0     0  0  0  0  0  0999 V2000
   -6.3855   12.3606  -12.0031 C   0  0  0  0  0  0  0  0  0  0  0  0
   -6.5214   11.8004  -10.7171 C   0  0  0  0  0  0  0  0  0  0  0  0
   -7.6991   10.5797  -13.0384 C   0  0  0  0  0  0  0  0  0  0  0  0
   -6.9626   11.7779  -13.1031 C   0  0  0  0  0  0  0  0  0  0  0  0
   -7.8238   10.0198  -11.7523 C   0  0  0  0  0  0  0  0  0  0  0  0
   -7.2557   10.6213  -10.5956 C   0  0  0  0  0  0  0  0  0  0  0  0
   -7.6268    9.7501   -9.5073 C   0  0  0  0  0  0  0  0  0  0  0  0
   -8.3057    8.7491   -9.9816 N   0  0  0  0  0  0  0  0  0  0  0  0
   -8.4330    8.8776  -11.2917 N   0  0  0  0  0  0  0  0  0  0  0  0
   -7.3352    9.8817   -8.0196 C   0  0  0  0  0  0  0  0  0  0  0  0
   -5.6205   13.5372  -12.2095 N   0  0  0  0  0  0  0  0  0  0  0  0
   -5.9727   10.4835   -7.7324 C   0  0  0  0  0  0  0  0  0  0  0  0
   -5.8611   11.7523   -7.1657 C   0  0  0  0  0  0  0  0  0  0  0  0
   -4.5946   12.2988   -6.9068 C   0  0  0  0  0  0  0  0  0  0  0  0
   -3.4432   11.5806   -7.2147 C   0  0  0  0  0  0  0  0  0  0  0  0
   -3.5570   10.3109   -7.7899 C   0  0  0  0  0  0  0  0  0  0  0  0
   -4.8253    9.7663   -8.0483 C   0  0  0  0  0  0  0  0  0  0  0  0
   -2.0926   12.1556   -6.9444 C   0  0  0  0  0  0  0  0  0  0  0  0
   -1.7338   13.4204   -6.4594 C   0  0  0  0  0  0  0  0  0  0  0  0
   -0.4064   13.4584   -6.4114 N   0  0  0  0  0  0  0  0  0  0  0  0
    0.1793   12.3493   -6.7865 N   0  0  0  0  0  0  0  0  0  0  0  0
   -0.7954   11.5387   -7.1512 C   0  0  0  0  0  0  0  0  0  0  0  0
    0.4205   14.5767   -6.0073 C   0  0  0  0  0  0  0  0  0  0  0  0
   -4.6894   13.8945  -11.1046 C   0  0  0  0  0  0  0  0  0  0  0  0
   -3.7822   15.1171  -11.3990 C   0  0  0  0  0  0  0  0  0  0  0  0
   -2.3310   14.9579  -11.2532 N   0  0  0  0  0  0  0  0  0  0  0  0
   -1.8099   14.4326  -10.1320 C   0  0  0  0  0  0  0  0  0  0  0  0
   -2.5019   14.0442   -9.2076 O   0  0  0  0  0  0  0  0  0  0  0  0
   -0.2869   14.3494  -10.0364 C   0  0  0  0  0  0  0  0  0  0  0  0
   -6.0716   12.2689   -9.8542 H   0  0  0  0  0  0  0  0  0  0  0  0
   -8.7105   10.7812  -13.4211 H   0  0  0  0  0  0  0  0  0  0  0  0
   -7.2031    9.8404  -13.6845 H   0  0  0  0  0  0  0  0  0  0  0  0
   -7.6459   12.5314  -13.5218 H   0  0  0  0  0  0  0  0  0  0  0  0
   -6.1429   11.5918  -13.8126 H   0  0  0  0  0  0  0  0  0  0  0  0
   -8.6759    7.9956   -9.4383 H   0  0  0  0  0  0  0  0  0  0  0  0
   -8.0269    9.5780   -7.2478 H   0  0  0  0  0  0  0  0  0  0  0  0
   -6.7507   12.3156   -6.9255 H   0  0  0  0  0  0  0  0  0  0  0  0
   -4.5132   13.2816   -6.4664 H   0  0  0  0  0  0  0  0  0  0  0  0
   -2.6683    9.7485   -8.0357 H   0  0  0  0  0  0  0  0  0  0  0  0
   -4.9092    8.7863   -8.4943 H   0  0  0  0  0  0  0  0  0  0  0  0
   -2.4090   14.2148   -6.1776 H   0  0  0  0  0  0  0  0  0  0  0  0
   -0.6475   10.5464   -7.5511 H   0  0  0  0  0  0  0  0  0  0  0  0
    1.4812   14.2962   -6.0855 H   0  0  0  0  0  0  0  0  0  0  0  0
    0.2196   15.4369   -6.6628 H   0  0  0  0  0  0  0  0  0  0  0  0
    0.1886   14.8468   -4.9665 H   0  0  0  0  0  0  0  0  0  0  0  0
   -5.2882   14.1185  -10.2095 H   0  0  0  0  0  0  0  0  0  0  0  0
   -4.0431   13.0269  -10.9057 H   0  0  0  0  0  0  0  0  0  0  0  0
   -3.9735   15.4217  -12.4385 H   0  0  0  0  0  0  0  0  0  0  0  0
   -4.0914   15.9235  -10.7178 H   0  0  0  0  0  0  0  0  0  0  0  0
   -1.7243   15.2430  -11.9952 H   0  0  0  0  0  0  0  0  0  0  0  0
   -0.0031   13.9147   -9.0666 H   0  0  0  0  0  0  0  0  0  0  0  0
    0.0973   13.7152  -10.8489 H   0  0  0  0  0  0  0  0  0  0  0  0
    0.1416   15.3586  -10.1252 H   0  0  0  0  0  0  0  0  0  0  0  0
  1  2  1  0  0  0  0
  1  4  1  0  0  0  0
  1 11  2  0  0  0  0
  2  6  2  0  0  0  0
  3  4  1  0  0  0  0
  3  5  1  0  0  0  0
  5  6  1  0  0  0  0
  5  9  2  0  0  0  0
  6  7  1  0  0  0  0
  7  8  1  0  0  0  0
  7 10  2  3  0  0  0
  8  9  1  0  0  0  0
 10 12  1  0  0  0  0
 11 24  1  0  0  0  0
 12 13  2  0  0  0  0
 12 17  1  0  0  0  0
 13 14  1  0  0  0  0
 14 15  2  0  0  0  0
 15 16  1  0  0  0  0
 15 18  1  0  0  0  0
 16 17  2  0  0  0  0
 18 19  2  0  0  0  0
 18 22  1  0  0  0  0
 19 20  1  0  0  0  0
 20 21  1  0  0  0  0
 20 23  1  0  0  0  0
 21 22  2  0  0  0  0
 24 25  1  0  0  0  0
 25 26  1  0  0  0  0
 26 27  1  0  0  0  0
 27 28  2  0  0  0  0
 27 29  1  0  0  0  0
  2 30  1  0  0  0  0
  3 31  1  0  0  0  0
  3 32  1  0  0  0  0
  4 33  1  0  0  0  0
  4 34  1  0  0  0  0
  8 35  1  0  0  0  0
 10 36  1  0  0  0  0
 13 37  1  0  0  0  0
 14 38  1  0  0  0  0
 16 39  1  0  0  0  0
 17 40  1  0  0  0  0
 19 41  1  0  0  0  0
 22 42  1  0  0  0  0
 23 43  1  0  0  0  0
 23 44  1  0  0  0  0
 23 45  1  0  0  0  0
 24 46  1  0  0  0  0
 24 47  1  0  0  0  0
 25 48  1  0  0  0  0
 25 49  1  0  0  0  0
 26 50  1  0  0  0  0
 29 51  1  0  0  0  0
 29 52  1  0  0  0  0
 29 53  1  0  0  0  0
M  END
> <Name>
27

> <IC50[uM]>
0.68

$$$$
27
  -OEChem-05192314333D
 Structure written by MMmdl.
 53 56  0     0  0  0  0  0  0999 V2000
   -6.3855   12.3606  -12.0031 C   0  0  0  0  0  0  0  0  0  0  0  0
   -6.5214   11.8004  -10.7171 C   0  0  0  0  0  0  0  0  0  0  0  0
   -7.6991   10.5797  -13.0384 C   0  0  0  0  0  0  0  0  0  0  0  0
   -6.9626   11.7779  -13.1031 C   0  0  0  0  0  0  0  0  0  0  0  0
   -7.8238   10.0198  -11.7523 C   0  0  0  0  0  0  0  0  0  0  0  0
   -7.2557   10.6213  -10.5956 C   0  0  0  0  0  0  0  0  0  0  0  0
   -7.6268    9.7501   -9.5073 C   0  0  0  0  0  0  0  0  0  0  0  0
   -8.3057    8.7491   -9.9816 N   0  0  0  0  0  0  0  0  0  0  0  0
   -8.4330    8.8776  -11.2917 N   0  0  0  0  0  0  0  0  0  0  0  0
   -7.3352    9.8817   -8.0196 C   0  0  0  0  0  0  0  0  0  0  0  0
   -5.6205   13.5372  -12.2095 N   0  0  0  0  0  0  0  0  0  0  0  0
   -5.9727   10.4835   -7.7324 C   0  0  0  0  0  0  0  0  0  0  0  0
   -5.8611   11.7523   -7.1657 C   0  0  0  0  0  0  0  0  0  0  0  0
   -4.5946   12.2988   -6.9068 C   0  0  0  0  0  0  0  0  0  0  0  0
   -3.4432   11.5806   -7.2147 C   0  0  0  0  0  0  0  0  0  0  0  0
   -3.5570   10.3109   -7.7899 C   0  0  0  0  0  0  0  0  0  0  0  0
   -4.8253    9.7663   -8.0483 C   0  0  0  0  0  0  0  0  0  0  0  0
   -2.0926   12.1556   -6.9444 C   0  0  0  0  0  0  0  0  0  0  0  0
   -1.7338   13.4204   -6.4594 C   0  0  0  0  0  0  0  0  0  0  0  0
   -0.4064   13.4584   -6.4114 N   0  0  0  0  0  0  0  0  0  0  0  0
    0.1793   12.3493   -6.7865 N   0  0  0  0  0  0  0  0  0  0  0  0
   -0.7954   11.5387   -7.1512 C   0  0  0  0  0  0  0  0  0  0  0  0
    0.4205   14.5767   -6.0073 C   0  0  0  0  0  0  0  0  0  0  0  0
   -4.6894   13.8945  -11.1046 C   0  0  0  0  0  0  0  0  0  0  0  0
   -3.7822   15.1171  -11.3990 C   0  0  0  0  0  0  0  0  0  0  0  0
   -2.3310   14.9579  -11.2532 N   0  0  0  0  0  0  0  0  0  0  0  0
   -1.8099   14.4326  -10.1320 C   0  0  0  0  0  0  0  0  0  0  0  0
   -2.5019   14.0442   -9.2076 O   0  0  0  0  0  0  0  0  0  0  0  0
   -0.2869   14.3494  -10.0364 C   0  0  0  0  0  0  0  0  0  0  0  0
   -6.0716   12.2689   -9.8542 H   0  0  0  0  0  0  0  0  0  0  0  0
   -8.1374   10.1224  -13.9131 H   0  0  0  0  0  0  0  0  0  0  0  0
   -7.6459   12.5314  -13.5218 H   0  0  0  0  0  0  0  0  0  0  0  0
   -6.1429   11.5918  -13.8126 H   0  0  0  0  0  0  0  0  0  0  0  0
   -8.9138    8.2235  -11.8756 H   0  0  0  0  0  0  0  0  0  0  0  0
   -8.1046   10.5248   -7.5674 H   0  0  0  0  0  0  0  0  0  0  0  0
   -7.3794    8.8814   -7.5641 H   0  0  0  0  0  0  0  0  0  0  0  0
   -6.7507   12.3156   -6.9255 H   0  0  0  0  0  0  0  0  0  0  0  0
   -4.5132   13.2816   -6.4664 H   0  0  0  0  0  0  0  0  0  0  0  0
   -2.6683    9.7485   -8.0357 H   0  0  0  0  0  0  0  0  0  0  0  0
   -4.9092    8.7863   -8.4943 H   0  0  0  0  0  0  0  0  0  0  0  0
   -2.4090   14.2148   -6.1776 H   0  0  0  0  0  0  0  0  0  0  0  0
   -0.6475   10.5464   -7.5511 H   0  0  0  0  0  0  0  0  0  0  0  0
    1.4812   14.2962   -6.0855 H   0  0  0  0  0  0  0  0  0  0  0  0
    0.2196   15.4369   -6.6628 H   0  0  0  0  0  0  0  0  0  0  0  0
    0.1886   14.8468   -4.9665 H   0  0  0  0  0  0  0  0  0  0  0  0
   -5.2882   14.1185  -10.2095 H   0  0  0  0  0  0  0  0  0  0  0  0
   -4.0431   13.0269  -10.9057 H   0  0  0  0  0  0  0  0  0  0  0  0
   -3.9735   15.4217  -12.4385 H   0  0  0  0  0  0  0  0  0  0  0  0
   -4.0914   15.9235  -10.7178 H   0  0  0  0  0  0  0  0  0  0  0  0
   -1.7243   15.2430  -11.9952 H   0  0  0  0  0  0  0  0  0  0  0  0
   -0.0031   13.9147   -9.0666 H   0  0  0  0  0  0  0  0  0  0  0  0
    0.0973   13.7152  -10.8489 H   0  0  0  0  0  0  0  0  0  0  0  0
    0.1416   15.3586  -10.1252 H   0  0  0  0  0  0  0  0  0  0  0  0
  1  2  1  0  0  0  0
  1  4  1  0  0  0  0
  1 11  2  0  0  0  0
  2  6  2  0  0  0  0
  3  4  1  0  0  0  0
  3  5  2  0  0  0  0
  5  6  1  0  0  0  0
  5  9  1  0  0  0  0
  6  7  1  0  0  0  0
  7  8  2  0  0  0  0
  7 10  1  0  0  0  0
  8  9  1  0  0  0  0
 10 12  1  0  0  0  0
 11 24  1  0  0  0  0
 12 13  2  0  0  0  0
 12 17  1  0  0  0  0
 13 14  1  0  0  0  0
 14 15  2  0  0  0  0
 15 16  1  0  0  0  0
 15 18  1  0  0  0  0
 16 17  2  0  0  0  0
 18 19  2  0  0  0  0
 18 22  1  0  0  0  0
 19 20  1  0  0  0  0
 20 21  1  0  0  0  0
 20 23  1  0  0  0  0
 21 22  2  0  0  0  0
 24 25  1  0  0  0  0
 25 26  1  0  0  0  0
 26 27  1  0  0  0  0
 27 28  2  0  0  0  0
 27 29  1  0  0  0  0
  2 30  1  0  0  0  0
  3 31  1  0  0  0  0
  4 32  1  0  0  0  0
  4 33  1  0  0  0  0
  9 34  1  0  0  0  0
 10 35  1  0  0  0  0
 10 36  1  0  0  0  0
 13 37  1  0  0  0  0
 14 38  1  0  0  0  0
 16 39  1  0  0  0  0
 17 40  1  0  0  0  0
 19 41  1  0  0  0  0
 22 42  1  0  0  0  0
 23 43  1  0  0  0  0
 23 44  1  0  0  0  0
 23 45  1  0  0  0  0
 24 46  1  0  0  0  0
 24 47  1  0  0  0  0
 25 48  1  0  0  0  0
 25 49  1  0  0  0  0
 26 50  1  0  0  0  0
 29 51  1  0  0  0  0
 29 52  1  0  0  0  0
 29 53  1  0  0  0  0
M  END
> <Name>
27

> <IC50[uM]>
0.68

$$$$
27
  -OEChem-05192314333D
 Structure written by MMmdl.
 53 56  0     0  0  0  0  0  0999 V2000
   -6.3855   12.3606  -12.0031 C   0  0  0  0  0  0  0  0  0  0  0  0
   -6.5214   11.8004  -10.7171 C   0  0  0  0  0  0  0  0  0  0  0  0
   -7.6991   10.5797  -13.0384 C   0  0  0  0  0  0  0  0  0  0  0  0
   -6.9626   11.7779  -13.1031 C   0  0  0  0  0  0  0  0  0  0  0  0
   -7.8238   10.0198  -11.7523 C   0  0  0  0  0  0  0  0  0  0  0  0
   -7.2557   10.6213  -10.5956 C   0  0  0  0  0  0  0  0  0  0  0  0
   -7.6268    9.7501   -9.5073 C   0  0  0  0  0  0  0  0  0  0  0  0
   -8.3057    8.7491   -9.9816 N   0  0  0  0  0  0  0  0  0  0  0  0
   -8.4330    8.8776  -11.2917 N   0  0  0  0  0  0  0  0  0  0  0  0
   -7.3352    9.8817   -8.0196 C   0  0  0  0  0  0  0  0  0  0  0  0
   -5.6205   13.5372  -12.2095 N   0  0  0  0  0  0  0  0  0  0  0  0
   -5.9727   10.4835   -7.7324 C   0  0  0  0  0  0  0  0  0  0  0  0
   -5.8611   11.7523   -7.1657 C   0  0  0  0  0  0  0  0  0  0  0  0
   -4.5946   12.2988   -6.9068 C   0  0  0  0  0  0  0  0  0  0  0  0
   -3.4432   11.5806   -7.2147 C   0  0  0  0  0  0  0  0  0  0  0  0
   -3.5570   10.3109   -7.7899 C   0  0  0  0  0  0  0  0  0  0  0  0
   -4.8253    9.7663   -8.0483 C   0  0  0  0  0  0  0  0  0  0  0  0
   -2.0926   12.1556   -6.9444 C   0  0  0  0  0  0  0  0  0  0  0  0
   -1.7338   13.4204   -6.4594 C   0  0  0  0  0  0  0  0  0  0  0  0
   -0.4064   13.4584   -6.4114 N   0  0  0  0  0  0  0  0  0  0  0  0
    0.1793   12.3493   -6.7865 N   0  0  0  0  0  0  0  0  0  0  0  0
   -0.7954   11.5387   -7.1512 C   0  0  0  0  0  0  0  0  0  0  0  0
    0.4205   14.5767   -6.0073 C   0  0  0  0  0  0  0  0  0  0  0  0
   -4.6894   13.8945  -11.1046 C   0  0  0  0  0  0  0  0  0  0  0  0
   -3.7822   15.1171  -11.3990 C   0  0  0  0  0  0  0  0  0  0  0  0
   -2.3310   14.9579  -11.2532 N   0  0  0  0  0  0  0  0  0  0  0  0
   -1.8099   14.4326  -10.1320 C   0  0  0  0  0  0  0  0  0  0  0  0
   -2.5019   14.0442   -9.2076 O   0  0  0  0  0  0  0  0  0  0  0  0
   -0.2869   14.3494  -10.0364 C   0  0  0  0  0  0  0  0  0  0  0  0
   -6.0716   12.2689   -9.8542 H   0  0  0  0  0  0  0  0  0  0  0  0
   -8.7105   10.7812  -13.4211 H   0  0  0  0  0  0  0  0  0  0  0  0
   -7.2031    9.8404  -13.6845 H   0  0  0  0  0  0  0  0  0  0  0  0
   -7.6459   12.5314  -13.5218 H   0  0  0  0  0  0  0  0  0  0  0  0
   -6.1429   11.5918  -13.8126 H   0  0  0  0  0  0  0  0  0  0  0  0
   -8.6759    7.9956   -9.4383 H   0  0  0  0  0  0  0  0  0  0  0  0
   -8.0269    9.5780   -7.2478 H   0  0  0  0  0  0  0  0  0  0  0  0
   -6.7507   12.3156   -6.9255 H   0  0  0  0  0  0  0  0  0  0  0  0
   -4.5132   13.2816   -6.4664 H   0  0  0  0  0  0  0  0  0  0  0  0
   -2.6683    9.7485   -8.0357 H   0  0  0  0  0  0  0  0  0  0  0  0
   -4.9092    8.7863   -8.4943 H   0  0  0  0  0  0  0  0  0  0  0  0
   -2.4090   14.2148   -6.1776 H   0  0  0  0  0  0  0  0  0  0  0  0
   -0.6475   10.5464   -7.5511 H   0  0  0  0  0  0  0  0  0  0  0  0
    1.4812   14.2962   -6.0855 H   0  0  0  0  0  0  0  0  0  0  0  0
    0.2196   15.4369   -6.6628 H   0  0  0  0  0  0  0  0  0  0  0  0
    0.1886   14.8468   -4.9665 H   0  0  0  0  0  0  0  0  0  0  0  0
   -5.2882   14.1185  -10.2095 H   0  0  0  0  0  0  0  0  0  0  0  0
   -4.0431   13.0269  -10.9057 H   0  0  0  0  0  0  0  0  0  0  0  0
   -3.9735   15.4217  -12.4385 H   0  0  0  0  0  0  0  0  0  0  0  0
   -4.0914   15.9235  -10.7178 H   0  0  0  0  0  0  0  0  0  0  0  0
   -1.9457   13.7098   -8.5138 H   0  0  0  0  0  0  0  0  0  0  0  0
   -0.0034   13.9020   -9.0723 H   0  0  0  0  0  0  0  0  0  0  0  0
    0.0984   13.7264  -10.8570 H   0  0  0  0  0  0  0  0  0  0  0  0
    0.1408   15.3601  -10.1114 H   0  0  0  0  0  0  0  0  0  0  0  0
  1  2  1  0  0  0  0
  1  4  1  0  0  0  0
  1 11  2  0  0  0  0
  2  6  2  0  0  0  0
  3  4  1  0  0  0  0
  3  5  1  0  0  0  0
  5  6  1  0  0  0  0
  5  9  2  0  0  0  0
  6  7  1  0  0  0  0
  7  8  1  0  0  0  0
  7 10  2  3  0  0  0
  8  9  1  0  0  0  0
 10 12  1  0  0  0  0
 11 24  1  0  0  0  0
 12 13  2  0  0  0  0
 12 17  1  0  0  0  0
 13 14  1  0  0  0  0
 14 15  2  0  0  0  0
 15 16  1  0  0  0  0
 15 18  1  0  0  0  0
 16 17  2  0  0  0  0
 18 19  2  0  0  0  0
 18 22  1  0  0  0  0
 19 20  1  0  0  0  0
 20 21  1  0  0  0  0
 20 23  1  0  0  0  0
 21 22  2  0  0  0  0
 24 25  1  0  0  0  0
 25 26  1  0  0  0  0
 26 27  2  0  0  0  0
 27 28  1  0  0  0  0
 27 29  1  0  0  0  0
  2 30  1  0  0  0  0
  3 31  1  0  0  0  0
  3 32  1  0  0  0  0
  4 33  1  0  0  0  0
  4 34  1  0  0  0  0
  8 35  1  0  0  0  0
 10 36  1  0  0  0  0
 13 37  1  0  0  0  0
 14 38  1  0  0  0  0
 16 39  1  0  0  0  0
 17 40  1  0  0  0  0
 19 41  1  0  0  0  0
 22 42  1  0  0  0  0
 23 43  1  0  0  0  0
 23 44  1  0  0  0  0
 23 45  1  0  0  0  0
 24 46  1  0  0  0  0
 24 47  1  0  0  0  0
 25 48  1  0  0  0  0
 25 49  1  0  0  0  0
 28 50  1  0  0  0  0
 29 51  1  0  0  0  0
 29 52  1  0  0  0  0
 29 53  1  0  0  0  0
M  END
> <Name>
27

> <IC50[uM]>
0.68

$$$$
27
  -OEChem-05192314333D
 Structure written by MMmdl.
 53 56  0     0  0  0  0  0  0999 V2000
   -6.3855   12.3606  -12.0031 C   0  0  0  0  0  0  0  0  0  0  0  0
   -6.5214   11.8004  -10.7171 C   0  0  0  0  0  0  0  0  0  0  0  0
   -7.6991   10.5797  -13.0384 C   0  0  0  0  0  0  0  0  0  0  0  0
   -6.9626   11.7779  -13.1031 C   0  0  0  0  0  0  0  0  0  0  0  0
   -7.8238   10.0198  -11.7523 C   0  0  0  0  0  0  0  0  0  0  0  0
   -7.2557   10.6213  -10.5956 C   0  0  0  0  0  0  0  0  0  0  0  0
   -7.6268    9.7501   -9.5073 C   0  0  0  0  0  0  0  0  0  0  0  0
   -8.3057    8.7491   -9.9816 N   0  0  0  0  0  0  0  0  0  0  0  0
   -8.4330    8.8776  -11.2917 N   0  0  0  0  0  0  0  0  0  0  0  0
   -7.3352    9.8817   -8.0196 C   0  0  0  0  0  0  0  0  0  0  0  0
   -5.6205   13.5372  -12.2095 N   0  0  0  0  0  0  0  0  0  0  0  0
   -5.9727   10.4835   -7.7324 C   0  0  0  0  0  0  0  0  0  0  0  0
   -5.8611   11.7523   -7.1657 C   0  0  0  0  0  0  0  0  0  0  0  0
   -4.5946   12.2988   -6.9068 C   0  0  0  0  0  0  0  0  0  0  0  0
   -3.4432   11.5806   -7.2147 C   0  0  0  0  0  0  0  0  0  0  0  0
   -3.5570   10.3109   -7.7899 C   0  0  0  0  0  0  0  0  0  0  0  0
   -4.8253    9.7663   -8.0483 C   0  0  0  0  0  0  0  0  0  0  0  0
   -2.0926   12.1556   -6.9444 C   0  0  0  0  0  0  0  0  0  0  0  0
   -1.7338   13.4204   -6.4594 C   0  0  0  0  0  0  0  0  0  0  0  0
   -0.4064   13.4584   -6.4114 N   0  0  0  0  0  0  0  0  0  0  0  0
    0.1793   12.3493   -6.7865 N   0  0  0  0  0  0  0  0  0  0  0  0
   -0.7954   11.5387   -7.1512 C   0  0  0  0  0  0  0  0  0  0  0  0
    0.4205   14.5767   -6.0073 C   0  0  0  0  0  0  0  0  0  0  0  0
   -4.6894   13.8945  -11.1046 C   0  0  0  0  0  0  0  0  0  0  0  0
   -3.7822   15.1171  -11.3990 C   0  0  0  0  0  0  0  0  0  0  0  0
   -2.3310   14.9579  -11.2532 N   0  0  0  0  0  0  0  0  0  0  0  0
   -1.8099   14.4326  -10.1320 C   0  0  0  0  0  0  0  0  0  0  0  0
   -2.5019   14.0442   -9.2076 O   0  0  0  0  0  0  0  0  0  0  0  0
   -0.2869   14.3494  -10.0364 C   0  0  0  0  0  0  0  0  0  0  0  0
   -6.0716   12.2689   -9.8542 H   0  0  0  0  0  0  0  0  0  0  0  0
   -8.1374   10.1224  -13.9131 H   0  0  0  0  0  0  0  0  0  0  0  0
   -7.6459   12.5314  -13.5218 H   0  0  0  0  0  0  0  0  0  0  0  0
   -6.1429   11.5918  -13.8126 H   0  0  0  0  0  0  0  0  0  0  0  0
   -8.9138    8.2235  -11.8756 H   0  0  0  0  0  0  0  0  0  0  0  0
   -8.1046   10.5248   -7.5674 H   0  0  0  0  0  0  0  0  0  0  0  0
   -7.3794    8.8814   -7.5641 H   0  0  0  0  0  0  0  0  0  0  0  0
   -6.7507   12.3156   -6.9255 H   0  0  0  0  0  0  0  0  0  0  0  0
   -4.5132   13.2816   -6.4664 H   0  0  0  0  0  0  0  0  0  0  0  0
   -2.6683    9.7485   -8.0357 H   0  0  0  0  0  0  0  0  0  0  0  0
   -4.9092    8.7863   -8.4943 H   0  0  0  0  0  0  0  0  0  0  0  0
   -2.4090   14.2148   -6.1776 H   0  0  0  0  0  0  0  0  0  0  0  0
   -0.6475   10.5464   -7.5511 H   0  0  0  0  0  0  0  0  0  0  0  0
    1.4812   14.2962   -6.0855 H   0  0  0  0  0  0  0  0  0  0  0  0
    0.2196   15.4369   -6.6628 H   0  0  0  0  0  0  0  0  0  0  0  0
    0.1886   14.8468   -4.9665 H   0  0  0  0  0  0  0  0  0  0  0  0
   -5.2882   14.1185  -10.2095 H   0  0  0  0  0  0  0  0  0  0  0  0
   -4.0431   13.0269  -10.9057 H   0  0  0  0  0  0  0  0  0  0  0  0
   -3.9735   15.4217  -12.4385 H   0  0  0  0  0  0  0  0  0  0  0  0
   -4.0914   15.9235  -10.7178 H   0  0  0  0  0  0  0  0  0  0  0  0
   -1.9457   13.7098   -8.5138 H   0  0  0  0  0  0  0  0  0  0  0  0
   -0.0034   13.9020   -9.0723 H   0  0  0  0  0  0  0  0  0  0  0  0
    0.0984   13.7264  -10.8570 H   0  0  0  0  0  0  0  0  0  0  0  0
    0.1408   15.3601  -10.1114 H   0  0  0  0  0  0  0  0  0  0  0  0
  1  2  1  0  0  0  0
  1  4  1  0  0  0  0
  1 11  2  0  0  0  0
  2  6  2  0  0  0  0
  3  4  1  0  0  0  0
  3  5  2  0  0  0  0
  5  6  1  0  0  0  0
  5  9  1  0  0  0  0
  6  7  1  0  0  0  0
  7  8  2  0  0  0  0
  7 10  1  0  0  0  0
  8  9  1  0  0  0  0
 10 12  1  0  0  0  0
 11 24  1  0  0  0  0
 12 13  2  0  0  0  0
 12 17  1  0  0  0  0
 13 14  1  0  0  0  0
 14 15  2  0  0  0  0
 15 16  1  0  0  0  0
 15 18  1  0  0  0  0
 16 17  2  0  0  0  0
 18 19  2  0  0  0  0
 18 22  1  0  0  0  0
 19 20  1  0  0  0  0
 20 21  1  0  0  0  0
 20 23  1  0  0  0  0
 21 22  2  0  0  0  0
 24 25  1  0  0  0  0
 25 26  1  0  0  0  0
 26 27  2  0  0  0  0
 27 28  1  0  0  0  0
 27 29  1  0  0  0  0
  2 30  1  0  0  0  0
  3 31  1  0  0  0  0
  4 32  1  0  0  0  0
  4 33  1  0  0  0  0
  9 34  1  0  0  0  0
 10 35  1  0  0  0  0
 10 36  1  0  0  0  0
 13 37  1  0  0  0  0
 14 38  1  0  0  0  0
 16 39  1  0  0  0  0
 17 40  1  0  0  0  0
 19 41  1  0  0  0  0
 22 42  1  0  0  0  0
 23 43  1  0  0  0  0
 23 44  1  0  0  0  0
 23 45  1  0  0  0  0
 24 46  1  0  0  0  0
 24 47  1  0  0  0  0
 25 48  1  0  0  0  0
 25 49  1  0  0  0  0
 28 50  1  0  0  0  0
 29 51  1  0  0  0  0
 29 52  1  0  0  0  0
 29 53  1  0  0  0  0
M  END
> <Name>
27

> <IC50[uM]>
0.68

$$$$
27
  -OEChem-05192314333D
 Structure written by MMmdl.
 53 56  0     1  0  0  0  0  0999 V2000
   -6.3855   12.3606  -12.0031 C   0  0  3  0  0  0  0  0  0  0  0  0
   -6.5214   11.8004  -10.7171 C   0  0  0  0  0  0  0  0  0  0  0  0
   -7.6991   10.5797  -13.0384 C   0  0  0  0  0  0  0  0  0  0  0  0
   -6.9626   11.7779  -13.1031 C   0  0  0  0  0  0  0  0  0  0  0  0
   -7.8238   10.0198  -11.7523 C   0  0  0  0  0  0  0  0  0  0  0  0
   -7.2557   10.6213  -10.5956 C   0  0  0  0  0  0  0  0  0  0  0  0
   -7.6268    9.7501   -9.5073 C   0  0  0  0  0  0  0  0  0  0  0  0
   -8.3057    8.7491   -9.9816 N   0  0  0  0  0  0  0  0  0  0  0  0
   -8.4330    8.8776  -11.2917 N   0  0  0  0  0  0  0  0  0  0  0  0
   -7.3352    9.8817   -8.0196 C   0  0  0  0  0  0  0  0  0  0  0  0
   -5.6205   13.5372  -12.2095 N   0  0  0  0  0  0  0  0  0  0  0  0
   -5.9727   10.4835   -7.7324 C   0  0  0  0  0  0  0  0  0  0  0  0
   -5.8611   11.7523   -7.1657 C   0  0  0  0  0  0  0  0  0  0  0  0
   -4.5946   12.2988   -6.9068 C   0  0  0  0  0  0  0  0  0  0  0  0
   -3.4432   11.5806   -7.2147 C   0  0  0  0  0  0  0  0  0  0  0  0
   -3.5570   10.3109   -7.7899 C   0  0  0  0  0  0  0  0  0  0  0  0
   -4.8253    9.7663   -8.0483 C   0  0  0  0  0  0  0  0  0  0  0  0
   -2.0926   12.1556   -6.9444 C   0  0  0  0  0  0  0  0  0  0  0  0
   -1.7338   13.4204   -6.4594 C   0  0  0  0  0  0  0  0  0  0  0  0
   -0.4064   13.4584   -6.4114 N   0  0  0  0  0  0  0  0  0  0  0  0
    0.1793   12.3493   -6.7865 N   0  0  0  0  0  0  0  0  0  0  0  0
   -0.7954   11.5387   -7.1512 C   0  0  0  0  0  0  0  0  0  0  0  0
    0.4205   14.5767   -6.0073 C   0  0  0  0  0  0  0  0  0  0  0  0
   -4.6894   13.8945  -11.1046 C   0  0  0  0  0  0  0  0  0  0  0  0
   -3.7822   15.1171  -11.3990 C   0  0  0  0  0  0  0  0  0  0  0  0
   -2.3310   14.9579  -11.2532 N   0  0  0  0  0  0  0  0  0  0  0  0
   -1.8099   14.4326  -10.1320 C   0  0  0  0  0  0  0  0  0  0  0  0
   -2.5019   14.0442   -9.2076 O   0  0  0  0  0  0  0  0  0  0  0  0
   -0.2869   14.3494  -10.0364 C   0  0  0  0  0  0  0  0  0  0  0  0
   -7.2886   12.9676  -11.8418 H   0  0  0  0  0  0  0  0  0  0  0  0
   -6.0716   12.2689   -9.8542 H   0  0  0  0  0  0  0  0  0  0  0  0
   -8.1374   10.1224  -13.9131 H   0  0  0  0  0  0  0  0  0  0  0  0
   -6.8466   12.2604  -14.0624 H   0  0  0  0  0  0  0  0  0  0  0  0
   -8.6759    7.9956   -9.4383 H   0  0  0  0  0  0  0  0  0  0  0  0
   -8.0269    9.5780   -7.2478 H   0  0  0  0  0  0  0  0  0  0  0  0
   -5.0791   13.4115  -13.0408 H   0  0  0  0  0  0  0  0  0  0  0  0
   -6.7507   12.3156   -6.9255 H   0  0  0  0  0  0  0  0  0  0  0  0
   -4.5132   13.2816   -6.4664 H   0  0  0  0  0  0  0  0  0  0  0  0
   -2.6683    9.7485   -8.0357 H   0  0  0  0  0  0  0  0  0  0  0  0
   -4.9092    8.7863   -8.4943 H   0  0  0  0  0  0  0  0  0  0  0  0
   -2.4090   14.2148   -6.1776 H   0  0  0  0  0  0  0  0  0  0  0  0
   -0.6475   10.5464   -7.5511 H   0  0  0  0  0  0  0  0  0  0  0  0
    1.4812   14.2962   -6.0855 H   0  0  0  0  0  0  0  0  0  0  0  0
    0.2196   15.4369   -6.6628 H   0  0  0  0  0  0  0  0  0  0  0  0
    0.1886   14.8468   -4.9665 H   0  0  0  0  0  0  0  0  0  0  0  0
   -5.2882   14.1185  -10.2095 H   0  0  0  0  0  0  0  0  0  0  0  0
   -4.0431   13.0269  -10.9057 H   0  0  0  0  0  0  0  0  0  0  0  0
   -3.9735   15.4217  -12.4385 H   0  0  0  0  0  0  0  0  0  0  0  0
   -4.0914   15.9235  -10.7178 H   0  0  0  0  0  0  0  0  0  0  0  0
   -1.7243   15.2430  -11.9952 H   0  0  0  0  0  0  0  0  0  0  0  0
   -0.0031   13.9147   -9.0666 H   0  0  0  0  0  0  0  0  0  0  0  0
    0.0973   13.7152  -10.8489 H   0  0  0  0  0  0  0  0  0  0  0  0
    0.1416   15.3586  -10.1252 H   0  0  0  0  0  0  0  0  0  0  0  0
  1  2  1  0  0  0  0
  1  4  1  0  0  0  0
  1 11  1  0  0  0  0
  2  6  2  0  0  0  0
  3  4  2  0  0  0  0
  3  5  1  0  0  0  0
  5  6  1  0  0  0  0
  5  9  2  0  0  0  0
  6  7  1  0  0  0  0
  7  8  1  0  0  0  0
  7 10  2  3  0  0  0
  8  9  1  0  0  0  0
 10 12  1  0  0  0  0
 11 24  1  0  0  0  0
 12 13  2  0  0  0  0
 12 17  1  0  0  0  0
 13 14  1  0  0  0  0
 14 15  2  0  0  0  0
 15 16  1  0  0  0  0
 15 18  1  0  0  0  0
 16 17  2  0  0  0  0
 18 19  2  0  0  0  0
 18 22  1  0  0  0  0
 19 20  1  0  0  0  0
 20 21  1  0  0  0  0
 20 23  1  0  0  0  0
 21 22  2  0  0  0  0
 24 25  1  0  0  0  0
 25 26  1  0  0  0  0
 26 27  1  0  0  0  0
 27 28  2  0  0  0  0
 27 29  1  0  0  0  0
  1 30  1  0  0  0  0
  2 31  1  0  0  0  0
  3 32  1  0  0  0  0
  4 33  1  0  0  0  0
  8 34  1  0  0  0  0
 10 35  1  0  0  0  0
 11 36  1  0  0  0  0
 13 37  1  0  0  0  0
 14 38  1  0  0  0  0
 16 39  1  0  0  0  0
 17 40  1  0  0  0  0
 19 41  1  0  0  0  0
 22 42  1  0  0  0  0
 23 43  1  0  0  0  0
 23 44  1  0  0  0  0
 23 45  1  0  0  0  0
 24 46  1  0  0  0  0
 24 47  1  0  0  0  0
 25 48  1  0  0  0  0
 25 49  1  0  0  0  0
 26 50  1  0  0  0  0
 29 51  1  0  0  0  0
 29 52  1  0  0  0  0
 29 53  1  0  0  0  0
M  END
> <Name>
27

> <IC50[uM]>
0.68

$$$$
27
  -OEChem-05192314333D
 Structure written by MMmdl.
 53 56  0     0  0  0  0  0  0999 V2000
   -6.3855   12.3606  -12.0031 C   0  0  0  0  0  0  0  0  0  0  0  0
   -6.5214   11.8004  -10.7171 C   0  0  0  0  0  0  0  0  0  0  0  0
   -7.6991   10.5797  -13.0384 C   0  0  0  0  0  0  0  0  0  0  0  0
   -6.9626   11.7779  -13.1031 C   0  0  0  0  0  0  0  0  0  0  0  0
   -7.8238   10.0198  -11.7523 C   0  0  0  0  0  0  0  0  0  0  0  0
   -7.2557   10.6213  -10.5956 C   0  0  0  0  0  0  0  0  0  0  0  0
   -7.6268    9.7501   -9.5073 C   0  0  0  0  0  0  0  0  0  0  0  0
   -8.3057    8.7491   -9.9816 N   0  0  0  0  0  0  0  0  0  0  0  0
   -8.4330    8.8776  -11.2917 N   0  0  0  0  0  0  0  0  0  0  0  0
   -7.3352    9.8817   -8.0196 C   0  0  0  0  0  0  0  0  0  0  0  0
   -5.6205   13.5372  -12.2095 N   0  0  0  0  0  0  0  0  0  0  0  0
   -5.9727   10.4835   -7.7324 C   0  0  0  0  0  0  0  0  0  0  0  0
   -5.8611   11.7523   -7.1657 C   0  0  0  0  0  0  0  0  0  0  0  0
   -4.5946   12.2988   -6.9068 C   0  0  0  0  0  0  0  0  0  0  0  0
   -3.4432   11.5806   -7.2147 C   0  0  0  0  0  0  0  0  0  0  0  0
   -3.5570   10.3109   -7.7899 C   0  0  0  0  0  0  0  0  0  0  0  0
   -4.8253    9.7663   -8.0483 C   0  0  0  0  0  0  0  0  0  0  0  0
   -2.0926   12.1556   -6.9444 C   0  0  0  0  0  0  0  0  0  0  0  0
   -1.7338   13.4204   -6.4594 C   0  0  0  0  0  0  0  0  0  0  0  0
   -0.4064   13.4584   -6.4114 N   0  0  0  0  0  0  0  0  0  0  0  0
    0.1793   12.3493   -6.7865 N   0  0  0  0  0  0  0  0  0  0  0  0
   -0.7954   11.5387   -7.1512 C   0  0  0  0  0  0  0  0  0  0  0  0
    0.4205   14.5767   -6.0073 C   0  0  0  0  0  0  0  0  0  0  0  0
   -4.6894   13.8945  -11.1046 C   0  0  0  0  0  0  0  0  0  0  0  0
   -3.7822   15.1171  -11.3990 C   0  0  0  0  0  0  0  0  0  0  0  0
   -2.3310   14.9579  -11.2532 N   0  0  0  0  0  0  0  0  0  0  0  0
   -1.8099   14.4326  -10.1320 C   0  0  0  0  0  0  0  0  0  0  0  0
   -2.5019   14.0442   -9.2076 O   0  0  0  0  0  0  0  0  0  0  0  0
   -0.2869   14.3494  -10.0364 C   0  0  0  0  0  0  0  0  0  0  0  0
   -6.0716   12.2689   -9.8542 H   0  0  0  0  0  0  0  0  0  0  0  0
   -8.7105   10.7812  -13.4211 H   0  0  0  0  0  0  0  0  0  0  0  0
   -7.2031    9.8404  -13.6845 H   0  0  0  0  0  0  0  0  0  0  0  0
   -6.8466   12.2604  -14.0624 H   0  0  0  0  0  0  0  0  0  0  0  0
   -8.6759    7.9956   -9.4383 H   0  0  0  0  0  0  0  0  0  0  0  0
   -8.0269    9.5780   -7.2478 H   0  0  0  0  0  0  0  0  0  0  0  0
   -5.0791   13.4115  -13.0408 H   0  0  0  0  0  0  0  0  0  0  0  0
   -6.7507   12.3156   -6.9255 H   0  0  0  0  0  0  0  0  0  0  0  0
   -4.5132   13.2816   -6.4664 H   0  0  0  0  0  0  0  0  0  0  0  0
   -2.6683    9.7485   -8.0357 H   0  0  0  0  0  0  0  0  0  0  0  0
   -4.9092    8.7863   -8.4943 H   0  0  0  0  0  0  0  0  0  0  0  0
   -2.4090   14.2148   -6.1776 H   0  0  0  0  0  0  0  0  0  0  0  0
   -0.6475   10.5464   -7.5511 H   0  0  0  0  0  0  0  0  0  0  0  0
    1.4812   14.2962   -6.0855 H   0  0  0  0  0  0  0  0  0  0  0  0
    0.2196   15.4369   -6.6628 H   0  0  0  0  0  0  0  0  0  0  0  0
    0.1886   14.8468   -4.9665 H   0  0  0  0  0  0  0  0  0  0  0  0
   -5.2882   14.1185  -10.2095 H   0  0  0  0  0  0  0  0  0  0  0  0
   -4.0431   13.0269  -10.9057 H   0  0  0  0  0  0  0  0  0  0  0  0
   -3.9735   15.4217  -12.4385 H   0  0  0  0  0  0  0  0  0  0  0  0
   -4.0914   15.9235  -10.7178 H   0  0  0  0  0  0  0  0  0  0  0  0
   -1.7243   15.2430  -11.9952 H   0  0  0  0  0  0  0  0  0  0  0  0
   -0.0031   13.9147   -9.0666 H   0  0  0  0  0  0  0  0  0  0  0  0
    0.0973   13.7152  -10.8489 H   0  0  0  0  0  0  0  0  0  0  0  0
    0.1416   15.3586  -10.1252 H   0  0  0  0  0  0  0  0  0  0  0  0
  1  2  1  0  0  0  0
  1  4  2  0  0  0  0
  1 11  1  0  0  0  0
  2  6  2  0  0  0  0
  3  4  1  0  0  0  0
  3  5  1  0  0  0  0
  5  6  1  0  0  0  0
  5  9  2  0  0  0  0
  6  7  1  0  0  0  0
  7  8  1  0  0  0  0
  7 10  2  3  0  0  0
  8  9  1  0  0  0  0
 10 12  1  0  0  0  0
 11 24  1  0  0  0  0
 12 13  2  0  0  0  0
 12 17  1  0  0  0  0
 13 14  1  0  0  0  0
 14 15  2  0  0  0  0
 15 16  1  0  0  0  0
 15 18  1  0  0  0  0
 16 17  2  0  0  0  0
 18 19  2  0  0  0  0
 18 22  1  0  0  0  0
 19 20  1  0  0  0  0
 20 21  1  0  0  0  0
 20 23  1  0  0  0  0
 21 22  2  0  0  0  0
 24 25  1  0  0  0  0
 25 26  1  0  0  0  0
 26 27  1  0  0  0  0
 27 28  2  0  0  0  0
 27 29  1  0  0  0  0
  2 30  1  0  0  0  0
  3 31  1  0  0  0  0
  3 32  1  0  0  0  0
  4 33  1  0  0  0  0
  8 34  1  0  0  0  0
 10 35  1  0  0  0  0
 11 36  1  0  0  0  0
 13 37  1  0  0  0  0
 14 38  1  0  0  0  0
 16 39  1  0  0  0  0
 17 40  1  0  0  0  0
 19 41  1  0  0  0  0
 22 42  1  0  0  0  0
 23 43  1  0  0  0  0
 23 44  1  0  0  0  0
 23 45  1  0  0  0  0
 24 46  1  0  0  0  0
 24 47  1  0  0  0  0
 25 48  1  0  0  0  0
 25 49  1  0  0  0  0
 26 50  1  0  0  0  0
 29 51  1  0  0  0  0
 29 52  1  0  0  0  0
 29 53  1  0  0  0  0
M  END
> <Name>
27

> <IC50[uM]>
0.68

$$$$
27
  -OEChem-05192314333D
 Structure written by MMmdl.
 53 56  0     1  0  0  0  0  0999 V2000
   -6.3855   12.3606  -12.0031 C   0  0  3  0  0  0  0  0  0  0  0  0
   -6.5214   11.8004  -10.7171 C   0  0  0  0  0  0  0  0  0  0  0  0
   -7.6991   10.5797  -13.0384 C   0  0  0  0  0  0  0  0  0  0  0  0
   -6.9626   11.7779  -13.1031 C   0  0  0  0  0  0  0  0  0  0  0  0
   -7.8238   10.0198  -11.7523 C   0  0  0  0  0  0  0  0  0  0  0  0
   -7.2557   10.6213  -10.5956 C   0  0  0  0  0  0  0  0  0  0  0  0
   -7.6268    9.7501   -9.5073 C   0  0  0  0  0  0  0  0  0  0  0  0
   -8.3057    8.7491   -9.9816 N   0  0  0  0  0  0  0  0  0  0  0  0
   -8.4330    8.8776  -11.2917 N   0  0  0  0  0  0  0  0  0  0  0  0
   -7.3352    9.8817   -8.0196 C   0  0  0  0  0  0  0  0  0  0  0  0
   -5.6205   13.5372  -12.2095 N   0  0  0  0  0  0  0  0  0  0  0  0
   -5.9727   10.4835   -7.7324 C   0  0  0  0  0  0  0  0  0  0  0  0
   -5.8611   11.7523   -7.1657 C   0  0  0  0  0  0  0  0  0  0  0  0
   -4.5946   12.2988   -6.9068 C   0  0  0  0  0  0  0  0  0  0  0  0
   -3.4432   11.5806   -7.2147 C   0  0  0  0  0  0  0  0  0  0  0  0
   -3.5570   10.3109   -7.7899 C   0  0  0  0  0  0  0  0  0  0  0  0
   -4.8253    9.7663   -8.0483 C   0  0  0  0  0  0  0  0  0  0  0  0
   -2.0926   12.1556   -6.9444 C   0  0  0  0  0  0  0  0  0  0  0  0
   -1.7338   13.4204   -6.4594 C   0  0  0  0  0  0  0  0  0  0  0  0
   -0.4064   13.4584   -6.4114 N   0  0  0  0  0  0  0  0  0  0  0  0
    0.1793   12.3493   -6.7865 N   0  0  0  0  0  0  0  0  0  0  0  0
   -0.7954   11.5387   -7.1512 C   0  0  0  0  0  0  0  0  0  0  0  0
    0.4205   14.5767   -6.0073 C   0  0  0  0  0  0  0  0  0  0  0  0
   -4.6894   13.8945  -11.1046 C   0  0  0  0  0  0  0  0  0  0  0  0
   -3.7822   15.1171  -11.3990 C   0  0  0  0  0  0  0  0  0  0  0  0
   -2.3310   14.9579  -11.2532 N   0  0  0  0  0  0  0  0  0  0  0  0
   -1.8099   14.4326  -10.1320 C   0  0  0  0  0  0  0  0  0  0  0  0
   -2.5019   14.0442   -9.2076 O   0  0  0  0  0  0  0  0  0  0  0  0
   -0.2869   14.3494  -10.0364 C   0  0  0  0  0  0  0  0  0  0  0  0
   -7.2886   12.9676  -11.8418 H   0  0  0  0  0  0  0  0  0  0  0  0
   -6.0716   12.2689   -9.8542 H   0  0  0  0  0  0  0  0  0  0  0  0
   -8.1374   10.1224  -13.9131 H   0  0  0  0  0  0  0  0  0  0  0  0
   -6.8466   12.2604  -14.0624 H   0  0  0  0  0  0  0  0  0  0  0  0
   -8.6759    7.9956   -9.4383 H   0  0  0  0  0  0  0  0  0  0  0  0
   -8.0269    9.5780   -7.2478 H   0  0  0  0  0  0  0  0  0  0  0  0
   -5.0791   13.4115  -13.0408 H   0  0  0  0  0  0  0  0  0  0  0  0
   -6.7507   12.3156   -6.9255 H   0  0  0  0  0  0  0  0  0  0  0  0
   -4.5132   13.2816   -6.4664 H   0  0  0  0  0  0  0  0  0  0  0  0
   -2.6683    9.7485   -8.0357 H   0  0  0  0  0  0  0  0  0  0  0  0
   -4.9092    8.7863   -8.4943 H   0  0  0  0  0  0  0  0  0  0  0  0
   -2.4090   14.2148   -6.1776 H   0  0  0  0  0  0  0  0  0  0  0  0
   -0.6475   10.5464   -7.5511 H   0  0  0  0  0  0  0  0  0  0  0  0
    1.4812   14.2962   -6.0855 H   0  0  0  0  0  0  0  0  0  0  0  0
    0.2196   15.4369   -6.6628 H   0  0  0  0  0  0  0  0  0  0  0  0
    0.1886   14.8468   -4.9665 H   0  0  0  0  0  0  0  0  0  0  0  0
   -5.2882   14.1185  -10.2095 H   0  0  0  0  0  0  0  0  0  0  0  0
   -4.0431   13.0269  -10.9057 H   0  0  0  0  0  0  0  0  0  0  0  0
   -3.9735   15.4217  -12.4385 H   0  0  0  0  0  0  0  0  0  0  0  0
   -4.0914   15.9235  -10.7178 H   0  0  0  0  0  0  0  0  0  0  0  0
   -1.9457   13.7098   -8.5138 H   0  0  0  0  0  0  0  0  0  0  0  0
   -0.0034   13.9020   -9.0723 H   0  0  0  0  0  0  0  0  0  0  0  0
    0.0984   13.7264  -10.8570 H   0  0  0  0  0  0  0  0  0  0  0  0
    0.1408   15.3601  -10.1114 H   0  0  0  0  0  0  0  0  0  0  0  0
  1  2  1  0  0  0  0
  1  4  1  0  0  0  0
  1 11  1  0  0  0  0
  2  6  2  0  0  0  0
  3  4  2  0  0  0  0
  3  5  1  0  0  0  0
  5  6  1  0  0  0  0
  5  9  2  0  0  0  0
  6  7  1  0  0  0  0
  7  8  1  0  0  0  0
  7 10  2  3  0  0  0
  8  9  1  0  0  0  0
 10 12  1  0  0  0  0
 11 24  1  0  0  0  0
 12 13  2  0  0  0  0
 12 17  1  0  0  0  0
 13 14  1  0  0  0  0
 14 15  2  0  0  0  0
 15 16  1  0  0  0  0
 15 18  1  0  0  0  0
 16 17  2  0  0  0  0
 18 19  2  0  0  0  0
 18 22  1  0  0  0  0
 19 20  1  0  0  0  0
 20 21  1  0  0  0  0
 20 23  1  0  0  0  0
 21 22  2  0  0  0  0
 24 25  1  0  0  0  0
 25 26  1  0  0  0  0
 26 27  2  0  0  0  0
 27 28  1  0  0  0  0
 27 29  1  0  0  0  0
  1 30  1  0  0  0  0
  2 31  1  0  0  0  0
  3 32  1  0  0  0  0
  4 33  1  0  0  0  0
  8 34  1  0  0  0  0
 10 35  1  0  0  0  0
 11 36  1  0  0  0  0
 13 37  1  0  0  0  0
 14 38  1  0  0  0  0
 16 39  1  0  0  0  0
 17 40  1  0  0  0  0
 19 41  1  0  0  0  0
 22 42  1  0  0  0  0
 23 43  1  0  0  0  0
 23 44  1  0  0  0  0
 23 45  1  0  0  0  0
 24 46  1  0  0  0  0
 24 47  1  0  0  0  0
 25 48  1  0  0  0  0
 25 49  1  0  0  0  0
 28 50  1  0  0  0  0
 29 51  1  0  0  0  0
 29 52  1  0  0  0  0
 29 53  1  0  0  0  0
M  END
> <Name>
27

> <IC50[uM]>
0.68

$$$$
27
  -OEChem-05192314333D
 Structure written by MMmdl.
 53 56  0     0  0  0  0  0  0999 V2000
   -6.3855   12.3606  -12.0031 C   0  0  0  0  0  0  0  0  0  0  0  0
   -6.5214   11.8004  -10.7171 C   0  0  0  0  0  0  0  0  0  0  0  0
   -7.6991   10.5797  -13.0384 C   0  0  0  0  0  0  0  0  0  0  0  0
   -6.9626   11.7779  -13.1031 C   0  0  0  0  0  0  0  0  0  0  0  0
   -7.8238   10.0198  -11.7523 C   0  0  0  0  0  0  0  0  0  0  0  0
   -7.2557   10.6213  -10.5956 C   0  0  0  0  0  0  0  0  0  0  0  0
   -7.6268    9.7501   -9.5073 C   0  0  0  0  0  0  0  0  0  0  0  0
   -8.3057    8.7491   -9.9816 N   0  0  0  0  0  0  0  0  0  0  0  0
   -8.4330    8.8776  -11.2917 N   0  0  0  0  0  0  0  0  0  0  0  0
   -7.3352    9.8817   -8.0196 C   0  0  0  0  0  0  0  0  0  0  0  0
   -5.6205   13.5372  -12.2095 N   0  0  0  0  0  0  0  0  0  0  0  0
   -5.9727   10.4835   -7.7324 C   0  0  0  0  0  0  0  0  0  0  0  0
   -5.8611   11.7523   -7.1657 C   0  0  0  0  0  0  0  0  0  0  0  0
   -4.5946   12.2988   -6.9068 C   0  0  0  0  0  0  0  0  0  0  0  0
   -3.4432   11.5806   -7.2147 C   0  0  0  0  0  0  0  0  0  0  0  0
   -3.5570   10.3109   -7.7899 C   0  0  0  0  0  0  0  0  0  0  0  0
   -4.8253    9.7663   -8.0483 C   0  0  0  0  0  0  0  0  0  0  0  0
   -2.0926   12.1556   -6.9444 C   0  0  0  0  0  0  0  0  0  0  0  0
   -1.7338   13.4204   -6.4594 C   0  0  0  0  0  0  0  0  0  0  0  0
   -0.4064   13.4584   -6.4114 N   0  0  0  0  0  0  0  0  0  0  0  0
    0.1793   12.3493   -6.7865 N   0  0  0  0  0  0  0  0  0  0  0  0
   -0.7954   11.5387   -7.1512 C   0  0  0  0  0  0  0  0  0  0  0  0
    0.4205   14.5767   -6.0073 C   0  0  0  0  0  0  0  0  0  0  0  0
   -4.6894   13.8945  -11.1046 C   0  0  0  0  0  0  0  0  0  0  0  0
   -3.7822   15.1171  -11.3990 C   0  0  0  0  0  0  0  0  0  0  0  0
   -2.3310   14.9579  -11.2532 N   0  0  0  0  0  0  0  0  0  0  0  0
   -1.8099   14.4326  -10.1320 C   0  0  0  0  0  0  0  0  0  0  0  0
   -2.5019   14.0442   -9.2076 O   0  0  0  0  0  0  0  0  0  0  0  0
   -0.2869   14.3494  -10.0364 C   0  0  0  0  0  0  0  0  0  0  0  0
   -6.0716   12.2689   -9.8542 H   0  0  0  0  0  0  0  0  0  0  0  0
   -8.7105   10.7812  -13.4211 H   0  0  0  0  0  0  0  0  0  0  0  0
   -7.2031    9.8404  -13.6845 H   0  0  0  0  0  0  0  0  0  0  0  0
   -6.8466   12.2604  -14.0624 H   0  0  0  0  0  0  0  0  0  0  0  0
   -8.6759    7.9956   -9.4383 H   0  0  0  0  0  0  0  0  0  0  0  0
   -8.0269    9.5780   -7.2478 H   0  0  0  0  0  0  0  0  0  0  0  0
   -5.0791   13.4115  -13.0408 H   0  0  0  0  0  0  0  0  0  0  0  0
   -6.7507   12.3156   -6.9255 H   0  0  0  0  0  0  0  0  0  0  0  0
   -4.5132   13.2816   -6.4664 H   0  0  0  0  0  0  0  0  0  0  0  0
   -2.6683    9.7485   -8.0357 H   0  0  0  0  0  0  0  0  0  0  0  0
   -4.9092    8.7863   -8.4943 H   0  0  0  0  0  0  0  0  0  0  0  0
   -2.4090   14.2148   -6.1776 H   0  0  0  0  0  0  0  0  0  0  0  0
   -0.6475   10.5464   -7.5511 H   0  0  0  0  0  0  0  0  0  0  0  0
    1.4812   14.2962   -6.0855 H   0  0  0  0  0  0  0  0  0  0  0  0
    0.2196   15.4369   -6.6628 H   0  0  0  0  0  0  0  0  0  0  0  0
    0.1886   14.8468   -4.9665 H   0  0  0  0  0  0  0  0  0  0  0  0
   -5.2882   14.1185  -10.2095 H   0  0  0  0  0  0  0  0  0  0  0  0
   -4.0431   13.0269  -10.9057 H   0  0  0  0  0  0  0  0  0  0  0  0
   -3.9735   15.4217  -12.4385 H   0  0  0  0  0  0  0  0  0  0  0  0
   -4.0914   15.9235  -10.7178 H   0  0  0  0  0  0  0  0  0  0  0  0
   -1.9457   13.7098   -8.5138 H   0  0  0  0  0  0  0  0  0  0  0  0
   -0.0034   13.9020   -9.0723 H   0  0  0  0  0  0  0  0  0  0  0  0
    0.0984   13.7264  -10.8570 H   0  0  0  0  0  0  0  0  0  0  0  0
    0.1408   15.3601  -10.1114 H   0  0  0  0  0  0  0  0  0  0  0  0
  1  2  1  0  0  0  0
  1  4  2  0  0  0  0
  1 11  1  0  0  0  0
  2  6  2  0  0  0  0
  3  4  1  0  0  0  0
  3  5  1  0  0  0  0
  5  6  1  0  0  0  0
  5  9  2  0  0  0  0
  6  7  1  0  0  0  0
  7  8  1  0  0  0  0
  7 10  2  3  0  0  0
  8  9  1  0  0  0  0
 10 12  1  0  0  0  0
 11 24  1  0  0  0  0
 12 13  2  0  0  0  0
 12 17  1  0  0  0  0
 13 14  1  0  0  0  0
 14 15  2  0  0  0  0
 15 16  1  0  0  0  0
 15 18  1  0  0  0  0
 16 17  2  0  0  0  0
 18 19  2  0  0  0  0
 18 22  1  0  0  0  0
 19 20  1  0  0  0  0
 20 21  1  0  0  0  0
 20 23  1  0  0  0  0
 21 22  2  0  0  0  0
 24 25  1  0  0  0  0
 25 26  1  0  0  0  0
 26 27  2  0  0  0  0
 27 28  1  0  0  0  0
 27 29  1  0  0  0  0
  2 30  1  0  0  0  0
  3 31  1  0  0  0  0
  3 32  1  0  0  0  0
  4 33  1  0  0  0  0
  8 34  1  0  0  0  0
 10 35  1  0  0  0  0
 11 36  1  0  0  0  0
 13 37  1  0  0  0  0
 14 38  1  0  0  0  0
 16 39  1  0  0  0  0
 17 40  1  0  0  0  0
 19 41  1  0  0  0  0
 22 42  1  0  0  0  0
 23 43  1  0  0  0  0
 23 44  1  0  0  0  0
 23 45  1  0  0  0  0
 24 46  1  0  0  0  0
 24 47  1  0  0  0  0
 25 48  1  0  0  0  0
 25 49  1  0  0  0  0
 28 50  1  0  0  0  0
 29 51  1  0  0  0  0
 29 52  1  0  0  0  0
 29 53  1  0  0  0  0
M  END
> <Name>
27

> <IC50[uM]>
0.68

$$$$
27
  -OEChem-05192314333D
 Structure written by MMmdl.
 53 56  0     1  0  0  0  0  0999 V2000
   -6.3855   12.3606  -12.0031 C   0  0  0  0  0  0  0  0  0  0  0  0
   -6.5214   11.8004  -10.7171 C   0  0  0  0  0  0  0  0  0  0  0  0
   -7.6991   10.5797  -13.0384 C   0  0  0  0  0  0  0  0  0  0  0  0
   -6.9626   11.7779  -13.1031 C   0  0  0  0  0  0  0  0  0  0  0  0
   -7.8238   10.0198  -11.7523 C   0  0  0  0  0  0  0  0  0  0  0  0
   -7.2557   10.6213  -10.5956 C   0  0  0  0  0  0  0  0  0  0  0  0
   -7.6268    9.7501   -9.5073 C   0  0  0  0  0  0  0  0  0  0  0  0
   -8.3057    8.7491   -9.9816 N   0  0  0  0  0  0  0  0  0  0  0  0
   -8.4330    8.8776  -11.2917 N   0  0  0  0  0  0  0  0  0  0  0  0
   -7.3352    9.8817   -8.0196 C   0  0  0  0  0  0  0  0  0  0  0  0
   -5.6205   13.5372  -12.2095 N   0  0  0  0  0  0  0  0  0  0  0  0
   -5.9727   10.4835   -7.7324 C   0  0  0  0  0  0  0  0  0  0  0  0
   -5.8611   11.7523   -7.1657 C   0  0  0  0  0  0  0  0  0  0  0  0
   -4.5946   12.2988   -6.9068 C   0  0  0  0  0  0  0  0  0  0  0  0
   -3.4432   11.5806   -7.2147 C   0  0  0  0  0  0  0  0  0  0  0  0
   -3.5570   10.3109   -7.7899 C   0  0  0  0  0  0  0  0  0  0  0  0
   -4.8253    9.7663   -8.0483 C   0  0  0  0  0  0  0  0  0  0  0  0
   -2.0926   12.1556   -6.9444 C   0  0  0  0  0  0  0  0  0  0  0  0
   -1.7338   13.4204   -6.4594 C   0  0  0  0  0  0  0  0  0  0  0  0
   -0.4064   13.4584   -6.4114 N   0  0  3  0  0  0  0  0  0  0  0  0
    0.1793   12.3493   -6.7865 N   0  0  0  0  0  0  0  0  0  0  0  0
   -0.7954   11.5387   -7.1512 C   0  0  0  0  0  0  0  0  0  0  0  0
    0.4205   14.5767   -6.0073 C   0  0  0  0  0  0  0  0  0  0  0  0
   -4.6894   13.8945  -11.1046 C   0  0  0  0  0  0  0  0  0  0  0  0
   -3.7822   15.1171  -11.3990 C   0  0  0  0  0  0  0  0  0  0  0  0
   -2.3310   14.9579  -11.2532 N   0  0  0  0  0  0  0  0  0  0  0  0
   -1.8099   14.4326  -10.1320 C   0  0  0  0  0  0  0  0  0  0  0  0
   -2.5019   14.0442   -9.2076 O   0  0  0  0  0  0  0  0  0  0  0  0
   -0.2869   14.3494  -10.0364 C   0  0  0  0  0  0  0  0  0  0  0  0
   -6.0716   12.2689   -9.8542 H   0  0  0  0  0  0  0  0  0  0  0  0
   -8.1374   10.1224  -13.9131 H   0  0  0  0  0  0  0  0  0  0  0  0
   -6.8466   12.2604  -14.0624 H   0  0  0  0  0  0  0  0  0  0  0  0
   -8.6759    7.9956   -9.4383 H   0  0  0  0  0  0  0  0  0  0  0  0
   -8.0269    9.5780   -7.2478 H   0  0  0  0  0  0  0  0  0  0  0  0
   -5.0791   13.4115  -13.0408 H   0  0  0  0  0  0  0  0  0  0  0  0
   -6.7507   12.3156   -6.9255 H   0  0  0  0  0  0  0  0  0  0  0  0
   -4.5132   13.2816   -6.4664 H   0  0  0  0  0  0  0  0  0  0  0  0
   -2.6683    9.7485   -8.0357 H   0  0  0  0  0  0  0  0  0  0  0  0
   -4.9092    8.7863   -8.4943 H   0  0  0  0  0  0  0  0  0  0  0  0
   -2.1095   14.2037   -7.1341 H   0  0  0  0  0  0  0  0  0  0  0  0
   -2.1522   13.5713   -5.4533 H   0  0  0  0  0  0  0  0  0  0  0  0
   -0.6475   10.5464   -7.5511 H   0  0  0  0  0  0  0  0  0  0  0  0
    1.4812   14.2962   -6.0855 H   0  0  0  0  0  0  0  0  0  0  0  0
    0.2196   15.4369   -6.6628 H   0  0  0  0  0  0  0  0  0  0  0  0
    0.1886   14.8468   -4.9665 H   0  0  0  0  0  0  0  0  0  0  0  0
   -5.2882   14.1185  -10.2095 H   0  0  0  0  0  0  0  0  0  0  0  0
   -4.0431   13.0269  -10.9057 H   0  0  0  0  0  0  0  0  0  0  0  0
   -3.9735   15.4217  -12.4385 H   0  0  0  0  0  0  0  0  0  0  0  0
   -4.0914   15.9235  -10.7178 H   0  0  0  0  0  0  0  0  0  0  0  0
   -1.7243   15.2430  -11.9952 H   0  0  0  0  0  0  0  0  0  0  0  0
   -0.0031   13.9147   -9.0666 H   0  0  0  0  0  0  0  0  0  0  0  0
    0.0973   13.7152  -10.8489 H   0  0  0  0  0  0  0  0  0  0  0  0
    0.1416   15.3586  -10.1252 H   0  0  0  0  0  0  0  0  0  0  0  0
  1  2  2  0  0  0  0
  1  4  1  0  0  0  0
  1 11  1  0  0  0  0
  2  6  1  0  0  0  0
  3  4  2  0  0  0  0
  3  5  1  0  0  0  0
  5  6  1  0  0  0  0
  5  9  2  0  0  0  0
  6  7  2  0  0  0  0
  7  8  1  0  0  0  0
  7 10  1  0  0  0  0
  8  9  1  0  0  0  0
 10 12  2  0  0  0  0
 11 24  1  0  0  0  0
 12 13  1  0  0  0  0
 12 17  1  0  0  0  0
 13 14  2  0  0  0  0
 14 15  1  0  0  0  0
 15 16  1  0  0  0  0
 15 18  2  0  0  0  0
 16 17  2  0  0  0  0
 18 19  1  0  0  0  0
 18 22  1  0  0  0  0
 19 20  1  0  0  0  0
 20 21  1  0  0  0  0
 20 23  1  0  0  0  0
 21 22  2  0  0  0  0
 24 25  1  0  0  0  0
 25 26  1  0  0  0  0
 26 27  1  0  0  0  0
 27 28  2  0  0  0  0
 27 29  1  0  0  0  0
  2 30  1  0  0  0  0
  3 31  1  0  0  0  0
  4 32  1  0  0  0  0
  8 33  1  0  0  0  0
 10 34  1  0  0  0  0
 11 35  1  0  0  0  0
 13 36  1  0  0  0  0
 14 37  1  0  0  0  0
 16 38  1  0  0  0  0
 17 39  1  0  0  0  0
 19 40  1  0  0  0  0
 19 41  1  0  0  0  0
 22 42  1  0  0  0  0
 23 43  1  0  0  0  0
 23 44  1  0  0  0  0
 23 45  1  0  0  0  0
 24 46  1  0  0  0  0
 24 47  1  0  0  0  0
 25 48  1  0  0  0  0
 25 49  1  0  0  0  0
 26 50  1  0  0  0  0
 29 51  1  0  0  0  0
 29 52  1  0  0  0  0
 29 53  1  0  0  0  0
M  END
> <Name>
27

> <IC50[uM]>
0.68

$$$$
27
  -OEChem-05192314333D
 Structure written by MMmdl.
 53 56  0     1  0  0  0  0  0999 V2000
   -6.3855   12.3606  -12.0031 C   0  0  0  0  0  0  0  0  0  0  0  0
   -6.5214   11.8004  -10.7171 C   0  0  0  0  0  0  0  0  0  0  0  0
   -7.6991   10.5797  -13.0384 C   0  0  0  0  0  0  0  0  0  0  0  0
   -6.9626   11.7779  -13.1031 C   0  0  0  0  0  0  0  0  0  0  0  0
   -7.8238   10.0198  -11.7523 C   0  0  0  0  0  0  0  0  0  0  0  0
   -7.2557   10.6213  -10.5956 C   0  0  0  0  0  0  0  0  0  0  0  0
   -7.6268    9.7501   -9.5073 C   0  0  0  0  0  0  0  0  0  0  0  0
   -8.3057    8.7491   -9.9816 N   0  0  0  0  0  0  0  0  0  0  0  0
   -8.4330    8.8776  -11.2917 N   0  0  0  0  0  0  0  0  0  0  0  0
   -7.3352    9.8817   -8.0196 C   0  0  0  0  0  0  0  0  0  0  0  0
   -5.6205   13.5372  -12.2095 N   0  0  0  0  0  0  0  0  0  0  0  0
   -5.9727   10.4835   -7.7324 C   0  0  0  0  0  0  0  0  0  0  0  0
   -5.8611   11.7523   -7.1657 C   0  0  0  0  0  0  0  0  0  0  0  0
   -4.5946   12.2988   -6.9068 C   0  0  0  0  0  0  0  0  0  0  0  0
   -3.4432   11.5806   -7.2147 C   0  0  0  0  0  0  0  0  0  0  0  0
   -3.5570   10.3109   -7.7899 C   0  0  0  0  0  0  0  0  0  0  0  0
   -4.8253    9.7663   -8.0483 C   0  0  0  0  0  0  0  0  0  0  0  0
   -2.0926   12.1556   -6.9444 C   0  0  0  0  0  0  0  0  0  0  0  0
   -1.7338   13.4204   -6.4594 C   0  0  0  0  0  0  0  0  0  0  0  0
   -0.4064   13.4584   -6.4114 N   0  0  3  0  0  0  0  0  0  0  0  0
    0.1793   12.3493   -6.7865 N   0  0  0  0  0  0  0  0  0  0  0  0
   -0.7954   11.5387   -7.1512 C   0  0  0  0  0  0  0  0  0  0  0  0
    0.4205   14.5767   -6.0073 C   0  0  0  0  0  0  0  0  0  0  0  0
   -4.6894   13.8945  -11.1046 C   0  0  0  0  0  0  0  0  0  0  0  0
   -3.7822   15.1171  -11.3990 C   0  0  0  0  0  0  0  0  0  0  0  0
   -2.3310   14.9579  -11.2532 N   0  0  0  0  0  0  0  0  0  0  0  0
   -1.8099   14.4326  -10.1320 C   0  0  0  0  0  0  0  0  0  0  0  0
   -2.5019   14.0442   -9.2076 O   0  0  0  0  0  0  0  0  0  0  0  0
   -0.2869   14.3494  -10.0364 C   0  0  0  0  0  0  0  0  0  0  0  0
   -6.0716   12.2689   -9.8542 H   0  0  0  0  0  0  0  0  0  0  0  0
   -8.1374   10.1224  -13.9131 H   0  0  0  0  0  0  0  0  0  0  0  0
   -6.8466   12.2604  -14.0624 H   0  0  0  0  0  0  0  0  0  0  0  0
   -8.9138    8.2235  -11.8756 H   0  0  0  0  0  0  0  0  0  0  0  0
   -8.0269    9.5780   -7.2478 H   0  0  0  0  0  0  0  0  0  0  0  0
   -5.0791   13.4115  -13.0408 H   0  0  0  0  0  0  0  0  0  0  0  0
   -6.7507   12.3156   -6.9255 H   0  0  0  0  0  0  0  0  0  0  0  0
   -4.5132   13.2816   -6.4664 H   0  0  0  0  0  0  0  0  0  0  0  0
   -2.6683    9.7485   -8.0357 H   0  0  0  0  0  0  0  0  0  0  0  0
   -4.9092    8.7863   -8.4943 H   0  0  0  0  0  0  0  0  0  0  0  0
   -2.1095   14.2037   -7.1341 H   0  0  0  0  0  0  0  0  0  0  0  0
   -2.1522   13.5713   -5.4533 H   0  0  0  0  0  0  0  0  0  0  0  0
   -0.6475   10.5464   -7.5511 H   0  0  0  0  0  0  0  0  0  0  0  0
    1.4812   14.2962   -6.0855 H   0  0  0  0  0  0  0  0  0  0  0  0
    0.2196   15.4369   -6.6628 H   0  0  0  0  0  0  0  0  0  0  0  0
    0.1886   14.8468   -4.9665 H   0  0  0  0  0  0  0  0  0  0  0  0
   -5.2882   14.1185  -10.2095 H   0  0  0  0  0  0  0  0  0  0  0  0
   -4.0431   13.0269  -10.9057 H   0  0  0  0  0  0  0  0  0  0  0  0
   -3.9735   15.4217  -12.4385 H   0  0  0  0  0  0  0  0  0  0  0  0
   -4.0914   15.9235  -10.7178 H   0  0  0  0  0  0  0  0  0  0  0  0
   -1.7243   15.2430  -11.9952 H   0  0  0  0  0  0  0  0  0  0  0  0
   -0.0031   13.9147   -9.0666 H   0  0  0  0  0  0  0  0  0  0  0  0
    0.0973   13.7152  -10.8489 H   0  0  0  0  0  0  0  0  0  0  0  0
    0.1416   15.3586  -10.1252 H   0  0  0  0  0  0  0  0  0  0  0  0
  1  2  2  0  0  0  0
  1  4  1  0  0  0  0
  1 11  1  0  0  0  0
  2  6  1  0  0  0  0
  3  4  2  0  0  0  0
  3  5  1  0  0  0  0
  5  6  2  0  0  0  0
  5  9  1  0  0  0  0
  6  7  1  0  0  0  0
  7  8  2  0  0  0  0
  7 10  1  0  0  0  0
  8  9  1  0  0  0  0
 10 12  2  0  0  0  0
 11 24  1  0  0  0  0
 12 13  1  0  0  0  0
 12 17  1  0  0  0  0
 13 14  2  0  0  0  0
 14 15  1  0  0  0  0
 15 16  1  0  0  0  0
 15 18  2  0  0  0  0
 16 17  2  0  0  0  0
 18 19  1  0  0  0  0
 18 22  1  0  0  0  0
 19 20  1  0  0  0  0
 20 21  1  0  0  0  0
 20 23  1  0  0  0  0
 21 22  2  0  0  0  0
 24 25  1  0  0  0  0
 25 26  1  0  0  0  0
 26 27  1  0  0  0  0
 27 28  2  0  0  0  0
 27 29  1  0  0  0  0
  2 30  1  0  0  0  0
  3 31  1  0  0  0  0
  4 32  1  0  0  0  0
  9 33  1  0  0  0  0
 10 34  1  0  0  0  0
 11 35  1  0  0  0  0
 13 36  1  0  0  0  0
 14 37  1  0  0  0  0
 16 38  1  0  0  0  0
 17 39  1  0  0  0  0
 19 40  1  0  0  0  0
 19 41  1  0  0  0  0
 22 42  1  0  0  0  0
 23 43  1  0  0  0  0
 23 44  1  0  0  0  0
 23 45  1  0  0  0  0
 24 46  1  0  0  0  0
 24 47  1  0  0  0  0
 25 48  1  0  0  0  0
 25 49  1  0  0  0  0
 26 50  1  0  0  0  0
 29 51  1  0  0  0  0
 29 52  1  0  0  0  0
 29 53  1  0  0  0  0
M  END
> <Name>
27

> <IC50[uM]>
0.68

$$$$
27
  -OEChem-05192314333D
 Structure written by MMmdl.
 53 56  0     1  0  0  0  0  0999 V2000
   -6.3855   12.3606  -12.0031 C   0  0  0  0  0  0  0  0  0  0  0  0
   -6.5214   11.8004  -10.7171 C   0  0  0  0  0  0  0  0  0  0  0  0
   -7.6991   10.5797  -13.0384 C   0  0  0  0  0  0  0  0  0  0  0  0
   -6.9626   11.7779  -13.1031 C   0  0  0  0  0  0  0  0  0  0  0  0
   -7.8238   10.0198  -11.7523 C   0  0  0  0  0  0  0  0  0  0  0  0
   -7.2557   10.6213  -10.5956 C   0  0  0  0  0  0  0  0  0  0  0  0
   -7.6268    9.7501   -9.5073 C   0  0  0  0  0  0  0  0  0  0  0  0
   -8.3057    8.7491   -9.9816 N   0  0  0  0  0  0  0  0  0  0  0  0
   -8.4330    8.8776  -11.2917 N   0  0  0  0  0  0  0  0  0  0  0  0
   -7.3352    9.8817   -8.0196 C   0  0  0  0  0  0  0  0  0  0  0  0
   -5.6205   13.5372  -12.2095 N   0  0  0  0  0  0  0  0  0  0  0  0
   -5.9727   10.4835   -7.7324 C   0  0  0  0  0  0  0  0  0  0  0  0
   -5.8611   11.7523   -7.1657 C   0  0  0  0  0  0  0  0  0  0  0  0
   -4.5946   12.2988   -6.9068 C   0  0  0  0  0  0  0  0  0  0  0  0
   -3.4432   11.5806   -7.2147 C   0  0  0  0  0  0  0  0  0  0  0  0
   -3.5570   10.3109   -7.7899 C   0  0  0  0  0  0  0  0  0  0  0  0
   -4.8253    9.7663   -8.0483 C   0  0  0  0  0  0  0  0  0  0  0  0
   -2.0926   12.1556   -6.9444 C   0  0  0  0  0  0  0  0  0  0  0  0
   -1.7338   13.4204   -6.4594 C   0  0  0  0  0  0  0  0  0  0  0  0
   -0.4064   13.4584   -6.4114 N   0  0  3  0  0  0  0  0  0  0  0  0
    0.1793   12.3493   -6.7865 N   0  0  0  0  0  0  0  0  0  0  0  0
   -0.7954   11.5387   -7.1512 C   0  0  0  0  0  0  0  0  0  0  0  0
    0.4205   14.5767   -6.0073 C   0  0  0  0  0  0  0  0  0  0  0  0
   -4.6894   13.8945  -11.1046 C   0  0  0  0  0  0  0  0  0  0  0  0
   -3.7822   15.1171  -11.3990 C   0  0  0  0  0  0  0  0  0  0  0  0
   -2.3310   14.9579  -11.2532 N   0  0  0  0  0  0  0  0  0  0  0  0
   -1.8099   14.4326  -10.1320 C   0  0  0  0  0  0  0  0  0  0  0  0
   -2.5019   14.0442   -9.2076 O   0  0  0  0  0  0  0  0  0  0  0  0
   -0.2869   14.3494  -10.0364 C   0  0  0  0  0  0  0  0  0  0  0  0
   -6.0716   12.2689   -9.8542 H   0  0  0  0  0  0  0  0  0  0  0  0
   -8.1374   10.1224  -13.9131 H   0  0  0  0  0  0  0  0  0  0  0  0
   -6.8466   12.2604  -14.0624 H   0  0  0  0  0  0  0  0  0  0  0  0
   -8.6759    7.9956   -9.4383 H   0  0  0  0  0  0  0  0  0  0  0  0
   -8.0269    9.5780   -7.2478 H   0  0  0  0  0  0  0  0  0  0  0  0
   -5.0791   13.4115  -13.0408 H   0  0  0  0  0  0  0  0  0  0  0  0
   -6.7507   12.3156   -6.9255 H   0  0  0  0  0  0  0  0  0  0  0  0
   -4.5132   13.2816   -6.4664 H   0  0  0  0  0  0  0  0  0  0  0  0
   -2.6683    9.7485   -8.0357 H   0  0  0  0  0  0  0  0  0  0  0  0
   -4.9092    8.7863   -8.4943 H   0  0  0  0  0  0  0  0  0  0  0  0
   -2.1095   14.2037   -7.1341 H   0  0  0  0  0  0  0  0  0  0  0  0
   -2.1522   13.5713   -5.4533 H   0  0  0  0  0  0  0  0  0  0  0  0
   -0.6475   10.5464   -7.5511 H   0  0  0  0  0  0  0  0  0  0  0  0
    1.4812   14.2962   -6.0855 H   0  0  0  0  0  0  0  0  0  0  0  0
    0.2196   15.4369   -6.6628 H   0  0  0  0  0  0  0  0  0  0  0  0
    0.1886   14.8468   -4.9665 H   0  0  0  0  0  0  0  0  0  0  0  0
   -5.2882   14.1185  -10.2095 H   0  0  0  0  0  0  0  0  0  0  0  0
   -4.0431   13.0269  -10.9057 H   0  0  0  0  0  0  0  0  0  0  0  0
   -3.9735   15.4217  -12.4385 H   0  0  0  0  0  0  0  0  0  0  0  0
   -4.0914   15.9235  -10.7178 H   0  0  0  0  0  0  0  0  0  0  0  0
   -1.9457   13.7098   -8.5138 H   0  0  0  0  0  0  0  0  0  0  0  0
   -0.0034   13.9020   -9.0723 H   0  0  0  0  0  0  0  0  0  0  0  0
    0.0984   13.7264  -10.8570 H   0  0  0  0  0  0  0  0  0  0  0  0
    0.1408   15.3601  -10.1114 H   0  0  0  0  0  0  0  0  0  0  0  0
  1  2  2  0  0  0  0
  1  4  1  0  0  0  0
  1 11  1  0  0  0  0
  2  6  1  0  0  0  0
  3  4  2  0  0  0  0
  3  5  1  0  0  0  0
  5  6  1  0  0  0  0
  5  9  2  0  0  0  0
  6  7  2  0  0  0  0
  7  8  1  0  0  0  0
  7 10  1  0  0  0  0
  8  9  1  0  0  0  0
 10 12  2  0  0  0  0
 11 24  1  0  0  0  0
 12 13  1  0  0  0  0
 12 17  1  0  0  0  0
 13 14  2  0  0  0  0
 14 15  1  0  0  0  0
 15 16  1  0  0  0  0
 15 18  2  0  0  0  0
 16 17  2  0  0  0  0
 18 19  1  0  0  0  0
 18 22  1  0  0  0  0
 19 20  1  0  0  0  0
 20 21  1  0  0  0  0
 20 23  1  0  0  0  0
 21 22  2  0  0  0  0
 24 25  1  0  0  0  0
 25 26  1  0  0  0  0
 26 27  2  0  0  0  0
 27 28  1  0  0  0  0
 27 29  1  0  0  0  0
  2 30  1  0  0  0  0
  3 31  1  0  0  0  0
  4 32  1  0  0  0  0
  8 33  1  0  0  0  0
 10 34  1  0  0  0  0
 11 35  1  0  0  0  0
 13 36  1  0  0  0  0
 14 37  1  0  0  0  0
 16 38  1  0  0  0  0
 17 39  1  0  0  0  0
 19 40  1  0  0  0  0
 19 41  1  0  0  0  0
 22 42  1  0  0  0  0
 23 43  1  0  0  0  0
 23 44  1  0  0  0  0
 23 45  1  0  0  0  0
 24 46  1  0  0  0  0
 24 47  1  0  0  0  0
 25 48  1  0  0  0  0
 25 49  1  0  0  0  0
 28 50  1  0  0  0  0
 29 51  1  0  0  0  0
 29 52  1  0  0  0  0
 29 53  1  0  0  0  0
M  END
> <Name>
27

> <IC50[uM]>
0.68

$$$$
27
  -OEChem-05192314333D
 Structure written by MMmdl.
 53 56  0     1  0  0  0  0  0999 V2000
   -6.3855   12.3606  -12.0031 C   0  0  0  0  0  0  0  0  0  0  0  0
   -6.5214   11.8004  -10.7171 C   0  0  0  0  0  0  0  0  0  0  0  0
   -7.6991   10.5797  -13.0384 C   0  0  0  0  0  0  0  0  0  0  0  0
   -6.9626   11.7779  -13.1031 C   0  0  0  0  0  0  0  0  0  0  0  0
   -7.8238   10.0198  -11.7523 C   0  0  0  0  0  0  0  0  0  0  0  0
   -7.2557   10.6213  -10.5956 C   0  0  0  0  0  0  0  0  0  0  0  0
   -7.6268    9.7501   -9.5073 C   0  0  0  0  0  0  0  0  0  0  0  0
   -8.3057    8.7491   -9.9816 N   0  0  0  0  0  0  0  0  0  0  0  0
   -8.4330    8.8776  -11.2917 N   0  0  0  0  0  0  0  0  0  0  0  0
   -7.3352    9.8817   -8.0196 C   0  0  0  0  0  0  0  0  0  0  0  0
   -5.6205   13.5372  -12.2095 N   0  0  0  0  0  0  0  0  0  0  0  0
   -5.9727   10.4835   -7.7324 C   0  0  0  0  0  0  0  0  0  0  0  0
   -5.8611   11.7523   -7.1657 C   0  0  0  0  0  0  0  0  0  0  0  0
   -4.5946   12.2988   -6.9068 C   0  0  0  0  0  0  0  0  0  0  0  0
   -3.4432   11.5806   -7.2147 C   0  0  0  0  0  0  0  0  0  0  0  0
   -3.5570   10.3109   -7.7899 C   0  0  0  0  0  0  0  0  0  0  0  0
   -4.8253    9.7663   -8.0483 C   0  0  0  0  0  0  0  0  0  0  0  0
   -2.0926   12.1556   -6.9444 C   0  0  0  0  0  0  0  0  0  0  0  0
   -1.7338   13.4204   -6.4594 C   0  0  0  0  0  0  0  0  0  0  0  0
   -0.4064   13.4584   -6.4114 N   0  0  3  0  0  0  0  0  0  0  0  0
    0.1793   12.3493   -6.7865 N   0  0  0  0  0  0  0  0  0  0  0  0
   -0.7954   11.5387   -7.1512 C   0  0  0  0  0  0  0  0  0  0  0  0
    0.4205   14.5767   -6.0073 C   0  0  0  0  0  0  0  0  0  0  0  0
   -4.6894   13.8945  -11.1046 C   0  0  0  0  0  0  0  0  0  0  0  0
   -3.7822   15.1171  -11.3990 C   0  0  0  0  0  0  0  0  0  0  0  0
   -2.3310   14.9579  -11.2532 N   0  0  0  0  0  0  0  0  0  0  0  0
   -1.8099   14.4326  -10.1320 C   0  0  0  0  0  0  0  0  0  0  0  0
   -2.5019   14.0442   -9.2076 O   0  0  0  0  0  0  0  0  0  0  0  0
   -0.2869   14.3494  -10.0364 C   0  0  0  0  0  0  0  0  0  0  0  0
   -6.0716   12.2689   -9.8542 H   0  0  0  0  0  0  0  0  0  0  0  0
   -8.1374   10.1224  -13.9131 H   0  0  0  0  0  0  0  0  0  0  0  0
   -6.8466   12.2604  -14.0624 H   0  0  0  0  0  0  0  0  0  0  0  0
   -8.9138    8.2235  -11.8756 H   0  0  0  0  0  0  0  0  0  0  0  0
   -8.0269    9.5780   -7.2478 H   0  0  0  0  0  0  0  0  0  0  0  0
   -5.0791   13.4115  -13.0408 H   0  0  0  0  0  0  0  0  0  0  0  0
   -6.7507   12.3156   -6.9255 H   0  0  0  0  0  0  0  0  0  0  0  0
   -4.5132   13.2816   -6.4664 H   0  0  0  0  0  0  0  0  0  0  0  0
   -2.6683    9.7485   -8.0357 H   0  0  0  0  0  0  0  0  0  0  0  0
   -4.9092    8.7863   -8.4943 H   0  0  0  0  0  0  0  0  0  0  0  0
   -2.1095   14.2037   -7.1341 H   0  0  0  0  0  0  0  0  0  0  0  0
   -2.1522   13.5713   -5.4533 H   0  0  0  0  0  0  0  0  0  0  0  0
   -0.6475   10.5464   -7.5511 H   0  0  0  0  0  0  0  0  0  0  0  0
    1.4812   14.2962   -6.0855 H   0  0  0  0  0  0  0  0  0  0  0  0
    0.2196   15.4369   -6.6628 H   0  0  0  0  0  0  0  0  0  0  0  0
    0.1886   14.8468   -4.9665 H   0  0  0  0  0  0  0  0  0  0  0  0
   -5.2882   14.1185  -10.2095 H   0  0  0  0  0  0  0  0  0  0  0  0
   -4.0431   13.0269  -10.9057 H   0  0  0  0  0  0  0  0  0  0  0  0
   -3.9735   15.4217  -12.4385 H   0  0  0  0  0  0  0  0  0  0  0  0
   -4.0914   15.9235  -10.7178 H   0  0  0  0  0  0  0  0  0  0  0  0
   -1.9457   13.7098   -8.5138 H   0  0  0  0  0  0  0  0  0  0  0  0
   -0.0034   13.9020   -9.0723 H   0  0  0  0  0  0  0  0  0  0  0  0
    0.0984   13.7264  -10.8570 H   0  0  0  0  0  0  0  0  0  0  0  0
    0.1408   15.3601  -10.1114 H   0  0  0  0  0  0  0  0  0  0  0  0
  1  2  2  0  0  0  0
  1  4  1  0  0  0  0
  1 11  1  0  0  0  0
  2  6  1  0  0  0  0
  3  4  2  0  0  0  0
  3  5  1  0  0  0  0
  5  6  2  0  0  0  0
  5  9  1  0  0  0  0
  6  7  1  0  0  0  0
  7  8  2  0  0  0  0
  7 10  1  0  0  0  0
  8  9  1  0  0  0  0
 10 12  2  0  0  0  0
 11 24  1  0  0  0  0
 12 13  1  0  0  0  0
 12 17  1  0  0  0  0
 13 14  2  0  0  0  0
 14 15  1  0  0  0  0
 15 16  1  0  0  0  0
 15 18  2  0  0  0  0
 16 17  2  0  0  0  0
 18 19  1  0  0  0  0
 18 22  1  0  0  0  0
 19 20  1  0  0  0  0
 20 21  1  0  0  0  0
 20 23  1  0  0  0  0
 21 22  2  0  0  0  0
 24 25  1  0  0  0  0
 25 26  1  0  0  0  0
 26 27  2  0  0  0  0
 27 28  1  0  0  0  0
 27 29  1  0  0  0  0
  2 30  1  0  0  0  0
  3 31  1  0  0  0  0
  4 32  1  0  0  0  0
  9 33  1  0  0  0  0
 10 34  1  0  0  0  0
 11 35  1  0  0  0  0
 13 36  1  0  0  0  0
 14 37  1  0  0  0  0
 16 38  1  0  0  0  0
 17 39  1  0  0  0  0
 19 40  1  0  0  0  0
 19 41  1  0  0  0  0
 22 42  1  0  0  0  0
 23 43  1  0  0  0  0
 23 44  1  0  0  0  0
 23 45  1  0  0  0  0
 24 46  1  0  0  0  0
 24 47  1  0  0  0  0
 25 48  1  0  0  0  0
 25 49  1  0  0  0  0
 28 50  1  0  0  0  0
 29 51  1  0  0  0  0
 29 52  1  0  0  0  0
 29 53  1  0  0  0  0
M  END
> <Name>
27

> <IC50[uM]>
0.68

$$$$
27
  -OEChem-05192314333D
 Structure written by MMmdl.
 53 56  0     0  0  0  0  0  0999 V2000
   -6.3855   12.3606  -12.0031 C   0  0  0  0  0  0  0  0  0  0  0  0
   -6.5214   11.8004  -10.7171 C   0  0  0  0  0  0  0  0  0  0  0  0
   -7.6991   10.5797  -13.0384 C   0  0  0  0  0  0  0  0  0  0  0  0
   -6.9626   11.7779  -13.1031 C   0  0  0  0  0  0  0  0  0  0  0  0
   -7.8238   10.0198  -11.7523 C   0  0  0  0  0  0  0  0  0  0  0  0
   -7.2557   10.6213  -10.5956 C   0  0  0  0  0  0  0  0  0  0  0  0
   -7.6268    9.7501   -9.5073 C   0  0  0  0  0  0  0  0  0  0  0  0
   -8.3057    8.7491   -9.9816 N   0  0  0  0  0  0  0  0  0  0  0  0
   -8.4330    8.8776  -11.2917 N   0  0  0  0  0  0  0  0  0  0  0  0
   -7.3352    9.8817   -8.0196 C   0  0  0  0  0  0  0  0  0  0  0  0
   -5.6205   13.5372  -12.2095 N   0  0  0  0  0  0  0  0  0  0  0  0
   -5.9727   10.4835   -7.7324 C   0  0  0  0  0  0  0  0  0  0  0  0
   -5.8611   11.7523   -7.1657 C   0  0  0  0  0  0  0  0  0  0  0  0
   -4.5946   12.2988   -6.9068 C   0  0  0  0  0  0  0  0  0  0  0  0
   -3.4432   11.5806   -7.2147 C   0  0  0  0  0  0  0  0  0  0  0  0
   -3.5570   10.3109   -7.7899 C   0  0  0  0  0  0  0  0  0  0  0  0
   -4.8253    9.7663   -8.0483 C   0  0  0  0  0  0  0  0  0  0  0  0
   -2.0926   12.1556   -6.9444 C   0  0  0  0  0  0  0  0  0  0  0  0
   -1.7338   13.4204   -6.4594 C   0  0  0  0  0  0  0  0  0  0  0  0
   -0.4064   13.4584   -6.4114 N   0  0  0  0  0  0  0  0  0  0  0  0
    0.1793   12.3493   -6.7865 N   0  0  0  0  0  0  0  0  0  0  0  0
   -0.7954   11.5387   -7.1512 C   0  0  0  0  0  0  0  0  0  0  0  0
    0.4205   14.5767   -6.0073 C   0  0  0  0  0  0  0  0  0  0  0  0
   -4.6894   13.8945  -11.1046 C   0  0  0  0  0  0  0  0  0  0  0  0
   -3.7822   15.1171  -11.3990 C   0  0  0  0  0  0  0  0  0  0  0  0
   -2.3310   14.9579  -11.2532 N   0  0  0  0  0  0  0  0  0  0  0  0
   -1.8099   14.4326  -10.1320 C   0  0  0  0  0  0  0  0  0  0  0  0
   -2.5019   14.0442   -9.2076 O   0  0  0  0  0  0  0  0  0  0  0  0
   -0.2869   14.3494  -10.0364 C   0  0  0  0  0  0  0  0  0  0  0  0
   -6.0716   12.2689   -9.8542 H   0  0  0  0  0  0  0  0  0  0  0  0
   -8.1374   10.1224  -13.9131 H   0  0  0  0  0  0  0  0  0  0  0  0
   -6.8466   12.2604  -14.0624 H   0  0  0  0  0  0  0  0  0  0  0  0
   -8.6759    7.9956   -9.4383 H   0  0  0  0  0  0  0  0  0  0  0  0
   -8.0269    9.5780   -7.2478 H   0  0  0  0  0  0  0  0  0  0  0  0
   -5.0791   13.4115  -13.0408 H   0  0  0  0  0  0  0  0  0  0  0  0
   -6.7507   12.3156   -6.9255 H   0  0  0  0  0  0  0  0  0  0  0  0
   -4.5132   13.2816   -6.4664 H   0  0  0  0  0  0  0  0  0  0  0  0
   -3.4540   11.1294   -6.2116 H   0  0  0  0  0  0  0  0  0  0  0  0
   -2.6683    9.7485   -8.0357 H   0  0  0  0  0  0  0  0  0  0  0  0
   -4.9092    8.7863   -8.4943 H   0  0  0  0  0  0  0  0  0  0  0  0
   -2.4090   14.2148   -6.1776 H   0  0  0  0  0  0  0  0  0  0  0  0
   -0.6475   10.5464   -7.5511 H   0  0  0  0  0  0  0  0  0  0  0  0
    1.4812   14.2962   -6.0855 H   0  0  0  0  0  0  0  0  0  0  0  0
    0.2196   15.4369   -6.6628 H   0  0  0  0  0  0  0  0  0  0  0  0
    0.1886   14.8468   -4.9665 H   0  0  0  0  0  0  0  0  0  0  0  0
   -5.2882   14.1185  -10.2095 H   0  0  0  0  0  0  0  0  0  0  0  0
   -4.0431   13.0269  -10.9057 H   0  0  0  0  0  0  0  0  0  0  0  0
   -3.9735   15.4217  -12.4385 H   0  0  0  0  0  0  0  0  0  0  0  0
   -4.0914   15.9235  -10.7178 H   0  0  0  0  0  0  0  0  0  0  0  0
   -1.7243   15.2430  -11.9952 H   0  0  0  0  0  0  0  0  0  0  0  0
   -0.0031   13.9147   -9.0666 H   0  0  0  0  0  0  0  0  0  0  0  0
    0.0973   13.7152  -10.8489 H   0  0  0  0  0  0  0  0  0  0  0  0
    0.1416   15.3586  -10.1252 H   0  0  0  0  0  0  0  0  0  0  0  0
  1  2  2  0  0  0  0
  1  4  1  0  0  0  0
  1 11  1  0  0  0  0
  2  6  1  0  0  0  0
  3  4  2  0  0  0  0
  3  5  1  0  0  0  0
  5  6  1  0  0  0  0
  5  9  2  0  0  0  0
  6  7  2  0  0  0  0
  7  8  1  0  0  0  0
  7 10  1  0  0  0  0
  8  9  1  0  0  0  0
 10 12  2  0  0  0  0
 11 24  1  0  0  0  0
 12 13  1  0  0  0  0
 12 17  1  0  0  0  0
 13 14  2  0  0  0  0
 14 15  1  0  0  0  0
 15 16  1  0  0  0  0
 15 18  1  0  0  0  0
 16 17  2  0  0  0  0
 18 19  2  0  0  0  0
 18 22  1  0  0  0  0
 19 20  1  0  0  0  0
 20 21  1  0  0  0  0
 20 23  1  0  0  0  0
 21 22  2  0  0  0  0
 24 25  1  0  0  0  0
 25 26  1  0  0  0  0
 26 27  1  0  0  0  0
 27 28  2  0  0  0  0
 27 29  1  0  0  0  0
  2 30  1  0  0  0  0
  3 31  1  0  0  0  0
  4 32  1  0  0  0  0
  8 33  1  0  0  0  0
 10 34  1  0  0  0  0
 11 35  1  0  0  0  0
 13 36  1  0  0  0  0
 14 37  1  0  0  0  0
 15 38  1  0  0  0  0
 16 39  1  0  0  0  0
 17 40  1  0  0  0  0
 19 41  1  0  0  0  0
 22 42  1  0  0  0  0
 23 43  1  0  0  0  0
 23 44  1  0  0  0  0
 23 45  1  0  0  0  0
 24 46  1  0  0  0  0
 24 47  1  0  0  0  0
 25 48  1  0  0  0  0
 25 49  1  0  0  0  0
 26 50  1  0  0  0  0
 29 51  1  0  0  0  0
 29 52  1  0  0  0  0
 29 53  1  0  0  0  0
M  END
> <Name>
27

> <IC50[uM]>
0.68

$$$$
27
  -OEChem-05192314333D
 Structure written by MMmdl.
 53 56  0     0  0  0  0  0  0999 V2000
   -6.3855   12.3606  -12.0031 C   0  0  0  0  0  0  0  0  0  0  0  0
   -6.5214   11.8004  -10.7171 C   0  0  0  0  0  0  0  0  0  0  0  0
   -7.6991   10.5797  -13.0384 C   0  0  0  0  0  0  0  0  0  0  0  0
   -6.9626   11.7779  -13.1031 C   0  0  0  0  0  0  0  0  0  0  0  0
   -7.8238   10.0198  -11.7523 C   0  0  0  0  0  0  0  0  0  0  0  0
   -7.2557   10.6213  -10.5956 C   0  0  0  0  0  0  0  0  0  0  0  0
   -7.6268    9.7501   -9.5073 C   0  0  0  0  0  0  0  0  0  0  0  0
   -8.3057    8.7491   -9.9816 N   0  0  0  0  0  0  0  0  0  0  0  0
   -8.4330    8.8776  -11.2917 N   0  0  0  0  0  0  0  0  0  0  0  0
   -7.3352    9.8817   -8.0196 C   0  0  0  0  0  0  0  0  0  0  0  0
   -5.6205   13.5372  -12.2095 N   0  0  0  0  0  0  0  0  0  0  0  0
   -5.9727   10.4835   -7.7324 C   0  0  0  0  0  0  0  0  0  0  0  0
   -5.8611   11.7523   -7.1657 C   0  0  0  0  0  0  0  0  0  0  0  0
   -4.5946   12.2988   -6.9068 C   0  0  0  0  0  0  0  0  0  0  0  0
   -3.4432   11.5806   -7.2147 C   0  0  0  0  0  0  0  0  0  0  0  0
   -3.5570   10.3109   -7.7899 C   0  0  0  0  0  0  0  0  0  0  0  0
   -4.8253    9.7663   -8.0483 C   0  0  0  0  0  0  0  0  0  0  0  0
   -2.0926   12.1556   -6.9444 C   0  0  0  0  0  0  0  0  0  0  0  0
   -1.7338   13.4204   -6.4594 C   0  0  0  0  0  0  0  0  0  0  0  0
   -0.4064   13.4584   -6.4114 N   0  0  0  0  0  0  0  0  0  0  0  0
    0.1793   12.3493   -6.7865 N   0  0  0  0  0  0  0  0  0  0  0  0
   -0.7954   11.5387   -7.1512 C   0  0  0  0  0  0  0  0  0  0  0  0
    0.4205   14.5767   -6.0073 C   0  0  0  0  0  0  0  0  0  0  0  0
   -4.6894   13.8945  -11.1046 C   0  0  0  0  0  0  0  0  0  0  0  0
   -3.7822   15.1171  -11.3990 C   0  0  0  0  0  0  0  0  0  0  0  0
   -2.3310   14.9579  -11.2532 N   0  0  0  0  0  0  0  0  0  0  0  0
   -1.8099   14.4326  -10.1320 C   0  0  0  0  0  0  0  0  0  0  0  0
   -2.5019   14.0442   -9.2076 O   0  0  0  0  0  0  0  0  0  0  0  0
   -0.2869   14.3494  -10.0364 C   0  0  0  0  0  0  0  0  0  0  0  0
   -6.0716   12.2689   -9.8542 H   0  0  0  0  0  0  0  0  0  0  0  0
   -8.1374   10.1224  -13.9131 H   0  0  0  0  0  0  0  0  0  0  0  0
   -6.8466   12.2604  -14.0624 H   0  0  0  0  0  0  0  0  0  0  0  0
   -8.9138    8.2235  -11.8756 H   0  0  0  0  0  0  0  0  0  0  0  0
   -8.0269    9.5780   -7.2478 H   0  0  0  0  0  0  0  0  0  0  0  0
   -5.0791   13.4115  -13.0408 H   0  0  0  0  0  0  0  0  0  0  0  0
   -6.7507   12.3156   -6.9255 H   0  0  0  0  0  0  0  0  0  0  0  0
   -4.5132   13.2816   -6.4664 H   0  0  0  0  0  0  0  0  0  0  0  0
   -3.4540   11.1294   -6.2116 H   0  0  0  0  0  0  0  0  0  0  0  0
   -2.6683    9.7485   -8.0357 H   0  0  0  0  0  0  0  0  0  0  0  0
   -4.9092    8.7863   -8.4943 H   0  0  0  0  0  0  0  0  0  0  0  0
   -2.4090   14.2148   -6.1776 H   0  0  0  0  0  0  0  0  0  0  0  0
   -0.6475   10.5464   -7.5511 H   0  0  0  0  0  0  0  0  0  0  0  0
    1.4812   14.2962   -6.0855 H   0  0  0  0  0  0  0  0  0  0  0  0
    0.2196   15.4369   -6.6628 H   0  0  0  0  0  0  0  0  0  0  0  0
    0.1886   14.8468   -4.9665 H   0  0  0  0  0  0  0  0  0  0  0  0
   -5.2882   14.1185  -10.2095 H   0  0  0  0  0  0  0  0  0  0  0  0
   -4.0431   13.0269  -10.9057 H   0  0  0  0  0  0  0  0  0  0  0  0
   -3.9735   15.4217  -12.4385 H   0  0  0  0  0  0  0  0  0  0  0  0
   -4.0914   15.9235  -10.7178 H   0  0  0  0  0  0  0  0  0  0  0  0
   -1.7243   15.2430  -11.9952 H   0  0  0  0  0  0  0  0  0  0  0  0
   -0.0031   13.9147   -9.0666 H   0  0  0  0  0  0  0  0  0  0  0  0
    0.0973   13.7152  -10.8489 H   0  0  0  0  0  0  0  0  0  0  0  0
    0.1416   15.3586  -10.1252 H   0  0  0  0  0  0  0  0  0  0  0  0
  1  2  2  0  0  0  0
  1  4  1  0  0  0  0
  1 11  1  0  0  0  0
  2  6  1  0  0  0  0
  3  4  2  0  0  0  0
  3  5  1  0  0  0  0
  5  6  2  0  0  0  0
  5  9  1  0  0  0  0
  6  7  1  0  0  0  0
  7  8  2  0  0  0  0
  7 10  1  0  0  0  0
  8  9  1  0  0  0  0
 10 12  2  0  0  0  0
 11 24  1  0  0  0  0
 12 13  1  0  0  0  0
 12 17  1  0  0  0  0
 13 14  2  0  0  0  0
 14 15  1  0  0  0  0
 15 16  1  0  0  0  0
 15 18  1  0  0  0  0
 16 17  2  0  0  0  0
 18 19  2  0  0  0  0
 18 22  1  0  0  0  0
 19 20  1  0  0  0  0
 20 21  1  0  0  0  0
 20 23  1  0  0  0  0
 21 22  2  0  0  0  0
 24 25  1  0  0  0  0
 25 26  1  0  0  0  0
 26 27  1  0  0  0  0
 27 28  2  0  0  0  0
 27 29  1  0  0  0  0
  2 30  1  0  0  0  0
  3 31  1  0  0  0  0
  4 32  1  0  0  0  0
  9 33  1  0  0  0  0
 10 34  1  0  0  0  0
 11 35  1  0  0  0  0
 13 36  1  0  0  0  0
 14 37  1  0  0  0  0
 15 38  1  0  0  0  0
 16 39  1  0  0  0  0
 17 40  1  0  0  0  0
 19 41  1  0  0  0  0
 22 42  1  0  0  0  0
 23 43  1  0  0  0  0
 23 44  1  0  0  0  0
 23 45  1  0  0  0  0
 24 46  1  0  0  0  0
 24 47  1  0  0  0  0
 25 48  1  0  0  0  0
 25 49  1  0  0  0  0
 26 50  1  0  0  0  0
 29 51  1  0  0  0  0
 29 52  1  0  0  0  0
 29 53  1  0  0  0  0
M  END
> <Name>
27

> <IC50[uM]>
0.68

$$$$
27
  -OEChem-05192314333D
 Structure written by MMmdl.
 53 56  0     0  0  0  0  0  0999 V2000
   -6.3855   12.3606  -12.0031 C   0  0  0  0  0  0  0  0  0  0  0  0
   -6.5214   11.8004  -10.7171 C   0  0  0  0  0  0  0  0  0  0  0  0
   -7.6991   10.5797  -13.0384 C   0  0  0  0  0  0  0  0  0  0  0  0
   -6.9626   11.7779  -13.1031 C   0  0  0  0  0  0  0  0  0  0  0  0
   -7.8238   10.0198  -11.7523 C   0  0  0  0  0  0  0  0  0  0  0  0
   -7.2557   10.6213  -10.5956 C   0  0  0  0  0  0  0  0  0  0  0  0
   -7.6268    9.7501   -9.5073 C   0  0  0  0  0  0  0  0  0  0  0  0
   -8.3057    8.7491   -9.9816 N   0  0  0  0  0  0  0  0  0  0  0  0
   -8.4330    8.8776  -11.2917 N   0  0  0  0  0  0  0  0  0  0  0  0
   -7.3352    9.8817   -8.0196 C   0  0  0  0  0  0  0  0  0  0  0  0
   -5.6205   13.5372  -12.2095 N   0  0  0  0  0  0  0  0  0  0  0  0
   -5.9727   10.4835   -7.7324 C   0  0  0  0  0  0  0  0  0  0  0  0
   -5.8611   11.7523   -7.1657 C   0  0  0  0  0  0  0  0  0  0  0  0
   -4.5946   12.2988   -6.9068 C   0  0  0  0  0  0  0  0  0  0  0  0
   -3.4432   11.5806   -7.2147 C   0  0  0  0  0  0  0  0  0  0  0  0
   -3.5570   10.3109   -7.7899 C   0  0  0  0  0  0  0  0  0  0  0  0
   -4.8253    9.7663   -8.0483 C   0  0  0  0  0  0  0  0  0  0  0  0
   -2.0926   12.1556   -6.9444 C   0  0  0  0  0  0  0  0  0  0  0  0
   -1.7338   13.4204   -6.4594 C   0  0  0  0  0  0  0  0  0  0  0  0
   -0.4064   13.4584   -6.4114 N   0  0  0  0  0  0  0  0  0  0  0  0
    0.1793   12.3493   -6.7865 N   0  0  0  0  0  0  0  0  0  0  0  0
   -0.7954   11.5387   -7.1512 C   0  0  0  0  0  0  0  0  0  0  0  0
    0.4205   14.5767   -6.0073 C   0  0  0  0  0  0  0  0  0  0  0  0
   -4.6894   13.8945  -11.1046 C   0  0  0  0  0  0  0  0  0  0  0  0
   -3.7822   15.1171  -11.3990 C   0  0  0  0  0  0  0  0  0  0  0  0
   -2.3310   14.9579  -11.2532 N   0  0  0  0  0  0  0  0  0  0  0  0
   -1.8099   14.4326  -10.1320 C   0  0  0  0  0  0  0  0  0  0  0  0
   -2.5019   14.0442   -9.2076 O   0  0  0  0  0  0  0  0  0  0  0  0
   -0.2869   14.3494  -10.0364 C   0  0  0  0  0  0  0  0  0  0  0  0
   -6.0716   12.2689   -9.8542 H   0  0  0  0  0  0  0  0  0  0  0  0
   -8.1374   10.1224  -13.9131 H   0  0  0  0  0  0  0  0  0  0  0  0
   -6.8466   12.2604  -14.0624 H   0  0  0  0  0  0  0  0  0  0  0  0
   -8.6759    7.9956   -9.4383 H   0  0  0  0  0  0  0  0  0  0  0  0
   -8.0269    9.5780   -7.2478 H   0  0  0  0  0  0  0  0  0  0  0  0
   -5.0791   13.4115  -13.0408 H   0  0  0  0  0  0  0  0  0  0  0  0
   -6.7507   12.3156   -6.9255 H   0  0  0  0  0  0  0  0  0  0  0  0
   -4.5132   13.2816   -6.4664 H   0  0  0  0  0  0  0  0  0  0  0  0
   -2.6683    9.7485   -8.0357 H   0  0  0  0  0  0  0  0  0  0  0  0
   -4.8817    8.8185   -7.4929 H   0  0  0  0  0  0  0  0  0  0  0  0
   -4.8676    9.5615   -9.1282 H   0  0  0  0  0  0  0  0  0  0  0  0
   -2.4090   14.2148   -6.1776 H   0  0  0  0  0  0  0  0  0  0  0  0
   -0.6475   10.5464   -7.5511 H   0  0  0  0  0  0  0  0  0  0  0  0
    1.4812   14.2962   -6.0855 H   0  0  0  0  0  0  0  0  0  0  0  0
    0.2196   15.4369   -6.6628 H   0  0  0  0  0  0  0  0  0  0  0  0
    0.1886   14.8468   -4.9665 H   0  0  0  0  0  0  0  0  0  0  0  0
   -5.2882   14.1185  -10.2095 H   0  0  0  0  0  0  0  0  0  0  0  0
   -4.0431   13.0269  -10.9057 H   0  0  0  0  0  0  0  0  0  0  0  0
   -3.9735   15.4217  -12.4385 H   0  0  0  0  0  0  0  0  0  0  0  0
   -4.0914   15.9235  -10.7178 H   0  0  0  0  0  0  0  0  0  0  0  0
   -1.7243   15.2430  -11.9952 H   0  0  0  0  0  0  0  0  0  0  0  0
   -0.0031   13.9147   -9.0666 H   0  0  0  0  0  0  0  0  0  0  0  0
    0.0973   13.7152  -10.8489 H   0  0  0  0  0  0  0  0  0  0  0  0
    0.1416   15.3586  -10.1252 H   0  0  0  0  0  0  0  0  0  0  0  0
  1  2  2  0  0  0  0
  1  4  1  0  0  0  0
  1 11  1  0  0  0  0
  2  6  1  0  0  0  0
  3  4  2  0  0  0  0
  3  5  1  0  0  0  0
  5  6  1  0  0  0  0
  5  9  2  0  0  0  0
  6  7  2  0  0  0  0
  7  8  1  0  0  0  0
  7 10  1  0  0  0  0
  8  9  1  0  0  0  0
 10 12  2  3  0  0  0
 11 24  1  0  0  0  0
 12 13  1  0  0  0  0
 12 17  1  0  0  0  0
 13 14  2  0  0  0  0
 14 15  1  0  0  0  0
 15 16  2  0  0  0  0
 15 18  1  0  0  0  0
 16 17  1  0  0  0  0
 18 19  2  0  0  0  0
 18 22  1  0  0  0  0
 19 20  1  0  0  0  0
 20 21  1  0  0  0  0
 20 23  1  0  0  0  0
 21 22  2  0  0  0  0
 24 25  1  0  0  0  0
 25 26  1  0  0  0  0
 26 27  1  0  0  0  0
 27 28  2  0  0  0  0
 27 29  1  0  0  0  0
  2 30  1  0  0  0  0
  3 31  1  0  0  0  0
  4 32  1  0  0  0  0
  8 33  1  0  0  0  0
 10 34  1  0  0  0  0
 11 35  1  0  0  0  0
 13 36  1  0  0  0  0
 14 37  1  0  0  0  0
 16 38  1  0  0  0  0
 17 39  1  0  0  0  0
 17 40  1  0  0  0  0
 19 41  1  0  0  0  0
 22 42  1  0  0  0  0
 23 43  1  0  0  0  0
 23 44  1  0  0  0  0
 23 45  1  0  0  0  0
 24 46  1  0  0  0  0
 24 47  1  0  0  0  0
 25 48  1  0  0  0  0
 25 49  1  0  0  0  0
 26 50  1  0  0  0  0
 29 51  1  0  0  0  0
 29 52  1  0  0  0  0
 29 53  1  0  0  0  0
M  END
> <Name>
27

> <IC50[uM]>
0.68

$$$$
27
  -OEChem-05192314333D
 Structure written by MMmdl.
 53 56  0     0  0  0  0  0  0999 V2000
   -6.3855   12.3606  -12.0031 C   0  0  0  0  0  0  0  0  0  0  0  0
   -6.5214   11.8004  -10.7171 C   0  0  0  0  0  0  0  0  0  0  0  0
   -7.6991   10.5797  -13.0384 C   0  0  0  0  0  0  0  0  0  0  0  0
   -6.9626   11.7779  -13.1031 C   0  0  0  0  0  0  0  0  0  0  0  0
   -7.8238   10.0198  -11.7523 C   0  0  0  0  0  0  0  0  0  0  0  0
   -7.2557   10.6213  -10.5956 C   0  0  0  0  0  0  0  0  0  0  0  0
   -7.6268    9.7501   -9.5073 C   0  0  0  0  0  0  0  0  0  0  0  0
   -8.3057    8.7491   -9.9816 N   0  0  0  0  0  0  0  0  0  0  0  0
   -8.4330    8.8776  -11.2917 N   0  0  0  0  0  0  0  0  0  0  0  0
   -7.3352    9.8817   -8.0196 C   0  0  0  0  0  0  0  0  0  0  0  0
   -5.6205   13.5372  -12.2095 N   0  0  0  0  0  0  0  0  0  0  0  0
   -5.9727   10.4835   -7.7324 C   0  0  0  0  0  0  0  0  0  0  0  0
   -5.8611   11.7523   -7.1657 C   0  0  0  0  0  0  0  0  0  0  0  0
   -4.5946   12.2988   -6.9068 C   0  0  0  0  0  0  0  0  0  0  0  0
   -3.4432   11.5806   -7.2147 C   0  0  0  0  0  0  0  0  0  0  0  0
   -3.5570   10.3109   -7.7899 C   0  0  0  0  0  0  0  0  0  0  0  0
   -4.8253    9.7663   -8.0483 C   0  0  0  0  0  0  0  0  0  0  0  0
   -2.0926   12.1556   -6.9444 C   0  0  0  0  0  0  0  0  0  0  0  0
   -1.7338   13.4204   -6.4594 C   0  0  0  0  0  0  0  0  0  0  0  0
   -0.4064   13.4584   -6.4114 N   0  0  0  0  0  0  0  0  0  0  0  0
    0.1793   12.3493   -6.7865 N   0  0  0  0  0  0  0  0  0  0  0  0
   -0.7954   11.5387   -7.1512 C   0  0  0  0  0  0  0  0  0  0  0  0
    0.4205   14.5767   -6.0073 C   0  0  0  0  0  0  0  0  0  0  0  0
   -4.6894   13.8945  -11.1046 C   0  0  0  0  0  0  0  0  0  0  0  0
   -3.7822   15.1171  -11.3990 C   0  0  0  0  0  0  0  0  0  0  0  0
   -2.3310   14.9579  -11.2532 N   0  0  0  0  0  0  0  0  0  0  0  0
   -1.8099   14.4326  -10.1320 C   0  0  0  0  0  0  0  0  0  0  0  0
   -2.5019   14.0442   -9.2076 O   0  0  0  0  0  0  0  0  0  0  0  0
   -0.2869   14.3494  -10.0364 C   0  0  0  0  0  0  0  0  0  0  0  0
   -6.0716   12.2689   -9.8542 H   0  0  0  0  0  0  0  0  0  0  0  0
   -8.1374   10.1224  -13.9131 H   0  0  0  0  0  0  0  0  0  0  0  0
   -6.8466   12.2604  -14.0624 H   0  0  0  0  0  0  0  0  0  0  0  0
   -8.9138    8.2235  -11.8756 H   0  0  0  0  0  0  0  0  0  0  0  0
   -8.0269    9.5780   -7.2478 H   0  0  0  0  0  0  0  0  0  0  0  0
   -5.0791   13.4115  -13.0408 H   0  0  0  0  0  0  0  0  0  0  0  0
   -6.7507   12.3156   -6.9255 H   0  0  0  0  0  0  0  0  0  0  0  0
   -4.5132   13.2816   -6.4664 H   0  0  0  0  0  0  0  0  0  0  0  0
   -2.6683    9.7485   -8.0357 H   0  0  0  0  0  0  0  0  0  0  0  0
   -4.8817    8.8185   -7.4929 H   0  0  0  0  0  0  0  0  0  0  0  0
   -4.8676    9.5615   -9.1282 H   0  0  0  0  0  0  0  0  0  0  0  0
   -2.4090   14.2148   -6.1776 H   0  0  0  0  0  0  0  0  0  0  0  0
   -0.6475   10.5464   -7.5511 H   0  0  0  0  0  0  0  0  0  0  0  0
    1.4812   14.2962   -6.0855 H   0  0  0  0  0  0  0  0  0  0  0  0
    0.2196   15.4369   -6.6628 H   0  0  0  0  0  0  0  0  0  0  0  0
    0.1886   14.8468   -4.9665 H   0  0  0  0  0  0  0  0  0  0  0  0
   -5.2882   14.1185  -10.2095 H   0  0  0  0  0  0  0  0  0  0  0  0
   -4.0431   13.0269  -10.9057 H   0  0  0  0  0  0  0  0  0  0  0  0
   -3.9735   15.4217  -12.4385 H   0  0  0  0  0  0  0  0  0  0  0  0
   -4.0914   15.9235  -10.7178 H   0  0  0  0  0  0  0  0  0  0  0  0
   -1.7243   15.2430  -11.9952 H   0  0  0  0  0  0  0  0  0  0  0  0
   -0.0031   13.9147   -9.0666 H   0  0  0  0  0  0  0  0  0  0  0  0
    0.0973   13.7152  -10.8489 H   0  0  0  0  0  0  0  0  0  0  0  0
    0.1416   15.3586  -10.1252 H   0  0  0  0  0  0  0  0  0  0  0  0
  1  2  2  0  0  0  0
  1  4  1  0  0  0  0
  1 11  1  0  0  0  0
  2  6  1  0  0  0  0
  3  4  2  0  0  0  0
  3  5  1  0  0  0  0
  5  6  2  0  0  0  0
  5  9  1  0  0  0  0
  6  7  1  0  0  0  0
  7  8  2  0  0  0  0
  7 10  1  0  0  0  0
  8  9  1  0  0  0  0
 10 12  2  3  0  0  0
 11 24  1  0  0  0  0
 12 13  1  0  0  0  0
 12 17  1  0  0  0  0
 13 14  2  0  0  0  0
 14 15  1  0  0  0  0
 15 16  2  0  0  0  0
 15 18  1  0  0  0  0
 16 17  1  0  0  0  0
 18 19  2  0  0  0  0
 18 22  1  0  0  0  0
 19 20  1  0  0  0  0
 20 21  1  0  0  0  0
 20 23  1  0  0  0  0
 21 22  2  0  0  0  0
 24 25  1  0  0  0  0
 25 26  1  0  0  0  0
 26 27  1  0  0  0  0
 27 28  2  0  0  0  0
 27 29  1  0  0  0  0
  2 30  1  0  0  0  0
  3 31  1  0  0  0  0
  4 32  1  0  0  0  0
  9 33  1  0  0  0  0
 10 34  1  0  0  0  0
 11 35  1  0  0  0  0
 13 36  1  0  0  0  0
 14 37  1  0  0  0  0
 16 38  1  0  0  0  0
 17 39  1  0  0  0  0
 17 40  1  0  0  0  0
 19 41  1  0  0  0  0
 22 42  1  0  0  0  0
 23 43  1  0  0  0  0
 23 44  1  0  0  0  0
 23 45  1  0  0  0  0
 24 46  1  0  0  0  0
 24 47  1  0  0  0  0
 25 48  1  0  0  0  0
 25 49  1  0  0  0  0
 26 50  1  0  0  0  0
 29 51  1  0  0  0  0
 29 52  1  0  0  0  0
 29 53  1  0  0  0  0
M  END
> <Name>
27

> <IC50[uM]>
0.68

$$$$
27
  -OEChem-05192314333D
 Structure written by MMmdl.
 53 56  0     0  0  0  0  0  0999 V2000
   -6.3855   12.3606  -12.0031 C   0  0  0  0  0  0  0  0  0  0  0  0
   -6.5214   11.8004  -10.7171 C   0  0  0  0  0  0  0  0  0  0  0  0
   -7.6991   10.5797  -13.0384 C   0  0  0  0  0  0  0  0  0  0  0  0
   -6.9626   11.7779  -13.1031 C   0  0  0  0  0  0  0  0  0  0  0  0
   -7.8238   10.0198  -11.7523 C   0  0  0  0  0  0  0  0  0  0  0  0
   -7.2557   10.6213  -10.5956 C   0  0  0  0  0  0  0  0  0  0  0  0
   -7.6268    9.7501   -9.5073 C   0  0  0  0  0  0  0  0  0  0  0  0
   -8.3057    8.7491   -9.9816 N   0  0  0  0  0  0  0  0  0  0  0  0
   -8.4330    8.8776  -11.2917 N   0  0  0  0  0  0  0  0  0  0  0  0
   -7.3352    9.8817   -8.0196 C   0  0  0  0  0  0  0  0  0  0  0  0
   -5.6205   13.5372  -12.2095 N   0  0  0  0  0  0  0  0  0  0  0  0
   -5.9727   10.4835   -7.7324 C   0  0  0  0  0  0  0  0  0  0  0  0
   -5.8611   11.7523   -7.1657 C   0  0  0  0  0  0  0  0  0  0  0  0
   -4.5946   12.2988   -6.9068 C   0  0  0  0  0  0  0  0  0  0  0  0
   -3.4432   11.5806   -7.2147 C   0  0  0  0  0  0  0  0  0  0  0  0
   -3.5570   10.3109   -7.7899 C   0  0  0  0  0  0  0  0  0  0  0  0
   -4.8253    9.7663   -8.0483 C   0  0  0  0  0  0  0  0  0  0  0  0
   -2.0926   12.1556   -6.9444 C   0  0  0  0  0  0  0  0  0  0  0  0
   -1.7338   13.4204   -6.4594 C   0  0  0  0  0  0  0  0  0  0  0  0
   -0.4064   13.4584   -6.4114 N   0  0  0  0  0  0  0  0  0  0  0  0
    0.1793   12.3493   -6.7865 N   0  0  0  0  0  0  0  0  0  0  0  0
   -0.7954   11.5387   -7.1512 C   0  0  0  0  0  0  0  0  0  0  0  0
    0.4205   14.5767   -6.0073 C   0  0  0  0  0  0  0  0  0  0  0  0
   -4.6894   13.8945  -11.1046 C   0  0  0  0  0  0  0  0  0  0  0  0
   -3.7822   15.1171  -11.3990 C   0  0  0  0  0  0  0  0  0  0  0  0
   -2.3310   14.9579  -11.2532 N   0  0  0  0  0  0  0  0  0  0  0  0
   -1.8099   14.4326  -10.1320 C   0  0  0  0  0  0  0  0  0  0  0  0
   -2.5019   14.0442   -9.2076 O   0  0  0  0  0  0  0  0  0  0  0  0
   -0.2869   14.3494  -10.0364 C   0  0  0  0  0  0  0  0  0  0  0  0
   -6.0716   12.2689   -9.8542 H   0  0  0  0  0  0  0  0  0  0  0  0
   -8.1374   10.1224  -13.9131 H   0  0  0  0  0  0  0  0  0  0  0  0
   -6.8466   12.2604  -14.0624 H   0  0  0  0  0  0  0  0  0  0  0  0
   -8.6759    7.9956   -9.4383 H   0  0  0  0  0  0  0  0  0  0  0  0
   -8.0269    9.5780   -7.2478 H   0  0  0  0  0  0  0  0  0  0  0  0
   -5.0791   13.4115  -13.0408 H   0  0  0  0  0  0  0  0  0  0  0  0
   -6.7507   12.3156   -6.9255 H   0  0  0  0  0  0  0  0  0  0  0  0
   -4.5132   13.2816   -6.4664 H   0  0  0  0  0  0  0  0  0  0  0  0
   -3.4540   11.1294   -6.2116 H   0  0  0  0  0  0  0  0  0  0  0  0
   -2.6683    9.7485   -8.0357 H   0  0  0  0  0  0  0  0  0  0  0  0
   -4.9092    8.7863   -8.4943 H   0  0  0  0  0  0  0  0  0  0  0  0
   -2.4090   14.2148   -6.1776 H   0  0  0  0  0  0  0  0  0  0  0  0
   -0.6475   10.5464   -7.5511 H   0  0  0  0  0  0  0  0  0  0  0  0
    1.4812   14.2962   -6.0855 H   0  0  0  0  0  0  0  0  0  0  0  0
    0.2196   15.4369   -6.6628 H   0  0  0  0  0  0  0  0  0  0  0  0
    0.1886   14.8468   -4.9665 H   0  0  0  0  0  0  0  0  0  0  0  0
   -5.2882   14.1185  -10.2095 H   0  0  0  0  0  0  0  0  0  0  0  0
   -4.0431   13.0269  -10.9057 H   0  0  0  0  0  0  0  0  0  0  0  0
   -3.9735   15.4217  -12.4385 H   0  0  0  0  0  0  0  0  0  0  0  0
   -4.0914   15.9235  -10.7178 H   0  0  0  0  0  0  0  0  0  0  0  0
   -1.9457   13.7098   -8.5138 H   0  0  0  0  0  0  0  0  0  0  0  0
   -0.0034   13.9020   -9.0723 H   0  0  0  0  0  0  0  0  0  0  0  0
    0.0984   13.7264  -10.8570 H   0  0  0  0  0  0  0  0  0  0  0  0
    0.1408   15.3601  -10.1114 H   0  0  0  0  0  0  0  0  0  0  0  0
  1  2  2  0  0  0  0
  1  4  1  0  0  0  0
  1 11  1  0  0  0  0
  2  6  1  0  0  0  0
  3  4  2  0  0  0  0
  3  5  1  0  0  0  0
  5  6  1  0  0  0  0
  5  9  2  0  0  0  0
  6  7  2  0  0  0  0
  7  8  1  0  0  0  0
  7 10  1  0  0  0  0
  8  9  1  0  0  0  0
 10 12  2  0  0  0  0
 11 24  1  0  0  0  0
 12 13  1  0  0  0  0
 12 17  1  0  0  0  0
 13 14  2  0  0  0  0
 14 15  1  0  0  0  0
 15 16  1  0  0  0  0
 15 18  1  0  0  0  0
 16 17  2  0  0  0  0
 18 19  2  0  0  0  0
 18 22  1  0  0  0  0
 19 20  1  0  0  0  0
 20 21  1  0  0  0  0
 20 23  1  0  0  0  0
 21 22  2  0  0  0  0
 24 25  1  0  0  0  0
 25 26  1  0  0  0  0
 26 27  2  0  0  0  0
 27 28  1  0  0  0  0
 27 29  1  0  0  0  0
  2 30  1  0  0  0  0
  3 31  1  0  0  0  0
  4 32  1  0  0  0  0
  8 33  1  0  0  0  0
 10 34  1  0  0  0  0
 11 35  1  0  0  0  0
 13 36  1  0  0  0  0
 14 37  1  0  0  0  0
 15 38  1  0  0  0  0
 16 39  1  0  0  0  0
 17 40  1  0  0  0  0
 19 41  1  0  0  0  0
 22 42  1  0  0  0  0
 23 43  1  0  0  0  0
 23 44  1  0  0  0  0
 23 45  1  0  0  0  0
 24 46  1  0  0  0  0
 24 47  1  0  0  0  0
 25 48  1  0  0  0  0
 25 49  1  0  0  0  0
 28 50  1  0  0  0  0
 29 51  1  0  0  0  0
 29 52  1  0  0  0  0
 29 53  1  0  0  0  0
M  END
> <Name>
27

> <IC50[uM]>
0.68

$$$$
27
  -OEChem-05192314333D
 Structure written by MMmdl.
 53 56  0     0  0  0  0  0  0999 V2000
   -6.3855   12.3606  -12.0031 C   0  0  0  0  0  0  0  0  0  0  0  0
   -6.5214   11.8004  -10.7171 C   0  0  0  0  0  0  0  0  0  0  0  0
   -7.6991   10.5797  -13.0384 C   0  0  0  0  0  0  0  0  0  0  0  0
   -6.9626   11.7779  -13.1031 C   0  0  0  0  0  0  0  0  0  0  0  0
   -7.8238   10.0198  -11.7523 C   0  0  0  0  0  0  0  0  0  0  0  0
   -7.2557   10.6213  -10.5956 C   0  0  0  0  0  0  0  0  0  0  0  0
   -7.6268    9.7501   -9.5073 C   0  0  0  0  0  0  0  0  0  0  0  0
   -8.3057    8.7491   -9.9816 N   0  0  0  0  0  0  0  0  0  0  0  0
   -8.4330    8.8776  -11.2917 N   0  0  0  0  0  0  0  0  0  0  0  0
   -7.3352    9.8817   -8.0196 C   0  0  0  0  0  0  0  0  0  0  0  0
   -5.6205   13.5372  -12.2095 N   0  0  0  0  0  0  0  0  0  0  0  0
   -5.9727   10.4835   -7.7324 C   0  0  0  0  0  0  0  0  0  0  0  0
   -5.8611   11.7523   -7.1657 C   0  0  0  0  0  0  0  0  0  0  0  0
   -4.5946   12.2988   -6.9068 C   0  0  0  0  0  0  0  0  0  0  0  0
   -3.4432   11.5806   -7.2147 C   0  0  0  0  0  0  0  0  0  0  0  0
   -3.5570   10.3109   -7.7899 C   0  0  0  0  0  0  0  0  0  0  0  0
   -4.8253    9.7663   -8.0483 C   0  0  0  0  0  0  0  0  0  0  0  0
   -2.0926   12.1556   -6.9444 C   0  0  0  0  0  0  0  0  0  0  0  0
   -1.7338   13.4204   -6.4594 C   0  0  0  0  0  0  0  0  0  0  0  0
   -0.4064   13.4584   -6.4114 N   0  0  0  0  0  0  0  0  0  0  0  0
    0.1793   12.3493   -6.7865 N   0  0  0  0  0  0  0  0  0  0  0  0
   -0.7954   11.5387   -7.1512 C   0  0  0  0  0  0  0  0  0  0  0  0
    0.4205   14.5767   -6.0073 C   0  0  0  0  0  0  0  0  0  0  0  0
   -4.6894   13.8945  -11.1046 C   0  0  0  0  0  0  0  0  0  0  0  0
   -3.7822   15.1171  -11.3990 C   0  0  0  0  0  0  0  0  0  0  0  0
   -2.3310   14.9579  -11.2532 N   0  0  0  0  0  0  0  0  0  0  0  0
   -1.8099   14.4326  -10.1320 C   0  0  0  0  0  0  0  0  0  0  0  0
   -2.5019   14.0442   -9.2076 O   0  0  0  0  0  0  0  0  0  0  0  0
   -0.2869   14.3494  -10.0364 C   0  0  0  0  0  0  0  0  0  0  0  0
   -6.0716   12.2689   -9.8542 H   0  0  0  0  0  0  0  0  0  0  0  0
   -8.1374   10.1224  -13.9131 H   0  0  0  0  0  0  0  0  0  0  0  0
   -6.8466   12.2604  -14.0624 H   0  0  0  0  0  0  0  0  0  0  0  0
   -8.9138    8.2235  -11.8756 H   0  0  0  0  0  0  0  0  0  0  0  0
   -8.0269    9.5780   -7.2478 H   0  0  0  0  0  0  0  0  0  0  0  0
   -5.0791   13.4115  -13.0408 H   0  0  0  0  0  0  0  0  0  0  0  0
   -6.7507   12.3156   -6.9255 H   0  0  0  0  0  0  0  0  0  0  0  0
   -4.5132   13.2816   -6.4664 H   0  0  0  0  0  0  0  0  0  0  0  0
   -3.4540   11.1294   -6.2116 H   0  0  0  0  0  0  0  0  0  0  0  0
   -2.6683    9.7485   -8.0357 H   0  0  0  0  0  0  0  0  0  0  0  0
   -4.9092    8.7863   -8.4943 H   0  0  0  0  0  0  0  0  0  0  0  0
   -2.4090   14.2148   -6.1776 H   0  0  0  0  0  0  0  0  0  0  0  0
   -0.6475   10.5464   -7.5511 H   0  0  0  0  0  0  0  0  0  0  0  0
    1.4812   14.2962   -6.0855 H   0  0  0  0  0  0  0  0  0  0  0  0
    0.2196   15.4369   -6.6628 H   0  0  0  0  0  0  0  0  0  0  0  0
    0.1886   14.8468   -4.9665 H   0  0  0  0  0  0  0  0  0  0  0  0
   -5.2882   14.1185  -10.2095 H   0  0  0  0  0  0  0  0  0  0  0  0
   -4.0431   13.0269  -10.9057 H   0  0  0  0  0  0  0  0  0  0  0  0
   -3.9735   15.4217  -12.4385 H   0  0  0  0  0  0  0  0  0  0  0  0
   -4.0914   15.9235  -10.7178 H   0  0  0  0  0  0  0  0  0  0  0  0
   -1.9457   13.7098   -8.5138 H   0  0  0  0  0  0  0  0  0  0  0  0
   -0.0034   13.9020   -9.0723 H   0  0  0  0  0  0  0  0  0  0  0  0
    0.0984   13.7264  -10.8570 H   0  0  0  0  0  0  0  0  0  0  0  0
    0.1408   15.3601  -10.1114 H   0  0  0  0  0  0  0  0  0  0  0  0
  1  2  2  0  0  0  0
  1  4  1  0  0  0  0
  1 11  1  0  0  0  0
  2  6  1  0  0  0  0
  3  4  2  0  0  0  0
  3  5  1  0  0  0  0
  5  6  2  0  0  0  0
  5  9  1  0  0  0  0
  6  7  1  0  0  0  0
  7  8  2  0  0  0  0
  7 10  1  0  0  0  0
  8  9  1  0  0  0  0
 10 12  2  0  0  0  0
 11 24  1  0  0  0  0
 12 13  1  0  0  0  0
 12 17  1  0  0  0  0
 13 14  2  0  0  0  0
 14 15  1  0  0  0  0
 15 16  1  0  0  0  0
 15 18  1  0  0  0  0
 16 17  2  0  0  0  0
 18 19  2  0  0  0  0
 18 22  1  0  0  0  0
 19 20  1  0  0  0  0
 20 21  1  0  0  0  0
 20 23  1  0  0  0  0
 21 22  2  0  0  0  0
 24 25  1  0  0  0  0
 25 26  1  0  0  0  0
 26 27  2  0  0  0  0
 27 28  1  0  0  0  0
 27 29  1  0  0  0  0
  2 30  1  0  0  0  0
  3 31  1  0  0  0  0
  4 32  1  0  0  0  0
  9 33  1  0  0  0  0
 10 34  1  0  0  0  0
 11 35  1  0  0  0  0
 13 36  1  0  0  0  0
 14 37  1  0  0  0  0
 15 38  1  0  0  0  0
 16 39  1  0  0  0  0
 17 40  1  0  0  0  0
 19 41  1  0  0  0  0
 22 42  1  0  0  0  0
 23 43  1  0  0  0  0
 23 44  1  0  0  0  0
 23 45  1  0  0  0  0
 24 46  1  0  0  0  0
 24 47  1  0  0  0  0
 25 48  1  0  0  0  0
 25 49  1  0  0  0  0
 28 50  1  0  0  0  0
 29 51  1  0  0  0  0
 29 52  1  0  0  0  0
 29 53  1  0  0  0  0
M  END
> <Name>
27

> <IC50[uM]>
0.68

$$$$
27
  -OEChem-05192314333D
 Structure written by MMmdl.
 53 56  0     0  0  0  0  0  0999 V2000
   -6.3855   12.3606  -12.0031 C   0  0  0  0  0  0  0  0  0  0  0  0
   -6.5214   11.8004  -10.7171 C   0  0  0  0  0  0  0  0  0  0  0  0
   -7.6991   10.5797  -13.0384 C   0  0  0  0  0  0  0  0  0  0  0  0
   -6.9626   11.7779  -13.1031 C   0  0  0  0  0  0  0  0  0  0  0  0
   -7.8238   10.0198  -11.7523 C   0  0  0  0  0  0  0  0  0  0  0  0
   -7.2557   10.6213  -10.5956 C   0  0  0  0  0  0  0  0  0  0  0  0
   -7.6268    9.7501   -9.5073 C   0  0  0  0  0  0  0  0  0  0  0  0
   -8.3057    8.7491   -9.9816 N   0  0  0  0  0  0  0  0  0  0  0  0
   -8.4330    8.8776  -11.2917 N   0  0  0  0  0  0  0  0  0  0  0  0
   -7.3352    9.8817   -8.0196 C   0  0  0  0  0  0  0  0  0  0  0  0
   -5.6205   13.5372  -12.2095 N   0  0  0  0  0  0  0  0  0  0  0  0
   -5.9727   10.4835   -7.7324 C   0  0  0  0  0  0  0  0  0  0  0  0
   -5.8611   11.7523   -7.1657 C   0  0  0  0  0  0  0  0  0  0  0  0
   -4.5946   12.2988   -6.9068 C   0  0  0  0  0  0  0  0  0  0  0  0
   -3.4432   11.5806   -7.2147 C   0  0  0  0  0  0  0  0  0  0  0  0
   -3.5570   10.3109   -7.7899 C   0  0  0  0  0  0  0  0  0  0  0  0
   -4.8253    9.7663   -8.0483 C   0  0  0  0  0  0  0  0  0  0  0  0
   -2.0926   12.1556   -6.9444 C   0  0  0  0  0  0  0  0  0  0  0  0
   -1.7338   13.4204   -6.4594 C   0  0  0  0  0  0  0  0  0  0  0  0
   -0.4064   13.4584   -6.4114 N   0  0  0  0  0  0  0  0  0  0  0  0
    0.1793   12.3493   -6.7865 N   0  0  0  0  0  0  0  0  0  0  0  0
   -0.7954   11.5387   -7.1512 C   0  0  0  0  0  0  0  0  0  0  0  0
    0.4205   14.5767   -6.0073 C   0  0  0  0  0  0  0  0  0  0  0  0
   -4.6894   13.8945  -11.1046 C   0  0  0  0  0  0  0  0  0  0  0  0
   -3.7822   15.1171  -11.3990 C   0  0  0  0  0  0  0  0  0  0  0  0
   -2.3310   14.9579  -11.2532 N   0  0  0  0  0  0  0  0  0  0  0  0
   -1.8099   14.4326  -10.1320 C   0  0  0  0  0  0  0  0  0  0  0  0
   -2.5019   14.0442   -9.2076 O   0  0  0  0  0  0  0  0  0  0  0  0
   -0.2869   14.3494  -10.0364 C   0  0  0  0  0  0  0  0  0  0  0  0
   -6.0716   12.2689   -9.8542 H   0  0  0  0  0  0  0  0  0  0  0  0
   -8.1374   10.1224  -13.9131 H   0  0  0  0  0  0  0  0  0  0  0  0
   -6.8466   12.2604  -14.0624 H   0  0  0  0  0  0  0  0  0  0  0  0
   -8.6759    7.9956   -9.4383 H   0  0  0  0  0  0  0  0  0  0  0  0
   -8.0269    9.5780   -7.2478 H   0  0  0  0  0  0  0  0  0  0  0  0
   -5.0791   13.4115  -13.0408 H   0  0  0  0  0  0  0  0  0  0  0  0
   -6.7507   12.3156   -6.9255 H   0  0  0  0  0  0  0  0  0  0  0  0
   -4.5132   13.2816   -6.4664 H   0  0  0  0  0  0  0  0  0  0  0  0
   -2.6683    9.7485   -8.0357 H   0  0  0  0  0  0  0  0  0  0  0  0
   -4.8817    8.8185   -7.4929 H   0  0  0  0  0  0  0  0  0  0  0  0
   -4.8676    9.5615   -9.1282 H   0  0  0  0  0  0  0  0  0  0  0  0
   -2.4090   14.2148   -6.1776 H   0  0  0  0  0  0  0  0  0  0  0  0
   -0.6475   10.5464   -7.5511 H   0  0  0  0  0  0  0  0  0  0  0  0
    1.4812   14.2962   -6.0855 H   0  0  0  0  0  0  0  0  0  0  0  0
    0.2196   15.4369   -6.6628 H   0  0  0  0  0  0  0  0  0  0  0  0
    0.1886   14.8468   -4.9665 H   0  0  0  0  0  0  0  0  0  0  0  0
   -5.2882   14.1185  -10.2095 H   0  0  0  0  0  0  0  0  0  0  0  0
   -4.0431   13.0269  -10.9057 H   0  0  0  0  0  0  0  0  0  0  0  0
   -3.9735   15.4217  -12.4385 H   0  0  0  0  0  0  0  0  0  0  0  0
   -4.0914   15.9235  -10.7178 H   0  0  0  0  0  0  0  0  0  0  0  0
   -1.9457   13.7098   -8.5138 H   0  0  0  0  0  0  0  0  0  0  0  0
   -0.0034   13.9020   -9.0723 H   0  0  0  0  0  0  0  0  0  0  0  0
    0.0984   13.7264  -10.8570 H   0  0  0  0  0  0  0  0  0  0  0  0
    0.1408   15.3601  -10.1114 H   0  0  0  0  0  0  0  0  0  0  0  0
  1  2  2  0  0  0  0
  1  4  1  0  0  0  0
  1 11  1  0  0  0  0
  2  6  1  0  0  0  0
  3  4  2  0  0  0  0
  3  5  1  0  0  0  0
  5  6  1  0  0  0  0
  5  9  2  0  0  0  0
  6  7  2  0  0  0  0
  7  8  1  0  0  0  0
  7 10  1  0  0  0  0
  8  9  1  0  0  0  0
 10 12  2  3  0  0  0
 11 24  1  0  0  0  0
 12 13  1  0  0  0  0
 12 17  1  0  0  0  0
 13 14  2  0  0  0  0
 14 15  1  0  0  0  0
 15 16  2  0  0  0  0
 15 18  1  0  0  0  0
 16 17  1  0  0  0  0
 18 19  2  0  0  0  0
 18 22  1  0  0  0  0
 19 20  1  0  0  0  0
 20 21  1  0  0  0  0
 20 23  1  0  0  0  0
 21 22  2  0  0  0  0
 24 25  1  0  0  0  0
 25 26  1  0  0  0  0
 26 27  2  0  0  0  0
 27 28  1  0  0  0  0
 27 29  1  0  0  0  0
  2 30  1  0  0  0  0
  3 31  1  0  0  0  0
  4 32  1  0  0  0  0
  8 33  1  0  0  0  0
 10 34  1  0  0  0  0
 11 35  1  0  0  0  0
 13 36  1  0  0  0  0
 14 37  1  0  0  0  0
 16 38  1  0  0  0  0
 17 39  1  0  0  0  0
 17 40  1  0  0  0  0
 19 41  1  0  0  0  0
 22 42  1  0  0  0  0
 23 43  1  0  0  0  0
 23 44  1  0  0  0  0
 23 45  1  0  0  0  0
 24 46  1  0  0  0  0
 24 47  1  0  0  0  0
 25 48  1  0  0  0  0
 25 49  1  0  0  0  0
 28 50  1  0  0  0  0
 29 51  1  0  0  0  0
 29 52  1  0  0  0  0
 29 53  1  0  0  0  0
M  END
> <Name>
27

> <IC50[uM]>
0.68

$$$$
27
  -OEChem-05192314333D
 Structure written by MMmdl.
 53 56  0     0  0  0  0  0  0999 V2000
   -6.3855   12.3606  -12.0031 C   0  0  0  0  0  0  0  0  0  0  0  0
   -6.5214   11.8004  -10.7171 C   0  0  0  0  0  0  0  0  0  0  0  0
   -7.6991   10.5797  -13.0384 C   0  0  0  0  0  0  0  0  0  0  0  0
   -6.9626   11.7779  -13.1031 C   0  0  0  0  0  0  0  0  0  0  0  0
   -7.8238   10.0198  -11.7523 C   0  0  0  0  0  0  0  0  0  0  0  0
   -7.2557   10.6213  -10.5956 C   0  0  0  0  0  0  0  0  0  0  0  0
   -7.6268    9.7501   -9.5073 C   0  0  0  0  0  0  0  0  0  0  0  0
   -8.3057    8.7491   -9.9816 N   0  0  0  0  0  0  0  0  0  0  0  0
   -8.4330    8.8776  -11.2917 N   0  0  0  0  0  0  0  0  0  0  0  0
   -7.3352    9.8817   -8.0196 C   0  0  0  0  0  0  0  0  0  0  0  0
   -5.6205   13.5372  -12.2095 N   0  0  0  0  0  0  0  0  0  0  0  0
   -5.9727   10.4835   -7.7324 C   0  0  0  0  0  0  0  0  0  0  0  0
   -5.8611   11.7523   -7.1657 C   0  0  0  0  0  0  0  0  0  0  0  0
   -4.5946   12.2988   -6.9068 C   0  0  0  0  0  0  0  0  0  0  0  0
   -3.4432   11.5806   -7.2147 C   0  0  0  0  0  0  0  0  0  0  0  0
   -3.5570   10.3109   -7.7899 C   0  0  0  0  0  0  0  0  0  0  0  0
   -4.8253    9.7663   -8.0483 C   0  0  0  0  0  0  0  0  0  0  0  0
   -2.0926   12.1556   -6.9444 C   0  0  0  0  0  0  0  0  0  0  0  0
   -1.7338   13.4204   -6.4594 C   0  0  0  0  0  0  0  0  0  0  0  0
   -0.4064   13.4584   -6.4114 N   0  0  0  0  0  0  0  0  0  0  0  0
    0.1793   12.3493   -6.7865 N   0  0  0  0  0  0  0  0  0  0  0  0
   -0.7954   11.5387   -7.1512 C   0  0  0  0  0  0  0  0  0  0  0  0
    0.4205   14.5767   -6.0073 C   0  0  0  0  0  0  0  0  0  0  0  0
   -4.6894   13.8945  -11.1046 C   0  0  0  0  0  0  0  0  0  0  0  0
   -3.7822   15.1171  -11.3990 C   0  0  0  0  0  0  0  0  0  0  0  0
   -2.3310   14.9579  -11.2532 N   0  0  0  0  0  0  0  0  0  0  0  0
   -1.8099   14.4326  -10.1320 C   0  0  0  0  0  0  0  0  0  0  0  0
   -2.5019   14.0442   -9.2076 O   0  0  0  0  0  0  0  0  0  0  0  0
   -0.2869   14.3494  -10.0364 C   0  0  0  0  0  0  0  0  0  0  0  0
   -6.0716   12.2689   -9.8542 H   0  0  0  0  0  0  0  0  0  0  0  0
   -8.1374   10.1224  -13.9131 H   0  0  0  0  0  0  0  0  0  0  0  0
   -6.8466   12.2604  -14.0624 H   0  0  0  0  0  0  0  0  0  0  0  0
   -8.9138    8.2235  -11.8756 H   0  0  0  0  0  0  0  0  0  0  0  0
   -8.0269    9.5780   -7.2478 H   0  0  0  0  0  0  0  0  0  0  0  0
   -5.0791   13.4115  -13.0408 H   0  0  0  0  0  0  0  0  0  0  0  0
   -6.7507   12.3156   -6.9255 H   0  0  0  0  0  0  0  0  0  0  0  0
   -4.5132   13.2816   -6.4664 H   0  0  0  0  0  0  0  0  0  0  0  0
   -2.6683    9.7485   -8.0357 H   0  0  0  0  0  0  0  0  0  0  0  0
   -4.8817    8.8185   -7.4929 H   0  0  0  0  0  0  0  0  0  0  0  0
   -4.8676    9.5615   -9.1282 H   0  0  0  0  0  0  0  0  0  0  0  0
   -2.4090   14.2148   -6.1776 H   0  0  0  0  0  0  0  0  0  0  0  0
   -0.6475   10.5464   -7.5511 H   0  0  0  0  0  0  0  0  0  0  0  0
    1.4812   14.2962   -6.0855 H   0  0  0  0  0  0  0  0  0  0  0  0
    0.2196   15.4369   -6.6628 H   0  0  0  0  0  0  0  0  0  0  0  0
    0.1886   14.8468   -4.9665 H   0  0  0  0  0  0  0  0  0  0  0  0
   -5.2882   14.1185  -10.2095 H   0  0  0  0  0  0  0  0  0  0  0  0
   -4.0431   13.0269  -10.9057 H   0  0  0  0  0  0  0  0  0  0  0  0
   -3.9735   15.4217  -12.4385 H   0  0  0  0  0  0  0  0  0  0  0  0
   -4.0914   15.9235  -10.7178 H   0  0  0  0  0  0  0  0  0  0  0  0
   -1.9457   13.7098   -8.5138 H   0  0  0  0  0  0  0  0  0  0  0  0
   -0.0034   13.9020   -9.0723 H   0  0  0  0  0  0  0  0  0  0  0  0
    0.0984   13.7264  -10.8570 H   0  0  0  0  0  0  0  0  0  0  0  0
    0.1408   15.3601  -10.1114 H   0  0  0  0  0  0  0  0  0  0  0  0
  1  2  2  0  0  0  0
  1  4  1  0  0  0  0
  1 11  1  0  0  0  0
  2  6  1  0  0  0  0
  3  4  2  0  0  0  0
  3  5  1  0  0  0  0
  5  6  2  0  0  0  0
  5  9  1  0  0  0  0
  6  7  1  0  0  0  0
  7  8  2  0  0  0  0
  7 10  1  0  0  0  0
  8  9  1  0  0  0  0
 10 12  2  3  0  0  0
 11 24  1  0  0  0  0
 12 13  1  0  0  0  0
 12 17  1  0  0  0  0
 13 14  2  0  0  0  0
 14 15  1  0  0  0  0
 15 16  2  0  0  0  0
 15 18  1  0  0  0  0
 16 17  1  0  0  0  0
 18 19  2  0  0  0  0
 18 22  1  0  0  0  0
 19 20  1  0  0  0  0
 20 21  1  0  0  0  0
 20 23  1  0  0  0  0
 21 22  2  0  0  0  0
 24 25  1  0  0  0  0
 25 26  1  0  0  0  0
 26 27  2  0  0  0  0
 27 28  1  0  0  0  0
 27 29  1  0  0  0  0
  2 30  1  0  0  0  0
  3 31  1  0  0  0  0
  4 32  1  0  0  0  0
  9 33  1  0  0  0  0
 10 34  1  0  0  0  0
 11 35  1  0  0  0  0
 13 36  1  0  0  0  0
 14 37  1  0  0  0  0
 16 38  1  0  0  0  0
 17 39  1  0  0  0  0
 17 40  1  0  0  0  0
 19 41  1  0  0  0  0
 22 42  1  0  0  0  0
 23 43  1  0  0  0  0
 23 44  1  0  0  0  0
 23 45  1  0  0  0  0
 24 46  1  0  0  0  0
 24 47  1  0  0  0  0
 25 48  1  0  0  0  0
 25 49  1  0  0  0  0
 28 50  1  0  0  0  0
 29 51  1  0  0  0  0
 29 52  1  0  0  0  0
 29 53  1  0  0  0  0
M  END
> <Name>
27

> <IC50[uM]>
0.68

$$$$
27
  -OEChem-05192314333D
 Structure written by MMmdl.
 53 56  0     1  0  0  0  0  0999 V2000
   -6.3855   12.3606  -12.0031 C   0  0  0  0  0  0  0  0  0  0  0  0
   -6.5214   11.8004  -10.7171 C   0  0  0  0  0  0  0  0  0  0  0  0
   -7.6991   10.5797  -13.0384 C   0  0  0  0  0  0  0  0  0  0  0  0
   -6.9626   11.7779  -13.1031 C   0  0  0  0  0  0  0  0  0  0  0  0
   -7.8238   10.0198  -11.7523 C   0  0  0  0  0  0  0  0  0  0  0  0
   -7.2557   10.6213  -10.5956 C   0  0  0  0  0  0  0  0  0  0  0  0
   -7.6268    9.7501   -9.5073 C   0  0  0  0  0  0  0  0  0  0  0  0
   -8.3057    8.7491   -9.9816 N   0  0  0  0  0  0  0  0  0  0  0  0
   -8.4330    8.8776  -11.2917 N   0  0  0  0  0  0  0  0  0  0  0  0
   -7.3352    9.8817   -8.0196 C   0  0  0  0  0  0  0  0  0  0  0  0
   -5.6205   13.5372  -12.2095 N   0  0  0  0  0  0  0  0  0  0  0  0
   -5.9727   10.4835   -7.7324 C   0  0  0  0  0  0  0  0  0  0  0  0
   -5.8611   11.7523   -7.1657 C   0  0  0  0  0  0  0  0  0  0  0  0
   -4.5946   12.2988   -6.9068 C   0  0  0  0  0  0  0  0  0  0  0  0
   -3.4432   11.5806   -7.2147 C   0  0  0  0  0  0  0  0  0  0  0  0
   -3.5570   10.3109   -7.7899 C   0  0  0  0  0  0  0  0  0  0  0  0
   -4.8253    9.7663   -8.0483 C   0  0  0  0  0  0  0  0  0  0  0  0
   -2.0926   12.1556   -6.9444 C   0  0  3  0  0  0  0  0  0  0  0  0
   -1.7338   13.4204   -6.4594 C   0  0  0  0  0  0  0  0  0  0  0  0
   -0.4064   13.4584   -6.4114 N   0  0  3  0  0  0  0  0  0  0  0  0
    0.1793   12.3493   -6.7865 N   0  0  0  0  0  0  0  0  0  0  0  0
   -0.7954   11.5387   -7.1512 C   0  0  0  0  0  0  0  0  0  0  0  0
    0.4205   14.5767   -6.0073 C   0  0  0  0  0  0  0  0  0  0  0  0
   -4.6894   13.8945  -11.1046 C   0  0  0  0  0  0  0  0  0  0  0  0
   -3.7822   15.1171  -11.3990 C   0  0  0  0  0  0  0  0  0  0  0  0
   -2.3310   14.9579  -11.2532 N   0  0  0  0  0  0  0  0  0  0  0  0
   -1.8099   14.4326  -10.1320 C   0  0  0  0  0  0  0  0  0  0  0  0
   -2.5019   14.0442   -9.2076 O   0  0  0  0  0  0  0  0  0  0  0  0
   -0.2869   14.3494  -10.0364 C   0  0  0  0  0  0  0  0  0  0  0  0
   -6.0716   12.2689   -9.8542 H   0  0  0  0  0  0  0  0  0  0  0  0
   -8.1374   10.1224  -13.9131 H   0  0  0  0  0  0  0  0  0  0  0  0
   -6.8466   12.2604  -14.0624 H   0  0  0  0  0  0  0  0  0  0  0  0
   -8.0269    9.5780   -7.2478 H   0  0  0  0  0  0  0  0  0  0  0  0
   -5.0791   13.4115  -13.0408 H   0  0  0  0  0  0  0  0  0  0  0  0
   -6.7507   12.3156   -6.9255 H   0  0  0  0  0  0  0  0  0  0  0  0
   -4.5132   13.2816   -6.4664 H   0  0  0  0  0  0  0  0  0  0  0  0
   -2.6683    9.7485   -8.0357 H   0  0  0  0  0  0  0  0  0  0  0  0
   -4.9092    8.7863   -8.4943 H   0  0  0  0  0  0  0  0  0  0  0  0
   -2.1234   11.7627   -5.9174 H   0  0  0  0  0  0  0  0  0  0  0  0
   -2.1095   14.2037   -7.1341 H   0  0  0  0  0  0  0  0  0  0  0  0
   -2.1522   13.5713   -5.4533 H   0  0  0  0  0  0  0  0  0  0  0  0
   -0.6475   10.5464   -7.5511 H   0  0  0  0  0  0  0  0  0  0  0  0
    1.4812   14.2962   -6.0855 H   0  0  0  0  0  0  0  0  0  0  0  0
    0.2196   15.4369   -6.6628 H   0  0  0  0  0  0  0  0  0  0  0  0
    0.1886   14.8468   -4.9665 H   0  0  0  0  0  0  0  0  0  0  0  0
   -5.2882   14.1185  -10.2095 H   0  0  0  0  0  0  0  0  0  0  0  0
   -4.0431   13.0269  -10.9057 H   0  0  0  0  0  0  0  0  0  0  0  0
   -3.9735   15.4217  -12.4385 H   0  0  0  0  0  0  0  0  0  0  0  0
   -4.0914   15.9235  -10.7178 H   0  0  0  0  0  0  0  0  0  0  0  0
   -1.7243   15.2430  -11.9952 H   0  0  0  0  0  0  0  0  0  0  0  0
   -0.0031   13.9147   -9.0666 H   0  0  0  0  0  0  0  0  0  0  0  0
    0.0973   13.7152  -10.8489 H   0  0  0  0  0  0  0  0  0  0  0  0
    0.1416   15.3586  -10.1252 H   0  0  0  0  0  0  0  0  0  0  0  0
  1  2  2  0  0  0  0
  1  4  1  0  0  0  0
  1 11  1  0  0  0  0
  2  6  1  0  0  0  0
  3  4  2  0  0  0  0
  3  5  1  0  0  0  0
  5  6  2  0  0  0  0
  5  9  1  0  0  0  0
  6  7  1  0  0  0  0
  7  8  1  0  0  0  0
  7 10  2  3  0  0  0
  8  9  2  0  0  0  0
 10 12  1  0  0  0  0
 11 24  1  0  0  0  0
 12 13  2  0  0  0  0
 12 17  1  0  0  0  0
 13 14  1  0  0  0  0
 14 15  2  0  0  0  0
 15 16  1  0  0  0  0
 15 18  1  0  0  0  0
 16 17  2  0  0  0  0
 18 19  1  0  0  0  0
 18 22  1  0  0  0  0
 19 20  1  0  0  0  0
 20 21  1  0  0  0  0
 20 23  1  0  0  0  0
 21 22  2  0  0  0  0
 24 25  1  0  0  0  0
 25 26  1  0  0  0  0
 26 27  1  0  0  0  0
 27 28  2  0  0  0  0
 27 29  1  0  0  0  0
  2 30  1  0  0  0  0
  3 31  1  0  0  0  0
  4 32  1  0  0  0  0
 10 33  1  0  0  0  0
 11 34  1  0  0  0  0
 13 35  1  0  0  0  0
 14 36  1  0  0  0  0
 16 37  1  0  0  0  0
 17 38  1  0  0  0  0
 18 39  1  0  0  0  0
 19 40  1  0  0  0  0
 19 41  1  0  0  0  0
 22 42  1  0  0  0  0
 23 43  1  0  0  0  0
 23 44  1  0  0  0  0
 23 45  1  0  0  0  0
 24 46  1  0  0  0  0
 24 47  1  0  0  0  0
 25 48  1  0  0  0  0
 25 49  1  0  0  0  0
 26 50  1  0  0  0  0
 29 51  1  0  0  0  0
 29 52  1  0  0  0  0
 29 53  1  0  0  0  0
M  END
> <Name>
27

> <IC50[uM]>
0.68

$$$$
27
  -OEChem-05192314333D
 Structure written by MMmdl.
 53 56  0     1  0  0  0  0  0999 V2000
   -6.3855   12.3606  -12.0031 C   0  0  0  0  0  0  0  0  0  0  0  0
   -6.5214   11.8004  -10.7171 C   0  0  0  0  0  0  0  0  0  0  0  0
   -7.6991   10.5797  -13.0384 C   0  0  0  0  0  0  0  0  0  0  0  0
   -6.9626   11.7779  -13.1031 C   0  0  0  0  0  0  0  0  0  0  0  0
   -7.8238   10.0198  -11.7523 C   0  0  0  0  0  0  0  0  0  0  0  0
   -7.2557   10.6213  -10.5956 C   0  0  0  0  0  0  0  0  0  0  0  0
   -7.6268    9.7501   -9.5073 C   0  0  0  0  0  0  0  0  0  0  0  0
   -8.3057    8.7491   -9.9816 N   0  0  0  0  0  0  0  0  0  0  0  0
   -8.4330    8.8776  -11.2917 N   0  0  0  0  0  0  0  0  0  0  0  0
   -7.3352    9.8817   -8.0196 C   0  0  0  0  0  0  0  0  0  0  0  0
   -5.6205   13.5372  -12.2095 N   0  0  0  0  0  0  0  0  0  0  0  0
   -5.9727   10.4835   -7.7324 C   0  0  0  0  0  0  0  0  0  0  0  0
   -5.8611   11.7523   -7.1657 C   0  0  0  0  0  0  0  0  0  0  0  0
   -4.5946   12.2988   -6.9068 C   0  0  0  0  0  0  0  0  0  0  0  0
   -3.4432   11.5806   -7.2147 C   0  0  0  0  0  0  0  0  0  0  0  0
   -3.5570   10.3109   -7.7899 C   0  0  0  0  0  0  0  0  0  0  0  0
   -4.8253    9.7663   -8.0483 C   0  0  0  0  0  0  0  0  0  0  0  0
   -2.0926   12.1556   -6.9444 C   0  0  3  0  0  0  0  0  0  0  0  0
   -1.7338   13.4204   -6.4594 C   0  0  0  0  0  0  0  0  0  0  0  0
   -0.4064   13.4584   -6.4114 N   0  0  3  0  0  0  0  0  0  0  0  0
    0.1793   12.3493   -6.7865 N   0  0  0  0  0  0  0  0  0  0  0  0
   -0.7954   11.5387   -7.1512 C   0  0  0  0  0  0  0  0  0  0  0  0
    0.4205   14.5767   -6.0073 C   0  0  0  0  0  0  0  0  0  0  0  0
   -4.6894   13.8945  -11.1046 C   0  0  0  0  0  0  0  0  0  0  0  0
   -3.7822   15.1171  -11.3990 C   0  0  0  0  0  0  0  0  0  0  0  0
   -2.3310   14.9579  -11.2532 N   0  0  0  0  0  0  0  0  0  0  0  0
   -1.8099   14.4326  -10.1320 C   0  0  0  0  0  0  0  0  0  0  0  0
   -2.5019   14.0442   -9.2076 O   0  0  0  0  0  0  0  0  0  0  0  0
   -0.2869   14.3494  -10.0364 C   0  0  0  0  0  0  0  0  0  0  0  0
   -6.0716   12.2689   -9.8542 H   0  0  0  0  0  0  0  0  0  0  0  0
   -8.1374   10.1224  -13.9131 H   0  0  0  0  0  0  0  0  0  0  0  0
   -6.8466   12.2604  -14.0624 H   0  0  0  0  0  0  0  0  0  0  0  0
   -8.0269    9.5780   -7.2478 H   0  0  0  0  0  0  0  0  0  0  0  0
   -5.0791   13.4115  -13.0408 H   0  0  0  0  0  0  0  0  0  0  0  0
   -6.7507   12.3156   -6.9255 H   0  0  0  0  0  0  0  0  0  0  0  0
   -4.5132   13.2816   -6.4664 H   0  0  0  0  0  0  0  0  0  0  0  0
   -2.6683    9.7485   -8.0357 H   0  0  0  0  0  0  0  0  0  0  0  0
   -4.9092    8.7863   -8.4943 H   0  0  0  0  0  0  0  0  0  0  0  0
   -2.1234   11.7627   -5.9174 H   0  0  0  0  0  0  0  0  0  0  0  0
   -2.1095   14.2037   -7.1341 H   0  0  0  0  0  0  0  0  0  0  0  0
   -2.1522   13.5713   -5.4533 H   0  0  0  0  0  0  0  0  0  0  0  0
   -0.6475   10.5464   -7.5511 H   0  0  0  0  0  0  0  0  0  0  0  0
    1.4812   14.2962   -6.0855 H   0  0  0  0  0  0  0  0  0  0  0  0
    0.2196   15.4369   -6.6628 H   0  0  0  0  0  0  0  0  0  0  0  0
    0.1886   14.8468   -4.9665 H   0  0  0  0  0  0  0  0  0  0  0  0
   -5.2882   14.1185  -10.2095 H   0  0  0  0  0  0  0  0  0  0  0  0
   -4.0431   13.0269  -10.9057 H   0  0  0  0  0  0  0  0  0  0  0  0
   -3.9735   15.4217  -12.4385 H   0  0  0  0  0  0  0  0  0  0  0  0
   -4.0914   15.9235  -10.7178 H   0  0  0  0  0  0  0  0  0  0  0  0
   -1.9457   13.7098   -8.5138 H   0  0  0  0  0  0  0  0  0  0  0  0
   -0.0034   13.9020   -9.0723 H   0  0  0  0  0  0  0  0  0  0  0  0
    0.0984   13.7264  -10.8570 H   0  0  0  0  0  0  0  0  0  0  0  0
    0.1408   15.3601  -10.1114 H   0  0  0  0  0  0  0  0  0  0  0  0
  1  2  2  0  0  0  0
  1  4  1  0  0  0  0
  1 11  1  0  0  0  0
  2  6  1  0  0  0  0
  3  4  2  0  0  0  0
  3  5  1  0  0  0  0
  5  6  2  0  0  0  0
  5  9  1  0  0  0  0
  6  7  1  0  0  0  0
  7  8  1  0  0  0  0
  7 10  2  3  0  0  0
  8  9  2  0  0  0  0
 10 12  1  0  0  0  0
 11 24  1  0  0  0  0
 12 13  2  0  0  0  0
 12 17  1  0  0  0  0
 13 14  1  0  0  0  0
 14 15  2  0  0  0  0
 15 16  1  0  0  0  0
 15 18  1  0  0  0  0
 16 17  2  0  0  0  0
 18 19  1  0  0  0  0
 18 22  1  0  0  0  0
 19 20  1  0  0  0  0
 20 21  1  0  0  0  0
 20 23  1  0  0  0  0
 21 22  2  0  0  0  0
 24 25  1  0  0  0  0
 25 26  1  0  0  0  0
 26 27  2  0  0  0  0
 27 28  1  0  0  0  0
 27 29  1  0  0  0  0
  2 30  1  0  0  0  0
  3 31  1  0  0  0  0
  4 32  1  0  0  0  0
 10 33  1  0  0  0  0
 11 34  1  0  0  0  0
 13 35  1  0  0  0  0
 14 36  1  0  0  0  0
 16 37  1  0  0  0  0
 17 38  1  0  0  0  0
 18 39  1  0  0  0  0
 19 40  1  0  0  0  0
 19 41  1  0  0  0  0
 22 42  1  0  0  0  0
 23 43  1  0  0  0  0
 23 44  1  0  0  0  0
 23 45  1  0  0  0  0
 24 46  1  0  0  0  0
 24 47  1  0  0  0  0
 25 48  1  0  0  0  0
 25 49  1  0  0  0  0
 28 50  1  0  0  0  0
 29 51  1  0  0  0  0
 29 52  1  0  0  0  0
 29 53  1  0  0  0  0
M  END
> <Name>
27

> <IC50[uM]>
0.68

$$$$
27
  -OEChem-05192314333D
 Structure written by MMmdl.
 53 56  0     1  0  0  0  0  0999 V2000
   -6.3855   12.3606  -12.0031 C   0  0  0  0  0  0  0  0  0  0  0  0
   -6.5214   11.8004  -10.7171 C   0  0  0  0  0  0  0  0  0  0  0  0
   -7.6991   10.5797  -13.0384 C   0  0  0  0  0  0  0  0  0  0  0  0
   -6.9626   11.7779  -13.1031 C   0  0  0  0  0  0  0  0  0  0  0  0
   -7.8238   10.0198  -11.7523 C   0  0  0  0  0  0  0  0  0  0  0  0
   -7.2557   10.6213  -10.5956 C   0  0  0  0  0  0  0  0  0  0  0  0
   -7.6268    9.7501   -9.5073 C   0  0  0  0  0  0  0  0  0  0  0  0
   -8.3057    8.7491   -9.9816 N   0  0  0  0  0  0  0  0  0  0  0  0
   -8.4330    8.8776  -11.2917 N   0  0  0  0  0  0  0  0  0  0  0  0
   -7.3352    9.8817   -8.0196 C   0  0  0  0  0  0  0  0  0  0  0  0
   -5.6205   13.5372  -12.2095 N   0  0  0  0  0  0  0  0  0  0  0  0
   -5.9727   10.4835   -7.7324 C   0  0  0  0  0  0  0  0  0  0  0  0
   -5.8611   11.7523   -7.1657 C   0  0  0  0  0  0  0  0  0  0  0  0
   -4.5946   12.2988   -6.9068 C   0  0  0  0  0  0  0  0  0  0  0  0
   -3.4432   11.5806   -7.2147 C   0  0  0  0  0  0  0  0  0  0  0  0
   -3.5570   10.3109   -7.7899 C   0  0  0  0  0  0  0  0  0  0  0  0
   -4.8253    9.7663   -8.0483 C   0  0  0  0  0  0  0  0  0  0  0  0
   -2.0926   12.1556   -6.9444 C   0  0  0  0  0  0  0  0  0  0  0  0
   -1.7338   13.4204   -6.4594 C   0  0  0  0  0  0  0  0  0  0  0  0
   -0.4064   13.4584   -6.4114 N   0  0  3  0  0  0  0  0  0  0  0  0
    0.1793   12.3493   -6.7865 N   0  0  0  0  0  0  0  0  0  0  0  0
   -0.7954   11.5387   -7.1512 C   0  0  0  0  0  0  0  0  0  0  0  0
    0.4205   14.5767   -6.0073 C   0  0  0  0  0  0  0  0  0  0  0  0
   -4.6894   13.8945  -11.1046 C   0  0  0  0  0  0  0  0  0  0  0  0
   -3.7822   15.1171  -11.3990 C   0  0  0  0  0  0  0  0  0  0  0  0
   -2.3310   14.9579  -11.2532 N   0  0  0  0  0  0  0  0  0  0  0  0
   -1.8099   14.4326  -10.1320 C   0  0  0  0  0  0  0  0  0  0  0  0
   -2.5019   14.0442   -9.2076 O   0  0  0  0  0  0  0  0  0  0  0  0
   -0.2869   14.3494  -10.0364 C   0  0  0  0  0  0  0  0  0  0  0  0
   -6.0716   12.2689   -9.8542 H   0  0  0  0  0  0  0  0  0  0  0  0
   -8.1374   10.1224  -13.9131 H   0  0  0  0  0  0  0  0  0  0  0  0
   -6.8466   12.2604  -14.0624 H   0  0  0  0  0  0  0  0  0  0  0  0
   -8.0269    9.5780   -7.2478 H   0  0  0  0  0  0  0  0  0  0  0  0
   -5.0791   13.4115  -13.0408 H   0  0  0  0  0  0  0  0  0  0  0  0
   -6.7507   12.3156   -6.9255 H   0  0  0  0  0  0  0  0  0  0  0  0
   -4.5132   13.2816   -6.4664 H   0  0  0  0  0  0  0  0  0  0  0  0
   -2.6683    9.7485   -8.0357 H   0  0  0  0  0  0  0  0  0  0  0  0
   -4.9092    8.7863   -8.4943 H   0  0  0  0  0  0  0  0  0  0  0  0
   -2.4090   14.2148   -6.1776 H   0  0  0  0  0  0  0  0  0  0  0  0
    0.7951   12.5225   -7.5551 H   0  0  0  0  0  0  0  0  0  0  0  0
   -0.7373   10.6160   -6.5552 H   0  0  0  0  0  0  0  0  0  0  0  0
   -0.6796   11.2945   -8.2175 H   0  0  0  0  0  0  0  0  0  0  0  0
    1.4810   14.2930   -6.0763 H   0  0  0  0  0  0  0  0  0  0  0  0
    0.2266   15.4339   -6.6689 H   0  0  0  0  0  0  0  0  0  0  0  0
    0.1818   14.8530   -4.9697 H   0  0  0  0  0  0  0  0  0  0  0  0
   -5.2882   14.1185  -10.2095 H   0  0  0  0  0  0  0  0  0  0  0  0
   -4.0431   13.0269  -10.9057 H   0  0  0  0  0  0  0  0  0  0  0  0
   -3.9735   15.4217  -12.4385 H   0  0  0  0  0  0  0  0  0  0  0  0
   -4.0914   15.9235  -10.7178 H   0  0  0  0  0  0  0  0  0  0  0  0
   -1.7243   15.2430  -11.9952 H   0  0  0  0  0  0  0  0  0  0  0  0
   -0.0031   13.9147   -9.0666 H   0  0  0  0  0  0  0  0  0  0  0  0
    0.0973   13.7152  -10.8489 H   0  0  0  0  0  0  0  0  0  0  0  0
    0.1416   15.3586  -10.1252 H   0  0  0  0  0  0  0  0  0  0  0  0
  1  2  2  0  0  0  0
  1  4  1  0  0  0  0
  1 11  1  0  0  0  0
  2  6  1  0  0  0  0
  3  4  2  0  0  0  0
  3  5  1  0  0  0  0
  5  6  2  0  0  0  0
  5  9  1  0  0  0  0
  6  7  1  0  0  0  0
  7  8  1  0  0  0  0
  7 10  2  3  0  0  0
  8  9  2  0  0  0  0
 10 12  1  0  0  0  0
 11 24  1  0  0  0  0
 12 13  2  0  0  0  0
 12 17  1  0  0  0  0
 13 14  1  0  0  0  0
 14 15  2  0  0  0  0
 15 16  1  0  0  0  0
 15 18  1  0  0  0  0
 16 17  2  0  0  0  0
 18 19  2  0  0  0  0
 18 22  1  0  0  0  0
 19 20  1  0  0  0  0
 20 21  1  0  0  0  0
 20 23  1  0  0  0  0
 21 22  1  0  0  0  0
 24 25  1  0  0  0  0
 25 26  1  0  0  0  0
 26 27  1  0  0  0  0
 27 28  2  0  0  0  0
 27 29  1  0  0  0  0
  2 30  1  0  0  0  0
  3 31  1  0  0  0  0
  4 32  1  0  0  0  0
 10 33  1  0  0  0  0
 11 34  1  0  0  0  0
 13 35  1  0  0  0  0
 14 36  1  0  0  0  0
 16 37  1  0  0  0  0
 17 38  1  0  0  0  0
 19 39  1  0  0  0  0
 21 40  1  0  0  0  0
 22 41  1  0  0  0  0
 22 42  1  0  0  0  0
 23 43  1  0  0  0  0
 23 44  1  0  0  0  0
 23 45  1  0  0  0  0
 24 46  1  0  0  0  0
 24 47  1  0  0  0  0
 25 48  1  0  0  0  0
 25 49  1  0  0  0  0
 26 50  1  0  0  0  0
 29 51  1  0  0  0  0
 29 52  1  0  0  0  0
 29 53  1  0  0  0  0
M  END
> <Name>
27

> <IC50[uM]>
0.68

$$$$
27
  -OEChem-05192314333D
 Structure written by MMmdl.
 53 56  0     1  0  0  0  0  0999 V2000
   -6.3855   12.3606  -12.0031 C   0  0  0  0  0  0  0  0  0  0  0  0
   -6.5214   11.8004  -10.7171 C   0  0  0  0  0  0  0  0  0  0  0  0
   -7.6991   10.5797  -13.0384 C   0  0  0  0  0  0  0  0  0  0  0  0
   -6.9626   11.7779  -13.1031 C   0  0  0  0  0  0  0  0  0  0  0  0
   -7.8238   10.0198  -11.7523 C   0  0  0  0  0  0  0  0  0  0  0  0
   -7.2557   10.6213  -10.5956 C   0  0  0  0  0  0  0  0  0  0  0  0
   -7.6268    9.7501   -9.5073 C   0  0  0  0  0  0  0  0  0  0  0  0
   -8.3057    8.7491   -9.9816 N   0  0  0  0  0  0  0  0  0  0  0  0
   -8.4330    8.8776  -11.2917 N   0  0  0  0  0  0  0  0  0  0  0  0
   -7.3352    9.8817   -8.0196 C   0  0  0  0  0  0  0  0  0  0  0  0
   -5.6205   13.5372  -12.2095 N   0  0  0  0  0  0  0  0  0  0  0  0
   -5.9727   10.4835   -7.7324 C   0  0  0  0  0  0  0  0  0  0  0  0
   -5.8611   11.7523   -7.1657 C   0  0  0  0  0  0  0  0  0  0  0  0
   -4.5946   12.2988   -6.9068 C   0  0  0  0  0  0  0  0  0  0  0  0
   -3.4432   11.5806   -7.2147 C   0  0  0  0  0  0  0  0  0  0  0  0
   -3.5570   10.3109   -7.7899 C   0  0  0  0  0  0  0  0  0  0  0  0
   -4.8253    9.7663   -8.0483 C   0  0  0  0  0  0  0  0  0  0  0  0
   -2.0926   12.1556   -6.9444 C   0  0  0  0  0  0  0  0  0  0  0  0
   -1.7338   13.4204   -6.4594 C   0  0  0  0  0  0  0  0  0  0  0  0
   -0.4064   13.4584   -6.4114 N   0  0  3  0  0  0  0  0  0  0  0  0
    0.1793   12.3493   -6.7865 N   0  0  0  0  0  0  0  0  0  0  0  0
   -0.7954   11.5387   -7.1512 C   0  0  0  0  0  0  0  0  0  0  0  0
    0.4205   14.5767   -6.0073 C   0  0  0  0  0  0  0  0  0  0  0  0
   -4.6894   13.8945  -11.1046 C   0  0  0  0  0  0  0  0  0  0  0  0
   -3.7822   15.1171  -11.3990 C   0  0  0  0  0  0  0  0  0  0  0  0
   -2.3310   14.9579  -11.2532 N   0  0  0  0  0  0  0  0  0  0  0  0
   -1.8099   14.4326  -10.1320 C   0  0  0  0  0  0  0  0  0  0  0  0
   -2.5019   14.0442   -9.2076 O   0  0  0  0  0  0  0  0  0  0  0  0
   -0.2869   14.3494  -10.0364 C   0  0  0  0  0  0  0  0  0  0  0  0
   -6.0716   12.2689   -9.8542 H   0  0  0  0  0  0  0  0  0  0  0  0
   -8.1374   10.1224  -13.9131 H   0  0  0  0  0  0  0  0  0  0  0  0
   -6.8466   12.2604  -14.0624 H   0  0  0  0  0  0  0  0  0  0  0  0
   -8.0269    9.5780   -7.2478 H   0  0  0  0  0  0  0  0  0  0  0  0
   -5.0791   13.4115  -13.0408 H   0  0  0  0  0  0  0  0  0  0  0  0
   -6.7507   12.3156   -6.9255 H   0  0  0  0  0  0  0  0  0  0  0  0
   -4.5132   13.2816   -6.4664 H   0  0  0  0  0  0  0  0  0  0  0  0
   -2.6683    9.7485   -8.0357 H   0  0  0  0  0  0  0  0  0  0  0  0
   -4.9092    8.7863   -8.4943 H   0  0  0  0  0  0  0  0  0  0  0  0
   -2.1095   14.2037   -7.1341 H   0  0  0  0  0  0  0  0  0  0  0  0
   -2.1522   13.5713   -5.4533 H   0  0  0  0  0  0  0  0  0  0  0  0
    0.7951   12.5225   -7.5551 H   0  0  0  0  0  0  0  0  0  0  0  0
   -0.6475   10.5464   -7.5511 H   0  0  0  0  0  0  0  0  0  0  0  0
    1.4810   14.2930   -6.0763 H   0  0  0  0  0  0  0  0  0  0  0  0
    0.2266   15.4339   -6.6689 H   0  0  0  0  0  0  0  0  0  0  0  0
    0.1818   14.8530   -4.9697 H   0  0  0  0  0  0  0  0  0  0  0  0
   -5.2882   14.1185  -10.2095 H   0  0  0  0  0  0  0  0  0  0  0  0
   -4.0431   13.0269  -10.9057 H   0  0  0  0  0  0  0  0  0  0  0  0
   -3.9735   15.4217  -12.4385 H   0  0  0  0  0  0  0  0  0  0  0  0
   -4.0914   15.9235  -10.7178 H   0  0  0  0  0  0  0  0  0  0  0  0
   -1.7243   15.2430  -11.9952 H   0  0  0  0  0  0  0  0  0  0  0  0
   -0.0031   13.9147   -9.0666 H   0  0  0  0  0  0  0  0  0  0  0  0
    0.0973   13.7152  -10.8489 H   0  0  0  0  0  0  0  0  0  0  0  0
    0.1416   15.3586  -10.1252 H   0  0  0  0  0  0  0  0  0  0  0  0
  1  2  2  0  0  0  0
  1  4  1  0  0  0  0
  1 11  1  0  0  0  0
  2  6  1  0  0  0  0
  3  4  2  0  0  0  0
  3  5  1  0  0  0  0
  5  6  2  0  0  0  0
  5  9  1  0  0  0  0
  6  7  1  0  0  0  0
  7  8  1  0  0  0  0
  7 10  2  3  0  0  0
  8  9  2  0  0  0  0
 10 12  1  0  0  0  0
 11 24  1  0  0  0  0
 12 13  2  0  0  0  0
 12 17  1  0  0  0  0
 13 14  1  0  0  0  0
 14 15  2  0  0  0  0
 15 16  1  0  0  0  0
 15 18  1  0  0  0  0
 16 17  2  0  0  0  0
 18 19  1  0  0  0  0
 18 22  2  0  0  0  0
 19 20  1  0  0  0  0
 20 21  1  0  0  0  0
 20 23  1  0  0  0  0
 21 22  1  0  0  0  0
 24 25  1  0  0  0  0
 25 26  1  0  0  0  0
 26 27  1  0  0  0  0
 27 28  2  0  0  0  0
 27 29  1  0  0  0  0
  2 30  1  0  0  0  0
  3 31  1  0  0  0  0
  4 32  1  0  0  0  0
 10 33  1  0  0  0  0
 11 34  1  0  0  0  0
 13 35  1  0  0  0  0
 14 36  1  0  0  0  0
 16 37  1  0  0  0  0
 17 38  1  0  0  0  0
 19 39  1  0  0  0  0
 19 40  1  0  0  0  0
 21 41  1  0  0  0  0
 22 42  1  0  0  0  0
 23 43  1  0  0  0  0
 23 44  1  0  0  0  0
 23 45  1  0  0  0  0
 24 46  1  0  0  0  0
 24 47  1  0  0  0  0
 25 48  1  0  0  0  0
 25 49  1  0  0  0  0
 26 50  1  0  0  0  0
 29 51  1  0  0  0  0
 29 52  1  0  0  0  0
 29 53  1  0  0  0  0
M  END
> <Name>
27

> <IC50[uM]>
0.68

$$$$
27
  -OEChem-05192314333D
 Structure written by MMmdl.
 53 56  0     1  0  0  0  0  0999 V2000
   -6.3855   12.3606  -12.0031 C   0  0  0  0  0  0  0  0  0  0  0  0
   -6.5214   11.8004  -10.7171 C   0  0  0  0  0  0  0  0  0  0  0  0
   -7.6991   10.5797  -13.0384 C   0  0  0  0  0  0  0  0  0  0  0  0
   -6.9626   11.7779  -13.1031 C   0  0  0  0  0  0  0  0  0  0  0  0
   -7.8238   10.0198  -11.7523 C   0  0  0  0  0  0  0  0  0  0  0  0
   -7.2557   10.6213  -10.5956 C   0  0  0  0  0  0  0  0  0  0  0  0
   -7.6268    9.7501   -9.5073 C   0  0  0  0  0  0  0  0  0  0  0  0
   -8.3057    8.7491   -9.9816 N   0  0  0  0  0  0  0  0  0  0  0  0
   -8.4330    8.8776  -11.2917 N   0  0  0  0  0  0  0  0  0  0  0  0
   -7.3352    9.8817   -8.0196 C   0  0  0  0  0  0  0  0  0  0  0  0
   -5.6205   13.5372  -12.2095 N   0  0  0  0  0  0  0  0  0  0  0  0
   -5.9727   10.4835   -7.7324 C   0  0  0  0  0  0  0  0  0  0  0  0
   -5.8611   11.7523   -7.1657 C   0  0  0  0  0  0  0  0  0  0  0  0
   -4.5946   12.2988   -6.9068 C   0  0  0  0  0  0  0  0  0  0  0  0
   -3.4432   11.5806   -7.2147 C   0  0  0  0  0  0  0  0  0  0  0  0
   -3.5570   10.3109   -7.7899 C   0  0  0  0  0  0  0  0  0  0  0  0
   -4.8253    9.7663   -8.0483 C   0  0  0  0  0  0  0  0  0  0  0  0
   -2.0926   12.1556   -6.9444 C   0  0  0  0  0  0  0  0  0  0  0  0
   -1.7338   13.4204   -6.4594 C   0  0  0  0  0  0  0  0  0  0  0  0
   -0.4064   13.4584   -6.4114 N   0  0  3  0  0  0  0  0  0  0  0  0
    0.1793   12.3493   -6.7865 N   0  0  0  0  0  0  0  0  0  0  0  0
   -0.7954   11.5387   -7.1512 C   0  0  0  0  0  0  0  0  0  0  0  0
    0.4205   14.5767   -6.0073 C   0  0  0  0  0  0  0  0  0  0  0  0
   -4.6894   13.8945  -11.1046 C   0  0  0  0  0  0  0  0  0  0  0  0
   -3.7822   15.1171  -11.3990 C   0  0  0  0  0  0  0  0  0  0  0  0
   -2.3310   14.9579  -11.2532 N   0  0  0  0  0  0  0  0  0  0  0  0
   -1.8099   14.4326  -10.1320 C   0  0  0  0  0  0  0  0  0  0  0  0
   -2.5019   14.0442   -9.2076 O   0  0  0  0  0  0  0  0  0  0  0  0
   -0.2869   14.3494  -10.0364 C   0  0  0  0  0  0  0  0  0  0  0  0
   -6.0716   12.2689   -9.8542 H   0  0  0  0  0  0  0  0  0  0  0  0
   -8.1374   10.1224  -13.9131 H   0  0  0  0  0  0  0  0  0  0  0  0
   -6.8466   12.2604  -14.0624 H   0  0  0  0  0  0  0  0  0  0  0  0
   -8.0269    9.5780   -7.2478 H   0  0  0  0  0  0  0  0  0  0  0  0
   -5.0791   13.4115  -13.0408 H   0  0  0  0  0  0  0  0  0  0  0  0
   -6.7507   12.3156   -6.9255 H   0  0  0  0  0  0  0  0  0  0  0  0
   -4.5132   13.2816   -6.4664 H   0  0  0  0  0  0  0  0  0  0  0  0
   -2.6683    9.7485   -8.0357 H   0  0  0  0  0  0  0  0  0  0  0  0
   -4.9092    8.7863   -8.4943 H   0  0  0  0  0  0  0  0  0  0  0  0
   -2.4090   14.2148   -6.1776 H   0  0  0  0  0  0  0  0  0  0  0  0
    0.7951   12.5225   -7.5551 H   0  0  0  0  0  0  0  0  0  0  0  0
   -0.7373   10.6160   -6.5552 H   0  0  0  0  0  0  0  0  0  0  0  0
   -0.6796   11.2945   -8.2175 H   0  0  0  0  0  0  0  0  0  0  0  0
    1.4810   14.2930   -6.0763 H   0  0  0  0  0  0  0  0  0  0  0  0
    0.2266   15.4339   -6.6689 H   0  0  0  0  0  0  0  0  0  0  0  0
    0.1818   14.8530   -4.9697 H   0  0  0  0  0  0  0  0  0  0  0  0
   -5.2882   14.1185  -10.2095 H   0  0  0  0  0  0  0  0  0  0  0  0
   -4.0431   13.0269  -10.9057 H   0  0  0  0  0  0  0  0  0  0  0  0
   -3.9735   15.4217  -12.4385 H   0  0  0  0  0  0  0  0  0  0  0  0
   -4.0914   15.9235  -10.7178 H   0  0  0  0  0  0  0  0  0  0  0  0
   -1.9457   13.7098   -8.5138 H   0  0  0  0  0  0  0  0  0  0  0  0
   -0.0034   13.9020   -9.0723 H   0  0  0  0  0  0  0  0  0  0  0  0
    0.0984   13.7264  -10.8570 H   0  0  0  0  0  0  0  0  0  0  0  0
    0.1408   15.3601  -10.1114 H   0  0  0  0  0  0  0  0  0  0  0  0
  1  2  2  0  0  0  0
  1  4  1  0  0  0  0
  1 11  1  0  0  0  0
  2  6  1  0  0  0  0
  3  4  2  0  0  0  0
  3  5  1  0  0  0  0
  5  6  2  0  0  0  0
  5  9  1  0  0  0  0
  6  7  1  0  0  0  0
  7  8  1  0  0  0  0
  7 10  2  3  0  0  0
  8  9  2  0  0  0  0
 10 12  1  0  0  0  0
 11 24  1  0  0  0  0
 12 13  2  0  0  0  0
 12 17  1  0  0  0  0
 13 14  1  0  0  0  0
 14 15  2  0  0  0  0
 15 16  1  0  0  0  0
 15 18  1  0  0  0  0
 16 17  2  0  0  0  0
 18 19  2  0  0  0  0
 18 22  1  0  0  0  0
 19 20  1  0  0  0  0
 20 21  1  0  0  0  0
 20 23  1  0  0  0  0
 21 22  1  0  0  0  0
 24 25  1  0  0  0  0
 25 26  1  0  0  0  0
 26 27  2  0  0  0  0
 27 28  1  0  0  0  0
 27 29  1  0  0  0  0
  2 30  1  0  0  0  0
  3 31  1  0  0  0  0
  4 32  1  0  0  0  0
 10 33  1  0  0  0  0
 11 34  1  0  0  0  0
 13 35  1  0  0  0  0
 14 36  1  0  0  0  0
 16 37  1  0  0  0  0
 17 38  1  0  0  0  0
 19 39  1  0  0  0  0
 21 40  1  0  0  0  0
 22 41  1  0  0  0  0
 22 42  1  0  0  0  0
 23 43  1  0  0  0  0
 23 44  1  0  0  0  0
 23 45  1  0  0  0  0
 24 46  1  0  0  0  0
 24 47  1  0  0  0  0
 25 48  1  0  0  0  0
 25 49  1  0  0  0  0
 28 50  1  0  0  0  0
 29 51  1  0  0  0  0
 29 52  1  0  0  0  0
 29 53  1  0  0  0  0
M  END
> <Name>
27

> <IC50[uM]>
0.68

$$$$
27
  -OEChem-05192314333D
 Structure written by MMmdl.
 53 56  0     1  0  0  0  0  0999 V2000
   -6.3855   12.3606  -12.0031 C   0  0  0  0  0  0  0  0  0  0  0  0
   -6.5214   11.8004  -10.7171 C   0  0  0  0  0  0  0  0  0  0  0  0
   -7.6991   10.5797  -13.0384 C   0  0  0  0  0  0  0  0  0  0  0  0
   -6.9626   11.7779  -13.1031 C   0  0  0  0  0  0  0  0  0  0  0  0
   -7.8238   10.0198  -11.7523 C   0  0  0  0  0  0  0  0  0  0  0  0
   -7.2557   10.6213  -10.5956 C   0  0  0  0  0  0  0  0  0  0  0  0
   -7.6268    9.7501   -9.5073 C   0  0  0  0  0  0  0  0  0  0  0  0
   -8.3057    8.7491   -9.9816 N   0  0  0  0  0  0  0  0  0  0  0  0
   -8.4330    8.8776  -11.2917 N   0  0  0  0  0  0  0  0  0  0  0  0
   -7.3352    9.8817   -8.0196 C   0  0  0  0  0  0  0  0  0  0  0  0
   -5.6205   13.5372  -12.2095 N   0  0  0  0  0  0  0  0  0  0  0  0
   -5.9727   10.4835   -7.7324 C   0  0  0  0  0  0  0  0  0  0  0  0
   -5.8611   11.7523   -7.1657 C   0  0  0  0  0  0  0  0  0  0  0  0
   -4.5946   12.2988   -6.9068 C   0  0  0  0  0  0  0  0  0  0  0  0
   -3.4432   11.5806   -7.2147 C   0  0  0  0  0  0  0  0  0  0  0  0
   -3.5570   10.3109   -7.7899 C   0  0  0  0  0  0  0  0  0  0  0  0
   -4.8253    9.7663   -8.0483 C   0  0  0  0  0  0  0  0  0  0  0  0
   -2.0926   12.1556   -6.9444 C   0  0  0  0  0  0  0  0  0  0  0  0
   -1.7338   13.4204   -6.4594 C   0  0  0  0  0  0  0  0  0  0  0  0
   -0.4064   13.4584   -6.4114 N   0  0  3  0  0  0  0  0  0  0  0  0
    0.1793   12.3493   -6.7865 N   0  0  0  0  0  0  0  0  0  0  0  0
   -0.7954   11.5387   -7.1512 C   0  0  0  0  0  0  0  0  0  0  0  0
    0.4205   14.5767   -6.0073 C   0  0  0  0  0  0  0  0  0  0  0  0
   -4.6894   13.8945  -11.1046 C   0  0  0  0  0  0  0  0  0  0  0  0
   -3.7822   15.1171  -11.3990 C   0  0  0  0  0  0  0  0  0  0  0  0
   -2.3310   14.9579  -11.2532 N   0  0  0  0  0  0  0  0  0  0  0  0
   -1.8099   14.4326  -10.1320 C   0  0  0  0  0  0  0  0  0  0  0  0
   -2.5019   14.0442   -9.2076 O   0  0  0  0  0  0  0  0  0  0  0  0
   -0.2869   14.3494  -10.0364 C   0  0  0  0  0  0  0  0  0  0  0  0
   -6.0716   12.2689   -9.8542 H   0  0  0  0  0  0  0  0  0  0  0  0
   -8.1374   10.1224  -13.9131 H   0  0  0  0  0  0  0  0  0  0  0  0
   -6.8466   12.2604  -14.0624 H   0  0  0  0  0  0  0  0  0  0  0  0
   -8.0269    9.5780   -7.2478 H   0  0  0  0  0  0  0  0  0  0  0  0
   -5.0791   13.4115  -13.0408 H   0  0  0  0  0  0  0  0  0  0  0  0
   -6.7507   12.3156   -6.9255 H   0  0  0  0  0  0  0  0  0  0  0  0
   -4.5132   13.2816   -6.4664 H   0  0  0  0  0  0  0  0  0  0  0  0
   -2.6683    9.7485   -8.0357 H   0  0  0  0  0  0  0  0  0  0  0  0
   -4.9092    8.7863   -8.4943 H   0  0  0  0  0  0  0  0  0  0  0  0
   -2.1095   14.2037   -7.1341 H   0  0  0  0  0  0  0  0  0  0  0  0
   -2.1522   13.5713   -5.4533 H   0  0  0  0  0  0  0  0  0  0  0  0
    0.7951   12.5225   -7.5551 H   0  0  0  0  0  0  0  0  0  0  0  0
   -0.6475   10.5464   -7.5511 H   0  0  0  0  0  0  0  0  0  0  0  0
    1.4810   14.2930   -6.0763 H   0  0  0  0  0  0  0  0  0  0  0  0
    0.2266   15.4339   -6.6689 H   0  0  0  0  0  0  0  0  0  0  0  0
    0.1818   14.8530   -4.9697 H   0  0  0  0  0  0  0  0  0  0  0  0
   -5.2882   14.1185  -10.2095 H   0  0  0  0  0  0  0  0  0  0  0  0
   -4.0431   13.0269  -10.9057 H   0  0  0  0  0  0  0  0  0  0  0  0
   -3.9735   15.4217  -12.4385 H   0  0  0  0  0  0  0  0  0  0  0  0
   -4.0914   15.9235  -10.7178 H   0  0  0  0  0  0  0  0  0  0  0  0
   -1.9457   13.7098   -8.5138 H   0  0  0  0  0  0  0  0  0  0  0  0
   -0.0034   13.9020   -9.0723 H   0  0  0  0  0  0  0  0  0  0  0  0
    0.0984   13.7264  -10.8570 H   0  0  0  0  0  0  0  0  0  0  0  0
    0.1408   15.3601  -10.1114 H   0  0  0  0  0  0  0  0  0  0  0  0
  1  2  2  0  0  0  0
  1  4  1  0  0  0  0
  1 11  1  0  0  0  0
  2  6  1  0  0  0  0
  3  4  2  0  0  0  0
  3  5  1  0  0  0  0
  5  6  2  0  0  0  0
  5  9  1  0  0  0  0
  6  7  1  0  0  0  0
  7  8  1  0  0  0  0
  7 10  2  3  0  0  0
  8  9  2  0  0  0  0
 10 12  1  0  0  0  0
 11 24  1  0  0  0  0
 12 13  2  0  0  0  0
 12 17  1  0  0  0  0
 13 14  1  0  0  0  0
 14 15  2  0  0  0  0
 15 16  1  0  0  0  0
 15 18  1  0  0  0  0
 16 17  2  0  0  0  0
 18 19  1  0  0  0  0
 18 22  2  0  0  0  0
 19 20  1  0  0  0  0
 20 21  1  0  0  0  0
 20 23  1  0  0  0  0
 21 22  1  0  0  0  0
 24 25  1  0  0  0  0
 25 26  1  0  0  0  0
 26 27  2  0  0  0  0
 27 28  1  0  0  0  0
 27 29  1  0  0  0  0
  2 30  1  0  0  0  0
  3 31  1  0  0  0  0
  4 32  1  0  0  0  0
 10 33  1  0  0  0  0
 11 34  1  0  0  0  0
 13 35  1  0  0  0  0
 14 36  1  0  0  0  0
 16 37  1  0  0  0  0
 17 38  1  0  0  0  0
 19 39  1  0  0  0  0
 19 40  1  0  0  0  0
 21 41  1  0  0  0  0
 22 42  1  0  0  0  0
 23 43  1  0  0  0  0
 23 44  1  0  0  0  0
 23 45  1  0  0  0  0
 24 46  1  0  0  0  0
 24 47  1  0  0  0  0
 25 48  1  0  0  0  0
 25 49  1  0  0  0  0
 28 50  1  0  0  0  0
 29 51  1  0  0  0  0
 29 52  1  0  0  0  0
 29 53  1  0  0  0  0
M  END
> <Name>
27

> <IC50[uM]>
0.68

$$$$
27
  -OEChem-05192314333D
 Structure written by MMmdl.
 53 56  0     1  0  0  0  0  0999 V2000
   -6.3855   12.3606  -12.0031 C   0  0  0  0  0  0  0  0  0  0  0  0
   -6.5214   11.8004  -10.7171 C   0  0  0  0  0  0  0  0  0  0  0  0
   -7.6991   10.5797  -13.0384 C   0  0  0  0  0  0  0  0  0  0  0  0
   -6.9626   11.7779  -13.1031 C   0  0  0  0  0  0  0  0  0  0  0  0
   -7.8238   10.0198  -11.7523 C   0  0  0  0  0  0  0  0  0  0  0  0
   -7.2557   10.6213  -10.5956 C   0  0  0  0  0  0  0  0  0  0  0  0
   -7.6268    9.7501   -9.5073 C   0  0  3  0  0  0  0  0  0  0  0  0
   -8.3057    8.7491   -9.9816 N   0  0  0  0  0  0  0  0  0  0  0  0
   -8.4330    8.8776  -11.2917 N   0  0  0  0  0  0  0  0  0  0  0  0
   -7.3352    9.8817   -8.0196 C   0  0  0  0  0  0  0  0  0  0  0  0
   -5.6205   13.5372  -12.2095 N   0  0  0  0  0  0  0  0  0  0  0  0
   -5.9727   10.4835   -7.7324 C   0  0  0  0  0  0  0  0  0  0  0  0
   -5.8611   11.7523   -7.1657 C   0  0  0  0  0  0  0  0  0  0  0  0
   -4.5946   12.2988   -6.9068 C   0  0  0  0  0  0  0  0  0  0  0  0
   -3.4432   11.5806   -7.2147 C   0  0  0  0  0  0  0  0  0  0  0  0
   -3.5570   10.3109   -7.7899 C   0  0  0  0  0  0  0  0  0  0  0  0
   -4.8253    9.7663   -8.0483 C   0  0  0  0  0  0  0  0  0  0  0  0
   -2.0926   12.1556   -6.9444 C   0  0  0  0  0  0  0  0  0  0  0  0
   -1.7338   13.4204   -6.4594 C   0  0  0  0  0  0  0  0  0  0  0  0
   -0.4064   13.4584   -6.4114 N   0  0  3  0  0  0  0  0  0  0  0  0
    0.1793   12.3493   -6.7865 N   0  0  0  0  0  0  0  0  0  0  0  0
   -0.7954   11.5387   -7.1512 C   0  0  0  0  0  0  0  0  0  0  0  0
    0.4205   14.5767   -6.0073 C   0  0  0  0  0  0  0  0  0  0  0  0
   -4.6894   13.8945  -11.1046 C   0  0  0  0  0  0  0  0  0  0  0  0
   -3.7822   15.1171  -11.3990 C   0  0  0  0  0  0  0  0  0  0  0  0
   -2.3310   14.9579  -11.2532 N   0  0  0  0  0  0  0  0  0  0  0  0
   -1.8099   14.4326  -10.1320 C   0  0  0  0  0  0  0  0  0  0  0  0
   -2.5019   14.0442   -9.2076 O   0  0  0  0  0  0  0  0  0  0  0  0
   -0.2869   14.3494  -10.0364 C   0  0  0  0  0  0  0  0  0  0  0  0
   -6.0716   12.2689   -9.8542 H   0  0  0  0  0  0  0  0  0  0  0  0
   -8.1374   10.1224  -13.9131 H   0  0  0  0  0  0  0  0  0  0  0  0
   -6.8466   12.2604  -14.0624 H   0  0  0  0  0  0  0  0  0  0  0  0
   -6.6939    9.1829   -9.6414 H   0  0  0  0  0  0  0  0  0  0  0  0
   -8.0269    9.5780   -7.2478 H   0  0  0  0  0  0  0  0  0  0  0  0
   -5.0791   13.4115  -13.0408 H   0  0  0  0  0  0  0  0  0  0  0  0
   -6.7507   12.3156   -6.9255 H   0  0  0  0  0  0  0  0  0  0  0  0
   -4.5132   13.2816   -6.4664 H   0  0  0  0  0  0  0  0  0  0  0  0
   -2.6683    9.7485   -8.0357 H   0  0  0  0  0  0  0  0  0  0  0  0
   -4.9092    8.7863   -8.4943 H   0  0  0  0  0  0  0  0  0  0  0  0
   -2.1095   14.2037   -7.1341 H   0  0  0  0  0  0  0  0  0  0  0  0
   -2.1522   13.5713   -5.4533 H   0  0  0  0  0  0  0  0  0  0  0  0
   -0.6475   10.5464   -7.5511 H   0  0  0  0  0  0  0  0  0  0  0  0
    1.4812   14.2962   -6.0855 H   0  0  0  0  0  0  0  0  0  0  0  0
    0.2196   15.4369   -6.6628 H   0  0  0  0  0  0  0  0  0  0  0  0
    0.1886   14.8468   -4.9665 H   0  0  0  0  0  0  0  0  0  0  0  0
   -5.2882   14.1185  -10.2095 H   0  0  0  0  0  0  0  0  0  0  0  0
   -4.0431   13.0269  -10.9057 H   0  0  0  0  0  0  0  0  0  0  0  0
   -3.9735   15.4217  -12.4385 H   0  0  0  0  0  0  0  0  0  0  0  0
   -4.0914   15.9235  -10.7178 H   0  0  0  0  0  0  0  0  0  0  0  0
   -1.7243   15.2430  -11.9952 H   0  0  0  0  0  0  0  0  0  0  0  0
   -0.0031   13.9147   -9.0666 H   0  0  0  0  0  0  0  0  0  0  0  0
    0.0973   13.7152  -10.8489 H   0  0  0  0  0  0  0  0  0  0  0  0
    0.1416   15.3586  -10.1252 H   0  0  0  0  0  0  0  0  0  0  0  0
  1  2  2  0  0  0  0
  1  4  1  0  0  0  0
  1 11  1  0  0  0  0
  2  6  1  0  0  0  0
  3  4  2  0  0  0  0
  3  5  1  0  0  0  0
  5  6  2  0  0  0  0
  5  9  1  0  0  0  0
  6  7  1  0  0  0  0
  7  8  1  0  0  0  0
  7 10  1  0  0  0  0
  8  9  2  0  0  0  0
 10 12  2  0  0  0  0
 11 24  1  0  0  0  0
 12 13  1  0  0  0  0
 12 17  1  0  0  0  0
 13 14  2  0  0  0  0
 14 15  1  0  0  0  0
 15 16  1  0  0  0  0
 15 18  2  0  0  0  0
 16 17  2  0  0  0  0
 18 19  1  0  0  0  0
 18 22  1  0  0  0  0
 19 20  1  0  0  0  0
 20 21  1  0  0  0  0
 20 23  1  0  0  0  0
 21 22  2  0  0  0  0
 24 25  1  0  0  0  0
 25 26  1  0  0  0  0
 26 27  1  0  0  0  0
 27 28  2  0  0  0  0
 27 29  1  0  0  0  0
  2 30  1  0  0  0  0
  3 31  1  0  0  0  0
  4 32  1  0  0  0  0
  7 33  1  0  0  0  0
 10 34  1  0  0  0  0
 11 35  1  0  0  0  0
 13 36  1  0  0  0  0
 14 37  1  0  0  0  0
 16 38  1  0  0  0  0
 17 39  1  0  0  0  0
 19 40  1  0  0  0  0
 19 41  1  0  0  0  0
 22 42  1  0  0  0  0
 23 43  1  0  0  0  0
 23 44  1  0  0  0  0
 23 45  1  0  0  0  0
 24 46  1  0  0  0  0
 24 47  1  0  0  0  0
 25 48  1  0  0  0  0
 25 49  1  0  0  0  0
 26 50  1  0  0  0  0
 29 51  1  0  0  0  0
 29 52  1  0  0  0  0
 29 53  1  0  0  0  0
M  END
> <Name>
27

> <IC50[uM]>
0.68

$$$$
27
  -OEChem-05192314333D
 Structure written by MMmdl.
 53 56  0     1  0  0  0  0  0999 V2000
   -6.3855   12.3606  -12.0031 C   0  0  0  0  0  0  0  0  0  0  0  0
   -6.5214   11.8004  -10.7171 C   0  0  0  0  0  0  0  0  0  0  0  0
   -7.6991   10.5797  -13.0384 C   0  0  0  0  0  0  0  0  0  0  0  0
   -6.9626   11.7779  -13.1031 C   0  0  0  0  0  0  0  0  0  0  0  0
   -7.8238   10.0198  -11.7523 C   0  0  0  0  0  0  0  0  0  0  0  0
   -7.2557   10.6213  -10.5956 C   0  0  0  0  0  0  0  0  0  0  0  0
   -7.6268    9.7501   -9.5073 C   0  0  3  0  0  0  0  0  0  0  0  0
   -8.3057    8.7491   -9.9816 N   0  0  0  0  0  0  0  0  0  0  0  0
   -8.4330    8.8776  -11.2917 N   0  0  0  0  0  0  0  0  0  0  0  0
   -7.3352    9.8817   -8.0196 C   0  0  0  0  0  0  0  0  0  0  0  0
   -5.6205   13.5372  -12.2095 N   0  0  0  0  0  0  0  0  0  0  0  0
   -5.9727   10.4835   -7.7324 C   0  0  0  0  0  0  0  0  0  0  0  0
   -5.8611   11.7523   -7.1657 C   0  0  0  0  0  0  0  0  0  0  0  0
   -4.5946   12.2988   -6.9068 C   0  0  0  0  0  0  0  0  0  0  0  0
   -3.4432   11.5806   -7.2147 C   0  0  0  0  0  0  0  0  0  0  0  0
   -3.5570   10.3109   -7.7899 C   0  0  0  0  0  0  0  0  0  0  0  0
   -4.8253    9.7663   -8.0483 C   0  0  0  0  0  0  0  0  0  0  0  0
   -2.0926   12.1556   -6.9444 C   0  0  0  0  0  0  0  0  0  0  0  0
   -1.7338   13.4204   -6.4594 C   0  0  0  0  0  0  0  0  0  0  0  0
   -0.4064   13.4584   -6.4114 N   0  0  3  0  0  0  0  0  0  0  0  0
    0.1793   12.3493   -6.7865 N   0  0  0  0  0  0  0  0  0  0  0  0
   -0.7954   11.5387   -7.1512 C   0  0  0  0  0  0  0  0  0  0  0  0
    0.4205   14.5767   -6.0073 C   0  0  0  0  0  0  0  0  0  0  0  0
   -4.6894   13.8945  -11.1046 C   0  0  0  0  0  0  0  0  0  0  0  0
   -3.7822   15.1171  -11.3990 C   0  0  0  0  0  0  0  0  0  0  0  0
   -2.3310   14.9579  -11.2532 N   0  0  0  0  0  0  0  0  0  0  0  0
   -1.8099   14.4326  -10.1320 C   0  0  0  0  0  0  0  0  0  0  0  0
   -2.5019   14.0442   -9.2076 O   0  0  0  0  0  0  0  0  0  0  0  0
   -0.2869   14.3494  -10.0364 C   0  0  0  0  0  0  0  0  0  0  0  0
   -6.0716   12.2689   -9.8542 H   0  0  0  0  0  0  0  0  0  0  0  0
   -8.1374   10.1224  -13.9131 H   0  0  0  0  0  0  0  0  0  0  0  0
   -6.8466   12.2604  -14.0624 H   0  0  0  0  0  0  0  0  0  0  0  0
   -6.6939    9.1829   -9.6414 H   0  0  0  0  0  0  0  0  0  0  0  0
   -8.0269    9.5780   -7.2478 H   0  0  0  0  0  0  0  0  0  0  0  0
   -5.0791   13.4115  -13.0408 H   0  0  0  0  0  0  0  0  0  0  0  0
   -6.7507   12.3156   -6.9255 H   0  0  0  0  0  0  0  0  0  0  0  0
   -4.5132   13.2816   -6.4664 H   0  0  0  0  0  0  0  0  0  0  0  0
   -2.6683    9.7485   -8.0357 H   0  0  0  0  0  0  0  0  0  0  0  0
   -4.9092    8.7863   -8.4943 H   0  0  0  0  0  0  0  0  0  0  0  0
   -2.1095   14.2037   -7.1341 H   0  0  0  0  0  0  0  0  0  0  0  0
   -2.1522   13.5713   -5.4533 H   0  0  0  0  0  0  0  0  0  0  0  0
   -0.6475   10.5464   -7.5511 H   0  0  0  0  0  0  0  0  0  0  0  0
    1.4812   14.2962   -6.0855 H   0  0  0  0  0  0  0  0  0  0  0  0
    0.2196   15.4369   -6.6628 H   0  0  0  0  0  0  0  0  0  0  0  0
    0.1886   14.8468   -4.9665 H   0  0  0  0  0  0  0  0  0  0  0  0
   -5.2882   14.1185  -10.2095 H   0  0  0  0  0  0  0  0  0  0  0  0
   -4.0431   13.0269  -10.9057 H   0  0  0  0  0  0  0  0  0  0  0  0
   -3.9735   15.4217  -12.4385 H   0  0  0  0  0  0  0  0  0  0  0  0
   -4.0914   15.9235  -10.7178 H   0  0  0  0  0  0  0  0  0  0  0  0
   -1.9457   13.7098   -8.5138 H   0  0  0  0  0  0  0  0  0  0  0  0
   -0.0034   13.9020   -9.0723 H   0  0  0  0  0  0  0  0  0  0  0  0
    0.0984   13.7264  -10.8570 H   0  0  0  0  0  0  0  0  0  0  0  0
    0.1408   15.3601  -10.1114 H   0  0  0  0  0  0  0  0  0  0  0  0
  1  2  2  0  0  0  0
  1  4  1  0  0  0  0
  1 11  1  0  0  0  0
  2  6  1  0  0  0  0
  3  4  2  0  0  0  0
  3  5  1  0  0  0  0
  5  6  2  0  0  0  0
  5  9  1  0  0  0  0
  6  7  1  0  0  0  0
  7  8  1  0  0  0  0
  7 10  1  0  0  0  0
  8  9  2  0  0  0  0
 10 12  2  0  0  0  0
 11 24  1  0  0  0  0
 12 13  1  0  0  0  0
 12 17  1  0  0  0  0
 13 14  2  0  0  0  0
 14 15  1  0  0  0  0
 15 16  1  0  0  0  0
 15 18  2  0  0  0  0
 16 17  2  0  0  0  0
 18 19  1  0  0  0  0
 18 22  1  0  0  0  0
 19 20  1  0  0  0  0
 20 21  1  0  0  0  0
 20 23  1  0  0  0  0
 21 22  2  0  0  0  0
 24 25  1  0  0  0  0
 25 26  1  0  0  0  0
 26 27  2  0  0  0  0
 27 28  1  0  0  0  0
 27 29  1  0  0  0  0
  2 30  1  0  0  0  0
  3 31  1  0  0  0  0
  4 32  1  0  0  0  0
  7 33  1  0  0  0  0
 10 34  1  0  0  0  0
 11 35  1  0  0  0  0
 13 36  1  0  0  0  0
 14 37  1  0  0  0  0
 16 38  1  0  0  0  0
 17 39  1  0  0  0  0
 19 40  1  0  0  0  0
 19 41  1  0  0  0  0
 22 42  1  0  0  0  0
 23 43  1  0  0  0  0
 23 44  1  0  0  0  0
 23 45  1  0  0  0  0
 24 46  1  0  0  0  0
 24 47  1  0  0  0  0
 25 48  1  0  0  0  0
 25 49  1  0  0  0  0
 28 50  1  0  0  0  0
 29 51  1  0  0  0  0
 29 52  1  0  0  0  0
 29 53  1  0  0  0  0
M  END
> <Name>
27

> <IC50[uM]>
0.68

$$$$
27
  -OEChem-05192314333D
 Structure written by MMmdl.
 53 56  0     0  0  0  0  0  0999 V2000
   -6.3855   12.3606  -12.0031 C   0  0  0  0  0  0  0  0  0  0  0  0
   -6.5214   11.8004  -10.7171 C   0  0  0  0  0  0  0  0  0  0  0  0
   -7.6991   10.5797  -13.0384 C   0  0  0  0  0  0  0  0  0  0  0  0
   -6.9626   11.7779  -13.1031 C   0  0  0  0  0  0  0  0  0  0  0  0
   -7.8238   10.0198  -11.7523 C   0  0  0  0  0  0  0  0  0  0  0  0
   -7.2557   10.6213  -10.5956 C   0  0  0  0  0  0  0  0  0  0  0  0
   -7.6268    9.7501   -9.5073 C   0  0  0  0  0  0  0  0  0  0  0  0
   -8.3057    8.7491   -9.9816 N   0  0  0  0  0  0  0  0  0  0  0  0
   -8.4330    8.8776  -11.2917 N   0  0  0  0  0  0  0  0  0  0  0  0
   -7.3352    9.8817   -8.0196 C   0  0  0  0  0  0  0  0  0  0  0  0
   -5.6205   13.5372  -12.2095 N   0  0  0  0  0  0  0  0  0  0  0  0
   -5.9727   10.4835   -7.7324 C   0  0  0  0  0  0  0  0  0  0  0  0
   -5.8611   11.7523   -7.1657 C   0  0  0  0  0  0  0  0  0  0  0  0
   -4.5946   12.2988   -6.9068 C   0  0  0  0  0  0  0  0  0  0  0  0
   -3.4432   11.5806   -7.2147 C   0  0  0  0  0  0  0  0  0  0  0  0
   -3.5570   10.3109   -7.7899 C   0  0  0  0  0  0  0  0  0  0  0  0
   -4.8253    9.7663   -8.0483 C   0  0  0  0  0  0  0  0  0  0  0  0
   -2.0926   12.1556   -6.9444 C   0  0  0  0  0  0  0  0  0  0  0  0
   -1.7338   13.4204   -6.4594 C   0  0  0  0  0  0  0  0  0  0  0  0
   -0.4064   13.4584   -6.4114 N   0  0  0  0  0  0  0  0  0  0  0  0
    0.1793   12.3493   -6.7865 N   0  0  0  0  0  0  0  0  0  0  0  0
   -0.7954   11.5387   -7.1512 C   0  0  0  0  0  0  0  0  0  0  0  0
    0.4205   14.5767   -6.0073 C   0  0  0  0  0  0  0  0  0  0  0  0
   -4.6894   13.8945  -11.1046 C   0  0  0  0  0  0  0  0  0  0  0  0
   -3.7822   15.1171  -11.3990 C   0  0  0  0  0  0  0  0  0  0  0  0
   -2.3310   14.9579  -11.2532 N   0  0  0  0  0  0  0  0  0  0  0  0
   -1.8099   14.4326  -10.1320 C   0  0  0  0  0  0  0  0  0  0  0  0
   -2.5019   14.0442   -9.2076 O   0  0  0  0  0  0  0  0  0  0  0  0
   -0.2869   14.3494  -10.0364 C   0  0  0  0  0  0  0  0  0  0  0  0
   -6.0716   12.2689   -9.8542 H   0  0  0  0  0  0  0  0  0  0  0  0
   -8.7105   10.7812  -13.4211 H   0  0  0  0  0  0  0  0  0  0  0  0
   -7.2031    9.8404  -13.6845 H   0  0  0  0  0  0  0  0  0  0  0  0
   -7.6459   12.5314  -13.5218 H   0  0  0  0  0  0  0  0  0  0  0  0
   -6.1429   11.5918  -13.8126 H   0  0  0  0  0  0  0  0  0  0  0  0
   -8.1046   10.5248   -7.5674 H   0  0  0  0  0  0  0  0  0  0  0  0
   -7.3794    8.8814   -7.5641 H   0  0  0  0  0  0  0  0  0  0  0  0
   -6.7507   12.3156   -6.9255 H   0  0  0  0  0  0  0  0  0  0  0  0
   -4.5132   13.2816   -6.4664 H   0  0  0  0  0  0  0  0  0  0  0  0
   -2.6683    9.7485   -8.0357 H   0  0  0  0  0  0  0  0  0  0  0  0
   -4.9092    8.7863   -8.4943 H   0  0  0  0  0  0  0  0  0  0  0  0
   -2.4090   14.2148   -6.1776 H   0  0  0  0  0  0  0  0  0  0  0  0
   -0.6475   10.5464   -7.5511 H   0  0  0  0  0  0  0  0  0  0  0  0
    1.4812   14.2962   -6.0855 H   0  0  0  0  0  0  0  0  0  0  0  0
    0.2196   15.4369   -6.6628 H   0  0  0  0  0  0  0  0  0  0  0  0
    0.1886   14.8468   -4.9665 H   0  0  0  0  0  0  0  0  0  0  0  0
   -5.2882   14.1185  -10.2095 H   0  0  0  0  0  0  0  0  0  0  0  0
   -4.0431   13.0269  -10.9057 H   0  0  0  0  0  0  0  0  0  0  0  0
   -3.9735   15.4217  -12.4385 H   0  0  0  0  0  0  0  0  0  0  0  0
   -4.0914   15.9235  -10.7178 H   0  0  0  0  0  0  0  0  0  0  0  0
   -1.7243   15.2430  -11.9952 H   0  0  0  0  0  0  0  0  0  0  0  0
   -0.0031   13.9147   -9.0666 H   0  0  0  0  0  0  0  0  0  0  0  0
    0.0973   13.7152  -10.8489 H   0  0  0  0  0  0  0  0  0  0  0  0
    0.1416   15.3586  -10.1252 H   0  0  0  0  0  0  0  0  0  0  0  0
  1  2  1  0  0  0  0
  1  4  1  0  0  0  0
  1 11  2  0  0  0  0
  2  6  2  0  0  0  0
  3  4  1  0  0  0  0
  3  5  1  0  0  0  0
  5  6  1  0  0  0  0
  5  9  2  0  0  0  0
  6  7  1  0  0  0  0
  7  8  2  0  0  0  0
  7 10  1  0  0  0  0
  8  9  1  0  0  0  0
 10 12  1  0  0  0  0
 11 24  1  0  0  0  0
 12 13  2  0  0  0  0
 12 17  1  0  0  0  0
 13 14  1  0  0  0  0
 14 15  2  0  0  0  0
 15 16  1  0  0  0  0
 15 18  1  0  0  0  0
 16 17  2  0  0  0  0
 18 19  2  0  0  0  0
 18 22  1  0  0  0  0
 19 20  1  0  0  0  0
 20 21  1  0  0  0  0
 20 23  1  0  0  0  0
 21 22  2  0  0  0  0
 24 25  1  0  0  0  0
 25 26  1  0  0  0  0
 26 27  1  0  0  0  0
 27 28  2  0  0  0  0
 27 29  1  0  0  0  0
  2 30  1  0  0  0  0
  3 31  1  0  0  0  0
  3 32  1  0  0  0  0
  4 33  1  0  0  0  0
  4 34  1  0  0  0  0
 10 35  1  0  0  0  0
 10 36  1  0  0  0  0
 13 37  1  0  0  0  0
 14 38  1  0  0  0  0
 16 39  1  0  0  0  0
 17 40  1  0  0  0  0
 19 41  1  0  0  0  0
 22 42  1  0  0  0  0
 23 43  1  0  0  0  0
 23 44  1  0  0  0  0
 23 45  1  0  0  0  0
 24 46  1  0  0  0  0
 24 47  1  0  0  0  0
 25 48  1  0  0  0  0
 25 49  1  0  0  0  0
 26 50  1  0  0  0  0
 29 51  1  0  0  0  0
 29 52  1  0  0  0  0
 29 53  1  0  0  0  0
M  END
> <Name>
27

> <IC50[uM]>
0.68

$$$$
27
  -OEChem-05192314333D
 Structure written by MMmdl.
 53 56  0     1  0  0  0  0  0999 V2000
   -6.3855   12.3606  -12.0031 C   0  0  0  0  0  0  0  0  0  0  0  0
   -6.5214   11.8004  -10.7171 C   0  0  0  0  0  0  0  0  0  0  0  0
   -7.6991   10.5797  -13.0384 C   0  0  0  0  0  0  0  0  0  0  0  0
   -6.9626   11.7779  -13.1031 C   0  0  0  0  0  0  0  0  0  0  0  0
   -7.8238   10.0198  -11.7523 C   0  0  0  0  0  0  0  0  0  0  0  0
   -7.2557   10.6213  -10.5956 C   0  0  3  0  0  0  0  0  0  0  0  0
   -7.6268    9.7501   -9.5073 C   0  0  0  0  0  0  0  0  0  0  0  0
   -8.3057    8.7491   -9.9816 N   0  0  0  0  0  0  0  0  0  0  0  0
   -8.4330    8.8776  -11.2917 N   0  0  0  0  0  0  0  0  0  0  0  0
   -7.3352    9.8817   -8.0196 C   0  0  0  0  0  0  0  0  0  0  0  0
   -5.6205   13.5372  -12.2095 N   0  0  0  0  0  0  0  0  0  0  0  0
   -5.9727   10.4835   -7.7324 C   0  0  0  0  0  0  0  0  0  0  0  0
   -5.8611   11.7523   -7.1657 C   0  0  0  0  0  0  0  0  0  0  0  0
   -4.5946   12.2988   -6.9068 C   0  0  0  0  0  0  0  0  0  0  0  0
   -3.4432   11.5806   -7.2147 C   0  0  0  0  0  0  0  0  0  0  0  0
   -3.5570   10.3109   -7.7899 C   0  0  0  0  0  0  0  0  0  0  0  0
   -4.8253    9.7663   -8.0483 C   0  0  0  0  0  0  0  0  0  0  0  0
   -2.0926   12.1556   -6.9444 C   0  0  0  0  0  0  0  0  0  0  0  0
   -1.7338   13.4204   -6.4594 C   0  0  0  0  0  0  0  0  0  0  0  0
   -0.4064   13.4584   -6.4114 N   0  0  0  0  0  0  0  0  0  0  0  0
    0.1793   12.3493   -6.7865 N   0  0  0  0  0  0  0  0  0  0  0  0
   -0.7954   11.5387   -7.1512 C   0  0  0  0  0  0  0  0  0  0  0  0
    0.4205   14.5767   -6.0073 C   0  0  0  0  0  0  0  0  0  0  0  0
   -4.6894   13.8945  -11.1046 C   0  0  0  0  0  0  0  0  0  0  0  0
   -3.7822   15.1171  -11.3990 C   0  0  0  0  0  0  0  0  0  0  0  0
   -2.3310   14.9579  -11.2532 N   0  0  0  0  0  0  0  0  0  0  0  0
   -1.8099   14.4326  -10.1320 C   0  0  0  0  0  0  0  0  0  0  0  0
   -2.5019   14.0442   -9.2076 O   0  0  0  0  0  0  0  0  0  0  0  0
   -0.2869   14.3494  -10.0364 C   0  0  0  0  0  0  0  0  0  0  0  0
   -5.5086   11.5965  -10.3394 H   0  0  0  0  0  0  0  0  0  0  0  0
   -7.0053   12.5553  -10.0799 H   0  0  0  0  0  0  0  0  0  0  0  0
   -8.1374   10.1224  -13.9131 H   0  0  0  0  0  0  0  0  0  0  0  0
   -6.8466   12.2604  -14.0624 H   0  0  0  0  0  0  0  0  0  0  0  0
   -8.1751   11.2060  -10.4447 H   0  0  0  0  0  0  0  0  0  0  0  0
   -8.1046   10.5248   -7.5674 H   0  0  0  0  0  0  0  0  0  0  0  0
   -7.3794    8.8814   -7.5641 H   0  0  0  0  0  0  0  0  0  0  0  0
   -6.7507   12.3156   -6.9255 H   0  0  0  0  0  0  0  0  0  0  0  0
   -4.5132   13.2816   -6.4664 H   0  0  0  0  0  0  0  0  0  0  0  0
   -2.6683    9.7485   -8.0357 H   0  0  0  0  0  0  0  0  0  0  0  0
   -4.9092    8.7863   -8.4943 H   0  0  0  0  0  0  0  0  0  0  0  0
   -2.4090   14.2148   -6.1776 H   0  0  0  0  0  0  0  0  0  0  0  0
   -0.6475   10.5464   -7.5511 H   0  0  0  0  0  0  0  0  0  0  0  0
    1.4812   14.2962   -6.0855 H   0  0  0  0  0  0  0  0  0  0  0  0
    0.2196   15.4369   -6.6628 H   0  0  0  0  0  0  0  0  0  0  0  0
    0.1886   14.8468   -4.9665 H   0  0  0  0  0  0  0  0  0  0  0  0
   -5.2882   14.1185  -10.2095 H   0  0  0  0  0  0  0  0  0  0  0  0
   -4.0431   13.0269  -10.9057 H   0  0  0  0  0  0  0  0  0  0  0  0
   -3.9735   15.4217  -12.4385 H   0  0  0  0  0  0  0  0  0  0  0  0
   -4.0914   15.9235  -10.7178 H   0  0  0  0  0  0  0  0  0  0  0  0
   -1.7243   15.2430  -11.9952 H   0  0  0  0  0  0  0  0  0  0  0  0
   -0.0031   13.9147   -9.0666 H   0  0  0  0  0  0  0  0  0  0  0  0
    0.0973   13.7152  -10.8489 H   0  0  0  0  0  0  0  0  0  0  0  0
    0.1416   15.3586  -10.1252 H   0  0  0  0  0  0  0  0  0  0  0  0
  1  2  1  0  0  0  0
  1  4  1  0  0  0  0
  1 11  2  0  0  0  0
  2  6  1  0  0  0  0
  3  4  2  0  0  0  0
  3  5  1  0  0  0  0
  5  6  1  0  0  0  0
  5  9  2  0  0  0  0
  6  7  1  0  0  0  0
  7  8  2  0  0  0  0
  7 10  1  0  0  0  0
  8  9  1  0  0  0  0
 10 12  1  0  0  0  0
 11 24  1  0  0  0  0
 12 13  2  0  0  0  0
 12 17  1  0  0  0  0
 13 14  1  0  0  0  0
 14 15  2  0  0  0  0
 15 16  1  0  0  0  0
 15 18  1  0  0  0  0
 16 17  2  0  0  0  0
 18 19  2  0  0  0  0
 18 22  1  0  0  0  0
 19 20  1  0  0  0  0
 20 21  1  0  0  0  0
 20 23  1  0  0  0  0
 21 22  2  0  0  0  0
 24 25  1  0  0  0  0
 25 26  1  0  0  0  0
 26 27  1  0  0  0  0
 27 28  2  0  0  0  0
 27 29  1  0  0  0  0
  2 30  1  0  0  0  0
  2 31  1  0  0  0  0
  3 32  1  0  0  0  0
  4 33  1  0  0  0  0
  6 34  1  0  0  0  0
 10 35  1  0  0  0  0
 10 36  1  0  0  0  0
 13 37  1  0  0  0  0
 14 38  1  0  0  0  0
 16 39  1  0  0  0  0
 17 40  1  0  0  0  0
 19 41  1  0  0  0  0
 22 42  1  0  0  0  0
 23 43  1  0  0  0  0
 23 44  1  0  0  0  0
 23 45  1  0  0  0  0
 24 46  1  0  0  0  0
 24 47  1  0  0  0  0
 25 48  1  0  0  0  0
 25 49  1  0  0  0  0
 26 50  1  0  0  0  0
 29 51  1  0  0  0  0
 29 52  1  0  0  0  0
 29 53  1  0  0  0  0
M  END
> <Name>
27

> <IC50[uM]>
0.68

$$$$
27
  -OEChem-05192314333D
 Structure written by MMmdl.
 53 56  0     0  0  0  0  0  0999 V2000
   -6.3855   12.3606  -12.0031 C   0  0  0  0  0  0  0  0  0  0  0  0
   -6.5214   11.8004  -10.7171 C   0  0  0  0  0  0  0  0  0  0  0  0
   -7.6991   10.5797  -13.0384 C   0  0  0  0  0  0  0  0  0  0  0  0
   -6.9626   11.7779  -13.1031 C   0  0  0  0  0  0  0  0  0  0  0  0
   -7.8238   10.0198  -11.7523 C   0  0  0  0  0  0  0  0  0  0  0  0
   -7.2557   10.6213  -10.5956 C   0  0  0  0  0  0  0  0  0  0  0  0
   -7.6268    9.7501   -9.5073 C   0  0  0  0  0  0  0  0  0  0  0  0
   -8.3057    8.7491   -9.9816 N   0  0  0  0  0  0  0  0  0  0  0  0
   -8.4330    8.8776  -11.2917 N   0  0  0  0  0  0  0  0  0  0  0  0
   -7.3352    9.8817   -8.0196 C   0  0  0  0  0  0  0  0  0  0  0  0
   -5.6205   13.5372  -12.2095 N   0  0  0  0  0  0  0  0  0  0  0  0
   -5.9727   10.4835   -7.7324 C   0  0  0  0  0  0  0  0  0  0  0  0
   -5.8611   11.7523   -7.1657 C   0  0  0  0  0  0  0  0  0  0  0  0
   -4.5946   12.2988   -6.9068 C   0  0  0  0  0  0  0  0  0  0  0  0
   -3.4432   11.5806   -7.2147 C   0  0  0  0  0  0  0  0  0  0  0  0
   -3.5570   10.3109   -7.7899 C   0  0  0  0  0  0  0  0  0  0  0  0
   -4.8253    9.7663   -8.0483 C   0  0  0  0  0  0  0  0  0  0  0  0
   -2.0926   12.1556   -6.9444 C   0  0  0  0  0  0  0  0  0  0  0  0
   -1.7338   13.4204   -6.4594 C   0  0  0  0  0  0  0  0  0  0  0  0
   -0.4064   13.4584   -6.4114 N   0  0  0  0  0  0  0  0  0  0  0  0
    0.1793   12.3493   -6.7865 N   0  0  0  0  0  0  0  0  0  0  0  0
   -0.7954   11.5387   -7.1512 C   0  0  0  0  0  0  0  0  0  0  0  0
    0.4205   14.5767   -6.0073 C   0  0  0  0  0  0  0  0  0  0  0  0
   -4.6894   13.8945  -11.1046 C   0  0  0  0  0  0  0  0  0  0  0  0
   -3.7822   15.1171  -11.3990 C   0  0  0  0  0  0  0  0  0  0  0  0
   -2.3310   14.9579  -11.2532 N   0  0  0  0  0  0  0  0  0  0  0  0
   -1.8099   14.4326  -10.1320 C   0  0  0  0  0  0  0  0  0  0  0  0
   -2.5019   14.0442   -9.2076 O   0  0  0  0  0  0  0  0  0  0  0  0
   -0.2869   14.3494  -10.0364 C   0  0  0  0  0  0  0  0  0  0  0  0
   -6.0716   12.2689   -9.8542 H   0  0  0  0  0  0  0  0  0  0  0  0
   -8.7105   10.7812  -13.4211 H   0  0  0  0  0  0  0  0  0  0  0  0
   -7.2031    9.8404  -13.6845 H   0  0  0  0  0  0  0  0  0  0  0  0
   -7.6459   12.5314  -13.5218 H   0  0  0  0  0  0  0  0  0  0  0  0
   -6.1429   11.5918  -13.8126 H   0  0  0  0  0  0  0  0  0  0  0  0
   -8.1046   10.5248   -7.5674 H   0  0  0  0  0  0  0  0  0  0  0  0
   -7.3794    8.8814   -7.5641 H   0  0  0  0  0  0  0  0  0  0  0  0
   -6.7507   12.3156   -6.9255 H   0  0  0  0  0  0  0  0  0  0  0  0
   -4.5132   13.2816   -6.4664 H   0  0  0  0  0  0  0  0  0  0  0  0
   -2.6683    9.7485   -8.0357 H   0  0  0  0  0  0  0  0  0  0  0  0
   -4.9092    8.7863   -8.4943 H   0  0  0  0  0  0  0  0  0  0  0  0
   -2.4090   14.2148   -6.1776 H   0  0  0  0  0  0  0  0  0  0  0  0
   -0.6475   10.5464   -7.5511 H   0  0  0  0  0  0  0  0  0  0  0  0
    1.4812   14.2962   -6.0855 H   0  0  0  0  0  0  0  0  0  0  0  0
    0.2196   15.4369   -6.6628 H   0  0  0  0  0  0  0  0  0  0  0  0
    0.1886   14.8468   -4.9665 H   0  0  0  0  0  0  0  0  0  0  0  0
   -5.2882   14.1185  -10.2095 H   0  0  0  0  0  0  0  0  0  0  0  0
   -4.0431   13.0269  -10.9057 H   0  0  0  0  0  0  0  0  0  0  0  0
   -3.9735   15.4217  -12.4385 H   0  0  0  0  0  0  0  0  0  0  0  0
   -4.0914   15.9235  -10.7178 H   0  0  0  0  0  0  0  0  0  0  0  0
   -1.9457   13.7098   -8.5138 H   0  0  0  0  0  0  0  0  0  0  0  0
   -0.0034   13.9020   -9.0723 H   0  0  0  0  0  0  0  0  0  0  0  0
    0.0984   13.7264  -10.8570 H   0  0  0  0  0  0  0  0  0  0  0  0
    0.1408   15.3601  -10.1114 H   0  0  0  0  0  0  0  0  0  0  0  0
  1  2  1  0  0  0  0
  1  4  1  0  0  0  0
  1 11  2  0  0  0  0
  2  6  2  0  0  0  0
  3  4  1  0  0  0  0
  3  5  1  0  0  0  0
  5  6  1  0  0  0  0
  5  9  2  0  0  0  0
  6  7  1  0  0  0  0
  7  8  2  0  0  0  0
  7 10  1  0  0  0  0
  8  9  1  0  0  0  0
 10 12  1  0  0  0  0
 11 24  1  0  0  0  0
 12 13  2  0  0  0  0
 12 17  1  0  0  0  0
 13 14  1  0  0  0  0
 14 15  2  0  0  0  0
 15 16  1  0  0  0  0
 15 18  1  0  0  0  0
 16 17  2  0  0  0  0
 18 19  2  0  0  0  0
 18 22  1  0  0  0  0
 19 20  1  0  0  0  0
 20 21  1  0  0  0  0
 20 23  1  0  0  0  0
 21 22  2  0  0  0  0
 24 25  1  0  0  0  0
 25 26  1  0  0  0  0
 26 27  2  0  0  0  0
 27 28  1  0  0  0  0
 27 29  1  0  0  0  0
  2 30  1  0  0  0  0
  3 31  1  0  0  0  0
  3 32  1  0  0  0  0
  4 33  1  0  0  0  0
  4 34  1  0  0  0  0
 10 35  1  0  0  0  0
 10 36  1  0  0  0  0
 13 37  1  0  0  0  0
 14 38  1  0  0  0  0
 16 39  1  0  0  0  0
 17 40  1  0  0  0  0
 19 41  1  0  0  0  0
 22 42  1  0  0  0  0
 23 43  1  0  0  0  0
 23 44  1  0  0  0  0
 23 45  1  0  0  0  0
 24 46  1  0  0  0  0
 24 47  1  0  0  0  0
 25 48  1  0  0  0  0
 25 49  1  0  0  0  0
 28 50  1  0  0  0  0
 29 51  1  0  0  0  0
 29 52  1  0  0  0  0
 29 53  1  0  0  0  0
M  END
> <Name>
27

> <IC50[uM]>
0.68

$$$$
27
  -OEChem-05192314333D
 Structure written by MMmdl.
 53 56  0     1  0  0  0  0  0999 V2000
   -6.3855   12.3606  -12.0031 C   0  0  0  0  0  0  0  0  0  0  0  0
   -6.5214   11.8004  -10.7171 C   0  0  0  0  0  0  0  0  0  0  0  0
   -7.6991   10.5797  -13.0384 C   0  0  0  0  0  0  0  0  0  0  0  0
   -6.9626   11.7779  -13.1031 C   0  0  0  0  0  0  0  0  0  0  0  0
   -7.8238   10.0198  -11.7523 C   0  0  0  0  0  0  0  0  0  0  0  0
   -7.2557   10.6213  -10.5956 C   0  0  3  0  0  0  0  0  0  0  0  0
   -7.6268    9.7501   -9.5073 C   0  0  0  0  0  0  0  0  0  0  0  0
   -8.3057    8.7491   -9.9816 N   0  0  0  0  0  0  0  0  0  0  0  0
   -8.4330    8.8776  -11.2917 N   0  0  0  0  0  0  0  0  0  0  0  0
   -7.3352    9.8817   -8.0196 C   0  0  0  0  0  0  0  0  0  0  0  0
   -5.6205   13.5372  -12.2095 N   0  0  0  0  0  0  0  0  0  0  0  0
   -5.9727   10.4835   -7.7324 C   0  0  0  0  0  0  0  0  0  0  0  0
   -5.8611   11.7523   -7.1657 C   0  0  0  0  0  0  0  0  0  0  0  0
   -4.5946   12.2988   -6.9068 C   0  0  0  0  0  0  0  0  0  0  0  0
   -3.4432   11.5806   -7.2147 C   0  0  0  0  0  0  0  0  0  0  0  0
   -3.5570   10.3109   -7.7899 C   0  0  0  0  0  0  0  0  0  0  0  0
   -4.8253    9.7663   -8.0483 C   0  0  0  0  0  0  0  0  0  0  0  0
   -2.0926   12.1556   -6.9444 C   0  0  0  0  0  0  0  0  0  0  0  0
   -1.7338   13.4204   -6.4594 C   0  0  0  0  0  0  0  0  0  0  0  0
   -0.4064   13.4584   -6.4114 N   0  0  0  0  0  0  0  0  0  0  0  0
    0.1793   12.3493   -6.7865 N   0  0  0  0  0  0  0  0  0  0  0  0
   -0.7954   11.5387   -7.1512 C   0  0  0  0  0  0  0  0  0  0  0  0
    0.4205   14.5767   -6.0073 C   0  0  0  0  0  0  0  0  0  0  0  0
   -4.6894   13.8945  -11.1046 C   0  0  0  0  0  0  0  0  0  0  0  0
   -3.7822   15.1171  -11.3990 C   0  0  0  0  0  0  0  0  0  0  0  0
   -2.3310   14.9579  -11.2532 N   0  0  0  0  0  0  0  0  0  0  0  0
   -1.8099   14.4326  -10.1320 C   0  0  0  0  0  0  0  0  0  0  0  0
   -2.5019   14.0442   -9.2076 O   0  0  0  0  0  0  0  0  0  0  0  0
   -0.2869   14.3494  -10.0364 C   0  0  0  0  0  0  0  0  0  0  0  0
   -5.5086   11.5965  -10.3394 H   0  0  0  0  0  0  0  0  0  0  0  0
   -7.0053   12.5553  -10.0799 H   0  0  0  0  0  0  0  0  0  0  0  0
   -8.1374   10.1224  -13.9131 H   0  0  0  0  0  0  0  0  0  0  0  0
   -6.8466   12.2604  -14.0624 H   0  0  0  0  0  0  0  0  0  0  0  0
   -8.1751   11.2060  -10.4447 H   0  0  0  0  0  0  0  0  0  0  0  0
   -8.1046   10.5248   -7.5674 H   0  0  0  0  0  0  0  0  0  0  0  0
   -7.3794    8.8814   -7.5641 H   0  0  0  0  0  0  0  0  0  0  0  0
   -6.7507   12.3156   -6.9255 H   0  0  0  0  0  0  0  0  0  0  0  0
   -4.5132   13.2816   -6.4664 H   0  0  0  0  0  0  0  0  0  0  0  0
   -2.6683    9.7485   -8.0357 H   0  0  0  0  0  0  0  0  0  0  0  0
   -4.9092    8.7863   -8.4943 H   0  0  0  0  0  0  0  0  0  0  0  0
   -2.4090   14.2148   -6.1776 H   0  0  0  0  0  0  0  0  0  0  0  0
   -0.6475   10.5464   -7.5511 H   0  0  0  0  0  0  0  0  0  0  0  0
    1.4812   14.2962   -6.0855 H   0  0  0  0  0  0  0  0  0  0  0  0
    0.2196   15.4369   -6.6628 H   0  0  0  0  0  0  0  0  0  0  0  0
    0.1886   14.8468   -4.9665 H   0  0  0  0  0  0  0  0  0  0  0  0
   -5.2882   14.1185  -10.2095 H   0  0  0  0  0  0  0  0  0  0  0  0
   -4.0431   13.0269  -10.9057 H   0  0  0  0  0  0  0  0  0  0  0  0
   -3.9735   15.4217  -12.4385 H   0  0  0  0  0  0  0  0  0  0  0  0
   -4.0914   15.9235  -10.7178 H   0  0  0  0  0  0  0  0  0  0  0  0
   -1.9457   13.7098   -8.5138 H   0  0  0  0  0  0  0  0  0  0  0  0
   -0.0034   13.9020   -9.0723 H   0  0  0  0  0  0  0  0  0  0  0  0
    0.0984   13.7264  -10.8570 H   0  0  0  0  0  0  0  0  0  0  0  0
    0.1408   15.3601  -10.1114 H   0  0  0  0  0  0  0  0  0  0  0  0
  1  2  1  0  0  0  0
  1  4  1  0  0  0  0
  1 11  2  0  0  0  0
  2  6  1  0  0  0  0
  3  4  2  0  0  0  0
  3  5  1  0  0  0  0
  5  6  1  0  0  0  0
  5  9  2  0  0  0  0
  6  7  1  0  0  0  0
  7  8  2  0  0  0  0
  7 10  1  0  0  0  0
  8  9  1  0  0  0  0
 10 12  1  0  0  0  0
 11 24  1  0  0  0  0
 12 13  2  0  0  0  0
 12 17  1  0  0  0  0
 13 14  1  0  0  0  0
 14 15  2  0  0  0  0
 15 16  1  0  0  0  0
 15 18  1  0  0  0  0
 16 17  2  0  0  0  0
 18 19  2  0  0  0  0
 18 22  1  0  0  0  0
 19 20  1  0  0  0  0
 20 21  1  0  0  0  0
 20 23  1  0  0  0  0
 21 22  2  0  0  0  0
 24 25  1  0  0  0  0
 25 26  1  0  0  0  0
 26 27  2  0  0  0  0
 27 28  1  0  0  0  0
 27 29  1  0  0  0  0
  2 30  1  0  0  0  0
  2 31  1  0  0  0  0
  3 32  1  0  0  0  0
  4 33  1  0  0  0  0
  6 34  1  0  0  0  0
 10 35  1  0  0  0  0
 10 36  1  0  0  0  0
 13 37  1  0  0  0  0
 14 38  1  0  0  0  0
 16 39  1  0  0  0  0
 17 40  1  0  0  0  0
 19 41  1  0  0  0  0
 22 42  1  0  0  0  0
 23 43  1  0  0  0  0
 23 44  1  0  0  0  0
 23 45  1  0  0  0  0
 24 46  1  0  0  0  0
 24 47  1  0  0  0  0
 25 48  1  0  0  0  0
 25 49  1  0  0  0  0
 28 50  1  0  0  0  0
 29 51  1  0  0  0  0
 29 52  1  0  0  0  0
 29 53  1  0  0  0  0
M  END
> <Name>
27

> <IC50[uM]>
0.68

$$$$
27
  -OEChem-05192314333D
 Structure written by MMmdl.
 53 56  0     1  0  0  0  0  0999 V2000
   -6.3855   12.3606  -12.0031 C   0  0  0  0  0  0  0  0  0  0  0  0
   -6.5214   11.8004  -10.7171 C   0  0  0  0  0  0  0  0  0  0  0  0
   -7.6991   10.5797  -13.0384 C   0  0  0  0  0  0  0  0  0  0  0  0
   -6.9626   11.7779  -13.1031 C   0  0  0  0  0  0  0  0  0  0  0  0
   -7.8238   10.0198  -11.7523 C   0  0  3  0  0  0  0  0  0  0  0  0
   -7.2557   10.6213  -10.5956 C   0  0  0  0  0  0  0  0  0  0  0  0
   -7.6268    9.7501   -9.5073 C   0  0  0  0  0  0  0  0  0  0  0  0
   -8.3057    8.7491   -9.9816 N   0  0  0  0  0  0  0  0  0  0  0  0
   -8.4330    8.8776  -11.2917 N   0  0  0  0  0  0  0  0  0  0  0  0
   -7.3352    9.8817   -8.0196 C   0  0  0  0  0  0  0  0  0  0  0  0
   -5.6205   13.5372  -12.2095 N   0  0  0  0  0  0  0  0  0  0  0  0
   -5.9727   10.4835   -7.7324 C   0  0  0  0  0  0  0  0  0  0  0  0
   -5.8611   11.7523   -7.1657 C   0  0  0  0  0  0  0  0  0  0  0  0
   -4.5946   12.2988   -6.9068 C   0  0  0  0  0  0  0  0  0  0  0  0
   -3.4432   11.5806   -7.2147 C   0  0  0  0  0  0  0  0  0  0  0  0
   -3.5570   10.3109   -7.7899 C   0  0  0  0  0  0  0  0  0  0  0  0
   -4.8253    9.7663   -8.0483 C   0  0  0  0  0  0  0  0  0  0  0  0
   -2.0926   12.1556   -6.9444 C   0  0  0  0  0  0  0  0  0  0  0  0
   -1.7338   13.4204   -6.4594 C   0  0  0  0  0  0  0  0  0  0  0  0
   -0.4064   13.4584   -6.4114 N   0  0  0  0  0  0  0  0  0  0  0  0
    0.1793   12.3493   -6.7865 N   0  0  0  0  0  0  0  0  0  0  0  0
   -0.7954   11.5387   -7.1512 C   0  0  0  0  0  0  0  0  0  0  0  0
    0.4205   14.5767   -6.0073 C   0  0  0  0  0  0  0  0  0  0  0  0
   -4.6894   13.8945  -11.1046 C   0  0  0  0  0  0  0  0  0  0  0  0
   -3.7822   15.1171  -11.3990 C   0  0  0  0  0  0  0  0  0  0  0  0
   -2.3310   14.9579  -11.2532 N   0  0  0  0  0  0  0  0  0  0  0  0
   -1.8099   14.4326  -10.1320 C   0  0  0  0  0  0  0  0  0  0  0  0
   -2.5019   14.0442   -9.2076 O   0  0  0  0  0  0  0  0  0  0  0  0
   -0.2869   14.3494  -10.0364 C   0  0  0  0  0  0  0  0  0  0  0  0
   -6.0716   12.2689   -9.8542 H   0  0  0  0  0  0  0  0  0  0  0  0
   -8.7105   10.7812  -13.4211 H   0  0  0  0  0  0  0  0  0  0  0  0
   -7.2031    9.8404  -13.6845 H   0  0  0  0  0  0  0  0  0  0  0  0
   -7.6459   12.5314  -13.5218 H   0  0  0  0  0  0  0  0  0  0  0  0
   -6.1429   11.5918  -13.8126 H   0  0  0  0  0  0  0  0  0  0  0  0
   -8.7543   10.5845  -11.5930 H   0  0  0  0  0  0  0  0  0  0  0  0
   -8.0269    9.5780   -7.2478 H   0  0  0  0  0  0  0  0  0  0  0  0
   -6.7507   12.3156   -6.9255 H   0  0  0  0  0  0  0  0  0  0  0  0
   -4.5132   13.2816   -6.4664 H   0  0  0  0  0  0  0  0  0  0  0  0
   -2.6683    9.7485   -8.0357 H   0  0  0  0  0  0  0  0  0  0  0  0
   -4.9092    8.7863   -8.4943 H   0  0  0  0  0  0  0  0  0  0  0  0
   -2.4090   14.2148   -6.1776 H   0  0  0  0  0  0  0  0  0  0  0  0
   -0.6475   10.5464   -7.5511 H   0  0  0  0  0  0  0  0  0  0  0  0
    1.4812   14.2962   -6.0855 H   0  0  0  0  0  0  0  0  0  0  0  0
    0.2196   15.4369   -6.6628 H   0  0  0  0  0  0  0  0  0  0  0  0
    0.1886   14.8468   -4.9665 H   0  0  0  0  0  0  0  0  0  0  0  0
   -5.2882   14.1185  -10.2095 H   0  0  0  0  0  0  0  0  0  0  0  0
   -4.0431   13.0269  -10.9057 H   0  0  0  0  0  0  0  0  0  0  0  0
   -3.9735   15.4217  -12.4385 H   0  0  0  0  0  0  0  0  0  0  0  0
   -4.0914   15.9235  -10.7178 H   0  0  0  0  0  0  0  0  0  0  0  0
   -1.7243   15.2430  -11.9952 H   0  0  0  0  0  0  0  0  0  0  0  0
   -0.0031   13.9147   -9.0666 H   0  0  0  0  0  0  0  0  0  0  0  0
    0.0973   13.7152  -10.8489 H   0  0  0  0  0  0  0  0  0  0  0  0
    0.1416   15.3586  -10.1252 H   0  0  0  0  0  0  0  0  0  0  0  0
  1  2  1  0  0  0  0
  1  4  1  0  0  0  0
  1 11  2  0  0  0  0
  2  6  2  0  0  0  0
  3  4  1  0  0  0  0
  3  5  1  0  0  0  0
  5  6  1  0  0  0  0
  5  9  1  0  0  0  0
  6  7  1  0  0  0  0
  7  8  1  0  0  0  0
  7 10  2  3  0  0  0
  8  9  2  0  0  0  0
 10 12  1  0  0  0  0
 11 24  1  0  0  0  0
 12 13  2  0  0  0  0
 12 17  1  0  0  0  0
 13 14  1  0  0  0  0
 14 15  2  0  0  0  0
 15 16  1  0  0  0  0
 15 18  1  0  0  0  0
 16 17  2  0  0  0  0
 18 19  2  0  0  0  0
 18 22  1  0  0  0  0
 19 20  1  0  0  0  0
 20 21  1  0  0  0  0
 20 23  1  0  0  0  0
 21 22  2  0  0  0  0
 24 25  1  0  0  0  0
 25 26  1  0  0  0  0
 26 27  1  0  0  0  0
 27 28  2  0  0  0  0
 27 29  1  0  0  0  0
  2 30  1  0  0  0  0
  3 31  1  0  0  0  0
  3 32  1  0  0  0  0
  4 33  1  0  0  0  0
  4 34  1  0  0  0  0
  5 35  1  0  0  0  0
 10 36  1  0  0  0  0
 13 37  1  0  0  0  0
 14 38  1  0  0  0  0
 16 39  1  0  0  0  0
 17 40  1  0  0  0  0
 19 41  1  0  0  0  0
 22 42  1  0  0  0  0
 23 43  1  0  0  0  0
 23 44  1  0  0  0  0
 23 45  1  0  0  0  0
 24 46  1  0  0  0  0
 24 47  1  0  0  0  0
 25 48  1  0  0  0  0
 25 49  1  0  0  0  0
 26 50  1  0  0  0  0
 29 51  1  0  0  0  0
 29 52  1  0  0  0  0
 29 53  1  0  0  0  0
M  END
> <Name>
27

> <IC50[uM]>
0.68

$$$$
27
  -OEChem-05192314333D
 Structure written by MMmdl.
 53 56  0     1  0  0  0  0  0999 V2000
   -6.3855   12.3606  -12.0031 C   0  0  0  0  0  0  0  0  0  0  0  0
   -6.5214   11.8004  -10.7171 C   0  0  0  0  0  0  0  0  0  0  0  0
   -7.6991   10.5797  -13.0384 C   0  0  0  0  0  0  0  0  0  0  0  0
   -6.9626   11.7779  -13.1031 C   0  0  0  0  0  0  0  0  0  0  0  0
   -7.8238   10.0198  -11.7523 C   0  0  3  0  0  0  0  0  0  0  0  0
   -7.2557   10.6213  -10.5956 C   0  0  3  0  0  0  0  0  0  0  0  0
   -7.6268    9.7501   -9.5073 C   0  0  0  0  0  0  0  0  0  0  0  0
   -8.3057    8.7491   -9.9816 N   0  0  0  0  0  0  0  0  0  0  0  0
   -8.4330    8.8776  -11.2917 N   0  0  0  0  0  0  0  0  0  0  0  0
   -7.3352    9.8817   -8.0196 C   0  0  0  0  0  0  0  0  0  0  0  0
   -5.6205   13.5372  -12.2095 N   0  0  0  0  0  0  0  0  0  0  0  0
   -5.9727   10.4835   -7.7324 C   0  0  0  0  0  0  0  0  0  0  0  0
   -5.8611   11.7523   -7.1657 C   0  0  0  0  0  0  0  0  0  0  0  0
   -4.5946   12.2988   -6.9068 C   0  0  0  0  0  0  0  0  0  0  0  0
   -3.4432   11.5806   -7.2147 C   0  0  0  0  0  0  0  0  0  0  0  0
   -3.5570   10.3109   -7.7899 C   0  0  0  0  0  0  0  0  0  0  0  0
   -4.8253    9.7663   -8.0483 C   0  0  0  0  0  0  0  0  0  0  0  0
   -2.0926   12.1556   -6.9444 C   0  0  0  0  0  0  0  0  0  0  0  0
   -1.7338   13.4204   -6.4594 C   0  0  0  0  0  0  0  0  0  0  0  0
   -0.4064   13.4584   -6.4114 N   0  0  0  0  0  0  0  0  0  0  0  0
    0.1793   12.3493   -6.7865 N   0  0  0  0  0  0  0  0  0  0  0  0
   -0.7954   11.5387   -7.1512 C   0  0  0  0  0  0  0  0  0  0  0  0
    0.4205   14.5767   -6.0073 C   0  0  0  0  0  0  0  0  0  0  0  0
   -4.6894   13.8945  -11.1046 C   0  0  0  0  0  0  0  0  0  0  0  0
   -3.7822   15.1171  -11.3990 C   0  0  0  0  0  0  0  0  0  0  0  0
   -2.3310   14.9579  -11.2532 N   0  0  0  0  0  0  0  0  0  0  0  0
   -1.8099   14.4326  -10.1320 C   0  0  0  0  0  0  0  0  0  0  0  0
   -2.5019   14.0442   -9.2076 O   0  0  0  0  0  0  0  0  0  0  0  0
   -0.2869   14.3494  -10.0364 C   0  0  0  0  0  0  0  0  0  0  0  0
   -5.5086   11.5965  -10.3394 H   0  0  0  0  0  0  0  0  0  0  0  0
   -7.0053   12.5553  -10.0799 H   0  0  0  0  0  0  0  0  0  0  0  0
   -8.1374   10.1224  -13.9131 H   0  0  0  0  0  0  0  0  0  0  0  0
   -6.8466   12.2604  -14.0624 H   0  0  0  0  0  0  0  0  0  0  0  0
   -8.7543   10.5845  -11.5930 H   0  0  0  0  0  0  0  0  0  0  0  0
   -8.1751   11.2060  -10.4447 H   0  0  0  0  0  0  0  0  0  0  0  0
   -8.0269    9.5780   -7.2478 H   0  0  0  0  0  0  0  0  0  0  0  0
   -6.7507   12.3156   -6.9255 H   0  0  0  0  0  0  0  0  0  0  0  0
   -4.5132   13.2816   -6.4664 H   0  0  0  0  0  0  0  0  0  0  0  0
   -2.6683    9.7485   -8.0357 H   0  0  0  0  0  0  0  0  0  0  0  0
   -4.9092    8.7863   -8.4943 H   0  0  0  0  0  0  0  0  0  0  0  0
   -2.4090   14.2148   -6.1776 H   0  0  0  0  0  0  0  0  0  0  0  0
   -0.6475   10.5464   -7.5511 H   0  0  0  0  0  0  0  0  0  0  0  0
    1.4812   14.2962   -6.0855 H   0  0  0  0  0  0  0  0  0  0  0  0
    0.2196   15.4369   -6.6628 H   0  0  0  0  0  0  0  0  0  0  0  0
    0.1886   14.8468   -4.9665 H   0  0  0  0  0  0  0  0  0  0  0  0
   -5.2882   14.1185  -10.2095 H   0  0  0  0  0  0  0  0  0  0  0  0
   -4.0431   13.0269  -10.9057 H   0  0  0  0  0  0  0  0  0  0  0  0
   -3.9735   15.4217  -12.4385 H   0  0  0  0  0  0  0  0  0  0  0  0
   -4.0914   15.9235  -10.7178 H   0  0  0  0  0  0  0  0  0  0  0  0
   -1.7243   15.2430  -11.9952 H   0  0  0  0  0  0  0  0  0  0  0  0
   -0.0031   13.9147   -9.0666 H   0  0  0  0  0  0  0  0  0  0  0  0
    0.0973   13.7152  -10.8489 H   0  0  0  0  0  0  0  0  0  0  0  0
    0.1416   15.3586  -10.1252 H   0  0  0  0  0  0  0  0  0  0  0  0
  1  2  1  0  0  0  0
  1  4  1  0  0  0  0
  1 11  2  0  0  0  0
  2  6  1  0  0  0  0
  3  4  2  0  0  0  0
  3  5  1  0  0  0  0
  5  6  1  0  0  0  0
  5  9  1  0  0  0  0
  6  7  1  0  0  0  0
  7  8  1  0  0  0  0
  7 10  2  3  0  0  0
  8  9  2  0  0  0  0
 10 12  1  0  0  0  0
 11 24  1  0  0  0  0
 12 13  2  0  0  0  0
 12 17  1  0  0  0  0
 13 14  1  0  0  0  0
 14 15  2  0  0  0  0
 15 16  1  0  0  0  0
 15 18  1  0  0  0  0
 16 17  2  0  0  0  0
 18 19  2  0  0  0  0
 18 22  1  0  0  0  0
 19 20  1  0  0  0  0
 20 21  1  0  0  0  0
 20 23  1  0  0  0  0
 21 22  2  0  0  0  0
 24 25  1  0  0  0  0
 25 26  1  0  0  0  0
 26 27  1  0  0  0  0
 27 28  2  0  0  0  0
 27 29  1  0  0  0  0
  2 30  1  0  0  0  0
  2 31  1  0  0  0  0
  3 32  1  0  0  0  0
  4 33  1  0  0  0  0
  5 34  1  0  0  0  0
  6 35  1  0  0  0  0
 10 36  1  0  0  0  0
 13 37  1  0  0  0  0
 14 38  1  0  0  0  0
 16 39  1  0  0  0  0
 17 40  1  0  0  0  0
 19 41  1  0  0  0  0
 22 42  1  0  0  0  0
 23 43  1  0  0  0  0
 23 44  1  0  0  0  0
 23 45  1  0  0  0  0
 24 46  1  0  0  0  0
 24 47  1  0  0  0  0
 25 48  1  0  0  0  0
 25 49  1  0  0  0  0
 26 50  1  0  0  0  0
 29 51  1  0  0  0  0
 29 52  1  0  0  0  0
 29 53  1  0  0  0  0
M  END
> <Name>
27

> <IC50[uM]>
0.68

$$$$
27
  -OEChem-05192314333D
 Structure written by MMmdl.
 53 56  0     1  0  0  0  0  0999 V2000
   -6.3855   12.3606  -12.0031 C   0  0  0  0  0  0  0  0  0  0  0  0
   -6.5214   11.8004  -10.7171 C   0  0  0  0  0  0  0  0  0  0  0  0
   -7.6991   10.5797  -13.0384 C   0  0  0  0  0  0  0  0  0  0  0  0
   -6.9626   11.7779  -13.1031 C   0  0  0  0  0  0  0  0  0  0  0  0
   -7.8238   10.0198  -11.7523 C   0  0  0  0  0  0  0  0  0  0  0  0
   -7.2557   10.6213  -10.5956 C   0  0  3  0  0  0  0  0  0  0  0  0
   -7.6268    9.7501   -9.5073 C   0  0  0  0  0  0  0  0  0  0  0  0
   -8.3057    8.7491   -9.9816 N   0  0  0  0  0  0  0  0  0  0  0  0
   -8.4330    8.8776  -11.2917 N   0  0  0  0  0  0  0  0  0  0  0  0
   -7.3352    9.8817   -8.0196 C   0  0  0  0  0  0  0  0  0  0  0  0
   -5.6205   13.5372  -12.2095 N   0  0  0  0  0  0  0  0  0  0  0  0
   -5.9727   10.4835   -7.7324 C   0  0  0  0  0  0  0  0  0  0  0  0
   -5.8611   11.7523   -7.1657 C   0  0  0  0  0  0  0  0  0  0  0  0
   -4.5946   12.2988   -6.9068 C   0  0  0  0  0  0  0  0  0  0  0  0
   -3.4432   11.5806   -7.2147 C   0  0  0  0  0  0  0  0  0  0  0  0
   -3.5570   10.3109   -7.7899 C   0  0  0  0  0  0  0  0  0  0  0  0
   -4.8253    9.7663   -8.0483 C   0  0  0  0  0  0  0  0  0  0  0  0
   -2.0926   12.1556   -6.9444 C   0  0  0  0  0  0  0  0  0  0  0  0
   -1.7338   13.4204   -6.4594 C   0  0  0  0  0  0  0  0  0  0  0  0
   -0.4064   13.4584   -6.4114 N   0  0  0  0  0  0  0  0  0  0  0  0
    0.1793   12.3493   -6.7865 N   0  0  0  0  0  0  0  0  0  0  0  0
   -0.7954   11.5387   -7.1512 C   0  0  0  0  0  0  0  0  0  0  0  0
    0.4205   14.5767   -6.0073 C   0  0  0  0  0  0  0  0  0  0  0  0
   -4.6894   13.8945  -11.1046 C   0  0  0  0  0  0  0  0  0  0  0  0
   -3.7822   15.1171  -11.3990 C   0  0  0  0  0  0  0  0  0  0  0  0
   -2.3310   14.9579  -11.2532 N   0  0  0  0  0  0  0  0  0  0  0  0
   -1.8099   14.4326  -10.1320 C   0  0  0  0  0  0  0  0  0  0  0  0
   -2.5019   14.0442   -9.2076 O   0  0  0  0  0  0  0  0  0  0  0  0
   -0.2869   14.3494  -10.0364 C   0  0  0  0  0  0  0  0  0  0  0  0
   -5.5086   11.5965  -10.3394 H   0  0  0  0  0  0  0  0  0  0  0  0
   -7.0053   12.5553  -10.0799 H   0  0  0  0  0  0  0  0  0  0  0  0
   -8.1374   10.1224  -13.9131 H   0  0  0  0  0  0  0  0  0  0  0  0
   -7.6459   12.5314  -13.5218 H   0  0  0  0  0  0  0  0  0  0  0  0
   -6.1429   11.5918  -13.8126 H   0  0  0  0  0  0  0  0  0  0  0  0
   -8.1751   11.2060  -10.4447 H   0  0  0  0  0  0  0  0  0  0  0  0
   -8.0269    9.5780   -7.2478 H   0  0  0  0  0  0  0  0  0  0  0  0
   -6.7507   12.3156   -6.9255 H   0  0  0  0  0  0  0  0  0  0  0  0
   -4.5132   13.2816   -6.4664 H   0  0  0  0  0  0  0  0  0  0  0  0
   -2.6683    9.7485   -8.0357 H   0  0  0  0  0  0  0  0  0  0  0  0
   -4.9092    8.7863   -8.4943 H   0  0  0  0  0  0  0  0  0  0  0  0
   -2.4090   14.2148   -6.1776 H   0  0  0  0  0  0  0  0  0  0  0  0
   -0.6475   10.5464   -7.5511 H   0  0  0  0  0  0  0  0  0  0  0  0
    1.4812   14.2962   -6.0855 H   0  0  0  0  0  0  0  0  0  0  0  0
    0.2196   15.4369   -6.6628 H   0  0  0  0  0  0  0  0  0  0  0  0
    0.1886   14.8468   -4.9665 H   0  0  0  0  0  0  0  0  0  0  0  0
   -5.2882   14.1185  -10.2095 H   0  0  0  0  0  0  0  0  0  0  0  0
   -4.0431   13.0269  -10.9057 H   0  0  0  0  0  0  0  0  0  0  0  0
   -3.9735   15.4217  -12.4385 H   0  0  0  0  0  0  0  0  0  0  0  0
   -4.0914   15.9235  -10.7178 H   0  0  0  0  0  0  0  0  0  0  0  0
   -1.7243   15.2430  -11.9952 H   0  0  0  0  0  0  0  0  0  0  0  0
   -0.0031   13.9147   -9.0666 H   0  0  0  0  0  0  0  0  0  0  0  0
    0.0973   13.7152  -10.8489 H   0  0  0  0  0  0  0  0  0  0  0  0
    0.1416   15.3586  -10.1252 H   0  0  0  0  0  0  0  0  0  0  0  0
  1  2  1  0  0  0  0
  1  4  1  0  0  0  0
  1 11  2  0  0  0  0
  2  6  1  0  0  0  0
  3  4  1  0  0  0  0
  3  5  2  0  0  0  0
  5  6  1  0  0  0  0
  5  9  1  0  0  0  0
  6  7  1  0  0  0  0
  7  8  1  0  0  0  0
  7 10  2  3  0  0  0
  8  9  2  0  0  0  0
 10 12  1  0  0  0  0
 11 24  1  0  0  0  0
 12 13  2  0  0  0  0
 12 17  1  0  0  0  0
 13 14  1  0  0  0  0
 14 15  2  0  0  0  0
 15 16  1  0  0  0  0
 15 18  1  0  0  0  0
 16 17  2  0  0  0  0
 18 19  2  0  0  0  0
 18 22  1  0  0  0  0
 19 20  1  0  0  0  0
 20 21  1  0  0  0  0
 20 23  1  0  0  0  0
 21 22  2  0  0  0  0
 24 25  1  0  0  0  0
 25 26  1  0  0  0  0
 26 27  1  0  0  0  0
 27 28  2  0  0  0  0
 27 29  1  0  0  0  0
  2 30  1  0  0  0  0
  2 31  1  0  0  0  0
  3 32  1  0  0  0  0
  4 33  1  0  0  0  0
  4 34  1  0  0  0  0
  6 35  1  0  0  0  0
 10 36  1  0  0  0  0
 13 37  1  0  0  0  0
 14 38  1  0  0  0  0
 16 39  1  0  0  0  0
 17 40  1  0  0  0  0
 19 41  1  0  0  0  0
 22 42  1  0  0  0  0
 23 43  1  0  0  0  0
 23 44  1  0  0  0  0
 23 45  1  0  0  0  0
 24 46  1  0  0  0  0
 24 47  1  0  0  0  0
 25 48  1  0  0  0  0
 25 49  1  0  0  0  0
 26 50  1  0  0  0  0
 29 51  1  0  0  0  0
 29 52  1  0  0  0  0
 29 53  1  0  0  0  0
M  END
> <Name>
27

> <IC50[uM]>
0.68

$$$$
27
  -OEChem-05192314333D
 Structure written by MMmdl.
 53 56  0     0  0  0  0  0  0999 V2000
   -6.3855   12.3606  -12.0031 C   0  0  0  0  0  0  0  0  0  0  0  0
   -6.5214   11.8004  -10.7171 C   0  0  0  0  0  0  0  0  0  0  0  0
   -7.6991   10.5797  -13.0384 C   0  0  0  0  0  0  0  0  0  0  0  0
   -6.9626   11.7779  -13.1031 C   0  0  0  0  0  0  0  0  0  0  0  0
   -7.8238   10.0198  -11.7523 C   0  0  0  0  0  0  0  0  0  0  0  0
   -7.2557   10.6213  -10.5956 C   0  0  0  0  0  0  0  0  0  0  0  0
   -7.6268    9.7501   -9.5073 C   0  0  0  0  0  0  0  0  0  0  0  0
   -8.3057    8.7491   -9.9816 N   0  0  0  0  0  0  0  0  0  0  0  0
   -8.4330    8.8776  -11.2917 N   0  0  0  0  0  0  0  0  0  0  0  0
   -7.3352    9.8817   -8.0196 C   0  0  0  0  0  0  0  0  0  0  0  0
   -5.6205   13.5372  -12.2095 N   0  0  0  0  0  0  0  0  0  0  0  0
   -5.9727   10.4835   -7.7324 C   0  0  0  0  0  0  0  0  0  0  0  0
   -5.8611   11.7523   -7.1657 C   0  0  0  0  0  0  0  0  0  0  0  0
   -4.5946   12.2988   -6.9068 C   0  0  0  0  0  0  0  0  0  0  0  0
   -3.4432   11.5806   -7.2147 C   0  0  0  0  0  0  0  0  0  0  0  0
   -3.5570   10.3109   -7.7899 C   0  0  0  0  0  0  0  0  0  0  0  0
   -4.8253    9.7663   -8.0483 C   0  0  0  0  0  0  0  0  0  0  0  0
   -2.0926   12.1556   -6.9444 C   0  0  0  0  0  0  0  0  0  0  0  0
   -1.7338   13.4204   -6.4594 C   0  0  0  0  0  0  0  0  0  0  0  0
   -0.4064   13.4584   -6.4114 N   0  0  0  0  0  0  0  0  0  0  0  0
    0.1793   12.3493   -6.7865 N   0  0  0  0  0  0  0  0  0  0  0  0
   -0.7954   11.5387   -7.1512 C   0  0  0  0  0  0  0  0  0  0  0  0
    0.4205   14.5767   -6.0073 C   0  0  0  0  0  0  0  0  0  0  0  0
   -4.6894   13.8945  -11.1046 C   0  0  0  0  0  0  0  0  0  0  0  0
   -3.7822   15.1171  -11.3990 C   0  0  0  0  0  0  0  0  0  0  0  0
   -2.3310   14.9579  -11.2532 N   0  0  0  0  0  0  0  0  0  0  0  0
   -1.8099   14.4326  -10.1320 C   0  0  0  0  0  0  0  0  0  0  0  0
   -2.5019   14.0442   -9.2076 O   0  0  0  0  0  0  0  0  0  0  0  0
   -0.2869   14.3494  -10.0364 C   0  0  0  0  0  0  0  0  0  0  0  0
   -5.5086   11.5965  -10.3394 H   0  0  0  0  0  0  0  0  0  0  0  0
   -7.0053   12.5553  -10.0799 H   0  0  0  0  0  0  0  0  0  0  0  0
   -8.7105   10.7812  -13.4211 H   0  0  0  0  0  0  0  0  0  0  0  0
   -7.2031    9.8404  -13.6845 H   0  0  0  0  0  0  0  0  0  0  0  0
   -7.6459   12.5314  -13.5218 H   0  0  0  0  0  0  0  0  0  0  0  0
   -6.1429   11.5918  -13.8126 H   0  0  0  0  0  0  0  0  0  0  0  0
   -8.0269    9.5780   -7.2478 H   0  0  0  0  0  0  0  0  0  0  0  0
   -6.7507   12.3156   -6.9255 H   0  0  0  0  0  0  0  0  0  0  0  0
   -4.5132   13.2816   -6.4664 H   0  0  0  0  0  0  0  0  0  0  0  0
   -2.6683    9.7485   -8.0357 H   0  0  0  0  0  0  0  0  0  0  0  0
   -4.9092    8.7863   -8.4943 H   0  0  0  0  0  0  0  0  0  0  0  0
   -2.4090   14.2148   -6.1776 H   0  0  0  0  0  0  0  0  0  0  0  0
   -0.6475   10.5464   -7.5511 H   0  0  0  0  0  0  0  0  0  0  0  0
    1.4812   14.2962   -6.0855 H   0  0  0  0  0  0  0  0  0  0  0  0
    0.2196   15.4369   -6.6628 H   0  0  0  0  0  0  0  0  0  0  0  0
    0.1886   14.8468   -4.9665 H   0  0  0  0  0  0  0  0  0  0  0  0
   -5.2882   14.1185  -10.2095 H   0  0  0  0  0  0  0  0  0  0  0  0
   -4.0431   13.0269  -10.9057 H   0  0  0  0  0  0  0  0  0  0  0  0
   -3.9735   15.4217  -12.4385 H   0  0  0  0  0  0  0  0  0  0  0  0
   -4.0914   15.9235  -10.7178 H   0  0  0  0  0  0  0  0  0  0  0  0
   -1.7243   15.2430  -11.9952 H   0  0  0  0  0  0  0  0  0  0  0  0
   -0.0031   13.9147   -9.0666 H   0  0  0  0  0  0  0  0  0  0  0  0
    0.0973   13.7152  -10.8489 H   0  0  0  0  0  0  0  0  0  0  0  0
    0.1416   15.3586  -10.1252 H   0  0  0  0  0  0  0  0  0  0  0  0
  1  2  1  0  0  0  0
  1  4  1  0  0  0  0
  1 11  2  0  0  0  0
  2  6  1  0  0  0  0
  3  4  1  0  0  0  0
  3  5  1  0  0  0  0
  5  6  2  0  0  0  0
  5  9  1  0  0  0  0
  6  7  1  0  0  0  0
  7  8  1  0  0  0  0
  7 10  2  3  0  0  0
  8  9  2  0  0  0  0
 10 12  1  0  0  0  0
 11 24  1  0  0  0  0
 12 13  2  0  0  0  0
 12 17  1  0  0  0  0
 13 14  1  0  0  0  0
 14 15  2  0  0  0  0
 15 16  1  0  0  0  0
 15 18  1  0  0  0  0
 16 17  2  0  0  0  0
 18 19  2  0  0  0  0
 18 22  1  0  0  0  0
 19 20  1  0  0  0  0
 20 21  1  0  0  0  0
 20 23  1  0  0  0  0
 21 22  2  0  0  0  0
 24 25  1  0  0  0  0
 25 26  1  0  0  0  0
 26 27  1  0  0  0  0
 27 28  2  0  0  0  0
 27 29  1  0  0  0  0
  2 30  1  0  0  0  0
  2 31  1  0  0  0  0
  3 32  1  0  0  0  0
  3 33  1  0  0  0  0
  4 34  1  0  0  0  0
  4 35  1  0  0  0  0
 10 36  1  0  0  0  0
 13 37  1  0  0  0  0
 14 38  1  0  0  0  0
 16 39  1  0  0  0  0
 17 40  1  0  0  0  0
 19 41  1  0  0  0  0
 22 42  1  0  0  0  0
 23 43  1  0  0  0  0
 23 44  1  0  0  0  0
 23 45  1  0  0  0  0
 24 46  1  0  0  0  0
 24 47  1  0  0  0  0
 25 48  1  0  0  0  0
 25 49  1  0  0  0  0
 26 50  1  0  0  0  0
 29 51  1  0  0  0  0
 29 52  1  0  0  0  0
 29 53  1  0  0  0  0
M  END
> <Name>
27

> <IC50[uM]>
0.68

$$$$
27
  -OEChem-05192314333D
 Structure written by MMmdl.
 53 56  0     1  0  0  0  0  0999 V2000
   -6.3855   12.3606  -12.0031 C   0  0  0  0  0  0  0  0  0  0  0  0
   -6.5214   11.8004  -10.7171 C   0  0  0  0  0  0  0  0  0  0  0  0
   -7.6991   10.5797  -13.0384 C   0  0  0  0  0  0  0  0  0  0  0  0
   -6.9626   11.7779  -13.1031 C   0  0  0  0  0  0  0  0  0  0  0  0
   -7.8238   10.0198  -11.7523 C   0  0  3  0  0  0  0  0  0  0  0  0
   -7.2557   10.6213  -10.5956 C   0  0  0  0  0  0  0  0  0  0  0  0
   -7.6268    9.7501   -9.5073 C   0  0  3  0  0  0  0  0  0  0  0  0
   -8.3057    8.7491   -9.9816 N   0  0  0  0  0  0  0  0  0  0  0  0
   -8.4330    8.8776  -11.2917 N   0  0  0  0  0  0  0  0  0  0  0  0
   -7.3352    9.8817   -8.0196 C   0  0  0  0  0  0  0  0  0  0  0  0
   -5.6205   13.5372  -12.2095 N   0  0  0  0  0  0  0  0  0  0  0  0
   -5.9727   10.4835   -7.7324 C   0  0  0  0  0  0  0  0  0  0  0  0
   -5.8611   11.7523   -7.1657 C   0  0  0  0  0  0  0  0  0  0  0  0
   -4.5946   12.2988   -6.9068 C   0  0  0  0  0  0  0  0  0  0  0  0
   -3.4432   11.5806   -7.2147 C   0  0  0  0  0  0  0  0  0  0  0  0
   -3.5570   10.3109   -7.7899 C   0  0  0  0  0  0  0  0  0  0  0  0
   -4.8253    9.7663   -8.0483 C   0  0  0  0  0  0  0  0  0  0  0  0
   -2.0926   12.1556   -6.9444 C   0  0  0  0  0  0  0  0  0  0  0  0
   -1.7338   13.4204   -6.4594 C   0  0  0  0  0  0  0  0  0  0  0  0
   -0.4064   13.4584   -6.4114 N   0  0  0  0  0  0  0  0  0  0  0  0
    0.1793   12.3493   -6.7865 N   0  0  0  0  0  0  0  0  0  0  0  0
   -0.7954   11.5387   -7.1512 C   0  0  0  0  0  0  0  0  0  0  0  0
    0.4205   14.5767   -6.0073 C   0  0  0  0  0  0  0  0  0  0  0  0
   -4.6894   13.8945  -11.1046 C   0  0  0  0  0  0  0  0  0  0  0  0
   -3.7822   15.1171  -11.3990 C   0  0  0  0  0  0  0  0  0  0  0  0
   -2.3310   14.9579  -11.2532 N   0  0  0  0  0  0  0  0  0  0  0  0
   -1.8099   14.4326  -10.1320 C   0  0  0  0  0  0  0  0  0  0  0  0
   -2.5019   14.0442   -9.2076 O   0  0  0  0  0  0  0  0  0  0  0  0
   -0.2869   14.3494  -10.0364 C   0  0  0  0  0  0  0  0  0  0  0  0
   -6.0716   12.2689   -9.8542 H   0  0  0  0  0  0  0  0  0  0  0  0
   -8.1374   10.1224  -13.9131 H   0  0  0  0  0  0  0  0  0  0  0  0
   -6.8466   12.2604  -14.0624 H   0  0  0  0  0  0  0  0  0  0  0  0
   -8.7543   10.5845  -11.5930 H   0  0  0  0  0  0  0  0  0  0  0  0
   -6.6939    9.1829   -9.6414 H   0  0  0  0  0  0  0  0  0  0  0  0
   -8.1046   10.5248   -7.5674 H   0  0  0  0  0  0  0  0  0  0  0  0
   -7.3794    8.8814   -7.5641 H   0  0  0  0  0  0  0  0  0  0  0  0
   -6.7507   12.3156   -6.9255 H   0  0  0  0  0  0  0  0  0  0  0  0
   -4.5132   13.2816   -6.4664 H   0  0  0  0  0  0  0  0  0  0  0  0
   -2.6683    9.7485   -8.0357 H   0  0  0  0  0  0  0  0  0  0  0  0
   -4.9092    8.7863   -8.4943 H   0  0  0  0  0  0  0  0  0  0  0  0
   -2.4090   14.2148   -6.1776 H   0  0  0  0  0  0  0  0  0  0  0  0
   -0.6475   10.5464   -7.5511 H   0  0  0  0  0  0  0  0  0  0  0  0
    1.4812   14.2962   -6.0855 H   0  0  0  0  0  0  0  0  0  0  0  0
    0.2196   15.4369   -6.6628 H   0  0  0  0  0  0  0  0  0  0  0  0
    0.1886   14.8468   -4.9665 H   0  0  0  0  0  0  0  0  0  0  0  0
   -5.2882   14.1185  -10.2095 H   0  0  0  0  0  0  0  0  0  0  0  0
   -4.0431   13.0269  -10.9057 H   0  0  0  0  0  0  0  0  0  0  0  0
   -3.9735   15.4217  -12.4385 H   0  0  0  0  0  0  0  0  0  0  0  0
   -4.0914   15.9235  -10.7178 H   0  0  0  0  0  0  0  0  0  0  0  0
   -1.7243   15.2430  -11.9952 H   0  0  0  0  0  0  0  0  0  0  0  0
   -0.0031   13.9147   -9.0666 H   0  0  0  0  0  0  0  0  0  0  0  0
    0.0973   13.7152  -10.8489 H   0  0  0  0  0  0  0  0  0  0  0  0
    0.1416   15.3586  -10.1252 H   0  0  0  0  0  0  0  0  0  0  0  0
  1  2  1  0  0  0  0
  1  4  1  0  0  0  0
  1 11  2  0  0  0  0
  2  6  2  0  0  0  0
  3  4  2  0  0  0  0
  3  5  1  0  0  0  0
  5  6  1  0  0  0  0
  5  9  1  0  0  0  0
  6  7  1  0  0  0  0
  7  8  1  0  0  0  0
  7 10  1  0  0  0  0
  8  9  2  0  0  0  0
 10 12  1  0  0  0  0
 11 24  1  0  0  0  0
 12 13  2  0  0  0  0
 12 17  1  0  0  0  0
 13 14  1  0  0  0  0
 14 15  2  0  0  0  0
 15 16  1  0  0  0  0
 15 18  1  0  0  0  0
 16 17  2  0  0  0  0
 18 19  2  0  0  0  0
 18 22  1  0  0  0  0
 19 20  1  0  0  0  0
 20 21  1  0  0  0  0
 20 23  1  0  0  0  0
 21 22  2  0  0  0  0
 24 25  1  0  0  0  0
 25 26  1  0  0  0  0
 26 27  1  0  0  0  0
 27 28  2  0  0  0  0
 27 29  1  0  0  0  0
  2 30  1  0  0  0  0
  3 31  1  0  0  0  0
  4 32  1  0  0  0  0
  5 33  1  0  0  0  0
  7 34  1  0  0  0  0
 10 35  1  0  0  0  0
 10 36  1  0  0  0  0
 13 37  1  0  0  0  0
 14 38  1  0  0  0  0
 16 39  1  0  0  0  0
 17 40  1  0  0  0  0
 19 41  1  0  0  0  0
 22 42  1  0  0  0  0
 23 43  1  0  0  0  0
 23 44  1  0  0  0  0
 23 45  1  0  0  0  0
 24 46  1  0  0  0  0
 24 47  1  0  0  0  0
 25 48  1  0  0  0  0
 25 49  1  0  0  0  0
 26 50  1  0  0  0  0
 29 51  1  0  0  0  0
 29 52  1  0  0  0  0
 29 53  1  0  0  0  0
M  END
> <Name>
27

> <IC50[uM]>
0.68

$$$$
27
  -OEChem-05192314333D
 Structure written by MMmdl.
 53 56  0     1  0  0  0  0  0999 V2000
   -6.3855   12.3606  -12.0031 C   0  0  0  0  0  0  0  0  0  0  0  0
   -6.5214   11.8004  -10.7171 C   0  0  0  0  0  0  0  0  0  0  0  0
   -7.6991   10.5797  -13.0384 C   0  0  0  0  0  0  0  0  0  0  0  0
   -6.9626   11.7779  -13.1031 C   0  0  0  0  0  0  0  0  0  0  0  0
   -7.8238   10.0198  -11.7523 C   0  0  0  0  0  0  0  0  0  0  0  0
   -7.2557   10.6213  -10.5956 C   0  0  0  0  0  0  0  0  0  0  0  0
   -7.6268    9.7501   -9.5073 C   0  0  3  0  0  0  0  0  0  0  0  0
   -8.3057    8.7491   -9.9816 N   0  0  0  0  0  0  0  0  0  0  0  0
   -8.4330    8.8776  -11.2917 N   0  0  0  0  0  0  0  0  0  0  0  0
   -7.3352    9.8817   -8.0196 C   0  0  0  0  0  0  0  0  0  0  0  0
   -5.6205   13.5372  -12.2095 N   0  0  0  0  0  0  0  0  0  0  0  0
   -5.9727   10.4835   -7.7324 C   0  0  0  0  0  0  0  0  0  0  0  0
   -5.8611   11.7523   -7.1657 C   0  0  0  0  0  0  0  0  0  0  0  0
   -4.5946   12.2988   -6.9068 C   0  0  0  0  0  0  0  0  0  0  0  0
   -3.4432   11.5806   -7.2147 C   0  0  0  0  0  0  0  0  0  0  0  0
   -3.5570   10.3109   -7.7899 C   0  0  0  0  0  0  0  0  0  0  0  0
   -4.8253    9.7663   -8.0483 C   0  0  0  0  0  0  0  0  0  0  0  0
   -2.0926   12.1556   -6.9444 C   0  0  0  0  0  0  0  0  0  0  0  0
   -1.7338   13.4204   -6.4594 C   0  0  0  0  0  0  0  0  0  0  0  0
   -0.4064   13.4584   -6.4114 N   0  0  0  0  0  0  0  0  0  0  0  0
    0.1793   12.3493   -6.7865 N   0  0  0  0  0  0  0  0  0  0  0  0
   -0.7954   11.5387   -7.1512 C   0  0  0  0  0  0  0  0  0  0  0  0
    0.4205   14.5767   -6.0073 C   0  0  0  0  0  0  0  0  0  0  0  0
   -4.6894   13.8945  -11.1046 C   0  0  0  0  0  0  0  0  0  0  0  0
   -3.7822   15.1171  -11.3990 C   0  0  0  0  0  0  0  0  0  0  0  0
   -2.3310   14.9579  -11.2532 N   0  0  0  0  0  0  0  0  0  0  0  0
   -1.8099   14.4326  -10.1320 C   0  0  0  0  0  0  0  0  0  0  0  0
   -2.5019   14.0442   -9.2076 O   0  0  0  0  0  0  0  0  0  0  0  0
   -0.2869   14.3494  -10.0364 C   0  0  0  0  0  0  0  0  0  0  0  0
   -6.0716   12.2689   -9.8542 H   0  0  0  0  0  0  0  0  0  0  0  0
   -8.1374   10.1224  -13.9131 H   0  0  0  0  0  0  0  0  0  0  0  0
   -7.6459   12.5314  -13.5218 H   0  0  0  0  0  0  0  0  0  0  0  0
   -6.1429   11.5918  -13.8126 H   0  0  0  0  0  0  0  0  0  0  0  0
   -6.6939    9.1829   -9.6414 H   0  0  0  0  0  0  0  0  0  0  0  0
   -8.1046   10.5248   -7.5674 H   0  0  0  0  0  0  0  0  0  0  0  0
   -7.3794    8.8814   -7.5641 H   0  0  0  0  0  0  0  0  0  0  0  0
   -6.7507   12.3156   -6.9255 H   0  0  0  0  0  0  0  0  0  0  0  0
   -4.5132   13.2816   -6.4664 H   0  0  0  0  0  0  0  0  0  0  0  0
   -2.6683    9.7485   -8.0357 H   0  0  0  0  0  0  0  0  0  0  0  0
   -4.9092    8.7863   -8.4943 H   0  0  0  0  0  0  0  0  0  0  0  0
   -2.4090   14.2148   -6.1776 H   0  0  0  0  0  0  0  0  0  0  0  0
   -0.6475   10.5464   -7.5511 H   0  0  0  0  0  0  0  0  0  0  0  0
    1.4812   14.2962   -6.0855 H   0  0  0  0  0  0  0  0  0  0  0  0
    0.2196   15.4369   -6.6628 H   0  0  0  0  0  0  0  0  0  0  0  0
    0.1886   14.8468   -4.9665 H   0  0  0  0  0  0  0  0  0  0  0  0
   -5.2882   14.1185  -10.2095 H   0  0  0  0  0  0  0  0  0  0  0  0
   -4.0431   13.0269  -10.9057 H   0  0  0  0  0  0  0  0  0  0  0  0
   -3.9735   15.4217  -12.4385 H   0  0  0  0  0  0  0  0  0  0  0  0
   -4.0914   15.9235  -10.7178 H   0  0  0  0  0  0  0  0  0  0  0  0
   -1.7243   15.2430  -11.9952 H   0  0  0  0  0  0  0  0  0  0  0  0
   -0.0031   13.9147   -9.0666 H   0  0  0  0  0  0  0  0  0  0  0  0
    0.0973   13.7152  -10.8489 H   0  0  0  0  0  0  0  0  0  0  0  0
    0.1416   15.3586  -10.1252 H   0  0  0  0  0  0  0  0  0  0  0  0
  1  2  1  0  0  0  0
  1  4  1  0  0  0  0
  1 11  2  0  0  0  0
  2  6  2  0  0  0  0
  3  4  1  0  0  0  0
  3  5  2  0  0  0  0
  5  6  1  0  0  0  0
  5  9  1  0  0  0  0
  6  7  1  0  0  0  0
  7  8  1  0  0  0  0
  7 10  1  0  0  0  0
  8  9  2  0  0  0  0
 10 12  1  0  0  0  0
 11 24  1  0  0  0  0
 12 13  2  0  0  0  0
 12 17  1  0  0  0  0
 13 14  1  0  0  0  0
 14 15  2  0  0  0  0
 15 16  1  0  0  0  0
 15 18  1  0  0  0  0
 16 17  2  0  0  0  0
 18 19  2  0  0  0  0
 18 22  1  0  0  0  0
 19 20  1  0  0  0  0
 20 21  1  0  0  0  0
 20 23  1  0  0  0  0
 21 22  2  0  0  0  0
 24 25  1  0  0  0  0
 25 26  1  0  0  0  0
 26 27  1  0  0  0  0
 27 28  2  0  0  0  0
 27 29  1  0  0  0  0
  2 30  1  0  0  0  0
  3 31  1  0  0  0  0
  4 32  1  0  0  0  0
  4 33  1  0  0  0  0
  7 34  1  0  0  0  0
 10 35  1  0  0  0  0
 10 36  1  0  0  0  0
 13 37  1  0  0  0  0
 14 38  1  0  0  0  0
 16 39  1  0  0  0  0
 17 40  1  0  0  0  0
 19 41  1  0  0  0  0
 22 42  1  0  0  0  0
 23 43  1  0  0  0  0
 23 44  1  0  0  0  0
 23 45  1  0  0  0  0
 24 46  1  0  0  0  0
 24 47  1  0  0  0  0
 25 48  1  0  0  0  0
 25 49  1  0  0  0  0
 26 50  1  0  0  0  0
 29 51  1  0  0  0  0
 29 52  1  0  0  0  0
 29 53  1  0  0  0  0
M  END
> <Name>
27

> <IC50[uM]>
0.68

$$$$
27
  -OEChem-05192314333D
 Structure written by MMmdl.
 53 56  0     1  0  0  0  0  0999 V2000
   -6.3855   12.3606  -12.0031 C   0  0  0  0  0  0  0  0  0  0  0  0
   -6.5214   11.8004  -10.7171 C   0  0  0  0  0  0  0  0  0  0  0  0
   -7.6991   10.5797  -13.0384 C   0  0  0  0  0  0  0  0  0  0  0  0
   -6.9626   11.7779  -13.1031 C   0  0  0  0  0  0  0  0  0  0  0  0
   -7.8238   10.0198  -11.7523 C   0  0  0  0  0  0  0  0  0  0  0  0
   -7.2557   10.6213  -10.5956 C   0  0  0  0  0  0  0  0  0  0  0  0
   -7.6268    9.7501   -9.5073 C   0  0  3  0  0  0  0  0  0  0  0  0
   -8.3057    8.7491   -9.9816 N   0  0  0  0  0  0  0  0  0  0  0  0
   -8.4330    8.8776  -11.2917 N   0  0  0  0  0  0  0  0  0  0  0  0
   -7.3352    9.8817   -8.0196 C   0  0  0  0  0  0  0  0  0  0  0  0
   -5.6205   13.5372  -12.2095 N   0  0  0  0  0  0  0  0  0  0  0  0
   -5.9727   10.4835   -7.7324 C   0  0  0  0  0  0  0  0  0  0  0  0
   -5.8611   11.7523   -7.1657 C   0  0  0  0  0  0  0  0  0  0  0  0
   -4.5946   12.2988   -6.9068 C   0  0  0  0  0  0  0  0  0  0  0  0
   -3.4432   11.5806   -7.2147 C   0  0  0  0  0  0  0  0  0  0  0  0
   -3.5570   10.3109   -7.7899 C   0  0  0  0  0  0  0  0  0  0  0  0
   -4.8253    9.7663   -8.0483 C   0  0  0  0  0  0  0  0  0  0  0  0
   -2.0926   12.1556   -6.9444 C   0  0  0  0  0  0  0  0  0  0  0  0
   -1.7338   13.4204   -6.4594 C   0  0  0  0  0  0  0  0  0  0  0  0
   -0.4064   13.4584   -6.4114 N   0  0  0  0  0  0  0  0  0  0  0  0
    0.1793   12.3493   -6.7865 N   0  0  0  0  0  0  0  0  0  0  0  0
   -0.7954   11.5387   -7.1512 C   0  0  0  0  0  0  0  0  0  0  0  0
    0.4205   14.5767   -6.0073 C   0  0  0  0  0  0  0  0  0  0  0  0
   -4.6894   13.8945  -11.1046 C   0  0  0  0  0  0  0  0  0  0  0  0
   -3.7822   15.1171  -11.3990 C   0  0  0  0  0  0  0  0  0  0  0  0
   -2.3310   14.9579  -11.2532 N   0  0  0  0  0  0  0  0  0  0  0  0
   -1.8099   14.4326  -10.1320 C   0  0  0  0  0  0  0  0  0  0  0  0
   -2.5019   14.0442   -9.2076 O   0  0  0  0  0  0  0  0  0  0  0  0
   -0.2869   14.3494  -10.0364 C   0  0  0  0  0  0  0  0  0  0  0  0
   -5.5086   11.5965  -10.3394 H   0  0  0  0  0  0  0  0  0  0  0  0
   -7.0053   12.5553  -10.0799 H   0  0  0  0  0  0  0  0  0  0  0  0
   -8.1374   10.1224  -13.9131 H   0  0  0  0  0  0  0  0  0  0  0  0
   -6.8466   12.2604  -14.0624 H   0  0  0  0  0  0  0  0  0  0  0  0
   -6.6939    9.1829   -9.6414 H   0  0  0  0  0  0  0  0  0  0  0  0
   -8.1046   10.5248   -7.5674 H   0  0  0  0  0  0  0  0  0  0  0  0
   -7.3794    8.8814   -7.5641 H   0  0  0  0  0  0  0  0  0  0  0  0
   -6.7507   12.3156   -6.9255 H   0  0  0  0  0  0  0  0  0  0  0  0
   -4.5132   13.2816   -6.4664 H   0  0  0  0  0  0  0  0  0  0  0  0
   -2.6683    9.7485   -8.0357 H   0  0  0  0  0  0  0  0  0  0  0  0
   -4.9092    8.7863   -8.4943 H   0  0  0  0  0  0  0  0  0  0  0  0
   -2.4090   14.2148   -6.1776 H   0  0  0  0  0  0  0  0  0  0  0  0
   -0.6475   10.5464   -7.5511 H   0  0  0  0  0  0  0  0  0  0  0  0
    1.4812   14.2962   -6.0855 H   0  0  0  0  0  0  0  0  0  0  0  0
    0.2196   15.4369   -6.6628 H   0  0  0  0  0  0  0  0  0  0  0  0
    0.1886   14.8468   -4.9665 H   0  0  0  0  0  0  0  0  0  0  0  0
   -5.2882   14.1185  -10.2095 H   0  0  0  0  0  0  0  0  0  0  0  0
   -4.0431   13.0269  -10.9057 H   0  0  0  0  0  0  0  0  0  0  0  0
   -3.9735   15.4217  -12.4385 H   0  0  0  0  0  0  0  0  0  0  0  0
   -4.0914   15.9235  -10.7178 H   0  0  0  0  0  0  0  0  0  0  0  0
   -1.7243   15.2430  -11.9952 H   0  0  0  0  0  0  0  0  0  0  0  0
   -0.0031   13.9147   -9.0666 H   0  0  0  0  0  0  0  0  0  0  0  0
    0.0973   13.7152  -10.8489 H   0  0  0  0  0  0  0  0  0  0  0  0
    0.1416   15.3586  -10.1252 H   0  0  0  0  0  0  0  0  0  0  0  0
  1  2  1  0  0  0  0
  1  4  1  0  0  0  0
  1 11  2  0  0  0  0
  2  6  1  0  0  0  0
  3  4  2  0  0  0  0
  3  5  1  0  0  0  0
  5  6  2  0  0  0  0
  5  9  1  0  0  0  0
  6  7  1  0  0  0  0
  7  8  1  0  0  0  0
  7 10  1  0  0  0  0
  8  9  2  0  0  0  0
 10 12  1  0  0  0  0
 11 24  1  0  0  0  0
 12 13  2  0  0  0  0
 12 17  1  0  0  0  0
 13 14  1  0  0  0  0
 14 15  2  0  0  0  0
 15 16  1  0  0  0  0
 15 18  1  0  0  0  0
 16 17  2  0  0  0  0
 18 19  2  0  0  0  0
 18 22  1  0  0  0  0
 19 20  1  0  0  0  0
 20 21  1  0  0  0  0
 20 23  1  0  0  0  0
 21 22  2  0  0  0  0
 24 25  1  0  0  0  0
 25 26  1  0  0  0  0
 26 27  1  0  0  0  0
 27 28  2  0  0  0  0
 27 29  1  0  0  0  0
  2 30  1  0  0  0  0
  2 31  1  0  0  0  0
  3 32  1  0  0  0  0
  4 33  1  0  0  0  0
  7 34  1  0  0  0  0
 10 35  1  0  0  0  0
 10 36  1  0  0  0  0
 13 37  1  0  0  0  0
 14 38  1  0  0  0  0
 16 39  1  0  0  0  0
 17 40  1  0  0  0  0
 19 41  1  0  0  0  0
 22 42  1  0  0  0  0
 23 43  1  0  0  0  0
 23 44  1  0  0  0  0
 23 45  1  0  0  0  0
 24 46  1  0  0  0  0
 24 47  1  0  0  0  0
 25 48  1  0  0  0  0
 25 49  1  0  0  0  0
 26 50  1  0  0  0  0
 29 51  1  0  0  0  0
 29 52  1  0  0  0  0
 29 53  1  0  0  0  0
M  END
> <Name>
27

> <IC50[uM]>
0.68

$$$$
27
  -OEChem-05192314333D
 Structure written by MMmdl.
 53 56  0     1  0  0  0  0  0999 V2000
   -6.3855   12.3606  -12.0031 C   0  0  0  0  0  0  0  0  0  0  0  0
   -6.5214   11.8004  -10.7171 C   0  0  0  0  0  0  0  0  0  0  0  0
   -7.6991   10.5797  -13.0384 C   0  0  0  0  0  0  0  0  0  0  0  0
   -6.9626   11.7779  -13.1031 C   0  0  0  0  0  0  0  0  0  0  0  0
   -7.8238   10.0198  -11.7523 C   0  0  3  0  0  0  0  0  0  0  0  0
   -7.2557   10.6213  -10.5956 C   0  0  0  0  0  0  0  0  0  0  0  0
   -7.6268    9.7501   -9.5073 C   0  0  0  0  0  0  0  0  0  0  0  0
   -8.3057    8.7491   -9.9816 N   0  0  0  0  0  0  0  0  0  0  0  0
   -8.4330    8.8776  -11.2917 N   0  0  0  0  0  0  0  0  0  0  0  0
   -7.3352    9.8817   -8.0196 C   0  0  0  0  0  0  0  0  0  0  0  0
   -5.6205   13.5372  -12.2095 N   0  0  0  0  0  0  0  0  0  0  0  0
   -5.9727   10.4835   -7.7324 C   0  0  0  0  0  0  0  0  0  0  0  0
   -5.8611   11.7523   -7.1657 C   0  0  0  0  0  0  0  0  0  0  0  0
   -4.5946   12.2988   -6.9068 C   0  0  0  0  0  0  0  0  0  0  0  0
   -3.4432   11.5806   -7.2147 C   0  0  0  0  0  0  0  0  0  0  0  0
   -3.5570   10.3109   -7.7899 C   0  0  0  0  0  0  0  0  0  0  0  0
   -4.8253    9.7663   -8.0483 C   0  0  0  0  0  0  0  0  0  0  0  0
   -2.0926   12.1556   -6.9444 C   0  0  0  0  0  0  0  0  0  0  0  0
   -1.7338   13.4204   -6.4594 C   0  0  0  0  0  0  0  0  0  0  0  0
   -0.4064   13.4584   -6.4114 N   0  0  0  0  0  0  0  0  0  0  0  0
    0.1793   12.3493   -6.7865 N   0  0  0  0  0  0  0  0  0  0  0  0
   -0.7954   11.5387   -7.1512 C   0  0  0  0  0  0  0  0  0  0  0  0
    0.4205   14.5767   -6.0073 C   0  0  0  0  0  0  0  0  0  0  0  0
   -4.6894   13.8945  -11.1046 C   0  0  0  0  0  0  0  0  0  0  0  0
   -3.7822   15.1171  -11.3990 C   0  0  0  0  0  0  0  0  0  0  0  0
   -2.3310   14.9579  -11.2532 N   0  0  0  0  0  0  0  0  0  0  0  0
   -1.8099   14.4326  -10.1320 C   0  0  0  0  0  0  0  0  0  0  0  0
   -2.5019   14.0442   -9.2076 O   0  0  0  0  0  0  0  0  0  0  0  0
   -0.2869   14.3494  -10.0364 C   0  0  0  0  0  0  0  0  0  0  0  0
   -5.5086   11.5965  -10.3394 H   0  0  0  0  0  0  0  0  0  0  0  0
   -7.0053   12.5553  -10.0799 H   0  0  0  0  0  0  0  0  0  0  0  0
   -8.1374   10.1224  -13.9131 H   0  0  0  0  0  0  0  0  0  0  0  0
   -6.8466   12.2604  -14.0624 H   0  0  0  0  0  0  0  0  0  0  0  0
   -8.7543   10.5845  -11.5930 H   0  0  0  0  0  0  0  0  0  0  0  0
   -8.1046   10.5248   -7.5674 H   0  0  0  0  0  0  0  0  0  0  0  0
   -7.3794    8.8814   -7.5641 H   0  0  0  0  0  0  0  0  0  0  0  0
   -6.7507   12.3156   -6.9255 H   0  0  0  0  0  0  0  0  0  0  0  0
   -4.5132   13.2816   -6.4664 H   0  0  0  0  0  0  0  0  0  0  0  0
   -2.6683    9.7485   -8.0357 H   0  0  0  0  0  0  0  0  0  0  0  0
   -4.9092    8.7863   -8.4943 H   0  0  0  0  0  0  0  0  0  0  0  0
   -2.4090   14.2148   -6.1776 H   0  0  0  0  0  0  0  0  0  0  0  0
   -0.6475   10.5464   -7.5511 H   0  0  0  0  0  0  0  0  0  0  0  0
    1.4812   14.2962   -6.0855 H   0  0  0  0  0  0  0  0  0  0  0  0
    0.2196   15.4369   -6.6628 H   0  0  0  0  0  0  0  0  0  0  0  0
    0.1886   14.8468   -4.9665 H   0  0  0  0  0  0  0  0  0  0  0  0
   -5.2882   14.1185  -10.2095 H   0  0  0  0  0  0  0  0  0  0  0  0
   -4.0431   13.0269  -10.9057 H   0  0  0  0  0  0  0  0  0  0  0  0
   -3.9735   15.4217  -12.4385 H   0  0  0  0  0  0  0  0  0  0  0  0
   -4.0914   15.9235  -10.7178 H   0  0  0  0  0  0  0  0  0  0  0  0
   -1.7243   15.2430  -11.9952 H   0  0  0  0  0  0  0  0  0  0  0  0
   -0.0031   13.9147   -9.0666 H   0  0  0  0  0  0  0  0  0  0  0  0
    0.0973   13.7152  -10.8489 H   0  0  0  0  0  0  0  0  0  0  0  0
    0.1416   15.3586  -10.1252 H   0  0  0  0  0  0  0  0  0  0  0  0
  1  2  1  0  0  0  0
  1  4  1  0  0  0  0
  1 11  2  0  0  0  0
  2  6  1  0  0  0  0
  3  4  2  0  0  0  0
  3  5  1  0  0  0  0
  5  6  1  0  0  0  0
  5  9  1  0  0  0  0
  6  7  2  0  0  0  0
  7  8  1  0  0  0  0
  7 10  1  0  0  0  0
  8  9  2  0  0  0  0
 10 12  1  0  0  0  0
 11 24  1  0  0  0  0
 12 13  2  0  0  0  0
 12 17  1  0  0  0  0
 13 14  1  0  0  0  0
 14 15  2  0  0  0  0
 15 16  1  0  0  0  0
 15 18  1  0  0  0  0
 16 17  2  0  0  0  0
 18 19  2  0  0  0  0
 18 22  1  0  0  0  0
 19 20  1  0  0  0  0
 20 21  1  0  0  0  0
 20 23  1  0  0  0  0
 21 22  2  0  0  0  0
 24 25  1  0  0  0  0
 25 26  1  0  0  0  0
 26 27  1  0  0  0  0
 27 28  2  0  0  0  0
 27 29  1  0  0  0  0
  2 30  1  0  0  0  0
  2 31  1  0  0  0  0
  3 32  1  0  0  0  0
  4 33  1  0  0  0  0
  5 34  1  0  0  0  0
 10 35  1  0  0  0  0
 10 36  1  0  0  0  0
 13 37  1  0  0  0  0
 14 38  1  0  0  0  0
 16 39  1  0  0  0  0
 17 40  1  0  0  0  0
 19 41  1  0  0  0  0
 22 42  1  0  0  0  0
 23 43  1  0  0  0  0
 23 44  1  0  0  0  0
 23 45  1  0  0  0  0
 24 46  1  0  0  0  0
 24 47  1  0  0  0  0
 25 48  1  0  0  0  0
 25 49  1  0  0  0  0
 26 50  1  0  0  0  0
 29 51  1  0  0  0  0
 29 52  1  0  0  0  0
 29 53  1  0  0  0  0
M  END
> <Name>
27

> <IC50[uM]>
0.68

$$$$
27
  -OEChem-05192314333D
 Structure written by MMmdl.
 53 56  0     0  0  0  0  0  0999 V2000
   -6.3855   12.3606  -12.0031 C   0  0  0  0  0  0  0  0  0  0  0  0
   -6.5214   11.8004  -10.7171 C   0  0  0  0  0  0  0  0  0  0  0  0
   -7.6991   10.5797  -13.0384 C   0  0  0  0  0  0  0  0  0  0  0  0
   -6.9626   11.7779  -13.1031 C   0  0  0  0  0  0  0  0  0  0  0  0
   -7.8238   10.0198  -11.7523 C   0  0  0  0  0  0  0  0  0  0  0  0
   -7.2557   10.6213  -10.5956 C   0  0  0  0  0  0  0  0  0  0  0  0
   -7.6268    9.7501   -9.5073 C   0  0  0  0  0  0  0  0  0  0  0  0
   -8.3057    8.7491   -9.9816 N   0  0  0  0  0  0  0  0  0  0  0  0
   -8.4330    8.8776  -11.2917 N   0  0  0  0  0  0  0  0  0  0  0  0
   -7.3352    9.8817   -8.0196 C   0  0  0  0  0  0  0  0  0  0  0  0
   -5.6205   13.5372  -12.2095 N   0  0  0  0  0  0  0  0  0  0  0  0
   -5.9727   10.4835   -7.7324 C   0  0  0  0  0  0  0  0  0  0  0  0
   -5.8611   11.7523   -7.1657 C   0  0  0  0  0  0  0  0  0  0  0  0
   -4.5946   12.2988   -6.9068 C   0  0  0  0  0  0  0  0  0  0  0  0
   -3.4432   11.5806   -7.2147 C   0  0  0  0  0  0  0  0  0  0  0  0
   -3.5570   10.3109   -7.7899 C   0  0  0  0  0  0  0  0  0  0  0  0
   -4.8253    9.7663   -8.0483 C   0  0  0  0  0  0  0  0  0  0  0  0
   -2.0926   12.1556   -6.9444 C   0  0  0  0  0  0  0  0  0  0  0  0
   -1.7338   13.4204   -6.4594 C   0  0  0  0  0  0  0  0  0  0  0  0
   -0.4064   13.4584   -6.4114 N   0  0  0  0  0  0  0  0  0  0  0  0
    0.1793   12.3493   -6.7865 N   0  0  0  0  0  0  0  0  0  0  0  0
   -0.7954   11.5387   -7.1512 C   0  0  0  0  0  0  0  0  0  0  0  0
    0.4205   14.5767   -6.0073 C   0  0  0  0  0  0  0  0  0  0  0  0
   -4.6894   13.8945  -11.1046 C   0  0  0  0  0  0  0  0  0  0  0  0
   -3.7822   15.1171  -11.3990 C   0  0  0  0  0  0  0  0  0  0  0  0
   -2.3310   14.9579  -11.2532 N   0  0  0  0  0  0  0  0  0  0  0  0
   -1.8099   14.4326  -10.1320 C   0  0  0  0  0  0  0  0  0  0  0  0
   -2.5019   14.0442   -9.2076 O   0  0  0  0  0  0  0  0  0  0  0  0
   -0.2869   14.3494  -10.0364 C   0  0  0  0  0  0  0  0  0  0  0  0
   -5.5086   11.5965  -10.3394 H   0  0  0  0  0  0  0  0  0  0  0  0
   -7.0053   12.5553  -10.0799 H   0  0  0  0  0  0  0  0  0  0  0  0
   -8.1374   10.1224  -13.9131 H   0  0  0  0  0  0  0  0  0  0  0  0
   -7.6459   12.5314  -13.5218 H   0  0  0  0  0  0  0  0  0  0  0  0
   -6.1429   11.5918  -13.8126 H   0  0  0  0  0  0  0  0  0  0  0  0
   -8.1046   10.5248   -7.5674 H   0  0  0  0  0  0  0  0  0  0  0  0
   -7.3794    8.8814   -7.5641 H   0  0  0  0  0  0  0  0  0  0  0  0
   -6.7507   12.3156   -6.9255 H   0  0  0  0  0  0  0  0  0  0  0  0
   -4.5132   13.2816   -6.4664 H   0  0  0  0  0  0  0  0  0  0  0  0
   -2.6683    9.7485   -8.0357 H   0  0  0  0  0  0  0  0  0  0  0  0
   -4.9092    8.7863   -8.4943 H   0  0  0  0  0  0  0  0  0  0  0  0
   -2.4090   14.2148   -6.1776 H   0  0  0  0  0  0  0  0  0  0  0  0
   -0.6475   10.5464   -7.5511 H   0  0  0  0  0  0  0  0  0  0  0  0
    1.4812   14.2962   -6.0855 H   0  0  0  0  0  0  0  0  0  0  0  0
    0.2196   15.4369   -6.6628 H   0  0  0  0  0  0  0  0  0  0  0  0
    0.1886   14.8468   -4.9665 H   0  0  0  0  0  0  0  0  0  0  0  0
   -5.2882   14.1185  -10.2095 H   0  0  0  0  0  0  0  0  0  0  0  0
   -4.0431   13.0269  -10.9057 H   0  0  0  0  0  0  0  0  0  0  0  0
   -3.9735   15.4217  -12.4385 H   0  0  0  0  0  0  0  0  0  0  0  0
   -4.0914   15.9235  -10.7178 H   0  0  0  0  0  0  0  0  0  0  0  0
   -1.7243   15.2430  -11.9952 H   0  0  0  0  0  0  0  0  0  0  0  0
   -0.0031   13.9147   -9.0666 H   0  0  0  0  0  0  0  0  0  0  0  0
    0.0973   13.7152  -10.8489 H   0  0  0  0  0  0  0  0  0  0  0  0
    0.1416   15.3586  -10.1252 H   0  0  0  0  0  0  0  0  0  0  0  0
  1  2  1  0  0  0  0
  1  4  1  0  0  0  0
  1 11  2  0  0  0  0
  2  6  1  0  0  0  0
  3  4  1  0  0  0  0
  3  5  2  0  0  0  0
  5  6  1  0  0  0  0
  5  9  1  0  0  0  0
  6  7  2  0  0  0  0
  7  8  1  0  0  0  0
  7 10  1  0  0  0  0
  8  9  2  0  0  0  0
 10 12  1  0  0  0  0
 11 24  1  0  0  0  0
 12 13  2  0  0  0  0
 12 17  1  0  0  0  0
 13 14  1  0  0  0  0
 14 15  2  0  0  0  0
 15 16  1  0  0  0  0
 15 18  1  0  0  0  0
 16 17  2  0  0  0  0
 18 19  2  0  0  0  0
 18 22  1  0  0  0  0
 19 20  1  0  0  0  0
 20 21  1  0  0  0  0
 20 23  1  0  0  0  0
 21 22  2  0  0  0  0
 24 25  1  0  0  0  0
 25 26  1  0  0  0  0
 26 27  1  0  0  0  0
 27 28  2  0  0  0  0
 27 29  1  0  0  0  0
  2 30  1  0  0  0  0
  2 31  1  0  0  0  0
  3 32  1  0  0  0  0
  4 33  1  0  0  0  0
  4 34  1  0  0  0  0
 10 35  1  0  0  0  0
 10 36  1  0  0  0  0
 13 37  1  0  0  0  0
 14 38  1  0  0  0  0
 16 39  1  0  0  0  0
 17 40  1  0  0  0  0
 19 41  1  0  0  0  0
 22 42  1  0  0  0  0
 23 43  1  0  0  0  0
 23 44  1  0  0  0  0
 23 45  1  0  0  0  0
 24 46  1  0  0  0  0
 24 47  1  0  0  0  0
 25 48  1  0  0  0  0
 25 49  1  0  0  0  0
 26 50  1  0  0  0  0
 29 51  1  0  0  0  0
 29 52  1  0  0  0  0
 29 53  1  0  0  0  0
M  END
> <Name>
27

> <IC50[uM]>
0.68

$$$$
27
  -OEChem-05192314333D
 Structure written by MMmdl.
 53 56  0     1  0  0  0  0  0999 V2000
   -6.3855   12.3606  -12.0031 C   0  0  0  0  0  0  0  0  0  0  0  0
   -6.5214   11.8004  -10.7171 C   0  0  0  0  0  0  0  0  0  0  0  0
   -7.6991   10.5797  -13.0384 C   0  0  0  0  0  0  0  0  0  0  0  0
   -6.9626   11.7779  -13.1031 C   0  0  0  0  0  0  0  0  0  0  0  0
   -7.8238   10.0198  -11.7523 C   0  0  0  0  0  0  0  0  0  0  0  0
   -7.2557   10.6213  -10.5956 C   0  0  3  0  0  0  0  0  0  0  0  0
   -7.6268    9.7501   -9.5073 C   0  0  0  0  0  0  0  0  0  0  0  0
   -8.3057    8.7491   -9.9816 N   0  0  0  0  0  0  0  0  0  0  0  0
   -8.4330    8.8776  -11.2917 N   0  0  0  0  0  0  0  0  0  0  0  0
   -7.3352    9.8817   -8.0196 C   0  0  0  0  0  0  0  0  0  0  0  0
   -5.6205   13.5372  -12.2095 N   0  0  0  0  0  0  0  0  0  0  0  0
   -5.9727   10.4835   -7.7324 C   0  0  0  0  0  0  0  0  0  0  0  0
   -5.8611   11.7523   -7.1657 C   0  0  0  0  0  0  0  0  0  0  0  0
   -4.5946   12.2988   -6.9068 C   0  0  0  0  0  0  0  0  0  0  0  0
   -3.4432   11.5806   -7.2147 C   0  0  0  0  0  0  0  0  0  0  0  0
   -3.5570   10.3109   -7.7899 C   0  0  0  0  0  0  0  0  0  0  0  0
   -4.8253    9.7663   -8.0483 C   0  0  0  0  0  0  0  0  0  0  0  0
   -2.0926   12.1556   -6.9444 C   0  0  0  0  0  0  0  0  0  0  0  0
   -1.7338   13.4204   -6.4594 C   0  0  0  0  0  0  0  0  0  0  0  0
   -0.4064   13.4584   -6.4114 N   0  0  0  0  0  0  0  0  0  0  0  0
    0.1793   12.3493   -6.7865 N   0  0  0  0  0  0  0  0  0  0  0  0
   -0.7954   11.5387   -7.1512 C   0  0  0  0  0  0  0  0  0  0  0  0
    0.4205   14.5767   -6.0073 C   0  0  0  0  0  0  0  0  0  0  0  0
   -4.6894   13.8945  -11.1046 C   0  0  0  0  0  0  0  0  0  0  0  0
   -3.7822   15.1171  -11.3990 C   0  0  0  0  0  0  0  0  0  0  0  0
   -2.3310   14.9579  -11.2532 N   0  0  0  0  0  0  0  0  0  0  0  0
   -1.8099   14.4326  -10.1320 C   0  0  0  0  0  0  0  0  0  0  0  0
   -2.5019   14.0442   -9.2076 O   0  0  0  0  0  0  0  0  0  0  0  0
   -0.2869   14.3494  -10.0364 C   0  0  0  0  0  0  0  0  0  0  0  0
   -5.5086   11.5965  -10.3394 H   0  0  0  0  0  0  0  0  0  0  0  0
   -7.0053   12.5553  -10.0799 H   0  0  0  0  0  0  0  0  0  0  0  0
   -8.1374   10.1224  -13.9131 H   0  0  0  0  0  0  0  0  0  0  0  0
   -6.8466   12.2604  -14.0624 H   0  0  0  0  0  0  0  0  0  0  0  0
   -8.1751   11.2060  -10.4447 H   0  0  0  0  0  0  0  0  0  0  0  0
   -8.6759    7.9956   -9.4383 H   0  0  0  0  0  0  0  0  0  0  0  0
   -8.0269    9.5780   -7.2478 H   0  0  0  0  0  0  0  0  0  0  0  0
   -6.7507   12.3156   -6.9255 H   0  0  0  0  0  0  0  0  0  0  0  0
   -4.5132   13.2816   -6.4664 H   0  0  0  0  0  0  0  0  0  0  0  0
   -2.6683    9.7485   -8.0357 H   0  0  0  0  0  0  0  0  0  0  0  0
   -4.9092    8.7863   -8.4943 H   0  0  0  0  0  0  0  0  0  0  0  0
   -2.4090   14.2148   -6.1776 H   0  0  0  0  0  0  0  0  0  0  0  0
   -0.6475   10.5464   -7.5511 H   0  0  0  0  0  0  0  0  0  0  0  0
    1.4812   14.2962   -6.0855 H   0  0  0  0  0  0  0  0  0  0  0  0
    0.2196   15.4369   -6.6628 H   0  0  0  0  0  0  0  0  0  0  0  0
    0.1886   14.8468   -4.9665 H   0  0  0  0  0  0  0  0  0  0  0  0
   -5.2882   14.1185  -10.2095 H   0  0  0  0  0  0  0  0  0  0  0  0
   -4.0431   13.0269  -10.9057 H   0  0  0  0  0  0  0  0  0  0  0  0
   -3.9735   15.4217  -12.4385 H   0  0  0  0  0  0  0  0  0  0  0  0
   -4.0914   15.9235  -10.7178 H   0  0  0  0  0  0  0  0  0  0  0  0
   -1.7243   15.2430  -11.9952 H   0  0  0  0  0  0  0  0  0  0  0  0
   -0.0031   13.9147   -9.0666 H   0  0  0  0  0  0  0  0  0  0  0  0
    0.0973   13.7152  -10.8489 H   0  0  0  0  0  0  0  0  0  0  0  0
    0.1416   15.3586  -10.1252 H   0  0  0  0  0  0  0  0  0  0  0  0
  1  2  1  0  0  0  0
  1  4  1  0  0  0  0
  1 11  2  0  0  0  0
  2  6  1  0  0  0  0
  3  4  2  0  0  0  0
  3  5  1  0  0  0  0
  5  6  1  0  0  0  0
  5  9  2  0  0  0  0
  6  7  1  0  0  0  0
  7  8  1  0  0  0  0
  7 10  2  3  0  0  0
  8  9  1  0  0  0  0
 10 12  1  0  0  0  0
 11 24  1  0  0  0  0
 12 13  2  0  0  0  0
 12 17  1  0  0  0  0
 13 14  1  0  0  0  0
 14 15  2  0  0  0  0
 15 16  1  0  0  0  0
 15 18  1  0  0  0  0
 16 17  2  0  0  0  0
 18 19  2  0  0  0  0
 18 22  1  0  0  0  0
 19 20  1  0  0  0  0
 20 21  1  0  0  0  0
 20 23  1  0  0  0  0
 21 22  2  0  0  0  0
 24 25  1  0  0  0  0
 25 26  1  0  0  0  0
 26 27  1  0  0  0  0
 27 28  2  0  0  0  0
 27 29  1  0  0  0  0
  2 30  1  0  0  0  0
  2 31  1  0  0  0  0
  3 32  1  0  0  0  0
  4 33  1  0  0  0  0
  6 34  1  0  0  0  0
  8 35  1  0  0  0  0
 10 36  1  0  0  0  0
 13 37  1  0  0  0  0
 14 38  1  0  0  0  0
 16 39  1  0  0  0  0
 17 40  1  0  0  0  0
 19 41  1  0  0  0  0
 22 42  1  0  0  0  0
 23 43  1  0  0  0  0
 23 44  1  0  0  0  0
 23 45  1  0  0  0  0
 24 46  1  0  0  0  0
 24 47  1  0  0  0  0
 25 48  1  0  0  0  0
 25 49  1  0  0  0  0
 26 50  1  0  0  0  0
 29 51  1  0  0  0  0
 29 52  1  0  0  0  0
 29 53  1  0  0  0  0
M  END
> <Name>
27

> <IC50[uM]>
0.68

$$$$
27
  -OEChem-05192314333D
 Structure written by MMmdl.
 53 56  0     1  0  0  0  0  0999 V2000
   -6.3855   12.3606  -12.0031 C   0  0  0  0  0  0  0  0  0  0  0  0
   -6.5214   11.8004  -10.7171 C   0  0  0  0  0  0  0  0  0  0  0  0
   -7.6991   10.5797  -13.0384 C   0  0  0  0  0  0  0  0  0  0  0  0
   -6.9626   11.7779  -13.1031 C   0  0  0  0  0  0  0  0  0  0  0  0
   -7.8238   10.0198  -11.7523 C   0  0  0  0  0  0  0  0  0  0  0  0
   -7.2557   10.6213  -10.5956 C   0  0  3  0  0  0  0  0  0  0  0  0
   -7.6268    9.7501   -9.5073 C   0  0  0  0  0  0  0  0  0  0  0  0
   -8.3057    8.7491   -9.9816 N   0  0  0  0  0  0  0  0  0  0  0  0
   -8.4330    8.8776  -11.2917 N   0  0  0  0  0  0  0  0  0  0  0  0
   -7.3352    9.8817   -8.0196 C   0  0  0  0  0  0  0  0  0  0  0  0
   -5.6205   13.5372  -12.2095 N   0  0  0  0  0  0  0  0  0  0  0  0
   -5.9727   10.4835   -7.7324 C   0  0  0  0  0  0  0  0  0  0  0  0
   -5.8611   11.7523   -7.1657 C   0  0  0  0  0  0  0  0  0  0  0  0
   -4.5946   12.2988   -6.9068 C   0  0  0  0  0  0  0  0  0  0  0  0
   -3.4432   11.5806   -7.2147 C   0  0  0  0  0  0  0  0  0  0  0  0
   -3.5570   10.3109   -7.7899 C   0  0  0  0  0  0  0  0  0  0  0  0
   -4.8253    9.7663   -8.0483 C   0  0  0  0  0  0  0  0  0  0  0  0
   -2.0926   12.1556   -6.9444 C   0  0  0  0  0  0  0  0  0  0  0  0
   -1.7338   13.4204   -6.4594 C   0  0  0  0  0  0  0  0  0  0  0  0
   -0.4064   13.4584   -6.4114 N   0  0  0  0  0  0  0  0  0  0  0  0
    0.1793   12.3493   -6.7865 N   0  0  0  0  0  0  0  0  0  0  0  0
   -0.7954   11.5387   -7.1512 C   0  0  0  0  0  0  0  0  0  0  0  0
    0.4205   14.5767   -6.0073 C   0  0  0  0  0  0  0  0  0  0  0  0
   -4.6894   13.8945  -11.1046 C   0  0  0  0  0  0  0  0  0  0  0  0
   -3.7822   15.1171  -11.3990 C   0  0  0  0  0  0  0  0  0  0  0  0
   -2.3310   14.9579  -11.2532 N   0  0  0  0  0  0  0  0  0  0  0  0
   -1.8099   14.4326  -10.1320 C   0  0  0  0  0  0  0  0  0  0  0  0
   -2.5019   14.0442   -9.2076 O   0  0  0  0  0  0  0  0  0  0  0  0
   -0.2869   14.3494  -10.0364 C   0  0  0  0  0  0  0  0  0  0  0  0
   -6.0716   12.2689   -9.8542 H   0  0  0  0  0  0  0  0  0  0  0  0
   -8.1374   10.1224  -13.9131 H   0  0  0  0  0  0  0  0  0  0  0  0
   -6.8466   12.2604  -14.0624 H   0  0  0  0  0  0  0  0  0  0  0  0
   -8.1751   11.2060  -10.4447 H   0  0  0  0  0  0  0  0  0  0  0  0
   -8.1046   10.5248   -7.5674 H   0  0  0  0  0  0  0  0  0  0  0  0
   -7.3794    8.8814   -7.5641 H   0  0  0  0  0  0  0  0  0  0  0  0
   -5.0791   13.4115  -13.0408 H   0  0  0  0  0  0  0  0  0  0  0  0
   -6.7507   12.3156   -6.9255 H   0  0  0  0  0  0  0  0  0  0  0  0
   -4.5132   13.2816   -6.4664 H   0  0  0  0  0  0  0  0  0  0  0  0
   -2.6683    9.7485   -8.0357 H   0  0  0  0  0  0  0  0  0  0  0  0
   -4.9092    8.7863   -8.4943 H   0  0  0  0  0  0  0  0  0  0  0  0
   -2.4090   14.2148   -6.1776 H   0  0  0  0  0  0  0  0  0  0  0  0
   -0.6475   10.5464   -7.5511 H   0  0  0  0  0  0  0  0  0  0  0  0
    1.4812   14.2962   -6.0855 H   0  0  0  0  0  0  0  0  0  0  0  0
    0.2196   15.4369   -6.6628 H   0  0  0  0  0  0  0  0  0  0  0  0
    0.1886   14.8468   -4.9665 H   0  0  0  0  0  0  0  0  0  0  0  0
   -5.2882   14.1185  -10.2095 H   0  0  0  0  0  0  0  0  0  0  0  0
   -4.0431   13.0269  -10.9057 H   0  0  0  0  0  0  0  0  0  0  0  0
   -3.9735   15.4217  -12.4385 H   0  0  0  0  0  0  0  0  0  0  0  0
   -4.0914   15.9235  -10.7178 H   0  0  0  0  0  0  0  0  0  0  0  0
   -1.7243   15.2430  -11.9952 H   0  0  0  0  0  0  0  0  0  0  0  0
   -0.0031   13.9147   -9.0666 H   0  0  0  0  0  0  0  0  0  0  0  0
    0.0973   13.7152  -10.8489 H   0  0  0  0  0  0  0  0  0  0  0  0
    0.1416   15.3586  -10.1252 H   0  0  0  0  0  0  0  0  0  0  0  0
  1  2  2  0  0  0  0
  1  4  1  0  0  0  0
  1 11  1  0  0  0  0
  2  6  1  0  0  0  0
  3  4  2  0  0  0  0
  3  5  1  0  0  0  0
  5  6  1  0  0  0  0
  5  9  2  0  0  0  0
  6  7  1  0  0  0  0
  7  8  2  0  0  0  0
  7 10  1  0  0  0  0
  8  9  1  0  0  0  0
 10 12  1  0  0  0  0
 11 24  1  0  0  0  0
 12 13  2  0  0  0  0
 12 17  1  0  0  0  0
 13 14  1  0  0  0  0
 14 15  2  0  0  0  0
 15 16  1  0  0  0  0
 15 18  1  0  0  0  0
 16 17  2  0  0  0  0
 18 19  2  0  0  0  0
 18 22  1  0  0  0  0
 19 20  1  0  0  0  0
 20 21  1  0  0  0  0
 20 23  1  0  0  0  0
 21 22  2  0  0  0  0
 24 25  1  0  0  0  0
 25 26  1  0  0  0  0
 26 27  1  0  0  0  0
 27 28  2  0  0  0  0
 27 29  1  0  0  0  0
  2 30  1  0  0  0  0
  3 31  1  0  0  0  0
  4 32  1  0  0  0  0
  6 33  1  0  0  0  0
 10 34  1  0  0  0  0
 10 35  1  0  0  0  0
 11 36  1  0  0  0  0
 13 37  1  0  0  0  0
 14 38  1  0  0  0  0
 16 39  1  0  0  0  0
 17 40  1  0  0  0  0
 19 41  1  0  0  0  0
 22 42  1  0  0  0  0
 23 43  1  0  0  0  0
 23 44  1  0  0  0  0
 23 45  1  0  0  0  0
 24 46  1  0  0  0  0
 24 47  1  0  0  0  0
 25 48  1  0  0  0  0
 25 49  1  0  0  0  0
 26 50  1  0  0  0  0
 29 51  1  0  0  0  0
 29 52  1  0  0  0  0
 29 53  1  0  0  0  0
M  END
> <Name>
27

> <IC50[uM]>
0.68

$$$$
27
  -OEChem-05192314333D
 Structure written by MMmdl.
 53 56  0     1  0  0  0  0  0999 V2000
   -6.3855   12.3606  -12.0031 C   0  0  3  0  0  0  0  0  0  0  0  0
   -6.5214   11.8004  -10.7171 C   0  0  0  0  0  0  0  0  0  0  0  0
   -7.6991   10.5797  -13.0384 C   0  0  0  0  0  0  0  0  0  0  0  0
   -6.9626   11.7779  -13.1031 C   0  0  0  0  0  0  0  0  0  0  0  0
   -7.8238   10.0198  -11.7523 C   0  0  0  0  0  0  0  0  0  0  0  0
   -7.2557   10.6213  -10.5956 C   0  0  0  0  0  0  0  0  0  0  0  0
   -7.6268    9.7501   -9.5073 C   0  0  0  0  0  0  0  0  0  0  0  0
   -8.3057    8.7491   -9.9816 N   0  0  0  0  0  0  0  0  0  0  0  0
   -8.4330    8.8776  -11.2917 N   0  0  0  0  0  0  0  0  0  0  0  0
   -7.3352    9.8817   -8.0196 C   0  0  0  0  0  0  0  0  0  0  0  0
   -5.6205   13.5372  -12.2095 N   0  0  0  0  0  0  0  0  0  0  0  0
   -5.9727   10.4835   -7.7324 C   0  0  0  0  0  0  0  0  0  0  0  0
   -5.8611   11.7523   -7.1657 C   0  0  0  0  0  0  0  0  0  0  0  0
   -4.5946   12.2988   -6.9068 C   0  0  0  0  0  0  0  0  0  0  0  0
   -3.4432   11.5806   -7.2147 C   0  0  0  0  0  0  0  0  0  0  0  0
   -3.5570   10.3109   -7.7899 C   0  0  0  0  0  0  0  0  0  0  0  0
   -4.8253    9.7663   -8.0483 C   0  0  0  0  0  0  0  0  0  0  0  0
   -2.0926   12.1556   -6.9444 C   0  0  0  0  0  0  0  0  0  0  0  0
   -1.7338   13.4204   -6.4594 C   0  0  0  0  0  0  0  0  0  0  0  0
   -0.4064   13.4584   -6.4114 N   0  0  0  0  0  0  0  0  0  0  0  0
    0.1793   12.3493   -6.7865 N   0  0  0  0  0  0  0  0  0  0  0  0
   -0.7954   11.5387   -7.1512 C   0  0  0  0  0  0  0  0  0  0  0  0
    0.4205   14.5767   -6.0073 C   0  0  0  0  0  0  0  0  0  0  0  0
   -4.6894   13.8945  -11.1046 C   0  0  0  0  0  0  0  0  0  0  0  0
   -3.7822   15.1171  -11.3990 C   0  0  0  0  0  0  0  0  0  0  0  0
   -2.3310   14.9579  -11.2532 N   0  0  0  0  0  0  0  0  0  0  0  0
   -1.8099   14.4326  -10.1320 C   0  0  0  0  0  0  0  0  0  0  0  0
   -2.5019   14.0442   -9.2076 O   0  0  0  0  0  0  0  0  0  0  0  0
   -0.2869   14.3494  -10.0364 C   0  0  0  0  0  0  0  0  0  0  0  0
   -7.2886   12.9676  -11.8418 H   0  0  0  0  0  0  0  0  0  0  0  0
   -6.0716   12.2689   -9.8542 H   0  0  0  0  0  0  0  0  0  0  0  0
   -8.1374   10.1224  -13.9131 H   0  0  0  0  0  0  0  0  0  0  0  0
   -6.8466   12.2604  -14.0624 H   0  0  0  0  0  0  0  0  0  0  0  0
   -8.1046   10.5248   -7.5674 H   0  0  0  0  0  0  0  0  0  0  0  0
   -7.3794    8.8814   -7.5641 H   0  0  0  0  0  0  0  0  0  0  0  0
   -5.0791   13.4115  -13.0408 H   0  0  0  0  0  0  0  0  0  0  0  0
   -6.7507   12.3156   -6.9255 H   0  0  0  0  0  0  0  0  0  0  0  0
   -4.5132   13.2816   -6.4664 H   0  0  0  0  0  0  0  0  0  0  0  0
   -2.6683    9.7485   -8.0357 H   0  0  0  0  0  0  0  0  0  0  0  0
   -4.9092    8.7863   -8.4943 H   0  0  0  0  0  0  0  0  0  0  0  0
   -2.4090   14.2148   -6.1776 H   0  0  0  0  0  0  0  0  0  0  0  0
   -0.6475   10.5464   -7.5511 H   0  0  0  0  0  0  0  0  0  0  0  0
    1.4812   14.2962   -6.0855 H   0  0  0  0  0  0  0  0  0  0  0  0
    0.2196   15.4369   -6.6628 H   0  0  0  0  0  0  0  0  0  0  0  0
    0.1886   14.8468   -4.9665 H   0  0  0  0  0  0  0  0  0  0  0  0
   -5.2882   14.1185  -10.2095 H   0  0  0  0  0  0  0  0  0  0  0  0
   -4.0431   13.0269  -10.9057 H   0  0  0  0  0  0  0  0  0  0  0  0
   -3.9735   15.4217  -12.4385 H   0  0  0  0  0  0  0  0  0  0  0  0
   -4.0914   15.9235  -10.7178 H   0  0  0  0  0  0  0  0  0  0  0  0
   -1.7243   15.2430  -11.9952 H   0  0  0  0  0  0  0  0  0  0  0  0
   -0.0031   13.9147   -9.0666 H   0  0  0  0  0  0  0  0  0  0  0  0
    0.0973   13.7152  -10.8489 H   0  0  0  0  0  0  0  0  0  0  0  0
    0.1416   15.3586  -10.1252 H   0  0  0  0  0  0  0  0  0  0  0  0
  1  2  1  0  0  0  0
  1  4  1  0  0  0  0
  1 11  1  0  0  0  0
  2  6  2  0  0  0  0
  3  4  2  0  0  0  0
  3  5  1  0  0  0  0
  5  6  1  0  0  0  0
  5  9  2  0  0  0  0
  6  7  1  0  0  0  0
  7  8  2  0  0  0  0
  7 10  1  0  0  0  0
  8  9  1  0  0  0  0
 10 12  1  0  0  0  0
 11 24  1  0  0  0  0
 12 13  2  0  0  0  0
 12 17  1  0  0  0  0
 13 14  1  0  0  0  0
 14 15  2  0  0  0  0
 15 16  1  0  0  0  0
 15 18  1  0  0  0  0
 16 17  2  0  0  0  0
 18 19  2  0  0  0  0
 18 22  1  0  0  0  0
 19 20  1  0  0  0  0
 20 21  1  0  0  0  0
 20 23  1  0  0  0  0
 21 22  2  0  0  0  0
 24 25  1  0  0  0  0
 25 26  1  0  0  0  0
 26 27  1  0  0  0  0
 27 28  2  0  0  0  0
 27 29  1  0  0  0  0
  1 30  1  0  0  0  0
  2 31  1  0  0  0  0
  3 32  1  0  0  0  0
  4 33  1  0  0  0  0
 10 34  1  0  0  0  0
 10 35  1  0  0  0  0
 11 36  1  0  0  0  0
 13 37  1  0  0  0  0
 14 38  1  0  0  0  0
 16 39  1  0  0  0  0
 17 40  1  0  0  0  0
 19 41  1  0  0  0  0
 22 42  1  0  0  0  0
 23 43  1  0  0  0  0
 23 44  1  0  0  0  0
 23 45  1  0  0  0  0
 24 46  1  0  0  0  0
 24 47  1  0  0  0  0
 25 48  1  0  0  0  0
 25 49  1  0  0  0  0
 26 50  1  0  0  0  0
 29 51  1  0  0  0  0
 29 52  1  0  0  0  0
 29 53  1  0  0  0  0
M  END
> <Name>
27

> <IC50[uM]>
0.68

$$$$
27
  -OEChem-05192314333D
 Structure written by MMmdl.
 53 56  0     1  0  0  0  0  0999 V2000
   -6.3855   12.3606  -12.0031 C   0  0  0  0  0  0  0  0  0  0  0  0
   -6.5214   11.8004  -10.7171 C   0  0  0  0  0  0  0  0  0  0  0  0
   -7.6991   10.5797  -13.0384 C   0  0  0  0  0  0  0  0  0  0  0  0
   -6.9626   11.7779  -13.1031 C   0  0  0  0  0  0  0  0  0  0  0  0
   -7.8238   10.0198  -11.7523 C   0  0  0  0  0  0  0  0  0  0  0  0
   -7.2557   10.6213  -10.5956 C   0  0  0  0  0  0  0  0  0  0  0  0
   -7.6268    9.7501   -9.5073 C   0  0  3  0  0  0  0  0  0  0  0  0
   -8.3057    8.7491   -9.9816 N   0  0  0  0  0  0  0  0  0  0  0  0
   -8.4330    8.8776  -11.2917 N   0  0  0  0  0  0  0  0  0  0  0  0
   -7.3352    9.8817   -8.0196 C   0  0  0  0  0  0  0  0  0  0  0  0
   -5.6205   13.5372  -12.2095 N   0  0  0  0  0  0  0  0  0  0  0  0
   -5.9727   10.4835   -7.7324 C   0  0  0  0  0  0  0  0  0  0  0  0
   -5.8611   11.7523   -7.1657 C   0  0  0  0  0  0  0  0  0  0  0  0
   -4.5946   12.2988   -6.9068 C   0  0  0  0  0  0  0  0  0  0  0  0
   -3.4432   11.5806   -7.2147 C   0  0  0  0  0  0  0  0  0  0  0  0
   -3.5570   10.3109   -7.7899 C   0  0  0  0  0  0  0  0  0  0  0  0
   -4.8253    9.7663   -8.0483 C   0  0  0  0  0  0  0  0  0  0  0  0
   -2.0926   12.1556   -6.9444 C   0  0  0  0  0  0  0  0  0  0  0  0
   -1.7338   13.4204   -6.4594 C   0  0  0  0  0  0  0  0  0  0  0  0
   -0.4064   13.4584   -6.4114 N   0  0  0  0  0  0  0  0  0  0  0  0
    0.1793   12.3493   -6.7865 N   0  0  0  0  0  0  0  0  0  0  0  0
   -0.7954   11.5387   -7.1512 C   0  0  0  0  0  0  0  0  0  0  0  0
    0.4205   14.5767   -6.0073 C   0  0  0  0  0  0  0  0  0  0  0  0
   -4.6894   13.8945  -11.1046 C   0  0  0  0  0  0  0  0  0  0  0  0
   -3.7822   15.1171  -11.3990 C   0  0  0  0  0  0  0  0  0  0  0  0
   -2.3310   14.9579  -11.2532 N   0  0  0  0  0  0  0  0  0  0  0  0
   -1.8099   14.4326  -10.1320 C   0  0  0  0  0  0  0  0  0  0  0  0
   -2.5019   14.0442   -9.2076 O   0  0  0  0  0  0  0  0  0  0  0  0
   -0.2869   14.3494  -10.0364 C   0  0  0  0  0  0  0  0  0  0  0  0
   -6.0716   12.2689   -9.8542 H   0  0  0  0  0  0  0  0  0  0  0  0
   -8.1374   10.1224  -13.9131 H   0  0  0  0  0  0  0  0  0  0  0  0
   -6.8466   12.2604  -14.0624 H   0  0  0  0  0  0  0  0  0  0  0  0
   -6.6939    9.1829   -9.6414 H   0  0  0  0  0  0  0  0  0  0  0  0
   -7.8268    7.8956   -9.7763 H   0  0  0  0  0  0  0  0  0  0  0  0
   -8.1046   10.5248   -7.5674 H   0  0  0  0  0  0  0  0  0  0  0  0
   -7.3794    8.8814   -7.5641 H   0  0  0  0  0  0  0  0  0  0  0  0
   -6.7507   12.3156   -6.9255 H   0  0  0  0  0  0  0  0  0  0  0  0
   -4.5132   13.2816   -6.4664 H   0  0  0  0  0  0  0  0  0  0  0  0
   -2.6683    9.7485   -8.0357 H   0  0  0  0  0  0  0  0  0  0  0  0
   -4.9092    8.7863   -8.4943 H   0  0  0  0  0  0  0  0  0  0  0  0
   -2.4090   14.2148   -6.1776 H   0  0  0  0  0  0  0  0  0  0  0  0
   -0.6475   10.5464   -7.5511 H   0  0  0  0  0  0  0  0  0  0  0  0
    1.4812   14.2962   -6.0855 H   0  0  0  0  0  0  0  0  0  0  0  0
    0.2196   15.4369   -6.6628 H   0  0  0  0  0  0  0  0  0  0  0  0
    0.1886   14.8468   -4.9665 H   0  0  0  0  0  0  0  0  0  0  0  0
   -5.2882   14.1185  -10.2095 H   0  0  0  0  0  0  0  0  0  0  0  0
   -4.0431   13.0269  -10.9057 H   0  0  0  0  0  0  0  0  0  0  0  0
   -3.9735   15.4217  -12.4385 H   0  0  0  0  0  0  0  0  0  0  0  0
   -4.0914   15.9235  -10.7178 H   0  0  0  0  0  0  0  0  0  0  0  0
   -1.7243   15.2430  -11.9952 H   0  0  0  0  0  0  0  0  0  0  0  0
   -0.0031   13.9147   -9.0666 H   0  0  0  0  0  0  0  0  0  0  0  0
    0.0973   13.7152  -10.8489 H   0  0  0  0  0  0  0  0  0  0  0  0
    0.1416   15.3586  -10.1252 H   0  0  0  0  0  0  0  0  0  0  0  0
  1  2  1  0  0  0  0
  1  4  1  0  0  0  0
  1 11  2  0  0  0  0
  2  6  2  0  0  0  0
  3  4  2  0  0  0  0
  3  5  1  0  0  0  0
  5  6  1  0  0  0  0
  5  9  2  0  0  0  0
  6  7  1  0  0  0  0
  7  8  1  0  0  0  0
  7 10  1  0  0  0  0
  8  9  1  0  0  0  0
 10 12  1  0  0  0  0
 11 24  1  0  0  0  0
 12 13  2  0  0  0  0
 12 17  1  0  0  0  0
 13 14  1  0  0  0  0
 14 15  2  0  0  0  0
 15 16  1  0  0  0  0
 15 18  1  0  0  0  0
 16 17  2  0  0  0  0
 18 19  2  0  0  0  0
 18 22  1  0  0  0  0
 19 20  1  0  0  0  0
 20 21  1  0  0  0  0
 20 23  1  0  0  0  0
 21 22  2  0  0  0  0
 24 25  1  0  0  0  0
 25 26  1  0  0  0  0
 26 27  1  0  0  0  0
 27 28  2  0  0  0  0
 27 29  1  0  0  0  0
  2 30  1  0  0  0  0
  3 31  1  0  0  0  0
  4 32  1  0  0  0  0
  7 33  1  0  0  0  0
  8 34  1  0  0  0  0
 10 35  1  0  0  0  0
 10 36  1  0  0  0  0
 13 37  1  0  0  0  0
 14 38  1  0  0  0  0
 16 39  1  0  0  0  0
 17 40  1  0  0  0  0
 19 41  1  0  0  0  0
 22 42  1  0  0  0  0
 23 43  1  0  0  0  0
 23 44  1  0  0  0  0
 23 45  1  0  0  0  0
 24 46  1  0  0  0  0
 24 47  1  0  0  0  0
 25 48  1  0  0  0  0
 25 49  1  0  0  0  0
 26 50  1  0  0  0  0
 29 51  1  0  0  0  0
 29 52  1  0  0  0  0
 29 53  1  0  0  0  0
M  END
> <Name>
27

> <IC50[uM]>
0.68

$$$$
27
  -OEChem-05192314333D
 Structure written by MMmdl.
 53 56  0     1  0  0  0  0  0999 V2000
   -6.3855   12.3606  -12.0031 C   0  0  0  0  0  0  0  0  0  0  0  0
   -6.5214   11.8004  -10.7171 C   0  0  0  0  0  0  0  0  0  0  0  0
   -7.6991   10.5797  -13.0384 C   0  0  0  0  0  0  0  0  0  0  0  0
   -6.9626   11.7779  -13.1031 C   0  0  0  0  0  0  0  0  0  0  0  0
   -7.8238   10.0198  -11.7523 C   0  0  3  0  0  0  0  0  0  0  0  0
   -7.2557   10.6213  -10.5956 C   0  0  0  0  0  0  0  0  0  0  0  0
   -7.6268    9.7501   -9.5073 C   0  0  0  0  0  0  0  0  0  0  0  0
   -8.3057    8.7491   -9.9816 N   0  0  0  0  0  0  0  0  0  0  0  0
   -8.4330    8.8776  -11.2917 N   0  0  0  0  0  0  0  0  0  0  0  0
   -7.3352    9.8817   -8.0196 C   0  0  0  0  0  0  0  0  0  0  0  0
   -5.6205   13.5372  -12.2095 N   0  0  0  0  0  0  0  0  0  0  0  0
   -5.9727   10.4835   -7.7324 C   0  0  0  0  0  0  0  0  0  0  0  0
   -5.8611   11.7523   -7.1657 C   0  0  0  0  0  0  0  0  0  0  0  0
   -4.5946   12.2988   -6.9068 C   0  0  0  0  0  0  0  0  0  0  0  0
   -3.4432   11.5806   -7.2147 C   0  0  0  0  0  0  0  0  0  0  0  0
   -3.5570   10.3109   -7.7899 C   0  0  0  0  0  0  0  0  0  0  0  0
   -4.8253    9.7663   -8.0483 C   0  0  0  0  0  0  0  0  0  0  0  0
   -2.0926   12.1556   -6.9444 C   0  0  0  0  0  0  0  0  0  0  0  0
   -1.7338   13.4204   -6.4594 C   0  0  0  0  0  0  0  0  0  0  0  0
   -0.4064   13.4584   -6.4114 N   0  0  0  0  0  0  0  0  0  0  0  0
    0.1793   12.3493   -6.7865 N   0  0  0  0  0  0  0  0  0  0  0  0
   -0.7954   11.5387   -7.1512 C   0  0  0  0  0  0  0  0  0  0  0  0
    0.4205   14.5767   -6.0073 C   0  0  0  0  0  0  0  0  0  0  0  0
   -4.6894   13.8945  -11.1046 C   0  0  0  0  0  0  0  0  0  0  0  0
   -3.7822   15.1171  -11.3990 C   0  0  0  0  0  0  0  0  0  0  0  0
   -2.3310   14.9579  -11.2532 N   0  0  0  0  0  0  0  0  0  0  0  0
   -1.8099   14.4326  -10.1320 C   0  0  0  0  0  0  0  0  0  0  0  0
   -2.5019   14.0442   -9.2076 O   0  0  0  0  0  0  0  0  0  0  0  0
   -0.2869   14.3494  -10.0364 C   0  0  0  0  0  0  0  0  0  0  0  0
   -6.0716   12.2689   -9.8542 H   0  0  0  0  0  0  0  0  0  0  0  0
   -8.1374   10.1224  -13.9131 H   0  0  0  0  0  0  0  0  0  0  0  0
   -6.8466   12.2604  -14.0624 H   0  0  0  0  0  0  0  0  0  0  0  0
   -8.7543   10.5845  -11.5930 H   0  0  0  0  0  0  0  0  0  0  0  0
   -9.4057    8.9143  -11.5206 H   0  0  0  0  0  0  0  0  0  0  0  0
   -8.1046   10.5248   -7.5674 H   0  0  0  0  0  0  0  0  0  0  0  0
   -7.3794    8.8814   -7.5641 H   0  0  0  0  0  0  0  0  0  0  0  0
   -6.7507   12.3156   -6.9255 H   0  0  0  0  0  0  0  0  0  0  0  0
   -4.5132   13.2816   -6.4664 H   0  0  0  0  0  0  0  0  0  0  0  0
   -2.6683    9.7485   -8.0357 H   0  0  0  0  0  0  0  0  0  0  0  0
   -4.9092    8.7863   -8.4943 H   0  0  0  0  0  0  0  0  0  0  0  0
   -2.4090   14.2148   -6.1776 H   0  0  0  0  0  0  0  0  0  0  0  0
   -0.6475   10.5464   -7.5511 H   0  0  0  0  0  0  0  0  0  0  0  0
    1.4812   14.2962   -6.0855 H   0  0  0  0  0  0  0  0  0  0  0  0
    0.2196   15.4369   -6.6628 H   0  0  0  0  0  0  0  0  0  0  0  0
    0.1886   14.8468   -4.9665 H   0  0  0  0  0  0  0  0  0  0  0  0
   -5.2882   14.1185  -10.2095 H   0  0  0  0  0  0  0  0  0  0  0  0
   -4.0431   13.0269  -10.9057 H   0  0  0  0  0  0  0  0  0  0  0  0
   -3.9735   15.4217  -12.4385 H   0  0  0  0  0  0  0  0  0  0  0  0
   -4.0914   15.9235  -10.7178 H   0  0  0  0  0  0  0  0  0  0  0  0
   -1.7243   15.2430  -11.9952 H   0  0  0  0  0  0  0  0  0  0  0  0
   -0.0031   13.9147   -9.0666 H   0  0  0  0  0  0  0  0  0  0  0  0
    0.0973   13.7152  -10.8489 H   0  0  0  0  0  0  0  0  0  0  0  0
    0.1416   15.3586  -10.1252 H   0  0  0  0  0  0  0  0  0  0  0  0
  1  2  1  0  0  0  0
  1  4  1  0  0  0  0
  1 11  2  0  0  0  0
  2  6  2  0  0  0  0
  3  4  2  0  0  0  0
  3  5  1  0  0  0  0
  5  6  1  0  0  0  0
  5  9  1  0  0  0  0
  6  7  1  0  0  0  0
  7  8  2  0  0  0  0
  7 10  1  0  0  0  0
  8  9  1  0  0  0  0
 10 12  1  0  0  0  0
 11 24  1  0  0  0  0
 12 13  2  0  0  0  0
 12 17  1  0  0  0  0
 13 14  1  0  0  0  0
 14 15  2  0  0  0  0
 15 16  1  0  0  0  0
 15 18  1  0  0  0  0
 16 17  2  0  0  0  0
 18 19  2  0  0  0  0
 18 22  1  0  0  0  0
 19 20  1  0  0  0  0
 20 21  1  0  0  0  0
 20 23  1  0  0  0  0
 21 22  2  0  0  0  0
 24 25  1  0  0  0  0
 25 26  1  0  0  0  0
 26 27  1  0  0  0  0
 27 28  2  0  0  0  0
 27 29  1  0  0  0  0
  2 30  1  0  0  0  0
  3 31  1  0  0  0  0
  4 32  1  0  0  0  0
  5 33  1  0  0  0  0
  9 34  1  0  0  0  0
 10 35  1  0  0  0  0
 10 36  1  0  0  0  0
 13 37  1  0  0  0  0
 14 38  1  0  0  0  0
 16 39  1  0  0  0  0
 17 40  1  0  0  0  0
 19 41  1  0  0  0  0
 22 42  1  0  0  0  0
 23 43  1  0  0  0  0
 23 44  1  0  0  0  0
 23 45  1  0  0  0  0
 24 46  1  0  0  0  0
 24 47  1  0  0  0  0
 25 48  1  0  0  0  0
 25 49  1  0  0  0  0
 26 50  1  0  0  0  0
 29 51  1  0  0  0  0
 29 52  1  0  0  0  0
 29 53  1  0  0  0  0
M  END
> <Name>
27

> <IC50[uM]>
0.68

$$$$
27
  -OEChem-05192314333D
 Structure written by MMmdl.
 53 56  0     0  0  0  0  0  0999 V2000
   -6.3855   12.3606  -12.0031 C   0  0  0  0  0  0  0  0  0  0  0  0
   -6.5214   11.8004  -10.7171 C   0  0  0  0  0  0  0  0  0  0  0  0
   -7.6991   10.5797  -13.0384 C   0  0  0  0  0  0  0  0  0  0  0  0
   -6.9626   11.7779  -13.1031 C   0  0  0  0  0  0  0  0  0  0  0  0
   -7.8238   10.0198  -11.7523 C   0  0  0  0  0  0  0  0  0  0  0  0
   -7.2557   10.6213  -10.5956 C   0  0  0  0  0  0  0  0  0  0  0  0
   -7.6268    9.7501   -9.5073 C   0  0  0  0  0  0  0  0  0  0  0  0
   -8.3057    8.7491   -9.9816 N   0  0  0  0  0  0  0  0  0  0  0  0
   -8.4330    8.8776  -11.2917 N   0  0  0  0  0  0  0  0  0  0  0  0
   -7.3352    9.8817   -8.0196 C   0  0  0  0  0  0  0  0  0  0  0  0
   -5.6205   13.5372  -12.2095 N   0  0  0  0  0  0  0  0  0  0  0  0
   -5.9727   10.4835   -7.7324 C   0  0  0  0  0  0  0  0  0  0  0  0
   -5.8611   11.7523   -7.1657 C   0  0  0  0  0  0  0  0  0  0  0  0
   -4.5946   12.2988   -6.9068 C   0  0  0  0  0  0  0  0  0  0  0  0
   -3.4432   11.5806   -7.2147 C   0  0  0  0  0  0  0  0  0  0  0  0
   -3.5570   10.3109   -7.7899 C   0  0  0  0  0  0  0  0  0  0  0  0
   -4.8253    9.7663   -8.0483 C   0  0  0  0  0  0  0  0  0  0  0  0
   -2.0926   12.1556   -6.9444 C   0  0  0  0  0  0  0  0  0  0  0  0
   -1.7338   13.4204   -6.4594 C   0  0  0  0  0  0  0  0  0  0  0  0
   -0.4064   13.4584   -6.4114 N   0  0  0  0  0  0  0  0  0  0  0  0
    0.1793   12.3493   -6.7865 N   0  0  0  0  0  0  0  0  0  0  0  0
   -0.7954   11.5387   -7.1512 C   0  0  0  0  0  0  0  0  0  0  0  0
    0.4205   14.5767   -6.0073 C   0  0  0  0  0  0  0  0  0  0  0  0
   -4.6894   13.8945  -11.1046 C   0  0  0  0  0  0  0  0  0  0  0  0
   -3.7822   15.1171  -11.3990 C   0  0  0  0  0  0  0  0  0  0  0  0
   -2.3310   14.9579  -11.2532 N   0  0  0  0  0  0  0  0  0  0  0  0
   -1.8099   14.4326  -10.1320 C   0  0  0  0  0  0  0  0  0  0  0  0
   -2.5019   14.0442   -9.2076 O   0  0  0  0  0  0  0  0  0  0  0  0
   -0.2869   14.3494  -10.0364 C   0  0  0  0  0  0  0  0  0  0  0  0
   -6.0716   12.2689   -9.8542 H   0  0  0  0  0  0  0  0  0  0  0  0
   -8.7105   10.7812  -13.4211 H   0  0  0  0  0  0  0  0  0  0  0  0
   -7.2031    9.8404  -13.6845 H   0  0  0  0  0  0  0  0  0  0  0  0
   -6.8466   12.2604  -14.0624 H   0  0  0  0  0  0  0  0  0  0  0  0
   -8.1046   10.5248   -7.5674 H   0  0  0  0  0  0  0  0  0  0  0  0
   -7.3794    8.8814   -7.5641 H   0  0  0  0  0  0  0  0  0  0  0  0
   -5.0791   13.4115  -13.0408 H   0  0  0  0  0  0  0  0  0  0  0  0
   -6.7507   12.3156   -6.9255 H   0  0  0  0  0  0  0  0  0  0  0  0
   -4.5132   13.2816   -6.4664 H   0  0  0  0  0  0  0  0  0  0  0  0
   -2.6683    9.7485   -8.0357 H   0  0  0  0  0  0  0  0  0  0  0  0
   -4.9092    8.7863   -8.4943 H   0  0  0  0  0  0  0  0  0  0  0  0
   -2.4090   14.2148   -6.1776 H   0  0  0  0  0  0  0  0  0  0  0  0
   -0.6475   10.5464   -7.5511 H   0  0  0  0  0  0  0  0  0  0  0  0
    1.4812   14.2962   -6.0855 H   0  0  0  0  0  0  0  0  0  0  0  0
    0.2196   15.4369   -6.6628 H   0  0  0  0  0  0  0  0  0  0  0  0
    0.1886   14.8468   -4.9665 H   0  0  0  0  0  0  0  0  0  0  0  0
   -5.2882   14.1185  -10.2095 H   0  0  0  0  0  0  0  0  0  0  0  0
   -4.0431   13.0269  -10.9057 H   0  0  0  0  0  0  0  0  0  0  0  0
   -3.9735   15.4217  -12.4385 H   0  0  0  0  0  0  0  0  0  0  0  0
   -4.0914   15.9235  -10.7178 H   0  0  0  0  0  0  0  0  0  0  0  0
   -1.7243   15.2430  -11.9952 H   0  0  0  0  0  0  0  0  0  0  0  0
   -0.0031   13.9147   -9.0666 H   0  0  0  0  0  0  0  0  0  0  0  0
    0.0973   13.7152  -10.8489 H   0  0  0  0  0  0  0  0  0  0  0  0
    0.1416   15.3586  -10.1252 H   0  0  0  0  0  0  0  0  0  0  0  0
  1  2  1  0  0  0  0
  1  4  2  0  0  0  0
  1 11  1  0  0  0  0
  2  6  2  0  0  0  0
  3  4  1  0  0  0  0
  3  5  1  0  0  0  0
  5  6  1  0  0  0  0
  5  9  2  0  0  0  0
  6  7  1  0  0  0  0
  7  8  2  0  0  0  0
  7 10  1  0  0  0  0
  8  9  1  0  0  0  0
 10 12  1  0  0  0  0
 11 24  1  0  0  0  0
 12 13  2  0  0  0  0
 12 17  1  0  0  0  0
 13 14  1  0  0  0  0
 14 15  2  0  0  0  0
 15 16  1  0  0  0  0
 15 18  1  0  0  0  0
 16 17  2  0  0  0  0
 18 19  2  0  0  0  0
 18 22  1  0  0  0  0
 19 20  1  0  0  0  0
 20 21  1  0  0  0  0
 20 23  1  0  0  0  0
 21 22  2  0  0  0  0
 24 25  1  0  0  0  0
 25 26  1  0  0  0  0
 26 27  1  0  0  0  0
 27 28  2  0  0  0  0
 27 29  1  0  0  0  0
  2 30  1  0  0  0  0
  3 31  1  0  0  0  0
  3 32  1  0  0  0  0
  4 33  1  0  0  0  0
 10 34  1  0  0  0  0
 10 35  1  0  0  0  0
 11 36  1  0  0  0  0
 13 37  1  0  0  0  0
 14 38  1  0  0  0  0
 16 39  1  0  0  0  0
 17 40  1  0  0  0  0
 19 41  1  0  0  0  0
 22 42  1  0  0  0  0
 23 43  1  0  0  0  0
 23 44  1  0  0  0  0
 23 45  1  0  0  0  0
 24 46  1  0  0  0  0
 24 47  1  0  0  0  0
 25 48  1  0  0  0  0
 25 49  1  0  0  0  0
 26 50  1  0  0  0  0
 29 51  1  0  0  0  0
 29 52  1  0  0  0  0
 29 53  1  0  0  0  0
M  END
> <Name>
27

> <IC50[uM]>
0.68

$$$$
27
  -OEChem-05192314333D
 Structure written by MMmdl.
 53 56  0     1  0  0  0  0  0999 V2000
   -6.3855   12.3606  -12.0031 C   0  0  0  0  0  0  0  0  0  0  0  0
   -6.5214   11.8004  -10.7171 C   0  0  0  0  0  0  0  0  0  0  0  0
   -7.6991   10.5797  -13.0384 C   0  0  0  0  0  0  0  0  0  0  0  0
   -6.9626   11.7779  -13.1031 C   0  0  0  0  0  0  0  0  0  0  0  0
   -7.8238   10.0198  -11.7523 C   0  0  3  0  0  0  0  0  0  0  0  0
   -7.2557   10.6213  -10.5956 C   0  0  0  0  0  0  0  0  0  0  0  0
   -7.6268    9.7501   -9.5073 C   0  0  0  0  0  0  0  0  0  0  0  0
   -8.3057    8.7491   -9.9816 N   0  0  0  0  0  0  0  0  0  0  0  0
   -8.4330    8.8776  -11.2917 N   0  0  0  0  0  0  0  0  0  0  0  0
   -7.3352    9.8817   -8.0196 C   0  0  0  0  0  0  0  0  0  0  0  0
   -5.6205   13.5372  -12.2095 N   0  0  0  0  0  0  0  0  0  0  0  0
   -5.9727   10.4835   -7.7324 C   0  0  0  0  0  0  0  0  0  0  0  0
   -5.8611   11.7523   -7.1657 C   0  0  0  0  0  0  0  0  0  0  0  0
   -4.5946   12.2988   -6.9068 C   0  0  0  0  0  0  0  0  0  0  0  0
   -3.4432   11.5806   -7.2147 C   0  0  0  0  0  0  0  0  0  0  0  0
   -3.5570   10.3109   -7.7899 C   0  0  0  0  0  0  0  0  0  0  0  0
   -4.8253    9.7663   -8.0483 C   0  0  0  0  0  0  0  0  0  0  0  0
   -2.0926   12.1556   -6.9444 C   0  0  0  0  0  0  0  0  0  0  0  0
   -1.7338   13.4204   -6.4594 C   0  0  0  0  0  0  0  0  0  0  0  0
   -0.4064   13.4584   -6.4114 N   0  0  0  0  0  0  0  0  0  0  0  0
    0.1793   12.3493   -6.7865 N   0  0  0  0  0  0  0  0  0  0  0  0
   -0.7954   11.5387   -7.1512 C   0  0  0  0  0  0  0  0  0  0  0  0
    0.4205   14.5767   -6.0073 C   0  0  0  0  0  0  0  0  0  0  0  0
   -4.6894   13.8945  -11.1046 C   0  0  0  0  0  0  0  0  0  0  0  0
   -3.7822   15.1171  -11.3990 C   0  0  0  0  0  0  0  0  0  0  0  0
   -2.3310   14.9579  -11.2532 N   0  0  0  0  0  0  0  0  0  0  0  0
   -1.8099   14.4326  -10.1320 C   0  0  0  0  0  0  0  0  0  0  0  0
   -2.5019   14.0442   -9.2076 O   0  0  0  0  0  0  0  0  0  0  0  0
   -0.2869   14.3494  -10.0364 C   0  0  0  0  0  0  0  0  0  0  0  0
   -6.0716   12.2689   -9.8542 H   0  0  0  0  0  0  0  0  0  0  0  0
   -8.7105   10.7812  -13.4211 H   0  0  0  0  0  0  0  0  0  0  0  0
   -7.2031    9.8404  -13.6845 H   0  0  0  0  0  0  0  0  0  0  0  0
   -7.6459   12.5314  -13.5218 H   0  0  0  0  0  0  0  0  0  0  0  0
   -6.1429   11.5918  -13.8126 H   0  0  0  0  0  0  0  0  0  0  0  0
   -8.7543   10.5845  -11.5930 H   0  0  0  0  0  0  0  0  0  0  0  0
   -8.0269    9.5780   -7.2478 H   0  0  0  0  0  0  0  0  0  0  0  0
   -6.7507   12.3156   -6.9255 H   0  0  0  0  0  0  0  0  0  0  0  0
   -4.5132   13.2816   -6.4664 H   0  0  0  0  0  0  0  0  0  0  0  0
   -2.6683    9.7485   -8.0357 H   0  0  0  0  0  0  0  0  0  0  0  0
   -4.9092    8.7863   -8.4943 H   0  0  0  0  0  0  0  0  0  0  0  0
   -2.4090   14.2148   -6.1776 H   0  0  0  0  0  0  0  0  0  0  0  0
   -0.6475   10.5464   -7.5511 H   0  0  0  0  0  0  0  0  0  0  0  0
    1.4812   14.2962   -6.0855 H   0  0  0  0  0  0  0  0  0  0  0  0
    0.2196   15.4369   -6.6628 H   0  0  0  0  0  0  0  0  0  0  0  0
    0.1886   14.8468   -4.9665 H   0  0  0  0  0  0  0  0  0  0  0  0
   -5.2882   14.1185  -10.2095 H   0  0  0  0  0  0  0  0  0  0  0  0
   -4.0431   13.0269  -10.9057 H   0  0  0  0  0  0  0  0  0  0  0  0
   -3.9735   15.4217  -12.4385 H   0  0  0  0  0  0  0  0  0  0  0  0
   -4.0914   15.9235  -10.7178 H   0  0  0  0  0  0  0  0  0  0  0  0
   -1.9457   13.7098   -8.5138 H   0  0  0  0  0  0  0  0  0  0  0  0
   -0.0034   13.9020   -9.0723 H   0  0  0  0  0  0  0  0  0  0  0  0
    0.0984   13.7264  -10.8570 H   0  0  0  0  0  0  0  0  0  0  0  0
    0.1408   15.3601  -10.1114 H   0  0  0  0  0  0  0  0  0  0  0  0
  1  2  1  0  0  0  0
  1  4  1  0  0  0  0
  1 11  2  0  0  0  0
  2  6  2  0  0  0  0
  3  4  1  0  0  0  0
  3  5  1  0  0  0  0
  5  6  1  0  0  0  0
  5  9  1  0  0  0  0
  6  7  1  0  0  0  0
  7  8  1  0  0  0  0
  7 10  2  3  0  0  0
  8  9  2  0  0  0  0
 10 12  1  0  0  0  0
 11 24  1  0  0  0  0
 12 13  2  0  0  0  0
 12 17  1  0  0  0  0
 13 14  1  0  0  0  0
 14 15  2  0  0  0  0
 15 16  1  0  0  0  0
 15 18  1  0  0  0  0
 16 17  2  0  0  0  0
 18 19  2  0  0  0  0
 18 22  1  0  0  0  0
 19 20  1  0  0  0  0
 20 21  1  0  0  0  0
 20 23  1  0  0  0  0
 21 22  2  0  0  0  0
 24 25  1  0  0  0  0
 25 26  1  0  0  0  0
 26 27  2  0  0  0  0
 27 28  1  0  0  0  0
 27 29  1  0  0  0  0
  2 30  1  0  0  0  0
  3 31  1  0  0  0  0
  3 32  1  0  0  0  0
  4 33  1  0  0  0  0
  4 34  1  0  0  0  0
  5 35  1  0  0  0  0
 10 36  1  0  0  0  0
 13 37  1  0  0  0  0
 14 38  1  0  0  0  0
 16 39  1  0  0  0  0
 17 40  1  0  0  0  0
 19 41  1  0  0  0  0
 22 42  1  0  0  0  0
 23 43  1  0  0  0  0
 23 44  1  0  0  0  0
 23 45  1  0  0  0  0
 24 46  1  0  0  0  0
 24 47  1  0  0  0  0
 25 48  1  0  0  0  0
 25 49  1  0  0  0  0
 28 50  1  0  0  0  0
 29 51  1  0  0  0  0
 29 52  1  0  0  0  0
 29 53  1  0  0  0  0
M  END
> <Name>
27

> <IC50[uM]>
0.68

$$$$
27
  -OEChem-05192314333D
 Structure written by MMmdl.
 53 56  0     1  0  0  0  0  0999 V2000
   -6.3855   12.3606  -12.0031 C   0  0  0  0  0  0  0  0  0  0  0  0
   -6.5214   11.8004  -10.7171 C   0  0  0  0  0  0  0  0  0  0  0  0
   -7.6991   10.5797  -13.0384 C   0  0  0  0  0  0  0  0  0  0  0  0
   -6.9626   11.7779  -13.1031 C   0  0  0  0  0  0  0  0  0  0  0  0
   -7.8238   10.0198  -11.7523 C   0  0  3  0  0  0  0  0  0  0  0  0
   -7.2557   10.6213  -10.5956 C   0  0  3  0  0  0  0  0  0  0  0  0
   -7.6268    9.7501   -9.5073 C   0  0  0  0  0  0  0  0  0  0  0  0
   -8.3057    8.7491   -9.9816 N   0  0  0  0  0  0  0  0  0  0  0  0
   -8.4330    8.8776  -11.2917 N   0  0  0  0  0  0  0  0  0  0  0  0
   -7.3352    9.8817   -8.0196 C   0  0  0  0  0  0  0  0  0  0  0  0
   -5.6205   13.5372  -12.2095 N   0  0  0  0  0  0  0  0  0  0  0  0
   -5.9727   10.4835   -7.7324 C   0  0  0  0  0  0  0  0  0  0  0  0
   -5.8611   11.7523   -7.1657 C   0  0  0  0  0  0  0  0  0  0  0  0
   -4.5946   12.2988   -6.9068 C   0  0  0  0  0  0  0  0  0  0  0  0
   -3.4432   11.5806   -7.2147 C   0  0  0  0  0  0  0  0  0  0  0  0
   -3.5570   10.3109   -7.7899 C   0  0  0  0  0  0  0  0  0  0  0  0
   -4.8253    9.7663   -8.0483 C   0  0  0  0  0  0  0  0  0  0  0  0
   -2.0926   12.1556   -6.9444 C   0  0  0  0  0  0  0  0  0  0  0  0
   -1.7338   13.4204   -6.4594 C   0  0  0  0  0  0  0  0  0  0  0  0
   -0.4064   13.4584   -6.4114 N   0  0  0  0  0  0  0  0  0  0  0  0
    0.1793   12.3493   -6.7865 N   0  0  0  0  0  0  0  0  0  0  0  0
   -0.7954   11.5387   -7.1512 C   0  0  0  0  0  0  0  0  0  0  0  0
    0.4205   14.5767   -6.0073 C   0  0  0  0  0  0  0  0  0  0  0  0
   -4.6894   13.8945  -11.1046 C   0  0  0  0  0  0  0  0  0  0  0  0
   -3.7822   15.1171  -11.3990 C   0  0  0  0  0  0  0  0  0  0  0  0
   -2.3310   14.9579  -11.2532 N   0  0  0  0  0  0  0  0  0  0  0  0
   -1.8099   14.4326  -10.1320 C   0  0  0  0  0  0  0  0  0  0  0  0
   -2.5019   14.0442   -9.2076 O   0  0  0  0  0  0  0  0  0  0  0  0
   -0.2869   14.3494  -10.0364 C   0  0  0  0  0  0  0  0  0  0  0  0
   -5.5086   11.5965  -10.3394 H   0  0  0  0  0  0  0  0  0  0  0  0
   -7.0053   12.5553  -10.0799 H   0  0  0  0  0  0  0  0  0  0  0  0
   -8.1374   10.1224  -13.9131 H   0  0  0  0  0  0  0  0  0  0  0  0
   -6.8466   12.2604  -14.0624 H   0  0  0  0  0  0  0  0  0  0  0  0
   -8.7543   10.5845  -11.5930 H   0  0  0  0  0  0  0  0  0  0  0  0
   -8.1751   11.2060  -10.4447 H   0  0  0  0  0  0  0  0  0  0  0  0
   -8.0269    9.5780   -7.2478 H   0  0  0  0  0  0  0  0  0  0  0  0
   -6.7507   12.3156   -6.9255 H   0  0  0  0  0  0  0  0  0  0  0  0
   -4.5132   13.2816   -6.4664 H   0  0  0  0  0  0  0  0  0  0  0  0
   -2.6683    9.7485   -8.0357 H   0  0  0  0  0  0  0  0  0  0  0  0
   -4.9092    8.7863   -8.4943 H   0  0  0  0  0  0  0  0  0  0  0  0
   -2.4090   14.2148   -6.1776 H   0  0  0  0  0  0  0  0  0  0  0  0
   -0.6475   10.5464   -7.5511 H   0  0  0  0  0  0  0  0  0  0  0  0
    1.4812   14.2962   -6.0855 H   0  0  0  0  0  0  0  0  0  0  0  0
    0.2196   15.4369   -6.6628 H   0  0  0  0  0  0  0  0  0  0  0  0
    0.1886   14.8468   -4.9665 H   0  0  0  0  0  0  0  0  0  0  0  0
   -5.2882   14.1185  -10.2095 H   0  0  0  0  0  0  0  0  0  0  0  0
   -4.0431   13.0269  -10.9057 H   0  0  0  0  0  0  0  0  0  0  0  0
   -3.9735   15.4217  -12.4385 H   0  0  0  0  0  0  0  0  0  0  0  0
   -4.0914   15.9235  -10.7178 H   0  0  0  0  0  0  0  0  0  0  0  0
   -1.9457   13.7098   -8.5138 H   0  0  0  0  0  0  0  0  0  0  0  0
   -0.0034   13.9020   -9.0723 H   0  0  0  0  0  0  0  0  0  0  0  0
    0.0984   13.7264  -10.8570 H   0  0  0  0  0  0  0  0  0  0  0  0
    0.1408   15.3601  -10.1114 H   0  0  0  0  0  0  0  0  0  0  0  0
  1  2  1  0  0  0  0
  1  4  1  0  0  0  0
  1 11  2  0  0  0  0
  2  6  1  0  0  0  0
  3  4  2  0  0  0  0
  3  5  1  0  0  0  0
  5  6  1  0  0  0  0
  5  9  1  0  0  0  0
  6  7  1  0  0  0  0
  7  8  1  0  0  0  0
  7 10  2  3  0  0  0
  8  9  2  0  0  0  0
 10 12  1  0  0  0  0
 11 24  1  0  0  0  0
 12 13  2  0  0  0  0
 12 17  1  0  0  0  0
 13 14  1  0  0  0  0
 14 15  2  0  0  0  0
 15 16  1  0  0  0  0
 15 18  1  0  0  0  0
 16 17  2  0  0  0  0
 18 19  2  0  0  0  0
 18 22  1  0  0  0  0
 19 20  1  0  0  0  0
 20 21  1  0  0  0  0
 20 23  1  0  0  0  0
 21 22  2  0  0  0  0
 24 25  1  0  0  0  0
 25 26  1  0  0  0  0
 26 27  2  0  0  0  0
 27 28  1  0  0  0  0
 27 29  1  0  0  0  0
  2 30  1  0  0  0  0
  2 31  1  0  0  0  0
  3 32  1  0  0  0  0
  4 33  1  0  0  0  0
  5 34  1  0  0  0  0
  6 35  1  0  0  0  0
 10 36  1  0  0  0  0
 13 37  1  0  0  0  0
 14 38  1  0  0  0  0
 16 39  1  0  0  0  0
 17 40  1  0  0  0  0
 19 41  1  0  0  0  0
 22 42  1  0  0  0  0
 23 43  1  0  0  0  0
 23 44  1  0  0  0  0
 23 45  1  0  0  0  0
 24 46  1  0  0  0  0
 24 47  1  0  0  0  0
 25 48  1  0  0  0  0
 25 49  1  0  0  0  0
 28 50  1  0  0  0  0
 29 51  1  0  0  0  0
 29 52  1  0  0  0  0
 29 53  1  0  0  0  0
M  END
> <Name>
27

> <IC50[uM]>
0.68

$$$$
27
  -OEChem-05192314333D
 Structure written by MMmdl.
 53 56  0     1  0  0  0  0  0999 V2000
   -6.3855   12.3606  -12.0031 C   0  0  0  0  0  0  0  0  0  0  0  0
   -6.5214   11.8004  -10.7171 C   0  0  0  0  0  0  0  0  0  0  0  0
   -7.6991   10.5797  -13.0384 C   0  0  0  0  0  0  0  0  0  0  0  0
   -6.9626   11.7779  -13.1031 C   0  0  0  0  0  0  0  0  0  0  0  0
   -7.8238   10.0198  -11.7523 C   0  0  0  0  0  0  0  0  0  0  0  0
   -7.2557   10.6213  -10.5956 C   0  0  3  0  0  0  0  0  0  0  0  0
   -7.6268    9.7501   -9.5073 C   0  0  0  0  0  0  0  0  0  0  0  0
   -8.3057    8.7491   -9.9816 N   0  0  0  0  0  0  0  0  0  0  0  0
   -8.4330    8.8776  -11.2917 N   0  0  0  0  0  0  0  0  0  0  0  0
   -7.3352    9.8817   -8.0196 C   0  0  0  0  0  0  0  0  0  0  0  0
   -5.6205   13.5372  -12.2095 N   0  0  0  0  0  0  0  0  0  0  0  0
   -5.9727   10.4835   -7.7324 C   0  0  0  0  0  0  0  0  0  0  0  0
   -5.8611   11.7523   -7.1657 C   0  0  0  0  0  0  0  0  0  0  0  0
   -4.5946   12.2988   -6.9068 C   0  0  0  0  0  0  0  0  0  0  0  0
   -3.4432   11.5806   -7.2147 C   0  0  0  0  0  0  0  0  0  0  0  0
   -3.5570   10.3109   -7.7899 C   0  0  0  0  0  0  0  0  0  0  0  0
   -4.8253    9.7663   -8.0483 C   0  0  0  0  0  0  0  0  0  0  0  0
   -2.0926   12.1556   -6.9444 C   0  0  0  0  0  0  0  0  0  0  0  0
   -1.7338   13.4204   -6.4594 C   0  0  0  0  0  0  0  0  0  0  0  0
   -0.4064   13.4584   -6.4114 N   0  0  0  0  0  0  0  0  0  0  0  0
    0.1793   12.3493   -6.7865 N   0  0  0  0  0  0  0  0  0  0  0  0
   -0.7954   11.5387   -7.1512 C   0  0  0  0  0  0  0  0  0  0  0  0
    0.4205   14.5767   -6.0073 C   0  0  0  0  0  0  0  0  0  0  0  0
   -4.6894   13.8945  -11.1046 C   0  0  0  0  0  0  0  0  0  0  0  0
   -3.7822   15.1171  -11.3990 C   0  0  0  0  0  0  0  0  0  0  0  0
   -2.3310   14.9579  -11.2532 N   0  0  0  0  0  0  0  0  0  0  0  0
   -1.8099   14.4326  -10.1320 C   0  0  0  0  0  0  0  0  0  0  0  0
   -2.5019   14.0442   -9.2076 O   0  0  0  0  0  0  0  0  0  0  0  0
   -0.2869   14.3494  -10.0364 C   0  0  0  0  0  0  0  0  0  0  0  0
   -5.5086   11.5965  -10.3394 H   0  0  0  0  0  0  0  0  0  0  0  0
   -7.0053   12.5553  -10.0799 H   0  0  0  0  0  0  0  0  0  0  0  0
   -8.1374   10.1224  -13.9131 H   0  0  0  0  0  0  0  0  0  0  0  0
   -7.6459   12.5314  -13.5218 H   0  0  0  0  0  0  0  0  0  0  0  0
   -6.1429   11.5918  -13.8126 H   0  0  0  0  0  0  0  0  0  0  0  0
   -8.1751   11.2060  -10.4447 H   0  0  0  0  0  0  0  0  0  0  0  0
   -8.0269    9.5780   -7.2478 H   0  0  0  0  0  0  0  0  0  0  0  0
   -6.7507   12.3156   -6.9255 H   0  0  0  0  0  0  0  0  0  0  0  0
   -4.5132   13.2816   -6.4664 H   0  0  0  0  0  0  0  0  0  0  0  0
   -2.6683    9.7485   -8.0357 H   0  0  0  0  0  0  0  0  0  0  0  0
   -4.9092    8.7863   -8.4943 H   0  0  0  0  0  0  0  0  0  0  0  0
   -2.4090   14.2148   -6.1776 H   0  0  0  0  0  0  0  0  0  0  0  0
   -0.6475   10.5464   -7.5511 H   0  0  0  0  0  0  0  0  0  0  0  0
    1.4812   14.2962   -6.0855 H   0  0  0  0  0  0  0  0  0  0  0  0
    0.2196   15.4369   -6.6628 H   0  0  0  0  0  0  0  0  0  0  0  0
    0.1886   14.8468   -4.9665 H   0  0  0  0  0  0  0  0  0  0  0  0
   -5.2882   14.1185  -10.2095 H   0  0  0  0  0  0  0  0  0  0  0  0
   -4.0431   13.0269  -10.9057 H   0  0  0  0  0  0  0  0  0  0  0  0
   -3.9735   15.4217  -12.4385 H   0  0  0  0  0  0  0  0  0  0  0  0
   -4.0914   15.9235  -10.7178 H   0  0  0  0  0  0  0  0  0  0  0  0
   -1.9457   13.7098   -8.5138 H   0  0  0  0  0  0  0  0  0  0  0  0
   -0.0034   13.9020   -9.0723 H   0  0  0  0  0  0  0  0  0  0  0  0
    0.0984   13.7264  -10.8570 H   0  0  0  0  0  0  0  0  0  0  0  0
    0.1408   15.3601  -10.1114 H   0  0  0  0  0  0  0  0  0  0  0  0
  1  2  1  0  0  0  0
  1  4  1  0  0  0  0
  1 11  2  0  0  0  0
  2  6  1  0  0  0  0
  3  4  1  0  0  0  0
  3  5  2  0  0  0  0
  5  6  1  0  0  0  0
  5  9  1  0  0  0  0
  6  7  1  0  0  0  0
  7  8  1  0  0  0  0
  7 10  2  3  0  0  0
  8  9  2  0  0  0  0
 10 12  1  0  0  0  0
 11 24  1  0  0  0  0
 12 13  2  0  0  0  0
 12 17  1  0  0  0  0
 13 14  1  0  0  0  0
 14 15  2  0  0  0  0
 15 16  1  0  0  0  0
 15 18  1  0  0  0  0
 16 17  2  0  0  0  0
 18 19  2  0  0  0  0
 18 22  1  0  0  0  0
 19 20  1  0  0  0  0
 20 21  1  0  0  0  0
 20 23  1  0  0  0  0
 21 22  2  0  0  0  0
 24 25  1  0  0  0  0
 25 26  1  0  0  0  0
 26 27  2  0  0  0  0
 27 28  1  0  0  0  0
 27 29  1  0  0  0  0
  2 30  1  0  0  0  0
  2 31  1  0  0  0  0
  3 32  1  0  0  0  0
  4 33  1  0  0  0  0
  4 34  1  0  0  0  0
  6 35  1  0  0  0  0
 10 36  1  0  0  0  0
 13 37  1  0  0  0  0
 14 38  1  0  0  0  0
 16 39  1  0  0  0  0
 17 40  1  0  0  0  0
 19 41  1  0  0  0  0
 22 42  1  0  0  0  0
 23 43  1  0  0  0  0
 23 44  1  0  0  0  0
 23 45  1  0  0  0  0
 24 46  1  0  0  0  0
 24 47  1  0  0  0  0
 25 48  1  0  0  0  0
 25 49  1  0  0  0  0
 28 50  1  0  0  0  0
 29 51  1  0  0  0  0
 29 52  1  0  0  0  0
 29 53  1  0  0  0  0
M  END
> <Name>
27

> <IC50[uM]>
0.68

$$$$
27
  -OEChem-05192314333D
 Structure written by MMmdl.
 53 56  0     0  0  0  0  0  0999 V2000
   -6.3855   12.3606  -12.0031 C   0  0  0  0  0  0  0  0  0  0  0  0
   -6.5214   11.8004  -10.7171 C   0  0  0  0  0  0  0  0  0  0  0  0
   -7.6991   10.5797  -13.0384 C   0  0  0  0  0  0  0  0  0  0  0  0
   -6.9626   11.7779  -13.1031 C   0  0  0  0  0  0  0  0  0  0  0  0
   -7.8238   10.0198  -11.7523 C   0  0  0  0  0  0  0  0  0  0  0  0
   -7.2557   10.6213  -10.5956 C   0  0  0  0  0  0  0  0  0  0  0  0
   -7.6268    9.7501   -9.5073 C   0  0  0  0  0  0  0  0  0  0  0  0
   -8.3057    8.7491   -9.9816 N   0  0  0  0  0  0  0  0  0  0  0  0
   -8.4330    8.8776  -11.2917 N   0  0  0  0  0  0  0  0  0  0  0  0
   -7.3352    9.8817   -8.0196 C   0  0  0  0  0  0  0  0  0  0  0  0
   -5.6205   13.5372  -12.2095 N   0  0  0  0  0  0  0  0  0  0  0  0
   -5.9727   10.4835   -7.7324 C   0  0  0  0  0  0  0  0  0  0  0  0
   -5.8611   11.7523   -7.1657 C   0  0  0  0  0  0  0  0  0  0  0  0
   -4.5946   12.2988   -6.9068 C   0  0  0  0  0  0  0  0  0  0  0  0
   -3.4432   11.5806   -7.2147 C   0  0  0  0  0  0  0  0  0  0  0  0
   -3.5570   10.3109   -7.7899 C   0  0  0  0  0  0  0  0  0  0  0  0
   -4.8253    9.7663   -8.0483 C   0  0  0  0  0  0  0  0  0  0  0  0
   -2.0926   12.1556   -6.9444 C   0  0  0  0  0  0  0  0  0  0  0  0
   -1.7338   13.4204   -6.4594 C   0  0  0  0  0  0  0  0  0  0  0  0
   -0.4064   13.4584   -6.4114 N   0  0  0  0  0  0  0  0  0  0  0  0
    0.1793   12.3493   -6.7865 N   0  0  0  0  0  0  0  0  0  0  0  0
   -0.7954   11.5387   -7.1512 C   0  0  0  0  0  0  0  0  0  0  0  0
    0.4205   14.5767   -6.0073 C   0  0  0  0  0  0  0  0  0  0  0  0
   -4.6894   13.8945  -11.1046 C   0  0  0  0  0  0  0  0  0  0  0  0
   -3.7822   15.1171  -11.3990 C   0  0  0  0  0  0  0  0  0  0  0  0
   -2.3310   14.9579  -11.2532 N   0  0  0  0  0  0  0  0  0  0  0  0
   -1.8099   14.4326  -10.1320 C   0  0  0  0  0  0  0  0  0  0  0  0
   -2.5019   14.0442   -9.2076 O   0  0  0  0  0  0  0  0  0  0  0  0
   -0.2869   14.3494  -10.0364 C   0  0  0  0  0  0  0  0  0  0  0  0
   -5.5086   11.5965  -10.3394 H   0  0  0  0  0  0  0  0  0  0  0  0
   -7.0053   12.5553  -10.0799 H   0  0  0  0  0  0  0  0  0  0  0  0
   -8.7105   10.7812  -13.4211 H   0  0  0  0  0  0  0  0  0  0  0  0
   -7.2031    9.8404  -13.6845 H   0  0  0  0  0  0  0  0  0  0  0  0
   -7.6459   12.5314  -13.5218 H   0  0  0  0  0  0  0  0  0  0  0  0
   -6.1429   11.5918  -13.8126 H   0  0  0  0  0  0  0  0  0  0  0  0
   -8.0269    9.5780   -7.2478 H   0  0  0  0  0  0  0  0  0  0  0  0
   -6.7507   12.3156   -6.9255 H   0  0  0  0  0  0  0  0  0  0  0  0
   -4.5132   13.2816   -6.4664 H   0  0  0  0  0  0  0  0  0  0  0  0
   -2.6683    9.7485   -8.0357 H   0  0  0  0  0  0  0  0  0  0  0  0
   -4.9092    8.7863   -8.4943 H   0  0  0  0  0  0  0  0  0  0  0  0
   -2.4090   14.2148   -6.1776 H   0  0  0  0  0  0  0  0  0  0  0  0
   -0.6475   10.5464   -7.5511 H   0  0  0  0  0  0  0  0  0  0  0  0
    1.4812   14.2962   -6.0855 H   0  0  0  0  0  0  0  0  0  0  0  0
    0.2196   15.4369   -6.6628 H   0  0  0  0  0  0  0  0  0  0  0  0
    0.1886   14.8468   -4.9665 H   0  0  0  0  0  0  0  0  0  0  0  0
   -5.2882   14.1185  -10.2095 H   0  0  0  0  0  0  0  0  0  0  0  0
   -4.0431   13.0269  -10.9057 H   0  0  0  0  0  0  0  0  0  0  0  0
   -3.9735   15.4217  -12.4385 H   0  0  0  0  0  0  0  0  0  0  0  0
   -4.0914   15.9235  -10.7178 H   0  0  0  0  0  0  0  0  0  0  0  0
   -1.9457   13.7098   -8.5138 H   0  0  0  0  0  0  0  0  0  0  0  0
   -0.0034   13.9020   -9.0723 H   0  0  0  0  0  0  0  0  0  0  0  0
    0.0984   13.7264  -10.8570 H   0  0  0  0  0  0  0  0  0  0  0  0
    0.1408   15.3601  -10.1114 H   0  0  0  0  0  0  0  0  0  0  0  0
  1  2  1  0  0  0  0
  1  4  1  0  0  0  0
  1 11  2  0  0  0  0
  2  6  1  0  0  0  0
  3  4  1  0  0  0  0
  3  5  1  0  0  0  0
  5  6  2  0  0  0  0
  5  9  1  0  0  0  0
  6  7  1  0  0  0  0
  7  8  1  0  0  0  0
  7 10  2  3  0  0  0
  8  9  2  0  0  0  0
 10 12  1  0  0  0  0
 11 24  1  0  0  0  0
 12 13  2  0  0  0  0
 12 17  1  0  0  0  0
 13 14  1  0  0  0  0
 14 15  2  0  0  0  0
 15 16  1  0  0  0  0
 15 18  1  0  0  0  0
 16 17  2  0  0  0  0
 18 19  2  0  0  0  0
 18 22  1  0  0  0  0
 19 20  1  0  0  0  0
 20 21  1  0  0  0  0
 20 23  1  0  0  0  0
 21 22  2  0  0  0  0
 24 25  1  0  0  0  0
 25 26  1  0  0  0  0
 26 27  2  0  0  0  0
 27 28  1  0  0  0  0
 27 29  1  0  0  0  0
  2 30  1  0  0  0  0
  2 31  1  0  0  0  0
  3 32  1  0  0  0  0
  3 33  1  0  0  0  0
  4 34  1  0  0  0  0
  4 35  1  0  0  0  0
 10 36  1  0  0  0  0
 13 37  1  0  0  0  0
 14 38  1  0  0  0  0
 16 39  1  0  0  0  0
 17 40  1  0  0  0  0
 19 41  1  0  0  0  0
 22 42  1  0  0  0  0
 23 43  1  0  0  0  0
 23 44  1  0  0  0  0
 23 45  1  0  0  0  0
 24 46  1  0  0  0  0
 24 47  1  0  0  0  0
 25 48  1  0  0  0  0
 25 49  1  0  0  0  0
 28 50  1  0  0  0  0
 29 51  1  0  0  0  0
 29 52  1  0  0  0  0
 29 53  1  0  0  0  0
M  END
> <Name>
27

> <IC50[uM]>
0.68

$$$$
27
  -OEChem-05192314333D
 Structure written by MMmdl.
 53 56  0     1  0  0  0  0  0999 V2000
   -6.3855   12.3606  -12.0031 C   0  0  0  0  0  0  0  0  0  0  0  0
   -6.5214   11.8004  -10.7171 C   0  0  0  0  0  0  0  0  0  0  0  0
   -7.6991   10.5797  -13.0384 C   0  0  0  0  0  0  0  0  0  0  0  0
   -6.9626   11.7779  -13.1031 C   0  0  0  0  0  0  0  0  0  0  0  0
   -7.8238   10.0198  -11.7523 C   0  0  3  0  0  0  0  0  0  0  0  0
   -7.2557   10.6213  -10.5956 C   0  0  0  0  0  0  0  0  0  0  0  0
   -7.6268    9.7501   -9.5073 C   0  0  3  0  0  0  0  0  0  0  0  0
   -8.3057    8.7491   -9.9816 N   0  0  0  0  0  0  0  0  0  0  0  0
   -8.4330    8.8776  -11.2917 N   0  0  0  0  0  0  0  0  0  0  0  0
   -7.3352    9.8817   -8.0196 C   0  0  0  0  0  0  0  0  0  0  0  0
   -5.6205   13.5372  -12.2095 N   0  0  0  0  0  0  0  0  0  0  0  0
   -5.9727   10.4835   -7.7324 C   0  0  0  0  0  0  0  0  0  0  0  0
   -5.8611   11.7523   -7.1657 C   0  0  0  0  0  0  0  0  0  0  0  0
   -4.5946   12.2988   -6.9068 C   0  0  0  0  0  0  0  0  0  0  0  0
   -3.4432   11.5806   -7.2147 C   0  0  0  0  0  0  0  0  0  0  0  0
   -3.5570   10.3109   -7.7899 C   0  0  0  0  0  0  0  0  0  0  0  0
   -4.8253    9.7663   -8.0483 C   0  0  0  0  0  0  0  0  0  0  0  0
   -2.0926   12.1556   -6.9444 C   0  0  0  0  0  0  0  0  0  0  0  0
   -1.7338   13.4204   -6.4594 C   0  0  0  0  0  0  0  0  0  0  0  0
   -0.4064   13.4584   -6.4114 N   0  0  0  0  0  0  0  0  0  0  0  0
    0.1793   12.3493   -6.7865 N   0  0  0  0  0  0  0  0  0  0  0  0
   -0.7954   11.5387   -7.1512 C   0  0  0  0  0  0  0  0  0  0  0  0
    0.4205   14.5767   -6.0073 C   0  0  0  0  0  0  0  0  0  0  0  0
   -4.6894   13.8945  -11.1046 C   0  0  0  0  0  0  0  0  0  0  0  0
   -3.7822   15.1171  -11.3990 C   0  0  0  0  0  0  0  0  0  0  0  0
   -2.3310   14.9579  -11.2532 N   0  0  0  0  0  0  0  0  0  0  0  0
   -1.8099   14.4326  -10.1320 C   0  0  0  0  0  0  0  0  0  0  0  0
   -2.5019   14.0442   -9.2076 O   0  0  0  0  0  0  0  0  0  0  0  0
   -0.2869   14.3494  -10.0364 C   0  0  0  0  0  0  0  0  0  0  0  0
   -6.0716   12.2689   -9.8542 H   0  0  0  0  0  0  0  0  0  0  0  0
   -8.1374   10.1224  -13.9131 H   0  0  0  0  0  0  0  0  0  0  0  0
   -6.8466   12.2604  -14.0624 H   0  0  0  0  0  0  0  0  0  0  0  0
   -8.7543   10.5845  -11.5930 H   0  0  0  0  0  0  0  0  0  0  0  0
   -6.6939    9.1829   -9.6414 H   0  0  0  0  0  0  0  0  0  0  0  0
   -8.1046   10.5248   -7.5674 H   0  0  0  0  0  0  0  0  0  0  0  0
   -7.3794    8.8814   -7.5641 H   0  0  0  0  0  0  0  0  0  0  0  0
   -6.7507   12.3156   -6.9255 H   0  0  0  0  0  0  0  0  0  0  0  0
   -4.5132   13.2816   -6.4664 H   0  0  0  0  0  0  0  0  0  0  0  0
   -2.6683    9.7485   -8.0357 H   0  0  0  0  0  0  0  0  0  0  0  0
   -4.9092    8.7863   -8.4943 H   0  0  0  0  0  0  0  0  0  0  0  0
   -2.4090   14.2148   -6.1776 H   0  0  0  0  0  0  0  0  0  0  0  0
   -0.6475   10.5464   -7.5511 H   0  0  0  0  0  0  0  0  0  0  0  0
    1.4812   14.2962   -6.0855 H   0  0  0  0  0  0  0  0  0  0  0  0
    0.2196   15.4369   -6.6628 H   0  0  0  0  0  0  0  0  0  0  0  0
    0.1886   14.8468   -4.9665 H   0  0  0  0  0  0  0  0  0  0  0  0
   -5.2882   14.1185  -10.2095 H   0  0  0  0  0  0  0  0  0  0  0  0
   -4.0431   13.0269  -10.9057 H   0  0  0  0  0  0  0  0  0  0  0  0
   -3.9735   15.4217  -12.4385 H   0  0  0  0  0  0  0  0  0  0  0  0
   -4.0914   15.9235  -10.7178 H   0  0  0  0  0  0  0  0  0  0  0  0
   -1.9457   13.7098   -8.5138 H   0  0  0  0  0  0  0  0  0  0  0  0
   -0.0034   13.9020   -9.0723 H   0  0  0  0  0  0  0  0  0  0  0  0
    0.0984   13.7264  -10.8570 H   0  0  0  0  0  0  0  0  0  0  0  0
    0.1408   15.3601  -10.1114 H   0  0  0  0  0  0  0  0  0  0  0  0
  1  2  1  0  0  0  0
  1  4  1  0  0  0  0
  1 11  2  0  0  0  0
  2  6  2  0  0  0  0
  3  4  2  0  0  0  0
  3  5  1  0  0  0  0
  5  6  1  0  0  0  0
  5  9  1  0  0  0  0
  6  7  1  0  0  0  0
  7  8  1  0  0  0  0
  7 10  1  0  0  0  0
  8  9  2  0  0  0  0
 10 12  1  0  0  0  0
 11 24  1  0  0  0  0
 12 13  2  0  0  0  0
 12 17  1  0  0  0  0
 13 14  1  0  0  0  0
 14 15  2  0  0  0  0
 15 16  1  0  0  0  0
 15 18  1  0  0  0  0
 16 17  2  0  0  0  0
 18 19  2  0  0  0  0
 18 22  1  0  0  0  0
 19 20  1  0  0  0  0
 20 21  1  0  0  0  0
 20 23  1  0  0  0  0
 21 22  2  0  0  0  0
 24 25  1  0  0  0  0
 25 26  1  0  0  0  0
 26 27  2  0  0  0  0
 27 28  1  0  0  0  0
 27 29  1  0  0  0  0
  2 30  1  0  0  0  0
  3 31  1  0  0  0  0
  4 32  1  0  0  0  0
  5 33  1  0  0  0  0
  7 34  1  0  0  0  0
 10 35  1  0  0  0  0
 10 36  1  0  0  0  0
 13 37  1  0  0  0  0
 14 38  1  0  0  0  0
 16 39  1  0  0  0  0
 17 40  1  0  0  0  0
 19 41  1  0  0  0  0
 22 42  1  0  0  0  0
 23 43  1  0  0  0  0
 23 44  1  0  0  0  0
 23 45  1  0  0  0  0
 24 46  1  0  0  0  0
 24 47  1  0  0  0  0
 25 48  1  0  0  0  0
 25 49  1  0  0  0  0
 28 50  1  0  0  0  0
 29 51  1  0  0  0  0
 29 52  1  0  0  0  0
 29 53  1  0  0  0  0
M  END
> <Name>
27

> <IC50[uM]>
0.68

$$$$
27
  -OEChem-05192314333D
 Structure written by MMmdl.
 53 56  0     1  0  0  0  0  0999 V2000
   -6.3855   12.3606  -12.0031 C   0  0  0  0  0  0  0  0  0  0  0  0
   -6.5214   11.8004  -10.7171 C   0  0  0  0  0  0  0  0  0  0  0  0
   -7.6991   10.5797  -13.0384 C   0  0  0  0  0  0  0  0  0  0  0  0
   -6.9626   11.7779  -13.1031 C   0  0  0  0  0  0  0  0  0  0  0  0
   -7.8238   10.0198  -11.7523 C   0  0  0  0  0  0  0  0  0  0  0  0
   -7.2557   10.6213  -10.5956 C   0  0  0  0  0  0  0  0  0  0  0  0
   -7.6268    9.7501   -9.5073 C   0  0  3  0  0  0  0  0  0  0  0  0
   -8.3057    8.7491   -9.9816 N   0  0  0  0  0  0  0  0  0  0  0  0
   -8.4330    8.8776  -11.2917 N   0  0  0  0  0  0  0  0  0  0  0  0
   -7.3352    9.8817   -8.0196 C   0  0  0  0  0  0  0  0  0  0  0  0
   -5.6205   13.5372  -12.2095 N   0  0  0  0  0  0  0  0  0  0  0  0
   -5.9727   10.4835   -7.7324 C   0  0  0  0  0  0  0  0  0  0  0  0
   -5.8611   11.7523   -7.1657 C   0  0  0  0  0  0  0  0  0  0  0  0
   -4.5946   12.2988   -6.9068 C   0  0  0  0  0  0  0  0  0  0  0  0
   -3.4432   11.5806   -7.2147 C   0  0  0  0  0  0  0  0  0  0  0  0
   -3.5570   10.3109   -7.7899 C   0  0  0  0  0  0  0  0  0  0  0  0
   -4.8253    9.7663   -8.0483 C   0  0  0  0  0  0  0  0  0  0  0  0
   -2.0926   12.1556   -6.9444 C   0  0  0  0  0  0  0  0  0  0  0  0
   -1.7338   13.4204   -6.4594 C   0  0  0  0  0  0  0  0  0  0  0  0
   -0.4064   13.4584   -6.4114 N   0  0  0  0  0  0  0  0  0  0  0  0
    0.1793   12.3493   -6.7865 N   0  0  0  0  0  0  0  0  0  0  0  0
   -0.7954   11.5387   -7.1512 C   0  0  0  0  0  0  0  0  0  0  0  0
    0.4205   14.5767   -6.0073 C   0  0  0  0  0  0  0  0  0  0  0  0
   -4.6894   13.8945  -11.1046 C   0  0  0  0  0  0  0  0  0  0  0  0
   -3.7822   15.1171  -11.3990 C   0  0  0  0  0  0  0  0  0  0  0  0
   -2.3310   14.9579  -11.2532 N   0  0  0  0  0  0  0  0  0  0  0  0
   -1.8099   14.4326  -10.1320 C   0  0  0  0  0  0  0  0  0  0  0  0
   -2.5019   14.0442   -9.2076 O   0  0  0  0  0  0  0  0  0  0  0  0
   -0.2869   14.3494  -10.0364 C   0  0  0  0  0  0  0  0  0  0  0  0
   -6.0716   12.2689   -9.8542 H   0  0  0  0  0  0  0  0  0  0  0  0
   -8.1374   10.1224  -13.9131 H   0  0  0  0  0  0  0  0  0  0  0  0
   -7.6459   12.5314  -13.5218 H   0  0  0  0  0  0  0  0  0  0  0  0
   -6.1429   11.5918  -13.8126 H   0  0  0  0  0  0  0  0  0  0  0  0
   -6.6939    9.1829   -9.6414 H   0  0  0  0  0  0  0  0  0  0  0  0
   -8.1046   10.5248   -7.5674 H   0  0  0  0  0  0  0  0  0  0  0  0
   -7.3794    8.8814   -7.5641 H   0  0  0  0  0  0  0  0  0  0  0  0
   -6.7507   12.3156   -6.9255 H   0  0  0  0  0  0  0  0  0  0  0  0
   -4.5132   13.2816   -6.4664 H   0  0  0  0  0  0  0  0  0  0  0  0
   -2.6683    9.7485   -8.0357 H   0  0  0  0  0  0  0  0  0  0  0  0
   -4.9092    8.7863   -8.4943 H   0  0  0  0  0  0  0  0  0  0  0  0
   -2.4090   14.2148   -6.1776 H   0  0  0  0  0  0  0  0  0  0  0  0
   -0.6475   10.5464   -7.5511 H   0  0  0  0  0  0  0  0  0  0  0  0
    1.4812   14.2962   -6.0855 H   0  0  0  0  0  0  0  0  0  0  0  0
    0.2196   15.4369   -6.6628 H   0  0  0  0  0  0  0  0  0  0  0  0
    0.1886   14.8468   -4.9665 H   0  0  0  0  0  0  0  0  0  0  0  0
   -5.2882   14.1185  -10.2095 H   0  0  0  0  0  0  0  0  0  0  0  0
   -4.0431   13.0269  -10.9057 H   0  0  0  0  0  0  0  0  0  0  0  0
   -3.9735   15.4217  -12.4385 H   0  0  0  0  0  0  0  0  0  0  0  0
   -4.0914   15.9235  -10.7178 H   0  0  0  0  0  0  0  0  0  0  0  0
   -1.9457   13.7098   -8.5138 H   0  0  0  0  0  0  0  0  0  0  0  0
   -0.0034   13.9020   -9.0723 H   0  0  0  0  0  0  0  0  0  0  0  0
    0.0984   13.7264  -10.8570 H   0  0  0  0  0  0  0  0  0  0  0  0
    0.1408   15.3601  -10.1114 H   0  0  0  0  0  0  0  0  0  0  0  0
  1  2  1  0  0  0  0
  1  4  1  0  0  0  0
  1 11  2  0  0  0  0
  2  6  2  0  0  0  0
  3  4  1  0  0  0  0
  3  5  2  0  0  0  0
  5  6  1  0  0  0  0
  5  9  1  0  0  0  0
  6  7  1  0  0  0  0
  7  8  1  0  0  0  0
  7 10  1  0  0  0  0
  8  9  2  0  0  0  0
 10 12  1  0  0  0  0
 11 24  1  0  0  0  0
 12 13  2  0  0  0  0
 12 17  1  0  0  0  0
 13 14  1  0  0  0  0
 14 15  2  0  0  0  0
 15 16  1  0  0  0  0
 15 18  1  0  0  0  0
 16 17  2  0  0  0  0
 18 19  2  0  0  0  0
 18 22  1  0  0  0  0
 19 20  1  0  0  0  0
 20 21  1  0  0  0  0
 20 23  1  0  0  0  0
 21 22  2  0  0  0  0
 24 25  1  0  0  0  0
 25 26  1  0  0  0  0
 26 27  2  0  0  0  0
 27 28  1  0  0  0  0
 27 29  1  0  0  0  0
  2 30  1  0  0  0  0
  3 31  1  0  0  0  0
  4 32  1  0  0  0  0
  4 33  1  0  0  0  0
  7 34  1  0  0  0  0
 10 35  1  0  0  0  0
 10 36  1  0  0  0  0
 13 37  1  0  0  0  0
 14 38  1  0  0  0  0
 16 39  1  0  0  0  0
 17 40  1  0  0  0  0
 19 41  1  0  0  0  0
 22 42  1  0  0  0  0
 23 43  1  0  0  0  0
 23 44  1  0  0  0  0
 23 45  1  0  0  0  0
 24 46  1  0  0  0  0
 24 47  1  0  0  0  0
 25 48  1  0  0  0  0
 25 49  1  0  0  0  0
 28 50  1  0  0  0  0
 29 51  1  0  0  0  0
 29 52  1  0  0  0  0
 29 53  1  0  0  0  0
M  END
> <Name>
27

> <IC50[uM]>
0.68

$$$$
27
  -OEChem-05192314333D
 Structure written by MMmdl.
 53 56  0     1  0  0  0  0  0999 V2000
   -6.3855   12.3606  -12.0031 C   0  0  0  0  0  0  0  0  0  0  0  0
   -6.5214   11.8004  -10.7171 C   0  0  0  0  0  0  0  0  0  0  0  0
   -7.6991   10.5797  -13.0384 C   0  0  0  0  0  0  0  0  0  0  0  0
   -6.9626   11.7779  -13.1031 C   0  0  0  0  0  0  0  0  0  0  0  0
   -7.8238   10.0198  -11.7523 C   0  0  0  0  0  0  0  0  0  0  0  0
   -7.2557   10.6213  -10.5956 C   0  0  0  0  0  0  0  0  0  0  0  0
   -7.6268    9.7501   -9.5073 C   0  0  3  0  0  0  0  0  0  0  0  0
   -8.3057    8.7491   -9.9816 N   0  0  0  0  0  0  0  0  0  0  0  0
   -8.4330    8.8776  -11.2917 N   0  0  0  0  0  0  0  0  0  0  0  0
   -7.3352    9.8817   -8.0196 C   0  0  0  0  0  0  0  0  0  0  0  0
   -5.6205   13.5372  -12.2095 N   0  0  0  0  0  0  0  0  0  0  0  0
   -5.9727   10.4835   -7.7324 C   0  0  0  0  0  0  0  0  0  0  0  0
   -5.8611   11.7523   -7.1657 C   0  0  0  0  0  0  0  0  0  0  0  0
   -4.5946   12.2988   -6.9068 C   0  0  0  0  0  0  0  0  0  0  0  0
   -3.4432   11.5806   -7.2147 C   0  0  0  0  0  0  0  0  0  0  0  0
   -3.5570   10.3109   -7.7899 C   0  0  0  0  0  0  0  0  0  0  0  0
   -4.8253    9.7663   -8.0483 C   0  0  0  0  0  0  0  0  0  0  0  0
   -2.0926   12.1556   -6.9444 C   0  0  0  0  0  0  0  0  0  0  0  0
   -1.7338   13.4204   -6.4594 C   0  0  0  0  0  0  0  0  0  0  0  0
   -0.4064   13.4584   -6.4114 N   0  0  0  0  0  0  0  0  0  0  0  0
    0.1793   12.3493   -6.7865 N   0  0  0  0  0  0  0  0  0  0  0  0
   -0.7954   11.5387   -7.1512 C   0  0  0  0  0  0  0  0  0  0  0  0
    0.4205   14.5767   -6.0073 C   0  0  0  0  0  0  0  0  0  0  0  0
   -4.6894   13.8945  -11.1046 C   0  0  0  0  0  0  0  0  0  0  0  0
   -3.7822   15.1171  -11.3990 C   0  0  0  0  0  0  0  0  0  0  0  0
   -2.3310   14.9579  -11.2532 N   0  0  0  0  0  0  0  0  0  0  0  0
   -1.8099   14.4326  -10.1320 C   0  0  0  0  0  0  0  0  0  0  0  0
   -2.5019   14.0442   -9.2076 O   0  0  0  0  0  0  0  0  0  0  0  0
   -0.2869   14.3494  -10.0364 C   0  0  0  0  0  0  0  0  0  0  0  0
   -5.5086   11.5965  -10.3394 H   0  0  0  0  0  0  0  0  0  0  0  0
   -7.0053   12.5553  -10.0799 H   0  0  0  0  0  0  0  0  0  0  0  0
   -8.1374   10.1224  -13.9131 H   0  0  0  0  0  0  0  0  0  0  0  0
   -6.8466   12.2604  -14.0624 H   0  0  0  0  0  0  0  0  0  0  0  0
   -6.6939    9.1829   -9.6414 H   0  0  0  0  0  0  0  0  0  0  0  0
   -8.1046   10.5248   -7.5674 H   0  0  0  0  0  0  0  0  0  0  0  0
   -7.3794    8.8814   -7.5641 H   0  0  0  0  0  0  0  0  0  0  0  0
   -6.7507   12.3156   -6.9255 H   0  0  0  0  0  0  0  0  0  0  0  0
   -4.5132   13.2816   -6.4664 H   0  0  0  0  0  0  0  0  0  0  0  0
   -2.6683    9.7485   -8.0357 H   0  0  0  0  0  0  0  0  0  0  0  0
   -4.9092    8.7863   -8.4943 H   0  0  0  0  0  0  0  0  0  0  0  0
   -2.4090   14.2148   -6.1776 H   0  0  0  0  0  0  0  0  0  0  0  0
   -0.6475   10.5464   -7.5511 H   0  0  0  0  0  0  0  0  0  0  0  0
    1.4812   14.2962   -6.0855 H   0  0  0  0  0  0  0  0  0  0  0  0
    0.2196   15.4369   -6.6628 H   0  0  0  0  0  0  0  0  0  0  0  0
    0.1886   14.8468   -4.9665 H   0  0  0  0  0  0  0  0  0  0  0  0
   -5.2882   14.1185  -10.2095 H   0  0  0  0  0  0  0  0  0  0  0  0
   -4.0431   13.0269  -10.9057 H   0  0  0  0  0  0  0  0  0  0  0  0
   -3.9735   15.4217  -12.4385 H   0  0  0  0  0  0  0  0  0  0  0  0
   -4.0914   15.9235  -10.7178 H   0  0  0  0  0  0  0  0  0  0  0  0
   -1.9457   13.7098   -8.5138 H   0  0  0  0  0  0  0  0  0  0  0  0
   -0.0034   13.9020   -9.0723 H   0  0  0  0  0  0  0  0  0  0  0  0
    0.0984   13.7264  -10.8570 H   0  0  0  0  0  0  0  0  0  0  0  0
    0.1408   15.3601  -10.1114 H   0  0  0  0  0  0  0  0  0  0  0  0
  1  2  1  0  0  0  0
  1  4  1  0  0  0  0
  1 11  2  0  0  0  0
  2  6  1  0  0  0  0
  3  4  2  0  0  0  0
  3  5  1  0  0  0  0
  5  6  2  0  0  0  0
  5  9  1  0  0  0  0
  6  7  1  0  0  0  0
  7  8  1  0  0  0  0
  7 10  1  0  0  0  0
  8  9  2  0  0  0  0
 10 12  1  0  0  0  0
 11 24  1  0  0  0  0
 12 13  2  0  0  0  0
 12 17  1  0  0  0  0
 13 14  1  0  0  0  0
 14 15  2  0  0  0  0
 15 16  1  0  0  0  0
 15 18  1  0  0  0  0
 16 17  2  0  0  0  0
 18 19  2  0  0  0  0
 18 22  1  0  0  0  0
 19 20  1  0  0  0  0
 20 21  1  0  0  0  0
 20 23  1  0  0  0  0
 21 22  2  0  0  0  0
 24 25  1  0  0  0  0
 25 26  1  0  0  0  0
 26 27  2  0  0  0  0
 27 28  1  0  0  0  0
 27 29  1  0  0  0  0
  2 30  1  0  0  0  0
  2 31  1  0  0  0  0
  3 32  1  0  0  0  0
  4 33  1  0  0  0  0
  7 34  1  0  0  0  0
 10 35  1  0  0  0  0
 10 36  1  0  0  0  0
 13 37  1  0  0  0  0
 14 38  1  0  0  0  0
 16 39  1  0  0  0  0
 17 40  1  0  0  0  0
 19 41  1  0  0  0  0
 22 42  1  0  0  0  0
 23 43  1  0  0  0  0
 23 44  1  0  0  0  0
 23 45  1  0  0  0  0
 24 46  1  0  0  0  0
 24 47  1  0  0  0  0
 25 48  1  0  0  0  0
 25 49  1  0  0  0  0
 28 50  1  0  0  0  0
 29 51  1  0  0  0  0
 29 52  1  0  0  0  0
 29 53  1  0  0  0  0
M  END
> <Name>
27

> <IC50[uM]>
0.68

$$$$
27
  -OEChem-05192314333D
 Structure written by MMmdl.
 53 56  0     1  0  0  0  0  0999 V2000
   -6.3855   12.3606  -12.0031 C   0  0  0  0  0  0  0  0  0  0  0  0
   -6.5214   11.8004  -10.7171 C   0  0  0  0  0  0  0  0  0  0  0  0
   -7.6991   10.5797  -13.0384 C   0  0  0  0  0  0  0  0  0  0  0  0
   -6.9626   11.7779  -13.1031 C   0  0  0  0  0  0  0  0  0  0  0  0
   -7.8238   10.0198  -11.7523 C   0  0  3  0  0  0  0  0  0  0  0  0
   -7.2557   10.6213  -10.5956 C   0  0  0  0  0  0  0  0  0  0  0  0
   -7.6268    9.7501   -9.5073 C   0  0  0  0  0  0  0  0  0  0  0  0
   -8.3057    8.7491   -9.9816 N   0  0  0  0  0  0  0  0  0  0  0  0
   -8.4330    8.8776  -11.2917 N   0  0  0  0  0  0  0  0  0  0  0  0
   -7.3352    9.8817   -8.0196 C   0  0  0  0  0  0  0  0  0  0  0  0
   -5.6205   13.5372  -12.2095 N   0  0  0  0  0  0  0  0  0  0  0  0
   -5.9727   10.4835   -7.7324 C   0  0  0  0  0  0  0  0  0  0  0  0
   -5.8611   11.7523   -7.1657 C   0  0  0  0  0  0  0  0  0  0  0  0
   -4.5946   12.2988   -6.9068 C   0  0  0  0  0  0  0  0  0  0  0  0
   -3.4432   11.5806   -7.2147 C   0  0  0  0  0  0  0  0  0  0  0  0
   -3.5570   10.3109   -7.7899 C   0  0  0  0  0  0  0  0  0  0  0  0
   -4.8253    9.7663   -8.0483 C   0  0  0  0  0  0  0  0  0  0  0  0
   -2.0926   12.1556   -6.9444 C   0  0  0  0  0  0  0  0  0  0  0  0
   -1.7338   13.4204   -6.4594 C   0  0  0  0  0  0  0  0  0  0  0  0
   -0.4064   13.4584   -6.4114 N   0  0  0  0  0  0  0  0  0  0  0  0
    0.1793   12.3493   -6.7865 N   0  0  0  0  0  0  0  0  0  0  0  0
   -0.7954   11.5387   -7.1512 C   0  0  0  0  0  0  0  0  0  0  0  0
    0.4205   14.5767   -6.0073 C   0  0  0  0  0  0  0  0  0  0  0  0
   -4.6894   13.8945  -11.1046 C   0  0  0  0  0  0  0  0  0  0  0  0
   -3.7822   15.1171  -11.3990 C   0  0  0  0  0  0  0  0  0  0  0  0
   -2.3310   14.9579  -11.2532 N   0  0  0  0  0  0  0  0  0  0  0  0
   -1.8099   14.4326  -10.1320 C   0  0  0  0  0  0  0  0  0  0  0  0
   -2.5019   14.0442   -9.2076 O   0  0  0  0  0  0  0  0  0  0  0  0
   -0.2869   14.3494  -10.0364 C   0  0  0  0  0  0  0  0  0  0  0  0
   -5.5086   11.5965  -10.3394 H   0  0  0  0  0  0  0  0  0  0  0  0
   -7.0053   12.5553  -10.0799 H   0  0  0  0  0  0  0  0  0  0  0  0
   -8.1374   10.1224  -13.9131 H   0  0  0  0  0  0  0  0  0  0  0  0
   -6.8466   12.2604  -14.0624 H   0  0  0  0  0  0  0  0  0  0  0  0
   -8.7543   10.5845  -11.5930 H   0  0  0  0  0  0  0  0  0  0  0  0
   -8.1046   10.5248   -7.5674 H   0  0  0  0  0  0  0  0  0  0  0  0
   -7.3794    8.8814   -7.5641 H   0  0  0  0  0  0  0  0  0  0  0  0
   -6.7507   12.3156   -6.9255 H   0  0  0  0  0  0  0  0  0  0  0  0
   -4.5132   13.2816   -6.4664 H   0  0  0  0  0  0  0  0  0  0  0  0
   -2.6683    9.7485   -8.0357 H   0  0  0  0  0  0  0  0  0  0  0  0
   -4.9092    8.7863   -8.4943 H   0  0  0  0  0  0  0  0  0  0  0  0
   -2.4090   14.2148   -6.1776 H   0  0  0  0  0  0  0  0  0  0  0  0
   -0.6475   10.5464   -7.5511 H   0  0  0  0  0  0  0  0  0  0  0  0
    1.4812   14.2962   -6.0855 H   0  0  0  0  0  0  0  0  0  0  0  0
    0.2196   15.4369   -6.6628 H   0  0  0  0  0  0  0  0  0  0  0  0
    0.1886   14.8468   -4.9665 H   0  0  0  0  0  0  0  0  0  0  0  0
   -5.2882   14.1185  -10.2095 H   0  0  0  0  0  0  0  0  0  0  0  0
   -4.0431   13.0269  -10.9057 H   0  0  0  0  0  0  0  0  0  0  0  0
   -3.9735   15.4217  -12.4385 H   0  0  0  0  0  0  0  0  0  0  0  0
   -4.0914   15.9235  -10.7178 H   0  0  0  0  0  0  0  0  0  0  0  0
   -1.9457   13.7098   -8.5138 H   0  0  0  0  0  0  0  0  0  0  0  0
   -0.0034   13.9020   -9.0723 H   0  0  0  0  0  0  0  0  0  0  0  0
    0.0984   13.7264  -10.8570 H   0  0  0  0  0  0  0  0  0  0  0  0
    0.1408   15.3601  -10.1114 H   0  0  0  0  0  0  0  0  0  0  0  0
  1  2  1  0  0  0  0
  1  4  1  0  0  0  0
  1 11  2  0  0  0  0
  2  6  1  0  0  0  0
  3  4  2  0  0  0  0
  3  5  1  0  0  0  0
  5  6  1  0  0  0  0
  5  9  1  0  0  0  0
  6  7  2  0  0  0  0
  7  8  1  0  0  0  0
  7 10  1  0  0  0  0
  8  9  2  0  0  0  0
 10 12  1  0  0  0  0
 11 24  1  0  0  0  0
 12 13  2  0  0  0  0
 12 17  1  0  0  0  0
 13 14  1  0  0  0  0
 14 15  2  0  0  0  0
 15 16  1  0  0  0  0
 15 18  1  0  0  0  0
 16 17  2  0  0  0  0
 18 19  2  0  0  0  0
 18 22  1  0  0  0  0
 19 20  1  0  0  0  0
 20 21  1  0  0  0  0
 20 23  1  0  0  0  0
 21 22  2  0  0  0  0
 24 25  1  0  0  0  0
 25 26  1  0  0  0  0
 26 27  2  0  0  0  0
 27 28  1  0  0  0  0
 27 29  1  0  0  0  0
  2 30  1  0  0  0  0
  2 31  1  0  0  0  0
  3 32  1  0  0  0  0
  4 33  1  0  0  0  0
  5 34  1  0  0  0  0
 10 35  1  0  0  0  0
 10 36  1  0  0  0  0
 13 37  1  0  0  0  0
 14 38  1  0  0  0  0
 16 39  1  0  0  0  0
 17 40  1  0  0  0  0
 19 41  1  0  0  0  0
 22 42  1  0  0  0  0
 23 43  1  0  0  0  0
 23 44  1  0  0  0  0
 23 45  1  0  0  0  0
 24 46  1  0  0  0  0
 24 47  1  0  0  0  0
 25 48  1  0  0  0  0
 25 49  1  0  0  0  0
 28 50  1  0  0  0  0
 29 51  1  0  0  0  0
 29 52  1  0  0  0  0
 29 53  1  0  0  0  0
M  END
> <Name>
27

> <IC50[uM]>
0.68

$$$$
27
  -OEChem-05192314333D
 Structure written by MMmdl.
 53 56  0     0  0  0  0  0  0999 V2000
   -6.3855   12.3606  -12.0031 C   0  0  0  0  0  0  0  0  0  0  0  0
   -6.5214   11.8004  -10.7171 C   0  0  0  0  0  0  0  0  0  0  0  0
   -7.6991   10.5797  -13.0384 C   0  0  0  0  0  0  0  0  0  0  0  0
   -6.9626   11.7779  -13.1031 C   0  0  0  0  0  0  0  0  0  0  0  0
   -7.8238   10.0198  -11.7523 C   0  0  0  0  0  0  0  0  0  0  0  0
   -7.2557   10.6213  -10.5956 C   0  0  0  0  0  0  0  0  0  0  0  0
   -7.6268    9.7501   -9.5073 C   0  0  0  0  0  0  0  0  0  0  0  0
   -8.3057    8.7491   -9.9816 N   0  0  0  0  0  0  0  0  0  0  0  0
   -8.4330    8.8776  -11.2917 N   0  0  0  0  0  0  0  0  0  0  0  0
   -7.3352    9.8817   -8.0196 C   0  0  0  0  0  0  0  0  0  0  0  0
   -5.6205   13.5372  -12.2095 N   0  0  0  0  0  0  0  0  0  0  0  0
   -5.9727   10.4835   -7.7324 C   0  0  0  0  0  0  0  0  0  0  0  0
   -5.8611   11.7523   -7.1657 C   0  0  0  0  0  0  0  0  0  0  0  0
   -4.5946   12.2988   -6.9068 C   0  0  0  0  0  0  0  0  0  0  0  0
   -3.4432   11.5806   -7.2147 C   0  0  0  0  0  0  0  0  0  0  0  0
   -3.5570   10.3109   -7.7899 C   0  0  0  0  0  0  0  0  0  0  0  0
   -4.8253    9.7663   -8.0483 C   0  0  0  0  0  0  0  0  0  0  0  0
   -2.0926   12.1556   -6.9444 C   0  0  0  0  0  0  0  0  0  0  0  0
   -1.7338   13.4204   -6.4594 C   0  0  0  0  0  0  0  0  0  0  0  0
   -0.4064   13.4584   -6.4114 N   0  0  0  0  0  0  0  0  0  0  0  0
    0.1793   12.3493   -6.7865 N   0  0  0  0  0  0  0  0  0  0  0  0
   -0.7954   11.5387   -7.1512 C   0  0  0  0  0  0  0  0  0  0  0  0
    0.4205   14.5767   -6.0073 C   0  0  0  0  0  0  0  0  0  0  0  0
   -4.6894   13.8945  -11.1046 C   0  0  0  0  0  0  0  0  0  0  0  0
   -3.7822   15.1171  -11.3990 C   0  0  0  0  0  0  0  0  0  0  0  0
   -2.3310   14.9579  -11.2532 N   0  0  0  0  0  0  0  0  0  0  0  0
   -1.8099   14.4326  -10.1320 C   0  0  0  0  0  0  0  0  0  0  0  0
   -2.5019   14.0442   -9.2076 O   0  0  0  0  0  0  0  0  0  0  0  0
   -0.2869   14.3494  -10.0364 C   0  0  0  0  0  0  0  0  0  0  0  0
   -5.5086   11.5965  -10.3394 H   0  0  0  0  0  0  0  0  0  0  0  0
   -7.0053   12.5553  -10.0799 H   0  0  0  0  0  0  0  0  0  0  0  0
   -8.1374   10.1224  -13.9131 H   0  0  0  0  0  0  0  0  0  0  0  0
   -7.6459   12.5314  -13.5218 H   0  0  0  0  0  0  0  0  0  0  0  0
   -6.1429   11.5918  -13.8126 H   0  0  0  0  0  0  0  0  0  0  0  0
   -8.1046   10.5248   -7.5674 H   0  0  0  0  0  0  0  0  0  0  0  0
   -7.3794    8.8814   -7.5641 H   0  0  0  0  0  0  0  0  0  0  0  0
   -6.7507   12.3156   -6.9255 H   0  0  0  0  0  0  0  0  0  0  0  0
   -4.5132   13.2816   -6.4664 H   0  0  0  0  0  0  0  0  0  0  0  0
   -2.6683    9.7485   -8.0357 H   0  0  0  0  0  0  0  0  0  0  0  0
   -4.9092    8.7863   -8.4943 H   0  0  0  0  0  0  0  0  0  0  0  0
   -2.4090   14.2148   -6.1776 H   0  0  0  0  0  0  0  0  0  0  0  0
   -0.6475   10.5464   -7.5511 H   0  0  0  0  0  0  0  0  0  0  0  0
    1.4812   14.2962   -6.0855 H   0  0  0  0  0  0  0  0  0  0  0  0
    0.2196   15.4369   -6.6628 H   0  0  0  0  0  0  0  0  0  0  0  0
    0.1886   14.8468   -4.9665 H   0  0  0  0  0  0  0  0  0  0  0  0
   -5.2882   14.1185  -10.2095 H   0  0  0  0  0  0  0  0  0  0  0  0
   -4.0431   13.0269  -10.9057 H   0  0  0  0  0  0  0  0  0  0  0  0
   -3.9735   15.4217  -12.4385 H   0  0  0  0  0  0  0  0  0  0  0  0
   -4.0914   15.9235  -10.7178 H   0  0  0  0  0  0  0  0  0  0  0  0
   -1.9457   13.7098   -8.5138 H   0  0  0  0  0  0  0  0  0  0  0  0
   -0.0034   13.9020   -9.0723 H   0  0  0  0  0  0  0  0  0  0  0  0
    0.0984   13.7264  -10.8570 H   0  0  0  0  0  0  0  0  0  0  0  0
    0.1408   15.3601  -10.1114 H   0  0  0  0  0  0  0  0  0  0  0  0
  1  2  1  0  0  0  0
  1  4  1  0  0  0  0
  1 11  2  0  0  0  0
  2  6  1  0  0  0  0
  3  4  1  0  0  0  0
  3  5  2  0  0  0  0
  5  6  1  0  0  0  0
  5  9  1  0  0  0  0
  6  7  2  0  0  0  0
  7  8  1  0  0  0  0
  7 10  1  0  0  0  0
  8  9  2  0  0  0  0
 10 12  1  0  0  0  0
 11 24  1  0  0  0  0
 12 13  2  0  0  0  0
 12 17  1  0  0  0  0
 13 14  1  0  0  0  0
 14 15  2  0  0  0  0
 15 16  1  0  0  0  0
 15 18  1  0  0  0  0
 16 17  2  0  0  0  0
 18 19  2  0  0  0  0
 18 22  1  0  0  0  0
 19 20  1  0  0  0  0
 20 21  1  0  0  0  0
 20 23  1  0  0  0  0
 21 22  2  0  0  0  0
 24 25  1  0  0  0  0
 25 26  1  0  0  0  0
 26 27  2  0  0  0  0
 27 28  1  0  0  0  0
 27 29  1  0  0  0  0
  2 30  1  0  0  0  0
  2 31  1  0  0  0  0
  3 32  1  0  0  0  0
  4 33  1  0  0  0  0
  4 34  1  0  0  0  0
 10 35  1  0  0  0  0
 10 36  1  0  0  0  0
 13 37  1  0  0  0  0
 14 38  1  0  0  0  0
 16 39  1  0  0  0  0
 17 40  1  0  0  0  0
 19 41  1  0  0  0  0
 22 42  1  0  0  0  0
 23 43  1  0  0  0  0
 23 44  1  0  0  0  0
 23 45  1  0  0  0  0
 24 46  1  0  0  0  0
 24 47  1  0  0  0  0
 25 48  1  0  0  0  0
 25 49  1  0  0  0  0
 28 50  1  0  0  0  0
 29 51  1  0  0  0  0
 29 52  1  0  0  0  0
 29 53  1  0  0  0  0
M  END
> <Name>
27

> <IC50[uM]>
0.68

$$$$
27
  -OEChem-05192314333D
 Structure written by MMmdl.
 53 56  0     1  0  0  0  0  0999 V2000
   -6.3855   12.3606  -12.0031 C   0  0  0  0  0  0  0  0  0  0  0  0
   -6.5214   11.8004  -10.7171 C   0  0  0  0  0  0  0  0  0  0  0  0
   -7.6991   10.5797  -13.0384 C   0  0  0  0  0  0  0  0  0  0  0  0
   -6.9626   11.7779  -13.1031 C   0  0  0  0  0  0  0  0  0  0  0  0
   -7.8238   10.0198  -11.7523 C   0  0  0  0  0  0  0  0  0  0  0  0
   -7.2557   10.6213  -10.5956 C   0  0  3  0  0  0  0  0  0  0  0  0
   -7.6268    9.7501   -9.5073 C   0  0  0  0  0  0  0  0  0  0  0  0
   -8.3057    8.7491   -9.9816 N   0  0  0  0  0  0  0  0  0  0  0  0
   -8.4330    8.8776  -11.2917 N   0  0  0  0  0  0  0  0  0  0  0  0
   -7.3352    9.8817   -8.0196 C   0  0  0  0  0  0  0  0  0  0  0  0
   -5.6205   13.5372  -12.2095 N   0  0  0  0  0  0  0  0  0  0  0  0
   -5.9727   10.4835   -7.7324 C   0  0  0  0  0  0  0  0  0  0  0  0
   -5.8611   11.7523   -7.1657 C   0  0  0  0  0  0  0  0  0  0  0  0
   -4.5946   12.2988   -6.9068 C   0  0  0  0  0  0  0  0  0  0  0  0
   -3.4432   11.5806   -7.2147 C   0  0  0  0  0  0  0  0  0  0  0  0
   -3.5570   10.3109   -7.7899 C   0  0  0  0  0  0  0  0  0  0  0  0
   -4.8253    9.7663   -8.0483 C   0  0  0  0  0  0  0  0  0  0  0  0
   -2.0926   12.1556   -6.9444 C   0  0  0  0  0  0  0  0  0  0  0  0
   -1.7338   13.4204   -6.4594 C   0  0  0  0  0  0  0  0  0  0  0  0
   -0.4064   13.4584   -6.4114 N   0  0  0  0  0  0  0  0  0  0  0  0
    0.1793   12.3493   -6.7865 N   0  0  0  0  0  0  0  0  0  0  0  0
   -0.7954   11.5387   -7.1512 C   0  0  0  0  0  0  0  0  0  0  0  0
    0.4205   14.5767   -6.0073 C   0  0  0  0  0  0  0  0  0  0  0  0
   -4.6894   13.8945  -11.1046 C   0  0  0  0  0  0  0  0  0  0  0  0
   -3.7822   15.1171  -11.3990 C   0  0  0  0  0  0  0  0  0  0  0  0
   -2.3310   14.9579  -11.2532 N   0  0  0  0  0  0  0  0  0  0  0  0
   -1.8099   14.4326  -10.1320 C   0  0  0  0  0  0  0  0  0  0  0  0
   -2.5019   14.0442   -9.2076 O   0  0  0  0  0  0  0  0  0  0  0  0
   -0.2869   14.3494  -10.0364 C   0  0  0  0  0  0  0  0  0  0  0  0
   -5.5086   11.5965  -10.3394 H   0  0  0  0  0  0  0  0  0  0  0  0
   -7.0053   12.5553  -10.0799 H   0  0  0  0  0  0  0  0  0  0  0  0
   -8.1374   10.1224  -13.9131 H   0  0  0  0  0  0  0  0  0  0  0  0
   -6.8466   12.2604  -14.0624 H   0  0  0  0  0  0  0  0  0  0  0  0
   -8.1751   11.2060  -10.4447 H   0  0  0  0  0  0  0  0  0  0  0  0
   -8.6759    7.9956   -9.4383 H   0  0  0  0  0  0  0  0  0  0  0  0
   -8.0269    9.5780   -7.2478 H   0  0  0  0  0  0  0  0  0  0  0  0
   -6.7507   12.3156   -6.9255 H   0  0  0  0  0  0  0  0  0  0  0  0
   -4.5132   13.2816   -6.4664 H   0  0  0  0  0  0  0  0  0  0  0  0
   -2.6683    9.7485   -8.0357 H   0  0  0  0  0  0  0  0  0  0  0  0
   -4.9092    8.7863   -8.4943 H   0  0  0  0  0  0  0  0  0  0  0  0
   -2.4090   14.2148   -6.1776 H   0  0  0  0  0  0  0  0  0  0  0  0
   -0.6475   10.5464   -7.5511 H   0  0  0  0  0  0  0  0  0  0  0  0
    1.4812   14.2962   -6.0855 H   0  0  0  0  0  0  0  0  0  0  0  0
    0.2196   15.4369   -6.6628 H   0  0  0  0  0  0  0  0  0  0  0  0
    0.1886   14.8468   -4.9665 H   0  0  0  0  0  0  0  0  0  0  0  0
   -5.2882   14.1185  -10.2095 H   0  0  0  0  0  0  0  0  0  0  0  0
   -4.0431   13.0269  -10.9057 H   0  0  0  0  0  0  0  0  0  0  0  0
   -3.9735   15.4217  -12.4385 H   0  0  0  0  0  0  0  0  0  0  0  0
   -4.0914   15.9235  -10.7178 H   0  0  0  0  0  0  0  0  0  0  0  0
   -1.9457   13.7098   -8.5138 H   0  0  0  0  0  0  0  0  0  0  0  0
   -0.0034   13.9020   -9.0723 H   0  0  0  0  0  0  0  0  0  0  0  0
    0.0984   13.7264  -10.8570 H   0  0  0  0  0  0  0  0  0  0  0  0
    0.1408   15.3601  -10.1114 H   0  0  0  0  0  0  0  0  0  0  0  0
  1  2  1  0  0  0  0
  1  4  1  0  0  0  0
  1 11  2  0  0  0  0
  2  6  1  0  0  0  0
  3  4  2  0  0  0  0
  3  5  1  0  0  0  0
  5  6  1  0  0  0  0
  5  9  2  0  0  0  0
  6  7  1  0  0  0  0
  7  8  1  0  0  0  0
  7 10  2  3  0  0  0
  8  9  1  0  0  0  0
 10 12  1  0  0  0  0
 11 24  1  0  0  0  0
 12 13  2  0  0  0  0
 12 17  1  0  0  0  0
 13 14  1  0  0  0  0
 14 15  2  0  0  0  0
 15 16  1  0  0  0  0
 15 18  1  0  0  0  0
 16 17  2  0  0  0  0
 18 19  2  0  0  0  0
 18 22  1  0  0  0  0
 19 20  1  0  0  0  0
 20 21  1  0  0  0  0
 20 23  1  0  0  0  0
 21 22  2  0  0  0  0
 24 25  1  0  0  0  0
 25 26  1  0  0  0  0
 26 27  2  0  0  0  0
 27 28  1  0  0  0  0
 27 29  1  0  0  0  0
  2 30  1  0  0  0  0
  2 31  1  0  0  0  0
  3 32  1  0  0  0  0
  4 33  1  0  0  0  0
  6 34  1  0  0  0  0
  8 35  1  0  0  0  0
 10 36  1  0  0  0  0
 13 37  1  0  0  0  0
 14 38  1  0  0  0  0
 16 39  1  0  0  0  0
 17 40  1  0  0  0  0
 19 41  1  0  0  0  0
 22 42  1  0  0  0  0
 23 43  1  0  0  0  0
 23 44  1  0  0  0  0
 23 45  1  0  0  0  0
 24 46  1  0  0  0  0
 24 47  1  0  0  0  0
 25 48  1  0  0  0  0
 25 49  1  0  0  0  0
 28 50  1  0  0  0  0
 29 51  1  0  0  0  0
 29 52  1  0  0  0  0
 29 53  1  0  0  0  0
M  END
> <Name>
27

> <IC50[uM]>
0.68

$$$$
27
  -OEChem-05192314333D
 Structure written by MMmdl.
 53 56  0     1  0  0  0  0  0999 V2000
   -6.3855   12.3606  -12.0031 C   0  0  0  0  0  0  0  0  0  0  0  0
   -6.5214   11.8004  -10.7171 C   0  0  0  0  0  0  0  0  0  0  0  0
   -7.6991   10.5797  -13.0384 C   0  0  0  0  0  0  0  0  0  0  0  0
   -6.9626   11.7779  -13.1031 C   0  0  0  0  0  0  0  0  0  0  0  0
   -7.8238   10.0198  -11.7523 C   0  0  0  0  0  0  0  0  0  0  0  0
   -7.2557   10.6213  -10.5956 C   0  0  3  0  0  0  0  0  0  0  0  0
   -7.6268    9.7501   -9.5073 C   0  0  0  0  0  0  0  0  0  0  0  0
   -8.3057    8.7491   -9.9816 N   0  0  0  0  0  0  0  0  0  0  0  0
   -8.4330    8.8776  -11.2917 N   0  0  0  0  0  0  0  0  0  0  0  0
   -7.3352    9.8817   -8.0196 C   0  0  0  0  0  0  0  0  0  0  0  0
   -5.6205   13.5372  -12.2095 N   0  0  0  0  0  0  0  0  0  0  0  0
   -5.9727   10.4835   -7.7324 C   0  0  0  0  0  0  0  0  0  0  0  0
   -5.8611   11.7523   -7.1657 C   0  0  0  0  0  0  0  0  0  0  0  0
   -4.5946   12.2988   -6.9068 C   0  0  0  0  0  0  0  0  0  0  0  0
   -3.4432   11.5806   -7.2147 C   0  0  0  0  0  0  0  0  0  0  0  0
   -3.5570   10.3109   -7.7899 C   0  0  0  0  0  0  0  0  0  0  0  0
   -4.8253    9.7663   -8.0483 C   0  0  0  0  0  0  0  0  0  0  0  0
   -2.0926   12.1556   -6.9444 C   0  0  0  0  0  0  0  0  0  0  0  0
   -1.7338   13.4204   -6.4594 C   0  0  0  0  0  0  0  0  0  0  0  0
   -0.4064   13.4584   -6.4114 N   0  0  0  0  0  0  0  0  0  0  0  0
    0.1793   12.3493   -6.7865 N   0  0  0  0  0  0  0  0  0  0  0  0
   -0.7954   11.5387   -7.1512 C   0  0  0  0  0  0  0  0  0  0  0  0
    0.4205   14.5767   -6.0073 C   0  0  0  0  0  0  0  0  0  0  0  0
   -4.6894   13.8945  -11.1046 C   0  0  0  0  0  0  0  0  0  0  0  0
   -3.7822   15.1171  -11.3990 C   0  0  0  0  0  0  0  0  0  0  0  0
   -2.3310   14.9579  -11.2532 N   0  0  0  0  0  0  0  0  0  0  0  0
   -1.8099   14.4326  -10.1320 C   0  0  0  0  0  0  0  0  0  0  0  0
   -2.5019   14.0442   -9.2076 O   0  0  0  0  0  0  0  0  0  0  0  0
   -0.2869   14.3494  -10.0364 C   0  0  0  0  0  0  0  0  0  0  0  0
   -6.0716   12.2689   -9.8542 H   0  0  0  0  0  0  0  0  0  0  0  0
   -8.1374   10.1224  -13.9131 H   0  0  0  0  0  0  0  0  0  0  0  0
   -6.8466   12.2604  -14.0624 H   0  0  0  0  0  0  0  0  0  0  0  0
   -8.1751   11.2060  -10.4447 H   0  0  0  0  0  0  0  0  0  0  0  0
   -8.1046   10.5248   -7.5674 H   0  0  0  0  0  0  0  0  0  0  0  0
   -7.3794    8.8814   -7.5641 H   0  0  0  0  0  0  0  0  0  0  0  0
   -5.0791   13.4115  -13.0408 H   0  0  0  0  0  0  0  0  0  0  0  0
   -6.7507   12.3156   -6.9255 H   0  0  0  0  0  0  0  0  0  0  0  0
   -4.5132   13.2816   -6.4664 H   0  0  0  0  0  0  0  0  0  0  0  0
   -2.6683    9.7485   -8.0357 H   0  0  0  0  0  0  0  0  0  0  0  0
   -4.9092    8.7863   -8.4943 H   0  0  0  0  0  0  0  0  0  0  0  0
   -2.4090   14.2148   -6.1776 H   0  0  0  0  0  0  0  0  0  0  0  0
   -0.6475   10.5464   -7.5511 H   0  0  0  0  0  0  0  0  0  0  0  0
    1.4812   14.2962   -6.0855 H   0  0  0  0  0  0  0  0  0  0  0  0
    0.2196   15.4369   -6.6628 H   0  0  0  0  0  0  0  0  0  0  0  0
    0.1886   14.8468   -4.9665 H   0  0  0  0  0  0  0  0  0  0  0  0
   -5.2882   14.1185  -10.2095 H   0  0  0  0  0  0  0  0  0  0  0  0
   -4.0431   13.0269  -10.9057 H   0  0  0  0  0  0  0  0  0  0  0  0
   -3.9735   15.4217  -12.4385 H   0  0  0  0  0  0  0  0  0  0  0  0
   -4.0914   15.9235  -10.7178 H   0  0  0  0  0  0  0  0  0  0  0  0
   -1.9457   13.7098   -8.5138 H   0  0  0  0  0  0  0  0  0  0  0  0
   -0.0034   13.9020   -9.0723 H   0  0  0  0  0  0  0  0  0  0  0  0
    0.0984   13.7264  -10.8570 H   0  0  0  0  0  0  0  0  0  0  0  0
    0.1408   15.3601  -10.1114 H   0  0  0  0  0  0  0  0  0  0  0  0
  1  2  2  0  0  0  0
  1  4  1  0  0  0  0
  1 11  1  0  0  0  0
  2  6  1  0  0  0  0
  3  4  2  0  0  0  0
  3  5  1  0  0  0  0
  5  6  1  0  0  0  0
  5  9  2  0  0  0  0
  6  7  1  0  0  0  0
  7  8  2  0  0  0  0
  7 10  1  0  0  0  0
  8  9  1  0  0  0  0
 10 12  1  0  0  0  0
 11 24  1  0  0  0  0
 12 13  2  0  0  0  0
 12 17  1  0  0  0  0
 13 14  1  0  0  0  0
 14 15  2  0  0  0  0
 15 16  1  0  0  0  0
 15 18  1  0  0  0  0
 16 17  2  0  0  0  0
 18 19  2  0  0  0  0
 18 22  1  0  0  0  0
 19 20  1  0  0  0  0
 20 21  1  0  0  0  0
 20 23  1  0  0  0  0
 21 22  2  0  0  0  0
 24 25  1  0  0  0  0
 25 26  1  0  0  0  0
 26 27  2  0  0  0  0
 27 28  1  0  0  0  0
 27 29  1  0  0  0  0
  2 30  1  0  0  0  0
  3 31  1  0  0  0  0
  4 32  1  0  0  0  0
  6 33  1  0  0  0  0
 10 34  1  0  0  0  0
 10 35  1  0  0  0  0
 11 36  1  0  0  0  0
 13 37  1  0  0  0  0
 14 38  1  0  0  0  0
 16 39  1  0  0  0  0
 17 40  1  0  0  0  0
 19 41  1  0  0  0  0
 22 42  1  0  0  0  0
 23 43  1  0  0  0  0
 23 44  1  0  0  0  0
 23 45  1  0  0  0  0
 24 46  1  0  0  0  0
 24 47  1  0  0  0  0
 25 48  1  0  0  0  0
 25 49  1  0  0  0  0
 28 50  1  0  0  0  0
 29 51  1  0  0  0  0
 29 52  1  0  0  0  0
 29 53  1  0  0  0  0
M  END
> <Name>
27

> <IC50[uM]>
0.68

$$$$
27
  -OEChem-05192314333D
 Structure written by MMmdl.
 53 56  0     1  0  0  0  0  0999 V2000
   -6.3855   12.3606  -12.0031 C   0  0  3  0  0  0  0  0  0  0  0  0
   -6.5214   11.8004  -10.7171 C   0  0  0  0  0  0  0  0  0  0  0  0
   -7.6991   10.5797  -13.0384 C   0  0  0  0  0  0  0  0  0  0  0  0
   -6.9626   11.7779  -13.1031 C   0  0  0  0  0  0  0  0  0  0  0  0
   -7.8238   10.0198  -11.7523 C   0  0  0  0  0  0  0  0  0  0  0  0
   -7.2557   10.6213  -10.5956 C   0  0  0  0  0  0  0  0  0  0  0  0
   -7.6268    9.7501   -9.5073 C   0  0  0  0  0  0  0  0  0  0  0  0
   -8.3057    8.7491   -9.9816 N   0  0  0  0  0  0  0  0  0  0  0  0
   -8.4330    8.8776  -11.2917 N   0  0  0  0  0  0  0  0  0  0  0  0
   -7.3352    9.8817   -8.0196 C   0  0  0  0  0  0  0  0  0  0  0  0
   -5.6205   13.5372  -12.2095 N   0  0  0  0  0  0  0  0  0  0  0  0
   -5.9727   10.4835   -7.7324 C   0  0  0  0  0  0  0  0  0  0  0  0
   -5.8611   11.7523   -7.1657 C   0  0  0  0  0  0  0  0  0  0  0  0
   -4.5946   12.2988   -6.9068 C   0  0  0  0  0  0  0  0  0  0  0  0
   -3.4432   11.5806   -7.2147 C   0  0  0  0  0  0  0  0  0  0  0  0
   -3.5570   10.3109   -7.7899 C   0  0  0  0  0  0  0  0  0  0  0  0
   -4.8253    9.7663   -8.0483 C   0  0  0  0  0  0  0  0  0  0  0  0
   -2.0926   12.1556   -6.9444 C   0  0  0  0  0  0  0  0  0  0  0  0
   -1.7338   13.4204   -6.4594 C   0  0  0  0  0  0  0  0  0  0  0  0
   -0.4064   13.4584   -6.4114 N   0  0  0  0  0  0  0  0  0  0  0  0
    0.1793   12.3493   -6.7865 N   0  0  0  0  0  0  0  0  0  0  0  0
   -0.7954   11.5387   -7.1512 C   0  0  0  0  0  0  0  0  0  0  0  0
    0.4205   14.5767   -6.0073 C   0  0  0  0  0  0  0  0  0  0  0  0
   -4.6894   13.8945  -11.1046 C   0  0  0  0  0  0  0  0  0  0  0  0
   -3.7822   15.1171  -11.3990 C   0  0  0  0  0  0  0  0  0  0  0  0
   -2.3310   14.9579  -11.2532 N   0  0  0  0  0  0  0  0  0  0  0  0
   -1.8099   14.4326  -10.1320 C   0  0  0  0  0  0  0  0  0  0  0  0
   -2.5019   14.0442   -9.2076 O   0  0  0  0  0  0  0  0  0  0  0  0
   -0.2869   14.3494  -10.0364 C   0  0  0  0  0  0  0  0  0  0  0  0
   -7.2886   12.9676  -11.8418 H   0  0  0  0  0  0  0  0  0  0  0  0
   -6.0716   12.2689   -9.8542 H   0  0  0  0  0  0  0  0  0  0  0  0
   -8.1374   10.1224  -13.9131 H   0  0  0  0  0  0  0  0  0  0  0  0
   -6.8466   12.2604  -14.0624 H   0  0  0  0  0  0  0  0  0  0  0  0
   -8.1046   10.5248   -7.5674 H   0  0  0  0  0  0  0  0  0  0  0  0
   -7.3794    8.8814   -7.5641 H   0  0  0  0  0  0  0  0  0  0  0  0
   -5.0791   13.4115  -13.0408 H   0  0  0  0  0  0  0  0  0  0  0  0
   -6.7507   12.3156   -6.9255 H   0  0  0  0  0  0  0  0  0  0  0  0
   -4.5132   13.2816   -6.4664 H   0  0  0  0  0  0  0  0  0  0  0  0
   -2.6683    9.7485   -8.0357 H   0  0  0  0  0  0  0  0  0  0  0  0
   -4.9092    8.7863   -8.4943 H   0  0  0  0  0  0  0  0  0  0  0  0
   -2.4090   14.2148   -6.1776 H   0  0  0  0  0  0  0  0  0  0  0  0
   -0.6475   10.5464   -7.5511 H   0  0  0  0  0  0  0  0  0  0  0  0
    1.4812   14.2962   -6.0855 H   0  0  0  0  0  0  0  0  0  0  0  0
    0.2196   15.4369   -6.6628 H   0  0  0  0  0  0  0  0  0  0  0  0
    0.1886   14.8468   -4.9665 H   0  0  0  0  0  0  0  0  0  0  0  0
   -5.2882   14.1185  -10.2095 H   0  0  0  0  0  0  0  0  0  0  0  0
   -4.0431   13.0269  -10.9057 H   0  0  0  0  0  0  0  0  0  0  0  0
   -3.9735   15.4217  -12.4385 H   0  0  0  0  0  0  0  0  0  0  0  0
   -4.0914   15.9235  -10.7178 H   0  0  0  0  0  0  0  0  0  0  0  0
   -1.9457   13.7098   -8.5138 H   0  0  0  0  0  0  0  0  0  0  0  0
   -0.0034   13.9020   -9.0723 H   0  0  0  0  0  0  0  0  0  0  0  0
    0.0984   13.7264  -10.8570 H   0  0  0  0  0  0  0  0  0  0  0  0
    0.1408   15.3601  -10.1114 H   0  0  0  0  0  0  0  0  0  0  0  0
  1  2  1  0  0  0  0
  1  4  1  0  0  0  0
  1 11  1  0  0  0  0
  2  6  2  0  0  0  0
  3  4  2  0  0  0  0
  3  5  1  0  0  0  0
  5  6  1  0  0  0  0
  5  9  2  0  0  0  0
  6  7  1  0  0  0  0
  7  8  2  0  0  0  0
  7 10  1  0  0  0  0
  8  9  1  0  0  0  0
 10 12  1  0  0  0  0
 11 24  1  0  0  0  0
 12 13  2  0  0  0  0
 12 17  1  0  0  0  0
 13 14  1  0  0  0  0
 14 15  2  0  0  0  0
 15 16  1  0  0  0  0
 15 18  1  0  0  0  0
 16 17  2  0  0  0  0
 18 19  2  0  0  0  0
 18 22  1  0  0  0  0
 19 20  1  0  0  0  0
 20 21  1  0  0  0  0
 20 23  1  0  0  0  0
 21 22  2  0  0  0  0
 24 25  1  0  0  0  0
 25 26  1  0  0  0  0
 26 27  2  0  0  0  0
 27 28  1  0  0  0  0
 27 29  1  0  0  0  0
  1 30  1  0  0  0  0
  2 31  1  0  0  0  0
  3 32  1  0  0  0  0
  4 33  1  0  0  0  0
 10 34  1  0  0  0  0
 10 35  1  0  0  0  0
 11 36  1  0  0  0  0
 13 37  1  0  0  0  0
 14 38  1  0  0  0  0
 16 39  1  0  0  0  0
 17 40  1  0  0  0  0
 19 41  1  0  0  0  0
 22 42  1  0  0  0  0
 23 43  1  0  0  0  0
 23 44  1  0  0  0  0
 23 45  1  0  0  0  0
 24 46  1  0  0  0  0
 24 47  1  0  0  0  0
 25 48  1  0  0  0  0
 25 49  1  0  0  0  0
 28 50  1  0  0  0  0
 29 51  1  0  0  0  0
 29 52  1  0  0  0  0
 29 53  1  0  0  0  0
M  END
> <Name>
27

> <IC50[uM]>
0.68

$$$$
27
  -OEChem-05192314333D
 Structure written by MMmdl.
 53 56  0     1  0  0  0  0  0999 V2000
   -6.3855   12.3606  -12.0031 C   0  0  0  0  0  0  0  0  0  0  0  0
   -6.5214   11.8004  -10.7171 C   0  0  0  0  0  0  0  0  0  0  0  0
   -7.6991   10.5797  -13.0384 C   0  0  0  0  0  0  0  0  0  0  0  0
   -6.9626   11.7779  -13.1031 C   0  0  0  0  0  0  0  0  0  0  0  0
   -7.8238   10.0198  -11.7523 C   0  0  0  0  0  0  0  0  0  0  0  0
   -7.2557   10.6213  -10.5956 C   0  0  0  0  0  0  0  0  0  0  0  0
   -7.6268    9.7501   -9.5073 C   0  0  3  0  0  0  0  0  0  0  0  0
   -8.3057    8.7491   -9.9816 N   0  0  0  0  0  0  0  0  0  0  0  0
   -8.4330    8.8776  -11.2917 N   0  0  0  0  0  0  0  0  0  0  0  0
   -7.3352    9.8817   -8.0196 C   0  0  0  0  0  0  0  0  0  0  0  0
   -5.6205   13.5372  -12.2095 N   0  0  0  0  0  0  0  0  0  0  0  0
   -5.9727   10.4835   -7.7324 C   0  0  0  0  0  0  0  0  0  0  0  0
   -5.8611   11.7523   -7.1657 C   0  0  0  0  0  0  0  0  0  0  0  0
   -4.5946   12.2988   -6.9068 C   0  0  0  0  0  0  0  0  0  0  0  0
   -3.4432   11.5806   -7.2147 C   0  0  0  0  0  0  0  0  0  0  0  0
   -3.5570   10.3109   -7.7899 C   0  0  0  0  0  0  0  0  0  0  0  0
   -4.8253    9.7663   -8.0483 C   0  0  0  0  0  0  0  0  0  0  0  0
   -2.0926   12.1556   -6.9444 C   0  0  0  0  0  0  0  0  0  0  0  0
   -1.7338   13.4204   -6.4594 C   0  0  0  0  0  0  0  0  0  0  0  0
   -0.4064   13.4584   -6.4114 N   0  0  0  0  0  0  0  0  0  0  0  0
    0.1793   12.3493   -6.7865 N   0  0  0  0  0  0  0  0  0  0  0  0
   -0.7954   11.5387   -7.1512 C   0  0  0  0  0  0  0  0  0  0  0  0
    0.4205   14.5767   -6.0073 C   0  0  0  0  0  0  0  0  0  0  0  0
   -4.6894   13.8945  -11.1046 C   0  0  0  0  0  0  0  0  0  0  0  0
   -3.7822   15.1171  -11.3990 C   0  0  0  0  0  0  0  0  0  0  0  0
   -2.3310   14.9579  -11.2532 N   0  0  0  0  0  0  0  0  0  0  0  0
   -1.8099   14.4326  -10.1320 C   0  0  0  0  0  0  0  0  0  0  0  0
   -2.5019   14.0442   -9.2076 O   0  0  0  0  0  0  0  0  0  0  0  0
   -0.2869   14.3494  -10.0364 C   0  0  0  0  0  0  0  0  0  0  0  0
   -6.0716   12.2689   -9.8542 H   0  0  0  0  0  0  0  0  0  0  0  0
   -8.1374   10.1224  -13.9131 H   0  0  0  0  0  0  0  0  0  0  0  0
   -6.8466   12.2604  -14.0624 H   0  0  0  0  0  0  0  0  0  0  0  0
   -6.6939    9.1829   -9.6414 H   0  0  0  0  0  0  0  0  0  0  0  0
   -7.8268    7.8956   -9.7763 H   0  0  0  0  0  0  0  0  0  0  0  0
   -8.1046   10.5248   -7.5674 H   0  0  0  0  0  0  0  0  0  0  0  0
   -7.3794    8.8814   -7.5641 H   0  0  0  0  0  0  0  0  0  0  0  0
   -6.7507   12.3156   -6.9255 H   0  0  0  0  0  0  0  0  0  0  0  0
   -4.5132   13.2816   -6.4664 H   0  0  0  0  0  0  0  0  0  0  0  0
   -2.6683    9.7485   -8.0357 H   0  0  0  0  0  0  0  0  0  0  0  0
   -4.9092    8.7863   -8.4943 H   0  0  0  0  0  0  0  0  0  0  0  0
   -2.4090   14.2148   -6.1776 H   0  0  0  0  0  0  0  0  0  0  0  0
   -0.6475   10.5464   -7.5511 H   0  0  0  0  0  0  0  0  0  0  0  0
    1.4812   14.2962   -6.0855 H   0  0  0  0  0  0  0  0  0  0  0  0
    0.2196   15.4369   -6.6628 H   0  0  0  0  0  0  0  0  0  0  0  0
    0.1886   14.8468   -4.9665 H   0  0  0  0  0  0  0  0  0  0  0  0
   -5.2882   14.1185  -10.2095 H   0  0  0  0  0  0  0  0  0  0  0  0
   -4.0431   13.0269  -10.9057 H   0  0  0  0  0  0  0  0  0  0  0  0
   -3.9735   15.4217  -12.4385 H   0  0  0  0  0  0  0  0  0  0  0  0
   -4.0914   15.9235  -10.7178 H   0  0  0  0  0  0  0  0  0  0  0  0
   -1.9457   13.7098   -8.5138 H   0  0  0  0  0  0  0  0  0  0  0  0
   -0.0034   13.9020   -9.0723 H   0  0  0  0  0  0  0  0  0  0  0  0
    0.0984   13.7264  -10.8570 H   0  0  0  0  0  0  0  0  0  0  0  0
    0.1408   15.3601  -10.1114 H   0  0  0  0  0  0  0  0  0  0  0  0
  1  2  1  0  0  0  0
  1  4  1  0  0  0  0
  1 11  2  0  0  0  0
  2  6  2  0  0  0  0
  3  4  2  0  0  0  0
  3  5  1  0  0  0  0
  5  6  1  0  0  0  0
  5  9  2  0  0  0  0
  6  7  1  0  0  0  0
  7  8  1  0  0  0  0
  7 10  1  0  0  0  0
  8  9  1  0  0  0  0
 10 12  1  0  0  0  0
 11 24  1  0  0  0  0
 12 13  2  0  0  0  0
 12 17  1  0  0  0  0
 13 14  1  0  0  0  0
 14 15  2  0  0  0  0
 15 16  1  0  0  0  0
 15 18  1  0  0  0  0
 16 17  2  0  0  0  0
 18 19  2  0  0  0  0
 18 22  1  0  0  0  0
 19 20  1  0  0  0  0
 20 21  1  0  0  0  0
 20 23  1  0  0  0  0
 21 22  2  0  0  0  0
 24 25  1  0  0  0  0
 25 26  1  0  0  0  0
 26 27  2  0  0  0  0
 27 28  1  0  0  0  0
 27 29  1  0  0  0  0
  2 30  1  0  0  0  0
  3 31  1  0  0  0  0
  4 32  1  0  0  0  0
  7 33  1  0  0  0  0
  8 34  1  0  0  0  0
 10 35  1  0  0  0  0
 10 36  1  0  0  0  0
 13 37  1  0  0  0  0
 14 38  1  0  0  0  0
 16 39  1  0  0  0  0
 17 40  1  0  0  0  0
 19 41  1  0  0  0  0
 22 42  1  0  0  0  0
 23 43  1  0  0  0  0
 23 44  1  0  0  0  0
 23 45  1  0  0  0  0
 24 46  1  0  0  0  0
 24 47  1  0  0  0  0
 25 48  1  0  0  0  0
 25 49  1  0  0  0  0
 28 50  1  0  0  0  0
 29 51  1  0  0  0  0
 29 52  1  0  0  0  0
 29 53  1  0  0  0  0
M  END
> <Name>
27

> <IC50[uM]>
0.68

$$$$
27
  -OEChem-05192314333D
 Structure written by MMmdl.
 53 56  0     1  0  0  0  0  0999 V2000
   -6.3855   12.3606  -12.0031 C   0  0  0  0  0  0  0  0  0  0  0  0
   -6.5214   11.8004  -10.7171 C   0  0  0  0  0  0  0  0  0  0  0  0
   -7.6991   10.5797  -13.0384 C   0  0  0  0  0  0  0  0  0  0  0  0
   -6.9626   11.7779  -13.1031 C   0  0  0  0  0  0  0  0  0  0  0  0
   -7.8238   10.0198  -11.7523 C   0  0  3  0  0  0  0  0  0  0  0  0
   -7.2557   10.6213  -10.5956 C   0  0  0  0  0  0  0  0  0  0  0  0
   -7.6268    9.7501   -9.5073 C   0  0  0  0  0  0  0  0  0  0  0  0
   -8.3057    8.7491   -9.9816 N   0  0  0  0  0  0  0  0  0  0  0  0
   -8.4330    8.8776  -11.2917 N   0  0  0  0  0  0  0  0  0  0  0  0
   -7.3352    9.8817   -8.0196 C   0  0  0  0  0  0  0  0  0  0  0  0
   -5.6205   13.5372  -12.2095 N   0  0  0  0  0  0  0  0  0  0  0  0
   -5.9727   10.4835   -7.7324 C   0  0  0  0  0  0  0  0  0  0  0  0
   -5.8611   11.7523   -7.1657 C   0  0  0  0  0  0  0  0  0  0  0  0
   -4.5946   12.2988   -6.9068 C   0  0  0  0  0  0  0  0  0  0  0  0
   -3.4432   11.5806   -7.2147 C   0  0  0  0  0  0  0  0  0  0  0  0
   -3.5570   10.3109   -7.7899 C   0  0  0  0  0  0  0  0  0  0  0  0
   -4.8253    9.7663   -8.0483 C   0  0  0  0  0  0  0  0  0  0  0  0
   -2.0926   12.1556   -6.9444 C   0  0  0  0  0  0  0  0  0  0  0  0
   -1.7338   13.4204   -6.4594 C   0  0  0  0  0  0  0  0  0  0  0  0
   -0.4064   13.4584   -6.4114 N   0  0  0  0  0  0  0  0  0  0  0  0
    0.1793   12.3493   -6.7865 N   0  0  0  0  0  0  0  0  0  0  0  0
   -0.7954   11.5387   -7.1512 C   0  0  0  0  0  0  0  0  0  0  0  0
    0.4205   14.5767   -6.0073 C   0  0  0  0  0  0  0  0  0  0  0  0
   -4.6894   13.8945  -11.1046 C   0  0  0  0  0  0  0  0  0  0  0  0
   -3.7822   15.1171  -11.3990 C   0  0  0  0  0  0  0  0  0  0  0  0
   -2.3310   14.9579  -11.2532 N   0  0  0  0  0  0  0  0  0  0  0  0
   -1.8099   14.4326  -10.1320 C   0  0  0  0  0  0  0  0  0  0  0  0
   -2.5019   14.0442   -9.2076 O   0  0  0  0  0  0  0  0  0  0  0  0
   -0.2869   14.3494  -10.0364 C   0  0  0  0  0  0  0  0  0  0  0  0
   -6.0716   12.2689   -9.8542 H   0  0  0  0  0  0  0  0  0  0  0  0
   -8.1374   10.1224  -13.9131 H   0  0  0  0  0  0  0  0  0  0  0  0
   -6.8466   12.2604  -14.0624 H   0  0  0  0  0  0  0  0  0  0  0  0
   -8.7543   10.5845  -11.5930 H   0  0  0  0  0  0  0  0  0  0  0  0
   -9.4057    8.9143  -11.5206 H   0  0  0  0  0  0  0  0  0  0  0  0
   -8.1046   10.5248   -7.5674 H   0  0  0  0  0  0  0  0  0  0  0  0
   -7.3794    8.8814   -7.5641 H   0  0  0  0  0  0  0  0  0  0  0  0
   -6.7507   12.3156   -6.9255 H   0  0  0  0  0  0  0  0  0  0  0  0
   -4.5132   13.2816   -6.4664 H   0  0  0  0  0  0  0  0  0  0  0  0
   -2.6683    9.7485   -8.0357 H   0  0  0  0  0  0  0  0  0  0  0  0
   -4.9092    8.7863   -8.4943 H   0  0  0  0  0  0  0  0  0  0  0  0
   -2.4090   14.2148   -6.1776 H   0  0  0  0  0  0  0  0  0  0  0  0
   -0.6475   10.5464   -7.5511 H   0  0  0  0  0  0  0  0  0  0  0  0
    1.4812   14.2962   -6.0855 H   0  0  0  0  0  0  0  0  0  0  0  0
    0.2196   15.4369   -6.6628 H   0  0  0  0  0  0  0  0  0  0  0  0
    0.1886   14.8468   -4.9665 H   0  0  0  0  0  0  0  0  0  0  0  0
   -5.2882   14.1185  -10.2095 H   0  0  0  0  0  0  0  0  0  0  0  0
   -4.0431   13.0269  -10.9057 H   0  0  0  0  0  0  0  0  0  0  0  0
   -3.9735   15.4217  -12.4385 H   0  0  0  0  0  0  0  0  0  0  0  0
   -4.0914   15.9235  -10.7178 H   0  0  0  0  0  0  0  0  0  0  0  0
   -1.9457   13.7098   -8.5138 H   0  0  0  0  0  0  0  0  0  0  0  0
   -0.0034   13.9020   -9.0723 H   0  0  0  0  0  0  0  0  0  0  0  0
    0.0984   13.7264  -10.8570 H   0  0  0  0  0  0  0  0  0  0  0  0
    0.1408   15.3601  -10.1114 H   0  0  0  0  0  0  0  0  0  0  0  0
  1  2  1  0  0  0  0
  1  4  1  0  0  0  0
  1 11  2  0  0  0  0
  2  6  2  0  0  0  0
  3  4  2  0  0  0  0
  3  5  1  0  0  0  0
  5  6  1  0  0  0  0
  5  9  1  0  0  0  0
  6  7  1  0  0  0  0
  7  8  2  0  0  0  0
  7 10  1  0  0  0  0
  8  9  1  0  0  0  0
 10 12  1  0  0  0  0
 11 24  1  0  0  0  0
 12 13  2  0  0  0  0
 12 17  1  0  0  0  0
 13 14  1  0  0  0  0
 14 15  2  0  0  0  0
 15 16  1  0  0  0  0
 15 18  1  0  0  0  0
 16 17  2  0  0  0  0
 18 19  2  0  0  0  0
 18 22  1  0  0  0  0
 19 20  1  0  0  0  0
 20 21  1  0  0  0  0
 20 23  1  0  0  0  0
 21 22  2  0  0  0  0
 24 25  1  0  0  0  0
 25 26  1  0  0  0  0
 26 27  2  0  0  0  0
 27 28  1  0  0  0  0
 27 29  1  0  0  0  0
  2 30  1  0  0  0  0
  3 31  1  0  0  0  0
  4 32  1  0  0  0  0
  5 33  1  0  0  0  0
  9 34  1  0  0  0  0
 10 35  1  0  0  0  0
 10 36  1  0  0  0  0
 13 37  1  0  0  0  0
 14 38  1  0  0  0  0
 16 39  1  0  0  0  0
 17 40  1  0  0  0  0
 19 41  1  0  0  0  0
 22 42  1  0  0  0  0
 23 43  1  0  0  0  0
 23 44  1  0  0  0  0
 23 45  1  0  0  0  0
 24 46  1  0  0  0  0
 24 47  1  0  0  0  0
 25 48  1  0  0  0  0
 25 49  1  0  0  0  0
 28 50  1  0  0  0  0
 29 51  1  0  0  0  0
 29 52  1  0  0  0  0
 29 53  1  0  0  0  0
M  END
> <Name>
27

> <IC50[uM]>
0.68

$$$$
27
  -OEChem-05192314333D
 Structure written by MMmdl.
 53 56  0     0  0  0  0  0  0999 V2000
   -6.3855   12.3606  -12.0031 C   0  0  0  0  0  0  0  0  0  0  0  0
   -6.5214   11.8004  -10.7171 C   0  0  0  0  0  0  0  0  0  0  0  0
   -7.6991   10.5797  -13.0384 C   0  0  0  0  0  0  0  0  0  0  0  0
   -6.9626   11.7779  -13.1031 C   0  0  0  0  0  0  0  0  0  0  0  0
   -7.8238   10.0198  -11.7523 C   0  0  0  0  0  0  0  0  0  0  0  0
   -7.2557   10.6213  -10.5956 C   0  0  0  0  0  0  0  0  0  0  0  0
   -7.6268    9.7501   -9.5073 C   0  0  0  0  0  0  0  0  0  0  0  0
   -8.3057    8.7491   -9.9816 N   0  0  0  0  0  0  0  0  0  0  0  0
   -8.4330    8.8776  -11.2917 N   0  0  0  0  0  0  0  0  0  0  0  0
   -7.3352    9.8817   -8.0196 C   0  0  0  0  0  0  0  0  0  0  0  0
   -5.6205   13.5372  -12.2095 N   0  0  0  0  0  0  0  0  0  0  0  0
   -5.9727   10.4835   -7.7324 C   0  0  0  0  0  0  0  0  0  0  0  0
   -5.8611   11.7523   -7.1657 C   0  0  0  0  0  0  0  0  0  0  0  0
   -4.5946   12.2988   -6.9068 C   0  0  0  0  0  0  0  0  0  0  0  0
   -3.4432   11.5806   -7.2147 C   0  0  0  0  0  0  0  0  0  0  0  0
   -3.5570   10.3109   -7.7899 C   0  0  0  0  0  0  0  0  0  0  0  0
   -4.8253    9.7663   -8.0483 C   0  0  0  0  0  0  0  0  0  0  0  0
   -2.0926   12.1556   -6.9444 C   0  0  0  0  0  0  0  0  0  0  0  0
   -1.7338   13.4204   -6.4594 C   0  0  0  0  0  0  0  0  0  0  0  0
   -0.4064   13.4584   -6.4114 N   0  0  0  0  0  0  0  0  0  0  0  0
    0.1793   12.3493   -6.7865 N   0  0  0  0  0  0  0  0  0  0  0  0
   -0.7954   11.5387   -7.1512 C   0  0  0  0  0  0  0  0  0  0  0  0
    0.4205   14.5767   -6.0073 C   0  0  0  0  0  0  0  0  0  0  0  0
   -4.6894   13.8945  -11.1046 C   0  0  0  0  0  0  0  0  0  0  0  0
   -3.7822   15.1171  -11.3990 C   0  0  0  0  0  0  0  0  0  0  0  0
   -2.3310   14.9579  -11.2532 N   0  0  0  0  0  0  0  0  0  0  0  0
   -1.8099   14.4326  -10.1320 C   0  0  0  0  0  0  0  0  0  0  0  0
   -2.5019   14.0442   -9.2076 O   0  0  0  0  0  0  0  0  0  0  0  0
   -0.2869   14.3494  -10.0364 C   0  0  0  0  0  0  0  0  0  0  0  0
   -6.0716   12.2689   -9.8542 H   0  0  0  0  0  0  0  0  0  0  0  0
   -8.7105   10.7812  -13.4211 H   0  0  0  0  0  0  0  0  0  0  0  0
   -7.2031    9.8404  -13.6845 H   0  0  0  0  0  0  0  0  0  0  0  0
   -6.8466   12.2604  -14.0624 H   0  0  0  0  0  0  0  0  0  0  0  0
   -8.1046   10.5248   -7.5674 H   0  0  0  0  0  0  0  0  0  0  0  0
   -7.3794    8.8814   -7.5641 H   0  0  0  0  0  0  0  0  0  0  0  0
   -5.0791   13.4115  -13.0408 H   0  0  0  0  0  0  0  0  0  0  0  0
   -6.7507   12.3156   -6.9255 H   0  0  0  0  0  0  0  0  0  0  0  0
   -4.5132   13.2816   -6.4664 H   0  0  0  0  0  0  0  0  0  0  0  0
   -2.6683    9.7485   -8.0357 H   0  0  0  0  0  0  0  0  0  0  0  0
   -4.9092    8.7863   -8.4943 H   0  0  0  0  0  0  0  0  0  0  0  0
   -2.4090   14.2148   -6.1776 H   0  0  0  0  0  0  0  0  0  0  0  0
   -0.6475   10.5464   -7.5511 H   0  0  0  0  0  0  0  0  0  0  0  0
    1.4812   14.2962   -6.0855 H   0  0  0  0  0  0  0  0  0  0  0  0
    0.2196   15.4369   -6.6628 H   0  0  0  0  0  0  0  0  0  0  0  0
    0.1886   14.8468   -4.9665 H   0  0  0  0  0  0  0  0  0  0  0  0
   -5.2882   14.1185  -10.2095 H   0  0  0  0  0  0  0  0  0  0  0  0
   -4.0431   13.0269  -10.9057 H   0  0  0  0  0  0  0  0  0  0  0  0
   -3.9735   15.4217  -12.4385 H   0  0  0  0  0  0  0  0  0  0  0  0
   -4.0914   15.9235  -10.7178 H   0  0  0  0  0  0  0  0  0  0  0  0
   -1.9457   13.7098   -8.5138 H   0  0  0  0  0  0  0  0  0  0  0  0
   -0.0034   13.9020   -9.0723 H   0  0  0  0  0  0  0  0  0  0  0  0
    0.0984   13.7264  -10.8570 H   0  0  0  0  0  0  0  0  0  0  0  0
    0.1408   15.3601  -10.1114 H   0  0  0  0  0  0  0  0  0  0  0  0
  1  2  1  0  0  0  0
  1  4  2  0  0  0  0
  1 11  1  0  0  0  0
  2  6  2  0  0  0  0
  3  4  1  0  0  0  0
  3  5  1  0  0  0  0
  5  6  1  0  0  0  0
  5  9  2  0  0  0  0
  6  7  1  0  0  0  0
  7  8  2  0  0  0  0
  7 10  1  0  0  0  0
  8  9  1  0  0  0  0
 10 12  1  0  0  0  0
 11 24  1  0  0  0  0
 12 13  2  0  0  0  0
 12 17  1  0  0  0  0
 13 14  1  0  0  0  0
 14 15  2  0  0  0  0
 15 16  1  0  0  0  0
 15 18  1  0  0  0  0
 16 17  2  0  0  0  0
 18 19  2  0  0  0  0
 18 22  1  0  0  0  0
 19 20  1  0  0  0  0
 20 21  1  0  0  0  0
 20 23  1  0  0  0  0
 21 22  2  0  0  0  0
 24 25  1  0  0  0  0
 25 26  1  0  0  0  0
 26 27  2  0  0  0  0
 27 28  1  0  0  0  0
 27 29  1  0  0  0  0
  2 30  1  0  0  0  0
  3 31  1  0  0  0  0
  3 32  1  0  0  0  0
  4 33  1  0  0  0  0
 10 34  1  0  0  0  0
 10 35  1  0  0  0  0
 11 36  1  0  0  0  0
 13 37  1  0  0  0  0
 14 38  1  0  0  0  0
 16 39  1  0  0  0  0
 17 40  1  0  0  0  0
 19 41  1  0  0  0  0
 22 42  1  0  0  0  0
 23 43  1  0  0  0  0
 23 44  1  0  0  0  0
 23 45  1  0  0  0  0
 24 46  1  0  0  0  0
 24 47  1  0  0  0  0
 25 48  1  0  0  0  0
 25 49  1  0  0  0  0
 28 50  1  0  0  0  0
 29 51  1  0  0  0  0
 29 52  1  0  0  0  0
 29 53  1  0  0  0  0
M  END
> <Name>
27

> <IC50[uM]>
0.68

$$$$
27
  -OEChem-05192314333D
 Structure written by MMmdl.
 53 56  0     0  0  0  0  0  0999 V2000
   -6.3855   12.3606  -12.0031 C   0  0  0  0  0  0  0  0  0  0  0  0
   -6.5214   11.8004  -10.7171 C   0  0  0  0  0  0  0  0  0  0  0  0
   -7.6991   10.5797  -13.0384 C   0  0  0  0  0  0  0  0  0  0  0  0
   -6.9626   11.7779  -13.1031 C   0  0  0  0  0  0  0  0  0  0  0  0
   -7.8238   10.0198  -11.7523 C   0  0  0  0  0  0  0  0  0  0  0  0
   -7.2557   10.6213  -10.5956 C   0  0  0  0  0  0  0  0  0  0  0  0
   -7.6268    9.7501   -9.5073 C   0  0  0  0  0  0  0  0  0  0  0  0
   -8.3057    8.7491   -9.9816 N   0  0  0  0  0  0  0  0  0  0  0  0
   -8.4330    8.8776  -11.2917 N   0  0  0  0  0  0  0  0  0  0  0  0
   -7.3352    9.8817   -8.0196 C   0  0  0  0  0  0  0  0  0  0  0  0
   -5.6205   13.5372  -12.2095 N   0  0  0  0  0  0  0  0  0  0  0  0
   -5.9727   10.4835   -7.7324 C   0  0  0  0  0  0  0  0  0  0  0  0
   -5.8611   11.7523   -7.1657 C   0  0  0  0  0  0  0  0  0  0  0  0
   -4.5946   12.2988   -6.9068 C   0  0  0  0  0  0  0  0  0  0  0  0
   -3.4432   11.5806   -7.2147 C   0  0  0  0  0  0  0  0  0  0  0  0
   -3.5570   10.3109   -7.7899 C   0  0  0  0  0  0  0  0  0  0  0  0
   -4.8253    9.7663   -8.0483 C   0  0  0  0  0  0  0  0  0  0  0  0
   -2.0926   12.1556   -6.9444 C   0  0  0  0  0  0  0  0  0  0  0  0
   -1.7338   13.4204   -6.4594 C   0  0  0  0  0  0  0  0  0  0  0  0
   -0.4064   13.4584   -6.4114 N   0  0  0  0  0  0  0  0  0  0  0  0
    0.1793   12.3493   -6.7865 N   0  0  0  0  0  0  0  0  0  0  0  0
   -0.7954   11.5387   -7.1512 C   0  0  0  0  0  0  0  0  0  0  0  0
    0.4205   14.5767   -6.0073 C   0  0  0  0  0  0  0  0  0  0  0  0
   -4.6894   13.8945  -11.1046 C   0  0  0  0  0  0  0  0  0  0  0  0
   -3.7822   15.1171  -11.3990 C   0  0  0  0  0  0  0  0  0  0  0  0
   -2.3310   14.9579  -11.2532 N   0  0  0  0  0  0  0  0  0  0  0  0
   -1.8099   14.4326  -10.1320 C   0  0  0  0  0  0  0  0  0  0  0  0
   -2.5019   14.0442   -9.2076 O   0  0  0  0  0  0  0  0  0  0  0  0
   -0.2869   14.3494  -10.0364 C   0  0  0  0  0  0  0  0  0  0  0  0
   -6.0716   12.2689   -9.8542 H   0  0  0  0  0  0  0  0  0  0  0  0
   -8.1374   10.1224  -13.9131 H   0  0  0  0  0  0  0  0  0  0  0  0
   -6.8466   12.2604  -14.0624 H   0  0  0  0  0  0  0  0  0  0  0  0
   -8.0269    9.5780   -7.2478 H   0  0  0  0  0  0  0  0  0  0  0  0
   -5.0791   13.4115  -13.0408 H   0  0  0  0  0  0  0  0  0  0  0  0
   -5.9820   10.0328   -6.7290 H   0  0  0  0  0  0  0  0  0  0  0  0
   -6.7507   12.3156   -6.9255 H   0  0  0  0  0  0  0  0  0  0  0  0
   -4.5132   13.2816   -6.4664 H   0  0  0  0  0  0  0  0  0  0  0  0
   -3.4540   11.1294   -6.2116 H   0  0  0  0  0  0  0  0  0  0  0  0
   -2.6683    9.7485   -8.0357 H   0  0  0  0  0  0  0  0  0  0  0  0
   -4.9092    8.7863   -8.4943 H   0  0  0  0  0  0  0  0  0  0  0  0
   -2.4090   14.2148   -6.1776 H   0  0  0  0  0  0  0  0  0  0  0  0
   -0.6475   10.5464   -7.5511 H   0  0  0  0  0  0  0  0  0  0  0  0
    1.4812   14.2962   -6.0855 H   0  0  0  0  0  0  0  0  0  0  0  0
    0.2196   15.4369   -6.6628 H   0  0  0  0  0  0  0  0  0  0  0  0
    0.1886   14.8468   -4.9665 H   0  0  0  0  0  0  0  0  0  0  0  0
   -5.2882   14.1185  -10.2095 H   0  0  0  0  0  0  0  0  0  0  0  0
   -4.0431   13.0269  -10.9057 H   0  0  0  0  0  0  0  0  0  0  0  0
   -3.9735   15.4217  -12.4385 H   0  0  0  0  0  0  0  0  0  0  0  0
   -4.0914   15.9235  -10.7178 H   0  0  0  0  0  0  0  0  0  0  0  0
   -1.7243   15.2430  -11.9952 H   0  0  0  0  0  0  0  0  0  0  0  0
   -0.0031   13.9147   -9.0666 H   0  0  0  0  0  0  0  0  0  0  0  0
    0.0973   13.7152  -10.8489 H   0  0  0  0  0  0  0  0  0  0  0  0
    0.1416   15.3586  -10.1252 H   0  0  0  0  0  0  0  0  0  0  0  0
  1  2  2  0  0  0  0
  1  4  1  0  0  0  0
  1 11  1  0  0  0  0
  2  6  1  0  0  0  0
  3  4  2  0  0  0  0
  3  5  1  0  0  0  0
  5  6  2  0  0  0  0
  5  9  1  0  0  0  0
  6  7  1  0  0  0  0
  7  8  1  0  0  0  0
  7 10  2  3  0  0  0
  8  9  2  0  0  0  0
 10 12  1  0  0  0  0
 11 24  1  0  0  0  0
 12 13  1  0  0  0  0
 12 17  1  0  0  0  0
 13 14  2  0  0  0  0
 14 15  1  0  0  0  0
 15 16  1  0  0  0  0
 15 18  1  0  0  0  0
 16 17  2  0  0  0  0
 18 19  2  0  0  0  0
 18 22  1  0  0  0  0
 19 20  1  0  0  0  0
 20 21  1  0  0  0  0
 20 23  1  0  0  0  0
 21 22  2  0  0  0  0
 24 25  1  0  0  0  0
 25 26  1  0  0  0  0
 26 27  1  0  0  0  0
 27 28  2  0  0  0  0
 27 29  1  0  0  0  0
  2 30  1  0  0  0  0
  3 31  1  0  0  0  0
  4 32  1  0  0  0  0
 10 33  1  0  0  0  0
 11 34  1  0  0  0  0
 12 35  1  0  0  0  0
 13 36  1  0  0  0  0
 14 37  1  0  0  0  0
 15 38  1  0  0  0  0
 16 39  1  0  0  0  0
 17 40  1  0  0  0  0
 19 41  1  0  0  0  0
 22 42  1  0  0  0  0
 23 43  1  0  0  0  0
 23 44  1  0  0  0  0
 23 45  1  0  0  0  0
 24 46  1  0  0  0  0
 24 47  1  0  0  0  0
 25 48  1  0  0  0  0
 25 49  1  0  0  0  0
 26 50  1  0  0  0  0
 29 51  1  0  0  0  0
 29 52  1  0  0  0  0
 29 53  1  0  0  0  0
M  END
> <Name>
27

> <IC50[uM]>
0.68

$$$$
27
  -OEChem-05192314333D
 Structure written by MMmdl.
 53 56  0     1  0  0  0  0  0999 V2000
   -6.3855   12.3606  -12.0031 C   0  0  0  0  0  0  0  0  0  0  0  0
   -6.5214   11.8004  -10.7171 C   0  0  0  0  0  0  0  0  0  0  0  0
   -7.6991   10.5797  -13.0384 C   0  0  0  0  0  0  0  0  0  0  0  0
   -6.9626   11.7779  -13.1031 C   0  0  0  0  0  0  0  0  0  0  0  0
   -7.8238   10.0198  -11.7523 C   0  0  0  0  0  0  0  0  0  0  0  0
   -7.2557   10.6213  -10.5956 C   0  0  0  0  0  0  0  0  0  0  0  0
   -7.6268    9.7501   -9.5073 C   0  0  3  0  0  0  0  0  0  0  0  0
   -8.3057    8.7491   -9.9816 N   0  0  0  0  0  0  0  0  0  0  0  0
   -8.4330    8.8776  -11.2917 N   0  0  0  0  0  0  0  0  0  0  0  0
   -7.3352    9.8817   -8.0196 C   0  0  0  0  0  0  0  0  0  0  0  0
   -5.6205   13.5372  -12.2095 N   0  0  0  0  0  0  0  0  0  0  0  0
   -5.9727   10.4835   -7.7324 C   0  0  0  0  0  0  0  0  0  0  0  0
   -5.8611   11.7523   -7.1657 C   0  0  0  0  0  0  0  0  0  0  0  0
   -4.5946   12.2988   -6.9068 C   0  0  0  0  0  0  0  0  0  0  0  0
   -3.4432   11.5806   -7.2147 C   0  0  0  0  0  0  0  0  0  0  0  0
   -3.5570   10.3109   -7.7899 C   0  0  0  0  0  0  0  0  0  0  0  0
   -4.8253    9.7663   -8.0483 C   0  0  0  0  0  0  0  0  0  0  0  0
   -2.0926   12.1556   -6.9444 C   0  0  0  0  0  0  0  0  0  0  0  0
   -1.7338   13.4204   -6.4594 C   0  0  0  0  0  0  0  0  0  0  0  0
   -0.4064   13.4584   -6.4114 N   0  0  0  0  0  0  0  0  0  0  0  0
    0.1793   12.3493   -6.7865 N   0  0  0  0  0  0  0  0  0  0  0  0
   -0.7954   11.5387   -7.1512 C   0  0  0  0  0  0  0  0  0  0  0  0
    0.4205   14.5767   -6.0073 C   0  0  0  0  0  0  0  0  0  0  0  0
   -4.6894   13.8945  -11.1046 C   0  0  0  0  0  0  0  0  0  0  0  0
   -3.7822   15.1171  -11.3990 C   0  0  0  0  0  0  0  0  0  0  0  0
   -2.3310   14.9579  -11.2532 N   0  0  0  0  0  0  0  0  0  0  0  0
   -1.8099   14.4326  -10.1320 C   0  0  0  0  0  0  0  0  0  0  0  0
   -2.5019   14.0442   -9.2076 O   0  0  0  0  0  0  0  0  0  0  0  0
   -0.2869   14.3494  -10.0364 C   0  0  0  0  0  0  0  0  0  0  0  0
   -6.0716   12.2689   -9.8542 H   0  0  0  0  0  0  0  0  0  0  0  0
   -8.1374   10.1224  -13.9131 H   0  0  0  0  0  0  0  0  0  0  0  0
   -6.8466   12.2604  -14.0624 H   0  0  0  0  0  0  0  0  0  0  0  0
   -6.6939    9.1829   -9.6414 H   0  0  0  0  0  0  0  0  0  0  0  0
   -8.0269    9.5780   -7.2478 H   0  0  0  0  0  0  0  0  0  0  0  0
   -5.0791   13.4115  -13.0408 H   0  0  0  0  0  0  0  0  0  0  0  0
   -6.7507   12.3156   -6.9255 H   0  0  0  0  0  0  0  0  0  0  0  0
   -4.5132   13.2816   -6.4664 H   0  0  0  0  0  0  0  0  0  0  0  0
   -3.4540   11.1294   -6.2116 H   0  0  0  0  0  0  0  0  0  0  0  0
   -2.6683    9.7485   -8.0357 H   0  0  0  0  0  0  0  0  0  0  0  0
   -4.9092    8.7863   -8.4943 H   0  0  0  0  0  0  0  0  0  0  0  0
   -2.4090   14.2148   -6.1776 H   0  0  0  0  0  0  0  0  0  0  0  0
   -0.6475   10.5464   -7.5511 H   0  0  0  0  0  0  0  0  0  0  0  0
    1.4812   14.2962   -6.0855 H   0  0  0  0  0  0  0  0  0  0  0  0
    0.2196   15.4369   -6.6628 H   0  0  0  0  0  0  0  0  0  0  0  0
    0.1886   14.8468   -4.9665 H   0  0  0  0  0  0  0  0  0  0  0  0
   -5.2882   14.1185  -10.2095 H   0  0  0  0  0  0  0  0  0  0  0  0
   -4.0431   13.0269  -10.9057 H   0  0  0  0  0  0  0  0  0  0  0  0
   -3.9735   15.4217  -12.4385 H   0  0  0  0  0  0  0  0  0  0  0  0
   -4.0914   15.9235  -10.7178 H   0  0  0  0  0  0  0  0  0  0  0  0
   -1.7243   15.2430  -11.9952 H   0  0  0  0  0  0  0  0  0  0  0  0
   -0.0031   13.9147   -9.0666 H   0  0  0  0  0  0  0  0  0  0  0  0
    0.0973   13.7152  -10.8489 H   0  0  0  0  0  0  0  0  0  0  0  0
    0.1416   15.3586  -10.1252 H   0  0  0  0  0  0  0  0  0  0  0  0
  1  2  2  0  0  0  0
  1  4  1  0  0  0  0
  1 11  1  0  0  0  0
  2  6  1  0  0  0  0
  3  4  2  0  0  0  0
  3  5  1  0  0  0  0
  5  6  2  0  0  0  0
  5  9  1  0  0  0  0
  6  7  1  0  0  0  0
  7  8  1  0  0  0  0
  7 10  1  0  0  0  0
  8  9  2  0  0  0  0
 10 12  2  0  0  0  0
 11 24  1  0  0  0  0
 12 13  1  0  0  0  0
 12 17  1  0  0  0  0
 13 14  2  0  0  0  0
 14 15  1  0  0  0  0
 15 16  1  0  0  0  0
 15 18  1  0  0  0  0
 16 17  2  0  0  0  0
 18 19  2  0  0  0  0
 18 22  1  0  0  0  0
 19 20  1  0  0  0  0
 20 21  1  0  0  0  0
 20 23  1  0  0  0  0
 21 22  2  0  0  0  0
 24 25  1  0  0  0  0
 25 26  1  0  0  0  0
 26 27  1  0  0  0  0
 27 28  2  0  0  0  0
 27 29  1  0  0  0  0
  2 30  1  0  0  0  0
  3 31  1  0  0  0  0
  4 32  1  0  0  0  0
  7 33  1  0  0  0  0
 10 34  1  0  0  0  0
 11 35  1  0  0  0  0
 13 36  1  0  0  0  0
 14 37  1  0  0  0  0
 15 38  1  0  0  0  0
 16 39  1  0  0  0  0
 17 40  1  0  0  0  0
 19 41  1  0  0  0  0
 22 42  1  0  0  0  0
 23 43  1  0  0  0  0
 23 44  1  0  0  0  0
 23 45  1  0  0  0  0
 24 46  1  0  0  0  0
 24 47  1  0  0  0  0
 25 48  1  0  0  0  0
 25 49  1  0  0  0  0
 26 50  1  0  0  0  0
 29 51  1  0  0  0  0
 29 52  1  0  0  0  0
 29 53  1  0  0  0  0
M  END
> <Name>
27

> <IC50[uM]>
0.68

$$$$
27
  -OEChem-05192314333D
 Structure written by MMmdl.
 53 56  0     1  0  0  0  0  0999 V2000
   -6.3855   12.3606  -12.0031 C   0  0  0  0  0  0  0  0  0  0  0  0
   -6.5214   11.8004  -10.7171 C   0  0  0  0  0  0  0  0  0  0  0  0
   -7.6991   10.5797  -13.0384 C   0  0  0  0  0  0  0  0  0  0  0  0
   -6.9626   11.7779  -13.1031 C   0  0  0  0  0  0  0  0  0  0  0  0
   -7.8238   10.0198  -11.7523 C   0  0  3  0  0  0  0  0  0  0  0  0
   -7.2557   10.6213  -10.5956 C   0  0  3  0  0  0  0  0  0  0  0  0
   -7.6268    9.7501   -9.5073 C   0  0  0  0  0  0  0  0  0  0  0  0
   -8.3057    8.7491   -9.9816 N   0  0  0  0  0  0  0  0  0  0  0  0
   -8.4330    8.8776  -11.2917 N   0  0  0  0  0  0  0  0  0  0  0  0
   -7.3352    9.8817   -8.0196 C   0  0  0  0  0  0  0  0  0  0  0  0
   -5.6205   13.5372  -12.2095 N   0  0  0  0  0  0  0  0  0  0  0  0
   -5.9727   10.4835   -7.7324 C   0  0  0  0  0  0  0  0  0  0  0  0
   -5.8611   11.7523   -7.1657 C   0  0  0  0  0  0  0  0  0  0  0  0
   -4.5946   12.2988   -6.9068 C   0  0  0  0  0  0  0  0  0  0  0  0
   -3.4432   11.5806   -7.2147 C   0  0  0  0  0  0  0  0  0  0  0  0
   -3.5570   10.3109   -7.7899 C   0  0  0  0  0  0  0  0  0  0  0  0
   -4.8253    9.7663   -8.0483 C   0  0  0  0  0  0  0  0  0  0  0  0
   -2.0926   12.1556   -6.9444 C   0  0  0  0  0  0  0  0  0  0  0  0
   -1.7338   13.4204   -6.4594 C   0  0  0  0  0  0  0  0  0  0  0  0
   -0.4064   13.4584   -6.4114 N   0  0  0  0  0  0  0  0  0  0  0  0
    0.1793   12.3493   -6.7865 N   0  0  0  0  0  0  0  0  0  0  0  0
   -0.7954   11.5387   -7.1512 C   0  0  0  0  0  0  0  0  0  0  0  0
    0.4205   14.5767   -6.0073 C   0  0  0  0  0  0  0  0  0  0  0  0
   -4.6894   13.8945  -11.1046 C   0  0  0  0  0  0  0  0  0  0  0  0
   -3.7822   15.1171  -11.3990 C   0  0  0  0  0  0  0  0  0  0  0  0
   -2.3310   14.9579  -11.2532 N   0  0  0  0  0  0  0  0  0  0  0  0
   -1.8099   14.4326  -10.1320 C   0  0  0  0  0  0  0  0  0  0  0  0
   -2.5019   14.0442   -9.2076 O   0  0  0  0  0  0  0  0  0  0  0  0
   -0.2869   14.3494  -10.0364 C   0  0  0  0  0  0  0  0  0  0  0  0
   -6.0716   12.2689   -9.8542 H   0  0  0  0  0  0  0  0  0  0  0  0
   -8.1374   10.1224  -13.9131 H   0  0  0  0  0  0  0  0  0  0  0  0
   -6.8466   12.2604  -14.0624 H   0  0  0  0  0  0  0  0  0  0  0  0
   -8.7543   10.5845  -11.5930 H   0  0  0  0  0  0  0  0  0  0  0  0
   -8.1751   11.2060  -10.4447 H   0  0  0  0  0  0  0  0  0  0  0  0
   -8.0269    9.5780   -7.2478 H   0  0  0  0  0  0  0  0  0  0  0  0
   -5.0791   13.4115  -13.0408 H   0  0  0  0  0  0  0  0  0  0  0  0
   -6.7507   12.3156   -6.9255 H   0  0  0  0  0  0  0  0  0  0  0  0
   -4.5132   13.2816   -6.4664 H   0  0  0  0  0  0  0  0  0  0  0  0
   -2.6683    9.7485   -8.0357 H   0  0  0  0  0  0  0  0  0  0  0  0
   -4.9092    8.7863   -8.4943 H   0  0  0  0  0  0  0  0  0  0  0  0
   -2.4090   14.2148   -6.1776 H   0  0  0  0  0  0  0  0  0  0  0  0
   -0.6475   10.5464   -7.5511 H   0  0  0  0  0  0  0  0  0  0  0  0
    1.4812   14.2962   -6.0855 H   0  0  0  0  0  0  0  0  0  0  0  0
    0.2196   15.4369   -6.6628 H   0  0  0  0  0  0  0  0  0  0  0  0
    0.1886   14.8468   -4.9665 H   0  0  0  0  0  0  0  0  0  0  0  0
   -5.2882   14.1185  -10.2095 H   0  0  0  0  0  0  0  0  0  0  0  0
   -4.0431   13.0269  -10.9057 H   0  0  0  0  0  0  0  0  0  0  0  0
   -3.9735   15.4217  -12.4385 H   0  0  0  0  0  0  0  0  0  0  0  0
   -4.0914   15.9235  -10.7178 H   0  0  0  0  0  0  0  0  0  0  0  0
   -1.7243   15.2430  -11.9952 H   0  0  0  0  0  0  0  0  0  0  0  0
   -0.0031   13.9147   -9.0666 H   0  0  0  0  0  0  0  0  0  0  0  0
    0.0973   13.7152  -10.8489 H   0  0  0  0  0  0  0  0  0  0  0  0
    0.1416   15.3586  -10.1252 H   0  0  0  0  0  0  0  0  0  0  0  0
  1  2  2  0  0  0  0
  1  4  1  0  0  0  0
  1 11  1  0  0  0  0
  2  6  1  0  0  0  0
  3  4  2  0  0  0  0
  3  5  1  0  0  0  0
  5  6  1  0  0  0  0
  5  9  1  0  0  0  0
  6  7  1  0  0  0  0
  7  8  1  0  0  0  0
  7 10  2  3  0  0  0
  8  9  2  0  0  0  0
 10 12  1  0  0  0  0
 11 24  1  0  0  0  0
 12 13  2  0  0  0  0
 12 17  1  0  0  0  0
 13 14  1  0  0  0  0
 14 15  2  0  0  0  0
 15 16  1  0  0  0  0
 15 18  1  0  0  0  0
 16 17  2  0  0  0  0
 18 19  2  0  0  0  0
 18 22  1  0  0  0  0
 19 20  1  0  0  0  0
 20 21  1  0  0  0  0
 20 23  1  0  0  0  0
 21 22  2  0  0  0  0
 24 25  1  0  0  0  0
 25 26  1  0  0  0  0
 26 27  1  0  0  0  0
 27 28  2  0  0  0  0
 27 29  1  0  0  0  0
  2 30  1  0  0  0  0
  3 31  1  0  0  0  0
  4 32  1  0  0  0  0
  5 33  1  0  0  0  0
  6 34  1  0  0  0  0
 10 35  1  0  0  0  0
 11 36  1  0  0  0  0
 13 37  1  0  0  0  0
 14 38  1  0  0  0  0
 16 39  1  0  0  0  0
 17 40  1  0  0  0  0
 19 41  1  0  0  0  0
 22 42  1  0  0  0  0
 23 43  1  0  0  0  0
 23 44  1  0  0  0  0
 23 45  1  0  0  0  0
 24 46  1  0  0  0  0
 24 47  1  0  0  0  0
 25 48  1  0  0  0  0
 25 49  1  0  0  0  0
 26 50  1  0  0  0  0
 29 51  1  0  0  0  0
 29 52  1  0  0  0  0
 29 53  1  0  0  0  0
M  END
> <Name>
27

> <IC50[uM]>
0.68

$$$$
27
  -OEChem-05192314333D
 Structure written by MMmdl.
 53 56  0     1  0  0  0  0  0999 V2000
   -6.3855   12.3606  -12.0031 C   0  0  3  0  0  0  0  0  0  0  0  0
   -6.5214   11.8004  -10.7171 C   0  0  0  0  0  0  0  0  0  0  0  0
   -7.6991   10.5797  -13.0384 C   0  0  0  0  0  0  0  0  0  0  0  0
   -6.9626   11.7779  -13.1031 C   0  0  0  0  0  0  0  0  0  0  0  0
   -7.8238   10.0198  -11.7523 C   0  0  3  0  0  0  0  0  0  0  0  0
   -7.2557   10.6213  -10.5956 C   0  0  0  0  0  0  0  0  0  0  0  0
   -7.6268    9.7501   -9.5073 C   0  0  0  0  0  0  0  0  0  0  0  0
   -8.3057    8.7491   -9.9816 N   0  0  0  0  0  0  0  0  0  0  0  0
   -8.4330    8.8776  -11.2917 N   0  0  0  0  0  0  0  0  0  0  0  0
   -7.3352    9.8817   -8.0196 C   0  0  0  0  0  0  0  0  0  0  0  0
   -5.6205   13.5372  -12.2095 N   0  0  0  0  0  0  0  0  0  0  0  0
   -5.9727   10.4835   -7.7324 C   0  0  0  0  0  0  0  0  0  0  0  0
   -5.8611   11.7523   -7.1657 C   0  0  0  0  0  0  0  0  0  0  0  0
   -4.5946   12.2988   -6.9068 C   0  0  0  0  0  0  0  0  0  0  0  0
   -3.4432   11.5806   -7.2147 C   0  0  0  0  0  0  0  0  0  0  0  0
   -3.5570   10.3109   -7.7899 C   0  0  0  0  0  0  0  0  0  0  0  0
   -4.8253    9.7663   -8.0483 C   0  0  0  0  0  0  0  0  0  0  0  0
   -2.0926   12.1556   -6.9444 C   0  0  0  0  0  0  0  0  0  0  0  0
   -1.7338   13.4204   -6.4594 C   0  0  0  0  0  0  0  0  0  0  0  0
   -0.4064   13.4584   -6.4114 N   0  0  0  0  0  0  0  0  0  0  0  0
    0.1793   12.3493   -6.7865 N   0  0  0  0  0  0  0  0  0  0  0  0
   -0.7954   11.5387   -7.1512 C   0  0  0  0  0  0  0  0  0  0  0  0
    0.4205   14.5767   -6.0073 C   0  0  0  0  0  0  0  0  0  0  0  0
   -4.6894   13.8945  -11.1046 C   0  0  0  0  0  0  0  0  0  0  0  0
   -3.7822   15.1171  -11.3990 C   0  0  0  0  0  0  0  0  0  0  0  0
   -2.3310   14.9579  -11.2532 N   0  0  0  0  0  0  0  0  0  0  0  0
   -1.8099   14.4326  -10.1320 C   0  0  0  0  0  0  0  0  0  0  0  0
   -2.5019   14.0442   -9.2076 O   0  0  0  0  0  0  0  0  0  0  0  0
   -0.2869   14.3494  -10.0364 C   0  0  0  0  0  0  0  0  0  0  0  0
   -7.2886   12.9676  -11.8418 H   0  0  0  0  0  0  0  0  0  0  0  0
   -6.0716   12.2689   -9.8542 H   0  0  0  0  0  0  0  0  0  0  0  0
   -8.1374   10.1224  -13.9131 H   0  0  0  0  0  0  0  0  0  0  0  0
   -6.8466   12.2604  -14.0624 H   0  0  0  0  0  0  0  0  0  0  0  0
   -8.7543   10.5845  -11.5930 H   0  0  0  0  0  0  0  0  0  0  0  0
   -8.0269    9.5780   -7.2478 H   0  0  0  0  0  0  0  0  0  0  0  0
   -5.0791   13.4115  -13.0408 H   0  0  0  0  0  0  0  0  0  0  0  0
   -6.7507   12.3156   -6.9255 H   0  0  0  0  0  0  0  0  0  0  0  0
   -4.5132   13.2816   -6.4664 H   0  0  0  0  0  0  0  0  0  0  0  0
   -2.6683    9.7485   -8.0357 H   0  0  0  0  0  0  0  0  0  0  0  0
   -4.9092    8.7863   -8.4943 H   0  0  0  0  0  0  0  0  0  0  0  0
   -2.4090   14.2148   -6.1776 H   0  0  0  0  0  0  0  0  0  0  0  0
   -0.6475   10.5464   -7.5511 H   0  0  0  0  0  0  0  0  0  0  0  0
    1.4812   14.2962   -6.0855 H   0  0  0  0  0  0  0  0  0  0  0  0
    0.2196   15.4369   -6.6628 H   0  0  0  0  0  0  0  0  0  0  0  0
    0.1886   14.8468   -4.9665 H   0  0  0  0  0  0  0  0  0  0  0  0
   -5.2882   14.1185  -10.2095 H   0  0  0  0  0  0  0  0  0  0  0  0
   -4.0431   13.0269  -10.9057 H   0  0  0  0  0  0  0  0  0  0  0  0
   -3.9735   15.4217  -12.4385 H   0  0  0  0  0  0  0  0  0  0  0  0
   -4.0914   15.9235  -10.7178 H   0  0  0  0  0  0  0  0  0  0  0  0
   -1.7243   15.2430  -11.9952 H   0  0  0  0  0  0  0  0  0  0  0  0
   -0.0031   13.9147   -9.0666 H   0  0  0  0  0  0  0  0  0  0  0  0
    0.0973   13.7152  -10.8489 H   0  0  0  0  0  0  0  0  0  0  0  0
    0.1416   15.3586  -10.1252 H   0  0  0  0  0  0  0  0  0  0  0  0
  1  2  1  0  0  0  0
  1  4  1  0  0  0  0
  1 11  1  0  0  0  0
  2  6  2  0  0  0  0
  3  4  2  0  0  0  0
  3  5  1  0  0  0  0
  5  6  1  0  0  0  0
  5  9  1  0  0  0  0
  6  7  1  0  0  0  0
  7  8  1  0  0  0  0
  7 10  2  3  0  0  0
  8  9  2  0  0  0  0
 10 12  1  0  0  0  0
 11 24  1  0  0  0  0
 12 13  2  0  0  0  0
 12 17  1  0  0  0  0
 13 14  1  0  0  0  0
 14 15  2  0  0  0  0
 15 16  1  0  0  0  0
 15 18  1  0  0  0  0
 16 17  2  0  0  0  0
 18 19  2  0  0  0  0
 18 22  1  0  0  0  0
 19 20  1  0  0  0  0
 20 21  1  0  0  0  0
 20 23  1  0  0  0  0
 21 22  2  0  0  0  0
 24 25  1  0  0  0  0
 25 26  1  0  0  0  0
 26 27  1  0  0  0  0
 27 28  2  0  0  0  0
 27 29  1  0  0  0  0
  1 30  1  0  0  0  0
  2 31  1  0  0  0  0
  3 32  1  0  0  0  0
  4 33  1  0  0  0  0
  5 34  1  0  0  0  0
 10 35  1  0  0  0  0
 11 36  1  0  0  0  0
 13 37  1  0  0  0  0
 14 38  1  0  0  0  0
 16 39  1  0  0  0  0
 17 40  1  0  0  0  0
 19 41  1  0  0  0  0
 22 42  1  0  0  0  0
 23 43  1  0  0  0  0
 23 44  1  0  0  0  0
 23 45  1  0  0  0  0
 24 46  1  0  0  0  0
 24 47  1  0  0  0  0
 25 48  1  0  0  0  0
 25 49  1  0  0  0  0
 26 50  1  0  0  0  0
 29 51  1  0  0  0  0
 29 52  1  0  0  0  0
 29 53  1  0  0  0  0
M  END
> <Name>
27

> <IC50[uM]>
0.68

$$$$
27
  -OEChem-05192314333D
 Structure written by MMmdl.
 53 56  0     1  0  0  0  0  0999 V2000
   -6.3855   12.3606  -12.0031 C   0  0  0  0  0  0  0  0  0  0  0  0
   -6.5214   11.8004  -10.7171 C   0  0  0  0  0  0  0  0  0  0  0  0
   -7.6991   10.5797  -13.0384 C   0  0  0  0  0  0  0  0  0  0  0  0
   -6.9626   11.7779  -13.1031 C   0  0  0  0  0  0  0  0  0  0  0  0
   -7.8238   10.0198  -11.7523 C   0  0  3  0  0  0  0  0  0  0  0  0
   -7.2557   10.6213  -10.5956 C   0  0  0  0  0  0  0  0  0  0  0  0
   -7.6268    9.7501   -9.5073 C   0  0  0  0  0  0  0  0  0  0  0  0
   -8.3057    8.7491   -9.9816 N   0  0  0  0  0  0  0  0  0  0  0  0
   -8.4330    8.8776  -11.2917 N   0  0  0  0  0  0  0  0  0  0  0  0
   -7.3352    9.8817   -8.0196 C   0  0  0  0  0  0  0  0  0  0  0  0
   -5.6205   13.5372  -12.2095 N   0  0  0  0  0  0  0  0  0  0  0  0
   -5.9727   10.4835   -7.7324 C   0  0  0  0  0  0  0  0  0  0  0  0
   -5.8611   11.7523   -7.1657 C   0  0  0  0  0  0  0  0  0  0  0  0
   -4.5946   12.2988   -6.9068 C   0  0  0  0  0  0  0  0  0  0  0  0
   -3.4432   11.5806   -7.2147 C   0  0  0  0  0  0  0  0  0  0  0  0
   -3.5570   10.3109   -7.7899 C   0  0  0  0  0  0  0  0  0  0  0  0
   -4.8253    9.7663   -8.0483 C   0  0  0  0  0  0  0  0  0  0  0  0
   -2.0926   12.1556   -6.9444 C   0  0  0  0  0  0  0  0  0  0  0  0
   -1.7338   13.4204   -6.4594 C   0  0  0  0  0  0  0  0  0  0  0  0
   -0.4064   13.4584   -6.4114 N   0  0  0  0  0  0  0  0  0  0  0  0
    0.1793   12.3493   -6.7865 N   0  0  0  0  0  0  0  0  0  0  0  0
   -0.7954   11.5387   -7.1512 C   0  0  0  0  0  0  0  0  0  0  0  0
    0.4205   14.5767   -6.0073 C   0  0  0  0  0  0  0  0  0  0  0  0
   -4.6894   13.8945  -11.1046 C   0  0  0  0  0  0  0  0  0  0  0  0
   -3.7822   15.1171  -11.3990 C   0  0  0  0  0  0  0  0  0  0  0  0
   -2.3310   14.9579  -11.2532 N   0  0  0  0  0  0  0  0  0  0  0  0
   -1.8099   14.4326  -10.1320 C   0  0  0  0  0  0  0  0  0  0  0  0
   -2.5019   14.0442   -9.2076 O   0  0  0  0  0  0  0  0  0  0  0  0
   -0.2869   14.3494  -10.0364 C   0  0  0  0  0  0  0  0  0  0  0  0
   -6.0716   12.2689   -9.8542 H   0  0  0  0  0  0  0  0  0  0  0  0
   -8.7105   10.7812  -13.4211 H   0  0  0  0  0  0  0  0  0  0  0  0
   -7.2031    9.8404  -13.6845 H   0  0  0  0  0  0  0  0  0  0  0  0
   -6.8466   12.2604  -14.0624 H   0  0  0  0  0  0  0  0  0  0  0  0
   -8.7543   10.5845  -11.5930 H   0  0  0  0  0  0  0  0  0  0  0  0
   -8.0269    9.5780   -7.2478 H   0  0  0  0  0  0  0  0  0  0  0  0
   -5.0791   13.4115  -13.0408 H   0  0  0  0  0  0  0  0  0  0  0  0
   -6.7507   12.3156   -6.9255 H   0  0  0  0  0  0  0  0  0  0  0  0
   -4.5132   13.2816   -6.4664 H   0  0  0  0  0  0  0  0  0  0  0  0
   -2.6683    9.7485   -8.0357 H   0  0  0  0  0  0  0  0  0  0  0  0
   -4.9092    8.7863   -8.4943 H   0  0  0  0  0  0  0  0  0  0  0  0
   -2.4090   14.2148   -6.1776 H   0  0  0  0  0  0  0  0  0  0  0  0
   -0.6475   10.5464   -7.5511 H   0  0  0  0  0  0  0  0  0  0  0  0
    1.4812   14.2962   -6.0855 H   0  0  0  0  0  0  0  0  0  0  0  0
    0.2196   15.4369   -6.6628 H   0  0  0  0  0  0  0  0  0  0  0  0
    0.1886   14.8468   -4.9665 H   0  0  0  0  0  0  0  0  0  0  0  0
   -5.2882   14.1185  -10.2095 H   0  0  0  0  0  0  0  0  0  0  0  0
   -4.0431   13.0269  -10.9057 H   0  0  0  0  0  0  0  0  0  0  0  0
   -3.9735   15.4217  -12.4385 H   0  0  0  0  0  0  0  0  0  0  0  0
   -4.0914   15.9235  -10.7178 H   0  0  0  0  0  0  0  0  0  0  0  0
   -1.7243   15.2430  -11.9952 H   0  0  0  0  0  0  0  0  0  0  0  0
   -0.0031   13.9147   -9.0666 H   0  0  0  0  0  0  0  0  0  0  0  0
    0.0973   13.7152  -10.8489 H   0  0  0  0  0  0  0  0  0  0  0  0
    0.1416   15.3586  -10.1252 H   0  0  0  0  0  0  0  0  0  0  0  0
  1  2  1  0  0  0  0
  1  4  2  0  0  0  0
  1 11  1  0  0  0  0
  2  6  2  0  0  0  0
  3  4  1  0  0  0  0
  3  5  1  0  0  0  0
  5  6  1  0  0  0  0
  5  9  1  0  0  0  0
  6  7  1  0  0  0  0
  7  8  1  0  0  0  0
  7 10  2  3  0  0  0
  8  9  2  0  0  0  0
 10 12  1  0  0  0  0
 11 24  1  0  0  0  0
 12 13  2  0  0  0  0
 12 17  1  0  0  0  0
 13 14  1  0  0  0  0
 14 15  2  0  0  0  0
 15 16  1  0  0  0  0
 15 18  1  0  0  0  0
 16 17  2  0  0  0  0
 18 19  2  0  0  0  0
 18 22  1  0  0  0  0
 19 20  1  0  0  0  0
 20 21  1  0  0  0  0
 20 23  1  0  0  0  0
 21 22  2  0  0  0  0
 24 25  1  0  0  0  0
 25 26  1  0  0  0  0
 26 27  1  0  0  0  0
 27 28  2  0  0  0  0
 27 29  1  0  0  0  0
  2 30  1  0  0  0  0
  3 31  1  0  0  0  0
  3 32  1  0  0  0  0
  4 33  1  0  0  0  0
  5 34  1  0  0  0  0
 10 35  1  0  0  0  0
 11 36  1  0  0  0  0
 13 37  1  0  0  0  0
 14 38  1  0  0  0  0
 16 39  1  0  0  0  0
 17 40  1  0  0  0  0
 19 41  1  0  0  0  0
 22 42  1  0  0  0  0
 23 43  1  0  0  0  0
 23 44  1  0  0  0  0
 23 45  1  0  0  0  0
 24 46  1  0  0  0  0
 24 47  1  0  0  0  0
 25 48  1  0  0  0  0
 25 49  1  0  0  0  0
 26 50  1  0  0  0  0
 29 51  1  0  0  0  0
 29 52  1  0  0  0  0
 29 53  1  0  0  0  0
M  END
> <Name>
27

> <IC50[uM]>
0.68

$$$$
27
  -OEChem-05192314333D
 Structure written by MMmdl.
 53 56  0     1  0  0  0  0  0999 V2000
   -6.3855   12.3606  -12.0031 C   0  0  0  0  0  0  0  0  0  0  0  0
   -6.5214   11.8004  -10.7171 C   0  0  0  0  0  0  0  0  0  0  0  0
   -7.6991   10.5797  -13.0384 C   0  0  0  0  0  0  0  0  0  0  0  0
   -6.9626   11.7779  -13.1031 C   0  0  0  0  0  0  0  0  0  0  0  0
   -7.8238   10.0198  -11.7523 C   0  0  0  0  0  0  0  0  0  0  0  0
   -7.2557   10.6213  -10.5956 C   0  0  3  0  0  0  0  0  0  0  0  0
   -7.6268    9.7501   -9.5073 C   0  0  0  0  0  0  0  0  0  0  0  0
   -8.3057    8.7491   -9.9816 N   0  0  0  0  0  0  0  0  0  0  0  0
   -8.4330    8.8776  -11.2917 N   0  0  0  0  0  0  0  0  0  0  0  0
   -7.3352    9.8817   -8.0196 C   0  0  0  0  0  0  0  0  0  0  0  0
   -5.6205   13.5372  -12.2095 N   0  0  0  0  0  0  0  0  0  0  0  0
   -5.9727   10.4835   -7.7324 C   0  0  0  0  0  0  0  0  0  0  0  0
   -5.8611   11.7523   -7.1657 C   0  0  0  0  0  0  0  0  0  0  0  0
   -4.5946   12.2988   -6.9068 C   0  0  0  0  0  0  0  0  0  0  0  0
   -3.4432   11.5806   -7.2147 C   0  0  0  0  0  0  0  0  0  0  0  0
   -3.5570   10.3109   -7.7899 C   0  0  0  0  0  0  0  0  0  0  0  0
   -4.8253    9.7663   -8.0483 C   0  0  0  0  0  0  0  0  0  0  0  0
   -2.0926   12.1556   -6.9444 C   0  0  0  0  0  0  0  0  0  0  0  0
   -1.7338   13.4204   -6.4594 C   0  0  0  0  0  0  0  0  0  0  0  0
   -0.4064   13.4584   -6.4114 N   0  0  0  0  0  0  0  0  0  0  0  0
    0.1793   12.3493   -6.7865 N   0  0  0  0  0  0  0  0  0  0  0  0
   -0.7954   11.5387   -7.1512 C   0  0  0  0  0  0  0  0  0  0  0  0
    0.4205   14.5767   -6.0073 C   0  0  0  0  0  0  0  0  0  0  0  0
   -4.6894   13.8945  -11.1046 C   0  0  0  0  0  0  0  0  0  0  0  0
   -3.7822   15.1171  -11.3990 C   0  0  0  0  0  0  0  0  0  0  0  0
   -2.3310   14.9579  -11.2532 N   0  0  0  0  0  0  0  0  0  0  0  0
   -1.8099   14.4326  -10.1320 C   0  0  0  0  0  0  0  0  0  0  0  0
   -2.5019   14.0442   -9.2076 O   0  0  0  0  0  0  0  0  0  0  0  0
   -0.2869   14.3494  -10.0364 C   0  0  0  0  0  0  0  0  0  0  0  0
   -6.0716   12.2689   -9.8542 H   0  0  0  0  0  0  0  0  0  0  0  0
   -8.1374   10.1224  -13.9131 H   0  0  0  0  0  0  0  0  0  0  0  0
   -7.6459   12.5314  -13.5218 H   0  0  0  0  0  0  0  0  0  0  0  0
   -6.1429   11.5918  -13.8126 H   0  0  0  0  0  0  0  0  0  0  0  0
   -8.1751   11.2060  -10.4447 H   0  0  0  0  0  0  0  0  0  0  0  0
   -8.0269    9.5780   -7.2478 H   0  0  0  0  0  0  0  0  0  0  0  0
   -5.0791   13.4115  -13.0408 H   0  0  0  0  0  0  0  0  0  0  0  0
   -6.7507   12.3156   -6.9255 H   0  0  0  0  0  0  0  0  0  0  0  0
   -4.5132   13.2816   -6.4664 H   0  0  0  0  0  0  0  0  0  0  0  0
   -2.6683    9.7485   -8.0357 H   0  0  0  0  0  0  0  0  0  0  0  0
   -4.9092    8.7863   -8.4943 H   0  0  0  0  0  0  0  0  0  0  0  0
   -2.4090   14.2148   -6.1776 H   0  0  0  0  0  0  0  0  0  0  0  0
   -0.6475   10.5464   -7.5511 H   0  0  0  0  0  0  0  0  0  0  0  0
    1.4812   14.2962   -6.0855 H   0  0  0  0  0  0  0  0  0  0  0  0
    0.2196   15.4369   -6.6628 H   0  0  0  0  0  0  0  0  0  0  0  0
    0.1886   14.8468   -4.9665 H   0  0  0  0  0  0  0  0  0  0  0  0
   -5.2882   14.1185  -10.2095 H   0  0  0  0  0  0  0  0  0  0  0  0
   -4.0431   13.0269  -10.9057 H   0  0  0  0  0  0  0  0  0  0  0  0
   -3.9735   15.4217  -12.4385 H   0  0  0  0  0  0  0  0  0  0  0  0
   -4.0914   15.9235  -10.7178 H   0  0  0  0  0  0  0  0  0  0  0  0
   -1.7243   15.2430  -11.9952 H   0  0  0  0  0  0  0  0  0  0  0  0
   -0.0031   13.9147   -9.0666 H   0  0  0  0  0  0  0  0  0  0  0  0
    0.0973   13.7152  -10.8489 H   0  0  0  0  0  0  0  0  0  0  0  0
    0.1416   15.3586  -10.1252 H   0  0  0  0  0  0  0  0  0  0  0  0
  1  2  2  0  0  0  0
  1  4  1  0  0  0  0
  1 11  1  0  0  0  0
  2  6  1  0  0  0  0
  3  4  1  0  0  0  0
  3  5  2  0  0  0  0
  5  6  1  0  0  0  0
  5  9  1  0  0  0  0
  6  7  1  0  0  0  0
  7  8  1  0  0  0  0
  7 10  2  3  0  0  0
  8  9  2  0  0  0  0
 10 12  1  0  0  0  0
 11 24  1  0  0  0  0
 12 13  2  0  0  0  0
 12 17  1  0  0  0  0
 13 14  1  0  0  0  0
 14 15  2  0  0  0  0
 15 16  1  0  0  0  0
 15 18  1  0  0  0  0
 16 17  2  0  0  0  0
 18 19  2  0  0  0  0
 18 22  1  0  0  0  0
 19 20  1  0  0  0  0
 20 21  1  0  0  0  0
 20 23  1  0  0  0  0
 21 22  2  0  0  0  0
 24 25  1  0  0  0  0
 25 26  1  0  0  0  0
 26 27  1  0  0  0  0
 27 28  2  0  0  0  0
 27 29  1  0  0  0  0
  2 30  1  0  0  0  0
  3 31  1  0  0  0  0
  4 32  1  0  0  0  0
  4 33  1  0  0  0  0
  6 34  1  0  0  0  0
 10 35  1  0  0  0  0
 11 36  1  0  0  0  0
 13 37  1  0  0  0  0
 14 38  1  0  0  0  0
 16 39  1  0  0  0  0
 17 40  1  0  0  0  0
 19 41  1  0  0  0  0
 22 42  1  0  0  0  0
 23 43  1  0  0  0  0
 23 44  1  0  0  0  0
 23 45  1  0  0  0  0
 24 46  1  0  0  0  0
 24 47  1  0  0  0  0
 25 48  1  0  0  0  0
 25 49  1  0  0  0  0
 26 50  1  0  0  0  0
 29 51  1  0  0  0  0
 29 52  1  0  0  0  0
 29 53  1  0  0  0  0
M  END
> <Name>
27

> <IC50[uM]>
0.68

$$$$
27
  -OEChem-05192314333D
 Structure written by MMmdl.
 53 56  0     1  0  0  0  0  0999 V2000
   -6.3855   12.3606  -12.0031 C   0  0  3  0  0  0  0  0  0  0  0  0
   -6.5214   11.8004  -10.7171 C   0  0  0  0  0  0  0  0  0  0  0  0
   -7.6991   10.5797  -13.0384 C   0  0  0  0  0  0  0  0  0  0  0  0
   -6.9626   11.7779  -13.1031 C   0  0  0  0  0  0  0  0  0  0  0  0
   -7.8238   10.0198  -11.7523 C   0  0  0  0  0  0  0  0  0  0  0  0
   -7.2557   10.6213  -10.5956 C   0  0  0  0  0  0  0  0  0  0  0  0
   -7.6268    9.7501   -9.5073 C   0  0  0  0  0  0  0  0  0  0  0  0
   -8.3057    8.7491   -9.9816 N   0  0  0  0  0  0  0  0  0  0  0  0
   -8.4330    8.8776  -11.2917 N   0  0  0  0  0  0  0  0  0  0  0  0
   -7.3352    9.8817   -8.0196 C   0  0  0  0  0  0  0  0  0  0  0  0
   -5.6205   13.5372  -12.2095 N   0  0  0  0  0  0  0  0  0  0  0  0
   -5.9727   10.4835   -7.7324 C   0  0  0  0  0  0  0  0  0  0  0  0
   -5.8611   11.7523   -7.1657 C   0  0  0  0  0  0  0  0  0  0  0  0
   -4.5946   12.2988   -6.9068 C   0  0  0  0  0  0  0  0  0  0  0  0
   -3.4432   11.5806   -7.2147 C   0  0  0  0  0  0  0  0  0  0  0  0
   -3.5570   10.3109   -7.7899 C   0  0  0  0  0  0  0  0  0  0  0  0
   -4.8253    9.7663   -8.0483 C   0  0  0  0  0  0  0  0  0  0  0  0
   -2.0926   12.1556   -6.9444 C   0  0  0  0  0  0  0  0  0  0  0  0
   -1.7338   13.4204   -6.4594 C   0  0  0  0  0  0  0  0  0  0  0  0
   -0.4064   13.4584   -6.4114 N   0  0  0  0  0  0  0  0  0  0  0  0
    0.1793   12.3493   -6.7865 N   0  0  0  0  0  0  0  0  0  0  0  0
   -0.7954   11.5387   -7.1512 C   0  0  0  0  0  0  0  0  0  0  0  0
    0.4205   14.5767   -6.0073 C   0  0  0  0  0  0  0  0  0  0  0  0
   -4.6894   13.8945  -11.1046 C   0  0  0  0  0  0  0  0  0  0  0  0
   -3.7822   15.1171  -11.3990 C   0  0  0  0  0  0  0  0  0  0  0  0
   -2.3310   14.9579  -11.2532 N   0  0  0  0  0  0  0  0  0  0  0  0
   -1.8099   14.4326  -10.1320 C   0  0  0  0  0  0  0  0  0  0  0  0
   -2.5019   14.0442   -9.2076 O   0  0  0  0  0  0  0  0  0  0  0  0
   -0.2869   14.3494  -10.0364 C   0  0  0  0  0  0  0  0  0  0  0  0
   -7.2886   12.9676  -11.8418 H   0  0  0  0  0  0  0  0  0  0  0  0
   -6.0716   12.2689   -9.8542 H   0  0  0  0  0  0  0  0  0  0  0  0
   -8.1374   10.1224  -13.9131 H   0  0  0  0  0  0  0  0  0  0  0  0
   -7.6459   12.5314  -13.5218 H   0  0  0  0  0  0  0  0  0  0  0  0
   -6.1429   11.5918  -13.8126 H   0  0  0  0  0  0  0  0  0  0  0  0
   -8.0269    9.5780   -7.2478 H   0  0  0  0  0  0  0  0  0  0  0  0
   -5.0791   13.4115  -13.0408 H   0  0  0  0  0  0  0  0  0  0  0  0
   -6.7507   12.3156   -6.9255 H   0  0  0  0  0  0  0  0  0  0  0  0
   -4.5132   13.2816   -6.4664 H   0  0  0  0  0  0  0  0  0  0  0  0
   -2.6683    9.7485   -8.0357 H   0  0  0  0  0  0  0  0  0  0  0  0
   -4.9092    8.7863   -8.4943 H   0  0  0  0  0  0  0  0  0  0  0  0
   -2.4090   14.2148   -6.1776 H   0  0  0  0  0  0  0  0  0  0  0  0
   -0.6475   10.5464   -7.5511 H   0  0  0  0  0  0  0  0  0  0  0  0
    1.4812   14.2962   -6.0855 H   0  0  0  0  0  0  0  0  0  0  0  0
    0.2196   15.4369   -6.6628 H   0  0  0  0  0  0  0  0  0  0  0  0
    0.1886   14.8468   -4.9665 H   0  0  0  0  0  0  0  0  0  0  0  0
   -5.2882   14.1185  -10.2095 H   0  0  0  0  0  0  0  0  0  0  0  0
   -4.0431   13.0269  -10.9057 H   0  0  0  0  0  0  0  0  0  0  0  0
   -3.9735   15.4217  -12.4385 H   0  0  0  0  0  0  0  0  0  0  0  0
   -4.0914   15.9235  -10.7178 H   0  0  0  0  0  0  0  0  0  0  0  0
   -1.7243   15.2430  -11.9952 H   0  0  0  0  0  0  0  0  0  0  0  0
   -0.0031   13.9147   -9.0666 H   0  0  0  0  0  0  0  0  0  0  0  0
    0.0973   13.7152  -10.8489 H   0  0  0  0  0  0  0  0  0  0  0  0
    0.1416   15.3586  -10.1252 H   0  0  0  0  0  0  0  0  0  0  0  0
  1  2  1  0  0  0  0
  1  4  1  0  0  0  0
  1 11  1  0  0  0  0
  2  6  2  0  0  0  0
  3  4  1  0  0  0  0
  3  5  2  0  0  0  0
  5  6  1  0  0  0  0
  5  9  1  0  0  0  0
  6  7  1  0  0  0  0
  7  8  1  0  0  0  0
  7 10  2  3  0  0  0
  8  9  2  0  0  0  0
 10 12  1  0  0  0  0
 11 24  1  0  0  0  0
 12 13  2  0  0  0  0
 12 17  1  0  0  0  0
 13 14  1  0  0  0  0
 14 15  2  0  0  0  0
 15 16  1  0  0  0  0
 15 18  1  0  0  0  0
 16 17  2  0  0  0  0
 18 19  2  0  0  0  0
 18 22  1  0  0  0  0
 19 20  1  0  0  0  0
 20 21  1  0  0  0  0
 20 23  1  0  0  0  0
 21 22  2  0  0  0  0
 24 25  1  0  0  0  0
 25 26  1  0  0  0  0
 26 27  1  0  0  0  0
 27 28  2  0  0  0  0
 27 29  1  0  0  0  0
  1 30  1  0  0  0  0
  2 31  1  0  0  0  0
  3 32  1  0  0  0  0
  4 33  1  0  0  0  0
  4 34  1  0  0  0  0
 10 35  1  0  0  0  0
 11 36  1  0  0  0  0
 13 37  1  0  0  0  0
 14 38  1  0  0  0  0
 16 39  1  0  0  0  0
 17 40  1  0  0  0  0
 19 41  1  0  0  0  0
 22 42  1  0  0  0  0
 23 43  1  0  0  0  0
 23 44  1  0  0  0  0
 23 45  1  0  0  0  0
 24 46  1  0  0  0  0
 24 47  1  0  0  0  0
 25 48  1  0  0  0  0
 25 49  1  0  0  0  0
 26 50  1  0  0  0  0
 29 51  1  0  0  0  0
 29 52  1  0  0  0  0
 29 53  1  0  0  0  0
M  END
> <Name>
27

> <IC50[uM]>
0.68

$$$$
27
  -OEChem-05192314333D
 Structure written by MMmdl.
 53 56  0     0  0  0  0  0  0999 V2000
   -6.3855   12.3606  -12.0031 C   0  0  0  0  0  0  0  0  0  0  0  0
   -6.5214   11.8004  -10.7171 C   0  0  0  0  0  0  0  0  0  0  0  0
   -7.6991   10.5797  -13.0384 C   0  0  0  0  0  0  0  0  0  0  0  0
   -6.9626   11.7779  -13.1031 C   0  0  0  0  0  0  0  0  0  0  0  0
   -7.8238   10.0198  -11.7523 C   0  0  0  0  0  0  0  0  0  0  0  0
   -7.2557   10.6213  -10.5956 C   0  0  0  0  0  0  0  0  0  0  0  0
   -7.6268    9.7501   -9.5073 C   0  0  0  0  0  0  0  0  0  0  0  0
   -8.3057    8.7491   -9.9816 N   0  0  0  0  0  0  0  0  0  0  0  0
   -8.4330    8.8776  -11.2917 N   0  0  0  0  0  0  0  0  0  0  0  0
   -7.3352    9.8817   -8.0196 C   0  0  0  0  0  0  0  0  0  0  0  0
   -5.6205   13.5372  -12.2095 N   0  0  0  0  0  0  0  0  0  0  0  0
   -5.9727   10.4835   -7.7324 C   0  0  0  0  0  0  0  0  0  0  0  0
   -5.8611   11.7523   -7.1657 C   0  0  0  0  0  0  0  0  0  0  0  0
   -4.5946   12.2988   -6.9068 C   0  0  0  0  0  0  0  0  0  0  0  0
   -3.4432   11.5806   -7.2147 C   0  0  0  0  0  0  0  0  0  0  0  0
   -3.5570   10.3109   -7.7899 C   0  0  0  0  0  0  0  0  0  0  0  0
   -4.8253    9.7663   -8.0483 C   0  0  0  0  0  0  0  0  0  0  0  0
   -2.0926   12.1556   -6.9444 C   0  0  0  0  0  0  0  0  0  0  0  0
   -1.7338   13.4204   -6.4594 C   0  0  0  0  0  0  0  0  0  0  0  0
   -0.4064   13.4584   -6.4114 N   0  0  0  0  0  0  0  0  0  0  0  0
    0.1793   12.3493   -6.7865 N   0  0  0  0  0  0  0  0  0  0  0  0
   -0.7954   11.5387   -7.1512 C   0  0  0  0  0  0  0  0  0  0  0  0
    0.4205   14.5767   -6.0073 C   0  0  0  0  0  0  0  0  0  0  0  0
   -4.6894   13.8945  -11.1046 C   0  0  0  0  0  0  0  0  0  0  0  0
   -3.7822   15.1171  -11.3990 C   0  0  0  0  0  0  0  0  0  0  0  0
   -2.3310   14.9579  -11.2532 N   0  0  0  0  0  0  0  0  0  0  0  0
   -1.8099   14.4326  -10.1320 C   0  0  0  0  0  0  0  0  0  0  0  0
   -2.5019   14.0442   -9.2076 O   0  0  0  0  0  0  0  0  0  0  0  0
   -0.2869   14.3494  -10.0364 C   0  0  0  0  0  0  0  0  0  0  0  0
   -6.0716   12.2689   -9.8542 H   0  0  0  0  0  0  0  0  0  0  0  0
   -8.7105   10.7812  -13.4211 H   0  0  0  0  0  0  0  0  0  0  0  0
   -7.2031    9.8404  -13.6845 H   0  0  0  0  0  0  0  0  0  0  0  0
   -7.6459   12.5314  -13.5218 H   0  0  0  0  0  0  0  0  0  0  0  0
   -6.1429   11.5918  -13.8126 H   0  0  0  0  0  0  0  0  0  0  0  0
   -8.0269    9.5780   -7.2478 H   0  0  0  0  0  0  0  0  0  0  0  0
   -5.0791   13.4115  -13.0408 H   0  0  0  0  0  0  0  0  0  0  0  0
   -6.7507   12.3156   -6.9255 H   0  0  0  0  0  0  0  0  0  0  0  0
   -4.5132   13.2816   -6.4664 H   0  0  0  0  0  0  0  0  0  0  0  0
   -2.6683    9.7485   -8.0357 H   0  0  0  0  0  0  0  0  0  0  0  0
   -4.9092    8.7863   -8.4943 H   0  0  0  0  0  0  0  0  0  0  0  0
   -2.4090   14.2148   -6.1776 H   0  0  0  0  0  0  0  0  0  0  0  0
   -0.6475   10.5464   -7.5511 H   0  0  0  0  0  0  0  0  0  0  0  0
    1.4812   14.2962   -6.0855 H   0  0  0  0  0  0  0  0  0  0  0  0
    0.2196   15.4369   -6.6628 H   0  0  0  0  0  0  0  0  0  0  0  0
    0.1886   14.8468   -4.9665 H   0  0  0  0  0  0  0  0  0  0  0  0
   -5.2882   14.1185  -10.2095 H   0  0  0  0  0  0  0  0  0  0  0  0
   -4.0431   13.0269  -10.9057 H   0  0  0  0  0  0  0  0  0  0  0  0
   -3.9735   15.4217  -12.4385 H   0  0  0  0  0  0  0  0  0  0  0  0
   -4.0914   15.9235  -10.7178 H   0  0  0  0  0  0  0  0  0  0  0  0
   -1.7243   15.2430  -11.9952 H   0  0  0  0  0  0  0  0  0  0  0  0
   -0.0031   13.9147   -9.0666 H   0  0  0  0  0  0  0  0  0  0  0  0
    0.0973   13.7152  -10.8489 H   0  0  0  0  0  0  0  0  0  0  0  0
    0.1416   15.3586  -10.1252 H   0  0  0  0  0  0  0  0  0  0  0  0
  1  2  2  0  0  0  0
  1  4  1  0  0  0  0
  1 11  1  0  0  0  0
  2  6  1  0  0  0  0
  3  4  1  0  0  0  0
  3  5  1  0  0  0  0
  5  6  2  0  0  0  0
  5  9  1  0  0  0  0
  6  7  1  0  0  0  0
  7  8  1  0  0  0  0
  7 10  2  3  0  0  0
  8  9  2  0  0  0  0
 10 12  1  0  0  0  0
 11 24  1  0  0  0  0
 12 13  2  0  0  0  0
 12 17  1  0  0  0  0
 13 14  1  0  0  0  0
 14 15  2  0  0  0  0
 15 16  1  0  0  0  0
 15 18  1  0  0  0  0
 16 17  2  0  0  0  0
 18 19  2  0  0  0  0
 18 22  1  0  0  0  0
 19 20  1  0  0  0  0
 20 21  1  0  0  0  0
 20 23  1  0  0  0  0
 21 22  2  0  0  0  0
 24 25  1  0  0  0  0
 25 26  1  0  0  0  0
 26 27  1  0  0  0  0
 27 28  2  0  0  0  0
 27 29  1  0  0  0  0
  2 30  1  0  0  0  0
  3 31  1  0  0  0  0
  3 32  1  0  0  0  0
  4 33  1  0  0  0  0
  4 34  1  0  0  0  0
 10 35  1  0  0  0  0
 11 36  1  0  0  0  0
 13 37  1  0  0  0  0
 14 38  1  0  0  0  0
 16 39  1  0  0  0  0
 17 40  1  0  0  0  0
 19 41  1  0  0  0  0
 22 42  1  0  0  0  0
 23 43  1  0  0  0  0
 23 44  1  0  0  0  0
 23 45  1  0  0  0  0
 24 46  1  0  0  0  0
 24 47  1  0  0  0  0
 25 48  1  0  0  0  0
 25 49  1  0  0  0  0
 26 50  1  0  0  0  0
 29 51  1  0  0  0  0
 29 52  1  0  0  0  0
 29 53  1  0  0  0  0
M  END
> <Name>
27

> <IC50[uM]>
0.68

$$$$
27
  -OEChem-05192314333D
 Structure written by MMmdl.
 53 56  0     1  0  0  0  0  0999 V2000
   -6.3855   12.3606  -12.0031 C   0  0  0  0  0  0  0  0  0  0  0  0
   -6.5214   11.8004  -10.7171 C   0  0  0  0  0  0  0  0  0  0  0  0
   -7.6991   10.5797  -13.0384 C   0  0  0  0  0  0  0  0  0  0  0  0
   -6.9626   11.7779  -13.1031 C   0  0  0  0  0  0  0  0  0  0  0  0
   -7.8238   10.0198  -11.7523 C   0  0  0  0  0  0  0  0  0  0  0  0
   -7.2557   10.6213  -10.5956 C   0  0  0  0  0  0  0  0  0  0  0  0
   -7.6268    9.7501   -9.5073 C   0  0  0  0  0  0  0  0  0  0  0  0
   -8.3057    8.7491   -9.9816 N   0  0  0  0  0  0  0  0  0  0  0  0
   -8.4330    8.8776  -11.2917 N   0  0  0  0  0  0  0  0  0  0  0  0
   -7.3352    9.8817   -8.0196 C   0  0  0  0  0  0  0  0  0  0  0  0
   -5.6205   13.5372  -12.2095 N   0  0  0  0  0  0  0  0  0  0  0  0
   -5.9727   10.4835   -7.7324 C   0  0  0  0  0  0  0  0  0  0  0  0
   -5.8611   11.7523   -7.1657 C   0  0  0  0  0  0  0  0  0  0  0  0
   -4.5946   12.2988   -6.9068 C   0  0  0  0  0  0  0  0  0  0  0  0
   -3.4432   11.5806   -7.2147 C   0  0  3  0  0  0  0  0  0  0  0  0
   -3.5570   10.3109   -7.7899 C   0  0  0  0  0  0  0  0  0  0  0  0
   -4.8253    9.7663   -8.0483 C   0  0  0  0  0  0  0  0  0  0  0  0
   -2.0926   12.1556   -6.9444 C   0  0  0  0  0  0  0  0  0  0  0  0
   -1.7338   13.4204   -6.4594 C   0  0  0  0  0  0  0  0  0  0  0  0
   -0.4064   13.4584   -6.4114 N   0  0  0  0  0  0  0  0  0  0  0  0
    0.1793   12.3493   -6.7865 N   0  0  0  0  0  0  0  0  0  0  0  0
   -0.7954   11.5387   -7.1512 C   0  0  0  0  0  0  0  0  0  0  0  0
    0.4205   14.5767   -6.0073 C   0  0  0  0  0  0  0  0  0  0  0  0
   -4.6894   13.8945  -11.1046 C   0  0  0  0  0  0  0  0  0  0  0  0
   -3.7822   15.1171  -11.3990 C   0  0  0  0  0  0  0  0  0  0  0  0
   -2.3310   14.9579  -11.2532 N   0  0  0  0  0  0  0  0  0  0  0  0
   -1.8099   14.4326  -10.1320 C   0  0  0  0  0  0  0  0  0  0  0  0
   -2.5019   14.0442   -9.2076 O   0  0  0  0  0  0  0  0  0  0  0  0
   -0.2869   14.3494  -10.0364 C   0  0  0  0  0  0  0  0  0  0  0  0
   -6.0716   12.2689   -9.8542 H   0  0  0  0  0  0  0  0  0  0  0  0
   -8.1374   10.1224  -13.9131 H   0  0  0  0  0  0  0  0  0  0  0  0
   -6.8466   12.2604  -14.0624 H   0  0  0  0  0  0  0  0  0  0  0  0
   -8.0269    9.5780   -7.2478 H   0  0  0  0  0  0  0  0  0  0  0  0
   -5.0791   13.4115  -13.0408 H   0  0  0  0  0  0  0  0  0  0  0  0
   -6.7507   12.3156   -6.9255 H   0  0  0  0  0  0  0  0  0  0  0  0
   -4.5373   13.2433   -7.4677 H   0  0  0  0  0  0  0  0  0  0  0  0
   -4.5562   12.5101   -5.8280 H   0  0  0  0  0  0  0  0  0  0  0  0
   -3.4540   11.1294   -6.2116 H   0  0  0  0  0  0  0  0  0  0  0  0
   -2.6683    9.7485   -8.0357 H   0  0  0  0  0  0  0  0  0  0  0  0
   -4.9092    8.7863   -8.4943 H   0  0  0  0  0  0  0  0  0  0  0  0
   -2.4090   14.2148   -6.1776 H   0  0  0  0  0  0  0  0  0  0  0  0
   -0.6475   10.5464   -7.5511 H   0  0  0  0  0  0  0  0  0  0  0  0
    1.4812   14.2962   -6.0855 H   0  0  0  0  0  0  0  0  0  0  0  0
    0.2196   15.4369   -6.6628 H   0  0  0  0  0  0  0  0  0  0  0  0
    0.1886   14.8468   -4.9665 H   0  0  0  0  0  0  0  0  0  0  0  0
   -5.2882   14.1185  -10.2095 H   0  0  0  0  0  0  0  0  0  0  0  0
   -4.0431   13.0269  -10.9057 H   0  0  0  0  0  0  0  0  0  0  0  0
   -3.9735   15.4217  -12.4385 H   0  0  0  0  0  0  0  0  0  0  0  0
   -4.0914   15.9235  -10.7178 H   0  0  0  0  0  0  0  0  0  0  0  0
   -1.7243   15.2430  -11.9952 H   0  0  0  0  0  0  0  0  0  0  0  0
   -0.0031   13.9147   -9.0666 H   0  0  0  0  0  0  0  0  0  0  0  0
    0.0973   13.7152  -10.8489 H   0  0  0  0  0  0  0  0  0  0  0  0
    0.1416   15.3586  -10.1252 H   0  0  0  0  0  0  0  0  0  0  0  0
  1  2  2  0  0  0  0
  1  4  1  0  0  0  0
  1 11  1  0  0  0  0
  2  6  1  0  0  0  0
  3  4  2  0  0  0  0
  3  5  1  0  0  0  0
  5  6  2  0  0  0  0
  5  9  1  0  0  0  0
  6  7  1  0  0  0  0
  7  8  1  0  0  0  0
  7 10  2  3  0  0  0
  8  9  2  0  0  0  0
 10 12  1  0  0  0  0
 11 24  1  0  0  0  0
 12 13  2  0  0  0  0
 12 17  1  0  0  0  0
 13 14  1  0  0  0  0
 14 15  1  0  0  0  0
 15 16  1  0  0  0  0
 15 18  1  0  0  0  0
 16 17  2  0  0  0  0
 18 19  2  0  0  0  0
 18 22  1  0  0  0  0
 19 20  1  0  0  0  0
 20 21  1  0  0  0  0
 20 23  1  0  0  0  0
 21 22  2  0  0  0  0
 24 25  1  0  0  0  0
 25 26  1  0  0  0  0
 26 27  1  0  0  0  0
 27 28  2  0  0  0  0
 27 29  1  0  0  0  0
  2 30  1  0  0  0  0
  3 31  1  0  0  0  0
  4 32  1  0  0  0  0
 10 33  1  0  0  0  0
 11 34  1  0  0  0  0
 13 35  1  0  0  0  0
 14 36  1  0  0  0  0
 14 37  1  0  0  0  0
 15 38  1  0  0  0  0
 16 39  1  0  0  0  0
 17 40  1  0  0  0  0
 19 41  1  0  0  0  0
 22 42  1  0  0  0  0
 23 43  1  0  0  0  0
 23 44  1  0  0  0  0
 23 45  1  0  0  0  0
 24 46  1  0  0  0  0
 24 47  1  0  0  0  0
 25 48  1  0  0  0  0
 25 49  1  0  0  0  0
 26 50  1  0  0  0  0
 29 51  1  0  0  0  0
 29 52  1  0  0  0  0
 29 53  1  0  0  0  0
M  END
> <Name>
27

> <IC50[uM]>
0.68

$$$$
27
  -OEChem-05192314333D
 Structure written by MMmdl.
 53 56  0     1  0  0  0  0  0999 V2000
   -6.3855   12.3606  -12.0031 C   0  0  0  0  0  0  0  0  0  0  0  0
   -6.5214   11.8004  -10.7171 C   0  0  0  0  0  0  0  0  0  0  0  0
   -7.6991   10.5797  -13.0384 C   0  0  0  0  0  0  0  0  0  0  0  0
   -6.9626   11.7779  -13.1031 C   0  0  0  0  0  0  0  0  0  0  0  0
   -7.8238   10.0198  -11.7523 C   0  0  0  0  0  0  0  0  0  0  0  0
   -7.2557   10.6213  -10.5956 C   0  0  0  0  0  0  0  0  0  0  0  0
   -7.6268    9.7501   -9.5073 C   0  0  0  0  0  0  0  0  0  0  0  0
   -8.3057    8.7491   -9.9816 N   0  0  0  0  0  0  0  0  0  0  0  0
   -8.4330    8.8776  -11.2917 N   0  0  0  0  0  0  0  0  0  0  0  0
   -7.3352    9.8817   -8.0196 C   0  0  0  0  0  0  0  0  0  0  0  0
   -5.6205   13.5372  -12.2095 N   0  0  0  0  0  0  0  0  0  0  0  0
   -5.9727   10.4835   -7.7324 C   0  0  3  0  0  0  0  0  0  0  0  0
   -5.8611   11.7523   -7.1657 C   0  0  0  0  0  0  0  0  0  0  0  0
   -4.5946   12.2988   -6.9068 C   0  0  0  0  0  0  0  0  0  0  0  0
   -3.4432   11.5806   -7.2147 C   0  0  0  0  0  0  0  0  0  0  0  0
   -3.5570   10.3109   -7.7899 C   0  0  0  0  0  0  0  0  0  0  0  0
   -4.8253    9.7663   -8.0483 C   0  0  0  0  0  0  0  0  0  0  0  0
   -2.0926   12.1556   -6.9444 C   0  0  0  0  0  0  0  0  0  0  0  0
   -1.7338   13.4204   -6.4594 C   0  0  0  0  0  0  0  0  0  0  0  0
   -0.4064   13.4584   -6.4114 N   0  0  0  0  0  0  0  0  0  0  0  0
    0.1793   12.3493   -6.7865 N   0  0  0  0  0  0  0  0  0  0  0  0
   -0.7954   11.5387   -7.1512 C   0  0  0  0  0  0  0  0  0  0  0  0
    0.4205   14.5767   -6.0073 C   0  0  0  0  0  0  0  0  0  0  0  0
   -4.6894   13.8945  -11.1046 C   0  0  0  0  0  0  0  0  0  0  0  0
   -3.7822   15.1171  -11.3990 C   0  0  0  0  0  0  0  0  0  0  0  0
   -2.3310   14.9579  -11.2532 N   0  0  0  0  0  0  0  0  0  0  0  0
   -1.8099   14.4326  -10.1320 C   0  0  0  0  0  0  0  0  0  0  0  0
   -2.5019   14.0442   -9.2076 O   0  0  0  0  0  0  0  0  0  0  0  0
   -0.2869   14.3494  -10.0364 C   0  0  0  0  0  0  0  0  0  0  0  0
   -6.0716   12.2689   -9.8542 H   0  0  0  0  0  0  0  0  0  0  0  0
   -8.1374   10.1224  -13.9131 H   0  0  0  0  0  0  0  0  0  0  0  0
   -6.8466   12.2604  -14.0624 H   0  0  0  0  0  0  0  0  0  0  0  0
   -8.0269    9.5780   -7.2478 H   0  0  0  0  0  0  0  0  0  0  0  0
   -5.0791   13.4115  -13.0408 H   0  0  0  0  0  0  0  0  0  0  0  0
   -5.9820   10.0328   -6.7290 H   0  0  0  0  0  0  0  0  0  0  0  0
   -6.7507   12.3156   -6.9255 H   0  0  0  0  0  0  0  0  0  0  0  0
   -4.5132   13.2816   -6.4664 H   0  0  0  0  0  0  0  0  0  0  0  0
   -2.6683    9.7485   -8.0357 H   0  0  0  0  0  0  0  0  0  0  0  0
   -4.8817    8.8185   -7.4929 H   0  0  0  0  0  0  0  0  0  0  0  0
   -4.8676    9.5615   -9.1282 H   0  0  0  0  0  0  0  0  0  0  0  0
   -2.4090   14.2148   -6.1776 H   0  0  0  0  0  0  0  0  0  0  0  0
   -0.6475   10.5464   -7.5511 H   0  0  0  0  0  0  0  0  0  0  0  0
    1.4812   14.2962   -6.0855 H   0  0  0  0  0  0  0  0  0  0  0  0
    0.2196   15.4369   -6.6628 H   0  0  0  0  0  0  0  0  0  0  0  0
    0.1886   14.8468   -4.9665 H   0  0  0  0  0  0  0  0  0  0  0  0
   -5.2882   14.1185  -10.2095 H   0  0  0  0  0  0  0  0  0  0  0  0
   -4.0431   13.0269  -10.9057 H   0  0  0  0  0  0  0  0  0  0  0  0
   -3.9735   15.4217  -12.4385 H   0  0  0  0  0  0  0  0  0  0  0  0
   -4.0914   15.9235  -10.7178 H   0  0  0  0  0  0  0  0  0  0  0  0
   -1.7243   15.2430  -11.9952 H   0  0  0  0  0  0  0  0  0  0  0  0
   -0.0031   13.9147   -9.0666 H   0  0  0  0  0  0  0  0  0  0  0  0
    0.0973   13.7152  -10.8489 H   0  0  0  0  0  0  0  0  0  0  0  0
    0.1416   15.3586  -10.1252 H   0  0  0  0  0  0  0  0  0  0  0  0
  1  2  2  0  0  0  0
  1  4  1  0  0  0  0
  1 11  1  0  0  0  0
  2  6  1  0  0  0  0
  3  4  2  0  0  0  0
  3  5  1  0  0  0  0
  5  6  2  0  0  0  0
  5  9  1  0  0  0  0
  6  7  1  0  0  0  0
  7  8  1  0  0  0  0
  7 10  2  3  0  0  0
  8  9  2  0  0  0  0
 10 12  1  0  0  0  0
 11 24  1  0  0  0  0
 12 13  1  0  0  0  0
 12 17  1  0  0  0  0
 13 14  2  0  0  0  0
 14 15  1  0  0  0  0
 15 16  2  0  0  0  0
 15 18  1  0  0  0  0
 16 17  1  0  0  0  0
 18 19  2  0  0  0  0
 18 22  1  0  0  0  0
 19 20  1  0  0  0  0
 20 21  1  0  0  0  0
 20 23  1  0  0  0  0
 21 22  2  0  0  0  0
 24 25  1  0  0  0  0
 25 26  1  0  0  0  0
 26 27  1  0  0  0  0
 27 28  2  0  0  0  0
 27 29  1  0  0  0  0
  2 30  1  0  0  0  0
  3 31  1  0  0  0  0
  4 32  1  0  0  0  0
 10 33  1  0  0  0  0
 11 34  1  0  0  0  0
 12 35  1  0  0  0  0
 13 36  1  0  0  0  0
 14 37  1  0  0  0  0
 16 38  1  0  0  0  0
 17 39  1  0  0  0  0
 17 40  1  0  0  0  0
 19 41  1  0  0  0  0
 22 42  1  0  0  0  0
 23 43  1  0  0  0  0
 23 44  1  0  0  0  0
 23 45  1  0  0  0  0
 24 46  1  0  0  0  0
 24 47  1  0  0  0  0
 25 48  1  0  0  0  0
 25 49  1  0  0  0  0
 26 50  1  0  0  0  0
 29 51  1  0  0  0  0
 29 52  1  0  0  0  0
 29 53  1  0  0  0  0
M  END
> <Name>
27

> <IC50[uM]>
0.68

$$$$
27
  -OEChem-05192314333D
 Structure written by MMmdl.
 53 56  0     1  0  0  0  0  0999 V2000
   -6.3855   12.3606  -12.0031 C   0  0  0  0  0  0  0  0  0  0  0  0
   -6.5214   11.8004  -10.7171 C   0  0  0  0  0  0  0  0  0  0  0  0
   -7.6991   10.5797  -13.0384 C   0  0  0  0  0  0  0  0  0  0  0  0
   -6.9626   11.7779  -13.1031 C   0  0  0  0  0  0  0  0  0  0  0  0
   -7.8238   10.0198  -11.7523 C   0  0  0  0  0  0  0  0  0  0  0  0
   -7.2557   10.6213  -10.5956 C   0  0  0  0  0  0  0  0  0  0  0  0
   -7.6268    9.7501   -9.5073 C   0  0  3  0  0  0  0  0  0  0  0  0
   -8.3057    8.7491   -9.9816 N   0  0  0  0  0  0  0  0  0  0  0  0
   -8.4330    8.8776  -11.2917 N   0  0  0  0  0  0  0  0  0  0  0  0
   -7.3352    9.8817   -8.0196 C   0  0  0  0  0  0  0  0  0  0  0  0
   -5.6205   13.5372  -12.2095 N   0  0  0  0  0  0  0  0  0  0  0  0
   -5.9727   10.4835   -7.7324 C   0  0  0  0  0  0  0  0  0  0  0  0
   -5.8611   11.7523   -7.1657 C   0  0  0  0  0  0  0  0  0  0  0  0
   -4.5946   12.2988   -6.9068 C   0  0  0  0  0  0  0  0  0  0  0  0
   -3.4432   11.5806   -7.2147 C   0  0  0  0  0  0  0  0  0  0  0  0
   -3.5570   10.3109   -7.7899 C   0  0  0  0  0  0  0  0  0  0  0  0
   -4.8253    9.7663   -8.0483 C   0  0  0  0  0  0  0  0  0  0  0  0
   -2.0926   12.1556   -6.9444 C   0  0  0  0  0  0  0  0  0  0  0  0
   -1.7338   13.4204   -6.4594 C   0  0  0  0  0  0  0  0  0  0  0  0
   -0.4064   13.4584   -6.4114 N   0  0  0  0  0  0  0  0  0  0  0  0
    0.1793   12.3493   -6.7865 N   0  0  0  0  0  0  0  0  0  0  0  0
   -0.7954   11.5387   -7.1512 C   0  0  0  0  0  0  0  0  0  0  0  0
    0.4205   14.5767   -6.0073 C   0  0  0  0  0  0  0  0  0  0  0  0
   -4.6894   13.8945  -11.1046 C   0  0  0  0  0  0  0  0  0  0  0  0
   -3.7822   15.1171  -11.3990 C   0  0  0  0  0  0  0  0  0  0  0  0
   -2.3310   14.9579  -11.2532 N   0  0  0  0  0  0  0  0  0  0  0  0
   -1.8099   14.4326  -10.1320 C   0  0  0  0  0  0  0  0  0  0  0  0
   -2.5019   14.0442   -9.2076 O   0  0  0  0  0  0  0  0  0  0  0  0
   -0.2869   14.3494  -10.0364 C   0  0  0  0  0  0  0  0  0  0  0  0
   -6.0716   12.2689   -9.8542 H   0  0  0  0  0  0  0  0  0  0  0  0
   -8.1374   10.1224  -13.9131 H   0  0  0  0  0  0  0  0  0  0  0  0
   -6.8466   12.2604  -14.0624 H   0  0  0  0  0  0  0  0  0  0  0  0
   -6.6939    9.1829   -9.6414 H   0  0  0  0  0  0  0  0  0  0  0  0
   -8.0269    9.5780   -7.2478 H   0  0  0  0  0  0  0  0  0  0  0  0
   -5.0791   13.4115  -13.0408 H   0  0  0  0  0  0  0  0  0  0  0  0
   -6.7507   12.3156   -6.9255 H   0  0  0  0  0  0  0  0  0  0  0  0
   -4.5132   13.2816   -6.4664 H   0  0  0  0  0  0  0  0  0  0  0  0
   -2.6683    9.7485   -8.0357 H   0  0  0  0  0  0  0  0  0  0  0  0
   -4.8817    8.8185   -7.4929 H   0  0  0  0  0  0  0  0  0  0  0  0
   -4.8676    9.5615   -9.1282 H   0  0  0  0  0  0  0  0  0  0  0  0
   -2.4090   14.2148   -6.1776 H   0  0  0  0  0  0  0  0  0  0  0  0
   -0.6475   10.5464   -7.5511 H   0  0  0  0  0  0  0  0  0  0  0  0
    1.4812   14.2962   -6.0855 H   0  0  0  0  0  0  0  0  0  0  0  0
    0.2196   15.4369   -6.6628 H   0  0  0  0  0  0  0  0  0  0  0  0
    0.1886   14.8468   -4.9665 H   0  0  0  0  0  0  0  0  0  0  0  0
   -5.2882   14.1185  -10.2095 H   0  0  0  0  0  0  0  0  0  0  0  0
   -4.0431   13.0269  -10.9057 H   0  0  0  0  0  0  0  0  0  0  0  0
   -3.9735   15.4217  -12.4385 H   0  0  0  0  0  0  0  0  0  0  0  0
   -4.0914   15.9235  -10.7178 H   0  0  0  0  0  0  0  0  0  0  0  0
   -1.7243   15.2430  -11.9952 H   0  0  0  0  0  0  0  0  0  0  0  0
   -0.0031   13.9147   -9.0666 H   0  0  0  0  0  0  0  0  0  0  0  0
    0.0973   13.7152  -10.8489 H   0  0  0  0  0  0  0  0  0  0  0  0
    0.1416   15.3586  -10.1252 H   0  0  0  0  0  0  0  0  0  0  0  0
  1  2  2  0  0  0  0
  1  4  1  0  0  0  0
  1 11  1  0  0  0  0
  2  6  1  0  0  0  0
  3  4  2  0  0  0  0
  3  5  1  0  0  0  0
  5  6  2  0  0  0  0
  5  9  1  0  0  0  0
  6  7  1  0  0  0  0
  7  8  1  0  0  0  0
  7 10  1  0  0  0  0
  8  9  2  0  0  0  0
 10 12  2  3  0  0  0
 11 24  1  0  0  0  0
 12 13  1  0  0  0  0
 12 17  1  0  0  0  0
 13 14  2  0  0  0  0
 14 15  1  0  0  0  0
 15 16  2  0  0  0  0
 15 18  1  0  0  0  0
 16 17  1  0  0  0  0
 18 19  2  0  0  0  0
 18 22  1  0  0  0  0
 19 20  1  0  0  0  0
 20 21  1  0  0  0  0
 20 23  1  0  0  0  0
 21 22  2  0  0  0  0
 24 25  1  0  0  0  0
 25 26  1  0  0  0  0
 26 27  1  0  0  0  0
 27 28  2  0  0  0  0
 27 29  1  0  0  0  0
  2 30  1  0  0  0  0
  3 31  1  0  0  0  0
  4 32  1  0  0  0  0
  7 33  1  0  0  0  0
 10 34  1  0  0  0  0
 11 35  1  0  0  0  0
 13 36  1  0  0  0  0
 14 37  1  0  0  0  0
 16 38  1  0  0  0  0
 17 39  1  0  0  0  0
 17 40  1  0  0  0  0
 19 41  1  0  0  0  0
 22 42  1  0  0  0  0
 23 43  1  0  0  0  0
 23 44  1  0  0  0  0
 23 45  1  0  0  0  0
 24 46  1  0  0  0  0
 24 47  1  0  0  0  0
 25 48  1  0  0  0  0
 25 49  1  0  0  0  0
 26 50  1  0  0  0  0
 29 51  1  0  0  0  0
 29 52  1  0  0  0  0
 29 53  1  0  0  0  0
M  END
> <Name>
27

> <IC50[uM]>
0.68

$$$$
27
  -OEChem-05192314333D
 Structure written by MMmdl.
 53 56  0     0  0  0  0  0  0999 V2000
   -6.3855   12.3606  -12.0031 C   0  0  0  0  0  0  0  0  0  0  0  0
   -6.5214   11.8004  -10.7171 C   0  0  0  0  0  0  0  0  0  0  0  0
   -7.6991   10.5797  -13.0384 C   0  0  0  0  0  0  0  0  0  0  0  0
   -6.9626   11.7779  -13.1031 C   0  0  0  0  0  0  0  0  0  0  0  0
   -7.8238   10.0198  -11.7523 C   0  0  0  0  0  0  0  0  0  0  0  0
   -7.2557   10.6213  -10.5956 C   0  0  0  0  0  0  0  0  0  0  0  0
   -7.6268    9.7501   -9.5073 C   0  0  0  0  0  0  0  0  0  0  0  0
   -8.3057    8.7491   -9.9816 N   0  0  0  0  0  0  0  0  0  0  0  0
   -8.4330    8.8776  -11.2917 N   0  0  0  0  0  0  0  0  0  0  0  0
   -7.3352    9.8817   -8.0196 C   0  0  0  0  0  0  0  0  0  0  0  0
   -5.6205   13.5372  -12.2095 N   0  0  0  0  0  0  0  0  0  0  0  0
   -5.9727   10.4835   -7.7324 C   0  0  0  0  0  0  0  0  0  0  0  0
   -5.8611   11.7523   -7.1657 C   0  0  0  0  0  0  0  0  0  0  0  0
   -4.5946   12.2988   -6.9068 C   0  0  0  0  0  0  0  0  0  0  0  0
   -3.4432   11.5806   -7.2147 C   0  0  0  0  0  0  0  0  0  0  0  0
   -3.5570   10.3109   -7.7899 C   0  0  0  0  0  0  0  0  0  0  0  0
   -4.8253    9.7663   -8.0483 C   0  0  0  0  0  0  0  0  0  0  0  0
   -2.0926   12.1556   -6.9444 C   0  0  0  0  0  0  0  0  0  0  0  0
   -1.7338   13.4204   -6.4594 C   0  0  0  0  0  0  0  0  0  0  0  0
   -0.4064   13.4584   -6.4114 N   0  0  0  0  0  0  0  0  0  0  0  0
    0.1793   12.3493   -6.7865 N   0  0  0  0  0  0  0  0  0  0  0  0
   -0.7954   11.5387   -7.1512 C   0  0  0  0  0  0  0  0  0  0  0  0
    0.4205   14.5767   -6.0073 C   0  0  0  0  0  0  0  0  0  0  0  0
   -4.6894   13.8945  -11.1046 C   0  0  0  0  0  0  0  0  0  0  0  0
   -3.7822   15.1171  -11.3990 C   0  0  0  0  0  0  0  0  0  0  0  0
   -2.3310   14.9579  -11.2532 N   0  0  0  0  0  0  0  0  0  0  0  0
   -1.8099   14.4326  -10.1320 C   0  0  0  0  0  0  0  0  0  0  0  0
   -2.5019   14.0442   -9.2076 O   0  0  0  0  0  0  0  0  0  0  0  0
   -0.2869   14.3494  -10.0364 C   0  0  0  0  0  0  0  0  0  0  0  0
   -6.0716   12.2689   -9.8542 H   0  0  0  0  0  0  0  0  0  0  0  0
   -8.1374   10.1224  -13.9131 H   0  0  0  0  0  0  0  0  0  0  0  0
   -6.8466   12.2604  -14.0624 H   0  0  0  0  0  0  0  0  0  0  0  0
   -8.0269    9.5780   -7.2478 H   0  0  0  0  0  0  0  0  0  0  0  0
   -5.0791   13.4115  -13.0408 H   0  0  0  0  0  0  0  0  0  0  0  0
   -6.7507   12.3156   -6.9255 H   0  0  0  0  0  0  0  0  0  0  0  0
   -4.5373   13.2433   -7.4677 H   0  0  0  0  0  0  0  0  0  0  0  0
   -4.5562   12.5101   -5.8280 H   0  0  0  0  0  0  0  0  0  0  0  0
   -2.6683    9.7485   -8.0357 H   0  0  0  0  0  0  0  0  0  0  0  0
   -4.8817    8.8185   -7.4929 H   0  0  0  0  0  0  0  0  0  0  0  0
   -4.8676    9.5615   -9.1282 H   0  0  0  0  0  0  0  0  0  0  0  0
   -2.4090   14.2148   -6.1776 H   0  0  0  0  0  0  0  0  0  0  0  0
   -0.6475   10.5464   -7.5511 H   0  0  0  0  0  0  0  0  0  0  0  0
    1.4812   14.2962   -6.0855 H   0  0  0  0  0  0  0  0  0  0  0  0
    0.2196   15.4369   -6.6628 H   0  0  0  0  0  0  0  0  0  0  0  0
    0.1886   14.8468   -4.9665 H   0  0  0  0  0  0  0  0  0  0  0  0
   -5.2882   14.1185  -10.2095 H   0  0  0  0  0  0  0  0  0  0  0  0
   -4.0431   13.0269  -10.9057 H   0  0  0  0  0  0  0  0  0  0  0  0
   -3.9735   15.4217  -12.4385 H   0  0  0  0  0  0  0  0  0  0  0  0
   -4.0914   15.9235  -10.7178 H   0  0  0  0  0  0  0  0  0  0  0  0
   -1.7243   15.2430  -11.9952 H   0  0  0  0  0  0  0  0  0  0  0  0
   -0.0031   13.9147   -9.0666 H   0  0  0  0  0  0  0  0  0  0  0  0
    0.0973   13.7152  -10.8489 H   0  0  0  0  0  0  0  0  0  0  0  0
    0.1416   15.3586  -10.1252 H   0  0  0  0  0  0  0  0  0  0  0  0
  1  2  2  0  0  0  0
  1  4  1  0  0  0  0
  1 11  1  0  0  0  0
  2  6  1  0  0  0  0
  3  4  2  0  0  0  0
  3  5  1  0  0  0  0
  5  6  2  0  0  0  0
  5  9  1  0  0  0  0
  6  7  1  0  0  0  0
  7  8  1  0  0  0  0
  7 10  2  3  0  0  0
  8  9  2  0  0  0  0
 10 12  1  0  0  0  0
 11 24  1  0  0  0  0
 12 13  2  0  0  0  0
 12 17  1  0  0  0  0
 13 14  1  0  0  0  0
 14 15  1  0  0  0  0
 15 16  2  0  0  0  0
 15 18  1  0  0  0  0
 16 17  1  0  0  0  0
 18 19  2  0  0  0  0
 18 22  1  0  0  0  0
 19 20  1  0  0  0  0
 20 21  1  0  0  0  0
 20 23  1  0  0  0  0
 21 22  2  0  0  0  0
 24 25  1  0  0  0  0
 25 26  1  0  0  0  0
 26 27  1  0  0  0  0
 27 28  2  0  0  0  0
 27 29  1  0  0  0  0
  2 30  1  0  0  0  0
  3 31  1  0  0  0  0
  4 32  1  0  0  0  0
 10 33  1  0  0  0  0
 11 34  1  0  0  0  0
 13 35  1  0  0  0  0
 14 36  1  0  0  0  0
 14 37  1  0  0  0  0
 16 38  1  0  0  0  0
 17 39  1  0  0  0  0
 17 40  1  0  0  0  0
 19 41  1  0  0  0  0
 22 42  1  0  0  0  0
 23 43  1  0  0  0  0
 23 44  1  0  0  0  0
 23 45  1  0  0  0  0
 24 46  1  0  0  0  0
 24 47  1  0  0  0  0
 25 48  1  0  0  0  0
 25 49  1  0  0  0  0
 26 50  1  0  0  0  0
 29 51  1  0  0  0  0
 29 52  1  0  0  0  0
 29 53  1  0  0  0  0
M  END
> <Name>
27

> <IC50[uM]>
0.68

$$$$
27
  -OEChem-05192314333D
 Structure written by MMmdl.
 53 56  0     0  0  0  0  0  0999 V2000
   -6.3855   12.3606  -12.0031 C   0  0  0  0  0  0  0  0  0  0  0  0
   -6.5214   11.8004  -10.7171 C   0  0  0  0  0  0  0  0  0  0  0  0
   -7.6991   10.5797  -13.0384 C   0  0  0  0  0  0  0  0  0  0  0  0
   -6.9626   11.7779  -13.1031 C   0  0  0  0  0  0  0  0  0  0  0  0
   -7.8238   10.0198  -11.7523 C   0  0  0  0  0  0  0  0  0  0  0  0
   -7.2557   10.6213  -10.5956 C   0  0  0  0  0  0  0  0  0  0  0  0
   -7.6268    9.7501   -9.5073 C   0  0  0  0  0  0  0  0  0  0  0  0
   -8.3057    8.7491   -9.9816 N   0  0  0  0  0  0  0  0  0  0  0  0
   -8.4330    8.8776  -11.2917 N   0  0  0  0  0  0  0  0  0  0  0  0
   -7.3352    9.8817   -8.0196 C   0  0  0  0  0  0  0  0  0  0  0  0
   -5.6205   13.5372  -12.2095 N   0  0  0  0  0  0  0  0  0  0  0  0
   -5.9727   10.4835   -7.7324 C   0  0  0  0  0  0  0  0  0  0  0  0
   -5.8611   11.7523   -7.1657 C   0  0  0  0  0  0  0  0  0  0  0  0
   -4.5946   12.2988   -6.9068 C   0  0  0  0  0  0  0  0  0  0  0  0
   -3.4432   11.5806   -7.2147 C   0  0  0  0  0  0  0  0  0  0  0  0
   -3.5570   10.3109   -7.7899 C   0  0  0  0  0  0  0  0  0  0  0  0
   -4.8253    9.7663   -8.0483 C   0  0  0  0  0  0  0  0  0  0  0  0
   -2.0926   12.1556   -6.9444 C   0  0  0  0  0  0  0  0  0  0  0  0
   -1.7338   13.4204   -6.4594 C   0  0  0  0  0  0  0  0  0  0  0  0
   -0.4064   13.4584   -6.4114 N   0  0  0  0  0  0  0  0  0  0  0  0
    0.1793   12.3493   -6.7865 N   0  0  0  0  0  0  0  0  0  0  0  0
   -0.7954   11.5387   -7.1512 C   0  0  0  0  0  0  0  0  0  0  0  0
    0.4205   14.5767   -6.0073 C   0  0  0  0  0  0  0  0  0  0  0  0
   -4.6894   13.8945  -11.1046 C   0  0  0  0  0  0  0  0  0  0  0  0
   -3.7822   15.1171  -11.3990 C   0  0  0  0  0  0  0  0  0  0  0  0
   -2.3310   14.9579  -11.2532 N   0  0  0  0  0  0  0  0  0  0  0  0
   -1.8099   14.4326  -10.1320 C   0  0  0  0  0  0  0  0  0  0  0  0
   -2.5019   14.0442   -9.2076 O   0  0  0  0  0  0  0  0  0  0  0  0
   -0.2869   14.3494  -10.0364 C   0  0  0  0  0  0  0  0  0  0  0  0
   -6.0716   12.2689   -9.8542 H   0  0  0  0  0  0  0  0  0  0  0  0
   -8.1374   10.1224  -13.9131 H   0  0  0  0  0  0  0  0  0  0  0  0
   -6.8466   12.2604  -14.0624 H   0  0  0  0  0  0  0  0  0  0  0  0
   -8.0269    9.5780   -7.2478 H   0  0  0  0  0  0  0  0  0  0  0  0
   -5.0791   13.4115  -13.0408 H   0  0  0  0  0  0  0  0  0  0  0  0
   -6.7507   12.3156   -6.9255 H   0  0  0  0  0  0  0  0  0  0  0  0
   -4.5132   13.2816   -6.4664 H   0  0  0  0  0  0  0  0  0  0  0  0
   -3.0266   10.3502   -8.7528 H   0  0  0  0  0  0  0  0  0  0  0  0
   -3.0423    9.6102   -7.1161 H   0  0  0  0  0  0  0  0  0  0  0  0
   -4.8817    8.8185   -7.4929 H   0  0  0  0  0  0  0  0  0  0  0  0
   -4.8676    9.5615   -9.1282 H   0  0  0  0  0  0  0  0  0  0  0  0
   -2.4090   14.2148   -6.1776 H   0  0  0  0  0  0  0  0  0  0  0  0
   -0.6475   10.5464   -7.5511 H   0  0  0  0  0  0  0  0  0  0  0  0
    1.4812   14.2962   -6.0855 H   0  0  0  0  0  0  0  0  0  0  0  0
    0.2196   15.4369   -6.6628 H   0  0  0  0  0  0  0  0  0  0  0  0
    0.1886   14.8468   -4.9665 H   0  0  0  0  0  0  0  0  0  0  0  0
   -5.2882   14.1185  -10.2095 H   0  0  0  0  0  0  0  0  0  0  0  0
   -4.0431   13.0269  -10.9057 H   0  0  0  0  0  0  0  0  0  0  0  0
   -3.9735   15.4217  -12.4385 H   0  0  0  0  0  0  0  0  0  0  0  0
   -4.0914   15.9235  -10.7178 H   0  0  0  0  0  0  0  0  0  0  0  0
   -1.7243   15.2430  -11.9952 H   0  0  0  0  0  0  0  0  0  0  0  0
   -0.0031   13.9147   -9.0666 H   0  0  0  0  0  0  0  0  0  0  0  0
    0.0973   13.7152  -10.8489 H   0  0  0  0  0  0  0  0  0  0  0  0
    0.1416   15.3586  -10.1252 H   0  0  0  0  0  0  0  0  0  0  0  0
  1  2  2  0  0  0  0
  1  4  1  0  0  0  0
  1 11  1  0  0  0  0
  2  6  1  0  0  0  0
  3  4  2  0  0  0  0
  3  5  1  0  0  0  0
  5  6  2  0  0  0  0
  5  9  1  0  0  0  0
  6  7  1  0  0  0  0
  7  8  1  0  0  0  0
  7 10  2  3  0  0  0
  8  9  2  0  0  0  0
 10 12  1  0  0  0  0
 11 24  1  0  0  0  0
 12 13  2  0  0  0  0
 12 17  1  0  0  0  0
 13 14  1  0  0  0  0
 14 15  2  0  0  0  0
 15 16  1  0  0  0  0
 15 18  1  0  0  0  0
 16 17  1  0  0  0  0
 18 19  2  0  0  0  0
 18 22  1  0  0  0  0
 19 20  1  0  0  0  0
 20 21  1  0  0  0  0
 20 23  1  0  0  0  0
 21 22  2  0  0  0  0
 24 25  1  0  0  0  0
 25 26  1  0  0  0  0
 26 27  1  0  0  0  0
 27 28  2  0  0  0  0
 27 29  1  0  0  0  0
  2 30  1  0  0  0  0
  3 31  1  0  0  0  0
  4 32  1  0  0  0  0
 10 33  1  0  0  0  0
 11 34  1  0  0  0  0
 13 35  1  0  0  0  0
 14 36  1  0  0  0  0
 16 37  1  0  0  0  0
 16 38  1  0  0  0  0
 17 39  1  0  0  0  0
 17 40  1  0  0  0  0
 19 41  1  0  0  0  0
 22 42  1  0  0  0  0
 23 43  1  0  0  0  0
 23 44  1  0  0  0  0
 23 45  1  0  0  0  0
 24 46  1  0  0  0  0
 24 47  1  0  0  0  0
 25 48  1  0  0  0  0
 25 49  1  0  0  0  0
 26 50  1  0  0  0  0
 29 51  1  0  0  0  0
 29 52  1  0  0  0  0
 29 53  1  0  0  0  0
M  END
> <Name>
27

> <IC50[uM]>
0.68

$$$$
27
  -OEChem-05192314333D
 Structure written by MMmdl.
 53 56  0     1  0  0  0  0  0999 V2000
   -6.3855   12.3606  -12.0031 C   0  0  0  0  0  0  0  0  0  0  0  0
   -6.5214   11.8004  -10.7171 C   0  0  0  0  0  0  0  0  0  0  0  0
   -7.6991   10.5797  -13.0384 C   0  0  0  0  0  0  0  0  0  0  0  0
   -6.9626   11.7779  -13.1031 C   0  0  0  0  0  0  0  0  0  0  0  0
   -7.8238   10.0198  -11.7523 C   0  0  0  0  0  0  0  0  0  0  0  0
   -7.2557   10.6213  -10.5956 C   0  0  3  0  0  0  0  0  0  0  0  0
   -7.6268    9.7501   -9.5073 C   0  0  0  0  0  0  0  0  0  0  0  0
   -8.3057    8.7491   -9.9816 N   0  0  0  0  0  0  0  0  0  0  0  0
   -8.4330    8.8776  -11.2917 N   0  0  0  0  0  0  0  0  0  0  0  0
   -7.3352    9.8817   -8.0196 C   0  0  0  0  0  0  0  0  0  0  0  0
   -5.6205   13.5372  -12.2095 N   0  0  0  0  0  0  0  0  0  0  0  0
   -5.9727   10.4835   -7.7324 C   0  0  0  0  0  0  0  0  0  0  0  0
   -5.8611   11.7523   -7.1657 C   0  0  0  0  0  0  0  0  0  0  0  0
   -4.5946   12.2988   -6.9068 C   0  0  0  0  0  0  0  0  0  0  0  0
   -3.4432   11.5806   -7.2147 C   0  0  0  0  0  0  0  0  0  0  0  0
   -3.5570   10.3109   -7.7899 C   0  0  0  0  0  0  0  0  0  0  0  0
   -4.8253    9.7663   -8.0483 C   0  0  0  0  0  0  0  0  0  0  0  0
   -2.0926   12.1556   -6.9444 C   0  0  0  0  0  0  0  0  0  0  0  0
   -1.7338   13.4204   -6.4594 C   0  0  0  0  0  0  0  0  0  0  0  0
   -0.4064   13.4584   -6.4114 N   0  0  0  0  0  0  0  0  0  0  0  0
    0.1793   12.3493   -6.7865 N   0  0  0  0  0  0  0  0  0  0  0  0
   -0.7954   11.5387   -7.1512 C   0  0  0  0  0  0  0  0  0  0  0  0
    0.4205   14.5767   -6.0073 C   0  0  0  0  0  0  0  0  0  0  0  0
   -4.6894   13.8945  -11.1046 C   0  0  0  0  0  0  0  0  0  0  0  0
   -3.7822   15.1171  -11.3990 C   0  0  0  0  0  0  0  0  0  0  0  0
   -2.3310   14.9579  -11.2532 N   0  0  0  0  0  0  0  0  0  0  0  0
   -1.8099   14.4326  -10.1320 C   0  0  0  0  0  0  0  0  0  0  0  0
   -2.5019   14.0442   -9.2076 O   0  0  0  0  0  0  0  0  0  0  0  0
   -0.2869   14.3494  -10.0364 C   0  0  0  0  0  0  0  0  0  0  0  0
   -5.5086   11.5965  -10.3394 H   0  0  0  0  0  0  0  0  0  0  0  0
   -7.0053   12.5553  -10.0799 H   0  0  0  0  0  0  0  0  0  0  0  0
   -8.1374   10.1224  -13.9131 H   0  0  0  0  0  0  0  0  0  0  0  0
   -6.8466   12.2604  -14.0624 H   0  0  0  0  0  0  0  0  0  0  0  0
   -8.1751   11.2060  -10.4447 H   0  0  0  0  0  0  0  0  0  0  0  0
   -8.0269    9.5780   -7.2478 H   0  0  0  0  0  0  0  0  0  0  0  0
   -5.0791   13.4115  -13.0408 H   0  0  0  0  0  0  0  0  0  0  0  0
   -6.7507   12.3156   -6.9255 H   0  0  0  0  0  0  0  0  0  0  0  0
   -4.5132   13.2816   -6.4664 H   0  0  0  0  0  0  0  0  0  0  0  0
   -2.6683    9.7485   -8.0357 H   0  0  0  0  0  0  0  0  0  0  0  0
   -4.9092    8.7863   -8.4943 H   0  0  0  0  0  0  0  0  0  0  0  0
   -2.4090   14.2148   -6.1776 H   0  0  0  0  0  0  0  0  0  0  0  0
   -0.6475   10.5464   -7.5511 H   0  0  0  0  0  0  0  0  0  0  0  0
    1.4812   14.2962   -6.0855 H   0  0  0  0  0  0  0  0  0  0  0  0
    0.2196   15.4369   -6.6628 H   0  0  0  0  0  0  0  0  0  0  0  0
    0.1886   14.8468   -4.9665 H   0  0  0  0  0  0  0  0  0  0  0  0
   -5.2882   14.1185  -10.2095 H   0  0  0  0  0  0  0  0  0  0  0  0
   -4.0431   13.0269  -10.9057 H   0  0  0  0  0  0  0  0  0  0  0  0
   -3.9735   15.4217  -12.4385 H   0  0  0  0  0  0  0  0  0  0  0  0
   -4.0914   15.9235  -10.7178 H   0  0  0  0  0  0  0  0  0  0  0  0
   -1.7243   15.2430  -11.9952 H   0  0  0  0  0  0  0  0  0  0  0  0
   -0.0031   13.9147   -9.0666 H   0  0  0  0  0  0  0  0  0  0  0  0
    0.0973   13.7152  -10.8489 H   0  0  0  0  0  0  0  0  0  0  0  0
    0.1416   15.3586  -10.1252 H   0  0  0  0  0  0  0  0  0  0  0  0
  1  2  1  0  0  0  0
  1  4  2  0  0  0  0
  1 11  1  0  0  0  0
  2  6  1  0  0  0  0
  3  4  1  0  0  0  0
  3  5  2  0  0  0  0
  5  6  1  0  0  0  0
  5  9  1  0  0  0  0
  6  7  1  0  0  0  0
  7  8  1  0  0  0  0
  7 10  2  3  0  0  0
  8  9  2  0  0  0  0
 10 12  1  0  0  0  0
 11 24  1  0  0  0  0
 12 13  2  0  0  0  0
 12 17  1  0  0  0  0
 13 14  1  0  0  0  0
 14 15  2  0  0  0  0
 15 16  1  0  0  0  0
 15 18  1  0  0  0  0
 16 17  2  0  0  0  0
 18 19  2  0  0  0  0
 18 22  1  0  0  0  0
 19 20  1  0  0  0  0
 20 21  1  0  0  0  0
 20 23  1  0  0  0  0
 21 22  2  0  0  0  0
 24 25  1  0  0  0  0
 25 26  1  0  0  0  0
 26 27  1  0  0  0  0
 27 28  2  0  0  0  0
 27 29  1  0  0  0  0
  2 30  1  0  0  0  0
  2 31  1  0  0  0  0
  3 32  1  0  0  0  0
  4 33  1  0  0  0  0
  6 34  1  0  0  0  0
 10 35  1  0  0  0  0
 11 36  1  0  0  0  0
 13 37  1  0  0  0  0
 14 38  1  0  0  0  0
 16 39  1  0  0  0  0
 17 40  1  0  0  0  0
 19 41  1  0  0  0  0
 22 42  1  0  0  0  0
 23 43  1  0  0  0  0
 23 44  1  0  0  0  0
 23 45  1  0  0  0  0
 24 46  1  0  0  0  0
 24 47  1  0  0  0  0
 25 48  1  0  0  0  0
 25 49  1  0  0  0  0
 26 50  1  0  0  0  0
 29 51  1  0  0  0  0
 29 52  1  0  0  0  0
 29 53  1  0  0  0  0
M  END
> <Name>
27

> <IC50[uM]>
0.68

$$$$
27
  -OEChem-05192314333D
 Structure written by MMmdl.
 53 56  0     1  0  0  0  0  0999 V2000
   -6.3855   12.3606  -12.0031 C   0  0  3  0  0  0  0  0  0  0  0  0
   -6.5214   11.8004  -10.7171 C   0  0  0  0  0  0  0  0  0  0  0  0
   -7.6991   10.5797  -13.0384 C   0  0  0  0  0  0  0  0  0  0  0  0
   -6.9626   11.7779  -13.1031 C   0  0  0  0  0  0  0  0  0  0  0  0
   -7.8238   10.0198  -11.7523 C   0  0  0  0  0  0  0  0  0  0  0  0
   -7.2557   10.6213  -10.5956 C   0  0  0  0  0  0  0  0  0  0  0  0
   -7.6268    9.7501   -9.5073 C   0  0  0  0  0  0  0  0  0  0  0  0
   -8.3057    8.7491   -9.9816 N   0  0  0  0  0  0  0  0  0  0  0  0
   -8.4330    8.8776  -11.2917 N   0  0  0  0  0  0  0  0  0  0  0  0
   -7.3352    9.8817   -8.0196 C   0  0  0  0  0  0  0  0  0  0  0  0
   -5.6205   13.5372  -12.2095 N   0  0  0  0  0  0  0  0  0  0  0  0
   -5.9727   10.4835   -7.7324 C   0  0  0  0  0  0  0  0  0  0  0  0
   -5.8611   11.7523   -7.1657 C   0  0  0  0  0  0  0  0  0  0  0  0
   -4.5946   12.2988   -6.9068 C   0  0  0  0  0  0  0  0  0  0  0  0
   -3.4432   11.5806   -7.2147 C   0  0  0  0  0  0  0  0  0  0  0  0
   -3.5570   10.3109   -7.7899 C   0  0  0  0  0  0  0  0  0  0  0  0
   -4.8253    9.7663   -8.0483 C   0  0  0  0  0  0  0  0  0  0  0  0
   -2.0926   12.1556   -6.9444 C   0  0  0  0  0  0  0  0  0  0  0  0
   -1.7338   13.4204   -6.4594 C   0  0  0  0  0  0  0  0  0  0  0  0
   -0.4064   13.4584   -6.4114 N   0  0  0  0  0  0  0  0  0  0  0  0
    0.1793   12.3493   -6.7865 N   0  0  0  0  0  0  0  0  0  0  0  0
   -0.7954   11.5387   -7.1512 C   0  0  0  0  0  0  0  0  0  0  0  0
    0.4205   14.5767   -6.0073 C   0  0  0  0  0  0  0  0  0  0  0  0
   -4.6894   13.8945  -11.1046 C   0  0  0  0  0  0  0  0  0  0  0  0
   -3.7822   15.1171  -11.3990 C   0  0  0  0  0  0  0  0  0  0  0  0
   -2.3310   14.9579  -11.2532 N   0  0  0  0  0  0  0  0  0  0  0  0
   -1.8099   14.4326  -10.1320 C   0  0  0  0  0  0  0  0  0  0  0  0
   -2.5019   14.0442   -9.2076 O   0  0  0  0  0  0  0  0  0  0  0  0
   -0.2869   14.3494  -10.0364 C   0  0  0  0  0  0  0  0  0  0  0  0
   -7.2886   12.9676  -11.8418 H   0  0  0  0  0  0  0  0  0  0  0  0
   -5.5086   11.5965  -10.3394 H   0  0  0  0  0  0  0  0  0  0  0  0
   -7.0053   12.5553  -10.0799 H   0  0  0  0  0  0  0  0  0  0  0  0
   -8.1374   10.1224  -13.9131 H   0  0  0  0  0  0  0  0  0  0  0  0
   -6.8466   12.2604  -14.0624 H   0  0  0  0  0  0  0  0  0  0  0  0
   -8.0269    9.5780   -7.2478 H   0  0  0  0  0  0  0  0  0  0  0  0
   -5.0791   13.4115  -13.0408 H   0  0  0  0  0  0  0  0  0  0  0  0
   -6.7507   12.3156   -6.9255 H   0  0  0  0  0  0  0  0  0  0  0  0
   -4.5132   13.2816   -6.4664 H   0  0  0  0  0  0  0  0  0  0  0  0
   -2.6683    9.7485   -8.0357 H   0  0  0  0  0  0  0  0  0  0  0  0
   -4.9092    8.7863   -8.4943 H   0  0  0  0  0  0  0  0  0  0  0  0
   -2.4090   14.2148   -6.1776 H   0  0  0  0  0  0  0  0  0  0  0  0
   -0.6475   10.5464   -7.5511 H   0  0  0  0  0  0  0  0  0  0  0  0
    1.4812   14.2962   -6.0855 H   0  0  0  0  0  0  0  0  0  0  0  0
    0.2196   15.4369   -6.6628 H   0  0  0  0  0  0  0  0  0  0  0  0
    0.1886   14.8468   -4.9665 H   0  0  0  0  0  0  0  0  0  0  0  0
   -5.2882   14.1185  -10.2095 H   0  0  0  0  0  0  0  0  0  0  0  0
   -4.0431   13.0269  -10.9057 H   0  0  0  0  0  0  0  0  0  0  0  0
   -3.9735   15.4217  -12.4385 H   0  0  0  0  0  0  0  0  0  0  0  0
   -4.0914   15.9235  -10.7178 H   0  0  0  0  0  0  0  0  0  0  0  0
   -1.7243   15.2430  -11.9952 H   0  0  0  0  0  0  0  0  0  0  0  0
   -0.0031   13.9147   -9.0666 H   0  0  0  0  0  0  0  0  0  0  0  0
    0.0973   13.7152  -10.8489 H   0  0  0  0  0  0  0  0  0  0  0  0
    0.1416   15.3586  -10.1252 H   0  0  0  0  0  0  0  0  0  0  0  0
  1  2  1  0  0  0  0
  1  4  1  0  0  0  0
  1 11  1  0  0  0  0
  2  6  1  0  0  0  0
  3  4  2  0  0  0  0
  3  5  1  0  0  0  0
  5  6  2  0  0  0  0
  5  9  1  0  0  0  0
  6  7  1  0  0  0  0
  7  8  1  0  0  0  0
  7 10  2  3  0  0  0
  8  9  2  0  0  0  0
 10 12  1  0  0  0  0
 11 24  1  0  0  0  0
 12 13  2  0  0  0  0
 12 17  1  0  0  0  0
 13 14  1  0  0  0  0
 14 15  2  0  0  0  0
 15 16  1  0  0  0  0
 15 18  1  0  0  0  0
 16 17  2  0  0  0  0
 18 19  2  0  0  0  0
 18 22  1  0  0  0  0
 19 20  1  0  0  0  0
 20 21  1  0  0  0  0
 20 23  1  0  0  0  0
 21 22  2  0  0  0  0
 24 25  1  0  0  0  0
 25 26  1  0  0  0  0
 26 27  1  0  0  0  0
 27 28  2  0  0  0  0
 27 29  1  0  0  0  0
  1 30  1  0  0  0  0
  2 31  1  0  0  0  0
  2 32  1  0  0  0  0
  3 33  1  0  0  0  0
  4 34  1  0  0  0  0
 10 35  1  0  0  0  0
 11 36  1  0  0  0  0
 13 37  1  0  0  0  0
 14 38  1  0  0  0  0
 16 39  1  0  0  0  0
 17 40  1  0  0  0  0
 19 41  1  0  0  0  0
 22 42  1  0  0  0  0
 23 43  1  0  0  0  0
 23 44  1  0  0  0  0
 23 45  1  0  0  0  0
 24 46  1  0  0  0  0
 24 47  1  0  0  0  0
 25 48  1  0  0  0  0
 25 49  1  0  0  0  0
 26 50  1  0  0  0  0
 29 51  1  0  0  0  0
 29 52  1  0  0  0  0
 29 53  1  0  0  0  0
M  END
> <Name>
27

> <IC50[uM]>
0.68

$$$$
27
  -OEChem-05192314333D
 Structure written by MMmdl.
 53 56  0     0  0  0  0  0  0999 V2000
   -6.3855   12.3606  -12.0031 C   0  0  0  0  0  0  0  0  0  0  0  0
   -6.5214   11.8004  -10.7171 C   0  0  0  0  0  0  0  0  0  0  0  0
   -7.6991   10.5797  -13.0384 C   0  0  0  0  0  0  0  0  0  0  0  0
   -6.9626   11.7779  -13.1031 C   0  0  0  0  0  0  0  0  0  0  0  0
   -7.8238   10.0198  -11.7523 C   0  0  0  0  0  0  0  0  0  0  0  0
   -7.2557   10.6213  -10.5956 C   0  0  0  0  0  0  0  0  0  0  0  0
   -7.6268    9.7501   -9.5073 C   0  0  0  0  0  0  0  0  0  0  0  0
   -8.3057    8.7491   -9.9816 N   0  0  0  0  0  0  0  0  0  0  0  0
   -8.4330    8.8776  -11.2917 N   0  0  0  0  0  0  0  0  0  0  0  0
   -7.3352    9.8817   -8.0196 C   0  0  0  0  0  0  0  0  0  0  0  0
   -5.6205   13.5372  -12.2095 N   0  0  0  0  0  0  0  0  0  0  0  0
   -5.9727   10.4835   -7.7324 C   0  0  0  0  0  0  0  0  0  0  0  0
   -5.8611   11.7523   -7.1657 C   0  0  0  0  0  0  0  0  0  0  0  0
   -4.5946   12.2988   -6.9068 C   0  0  0  0  0  0  0  0  0  0  0  0
   -3.4432   11.5806   -7.2147 C   0  0  0  0  0  0  0  0  0  0  0  0
   -3.5570   10.3109   -7.7899 C   0  0  0  0  0  0  0  0  0  0  0  0
   -4.8253    9.7663   -8.0483 C   0  0  0  0  0  0  0  0  0  0  0  0
   -2.0926   12.1556   -6.9444 C   0  0  0  0  0  0  0  0  0  0  0  0
   -1.7338   13.4204   -6.4594 C   0  0  0  0  0  0  0  0  0  0  0  0
   -0.4064   13.4584   -6.4114 N   0  0  0  0  0  0  0  0  0  0  0  0
    0.1793   12.3493   -6.7865 N   0  0  0  0  0  0  0  0  0  0  0  0
   -0.7954   11.5387   -7.1512 C   0  0  0  0  0  0  0  0  0  0  0  0
    0.4205   14.5767   -6.0073 C   0  0  0  0  0  0  0  0  0  0  0  0
   -4.6894   13.8945  -11.1046 C   0  0  0  0  0  0  0  0  0  0  0  0
   -3.7822   15.1171  -11.3990 C   0  0  0  0  0  0  0  0  0  0  0  0
   -2.3310   14.9579  -11.2532 N   0  0  0  0  0  0  0  0  0  0  0  0
   -1.8099   14.4326  -10.1320 C   0  0  0  0  0  0  0  0  0  0  0  0
   -2.5019   14.0442   -9.2076 O   0  0  0  0  0  0  0  0  0  0  0  0
   -0.2869   14.3494  -10.0364 C   0  0  0  0  0  0  0  0  0  0  0  0
   -5.5086   11.5965  -10.3394 H   0  0  0  0  0  0  0  0  0  0  0  0
   -7.0053   12.5553  -10.0799 H   0  0  0  0  0  0  0  0  0  0  0  0
   -8.7105   10.7812  -13.4211 H   0  0  0  0  0  0  0  0  0  0  0  0
   -7.2031    9.8404  -13.6845 H   0  0  0  0  0  0  0  0  0  0  0  0
   -6.8466   12.2604  -14.0624 H   0  0  0  0  0  0  0  0  0  0  0  0
   -8.0269    9.5780   -7.2478 H   0  0  0  0  0  0  0  0  0  0  0  0
   -5.0791   13.4115  -13.0408 H   0  0  0  0  0  0  0  0  0  0  0  0
   -6.7507   12.3156   -6.9255 H   0  0  0  0  0  0  0  0  0  0  0  0
   -4.5132   13.2816   -6.4664 H   0  0  0  0  0  0  0  0  0  0  0  0
   -2.6683    9.7485   -8.0357 H   0  0  0  0  0  0  0  0  0  0  0  0
   -4.9092    8.7863   -8.4943 H   0  0  0  0  0  0  0  0  0  0  0  0
   -2.4090   14.2148   -6.1776 H   0  0  0  0  0  0  0  0  0  0  0  0
   -0.6475   10.5464   -7.5511 H   0  0  0  0  0  0  0  0  0  0  0  0
    1.4812   14.2962   -6.0855 H   0  0  0  0  0  0  0  0  0  0  0  0
    0.2196   15.4369   -6.6628 H   0  0  0  0  0  0  0  0  0  0  0  0
    0.1886   14.8468   -4.9665 H   0  0  0  0  0  0  0  0  0  0  0  0
   -5.2882   14.1185  -10.2095 H   0  0  0  0  0  0  0  0  0  0  0  0
   -4.0431   13.0269  -10.9057 H   0  0  0  0  0  0  0  0  0  0  0  0
   -3.9735   15.4217  -12.4385 H   0  0  0  0  0  0  0  0  0  0  0  0
   -4.0914   15.9235  -10.7178 H   0  0  0  0  0  0  0  0  0  0  0  0
   -1.7243   15.2430  -11.9952 H   0  0  0  0  0  0  0  0  0  0  0  0
   -0.0031   13.9147   -9.0666 H   0  0  0  0  0  0  0  0  0  0  0  0
    0.0973   13.7152  -10.8489 H   0  0  0  0  0  0  0  0  0  0  0  0
    0.1416   15.3586  -10.1252 H   0  0  0  0  0  0  0  0  0  0  0  0
  1  2  1  0  0  0  0
  1  4  2  0  0  0  0
  1 11  1  0  0  0  0
  2  6  1  0  0  0  0
  3  4  1  0  0  0  0
  3  5  1  0  0  0  0
  5  6  2  0  0  0  0
  5  9  1  0  0  0  0
  6  7  1  0  0  0  0
  7  8  1  0  0  0  0
  7 10  2  3  0  0  0
  8  9  2  0  0  0  0
 10 12  1  0  0  0  0
 11 24  1  0  0  0  0
 12 13  2  0  0  0  0
 12 17  1  0  0  0  0
 13 14  1  0  0  0  0
 14 15  2  0  0  0  0
 15 16  1  0  0  0  0
 15 18  1  0  0  0  0
 16 17  2  0  0  0  0
 18 19  2  0  0  0  0
 18 22  1  0  0  0  0
 19 20  1  0  0  0  0
 20 21  1  0  0  0  0
 20 23  1  0  0  0  0
 21 22  2  0  0  0  0
 24 25  1  0  0  0  0
 25 26  1  0  0  0  0
 26 27  1  0  0  0  0
 27 28  2  0  0  0  0
 27 29  1  0  0  0  0
  2 30  1  0  0  0  0
  2 31  1  0  0  0  0
  3 32  1  0  0  0  0
  3 33  1  0  0  0  0
  4 34  1  0  0  0  0
 10 35  1  0  0  0  0
 11 36  1  0  0  0  0
 13 37  1  0  0  0  0
 14 38  1  0  0  0  0
 16 39  1  0  0  0  0
 17 40  1  0  0  0  0
 19 41  1  0  0  0  0
 22 42  1  0  0  0  0
 23 43  1  0  0  0  0
 23 44  1  0  0  0  0
 23 45  1  0  0  0  0
 24 46  1  0  0  0  0
 24 47  1  0  0  0  0
 25 48  1  0  0  0  0
 25 49  1  0  0  0  0
 26 50  1  0  0  0  0
 29 51  1  0  0  0  0
 29 52  1  0  0  0  0
 29 53  1  0  0  0  0
M  END
> <Name>
27

> <IC50[uM]>
0.68

$$$$
27
  -OEChem-05192314333D
 Structure written by MMmdl.
 53 56  0     1  0  0  0  0  0999 V2000
   -6.3855   12.3606  -12.0031 C   0  0  0  0  0  0  0  0  0  0  0  0
   -6.5214   11.8004  -10.7171 C   0  0  0  0  0  0  0  0  0  0  0  0
   -7.6991   10.5797  -13.0384 C   0  0  0  0  0  0  0  0  0  0  0  0
   -6.9626   11.7779  -13.1031 C   0  0  0  0  0  0  0  0  0  0  0  0
   -7.8238   10.0198  -11.7523 C   0  0  3  0  0  0  0  0  0  0  0  0
   -7.2557   10.6213  -10.5956 C   0  0  0  0  0  0  0  0  0  0  0  0
   -7.6268    9.7501   -9.5073 C   0  0  0  0  0  0  0  0  0  0  0  0
   -8.3057    8.7491   -9.9816 N   0  0  0  0  0  0  0  0  0  0  0  0
   -8.4330    8.8776  -11.2917 N   0  0  0  0  0  0  0  0  0  0  0  0
   -7.3352    9.8817   -8.0196 C   0  0  0  0  0  0  0  0  0  0  0  0
   -5.6205   13.5372  -12.2095 N   0  0  0  0  0  0  0  0  0  0  0  0
   -5.9727   10.4835   -7.7324 C   0  0  0  0  0  0  0  0  0  0  0  0
   -5.8611   11.7523   -7.1657 C   0  0  0  0  0  0  0  0  0  0  0  0
   -4.5946   12.2988   -6.9068 C   0  0  0  0  0  0  0  0  0  0  0  0
   -3.4432   11.5806   -7.2147 C   0  0  0  0  0  0  0  0  0  0  0  0
   -3.5570   10.3109   -7.7899 C   0  0  0  0  0  0  0  0  0  0  0  0
   -4.8253    9.7663   -8.0483 C   0  0  0  0  0  0  0  0  0  0  0  0
   -2.0926   12.1556   -6.9444 C   0  0  0  0  0  0  0  0  0  0  0  0
   -1.7338   13.4204   -6.4594 C   0  0  0  0  0  0  0  0  0  0  0  0
   -0.4064   13.4584   -6.4114 N   0  0  0  0  0  0  0  0  0  0  0  0
    0.1793   12.3493   -6.7865 N   0  0  0  0  0  0  0  0  0  0  0  0
   -0.7954   11.5387   -7.1512 C   0  0  0  0  0  0  0  0  0  0  0  0
    0.4205   14.5767   -6.0073 C   0  0  0  0  0  0  0  0  0  0  0  0
   -4.6894   13.8945  -11.1046 C   0  0  0  0  0  0  0  0  0  0  0  0
   -3.7822   15.1171  -11.3990 C   0  0  0  0  0  0  0  0  0  0  0  0
   -2.3310   14.9579  -11.2532 N   0  0  0  0  0  0  0  0  0  0  0  0
   -1.8099   14.4326  -10.1320 C   0  0  0  0  0  0  0  0  0  0  0  0
   -2.5019   14.0442   -9.2076 O   0  0  0  0  0  0  0  0  0  0  0  0
   -0.2869   14.3494  -10.0364 C   0  0  0  0  0  0  0  0  0  0  0  0
   -6.0716   12.2689   -9.8542 H   0  0  0  0  0  0  0  0  0  0  0  0
   -8.1374   10.1224  -13.9131 H   0  0  0  0  0  0  0  0  0  0  0  0
   -6.8466   12.2604  -14.0624 H   0  0  0  0  0  0  0  0  0  0  0  0
   -8.7543   10.5845  -11.5930 H   0  0  0  0  0  0  0  0  0  0  0  0
   -8.1046   10.5248   -7.5674 H   0  0  0  0  0  0  0  0  0  0  0  0
   -7.3794    8.8814   -7.5641 H   0  0  0  0  0  0  0  0  0  0  0  0
   -5.0791   13.4115  -13.0408 H   0  0  0  0  0  0  0  0  0  0  0  0
   -6.7507   12.3156   -6.9255 H   0  0  0  0  0  0  0  0  0  0  0  0
   -4.5132   13.2816   -6.4664 H   0  0  0  0  0  0  0  0  0  0  0  0
   -2.6683    9.7485   -8.0357 H   0  0  0  0  0  0  0  0  0  0  0  0
   -4.9092    8.7863   -8.4943 H   0  0  0  0  0  0  0  0  0  0  0  0
   -2.4090   14.2148   -6.1776 H   0  0  0  0  0  0  0  0  0  0  0  0
   -0.6475   10.5464   -7.5511 H   0  0  0  0  0  0  0  0  0  0  0  0
    1.4812   14.2962   -6.0855 H   0  0  0  0  0  0  0  0  0  0  0  0
    0.2196   15.4369   -6.6628 H   0  0  0  0  0  0  0  0  0  0  0  0
    0.1886   14.8468   -4.9665 H   0  0  0  0  0  0  0  0  0  0  0  0
   -5.2882   14.1185  -10.2095 H   0  0  0  0  0  0  0  0  0  0  0  0
   -4.0431   13.0269  -10.9057 H   0  0  0  0  0  0  0  0  0  0  0  0
   -3.9735   15.4217  -12.4385 H   0  0  0  0  0  0  0  0  0  0  0  0
   -4.0914   15.9235  -10.7178 H   0  0  0  0  0  0  0  0  0  0  0  0
   -1.7243   15.2430  -11.9952 H   0  0  0  0  0  0  0  0  0  0  0  0
   -0.0031   13.9147   -9.0666 H   0  0  0  0  0  0  0  0  0  0  0  0
    0.0973   13.7152  -10.8489 H   0  0  0  0  0  0  0  0  0  0  0  0
    0.1416   15.3586  -10.1252 H   0  0  0  0  0  0  0  0  0  0  0  0
  1  2  2  0  0  0  0
  1  4  1  0  0  0  0
  1 11  1  0  0  0  0
  2  6  1  0  0  0  0
  3  4  2  0  0  0  0
  3  5  1  0  0  0  0
  5  6  1  0  0  0  0
  5  9  1  0  0  0  0
  6  7  2  0  0  0  0
  7  8  1  0  0  0  0
  7 10  1  0  0  0  0
  8  9  2  0  0  0  0
 10 12  1  0  0  0  0
 11 24  1  0  0  0  0
 12 13  2  0  0  0  0
 12 17  1  0  0  0  0
 13 14  1  0  0  0  0
 14 15  2  0  0  0  0
 15 16  1  0  0  0  0
 15 18  1  0  0  0  0
 16 17  2  0  0  0  0
 18 19  2  0  0  0  0
 18 22  1  0  0  0  0
 19 20  1  0  0  0  0
 20 21  1  0  0  0  0
 20 23  1  0  0  0  0
 21 22  2  0  0  0  0
 24 25  1  0  0  0  0
 25 26  1  0  0  0  0
 26 27  1  0  0  0  0
 27 28  2  0  0  0  0
 27 29  1  0  0  0  0
  2 30  1  0  0  0  0
  3 31  1  0  0  0  0
  4 32  1  0  0  0  0
  5 33  1  0  0  0  0
 10 34  1  0  0  0  0
 10 35  1  0  0  0  0
 11 36  1  0  0  0  0
 13 37  1  0  0  0  0
 14 38  1  0  0  0  0
 16 39  1  0  0  0  0
 17 40  1  0  0  0  0
 19 41  1  0  0  0  0
 22 42  1  0  0  0  0
 23 43  1  0  0  0  0
 23 44  1  0  0  0  0
 23 45  1  0  0  0  0
 24 46  1  0  0  0  0
 24 47  1  0  0  0  0
 25 48  1  0  0  0  0
 25 49  1  0  0  0  0
 26 50  1  0  0  0  0
 29 51  1  0  0  0  0
 29 52  1  0  0  0  0
 29 53  1  0  0  0  0
M  END
> <Name>
27

> <IC50[uM]>
0.68

$$$$
27
  -OEChem-05192314333D
 Structure written by MMmdl.
 53 56  0     0  0  0  0  0  0999 V2000
   -6.3855   12.3606  -12.0031 C   0  0  0  0  0  0  0  0  0  0  0  0
   -6.5214   11.8004  -10.7171 C   0  0  0  0  0  0  0  0  0  0  0  0
   -7.6991   10.5797  -13.0384 C   0  0  0  0  0  0  0  0  0  0  0  0
   -6.9626   11.7779  -13.1031 C   0  0  0  0  0  0  0  0  0  0  0  0
   -7.8238   10.0198  -11.7523 C   0  0  0  0  0  0  0  0  0  0  0  0
   -7.2557   10.6213  -10.5956 C   0  0  0  0  0  0  0  0  0  0  0  0
   -7.6268    9.7501   -9.5073 C   0  0  0  0  0  0  0  0  0  0  0  0
   -8.3057    8.7491   -9.9816 N   0  0  0  0  0  0  0  0  0  0  0  0
   -8.4330    8.8776  -11.2917 N   0  0  0  0  0  0  0  0  0  0  0  0
   -7.3352    9.8817   -8.0196 C   0  0  0  0  0  0  0  0  0  0  0  0
   -5.6205   13.5372  -12.2095 N   0  0  0  0  0  0  0  0  0  0  0  0
   -5.9727   10.4835   -7.7324 C   0  0  0  0  0  0  0  0  0  0  0  0
   -5.8611   11.7523   -7.1657 C   0  0  0  0  0  0  0  0  0  0  0  0
   -4.5946   12.2988   -6.9068 C   0  0  0  0  0  0  0  0  0  0  0  0
   -3.4432   11.5806   -7.2147 C   0  0  0  0  0  0  0  0  0  0  0  0
   -3.5570   10.3109   -7.7899 C   0  0  0  0  0  0  0  0  0  0  0  0
   -4.8253    9.7663   -8.0483 C   0  0  0  0  0  0  0  0  0  0  0  0
   -2.0926   12.1556   -6.9444 C   0  0  0  0  0  0  0  0  0  0  0  0
   -1.7338   13.4204   -6.4594 C   0  0  0  0  0  0  0  0  0  0  0  0
   -0.4064   13.4584   -6.4114 N   0  0  0  0  0  0  0  0  0  0  0  0
    0.1793   12.3493   -6.7865 N   0  0  0  0  0  0  0  0  0  0  0  0
   -0.7954   11.5387   -7.1512 C   0  0  0  0  0  0  0  0  0  0  0  0
    0.4205   14.5767   -6.0073 C   0  0  0  0  0  0  0  0  0  0  0  0
   -4.6894   13.8945  -11.1046 C   0  0  0  0  0  0  0  0  0  0  0  0
   -3.7822   15.1171  -11.3990 C   0  0  0  0  0  0  0  0  0  0  0  0
   -2.3310   14.9579  -11.2532 N   0  0  0  0  0  0  0  0  0  0  0  0
   -1.8099   14.4326  -10.1320 C   0  0  0  0  0  0  0  0  0  0  0  0
   -2.5019   14.0442   -9.2076 O   0  0  0  0  0  0  0  0  0  0  0  0
   -0.2869   14.3494  -10.0364 C   0  0  0  0  0  0  0  0  0  0  0  0
   -6.0716   12.2689   -9.8542 H   0  0  0  0  0  0  0  0  0  0  0  0
   -8.1374   10.1224  -13.9131 H   0  0  0  0  0  0  0  0  0  0  0  0
   -7.6459   12.5314  -13.5218 H   0  0  0  0  0  0  0  0  0  0  0  0
   -6.1429   11.5918  -13.8126 H   0  0  0  0  0  0  0  0  0  0  0  0
   -8.1046   10.5248   -7.5674 H   0  0  0  0  0  0  0  0  0  0  0  0
   -7.3794    8.8814   -7.5641 H   0  0  0  0  0  0  0  0  0  0  0  0
   -5.0791   13.4115  -13.0408 H   0  0  0  0  0  0  0  0  0  0  0  0
   -6.7507   12.3156   -6.9255 H   0  0  0  0  0  0  0  0  0  0  0  0
   -4.5132   13.2816   -6.4664 H   0  0  0  0  0  0  0  0  0  0  0  0
   -2.6683    9.7485   -8.0357 H   0  0  0  0  0  0  0  0  0  0  0  0
   -4.9092    8.7863   -8.4943 H   0  0  0  0  0  0  0  0  0  0  0  0
   -2.4090   14.2148   -6.1776 H   0  0  0  0  0  0  0  0  0  0  0  0
   -0.6475   10.5464   -7.5511 H   0  0  0  0  0  0  0  0  0  0  0  0
    1.4812   14.2962   -6.0855 H   0  0  0  0  0  0  0  0  0  0  0  0
    0.2196   15.4369   -6.6628 H   0  0  0  0  0  0  0  0  0  0  0  0
    0.1886   14.8468   -4.9665 H   0  0  0  0  0  0  0  0  0  0  0  0
   -5.2882   14.1185  -10.2095 H   0  0  0  0  0  0  0  0  0  0  0  0
   -4.0431   13.0269  -10.9057 H   0  0  0  0  0  0  0  0  0  0  0  0
   -3.9735   15.4217  -12.4385 H   0  0  0  0  0  0  0  0  0  0  0  0
   -4.0914   15.9235  -10.7178 H   0  0  0  0  0  0  0  0  0  0  0  0
   -1.7243   15.2430  -11.9952 H   0  0  0  0  0  0  0  0  0  0  0  0
   -0.0031   13.9147   -9.0666 H   0  0  0  0  0  0  0  0  0  0  0  0
    0.0973   13.7152  -10.8489 H   0  0  0  0  0  0  0  0  0  0  0  0
    0.1416   15.3586  -10.1252 H   0  0  0  0  0  0  0  0  0  0  0  0
  1  2  2  0  0  0  0
  1  4  1  0  0  0  0
  1 11  1  0  0  0  0
  2  6  1  0  0  0  0
  3  4  1  0  0  0  0
  3  5  2  0  0  0  0
  5  6  1  0  0  0  0
  5  9  1  0  0  0  0
  6  7  2  0  0  0  0
  7  8  1  0  0  0  0
  7 10  1  0  0  0  0
  8  9  2  0  0  0  0
 10 12  1  0  0  0  0
 11 24  1  0  0  0  0
 12 13  2  0  0  0  0
 12 17  1  0  0  0  0
 13 14  1  0  0  0  0
 14 15  2  0  0  0  0
 15 16  1  0  0  0  0
 15 18  1  0  0  0  0
 16 17  2  0  0  0  0
 18 19  2  0  0  0  0
 18 22  1  0  0  0  0
 19 20  1  0  0  0  0
 20 21  1  0  0  0  0
 20 23  1  0  0  0  0
 21 22  2  0  0  0  0
 24 25  1  0  0  0  0
 25 26  1  0  0  0  0
 26 27  1  0  0  0  0
 27 28  2  0  0  0  0
 27 29  1  0  0  0  0
  2 30  1  0  0  0  0
  3 31  1  0  0  0  0
  4 32  1  0  0  0  0
  4 33  1  0  0  0  0
 10 34  1  0  0  0  0
 10 35  1  0  0  0  0
 11 36  1  0  0  0  0
 13 37  1  0  0  0  0
 14 38  1  0  0  0  0
 16 39  1  0  0  0  0
 17 40  1  0  0  0  0
 19 41  1  0  0  0  0
 22 42  1  0  0  0  0
 23 43  1  0  0  0  0
 23 44  1  0  0  0  0
 23 45  1  0  0  0  0
 24 46  1  0  0  0  0
 24 47  1  0  0  0  0
 25 48  1  0  0  0  0
 25 49  1  0  0  0  0
 26 50  1  0  0  0  0
 29 51  1  0  0  0  0
 29 52  1  0  0  0  0
 29 53  1  0  0  0  0
M  END
> <Name>
27

> <IC50[uM]>
0.68

$$$$
27
  -OEChem-05192314333D
 Structure written by MMmdl.
 53 56  0     0  0  0  0  0  0999 V2000
   -6.3855   12.3606  -12.0031 C   0  0  0  0  0  0  0  0  0  0  0  0
   -6.5214   11.8004  -10.7171 C   0  0  0  0  0  0  0  0  0  0  0  0
   -7.6991   10.5797  -13.0384 C   0  0  0  0  0  0  0  0  0  0  0  0
   -6.9626   11.7779  -13.1031 C   0  0  0  0  0  0  0  0  0  0  0  0
   -7.8238   10.0198  -11.7523 C   0  0  0  0  0  0  0  0  0  0  0  0
   -7.2557   10.6213  -10.5956 C   0  0  0  0  0  0  0  0  0  0  0  0
   -7.6268    9.7501   -9.5073 C   0  0  0  0  0  0  0  0  0  0  0  0
   -8.3057    8.7491   -9.9816 N   0  0  0  0  0  0  0  0  0  0  0  0
   -8.4330    8.8776  -11.2917 N   0  0  0  0  0  0  0  0  0  0  0  0
   -7.3352    9.8817   -8.0196 C   0  0  0  0  0  0  0  0  0  0  0  0
   -5.6205   13.5372  -12.2095 N   0  0  0  0  0  0  0  0  0  0  0  0
   -5.9727   10.4835   -7.7324 C   0  0  0  0  0  0  0  0  0  0  0  0
   -5.8611   11.7523   -7.1657 C   0  0  0  0  0  0  0  0  0  0  0  0
   -4.5946   12.2988   -6.9068 C   0  0  0  0  0  0  0  0  0  0  0  0
   -3.4432   11.5806   -7.2147 C   0  0  0  0  0  0  0  0  0  0  0  0
   -3.5570   10.3109   -7.7899 C   0  0  0  0  0  0  0  0  0  0  0  0
   -4.8253    9.7663   -8.0483 C   0  0  0  0  0  0  0  0  0  0  0  0
   -2.0926   12.1556   -6.9444 C   0  0  0  0  0  0  0  0  0  0  0  0
   -1.7338   13.4204   -6.4594 C   0  0  0  0  0  0  0  0  0  0  0  0
   -0.4064   13.4584   -6.4114 N   0  0  0  0  0  0  0  0  0  0  0  0
    0.1793   12.3493   -6.7865 N   0  0  0  0  0  0  0  0  0  0  0  0
   -0.7954   11.5387   -7.1512 C   0  0  0  0  0  0  0  0  0  0  0  0
    0.4205   14.5767   -6.0073 C   0  0  0  0  0  0  0  0  0  0  0  0
   -4.6894   13.8945  -11.1046 C   0  0  0  0  0  0  0  0  0  0  0  0
   -3.7822   15.1171  -11.3990 C   0  0  0  0  0  0  0  0  0  0  0  0
   -2.3310   14.9579  -11.2532 N   0  0  0  0  0  0  0  0  0  0  0  0
   -1.8099   14.4326  -10.1320 C   0  0  0  0  0  0  0  0  0  0  0  0
   -2.5019   14.0442   -9.2076 O   0  0  0  0  0  0  0  0  0  0  0  0
   -0.2869   14.3494  -10.0364 C   0  0  0  0  0  0  0  0  0  0  0  0
   -5.5086   11.5965  -10.3394 H   0  0  0  0  0  0  0  0  0  0  0  0
   -7.0053   12.5553  -10.0799 H   0  0  0  0  0  0  0  0  0  0  0  0
   -8.1374   10.1224  -13.9131 H   0  0  0  0  0  0  0  0  0  0  0  0
   -6.8466   12.2604  -14.0624 H   0  0  0  0  0  0  0  0  0  0  0  0
   -8.1046   10.5248   -7.5674 H   0  0  0  0  0  0  0  0  0  0  0  0
   -7.3794    8.8814   -7.5641 H   0  0  0  0  0  0  0  0  0  0  0  0
   -5.0791   13.4115  -13.0408 H   0  0  0  0  0  0  0  0  0  0  0  0
   -6.7507   12.3156   -6.9255 H   0  0  0  0  0  0  0  0  0  0  0  0
   -4.5132   13.2816   -6.4664 H   0  0  0  0  0  0  0  0  0  0  0  0
   -2.6683    9.7485   -8.0357 H   0  0  0  0  0  0  0  0  0  0  0  0
   -4.9092    8.7863   -8.4943 H   0  0  0  0  0  0  0  0  0  0  0  0
   -2.4090   14.2148   -6.1776 H   0  0  0  0  0  0  0  0  0  0  0  0
   -0.6475   10.5464   -7.5511 H   0  0  0  0  0  0  0  0  0  0  0  0
    1.4812   14.2962   -6.0855 H   0  0  0  0  0  0  0  0  0  0  0  0
    0.2196   15.4369   -6.6628 H   0  0  0  0  0  0  0  0  0  0  0  0
    0.1886   14.8468   -4.9665 H   0  0  0  0  0  0  0  0  0  0  0  0
   -5.2882   14.1185  -10.2095 H   0  0  0  0  0  0  0  0  0  0  0  0
   -4.0431   13.0269  -10.9057 H   0  0  0  0  0  0  0  0  0  0  0  0
   -3.9735   15.4217  -12.4385 H   0  0  0  0  0  0  0  0  0  0  0  0
   -4.0914   15.9235  -10.7178 H   0  0  0  0  0  0  0  0  0  0  0  0
   -1.7243   15.2430  -11.9952 H   0  0  0  0  0  0  0  0  0  0  0  0
   -0.0031   13.9147   -9.0666 H   0  0  0  0  0  0  0  0  0  0  0  0
    0.0973   13.7152  -10.8489 H   0  0  0  0  0  0  0  0  0  0  0  0
    0.1416   15.3586  -10.1252 H   0  0  0  0  0  0  0  0  0  0  0  0
  1  2  1  0  0  0  0
  1  4  2  0  0  0  0
  1 11  1  0  0  0  0
  2  6  1  0  0  0  0
  3  4  1  0  0  0  0
  3  5  2  0  0  0  0
  5  6  1  0  0  0  0
  5  9  1  0  0  0  0
  6  7  2  0  0  0  0
  7  8  1  0  0  0  0
  7 10  1  0  0  0  0
  8  9  2  0  0  0  0
 10 12  1  0  0  0  0
 11 24  1  0  0  0  0
 12 13  2  0  0  0  0
 12 17  1  0  0  0  0
 13 14  1  0  0  0  0
 14 15  2  0  0  0  0
 15 16  1  0  0  0  0
 15 18  1  0  0  0  0
 16 17  2  0  0  0  0
 18 19  2  0  0  0  0
 18 22  1  0  0  0  0
 19 20  1  0  0  0  0
 20 21  1  0  0  0  0
 20 23  1  0  0  0  0
 21 22  2  0  0  0  0
 24 25  1  0  0  0  0
 25 26  1  0  0  0  0
 26 27  1  0  0  0  0
 27 28  2  0  0  0  0
 27 29  1  0  0  0  0
  2 30  1  0  0  0  0
  2 31  1  0  0  0  0
  3 32  1  0  0  0  0
  4 33  1  0  0  0  0
 10 34  1  0  0  0  0
 10 35  1  0  0  0  0
 11 36  1  0  0  0  0
 13 37  1  0  0  0  0
 14 38  1  0  0  0  0
 16 39  1  0  0  0  0
 17 40  1  0  0  0  0
 19 41  1  0  0  0  0
 22 42  1  0  0  0  0
 23 43  1  0  0  0  0
 23 44  1  0  0  0  0
 23 45  1  0  0  0  0
 24 46  1  0  0  0  0
 24 47  1  0  0  0  0
 25 48  1  0  0  0  0
 25 49  1  0  0  0  0
 26 50  1  0  0  0  0
 29 51  1  0  0  0  0
 29 52  1  0  0  0  0
 29 53  1  0  0  0  0
M  END
> <Name>
27

> <IC50[uM]>
0.68

$$$$
27
  -OEChem-05192314333D
 Structure written by MMmdl.
 53 56  0     1  0  0  0  0  0999 V2000
   -6.3855   12.3606  -12.0031 C   0  0  0  0  0  0  0  0  0  0  0  0
   -6.5214   11.8004  -10.7171 C   0  0  0  0  0  0  0  0  0  0  0  0
   -7.6991   10.5797  -13.0384 C   0  0  0  0  0  0  0  0  0  0  0  0
   -6.9626   11.7779  -13.1031 C   0  0  0  0  0  0  0  0  0  0  0  0
   -7.8238   10.0198  -11.7523 C   0  0  0  0  0  0  0  0  0  0  0  0
   -7.2557   10.6213  -10.5956 C   0  0  3  0  0  0  0  0  0  0  0  0
   -7.6268    9.7501   -9.5073 C   0  0  0  0  0  0  0  0  0  0  0  0
   -8.3057    8.7491   -9.9816 N   0  0  0  0  0  0  0  0  0  0  0  0
   -8.4330    8.8776  -11.2917 N   0  0  0  0  0  0  0  0  0  0  0  0
   -7.3352    9.8817   -8.0196 C   0  0  0  0  0  0  0  0  0  0  0  0
   -5.6205   13.5372  -12.2095 N   0  0  0  0  0  0  0  0  0  0  0  0
   -5.9727   10.4835   -7.7324 C   0  0  0  0  0  0  0  0  0  0  0  0
   -5.8611   11.7523   -7.1657 C   0  0  0  0  0  0  0  0  0  0  0  0
   -4.5946   12.2988   -6.9068 C   0  0  0  0  0  0  0  0  0  0  0  0
   -3.4432   11.5806   -7.2147 C   0  0  0  0  0  0  0  0  0  0  0  0
   -3.5570   10.3109   -7.7899 C   0  0  0  0  0  0  0  0  0  0  0  0
   -4.8253    9.7663   -8.0483 C   0  0  0  0  0  0  0  0  0  0  0  0
   -2.0926   12.1556   -6.9444 C   0  0  0  0  0  0  0  0  0  0  0  0
   -1.7338   13.4204   -6.4594 C   0  0  0  0  0  0  0  0  0  0  0  0
   -0.4064   13.4584   -6.4114 N   0  0  0  0  0  0  0  0  0  0  0  0
    0.1793   12.3493   -6.7865 N   0  0  0  0  0  0  0  0  0  0  0  0
   -0.7954   11.5387   -7.1512 C   0  0  0  0  0  0  0  0  0  0  0  0
    0.4205   14.5767   -6.0073 C   0  0  0  0  0  0  0  0  0  0  0  0
   -4.6894   13.8945  -11.1046 C   0  0  0  0  0  0  0  0  0  0  0  0
   -3.7822   15.1171  -11.3990 C   0  0  0  0  0  0  0  0  0  0  0  0
   -2.3310   14.9579  -11.2532 N   0  0  0  0  0  0  0  0  0  0  0  0
   -1.8099   14.4326  -10.1320 C   0  0  0  0  0  0  0  0  0  0  0  0
   -2.5019   14.0442   -9.2076 O   0  0  0  0  0  0  0  0  0  0  0  0
   -0.2869   14.3494  -10.0364 C   0  0  0  0  0  0  0  0  0  0  0  0
   -6.0716   12.2689   -9.8542 H   0  0  0  0  0  0  0  0  0  0  0  0
   -8.1374   10.1224  -13.9131 H   0  0  0  0  0  0  0  0  0  0  0  0
   -6.8466   12.2604  -14.0624 H   0  0  0  0  0  0  0  0  0  0  0  0
   -8.1751   11.2060  -10.4447 H   0  0  0  0  0  0  0  0  0  0  0  0
   -8.6759    7.9956   -9.4383 H   0  0  0  0  0  0  0  0  0  0  0  0
   -8.0269    9.5780   -7.2478 H   0  0  0  0  0  0  0  0  0  0  0  0
   -5.0791   13.4115  -13.0408 H   0  0  0  0  0  0  0  0  0  0  0  0
   -6.7507   12.3156   -6.9255 H   0  0  0  0  0  0  0  0  0  0  0  0
   -4.5132   13.2816   -6.4664 H   0  0  0  0  0  0  0  0  0  0  0  0
   -2.6683    9.7485   -8.0357 H   0  0  0  0  0  0  0  0  0  0  0  0
   -4.9092    8.7863   -8.4943 H   0  0  0  0  0  0  0  0  0  0  0  0
   -2.4090   14.2148   -6.1776 H   0  0  0  0  0  0  0  0  0  0  0  0
   -0.6475   10.5464   -7.5511 H   0  0  0  0  0  0  0  0  0  0  0  0
    1.4812   14.2962   -6.0855 H   0  0  0  0  0  0  0  0  0  0  0  0
    0.2196   15.4369   -6.6628 H   0  0  0  0  0  0  0  0  0  0  0  0
    0.1886   14.8468   -4.9665 H   0  0  0  0  0  0  0  0  0  0  0  0
   -5.2882   14.1185  -10.2095 H   0  0  0  0  0  0  0  0  0  0  0  0
   -4.0431   13.0269  -10.9057 H   0  0  0  0  0  0  0  0  0  0  0  0
   -3.9735   15.4217  -12.4385 H   0  0  0  0  0  0  0  0  0  0  0  0
   -4.0914   15.9235  -10.7178 H   0  0  0  0  0  0  0  0  0  0  0  0
   -1.7243   15.2430  -11.9952 H   0  0  0  0  0  0  0  0  0  0  0  0
   -0.0031   13.9147   -9.0666 H   0  0  0  0  0  0  0  0  0  0  0  0
    0.0973   13.7152  -10.8489 H   0  0  0  0  0  0  0  0  0  0  0  0
    0.1416   15.3586  -10.1252 H   0  0  0  0  0  0  0  0  0  0  0  0
  1  2  2  0  0  0  0
  1  4  1  0  0  0  0
  1 11  1  0  0  0  0
  2  6  1  0  0  0  0
  3  4  2  0  0  0  0
  3  5  1  0  0  0  0
  5  6  1  0  0  0  0
  5  9  2  0  0  0  0
  6  7  1  0  0  0  0
  7  8  1  0  0  0  0
  7 10  2  3  0  0  0
  8  9  1  0  0  0  0
 10 12  1  0  0  0  0
 11 24  1  0  0  0  0
 12 13  2  0  0  0  0
 12 17  1  0  0  0  0
 13 14  1  0  0  0  0
 14 15  2  0  0  0  0
 15 16  1  0  0  0  0
 15 18  1  0  0  0  0
 16 17  2  0  0  0  0
 18 19  2  0  0  0  0
 18 22  1  0  0  0  0
 19 20  1  0  0  0  0
 20 21  1  0  0  0  0
 20 23  1  0  0  0  0
 21 22  2  0  0  0  0
 24 25  1  0  0  0  0
 25 26  1  0  0  0  0
 26 27  1  0  0  0  0
 27 28  2  0  0  0  0
 27 29  1  0  0  0  0
  2 30  1  0  0  0  0
  3 31  1  0  0  0  0
  4 32  1  0  0  0  0
  6 33  1  0  0  0  0
  8 34  1  0  0  0  0
 10 35  1  0  0  0  0
 11 36  1  0  0  0  0
 13 37  1  0  0  0  0
 14 38  1  0  0  0  0
 16 39  1  0  0  0  0
 17 40  1  0  0  0  0
 19 41  1  0  0  0  0
 22 42  1  0  0  0  0
 23 43  1  0  0  0  0
 23 44  1  0  0  0  0
 23 45  1  0  0  0  0
 24 46  1  0  0  0  0
 24 47  1  0  0  0  0
 25 48  1  0  0  0  0
 25 49  1  0  0  0  0
 26 50  1  0  0  0  0
 29 51  1  0  0  0  0
 29 52  1  0  0  0  0
 29 53  1  0  0  0  0
M  END
> <Name>
27

> <IC50[uM]>
0.68

$$$$
27
  -OEChem-05192314333D
 Structure written by MMmdl.
 53 56  0     1  0  0  0  0  0999 V2000
   -6.3855   12.3606  -12.0031 C   0  0  0  0  0  0  0  0  0  0  0  0
   -6.5214   11.8004  -10.7171 C   0  0  0  0  0  0  0  0  0  0  0  0
   -7.6991   10.5797  -13.0384 C   0  0  0  0  0  0  0  0  0  0  0  0
   -6.9626   11.7779  -13.1031 C   0  0  0  0  0  0  0  0  0  0  0  0
   -7.8238   10.0198  -11.7523 C   0  0  3  0  0  0  0  0  0  0  0  0
   -7.2557   10.6213  -10.5956 C   0  0  0  0  0  0  0  0  0  0  0  0
   -7.6268    9.7501   -9.5073 C   0  0  0  0  0  0  0  0  0  0  0  0
   -8.3057    8.7491   -9.9816 N   0  0  0  0  0  0  0  0  0  0  0  0
   -8.4330    8.8776  -11.2917 N   0  0  0  0  0  0  0  0  0  0  0  0
   -7.3352    9.8817   -8.0196 C   0  0  0  0  0  0  0  0  0  0  0  0
   -5.6205   13.5372  -12.2095 N   0  0  0  0  0  0  0  0  0  0  0  0
   -5.9727   10.4835   -7.7324 C   0  0  0  0  0  0  0  0  0  0  0  0
   -5.8611   11.7523   -7.1657 C   0  0  0  0  0  0  0  0  0  0  0  0
   -4.5946   12.2988   -6.9068 C   0  0  0  0  0  0  0  0  0  0  0  0
   -3.4432   11.5806   -7.2147 C   0  0  0  0  0  0  0  0  0  0  0  0
   -3.5570   10.3109   -7.7899 C   0  0  0  0  0  0  0  0  0  0  0  0
   -4.8253    9.7663   -8.0483 C   0  0  0  0  0  0  0  0  0  0  0  0
   -2.0926   12.1556   -6.9444 C   0  0  0  0  0  0  0  0  0  0  0  0
   -1.7338   13.4204   -6.4594 C   0  0  0  0  0  0  0  0  0  0  0  0
   -0.4064   13.4584   -6.4114 N   0  0  0  0  0  0  0  0  0  0  0  0
    0.1793   12.3493   -6.7865 N   0  0  0  0  0  0  0  0  0  0  0  0
   -0.7954   11.5387   -7.1512 C   0  0  0  0  0  0  0  0  0  0  0  0
    0.4205   14.5767   -6.0073 C   0  0  0  0  0  0  0  0  0  0  0  0
   -4.6894   13.8945  -11.1046 C   0  0  0  0  0  0  0  0  0  0  0  0
   -3.7822   15.1171  -11.3990 C   0  0  0  0  0  0  0  0  0  0  0  0
   -2.3310   14.9579  -11.2532 N   0  0  0  0  0  0  0  0  0  0  0  0
   -1.8099   14.4326  -10.1320 C   0  0  0  0  0  0  0  0  0  0  0  0
   -2.5019   14.0442   -9.2076 O   0  0  0  0  0  0  0  0  0  0  0  0
   -0.2869   14.3494  -10.0364 C   0  0  0  0  0  0  0  0  0  0  0  0
   -6.0716   12.2689   -9.8542 H   0  0  0  0  0  0  0  0  0  0  0  0
   -8.1374   10.1224  -13.9131 H   0  0  0  0  0  0  0  0  0  0  0  0
   -6.8466   12.2604  -14.0624 H   0  0  0  0  0  0  0  0  0  0  0  0
   -8.7543   10.5845  -11.5930 H   0  0  0  0  0  0  0  0  0  0  0  0
   -7.8268    7.8956   -9.7763 H   0  0  0  0  0  0  0  0  0  0  0  0
   -9.4057    8.9143  -11.5206 H   0  0  0  0  0  0  0  0  0  0  0  0
   -8.0269    9.5780   -7.2478 H   0  0  0  0  0  0  0  0  0  0  0  0
   -6.7507   12.3156   -6.9255 H   0  0  0  0  0  0  0  0  0  0  0  0
   -4.5132   13.2816   -6.4664 H   0  0  0  0  0  0  0  0  0  0  0  0
   -2.6683    9.7485   -8.0357 H   0  0  0  0  0  0  0  0  0  0  0  0
   -4.9092    8.7863   -8.4943 H   0  0  0  0  0  0  0  0  0  0  0  0
   -2.4090   14.2148   -6.1776 H   0  0  0  0  0  0  0  0  0  0  0  0
   -0.6475   10.5464   -7.5511 H   0  0  0  0  0  0  0  0  0  0  0  0
    1.4812   14.2962   -6.0855 H   0  0  0  0  0  0  0  0  0  0  0  0
    0.2196   15.4369   -6.6628 H   0  0  0  0  0  0  0  0  0  0  0  0
    0.1886   14.8468   -4.9665 H   0  0  0  0  0  0  0  0  0  0  0  0
   -5.2882   14.1185  -10.2095 H   0  0  0  0  0  0  0  0  0  0  0  0
   -4.0431   13.0269  -10.9057 H   0  0  0  0  0  0  0  0  0  0  0  0
   -3.9735   15.4217  -12.4385 H   0  0  0  0  0  0  0  0  0  0  0  0
   -4.0914   15.9235  -10.7178 H   0  0  0  0  0  0  0  0  0  0  0  0
   -1.7243   15.2430  -11.9952 H   0  0  0  0  0  0  0  0  0  0  0  0
   -0.0031   13.9147   -9.0666 H   0  0  0  0  0  0  0  0  0  0  0  0
    0.0973   13.7152  -10.8489 H   0  0  0  0  0  0  0  0  0  0  0  0
    0.1416   15.3586  -10.1252 H   0  0  0  0  0  0  0  0  0  0  0  0
  1  2  1  0  0  0  0
  1  4  1  0  0  0  0
  1 11  2  0  0  0  0
  2  6  2  0  0  0  0
  3  4  2  0  0  0  0
  3  5  1  0  0  0  0
  5  6  1  0  0  0  0
  5  9  1  0  0  0  0
  6  7  1  0  0  0  0
  7  8  1  0  0  0  0
  7 10  2  3  0  0  0
  8  9  1  0  0  0  0
 10 12  1  0  0  0  0
 11 24  1  0  0  0  0
 12 13  2  0  0  0  0
 12 17  1  0  0  0  0
 13 14  1  0  0  0  0
 14 15  2  0  0  0  0
 15 16  1  0  0  0  0
 15 18  1  0  0  0  0
 16 17  2  0  0  0  0
 18 19  2  0  0  0  0
 18 22  1  0  0  0  0
 19 20  1  0  0  0  0
 20 21  1  0  0  0  0
 20 23  1  0  0  0  0
 21 22  2  0  0  0  0
 24 25  1  0  0  0  0
 25 26  1  0  0  0  0
 26 27  1  0  0  0  0
 27 28  2  0  0  0  0
 27 29  1  0  0  0  0
  2 30  1  0  0  0  0
  3 31  1  0  0  0  0
  4 32  1  0  0  0  0
  5 33  1  0  0  0  0
  8 34  1  0  0  0  0
  9 35  1  0  0  0  0
 10 36  1  0  0  0  0
 13 37  1  0  0  0  0
 14 38  1  0  0  0  0
 16 39  1  0  0  0  0
 17 40  1  0  0  0  0
 19 41  1  0  0  0  0
 22 42  1  0  0  0  0
 23 43  1  0  0  0  0
 23 44  1  0  0  0  0
 23 45  1  0  0  0  0
 24 46  1  0  0  0  0
 24 47  1  0  0  0  0
 25 48  1  0  0  0  0
 25 49  1  0  0  0  0
 26 50  1  0  0  0  0
 29 51  1  0  0  0  0
 29 52  1  0  0  0  0
 29 53  1  0  0  0  0
M  END
> <Name>
27

> <IC50[uM]>
0.68

$$$$
27
  -OEChem-05192314333D
 Structure written by MMmdl.
 53 56  0     0  0  0  0  0  0999 V2000
   -6.3855   12.3606  -12.0031 C   0  0  0  0  0  0  0  0  0  0  0  0
   -6.5214   11.8004  -10.7171 C   0  0  0  0  0  0  0  0  0  0  0  0
   -7.6991   10.5797  -13.0384 C   0  0  0  0  0  0  0  0  0  0  0  0
   -6.9626   11.7779  -13.1031 C   0  0  0  0  0  0  0  0  0  0  0  0
   -7.8238   10.0198  -11.7523 C   0  0  0  0  0  0  0  0  0  0  0  0
   -7.2557   10.6213  -10.5956 C   0  0  0  0  0  0  0  0  0  0  0  0
   -7.6268    9.7501   -9.5073 C   0  0  0  0  0  0  0  0  0  0  0  0
   -8.3057    8.7491   -9.9816 N   0  0  0  0  0  0  0  0  0  0  0  0
   -8.4330    8.8776  -11.2917 N   0  0  0  0  0  0  0  0  0  0  0  0
   -7.3352    9.8817   -8.0196 C   0  0  0  0  0  0  0  0  0  0  0  0
   -5.6205   13.5372  -12.2095 N   0  0  0  0  0  0  0  0  0  0  0  0
   -5.9727   10.4835   -7.7324 C   0  0  0  0  0  0  0  0  0  0  0  0
   -5.8611   11.7523   -7.1657 C   0  0  0  0  0  0  0  0  0  0  0  0
   -4.5946   12.2988   -6.9068 C   0  0  0  0  0  0  0  0  0  0  0  0
   -3.4432   11.5806   -7.2147 C   0  0  0  0  0  0  0  0  0  0  0  0
   -3.5570   10.3109   -7.7899 C   0  0  0  0  0  0  0  0  0  0  0  0
   -4.8253    9.7663   -8.0483 C   0  0  0  0  0  0  0  0  0  0  0  0
   -2.0926   12.1556   -6.9444 C   0  0  0  0  0  0  0  0  0  0  0  0
   -1.7338   13.4204   -6.4594 C   0  0  0  0  0  0  0  0  0  0  0  0
   -0.4064   13.4584   -6.4114 N   0  0  0  0  0  0  0  0  0  0  0  0
    0.1793   12.3493   -6.7865 N   0  0  0  0  0  0  0  0  0  0  0  0
   -0.7954   11.5387   -7.1512 C   0  0  0  0  0  0  0  0  0  0  0  0
    0.4205   14.5767   -6.0073 C   0  0  0  0  0  0  0  0  0  0  0  0
   -4.6894   13.8945  -11.1046 C   0  0  0  0  0  0  0  0  0  0  0  0
   -3.7822   15.1171  -11.3990 C   0  0  0  0  0  0  0  0  0  0  0  0
   -2.3310   14.9579  -11.2532 N   0  0  0  0  0  0  0  0  0  0  0  0
   -1.8099   14.4326  -10.1320 C   0  0  0  0  0  0  0  0  0  0  0  0
   -2.5019   14.0442   -9.2076 O   0  0  0  0  0  0  0  0  0  0  0  0
   -0.2869   14.3494  -10.0364 C   0  0  0  0  0  0  0  0  0  0  0  0
   -6.0716   12.2689   -9.8542 H   0  0  0  0  0  0  0  0  0  0  0  0
   -8.1374   10.1224  -13.9131 H   0  0  0  0  0  0  0  0  0  0  0  0
   -7.6459   12.5314  -13.5218 H   0  0  0  0  0  0  0  0  0  0  0  0
   -6.1429   11.5918  -13.8126 H   0  0  0  0  0  0  0  0  0  0  0  0
   -7.8268    7.8956   -9.7763 H   0  0  0  0  0  0  0  0  0  0  0  0
   -9.4057    8.9143  -11.5206 H   0  0  0  0  0  0  0  0  0  0  0  0
   -8.0269    9.5780   -7.2478 H   0  0  0  0  0  0  0  0  0  0  0  0
   -6.7507   12.3156   -6.9255 H   0  0  0  0  0  0  0  0  0  0  0  0
   -4.5132   13.2816   -6.4664 H   0  0  0  0  0  0  0  0  0  0  0  0
   -2.6683    9.7485   -8.0357 H   0  0  0  0  0  0  0  0  0  0  0  0
   -4.9092    8.7863   -8.4943 H   0  0  0  0  0  0  0  0  0  0  0  0
   -2.4090   14.2148   -6.1776 H   0  0  0  0  0  0  0  0  0  0  0  0
   -0.6475   10.5464   -7.5511 H   0  0  0  0  0  0  0  0  0  0  0  0
    1.4812   14.2962   -6.0855 H   0  0  0  0  0  0  0  0  0  0  0  0
    0.2196   15.4369   -6.6628 H   0  0  0  0  0  0  0  0  0  0  0  0
    0.1886   14.8468   -4.9665 H   0  0  0  0  0  0  0  0  0  0  0  0
   -5.2882   14.1185  -10.2095 H   0  0  0  0  0  0  0  0  0  0  0  0
   -4.0431   13.0269  -10.9057 H   0  0  0  0  0  0  0  0  0  0  0  0
   -3.9735   15.4217  -12.4385 H   0  0  0  0  0  0  0  0  0  0  0  0
   -4.0914   15.9235  -10.7178 H   0  0  0  0  0  0  0  0  0  0  0  0
   -1.7243   15.2430  -11.9952 H   0  0  0  0  0  0  0  0  0  0  0  0
   -0.0031   13.9147   -9.0666 H   0  0  0  0  0  0  0  0  0  0  0  0
    0.0973   13.7152  -10.8489 H   0  0  0  0  0  0  0  0  0  0  0  0
    0.1416   15.3586  -10.1252 H   0  0  0  0  0  0  0  0  0  0  0  0
  1  2  1  0  0  0  0
  1  4  1  0  0  0  0
  1 11  2  0  0  0  0
  2  6  2  0  0  0  0
  3  4  1  0  0  0  0
  3  5  2  0  0  0  0
  5  6  1  0  0  0  0
  5  9  1  0  0  0  0
  6  7  1  0  0  0  0
  7  8  1  0  0  0  0
  7 10  2  3  0  0  0
  8  9  1  0  0  0  0
 10 12  1  0  0  0  0
 11 24  1  0  0  0  0
 12 13  2  0  0  0  0
 12 17  1  0  0  0  0
 13 14  1  0  0  0  0
 14 15  2  0  0  0  0
 15 16  1  0  0  0  0
 15 18  1  0  0  0  0
 16 17  2  0  0  0  0
 18 19  2  0  0  0  0
 18 22  1  0  0  0  0
 19 20  1  0  0  0  0
 20 21  1  0  0  0  0
 20 23  1  0  0  0  0
 21 22  2  0  0  0  0
 24 25  1  0  0  0  0
 25 26  1  0  0  0  0
 26 27  1  0  0  0  0
 27 28  2  0  0  0  0
 27 29  1  0  0  0  0
  2 30  1  0  0  0  0
  3 31  1  0  0  0  0
  4 32  1  0  0  0  0
  4 33  1  0  0  0  0
  8 34  1  0  0  0  0
  9 35  1  0  0  0  0
 10 36  1  0  0  0  0
 13 37  1  0  0  0  0
 14 38  1  0  0  0  0
 16 39  1  0  0  0  0
 17 40  1  0  0  0  0
 19 41  1  0  0  0  0
 22 42  1  0  0  0  0
 23 43  1  0  0  0  0
 23 44  1  0  0  0  0
 23 45  1  0  0  0  0
 24 46  1  0  0  0  0
 24 47  1  0  0  0  0
 25 48  1  0  0  0  0
 25 49  1  0  0  0  0
 26 50  1  0  0  0  0
 29 51  1  0  0  0  0
 29 52  1  0  0  0  0
 29 53  1  0  0  0  0
M  END
> <Name>
27

> <IC50[uM]>
0.68

$$$$
27
  -OEChem-05192314333D
 Structure written by MMmdl.
 53 56  0     0  0  0  0  0  0999 V2000
   -6.3855   12.3606  -12.0031 C   0  0  0  0  0  0  0  0  0  0  0  0
   -6.5214   11.8004  -10.7171 C   0  0  0  0  0  0  0  0  0  0  0  0
   -7.6991   10.5797  -13.0384 C   0  0  0  0  0  0  0  0  0  0  0  0
   -6.9626   11.7779  -13.1031 C   0  0  0  0  0  0  0  0  0  0  0  0
   -7.8238   10.0198  -11.7523 C   0  0  0  0  0  0  0  0  0  0  0  0
   -7.2557   10.6213  -10.5956 C   0  0  0  0  0  0  0  0  0  0  0  0
   -7.6268    9.7501   -9.5073 C   0  0  0  0  0  0  0  0  0  0  0  0
   -8.3057    8.7491   -9.9816 N   0  0  0  0  0  0  0  0  0  0  0  0
   -8.4330    8.8776  -11.2917 N   0  0  0  0  0  0  0  0  0  0  0  0
   -7.3352    9.8817   -8.0196 C   0  0  0  0  0  0  0  0  0  0  0  0
   -5.6205   13.5372  -12.2095 N   0  0  0  0  0  0  0  0  0  0  0  0
   -5.9727   10.4835   -7.7324 C   0  0  0  0  0  0  0  0  0  0  0  0
   -5.8611   11.7523   -7.1657 C   0  0  0  0  0  0  0  0  0  0  0  0
   -4.5946   12.2988   -6.9068 C   0  0  0  0  0  0  0  0  0  0  0  0
   -3.4432   11.5806   -7.2147 C   0  0  0  0  0  0  0  0  0  0  0  0
   -3.5570   10.3109   -7.7899 C   0  0  0  0  0  0  0  0  0  0  0  0
   -4.8253    9.7663   -8.0483 C   0  0  0  0  0  0  0  0  0  0  0  0
   -2.0926   12.1556   -6.9444 C   0  0  0  0  0  0  0  0  0  0  0  0
   -1.7338   13.4204   -6.4594 C   0  0  0  0  0  0  0  0  0  0  0  0
   -0.4064   13.4584   -6.4114 N   0  0  0  0  0  0  0  0  0  0  0  0
    0.1793   12.3493   -6.7865 N   0  0  0  0  0  0  0  0  0  0  0  0
   -0.7954   11.5387   -7.1512 C   0  0  0  0  0  0  0  0  0  0  0  0
    0.4205   14.5767   -6.0073 C   0  0  0  0  0  0  0  0  0  0  0  0
   -4.6894   13.8945  -11.1046 C   0  0  0  0  0  0  0  0  0  0  0  0
   -3.7822   15.1171  -11.3990 C   0  0  0  0  0  0  0  0  0  0  0  0
   -2.3310   14.9579  -11.2532 N   0  0  0  0  0  0  0  0  0  0  0  0
   -1.8099   14.4326  -10.1320 C   0  0  0  0  0  0  0  0  0  0  0  0
   -2.5019   14.0442   -9.2076 O   0  0  0  0  0  0  0  0  0  0  0  0
   -0.2869   14.3494  -10.0364 C   0  0  0  0  0  0  0  0  0  0  0  0
   -5.5086   11.5965  -10.3394 H   0  0  0  0  0  0  0  0  0  0  0  0
   -7.0053   12.5553  -10.0799 H   0  0  0  0  0  0  0  0  0  0  0  0
   -8.1374   10.1224  -13.9131 H   0  0  0  0  0  0  0  0  0  0  0  0
   -6.8466   12.2604  -14.0624 H   0  0  0  0  0  0  0  0  0  0  0  0
   -7.8268    7.8956   -9.7763 H   0  0  0  0  0  0  0  0  0  0  0  0
   -9.4057    8.9143  -11.5206 H   0  0  0  0  0  0  0  0  0  0  0  0
   -8.0269    9.5780   -7.2478 H   0  0  0  0  0  0  0  0  0  0  0  0
   -6.7507   12.3156   -6.9255 H   0  0  0  0  0  0  0  0  0  0  0  0
   -4.5132   13.2816   -6.4664 H   0  0  0  0  0  0  0  0  0  0  0  0
   -2.6683    9.7485   -8.0357 H   0  0  0  0  0  0  0  0  0  0  0  0
   -4.9092    8.7863   -8.4943 H   0  0  0  0  0  0  0  0  0  0  0  0
   -2.4090   14.2148   -6.1776 H   0  0  0  0  0  0  0  0  0  0  0  0
   -0.6475   10.5464   -7.5511 H   0  0  0  0  0  0  0  0  0  0  0  0
    1.4812   14.2962   -6.0855 H   0  0  0  0  0  0  0  0  0  0  0  0
    0.2196   15.4369   -6.6628 H   0  0  0  0  0  0  0  0  0  0  0  0
    0.1886   14.8468   -4.9665 H   0  0  0  0  0  0  0  0  0  0  0  0
   -5.2882   14.1185  -10.2095 H   0  0  0  0  0  0  0  0  0  0  0  0
   -4.0431   13.0269  -10.9057 H   0  0  0  0  0  0  0  0  0  0  0  0
   -3.9735   15.4217  -12.4385 H   0  0  0  0  0  0  0  0  0  0  0  0
   -4.0914   15.9235  -10.7178 H   0  0  0  0  0  0  0  0  0  0  0  0
   -1.7243   15.2430  -11.9952 H   0  0  0  0  0  0  0  0  0  0  0  0
   -0.0031   13.9147   -9.0666 H   0  0  0  0  0  0  0  0  0  0  0  0
    0.0973   13.7152  -10.8489 H   0  0  0  0  0  0  0  0  0  0  0  0
    0.1416   15.3586  -10.1252 H   0  0  0  0  0  0  0  0  0  0  0  0
  1  2  1  0  0  0  0
  1  4  1  0  0  0  0
  1 11  2  0  0  0  0
  2  6  1  0  0  0  0
  3  4  2  0  0  0  0
  3  5  1  0  0  0  0
  5  6  2  0  0  0  0
  5  9  1  0  0  0  0
  6  7  1  0  0  0  0
  7  8  1  0  0  0  0
  7 10  2  3  0  0  0
  8  9  1  0  0  0  0
 10 12  1  0  0  0  0
 11 24  1  0  0  0  0
 12 13  2  0  0  0  0
 12 17  1  0  0  0  0
 13 14  1  0  0  0  0
 14 15  2  0  0  0  0
 15 16  1  0  0  0  0
 15 18  1  0  0  0  0
 16 17  2  0  0  0  0
 18 19  2  0  0  0  0
 18 22  1  0  0  0  0
 19 20  1  0  0  0  0
 20 21  1  0  0  0  0
 20 23  1  0  0  0  0
 21 22  2  0  0  0  0
 24 25  1  0  0  0  0
 25 26  1  0  0  0  0
 26 27  1  0  0  0  0
 27 28  2  0  0  0  0
 27 29  1  0  0  0  0
  2 30  1  0  0  0  0
  2 31  1  0  0  0  0
  3 32  1  0  0  0  0
  4 33  1  0  0  0  0
  8 34  1  0  0  0  0
  9 35  1  0  0  0  0
 10 36  1  0  0  0  0
 13 37  1  0  0  0  0
 14 38  1  0  0  0  0
 16 39  1  0  0  0  0
 17 40  1  0  0  0  0
 19 41  1  0  0  0  0
 22 42  1  0  0  0  0
 23 43  1  0  0  0  0
 23 44  1  0  0  0  0
 23 45  1  0  0  0  0
 24 46  1  0  0  0  0
 24 47  1  0  0  0  0
 25 48  1  0  0  0  0
 25 49  1  0  0  0  0
 26 50  1  0  0  0  0
 29 51  1  0  0  0  0
 29 52  1  0  0  0  0
 29 53  1  0  0  0  0
M  END
> <Name>
27

> <IC50[uM]>
0.68

$$$$
27
  -OEChem-05192314333D
 Structure written by MMmdl.
 53 56  0     0  0  0  0  0  0999 V2000
   -6.3855   12.3606  -12.0031 C   0  0  0  0  0  0  0  0  0  0  0  0
   -6.5214   11.8004  -10.7171 C   0  0  0  0  0  0  0  0  0  0  0  0
   -7.6991   10.5797  -13.0384 C   0  0  0  0  0  0  0  0  0  0  0  0
   -6.9626   11.7779  -13.1031 C   0  0  0  0  0  0  0  0  0  0  0  0
   -7.8238   10.0198  -11.7523 C   0  0  0  0  0  0  0  0  0  0  0  0
   -7.2557   10.6213  -10.5956 C   0  0  0  0  0  0  0  0  0  0  0  0
   -7.6268    9.7501   -9.5073 C   0  0  0  0  0  0  0  0  0  0  0  0
   -8.3057    8.7491   -9.9816 N   0  0  0  0  0  0  0  0  0  0  0  0
   -8.4330    8.8776  -11.2917 N   0  0  0  0  0  0  0  0  0  0  0  0
   -7.3352    9.8817   -8.0196 C   0  0  0  0  0  0  0  0  0  0  0  0
   -5.6205   13.5372  -12.2095 N   0  0  0  0  0  0  0  0  0  0  0  0
   -5.9727   10.4835   -7.7324 C   0  0  0  0  0  0  0  0  0  0  0  0
   -5.8611   11.7523   -7.1657 C   0  0  0  0  0  0  0  0  0  0  0  0
   -4.5946   12.2988   -6.9068 C   0  0  0  0  0  0  0  0  0  0  0  0
   -3.4432   11.5806   -7.2147 C   0  0  0  0  0  0  0  0  0  0  0  0
   -3.5570   10.3109   -7.7899 C   0  0  0  0  0  0  0  0  0  0  0  0
   -4.8253    9.7663   -8.0483 C   0  0  0  0  0  0  0  0  0  0  0  0
   -2.0926   12.1556   -6.9444 C   0  0  0  0  0  0  0  0  0  0  0  0
   -1.7338   13.4204   -6.4594 C   0  0  0  0  0  0  0  0  0  0  0  0
   -0.4064   13.4584   -6.4114 N   0  0  0  0  0  0  0  0  0  0  0  0
    0.1793   12.3493   -6.7865 N   0  0  0  0  0  0  0  0  0  0  0  0
   -0.7954   11.5387   -7.1512 C   0  0  0  0  0  0  0  0  0  0  0  0
    0.4205   14.5767   -6.0073 C   0  0  0  0  0  0  0  0  0  0  0  0
   -4.6894   13.8945  -11.1046 C   0  0  0  0  0  0  0  0  0  0  0  0
   -3.7822   15.1171  -11.3990 C   0  0  0  0  0  0  0  0  0  0  0  0
   -2.3310   14.9579  -11.2532 N   0  0  0  0  0  0  0  0  0  0  0  0
   -1.8099   14.4326  -10.1320 C   0  0  0  0  0  0  0  0  0  0  0  0
   -2.5019   14.0442   -9.2076 O   0  0  0  0  0  0  0  0  0  0  0  0
   -0.2869   14.3494  -10.0364 C   0  0  0  0  0  0  0  0  0  0  0  0
   -6.0716   12.2689   -9.8542 H   0  0  0  0  0  0  0  0  0  0  0  0
   -8.1374   10.1224  -13.9131 H   0  0  0  0  0  0  0  0  0  0  0  0
   -6.8466   12.2604  -14.0624 H   0  0  0  0  0  0  0  0  0  0  0  0
   -8.0269    9.5780   -7.2478 H   0  0  0  0  0  0  0  0  0  0  0  0
   -5.0791   13.4115  -13.0408 H   0  0  0  0  0  0  0  0  0  0  0  0
   -5.9820   10.0328   -6.7290 H   0  0  0  0  0  0  0  0  0  0  0  0
   -6.7507   12.3156   -6.9255 H   0  0  0  0  0  0  0  0  0  0  0  0
   -4.5132   13.2816   -6.4664 H   0  0  0  0  0  0  0  0  0  0  0  0
   -3.4540   11.1294   -6.2116 H   0  0  0  0  0  0  0  0  0  0  0  0
   -2.6683    9.7485   -8.0357 H   0  0  0  0  0  0  0  0  0  0  0  0
   -4.9092    8.7863   -8.4943 H   0  0  0  0  0  0  0  0  0  0  0  0
   -2.4090   14.2148   -6.1776 H   0  0  0  0  0  0  0  0  0  0  0  0
   -0.6475   10.5464   -7.5511 H   0  0  0  0  0  0  0  0  0  0  0  0
    1.4812   14.2962   -6.0855 H   0  0  0  0  0  0  0  0  0  0  0  0
    0.2196   15.4369   -6.6628 H   0  0  0  0  0  0  0  0  0  0  0  0
    0.1886   14.8468   -4.9665 H   0  0  0  0  0  0  0  0  0  0  0  0
   -5.2882   14.1185  -10.2095 H   0  0  0  0  0  0  0  0  0  0  0  0
   -4.0431   13.0269  -10.9057 H   0  0  0  0  0  0  0  0  0  0  0  0
   -3.9735   15.4217  -12.4385 H   0  0  0  0  0  0  0  0  0  0  0  0
   -4.0914   15.9235  -10.7178 H   0  0  0  0  0  0  0  0  0  0  0  0
   -1.9457   13.7098   -8.5138 H   0  0  0  0  0  0  0  0  0  0  0  0
   -0.0034   13.9020   -9.0723 H   0  0  0  0  0  0  0  0  0  0  0  0
    0.0984   13.7264  -10.8570 H   0  0  0  0  0  0  0  0  0  0  0  0
    0.1408   15.3601  -10.1114 H   0  0  0  0  0  0  0  0  0  0  0  0
  1  2  2  0  0  0  0
  1  4  1  0  0  0  0
  1 11  1  0  0  0  0
  2  6  1  0  0  0  0
  3  4  2  0  0  0  0
  3  5  1  0  0  0  0
  5  6  2  0  0  0  0
  5  9  1  0  0  0  0
  6  7  1  0  0  0  0
  7  8  1  0  0  0  0
  7 10  2  3  0  0  0
  8  9  2  0  0  0  0
 10 12  1  0  0  0  0
 11 24  1  0  0  0  0
 12 13  1  0  0  0  0
 12 17  1  0  0  0  0
 13 14  2  0  0  0  0
 14 15  1  0  0  0  0
 15 16  1  0  0  0  0
 15 18  1  0  0  0  0
 16 17  2  0  0  0  0
 18 19  2  0  0  0  0
 18 22  1  0  0  0  0
 19 20  1  0  0  0  0
 20 21  1  0  0  0  0
 20 23  1  0  0  0  0
 21 22  2  0  0  0  0
 24 25  1  0  0  0  0
 25 26  1  0  0  0  0
 26 27  2  0  0  0  0
 27 28  1  0  0  0  0
 27 29  1  0  0  0  0
  2 30  1  0  0  0  0
  3 31  1  0  0  0  0
  4 32  1  0  0  0  0
 10 33  1  0  0  0  0
 11 34  1  0  0  0  0
 12 35  1  0  0  0  0
 13 36  1  0  0  0  0
 14 37  1  0  0  0  0
 15 38  1  0  0  0  0
 16 39  1  0  0  0  0
 17 40  1  0  0  0  0
 19 41  1  0  0  0  0
 22 42  1  0  0  0  0
 23 43  1  0  0  0  0
 23 44  1  0  0  0  0
 23 45  1  0  0  0  0
 24 46  1  0  0  0  0
 24 47  1  0  0  0  0
 25 48  1  0  0  0  0
 25 49  1  0  0  0  0
 28 50  1  0  0  0  0
 29 51  1  0  0  0  0
 29 52  1  0  0  0  0
 29 53  1  0  0  0  0
M  END
> <Name>
27

> <IC50[uM]>
0.68

$$$$
27
  -OEChem-05192314333D
 Structure written by MMmdl.
 53 56  0     1  0  0  0  0  0999 V2000
   -6.3855   12.3606  -12.0031 C   0  0  0  0  0  0  0  0  0  0  0  0
   -6.5214   11.8004  -10.7171 C   0  0  0  0  0  0  0  0  0  0  0  0
   -7.6991   10.5797  -13.0384 C   0  0  0  0  0  0  0  0  0  0  0  0
   -6.9626   11.7779  -13.1031 C   0  0  0  0  0  0  0  0  0  0  0  0
   -7.8238   10.0198  -11.7523 C   0  0  0  0  0  0  0  0  0  0  0  0
   -7.2557   10.6213  -10.5956 C   0  0  0  0  0  0  0  0  0  0  0  0
   -7.6268    9.7501   -9.5073 C   0  0  3  0  0  0  0  0  0  0  0  0
   -8.3057    8.7491   -9.9816 N   0  0  0  0  0  0  0  0  0  0  0  0
   -8.4330    8.8776  -11.2917 N   0  0  0  0  0  0  0  0  0  0  0  0
   -7.3352    9.8817   -8.0196 C   0  0  0  0  0  0  0  0  0  0  0  0
   -5.6205   13.5372  -12.2095 N   0  0  0  0  0  0  0  0  0  0  0  0
   -5.9727   10.4835   -7.7324 C   0  0  0  0  0  0  0  0  0  0  0  0
   -5.8611   11.7523   -7.1657 C   0  0  0  0  0  0  0  0  0  0  0  0
   -4.5946   12.2988   -6.9068 C   0  0  0  0  0  0  0  0  0  0  0  0
   -3.4432   11.5806   -7.2147 C   0  0  0  0  0  0  0  0  0  0  0  0
   -3.5570   10.3109   -7.7899 C   0  0  0  0  0  0  0  0  0  0  0  0
   -4.8253    9.7663   -8.0483 C   0  0  0  0  0  0  0  0  0  0  0  0
   -2.0926   12.1556   -6.9444 C   0  0  0  0  0  0  0  0  0  0  0  0
   -1.7338   13.4204   -6.4594 C   0  0  0  0  0  0  0  0  0  0  0  0
   -0.4064   13.4584   -6.4114 N   0  0  0  0  0  0  0  0  0  0  0  0
    0.1793   12.3493   -6.7865 N   0  0  0  0  0  0  0  0  0  0  0  0
   -0.7954   11.5387   -7.1512 C   0  0  0  0  0  0  0  0  0  0  0  0
    0.4205   14.5767   -6.0073 C   0  0  0  0  0  0  0  0  0  0  0  0
   -4.6894   13.8945  -11.1046 C   0  0  0  0  0  0  0  0  0  0  0  0
   -3.7822   15.1171  -11.3990 C   0  0  0  0  0  0  0  0  0  0  0  0
   -2.3310   14.9579  -11.2532 N   0  0  0  0  0  0  0  0  0  0  0  0
   -1.8099   14.4326  -10.1320 C   0  0  0  0  0  0  0  0  0  0  0  0
   -2.5019   14.0442   -9.2076 O   0  0  0  0  0  0  0  0  0  0  0  0
   -0.2869   14.3494  -10.0364 C   0  0  0  0  0  0  0  0  0  0  0  0
   -6.0716   12.2689   -9.8542 H   0  0  0  0  0  0  0  0  0  0  0  0
   -8.1374   10.1224  -13.9131 H   0  0  0  0  0  0  0  0  0  0  0  0
   -6.8466   12.2604  -14.0624 H   0  0  0  0  0  0  0  0  0  0  0  0
   -6.6939    9.1829   -9.6414 H   0  0  0  0  0  0  0  0  0  0  0  0
   -8.0269    9.5780   -7.2478 H   0  0  0  0  0  0  0  0  0  0  0  0
   -5.0791   13.4115  -13.0408 H   0  0  0  0  0  0  0  0  0  0  0  0
   -6.7507   12.3156   -6.9255 H   0  0  0  0  0  0  0  0  0  0  0  0
   -4.5132   13.2816   -6.4664 H   0  0  0  0  0  0  0  0  0  0  0  0
   -3.4540   11.1294   -6.2116 H   0  0  0  0  0  0  0  0  0  0  0  0
   -2.6683    9.7485   -8.0357 H   0  0  0  0  0  0  0  0  0  0  0  0
   -4.9092    8.7863   -8.4943 H   0  0  0  0  0  0  0  0  0  0  0  0
   -2.4090   14.2148   -6.1776 H   0  0  0  0  0  0  0  0  0  0  0  0
   -0.6475   10.5464   -7.5511 H   0  0  0  0  0  0  0  0  0  0  0  0
    1.4812   14.2962   -6.0855 H   0  0  0  0  0  0  0  0  0  0  0  0
    0.2196   15.4369   -6.6628 H   0  0  0  0  0  0  0  0  0  0  0  0
    0.1886   14.8468   -4.9665 H   0  0  0  0  0  0  0  0  0  0  0  0
   -5.2882   14.1185  -10.2095 H   0  0  0  0  0  0  0  0  0  0  0  0
   -4.0431   13.0269  -10.9057 H   0  0  0  0  0  0  0  0  0  0  0  0
   -3.9735   15.4217  -12.4385 H   0  0  0  0  0  0  0  0  0  0  0  0
   -4.0914   15.9235  -10.7178 H   0  0  0  0  0  0  0  0  0  0  0  0
   -1.9457   13.7098   -8.5138 H   0  0  0  0  0  0  0  0  0  0  0  0
   -0.0034   13.9020   -9.0723 H   0  0  0  0  0  0  0  0  0  0  0  0
    0.0984   13.7264  -10.8570 H   0  0  0  0  0  0  0  0  0  0  0  0
    0.1408   15.3601  -10.1114 H   0  0  0  0  0  0  0  0  0  0  0  0
  1  2  2  0  0  0  0
  1  4  1  0  0  0  0
  1 11  1  0  0  0  0
  2  6  1  0  0  0  0
  3  4  2  0  0  0  0
  3  5  1  0  0  0  0
  5  6  2  0  0  0  0
  5  9  1  0  0  0  0
  6  7  1  0  0  0  0
  7  8  1  0  0  0  0
  7 10  1  0  0  0  0
  8  9  2  0  0  0  0
 10 12  2  0  0  0  0
 11 24  1  0  0  0  0
 12 13  1  0  0  0  0
 12 17  1  0  0  0  0
 13 14  2  0  0  0  0
 14 15  1  0  0  0  0
 15 16  1  0  0  0  0
 15 18  1  0  0  0  0
 16 17  2  0  0  0  0
 18 19  2  0  0  0  0
 18 22  1  0  0  0  0
 19 20  1  0  0  0  0
 20 21  1  0  0  0  0
 20 23  1  0  0  0  0
 21 22  2  0  0  0  0
 24 25  1  0  0  0  0
 25 26  1  0  0  0  0
 26 27  2  0  0  0  0
 27 28  1  0  0  0  0
 27 29  1  0  0  0  0
  2 30  1  0  0  0  0
  3 31  1  0  0  0  0
  4 32  1  0  0  0  0
  7 33  1  0  0  0  0
 10 34  1  0  0  0  0
 11 35  1  0  0  0  0
 13 36  1  0  0  0  0
 14 37  1  0  0  0  0
 15 38  1  0  0  0  0
 16 39  1  0  0  0  0
 17 40  1  0  0  0  0
 19 41  1  0  0  0  0
 22 42  1  0  0  0  0
 23 43  1  0  0  0  0
 23 44  1  0  0  0  0
 23 45  1  0  0  0  0
 24 46  1  0  0  0  0
 24 47  1  0  0  0  0
 25 48  1  0  0  0  0
 25 49  1  0  0  0  0
 28 50  1  0  0  0  0
 29 51  1  0  0  0  0
 29 52  1  0  0  0  0
 29 53  1  0  0  0  0
M  END
> <Name>
27

> <IC50[uM]>
0.68

$$$$
27
  -OEChem-05192314333D
 Structure written by MMmdl.
 53 56  0     1  0  0  0  0  0999 V2000
   -6.3855   12.3606  -12.0031 C   0  0  0  0  0  0  0  0  0  0  0  0
   -6.5214   11.8004  -10.7171 C   0  0  0  0  0  0  0  0  0  0  0  0
   -7.6991   10.5797  -13.0384 C   0  0  0  0  0  0  0  0  0  0  0  0
   -6.9626   11.7779  -13.1031 C   0  0  0  0  0  0  0  0  0  0  0  0
   -7.8238   10.0198  -11.7523 C   0  0  3  0  0  0  0  0  0  0  0  0
   -7.2557   10.6213  -10.5956 C   0  0  3  0  0  0  0  0  0  0  0  0
   -7.6268    9.7501   -9.5073 C   0  0  0  0  0  0  0  0  0  0  0  0
   -8.3057    8.7491   -9.9816 N   0  0  0  0  0  0  0  0  0  0  0  0
   -8.4330    8.8776  -11.2917 N   0  0  0  0  0  0  0  0  0  0  0  0
   -7.3352    9.8817   -8.0196 C   0  0  0  0  0  0  0  0  0  0  0  0
   -5.6205   13.5372  -12.2095 N   0  0  0  0  0  0  0  0  0  0  0  0
   -5.9727   10.4835   -7.7324 C   0  0  0  0  0  0  0  0  0  0  0  0
   -5.8611   11.7523   -7.1657 C   0  0  0  0  0  0  0  0  0  0  0  0
   -4.5946   12.2988   -6.9068 C   0  0  0  0  0  0  0  0  0  0  0  0
   -3.4432   11.5806   -7.2147 C   0  0  0  0  0  0  0  0  0  0  0  0
   -3.5570   10.3109   -7.7899 C   0  0  0  0  0  0  0  0  0  0  0  0
   -4.8253    9.7663   -8.0483 C   0  0  0  0  0  0  0  0  0  0  0  0
   -2.0926   12.1556   -6.9444 C   0  0  0  0  0  0  0  0  0  0  0  0
   -1.7338   13.4204   -6.4594 C   0  0  0  0  0  0  0  0  0  0  0  0
   -0.4064   13.4584   -6.4114 N   0  0  0  0  0  0  0  0  0  0  0  0
    0.1793   12.3493   -6.7865 N   0  0  0  0  0  0  0  0  0  0  0  0
   -0.7954   11.5387   -7.1512 C   0  0  0  0  0  0  0  0  0  0  0  0
    0.4205   14.5767   -6.0073 C   0  0  0  0  0  0  0  0  0  0  0  0
   -4.6894   13.8945  -11.1046 C   0  0  0  0  0  0  0  0  0  0  0  0
   -3.7822   15.1171  -11.3990 C   0  0  0  0  0  0  0  0  0  0  0  0
   -2.3310   14.9579  -11.2532 N   0  0  0  0  0  0  0  0  0  0  0  0
   -1.8099   14.4326  -10.1320 C   0  0  0  0  0  0  0  0  0  0  0  0
   -2.5019   14.0442   -9.2076 O   0  0  0  0  0  0  0  0  0  0  0  0
   -0.2869   14.3494  -10.0364 C   0  0  0  0  0  0  0  0  0  0  0  0
   -6.0716   12.2689   -9.8542 H   0  0  0  0  0  0  0  0  0  0  0  0
   -8.1374   10.1224  -13.9131 H   0  0  0  0  0  0  0  0  0  0  0  0
   -6.8466   12.2604  -14.0624 H   0  0  0  0  0  0  0  0  0  0  0  0
   -8.7543   10.5845  -11.5930 H   0  0  0  0  0  0  0  0  0  0  0  0
   -8.1751   11.2060  -10.4447 H   0  0  0  0  0  0  0  0  0  0  0  0
   -8.0269    9.5780   -7.2478 H   0  0  0  0  0  0  0  0  0  0  0  0
   -5.0791   13.4115  -13.0408 H   0  0  0  0  0  0  0  0  0  0  0  0
   -6.7507   12.3156   -6.9255 H   0  0  0  0  0  0  0  0  0  0  0  0
   -4.5132   13.2816   -6.4664 H   0  0  0  0  0  0  0  0  0  0  0  0
   -2.6683    9.7485   -8.0357 H   0  0  0  0  0  0  0  0  0  0  0  0
   -4.9092    8.7863   -8.4943 H   0  0  0  0  0  0  0  0  0  0  0  0
   -2.4090   14.2148   -6.1776 H   0  0  0  0  0  0  0  0  0  0  0  0
   -0.6475   10.5464   -7.5511 H   0  0  0  0  0  0  0  0  0  0  0  0
    1.4812   14.2962   -6.0855 H   0  0  0  0  0  0  0  0  0  0  0  0
    0.2196   15.4369   -6.6628 H   0  0  0  0  0  0  0  0  0  0  0  0
    0.1886   14.8468   -4.9665 H   0  0  0  0  0  0  0  0  0  0  0  0
   -5.2882   14.1185  -10.2095 H   0  0  0  0  0  0  0  0  0  0  0  0
   -4.0431   13.0269  -10.9057 H   0  0  0  0  0  0  0  0  0  0  0  0
   -3.9735   15.4217  -12.4385 H   0  0  0  0  0  0  0  0  0  0  0  0
   -4.0914   15.9235  -10.7178 H   0  0  0  0  0  0  0  0  0  0  0  0
   -1.9457   13.7098   -8.5138 H   0  0  0  0  0  0  0  0  0  0  0  0
   -0.0034   13.9020   -9.0723 H   0  0  0  0  0  0  0  0  0  0  0  0
    0.0984   13.7264  -10.8570 H   0  0  0  0  0  0  0  0  0  0  0  0
    0.1408   15.3601  -10.1114 H   0  0  0  0  0  0  0  0  0  0  0  0
  1  2  2  0  0  0  0
  1  4  1  0  0  0  0
  1 11  1  0  0  0  0
  2  6  1  0  0  0  0
  3  4  2  0  0  0  0
  3  5  1  0  0  0  0
  5  6  1  0  0  0  0
  5  9  1  0  0  0  0
  6  7  1  0  0  0  0
  7  8  1  0  0  0  0
  7 10  2  3  0  0  0
  8  9  2  0  0  0  0
 10 12  1  0  0  0  0
 11 24  1  0  0  0  0
 12 13  2  0  0  0  0
 12 17  1  0  0  0  0
 13 14  1  0  0  0  0
 14 15  2  0  0  0  0
 15 16  1  0  0  0  0
 15 18  1  0  0  0  0
 16 17  2  0  0  0  0
 18 19  2  0  0  0  0
 18 22  1  0  0  0  0
 19 20  1  0  0  0  0
 20 21  1  0  0  0  0
 20 23  1  0  0  0  0
 21 22  2  0  0  0  0
 24 25  1  0  0  0  0
 25 26  1  0  0  0  0
 26 27  2  0  0  0  0
 27 28  1  0  0  0  0
 27 29  1  0  0  0  0
  2 30  1  0  0  0  0
  3 31  1  0  0  0  0
  4 32  1  0  0  0  0
  5 33  1  0  0  0  0
  6 34  1  0  0  0  0
 10 35  1  0  0  0  0
 11 36  1  0  0  0  0
 13 37  1  0  0  0  0
 14 38  1  0  0  0  0
 16 39  1  0  0  0  0
 17 40  1  0  0  0  0
 19 41  1  0  0  0  0
 22 42  1  0  0  0  0
 23 43  1  0  0  0  0
 23 44  1  0  0  0  0
 23 45  1  0  0  0  0
 24 46  1  0  0  0  0
 24 47  1  0  0  0  0
 25 48  1  0  0  0  0
 25 49  1  0  0  0  0
 28 50  1  0  0  0  0
 29 51  1  0  0  0  0
 29 52  1  0  0  0  0
 29 53  1  0  0  0  0
M  END
> <Name>
27

> <IC50[uM]>
0.68

$$$$
27
  -OEChem-05192314333D
 Structure written by MMmdl.
 53 56  0     1  0  0  0  0  0999 V2000
   -6.3855   12.3606  -12.0031 C   0  0  3  0  0  0  0  0  0  0  0  0
   -6.5214   11.8004  -10.7171 C   0  0  0  0  0  0  0  0  0  0  0  0
   -7.6991   10.5797  -13.0384 C   0  0  0  0  0  0  0  0  0  0  0  0
   -6.9626   11.7779  -13.1031 C   0  0  0  0  0  0  0  0  0  0  0  0
   -7.8238   10.0198  -11.7523 C   0  0  3  0  0  0  0  0  0  0  0  0
   -7.2557   10.6213  -10.5956 C   0  0  0  0  0  0  0  0  0  0  0  0
   -7.6268    9.7501   -9.5073 C   0  0  0  0  0  0  0  0  0  0  0  0
   -8.3057    8.7491   -9.9816 N   0  0  0  0  0  0  0  0  0  0  0  0
   -8.4330    8.8776  -11.2917 N   0  0  0  0  0  0  0  0  0  0  0  0
   -7.3352    9.8817   -8.0196 C   0  0  0  0  0  0  0  0  0  0  0  0
   -5.6205   13.5372  -12.2095 N   0  0  0  0  0  0  0  0  0  0  0  0
   -5.9727   10.4835   -7.7324 C   0  0  0  0  0  0  0  0  0  0  0  0
   -5.8611   11.7523   -7.1657 C   0  0  0  0  0  0  0  0  0  0  0  0
   -4.5946   12.2988   -6.9068 C   0  0  0  0  0  0  0  0  0  0  0  0
   -3.4432   11.5806   -7.2147 C   0  0  0  0  0  0  0  0  0  0  0  0
   -3.5570   10.3109   -7.7899 C   0  0  0  0  0  0  0  0  0  0  0  0
   -4.8253    9.7663   -8.0483 C   0  0  0  0  0  0  0  0  0  0  0  0
   -2.0926   12.1556   -6.9444 C   0  0  0  0  0  0  0  0  0  0  0  0
   -1.7338   13.4204   -6.4594 C   0  0  0  0  0  0  0  0  0  0  0  0
   -0.4064   13.4584   -6.4114 N   0  0  0  0  0  0  0  0  0  0  0  0
    0.1793   12.3493   -6.7865 N   0  0  0  0  0  0  0  0  0  0  0  0
   -0.7954   11.5387   -7.1512 C   0  0  0  0  0  0  0  0  0  0  0  0
    0.4205   14.5767   -6.0073 C   0  0  0  0  0  0  0  0  0  0  0  0
   -4.6894   13.8945  -11.1046 C   0  0  0  0  0  0  0  0  0  0  0  0
   -3.7822   15.1171  -11.3990 C   0  0  0  0  0  0  0  0  0  0  0  0
   -2.3310   14.9579  -11.2532 N   0  0  0  0  0  0  0  0  0  0  0  0
   -1.8099   14.4326  -10.1320 C   0  0  0  0  0  0  0  0  0  0  0  0
   -2.5019   14.0442   -9.2076 O   0  0  0  0  0  0  0  0  0  0  0  0
   -0.2869   14.3494  -10.0364 C   0  0  0  0  0  0  0  0  0  0  0  0
   -7.2886   12.9676  -11.8418 H   0  0  0  0  0  0  0  0  0  0  0  0
   -6.0716   12.2689   -9.8542 H   0  0  0  0  0  0  0  0  0  0  0  0
   -8.1374   10.1224  -13.9131 H   0  0  0  0  0  0  0  0  0  0  0  0
   -6.8466   12.2604  -14.0624 H   0  0  0  0  0  0  0  0  0  0  0  0
   -8.7543   10.5845  -11.5930 H   0  0  0  0  0  0  0  0  0  0  0  0
   -8.0269    9.5780   -7.2478 H   0  0  0  0  0  0  0  0  0  0  0  0
   -5.0791   13.4115  -13.0408 H   0  0  0  0  0  0  0  0  0  0  0  0
   -6.7507   12.3156   -6.9255 H   0  0  0  0  0  0  0  0  0  0  0  0
   -4.5132   13.2816   -6.4664 H   0  0  0  0  0  0  0  0  0  0  0  0
   -2.6683    9.7485   -8.0357 H   0  0  0  0  0  0  0  0  0  0  0  0
   -4.9092    8.7863   -8.4943 H   0  0  0  0  0  0  0  0  0  0  0  0
   -2.4090   14.2148   -6.1776 H   0  0  0  0  0  0  0  0  0  0  0  0
   -0.6475   10.5464   -7.5511 H   0  0  0  0  0  0  0  0  0  0  0  0
    1.4812   14.2962   -6.0855 H   0  0  0  0  0  0  0  0  0  0  0  0
    0.2196   15.4369   -6.6628 H   0  0  0  0  0  0  0  0  0  0  0  0
    0.1886   14.8468   -4.9665 H   0  0  0  0  0  0  0  0  0  0  0  0
   -5.2882   14.1185  -10.2095 H   0  0  0  0  0  0  0  0  0  0  0  0
   -4.0431   13.0269  -10.9057 H   0  0  0  0  0  0  0  0  0  0  0  0
   -3.9735   15.4217  -12.4385 H   0  0  0  0  0  0  0  0  0  0  0  0
   -4.0914   15.9235  -10.7178 H   0  0  0  0  0  0  0  0  0  0  0  0
   -1.9457   13.7098   -8.5138 H   0  0  0  0  0  0  0  0  0  0  0  0
   -0.0034   13.9020   -9.0723 H   0  0  0  0  0  0  0  0  0  0  0  0
    0.0984   13.7264  -10.8570 H   0  0  0  0  0  0  0  0  0  0  0  0
    0.1408   15.3601  -10.1114 H   0  0  0  0  0  0  0  0  0  0  0  0
  1  2  1  0  0  0  0
  1  4  1  0  0  0  0
  1 11  1  0  0  0  0
  2  6  2  0  0  0  0
  3  4  2  0  0  0  0
  3  5  1  0  0  0  0
  5  6  1  0  0  0  0
  5  9  1  0  0  0  0
  6  7  1  0  0  0  0
  7  8  1  0  0  0  0
  7 10  2  3  0  0  0
  8  9  2  0  0  0  0
 10 12  1  0  0  0  0
 11 24  1  0  0  0  0
 12 13  2  0  0  0  0
 12 17  1  0  0  0  0
 13 14  1  0  0  0  0
 14 15  2  0  0  0  0
 15 16  1  0  0  0  0
 15 18  1  0  0  0  0
 16 17  2  0  0  0  0
 18 19  2  0  0  0  0
 18 22  1  0  0  0  0
 19 20  1  0  0  0  0
 20 21  1  0  0  0  0
 20 23  1  0  0  0  0
 21 22  2  0  0  0  0
 24 25  1  0  0  0  0
 25 26  1  0  0  0  0
 26 27  2  0  0  0  0
 27 28  1  0  0  0  0
 27 29  1  0  0  0  0
  1 30  1  0  0  0  0
  2 31  1  0  0  0  0
  3 32  1  0  0  0  0
  4 33  1  0  0  0  0
  5 34  1  0  0  0  0
 10 35  1  0  0  0  0
 11 36  1  0  0  0  0
 13 37  1  0  0  0  0
 14 38  1  0  0  0  0
 16 39  1  0  0  0  0
 17 40  1  0  0  0  0
 19 41  1  0  0  0  0
 22 42  1  0  0  0  0
 23 43  1  0  0  0  0
 23 44  1  0  0  0  0
 23 45  1  0  0  0  0
 24 46  1  0  0  0  0
 24 47  1  0  0  0  0
 25 48  1  0  0  0  0
 25 49  1  0  0  0  0
 28 50  1  0  0  0  0
 29 51  1  0  0  0  0
 29 52  1  0  0  0  0
 29 53  1  0  0  0  0
M  END
> <Name>
27

> <IC50[uM]>
0.68

$$$$
27
  -OEChem-05192314333D
 Structure written by MMmdl.
 53 56  0     1  0  0  0  0  0999 V2000
   -6.3855   12.3606  -12.0031 C   0  0  0  0  0  0  0  0  0  0  0  0
   -6.5214   11.8004  -10.7171 C   0  0  0  0  0  0  0  0  0  0  0  0
   -7.6991   10.5797  -13.0384 C   0  0  0  0  0  0  0  0  0  0  0  0
   -6.9626   11.7779  -13.1031 C   0  0  0  0  0  0  0  0  0  0  0  0
   -7.8238   10.0198  -11.7523 C   0  0  3  0  0  0  0  0  0  0  0  0
   -7.2557   10.6213  -10.5956 C   0  0  0  0  0  0  0  0  0  0  0  0
   -7.6268    9.7501   -9.5073 C   0  0  0  0  0  0  0  0  0  0  0  0
   -8.3057    8.7491   -9.9816 N   0  0  0  0  0  0  0  0  0  0  0  0
   -8.4330    8.8776  -11.2917 N   0  0  0  0  0  0  0  0  0  0  0  0
   -7.3352    9.8817   -8.0196 C   0  0  0  0  0  0  0  0  0  0  0  0
   -5.6205   13.5372  -12.2095 N   0  0  0  0  0  0  0  0  0  0  0  0
   -5.9727   10.4835   -7.7324 C   0  0  0  0  0  0  0  0  0  0  0  0
   -5.8611   11.7523   -7.1657 C   0  0  0  0  0  0  0  0  0  0  0  0
   -4.5946   12.2988   -6.9068 C   0  0  0  0  0  0  0  0  0  0  0  0
   -3.4432   11.5806   -7.2147 C   0  0  0  0  0  0  0  0  0  0  0  0
   -3.5570   10.3109   -7.7899 C   0  0  0  0  0  0  0  0  0  0  0  0
   -4.8253    9.7663   -8.0483 C   0  0  0  0  0  0  0  0  0  0  0  0
   -2.0926   12.1556   -6.9444 C   0  0  0  0  0  0  0  0  0  0  0  0
   -1.7338   13.4204   -6.4594 C   0  0  0  0  0  0  0  0  0  0  0  0
   -0.4064   13.4584   -6.4114 N   0  0  0  0  0  0  0  0  0  0  0  0
    0.1793   12.3493   -6.7865 N   0  0  0  0  0  0  0  0  0  0  0  0
   -0.7954   11.5387   -7.1512 C   0  0  0  0  0  0  0  0  0  0  0  0
    0.4205   14.5767   -6.0073 C   0  0  0  0  0  0  0  0  0  0  0  0
   -4.6894   13.8945  -11.1046 C   0  0  0  0  0  0  0  0  0  0  0  0
   -3.7822   15.1171  -11.3990 C   0  0  0  0  0  0  0  0  0  0  0  0
   -2.3310   14.9579  -11.2532 N   0  0  0  0  0  0  0  0  0  0  0  0
   -1.8099   14.4326  -10.1320 C   0  0  0  0  0  0  0  0  0  0  0  0
   -2.5019   14.0442   -9.2076 O   0  0  0  0  0  0  0  0  0  0  0  0
   -0.2869   14.3494  -10.0364 C   0  0  0  0  0  0  0  0  0  0  0  0
   -6.0716   12.2689   -9.8542 H   0  0  0  0  0  0  0  0  0  0  0  0
   -8.7105   10.7812  -13.4211 H   0  0  0  0  0  0  0  0  0  0  0  0
   -7.2031    9.8404  -13.6845 H   0  0  0  0  0  0  0  0  0  0  0  0
   -6.8466   12.2604  -14.0624 H   0  0  0  0  0  0  0  0  0  0  0  0
   -8.7543   10.5845  -11.5930 H   0  0  0  0  0  0  0  0  0  0  0  0
   -8.0269    9.5780   -7.2478 H   0  0  0  0  0  0  0  0  0  0  0  0
   -5.0791   13.4115  -13.0408 H   0  0  0  0  0  0  0  0  0  0  0  0
   -6.7507   12.3156   -6.9255 H   0  0  0  0  0  0  0  0  0  0  0  0
   -4.5132   13.2816   -6.4664 H   0  0  0  0  0  0  0  0  0  0  0  0
   -2.6683    9.7485   -8.0357 H   0  0  0  0  0  0  0  0  0  0  0  0
   -4.9092    8.7863   -8.4943 H   0  0  0  0  0  0  0  0  0  0  0  0
   -2.4090   14.2148   -6.1776 H   0  0  0  0  0  0  0  0  0  0  0  0
   -0.6475   10.5464   -7.5511 H   0  0  0  0  0  0  0  0  0  0  0  0
    1.4812   14.2962   -6.0855 H   0  0  0  0  0  0  0  0  0  0  0  0
    0.2196   15.4369   -6.6628 H   0  0  0  0  0  0  0  0  0  0  0  0
    0.1886   14.8468   -4.9665 H   0  0  0  0  0  0  0  0  0  0  0  0
   -5.2882   14.1185  -10.2095 H   0  0  0  0  0  0  0  0  0  0  0  0
   -4.0431   13.0269  -10.9057 H   0  0  0  0  0  0  0  0  0  0  0  0
   -3.9735   15.4217  -12.4385 H   0  0  0  0  0  0  0  0  0  0  0  0
   -4.0914   15.9235  -10.7178 H   0  0  0  0  0  0  0  0  0  0  0  0
   -1.9457   13.7098   -8.5138 H   0  0  0  0  0  0  0  0  0  0  0  0
   -0.0034   13.9020   -9.0723 H   0  0  0  0  0  0  0  0  0  0  0  0
    0.0984   13.7264  -10.8570 H   0  0  0  0  0  0  0  0  0  0  0  0
    0.1408   15.3601  -10.1114 H   0  0  0  0  0  0  0  0  0  0  0  0
  1  2  1  0  0  0  0
  1  4  2  0  0  0  0
  1 11  1  0  0  0  0
  2  6  2  0  0  0  0
  3  4  1  0  0  0  0
  3  5  1  0  0  0  0
  5  6  1  0  0  0  0
  5  9  1  0  0  0  0
  6  7  1  0  0  0  0
  7  8  1  0  0  0  0
  7 10  2  3  0  0  0
  8  9  2  0  0  0  0
 10 12  1  0  0  0  0
 11 24  1  0  0  0  0
 12 13  2  0  0  0  0
 12 17  1  0  0  0  0
 13 14  1  0  0  0  0
 14 15  2  0  0  0  0
 15 16  1  0  0  0  0
 15 18  1  0  0  0  0
 16 17  2  0  0  0  0
 18 19  2  0  0  0  0
 18 22  1  0  0  0  0
 19 20  1  0  0  0  0
 20 21  1  0  0  0  0
 20 23  1  0  0  0  0
 21 22  2  0  0  0  0
 24 25  1  0  0  0  0
 25 26  1  0  0  0  0
 26 27  2  0  0  0  0
 27 28  1  0  0  0  0
 27 29  1  0  0  0  0
  2 30  1  0  0  0  0
  3 31  1  0  0  0  0
  3 32  1  0  0  0  0
  4 33  1  0  0  0  0
  5 34  1  0  0  0  0
 10 35  1  0  0  0  0
 11 36  1  0  0  0  0
 13 37  1  0  0  0  0
 14 38  1  0  0  0  0
 16 39  1  0  0  0  0
 17 40  1  0  0  0  0
 19 41  1  0  0  0  0
 22 42  1  0  0  0  0
 23 43  1  0  0  0  0
 23 44  1  0  0  0  0
 23 45  1  0  0  0  0
 24 46  1  0  0  0  0
 24 47  1  0  0  0  0
 25 48  1  0  0  0  0
 25 49  1  0  0  0  0
 28 50  1  0  0  0  0
 29 51  1  0  0  0  0
 29 52  1  0  0  0  0
 29 53  1  0  0  0  0
M  END
> <Name>
27

> <IC50[uM]>
0.68

$$$$
27
  -OEChem-05192314333D
 Structure written by MMmdl.
 53 56  0     1  0  0  0  0  0999 V2000
   -6.3855   12.3606  -12.0031 C   0  0  0  0  0  0  0  0  0  0  0  0
   -6.5214   11.8004  -10.7171 C   0  0  0  0  0  0  0  0  0  0  0  0
   -7.6991   10.5797  -13.0384 C   0  0  0  0  0  0  0  0  0  0  0  0
   -6.9626   11.7779  -13.1031 C   0  0  0  0  0  0  0  0  0  0  0  0
   -7.8238   10.0198  -11.7523 C   0  0  0  0  0  0  0  0  0  0  0  0
   -7.2557   10.6213  -10.5956 C   0  0  3  0  0  0  0  0  0  0  0  0
   -7.6268    9.7501   -9.5073 C   0  0  0  0  0  0  0  0  0  0  0  0
   -8.3057    8.7491   -9.9816 N   0  0  0  0  0  0  0  0  0  0  0  0
   -8.4330    8.8776  -11.2917 N   0  0  0  0  0  0  0  0  0  0  0  0
   -7.3352    9.8817   -8.0196 C   0  0  0  0  0  0  0  0  0  0  0  0
   -5.6205   13.5372  -12.2095 N   0  0  0  0  0  0  0  0  0  0  0  0
   -5.9727   10.4835   -7.7324 C   0  0  0  0  0  0  0  0  0  0  0  0
   -5.8611   11.7523   -7.1657 C   0  0  0  0  0  0  0  0  0  0  0  0
   -4.5946   12.2988   -6.9068 C   0  0  0  0  0  0  0  0  0  0  0  0
   -3.4432   11.5806   -7.2147 C   0  0  0  0  0  0  0  0  0  0  0  0
   -3.5570   10.3109   -7.7899 C   0  0  0  0  0  0  0  0  0  0  0  0
   -4.8253    9.7663   -8.0483 C   0  0  0  0  0  0  0  0  0  0  0  0
   -2.0926   12.1556   -6.9444 C   0  0  0  0  0  0  0  0  0  0  0  0
   -1.7338   13.4204   -6.4594 C   0  0  0  0  0  0  0  0  0  0  0  0
   -0.4064   13.4584   -6.4114 N   0  0  0  0  0  0  0  0  0  0  0  0
    0.1793   12.3493   -6.7865 N   0  0  0  0  0  0  0  0  0  0  0  0
   -0.7954   11.5387   -7.1512 C   0  0  0  0  0  0  0  0  0  0  0  0
    0.4205   14.5767   -6.0073 C   0  0  0  0  0  0  0  0  0  0  0  0
   -4.6894   13.8945  -11.1046 C   0  0  0  0  0  0  0  0  0  0  0  0
   -3.7822   15.1171  -11.3990 C   0  0  0  0  0  0  0  0  0  0  0  0
   -2.3310   14.9579  -11.2532 N   0  0  0  0  0  0  0  0  0  0  0  0
   -1.8099   14.4326  -10.1320 C   0  0  0  0  0  0  0  0  0  0  0  0
   -2.5019   14.0442   -9.2076 O   0  0  0  0  0  0  0  0  0  0  0  0
   -0.2869   14.3494  -10.0364 C   0  0  0  0  0  0  0  0  0  0  0  0
   -6.0716   12.2689   -9.8542 H   0  0  0  0  0  0  0  0  0  0  0  0
   -8.1374   10.1224  -13.9131 H   0  0  0  0  0  0  0  0  0  0  0  0
   -7.6459   12.5314  -13.5218 H   0  0  0  0  0  0  0  0  0  0  0  0
   -6.1429   11.5918  -13.8126 H   0  0  0  0  0  0  0  0  0  0  0  0
   -8.1751   11.2060  -10.4447 H   0  0  0  0  0  0  0  0  0  0  0  0
   -8.0269    9.5780   -7.2478 H   0  0  0  0  0  0  0  0  0  0  0  0
   -5.0791   13.4115  -13.0408 H   0  0  0  0  0  0  0  0  0  0  0  0
   -6.7507   12.3156   -6.9255 H   0  0  0  0  0  0  0  0  0  0  0  0
   -4.5132   13.2816   -6.4664 H   0  0  0  0  0  0  0  0  0  0  0  0
   -2.6683    9.7485   -8.0357 H   0  0  0  0  0  0  0  0  0  0  0  0
   -4.9092    8.7863   -8.4943 H   0  0  0  0  0  0  0  0  0  0  0  0
   -2.4090   14.2148   -6.1776 H   0  0  0  0  0  0  0  0  0  0  0  0
   -0.6475   10.5464   -7.5511 H   0  0  0  0  0  0  0  0  0  0  0  0
    1.4812   14.2962   -6.0855 H   0  0  0  0  0  0  0  0  0  0  0  0
    0.2196   15.4369   -6.6628 H   0  0  0  0  0  0  0  0  0  0  0  0
    0.1886   14.8468   -4.9665 H   0  0  0  0  0  0  0  0  0  0  0  0
   -5.2882   14.1185  -10.2095 H   0  0  0  0  0  0  0  0  0  0  0  0
   -4.0431   13.0269  -10.9057 H   0  0  0  0  0  0  0  0  0  0  0  0
   -3.9735   15.4217  -12.4385 H   0  0  0  0  0  0  0  0  0  0  0  0
   -4.0914   15.9235  -10.7178 H   0  0  0  0  0  0  0  0  0  0  0  0
   -1.9457   13.7098   -8.5138 H   0  0  0  0  0  0  0  0  0  0  0  0
   -0.0034   13.9020   -9.0723 H   0  0  0  0  0  0  0  0  0  0  0  0
    0.0984   13.7264  -10.8570 H   0  0  0  0  0  0  0  0  0  0  0  0
    0.1408   15.3601  -10.1114 H   0  0  0  0  0  0  0  0  0  0  0  0
  1  2  2  0  0  0  0
  1  4  1  0  0  0  0
  1 11  1  0  0  0  0
  2  6  1  0  0  0  0
  3  4  1  0  0  0  0
  3  5  2  0  0  0  0
  5  6  1  0  0  0  0
  5  9  1  0  0  0  0
  6  7  1  0  0  0  0
  7  8  1  0  0  0  0
  7 10  2  3  0  0  0
  8  9  2  0  0  0  0
 10 12  1  0  0  0  0
 11 24  1  0  0  0  0
 12 13  2  0  0  0  0
 12 17  1  0  0  0  0
 13 14  1  0  0  0  0
 14 15  2  0  0  0  0
 15 16  1  0  0  0  0
 15 18  1  0  0  0  0
 16 17  2  0  0  0  0
 18 19  2  0  0  0  0
 18 22  1  0  0  0  0
 19 20  1  0  0  0  0
 20 21  1  0  0  0  0
 20 23  1  0  0  0  0
 21 22  2  0  0  0  0
 24 25  1  0  0  0  0
 25 26  1  0  0  0  0
 26 27  2  0  0  0  0
 27 28  1  0  0  0  0
 27 29  1  0  0  0  0
  2 30  1  0  0  0  0
  3 31  1  0  0  0  0
  4 32  1  0  0  0  0
  4 33  1  0  0  0  0
  6 34  1  0  0  0  0
 10 35  1  0  0  0  0
 11 36  1  0  0  0  0
 13 37  1  0  0  0  0
 14 38  1  0  0  0  0
 16 39  1  0  0  0  0
 17 40  1  0  0  0  0
 19 41  1  0  0  0  0
 22 42  1  0  0  0  0
 23 43  1  0  0  0  0
 23 44  1  0  0  0  0
 23 45  1  0  0  0  0
 24 46  1  0  0  0  0
 24 47  1  0  0  0  0
 25 48  1  0  0  0  0
 25 49  1  0  0  0  0
 28 50  1  0  0  0  0
 29 51  1  0  0  0  0
 29 52  1  0  0  0  0
 29 53  1  0  0  0  0
M  END
> <Name>
27

> <IC50[uM]>
0.68

$$$$
27
  -OEChem-05192314333D
 Structure written by MMmdl.
 53 56  0     1  0  0  0  0  0999 V2000
   -6.3855   12.3606  -12.0031 C   0  0  3  0  0  0  0  0  0  0  0  0
   -6.5214   11.8004  -10.7171 C   0  0  0  0  0  0  0  0  0  0  0  0
   -7.6991   10.5797  -13.0384 C   0  0  0  0  0  0  0  0  0  0  0  0
   -6.9626   11.7779  -13.1031 C   0  0  0  0  0  0  0  0  0  0  0  0
   -7.8238   10.0198  -11.7523 C   0  0  0  0  0  0  0  0  0  0  0  0
   -7.2557   10.6213  -10.5956 C   0  0  0  0  0  0  0  0  0  0  0  0
   -7.6268    9.7501   -9.5073 C   0  0  0  0  0  0  0  0  0  0  0  0
   -8.3057    8.7491   -9.9816 N   0  0  0  0  0  0  0  0  0  0  0  0
   -8.4330    8.8776  -11.2917 N   0  0  0  0  0  0  0  0  0  0  0  0
   -7.3352    9.8817   -8.0196 C   0  0  0  0  0  0  0  0  0  0  0  0
   -5.6205   13.5372  -12.2095 N   0  0  0  0  0  0  0  0  0  0  0  0
   -5.9727   10.4835   -7.7324 C   0  0  0  0  0  0  0  0  0  0  0  0
   -5.8611   11.7523   -7.1657 C   0  0  0  0  0  0  0  0  0  0  0  0
   -4.5946   12.2988   -6.9068 C   0  0  0  0  0  0  0  0  0  0  0  0
   -3.4432   11.5806   -7.2147 C   0  0  0  0  0  0  0  0  0  0  0  0
   -3.5570   10.3109   -7.7899 C   0  0  0  0  0  0  0  0  0  0  0  0
   -4.8253    9.7663   -8.0483 C   0  0  0  0  0  0  0  0  0  0  0  0
   -2.0926   12.1556   -6.9444 C   0  0  0  0  0  0  0  0  0  0  0  0
   -1.7338   13.4204   -6.4594 C   0  0  0  0  0  0  0  0  0  0  0  0
   -0.4064   13.4584   -6.4114 N   0  0  0  0  0  0  0  0  0  0  0  0
    0.1793   12.3493   -6.7865 N   0  0  0  0  0  0  0  0  0  0  0  0
   -0.7954   11.5387   -7.1512 C   0  0  0  0  0  0  0  0  0  0  0  0
    0.4205   14.5767   -6.0073 C   0  0  0  0  0  0  0  0  0  0  0  0
   -4.6894   13.8945  -11.1046 C   0  0  0  0  0  0  0  0  0  0  0  0
   -3.7822   15.1171  -11.3990 C   0  0  0  0  0  0  0  0  0  0  0  0
   -2.3310   14.9579  -11.2532 N   0  0  0  0  0  0  0  0  0  0  0  0
   -1.8099   14.4326  -10.1320 C   0  0  0  0  0  0  0  0  0  0  0  0
   -2.5019   14.0442   -9.2076 O   0  0  0  0  0  0  0  0  0  0  0  0
   -0.2869   14.3494  -10.0364 C   0  0  0  0  0  0  0  0  0  0  0  0
   -7.2886   12.9676  -11.8418 H   0  0  0  0  0  0  0  0  0  0  0  0
   -6.0716   12.2689   -9.8542 H   0  0  0  0  0  0  0  0  0  0  0  0
   -8.1374   10.1224  -13.9131 H   0  0  0  0  0  0  0  0  0  0  0  0
   -7.6459   12.5314  -13.5218 H   0  0  0  0  0  0  0  0  0  0  0  0
   -6.1429   11.5918  -13.8126 H   0  0  0  0  0  0  0  0  0  0  0  0
   -8.0269    9.5780   -7.2478 H   0  0  0  0  0  0  0  0  0  0  0  0
   -5.0791   13.4115  -13.0408 H   0  0  0  0  0  0  0  0  0  0  0  0
   -6.7507   12.3156   -6.9255 H   0  0  0  0  0  0  0  0  0  0  0  0
   -4.5132   13.2816   -6.4664 H   0  0  0  0  0  0  0  0  0  0  0  0
   -2.6683    9.7485   -8.0357 H   0  0  0  0  0  0  0  0  0  0  0  0
   -4.9092    8.7863   -8.4943 H   0  0  0  0  0  0  0  0  0  0  0  0
   -2.4090   14.2148   -6.1776 H   0  0  0  0  0  0  0  0  0  0  0  0
   -0.6475   10.5464   -7.5511 H   0  0  0  0  0  0  0  0  0  0  0  0
    1.4812   14.2962   -6.0855 H   0  0  0  0  0  0  0  0  0  0  0  0
    0.2196   15.4369   -6.6628 H   0  0  0  0  0  0  0  0  0  0  0  0
    0.1886   14.8468   -4.9665 H   0  0  0  0  0  0  0  0  0  0  0  0
   -5.2882   14.1185  -10.2095 H   0  0  0  0  0  0  0  0  0  0  0  0
   -4.0431   13.0269  -10.9057 H   0  0  0  0  0  0  0  0  0  0  0  0
   -3.9735   15.4217  -12.4385 H   0  0  0  0  0  0  0  0  0  0  0  0
   -4.0914   15.9235  -10.7178 H   0  0  0  0  0  0  0  0  0  0  0  0
   -1.9457   13.7098   -8.5138 H   0  0  0  0  0  0  0  0  0  0  0  0
   -0.0034   13.9020   -9.0723 H   0  0  0  0  0  0  0  0  0  0  0  0
    0.0984   13.7264  -10.8570 H   0  0  0  0  0  0  0  0  0  0  0  0
    0.1408   15.3601  -10.1114 H   0  0  0  0  0  0  0  0  0  0  0  0
  1  2  1  0  0  0  0
  1  4  1  0  0  0  0
  1 11  1  0  0  0  0
  2  6  2  0  0  0  0
  3  4  1  0  0  0  0
  3  5  2  0  0  0  0
  5  6  1  0  0  0  0
  5  9  1  0  0  0  0
  6  7  1  0  0  0  0
  7  8  1  0  0  0  0
  7 10  2  3  0  0  0
  8  9  2  0  0  0  0
 10 12  1  0  0  0  0
 11 24  1  0  0  0  0
 12 13  2  0  0  0  0
 12 17  1  0  0  0  0
 13 14  1  0  0  0  0
 14 15  2  0  0  0  0
 15 16  1  0  0  0  0
 15 18  1  0  0  0  0
 16 17  2  0  0  0  0
 18 19  2  0  0  0  0
 18 22  1  0  0  0  0
 19 20  1  0  0  0  0
 20 21  1  0  0  0  0
 20 23  1  0  0  0  0
 21 22  2  0  0  0  0
 24 25  1  0  0  0  0
 25 26  1  0  0  0  0
 26 27  2  0  0  0  0
 27 28  1  0  0  0  0
 27 29  1  0  0  0  0
  1 30  1  0  0  0  0
  2 31  1  0  0  0  0
  3 32  1  0  0  0  0
  4 33  1  0  0  0  0
  4 34  1  0  0  0  0
 10 35  1  0  0  0  0
 11 36  1  0  0  0  0
 13 37  1  0  0  0  0
 14 38  1  0  0  0  0
 16 39  1  0  0  0  0
 17 40  1  0  0  0  0
 19 41  1  0  0  0  0
 22 42  1  0  0  0  0
 23 43  1  0  0  0  0
 23 44  1  0  0  0  0
 23 45  1  0  0  0  0
 24 46  1  0  0  0  0
 24 47  1  0  0  0  0
 25 48  1  0  0  0  0
 25 49  1  0  0  0  0
 28 50  1  0  0  0  0
 29 51  1  0  0  0  0
 29 52  1  0  0  0  0
 29 53  1  0  0  0  0
M  END
> <Name>
27

> <IC50[uM]>
0.68

$$$$
27
  -OEChem-05192314333D
 Structure written by MMmdl.
 53 56  0     0  0  0  0  0  0999 V2000
   -6.3855   12.3606  -12.0031 C   0  0  0  0  0  0  0  0  0  0  0  0
   -6.5214   11.8004  -10.7171 C   0  0  0  0  0  0  0  0  0  0  0  0
   -7.6991   10.5797  -13.0384 C   0  0  0  0  0  0  0  0  0  0  0  0
   -6.9626   11.7779  -13.1031 C   0  0  0  0  0  0  0  0  0  0  0  0
   -7.8238   10.0198  -11.7523 C   0  0  0  0  0  0  0  0  0  0  0  0
   -7.2557   10.6213  -10.5956 C   0  0  0  0  0  0  0  0  0  0  0  0
   -7.6268    9.7501   -9.5073 C   0  0  0  0  0  0  0  0  0  0  0  0
   -8.3057    8.7491   -9.9816 N   0  0  0  0  0  0  0  0  0  0  0  0
   -8.4330    8.8776  -11.2917 N   0  0  0  0  0  0  0  0  0  0  0  0
   -7.3352    9.8817   -8.0196 C   0  0  0  0  0  0  0  0  0  0  0  0
   -5.6205   13.5372  -12.2095 N   0  0  0  0  0  0  0  0  0  0  0  0
   -5.9727   10.4835   -7.7324 C   0  0  0  0  0  0  0  0  0  0  0  0
   -5.8611   11.7523   -7.1657 C   0  0  0  0  0  0  0  0  0  0  0  0
   -4.5946   12.2988   -6.9068 C   0  0  0  0  0  0  0  0  0  0  0  0
   -3.4432   11.5806   -7.2147 C   0  0  0  0  0  0  0  0  0  0  0  0
   -3.5570   10.3109   -7.7899 C   0  0  0  0  0  0  0  0  0  0  0  0
   -4.8253    9.7663   -8.0483 C   0  0  0  0  0  0  0  0  0  0  0  0
   -2.0926   12.1556   -6.9444 C   0  0  0  0  0  0  0  0  0  0  0  0
   -1.7338   13.4204   -6.4594 C   0  0  0  0  0  0  0  0  0  0  0  0
   -0.4064   13.4584   -6.4114 N   0  0  0  0  0  0  0  0  0  0  0  0
    0.1793   12.3493   -6.7865 N   0  0  0  0  0  0  0  0  0  0  0  0
   -0.7954   11.5387   -7.1512 C   0  0  0  0  0  0  0  0  0  0  0  0
    0.4205   14.5767   -6.0073 C   0  0  0  0  0  0  0  0  0  0  0  0
   -4.6894   13.8945  -11.1046 C   0  0  0  0  0  0  0  0  0  0  0  0
   -3.7822   15.1171  -11.3990 C   0  0  0  0  0  0  0  0  0  0  0  0
   -2.3310   14.9579  -11.2532 N   0  0  0  0  0  0  0  0  0  0  0  0
   -1.8099   14.4326  -10.1320 C   0  0  0  0  0  0  0  0  0  0  0  0
   -2.5019   14.0442   -9.2076 O   0  0  0  0  0  0  0  0  0  0  0  0
   -0.2869   14.3494  -10.0364 C   0  0  0  0  0  0  0  0  0  0  0  0
   -6.0716   12.2689   -9.8542 H   0  0  0  0  0  0  0  0  0  0  0  0
   -8.7105   10.7812  -13.4211 H   0  0  0  0  0  0  0  0  0  0  0  0
   -7.2031    9.8404  -13.6845 H   0  0  0  0  0  0  0  0  0  0  0  0
   -7.6459   12.5314  -13.5218 H   0  0  0  0  0  0  0  0  0  0  0  0
   -6.1429   11.5918  -13.8126 H   0  0  0  0  0  0  0  0  0  0  0  0
   -8.0269    9.5780   -7.2478 H   0  0  0  0  0  0  0  0  0  0  0  0
   -5.0791   13.4115  -13.0408 H   0  0  0  0  0  0  0  0  0  0  0  0
   -6.7507   12.3156   -6.9255 H   0  0  0  0  0  0  0  0  0  0  0  0
   -4.5132   13.2816   -6.4664 H   0  0  0  0  0  0  0  0  0  0  0  0
   -2.6683    9.7485   -8.0357 H   0  0  0  0  0  0  0  0  0  0  0  0
   -4.9092    8.7863   -8.4943 H   0  0  0  0  0  0  0  0  0  0  0  0
   -2.4090   14.2148   -6.1776 H   0  0  0  0  0  0  0  0  0  0  0  0
   -0.6475   10.5464   -7.5511 H   0  0  0  0  0  0  0  0  0  0  0  0
    1.4812   14.2962   -6.0855 H   0  0  0  0  0  0  0  0  0  0  0  0
    0.2196   15.4369   -6.6628 H   0  0  0  0  0  0  0  0  0  0  0  0
    0.1886   14.8468   -4.9665 H   0  0  0  0  0  0  0  0  0  0  0  0
   -5.2882   14.1185  -10.2095 H   0  0  0  0  0  0  0  0  0  0  0  0
   -4.0431   13.0269  -10.9057 H   0  0  0  0  0  0  0  0  0  0  0  0
   -3.9735   15.4217  -12.4385 H   0  0  0  0  0  0  0  0  0  0  0  0
   -4.0914   15.9235  -10.7178 H   0  0  0  0  0  0  0  0  0  0  0  0
   -1.9457   13.7098   -8.5138 H   0  0  0  0  0  0  0  0  0  0  0  0
   -0.0034   13.9020   -9.0723 H   0  0  0  0  0  0  0  0  0  0  0  0
    0.0984   13.7264  -10.8570 H   0  0  0  0  0  0  0  0  0  0  0  0
    0.1408   15.3601  -10.1114 H   0  0  0  0  0  0  0  0  0  0  0  0
  1  2  2  0  0  0  0
  1  4  1  0  0  0  0
  1 11  1  0  0  0  0
  2  6  1  0  0  0  0
  3  4  1  0  0  0  0
  3  5  1  0  0  0  0
  5  6  2  0  0  0  0
  5  9  1  0  0  0  0
  6  7  1  0  0  0  0
  7  8  1  0  0  0  0
  7 10  2  3  0  0  0
  8  9  2  0  0  0  0
 10 12  1  0  0  0  0
 11 24  1  0  0  0  0
 12 13  2  0  0  0  0
 12 17  1  0  0  0  0
 13 14  1  0  0  0  0
 14 15  2  0  0  0  0
 15 16  1  0  0  0  0
 15 18  1  0  0  0  0
 16 17  2  0  0  0  0
 18 19  2  0  0  0  0
 18 22  1  0  0  0  0
 19 20  1  0  0  0  0
 20 21  1  0  0  0  0
 20 23  1  0  0  0  0
 21 22  2  0  0  0  0
 24 25  1  0  0  0  0
 25 26  1  0  0  0  0
 26 27  2  0  0  0  0
 27 28  1  0  0  0  0
 27 29  1  0  0  0  0
  2 30  1  0  0  0  0
  3 31  1  0  0  0  0
  3 32  1  0  0  0  0
  4 33  1  0  0  0  0
  4 34  1  0  0  0  0
 10 35  1  0  0  0  0
 11 36  1  0  0  0  0
 13 37  1  0  0  0  0
 14 38  1  0  0  0  0
 16 39  1  0  0  0  0
 17 40  1  0  0  0  0
 19 41  1  0  0  0  0
 22 42  1  0  0  0  0
 23 43  1  0  0  0  0
 23 44  1  0  0  0  0
 23 45  1  0  0  0  0
 24 46  1  0  0  0  0
 24 47  1  0  0  0  0
 25 48  1  0  0  0  0
 25 49  1  0  0  0  0
 28 50  1  0  0  0  0
 29 51  1  0  0  0  0
 29 52  1  0  0  0  0
 29 53  1  0  0  0  0
M  END
> <Name>
27

> <IC50[uM]>
0.68

$$$$
27
  -OEChem-05192314333D
 Structure written by MMmdl.
 53 56  0     1  0  0  0  0  0999 V2000
   -6.3855   12.3606  -12.0031 C   0  0  0  0  0  0  0  0  0  0  0  0
   -6.5214   11.8004  -10.7171 C   0  0  0  0  0  0  0  0  0  0  0  0
   -7.6991   10.5797  -13.0384 C   0  0  0  0  0  0  0  0  0  0  0  0
   -6.9626   11.7779  -13.1031 C   0  0  0  0  0  0  0  0  0  0  0  0
   -7.8238   10.0198  -11.7523 C   0  0  0  0  0  0  0  0  0  0  0  0
   -7.2557   10.6213  -10.5956 C   0  0  0  0  0  0  0  0  0  0  0  0
   -7.6268    9.7501   -9.5073 C   0  0  0  0  0  0  0  0  0  0  0  0
   -8.3057    8.7491   -9.9816 N   0  0  0  0  0  0  0  0  0  0  0  0
   -8.4330    8.8776  -11.2917 N   0  0  0  0  0  0  0  0  0  0  0  0
   -7.3352    9.8817   -8.0196 C   0  0  0  0  0  0  0  0  0  0  0  0
   -5.6205   13.5372  -12.2095 N   0  0  0  0  0  0  0  0  0  0  0  0
   -5.9727   10.4835   -7.7324 C   0  0  0  0  0  0  0  0  0  0  0  0
   -5.8611   11.7523   -7.1657 C   0  0  0  0  0  0  0  0  0  0  0  0
   -4.5946   12.2988   -6.9068 C   0  0  0  0  0  0  0  0  0  0  0  0
   -3.4432   11.5806   -7.2147 C   0  0  3  0  0  0  0  0  0  0  0  0
   -3.5570   10.3109   -7.7899 C   0  0  0  0  0  0  0  0  0  0  0  0
   -4.8253    9.7663   -8.0483 C   0  0  0  0  0  0  0  0  0  0  0  0
   -2.0926   12.1556   -6.9444 C   0  0  0  0  0  0  0  0  0  0  0  0
   -1.7338   13.4204   -6.4594 C   0  0  0  0  0  0  0  0  0  0  0  0
   -0.4064   13.4584   -6.4114 N   0  0  0  0  0  0  0  0  0  0  0  0
    0.1793   12.3493   -6.7865 N   0  0  0  0  0  0  0  0  0  0  0  0
   -0.7954   11.5387   -7.1512 C   0  0  0  0  0  0  0  0  0  0  0  0
    0.4205   14.5767   -6.0073 C   0  0  0  0  0  0  0  0  0  0  0  0
   -4.6894   13.8945  -11.1046 C   0  0  0  0  0  0  0  0  0  0  0  0
   -3.7822   15.1171  -11.3990 C   0  0  0  0  0  0  0  0  0  0  0  0
   -2.3310   14.9579  -11.2532 N   0  0  0  0  0  0  0  0  0  0  0  0
   -1.8099   14.4326  -10.1320 C   0  0  0  0  0  0  0  0  0  0  0  0
   -2.5019   14.0442   -9.2076 O   0  0  0  0  0  0  0  0  0  0  0  0
   -0.2869   14.3494  -10.0364 C   0  0  0  0  0  0  0  0  0  0  0  0
   -6.0716   12.2689   -9.8542 H   0  0  0  0  0  0  0  0  0  0  0  0
   -8.1374   10.1224  -13.9131 H   0  0  0  0  0  0  0  0  0  0  0  0
   -6.8466   12.2604  -14.0624 H   0  0  0  0  0  0  0  0  0  0  0  0
   -8.0269    9.5780   -7.2478 H   0  0  0  0  0  0  0  0  0  0  0  0
   -5.0791   13.4115  -13.0408 H   0  0  0  0  0  0  0  0  0  0  0  0
   -6.7507   12.3156   -6.9255 H   0  0  0  0  0  0  0  0  0  0  0  0
   -4.5373   13.2433   -7.4677 H   0  0  0  0  0  0  0  0  0  0  0  0
   -4.5562   12.5101   -5.8280 H   0  0  0  0  0  0  0  0  0  0  0  0
   -3.4540   11.1294   -6.2116 H   0  0  0  0  0  0  0  0  0  0  0  0
   -2.6683    9.7485   -8.0357 H   0  0  0  0  0  0  0  0  0  0  0  0
   -4.9092    8.7863   -8.4943 H   0  0  0  0  0  0  0  0  0  0  0  0
   -2.4090   14.2148   -6.1776 H   0  0  0  0  0  0  0  0  0  0  0  0
   -0.6475   10.5464   -7.5511 H   0  0  0  0  0  0  0  0  0  0  0  0
    1.4812   14.2962   -6.0855 H   0  0  0  0  0  0  0  0  0  0  0  0
    0.2196   15.4369   -6.6628 H   0  0  0  0  0  0  0  0  0  0  0  0
    0.1886   14.8468   -4.9665 H   0  0  0  0  0  0  0  0  0  0  0  0
   -5.2882   14.1185  -10.2095 H   0  0  0  0  0  0  0  0  0  0  0  0
   -4.0431   13.0269  -10.9057 H   0  0  0  0  0  0  0  0  0  0  0  0
   -3.9735   15.4217  -12.4385 H   0  0  0  0  0  0  0  0  0  0  0  0
   -4.0914   15.9235  -10.7178 H   0  0  0  0  0  0  0  0  0  0  0  0
   -1.9457   13.7098   -8.5138 H   0  0  0  0  0  0  0  0  0  0  0  0
   -0.0034   13.9020   -9.0723 H   0  0  0  0  0  0  0  0  0  0  0  0
    0.0984   13.7264  -10.8570 H   0  0  0  0  0  0  0  0  0  0  0  0
    0.1408   15.3601  -10.1114 H   0  0  0  0  0  0  0  0  0  0  0  0
  1  2  2  0  0  0  0
  1  4  1  0  0  0  0
  1 11  1  0  0  0  0
  2  6  1  0  0  0  0
  3  4  2  0  0  0  0
  3  5  1  0  0  0  0
  5  6  2  0  0  0  0
  5  9  1  0  0  0  0
  6  7  1  0  0  0  0
  7  8  1  0  0  0  0
  7 10  2  3  0  0  0
  8  9  2  0  0  0  0
 10 12  1  0  0  0  0
 11 24  1  0  0  0  0
 12 13  2  0  0  0  0
 12 17  1  0  0  0  0
 13 14  1  0  0  0  0
 14 15  1  0  0  0  0
 15 16  1  0  0  0  0
 15 18  1  0  0  0  0
 16 17  2  0  0  0  0
 18 19  2  0  0  0  0
 18 22  1  0  0  0  0
 19 20  1  0  0  0  0
 20 21  1  0  0  0  0
 20 23  1  0  0  0  0
 21 22  2  0  0  0  0
 24 25  1  0  0  0  0
 25 26  1  0  0  0  0
 26 27  2  0  0  0  0
 27 28  1  0  0  0  0
 27 29  1  0  0  0  0
  2 30  1  0  0  0  0
  3 31  1  0  0  0  0
  4 32  1  0  0  0  0
 10 33  1  0  0  0  0
 11 34  1  0  0  0  0
 13 35  1  0  0  0  0
 14 36  1  0  0  0  0
 14 37  1  0  0  0  0
 15 38  1  0  0  0  0
 16 39  1  0  0  0  0
 17 40  1  0  0  0  0
 19 41  1  0  0  0  0
 22 42  1  0  0  0  0
 23 43  1  0  0  0  0
 23 44  1  0  0  0  0
 23 45  1  0  0  0  0
 24 46  1  0  0  0  0
 24 47  1  0  0  0  0
 25 48  1  0  0  0  0
 25 49  1  0  0  0  0
 28 50  1  0  0  0  0
 29 51  1  0  0  0  0
 29 52  1  0  0  0  0
 29 53  1  0  0  0  0
M  END
> <Name>
27

> <IC50[uM]>
0.68

$$$$
27
  -OEChem-05192314333D
 Structure written by MMmdl.
 53 56  0     1  0  0  0  0  0999 V2000
   -6.3855   12.3606  -12.0031 C   0  0  0  0  0  0  0  0  0  0  0  0
   -6.5214   11.8004  -10.7171 C   0  0  0  0  0  0  0  0  0  0  0  0
   -7.6991   10.5797  -13.0384 C   0  0  0  0  0  0  0  0  0  0  0  0
   -6.9626   11.7779  -13.1031 C   0  0  0  0  0  0  0  0  0  0  0  0
   -7.8238   10.0198  -11.7523 C   0  0  0  0  0  0  0  0  0  0  0  0
   -7.2557   10.6213  -10.5956 C   0  0  0  0  0  0  0  0  0  0  0  0
   -7.6268    9.7501   -9.5073 C   0  0  0  0  0  0  0  0  0  0  0  0
   -8.3057    8.7491   -9.9816 N   0  0  0  0  0  0  0  0  0  0  0  0
   -8.4330    8.8776  -11.2917 N   0  0  0  0  0  0  0  0  0  0  0  0
   -7.3352    9.8817   -8.0196 C   0  0  0  0  0  0  0  0  0  0  0  0
   -5.6205   13.5372  -12.2095 N   0  0  0  0  0  0  0  0  0  0  0  0
   -5.9727   10.4835   -7.7324 C   0  0  3  0  0  0  0  0  0  0  0  0
   -5.8611   11.7523   -7.1657 C   0  0  0  0  0  0  0  0  0  0  0  0
   -4.5946   12.2988   -6.9068 C   0  0  0  0  0  0  0  0  0  0  0  0
   -3.4432   11.5806   -7.2147 C   0  0  0  0  0  0  0  0  0  0  0  0
   -3.5570   10.3109   -7.7899 C   0  0  0  0  0  0  0  0  0  0  0  0
   -4.8253    9.7663   -8.0483 C   0  0  0  0  0  0  0  0  0  0  0  0
   -2.0926   12.1556   -6.9444 C   0  0  0  0  0  0  0  0  0  0  0  0
   -1.7338   13.4204   -6.4594 C   0  0  0  0  0  0  0  0  0  0  0  0
   -0.4064   13.4584   -6.4114 N   0  0  0  0  0  0  0  0  0  0  0  0
    0.1793   12.3493   -6.7865 N   0  0  0  0  0  0  0  0  0  0  0  0
   -0.7954   11.5387   -7.1512 C   0  0  0  0  0  0  0  0  0  0  0  0
    0.4205   14.5767   -6.0073 C   0  0  0  0  0  0  0  0  0  0  0  0
   -4.6894   13.8945  -11.1046 C   0  0  0  0  0  0  0  0  0  0  0  0
   -3.7822   15.1171  -11.3990 C   0  0  0  0  0  0  0  0  0  0  0  0
   -2.3310   14.9579  -11.2532 N   0  0  0  0  0  0  0  0  0  0  0  0
   -1.8099   14.4326  -10.1320 C   0  0  0  0  0  0  0  0  0  0  0  0
   -2.5019   14.0442   -9.2076 O   0  0  0  0  0  0  0  0  0  0  0  0
   -0.2869   14.3494  -10.0364 C   0  0  0  0  0  0  0  0  0  0  0  0
   -6.0716   12.2689   -9.8542 H   0  0  0  0  0  0  0  0  0  0  0  0
   -8.1374   10.1224  -13.9131 H   0  0  0  0  0  0  0  0  0  0  0  0
   -6.8466   12.2604  -14.0624 H   0  0  0  0  0  0  0  0  0  0  0  0
   -8.0269    9.5780   -7.2478 H   0  0  0  0  0  0  0  0  0  0  0  0
   -5.0791   13.4115  -13.0408 H   0  0  0  0  0  0  0  0  0  0  0  0
   -5.9820   10.0328   -6.7290 H   0  0  0  0  0  0  0  0  0  0  0  0
   -6.7507   12.3156   -6.9255 H   0  0  0  0  0  0  0  0  0  0  0  0
   -4.5132   13.2816   -6.4664 H   0  0  0  0  0  0  0  0  0  0  0  0
   -2.6683    9.7485   -8.0357 H   0  0  0  0  0  0  0  0  0  0  0  0
   -4.8817    8.8185   -7.4929 H   0  0  0  0  0  0  0  0  0  0  0  0
   -4.8676    9.5615   -9.1282 H   0  0  0  0  0  0  0  0  0  0  0  0
   -2.4090   14.2148   -6.1776 H   0  0  0  0  0  0  0  0  0  0  0  0
   -0.6475   10.5464   -7.5511 H   0  0  0  0  0  0  0  0  0  0  0  0
    1.4812   14.2962   -6.0855 H   0  0  0  0  0  0  0  0  0  0  0  0
    0.2196   15.4369   -6.6628 H   0  0  0  0  0  0  0  0  0  0  0  0
    0.1886   14.8468   -4.9665 H   0  0  0  0  0  0  0  0  0  0  0  0
   -5.2882   14.1185  -10.2095 H   0  0  0  0  0  0  0  0  0  0  0  0
   -4.0431   13.0269  -10.9057 H   0  0  0  0  0  0  0  0  0  0  0  0
   -3.9735   15.4217  -12.4385 H   0  0  0  0  0  0  0  0  0  0  0  0
   -4.0914   15.9235  -10.7178 H   0  0  0  0  0  0  0  0  0  0  0  0
   -1.9457   13.7098   -8.5138 H   0  0  0  0  0  0  0  0  0  0  0  0
   -0.0034   13.9020   -9.0723 H   0  0  0  0  0  0  0  0  0  0  0  0
    0.0984   13.7264  -10.8570 H   0  0  0  0  0  0  0  0  0  0  0  0
    0.1408   15.3601  -10.1114 H   0  0  0  0  0  0  0  0  0  0  0  0
  1  2  2  0  0  0  0
  1  4  1  0  0  0  0
  1 11  1  0  0  0  0
  2  6  1  0  0  0  0
  3  4  2  0  0  0  0
  3  5  1  0  0  0  0
  5  6  2  0  0  0  0
  5  9  1  0  0  0  0
  6  7  1  0  0  0  0
  7  8  1  0  0  0  0
  7 10  2  3  0  0  0
  8  9  2  0  0  0  0
 10 12  1  0  0  0  0
 11 24  1  0  0  0  0
 12 13  1  0  0  0  0
 12 17  1  0  0  0  0
 13 14  2  0  0  0  0
 14 15  1  0  0  0  0
 15 16  2  0  0  0  0
 15 18  1  0  0  0  0
 16 17  1  0  0  0  0
 18 19  2  0  0  0  0
 18 22  1  0  0  0  0
 19 20  1  0  0  0  0
 20 21  1  0  0  0  0
 20 23  1  0  0  0  0
 21 22  2  0  0  0  0
 24 25  1  0  0  0  0
 25 26  1  0  0  0  0
 26 27  2  0  0  0  0
 27 28  1  0  0  0  0
 27 29  1  0  0  0  0
  2 30  1  0  0  0  0
  3 31  1  0  0  0  0
  4 32  1  0  0  0  0
 10 33  1  0  0  0  0
 11 34  1  0  0  0  0
 12 35  1  0  0  0  0
 13 36  1  0  0  0  0
 14 37  1  0  0  0  0
 16 38  1  0  0  0  0
 17 39  1  0  0  0  0
 17 40  1  0  0  0  0
 19 41  1  0  0  0  0
 22 42  1  0  0  0  0
 23 43  1  0  0  0  0
 23 44  1  0  0  0  0
 23 45  1  0  0  0  0
 24 46  1  0  0  0  0
 24 47  1  0  0  0  0
 25 48  1  0  0  0  0
 25 49  1  0  0  0  0
 28 50  1  0  0  0  0
 29 51  1  0  0  0  0
 29 52  1  0  0  0  0
 29 53  1  0  0  0  0
M  END
> <Name>
27

> <IC50[uM]>
0.68

$$$$
27
  -OEChem-05192314333D
 Structure written by MMmdl.
 53 56  0     1  0  0  0  0  0999 V2000
   -6.3855   12.3606  -12.0031 C   0  0  0  0  0  0  0  0  0  0  0  0
   -6.5214   11.8004  -10.7171 C   0  0  0  0  0  0  0  0  0  0  0  0
   -7.6991   10.5797  -13.0384 C   0  0  0  0  0  0  0  0  0  0  0  0
   -6.9626   11.7779  -13.1031 C   0  0  0  0  0  0  0  0  0  0  0  0
   -7.8238   10.0198  -11.7523 C   0  0  0  0  0  0  0  0  0  0  0  0
   -7.2557   10.6213  -10.5956 C   0  0  0  0  0  0  0  0  0  0  0  0
   -7.6268    9.7501   -9.5073 C   0  0  3  0  0  0  0  0  0  0  0  0
   -8.3057    8.7491   -9.9816 N   0  0  0  0  0  0  0  0  0  0  0  0
   -8.4330    8.8776  -11.2917 N   0  0  0  0  0  0  0  0  0  0  0  0
   -7.3352    9.8817   -8.0196 C   0  0  0  0  0  0  0  0  0  0  0  0
   -5.6205   13.5372  -12.2095 N   0  0  0  0  0  0  0  0  0  0  0  0
   -5.9727   10.4835   -7.7324 C   0  0  0  0  0  0  0  0  0  0  0  0
   -5.8611   11.7523   -7.1657 C   0  0  0  0  0  0  0  0  0  0  0  0
   -4.5946   12.2988   -6.9068 C   0  0  0  0  0  0  0  0  0  0  0  0
   -3.4432   11.5806   -7.2147 C   0  0  0  0  0  0  0  0  0  0  0  0
   -3.5570   10.3109   -7.7899 C   0  0  0  0  0  0  0  0  0  0  0  0
   -4.8253    9.7663   -8.0483 C   0  0  0  0  0  0  0  0  0  0  0  0
   -2.0926   12.1556   -6.9444 C   0  0  0  0  0  0  0  0  0  0  0  0
   -1.7338   13.4204   -6.4594 C   0  0  0  0  0  0  0  0  0  0  0  0
   -0.4064   13.4584   -6.4114 N   0  0  0  0  0  0  0  0  0  0  0  0
    0.1793   12.3493   -6.7865 N   0  0  0  0  0  0  0  0  0  0  0  0
   -0.7954   11.5387   -7.1512 C   0  0  0  0  0  0  0  0  0  0  0  0
    0.4205   14.5767   -6.0073 C   0  0  0  0  0  0  0  0  0  0  0  0
   -4.6894   13.8945  -11.1046 C   0  0  0  0  0  0  0  0  0  0  0  0
   -3.7822   15.1171  -11.3990 C   0  0  0  0  0  0  0  0  0  0  0  0
   -2.3310   14.9579  -11.2532 N   0  0  0  0  0  0  0  0  0  0  0  0
   -1.8099   14.4326  -10.1320 C   0  0  0  0  0  0  0  0  0  0  0  0
   -2.5019   14.0442   -9.2076 O   0  0  0  0  0  0  0  0  0  0  0  0
   -0.2869   14.3494  -10.0364 C   0  0  0  0  0  0  0  0  0  0  0  0
   -6.0716   12.2689   -9.8542 H   0  0  0  0  0  0  0  0  0  0  0  0
   -8.1374   10.1224  -13.9131 H   0  0  0  0  0  0  0  0  0  0  0  0
   -6.8466   12.2604  -14.0624 H   0  0  0  0  0  0  0  0  0  0  0  0
   -6.6939    9.1829   -9.6414 H   0  0  0  0  0  0  0  0  0  0  0  0
   -8.0269    9.5780   -7.2478 H   0  0  0  0  0  0  0  0  0  0  0  0
   -5.0791   13.4115  -13.0408 H   0  0  0  0  0  0  0  0  0  0  0  0
   -6.7507   12.3156   -6.9255 H   0  0  0  0  0  0  0  0  0  0  0  0
   -4.5132   13.2816   -6.4664 H   0  0  0  0  0  0  0  0  0  0  0  0
   -2.6683    9.7485   -8.0357 H   0  0  0  0  0  0  0  0  0  0  0  0
   -4.8817    8.8185   -7.4929 H   0  0  0  0  0  0  0  0  0  0  0  0
   -4.8676    9.5615   -9.1282 H   0  0  0  0  0  0  0  0  0  0  0  0
   -2.4090   14.2148   -6.1776 H   0  0  0  0  0  0  0  0  0  0  0  0
   -0.6475   10.5464   -7.5511 H   0  0  0  0  0  0  0  0  0  0  0  0
    1.4812   14.2962   -6.0855 H   0  0  0  0  0  0  0  0  0  0  0  0
    0.2196   15.4369   -6.6628 H   0  0  0  0  0  0  0  0  0  0  0  0
    0.1886   14.8468   -4.9665 H   0  0  0  0  0  0  0  0  0  0  0  0
   -5.2882   14.1185  -10.2095 H   0  0  0  0  0  0  0  0  0  0  0  0
   -4.0431   13.0269  -10.9057 H   0  0  0  0  0  0  0  0  0  0  0  0
   -3.9735   15.4217  -12.4385 H   0  0  0  0  0  0  0  0  0  0  0  0
   -4.0914   15.9235  -10.7178 H   0  0  0  0  0  0  0  0  0  0  0  0
   -1.9457   13.7098   -8.5138 H   0  0  0  0  0  0  0  0  0  0  0  0
   -0.0034   13.9020   -9.0723 H   0  0  0  0  0  0  0  0  0  0  0  0
    0.0984   13.7264  -10.8570 H   0  0  0  0  0  0  0  0  0  0  0  0
    0.1408   15.3601  -10.1114 H   0  0  0  0  0  0  0  0  0  0  0  0
  1  2  2  0  0  0  0
  1  4  1  0  0  0  0
  1 11  1  0  0  0  0
  2  6  1  0  0  0  0
  3  4  2  0  0  0  0
  3  5  1  0  0  0  0
  5  6  2  0  0  0  0
  5  9  1  0  0  0  0
  6  7  1  0  0  0  0
  7  8  1  0  0  0  0
  7 10  1  0  0  0  0
  8  9  2  0  0  0  0
 10 12  2  3  0  0  0
 11 24  1  0  0  0  0
 12 13  1  0  0  0  0
 12 17  1  0  0  0  0
 13 14  2  0  0  0  0
 14 15  1  0  0  0  0
 15 16  2  0  0  0  0
 15 18  1  0  0  0  0
 16 17  1  0  0  0  0
 18 19  2  0  0  0  0
 18 22  1  0  0  0  0
 19 20  1  0  0  0  0
 20 21  1  0  0  0  0
 20 23  1  0  0  0  0
 21 22  2  0  0  0  0
 24 25  1  0  0  0  0
 25 26  1  0  0  0  0
 26 27  2  0  0  0  0
 27 28  1  0  0  0  0
 27 29  1  0  0  0  0
  2 30  1  0  0  0  0
  3 31  1  0  0  0  0
  4 32  1  0  0  0  0
  7 33  1  0  0  0  0
 10 34  1  0  0  0  0
 11 35  1  0  0  0  0
 13 36  1  0  0  0  0
 14 37  1  0  0  0  0
 16 38  1  0  0  0  0
 17 39  1  0  0  0  0
 17 40  1  0  0  0  0
 19 41  1  0  0  0  0
 22 42  1  0  0  0  0
 23 43  1  0  0  0  0
 23 44  1  0  0  0  0
 23 45  1  0  0  0  0
 24 46  1  0  0  0  0
 24 47  1  0  0  0  0
 25 48  1  0  0  0  0
 25 49  1  0  0  0  0
 28 50  1  0  0  0  0
 29 51  1  0  0  0  0
 29 52  1  0  0  0  0
 29 53  1  0  0  0  0
M  END
> <Name>
27

> <IC50[uM]>
0.68

$$$$
27
  -OEChem-05192314333D
 Structure written by MMmdl.
 53 56  0     0  0  0  0  0  0999 V2000
   -6.3855   12.3606  -12.0031 C   0  0  0  0  0  0  0  0  0  0  0  0
   -6.5214   11.8004  -10.7171 C   0  0  0  0  0  0  0  0  0  0  0  0
   -7.6991   10.5797  -13.0384 C   0  0  0  0  0  0  0  0  0  0  0  0
   -6.9626   11.7779  -13.1031 C   0  0  0  0  0  0  0  0  0  0  0  0
   -7.8238   10.0198  -11.7523 C   0  0  0  0  0  0  0  0  0  0  0  0
   -7.2557   10.6213  -10.5956 C   0  0  0  0  0  0  0  0  0  0  0  0
   -7.6268    9.7501   -9.5073 C   0  0  0  0  0  0  0  0  0  0  0  0
   -8.3057    8.7491   -9.9816 N   0  0  0  0  0  0  0  0  0  0  0  0
   -8.4330    8.8776  -11.2917 N   0  0  0  0  0  0  0  0  0  0  0  0
   -7.3352    9.8817   -8.0196 C   0  0  0  0  0  0  0  0  0  0  0  0
   -5.6205   13.5372  -12.2095 N   0  0  0  0  0  0  0  0  0  0  0  0
   -5.9727   10.4835   -7.7324 C   0  0  0  0  0  0  0  0  0  0  0  0
   -5.8611   11.7523   -7.1657 C   0  0  0  0  0  0  0  0  0  0  0  0
   -4.5946   12.2988   -6.9068 C   0  0  0  0  0  0  0  0  0  0  0  0
   -3.4432   11.5806   -7.2147 C   0  0  0  0  0  0  0  0  0  0  0  0
   -3.5570   10.3109   -7.7899 C   0  0  0  0  0  0  0  0  0  0  0  0
   -4.8253    9.7663   -8.0483 C   0  0  0  0  0  0  0  0  0  0  0  0
   -2.0926   12.1556   -6.9444 C   0  0  0  0  0  0  0  0  0  0  0  0
   -1.7338   13.4204   -6.4594 C   0  0  0  0  0  0  0  0  0  0  0  0
   -0.4064   13.4584   -6.4114 N   0  0  0  0  0  0  0  0  0  0  0  0
    0.1793   12.3493   -6.7865 N   0  0  0  0  0  0  0  0  0  0  0  0
   -0.7954   11.5387   -7.1512 C   0  0  0  0  0  0  0  0  0  0  0  0
    0.4205   14.5767   -6.0073 C   0  0  0  0  0  0  0  0  0  0  0  0
   -4.6894   13.8945  -11.1046 C   0  0  0  0  0  0  0  0  0  0  0  0
   -3.7822   15.1171  -11.3990 C   0  0  0  0  0  0  0  0  0  0  0  0
   -2.3310   14.9579  -11.2532 N   0  0  0  0  0  0  0  0  0  0  0  0
   -1.8099   14.4326  -10.1320 C   0  0  0  0  0  0  0  0  0  0  0  0
   -2.5019   14.0442   -9.2076 O   0  0  0  0  0  0  0  0  0  0  0  0
   -0.2869   14.3494  -10.0364 C   0  0  0  0  0  0  0  0  0  0  0  0
   -6.0716   12.2689   -9.8542 H   0  0  0  0  0  0  0  0  0  0  0  0
   -8.1374   10.1224  -13.9131 H   0  0  0  0  0  0  0  0  0  0  0  0
   -6.8466   12.2604  -14.0624 H   0  0  0  0  0  0  0  0  0  0  0  0
   -8.0269    9.5780   -7.2478 H   0  0  0  0  0  0  0  0  0  0  0  0
   -5.0791   13.4115  -13.0408 H   0  0  0  0  0  0  0  0  0  0  0  0
   -6.7507   12.3156   -6.9255 H   0  0  0  0  0  0  0  0  0  0  0  0
   -4.5373   13.2433   -7.4677 H   0  0  0  0  0  0  0  0  0  0  0  0
   -4.5562   12.5101   -5.8280 H   0  0  0  0  0  0  0  0  0  0  0  0
   -2.6683    9.7485   -8.0357 H   0  0  0  0  0  0  0  0  0  0  0  0
   -4.8817    8.8185   -7.4929 H   0  0  0  0  0  0  0  0  0  0  0  0
   -4.8676    9.5615   -9.1282 H   0  0  0  0  0  0  0  0  0  0  0  0
   -2.4090   14.2148   -6.1776 H   0  0  0  0  0  0  0  0  0  0  0  0
   -0.6475   10.5464   -7.5511 H   0  0  0  0  0  0  0  0  0  0  0  0
    1.4812   14.2962   -6.0855 H   0  0  0  0  0  0  0  0  0  0  0  0
    0.2196   15.4369   -6.6628 H   0  0  0  0  0  0  0  0  0  0  0  0
    0.1886   14.8468   -4.9665 H   0  0  0  0  0  0  0  0  0  0  0  0
   -5.2882   14.1185  -10.2095 H   0  0  0  0  0  0  0  0  0  0  0  0
   -4.0431   13.0269  -10.9057 H   0  0  0  0  0  0  0  0  0  0  0  0
   -3.9735   15.4217  -12.4385 H   0  0  0  0  0  0  0  0  0  0  0  0
   -4.0914   15.9235  -10.7178 H   0  0  0  0  0  0  0  0  0  0  0  0
   -1.9457   13.7098   -8.5138 H   0  0  0  0  0  0  0  0  0  0  0  0
   -0.0034   13.9020   -9.0723 H   0  0  0  0  0  0  0  0  0  0  0  0
    0.0984   13.7264  -10.8570 H   0  0  0  0  0  0  0  0  0  0  0  0
    0.1408   15.3601  -10.1114 H   0  0  0  0  0  0  0  0  0  0  0  0
  1  2  2  0  0  0  0
  1  4  1  0  0  0  0
  1 11  1  0  0  0  0
  2  6  1  0  0  0  0
  3  4  2  0  0  0  0
  3  5  1  0  0  0  0
  5  6  2  0  0  0  0
  5  9  1  0  0  0  0
  6  7  1  0  0  0  0
  7  8  1  0  0  0  0
  7 10  2  3  0  0  0
  8  9  2  0  0  0  0
 10 12  1  0  0  0  0
 11 24  1  0  0  0  0
 12 13  2  0  0  0  0
 12 17  1  0  0  0  0
 13 14  1  0  0  0  0
 14 15  1  0  0  0  0
 15 16  2  0  0  0  0
 15 18  1  0  0  0  0
 16 17  1  0  0  0  0
 18 19  2  0  0  0  0
 18 22  1  0  0  0  0
 19 20  1  0  0  0  0
 20 21  1  0  0  0  0
 20 23  1  0  0  0  0
 21 22  2  0  0  0  0
 24 25  1  0  0  0  0
 25 26  1  0  0  0  0
 26 27  2  0  0  0  0
 27 28  1  0  0  0  0
 27 29  1  0  0  0  0
  2 30  1  0  0  0  0
  3 31  1  0  0  0  0
  4 32  1  0  0  0  0
 10 33  1  0  0  0  0
 11 34  1  0  0  0  0
 13 35  1  0  0  0  0
 14 36  1  0  0  0  0
 14 37  1  0  0  0  0
 16 38  1  0  0  0  0
 17 39  1  0  0  0  0
 17 40  1  0  0  0  0
 19 41  1  0  0  0  0
 22 42  1  0  0  0  0
 23 43  1  0  0  0  0
 23 44  1  0  0  0  0
 23 45  1  0  0  0  0
 24 46  1  0  0  0  0
 24 47  1  0  0  0  0
 25 48  1  0  0  0  0
 25 49  1  0  0  0  0
 28 50  1  0  0  0  0
 29 51  1  0  0  0  0
 29 52  1  0  0  0  0
 29 53  1  0  0  0  0
M  END
> <Name>
27

> <IC50[uM]>
0.68

$$$$
27
  -OEChem-05192314333D
 Structure written by MMmdl.
 53 56  0     0  0  0  0  0  0999 V2000
   -6.3855   12.3606  -12.0031 C   0  0  0  0  0  0  0  0  0  0  0  0
   -6.5214   11.8004  -10.7171 C   0  0  0  0  0  0  0  0  0  0  0  0
   -7.6991   10.5797  -13.0384 C   0  0  0  0  0  0  0  0  0  0  0  0
   -6.9626   11.7779  -13.1031 C   0  0  0  0  0  0  0  0  0  0  0  0
   -7.8238   10.0198  -11.7523 C   0  0  0  0  0  0  0  0  0  0  0  0
   -7.2557   10.6213  -10.5956 C   0  0  0  0  0  0  0  0  0  0  0  0
   -7.6268    9.7501   -9.5073 C   0  0  0  0  0  0  0  0  0  0  0  0
   -8.3057    8.7491   -9.9816 N   0  0  0  0  0  0  0  0  0  0  0  0
   -8.4330    8.8776  -11.2917 N   0  0  0  0  0  0  0  0  0  0  0  0
   -7.3352    9.8817   -8.0196 C   0  0  0  0  0  0  0  0  0  0  0  0
   -5.6205   13.5372  -12.2095 N   0  0  0  0  0  0  0  0  0  0  0  0
   -5.9727   10.4835   -7.7324 C   0  0  0  0  0  0  0  0  0  0  0  0
   -5.8611   11.7523   -7.1657 C   0  0  0  0  0  0  0  0  0  0  0  0
   -4.5946   12.2988   -6.9068 C   0  0  0  0  0  0  0  0  0  0  0  0
   -3.4432   11.5806   -7.2147 C   0  0  0  0  0  0  0  0  0  0  0  0
   -3.5570   10.3109   -7.7899 C   0  0  0  0  0  0  0  0  0  0  0  0
   -4.8253    9.7663   -8.0483 C   0  0  0  0  0  0  0  0  0  0  0  0
   -2.0926   12.1556   -6.9444 C   0  0  0  0  0  0  0  0  0  0  0  0
   -1.7338   13.4204   -6.4594 C   0  0  0  0  0  0  0  0  0  0  0  0
   -0.4064   13.4584   -6.4114 N   0  0  0  0  0  0  0  0  0  0  0  0
    0.1793   12.3493   -6.7865 N   0  0  0  0  0  0  0  0  0  0  0  0
   -0.7954   11.5387   -7.1512 C   0  0  0  0  0  0  0  0  0  0  0  0
    0.4205   14.5767   -6.0073 C   0  0  0  0  0  0  0  0  0  0  0  0
   -4.6894   13.8945  -11.1046 C   0  0  0  0  0  0  0  0  0  0  0  0
   -3.7822   15.1171  -11.3990 C   0  0  0  0  0  0  0  0  0  0  0  0
   -2.3310   14.9579  -11.2532 N   0  0  0  0  0  0  0  0  0  0  0  0
   -1.8099   14.4326  -10.1320 C   0  0  0  0  0  0  0  0  0  0  0  0
   -2.5019   14.0442   -9.2076 O   0  0  0  0  0  0  0  0  0  0  0  0
   -0.2869   14.3494  -10.0364 C   0  0  0  0  0  0  0  0  0  0  0  0
   -6.0716   12.2689   -9.8542 H   0  0  0  0  0  0  0  0  0  0  0  0
   -8.1374   10.1224  -13.9131 H   0  0  0  0  0  0  0  0  0  0  0  0
   -6.8466   12.2604  -14.0624 H   0  0  0  0  0  0  0  0  0  0  0  0
   -8.0269    9.5780   -7.2478 H   0  0  0  0  0  0  0  0  0  0  0  0
   -5.0791   13.4115  -13.0408 H   0  0  0  0  0  0  0  0  0  0  0  0
   -6.7507   12.3156   -6.9255 H   0  0  0  0  0  0  0  0  0  0  0  0
   -4.5132   13.2816   -6.4664 H   0  0  0  0  0  0  0  0  0  0  0  0
   -3.0266   10.3502   -8.7528 H   0  0  0  0  0  0  0  0  0  0  0  0
   -3.0423    9.6102   -7.1161 H   0  0  0  0  0  0  0  0  0  0  0  0
   -4.8817    8.8185   -7.4929 H   0  0  0  0  0  0  0  0  0  0  0  0
   -4.8676    9.5615   -9.1282 H   0  0  0  0  0  0  0  0  0  0  0  0
   -2.4090   14.2148   -6.1776 H   0  0  0  0  0  0  0  0  0  0  0  0
   -0.6475   10.5464   -7.5511 H   0  0  0  0  0  0  0  0  0  0  0  0
    1.4812   14.2962   -6.0855 H   0  0  0  0  0  0  0  0  0  0  0  0
    0.2196   15.4369   -6.6628 H   0  0  0  0  0  0  0  0  0  0  0  0
    0.1886   14.8468   -4.9665 H   0  0  0  0  0  0  0  0  0  0  0  0
   -5.2882   14.1185  -10.2095 H   0  0  0  0  0  0  0  0  0  0  0  0
   -4.0431   13.0269  -10.9057 H   0  0  0  0  0  0  0  0  0  0  0  0
   -3.9735   15.4217  -12.4385 H   0  0  0  0  0  0  0  0  0  0  0  0
   -4.0914   15.9235  -10.7178 H   0  0  0  0  0  0  0  0  0  0  0  0
   -1.9457   13.7098   -8.5138 H   0  0  0  0  0  0  0  0  0  0  0  0
   -0.0034   13.9020   -9.0723 H   0  0  0  0  0  0  0  0  0  0  0  0
    0.0984   13.7264  -10.8570 H   0  0  0  0  0  0  0  0  0  0  0  0
    0.1408   15.3601  -10.1114 H   0  0  0  0  0  0  0  0  0  0  0  0
  1  2  2  0  0  0  0
  1  4  1  0  0  0  0
  1 11  1  0  0  0  0
  2  6  1  0  0  0  0
  3  4  2  0  0  0  0
  3  5  1  0  0  0  0
  5  6  2  0  0  0  0
  5  9  1  0  0  0  0
  6  7  1  0  0  0  0
  7  8  1  0  0  0  0
  7 10  2  3  0  0  0
  8  9  2  0  0  0  0
 10 12  1  0  0  0  0
 11 24  1  0  0  0  0
 12 13  2  0  0  0  0
 12 17  1  0  0  0  0
 13 14  1  0  0  0  0
 14 15  2  0  0  0  0
 15 16  1  0  0  0  0
 15 18  1  0  0  0  0
 16 17  1  0  0  0  0
 18 19  2  0  0  0  0
 18 22  1  0  0  0  0
 19 20  1  0  0  0  0
 20 21  1  0  0  0  0
 20 23  1  0  0  0  0
 21 22  2  0  0  0  0
 24 25  1  0  0  0  0
 25 26  1  0  0  0  0
 26 27  2  0  0  0  0
 27 28  1  0  0  0  0
 27 29  1  0  0  0  0
  2 30  1  0  0  0  0
  3 31  1  0  0  0  0
  4 32  1  0  0  0  0
 10 33  1  0  0  0  0
 11 34  1  0  0  0  0
 13 35  1  0  0  0  0
 14 36  1  0  0  0  0
 16 37  1  0  0  0  0
 16 38  1  0  0  0  0
 17 39  1  0  0  0  0
 17 40  1  0  0  0  0
 19 41  1  0  0  0  0
 22 42  1  0  0  0  0
 23 43  1  0  0  0  0
 23 44  1  0  0  0  0
 23 45  1  0  0  0  0
 24 46  1  0  0  0  0
 24 47  1  0  0  0  0
 25 48  1  0  0  0  0
 25 49  1  0  0  0  0
 28 50  1  0  0  0  0
 29 51  1  0  0  0  0
 29 52  1  0  0  0  0
 29 53  1  0  0  0  0
M  END
> <Name>
27

> <IC50[uM]>
0.68

$$$$
27
  -OEChem-05192314333D
 Structure written by MMmdl.
 53 56  0     1  0  0  0  0  0999 V2000
   -6.3855   12.3606  -12.0031 C   0  0  0  0  0  0  0  0  0  0  0  0
   -6.5214   11.8004  -10.7171 C   0  0  0  0  0  0  0  0  0  0  0  0
   -7.6991   10.5797  -13.0384 C   0  0  0  0  0  0  0  0  0  0  0  0
   -6.9626   11.7779  -13.1031 C   0  0  0  0  0  0  0  0  0  0  0  0
   -7.8238   10.0198  -11.7523 C   0  0  0  0  0  0  0  0  0  0  0  0
   -7.2557   10.6213  -10.5956 C   0  0  3  0  0  0  0  0  0  0  0  0
   -7.6268    9.7501   -9.5073 C   0  0  0  0  0  0  0  0  0  0  0  0
   -8.3057    8.7491   -9.9816 N   0  0  0  0  0  0  0  0  0  0  0  0
   -8.4330    8.8776  -11.2917 N   0  0  0  0  0  0  0  0  0  0  0  0
   -7.3352    9.8817   -8.0196 C   0  0  0  0  0  0  0  0  0  0  0  0
   -5.6205   13.5372  -12.2095 N   0  0  0  0  0  0  0  0  0  0  0  0
   -5.9727   10.4835   -7.7324 C   0  0  0  0  0  0  0  0  0  0  0  0
   -5.8611   11.7523   -7.1657 C   0  0  0  0  0  0  0  0  0  0  0  0
   -4.5946   12.2988   -6.9068 C   0  0  0  0  0  0  0  0  0  0  0  0
   -3.4432   11.5806   -7.2147 C   0  0  0  0  0  0  0  0  0  0  0  0
   -3.5570   10.3109   -7.7899 C   0  0  0  0  0  0  0  0  0  0  0  0
   -4.8253    9.7663   -8.0483 C   0  0  0  0  0  0  0  0  0  0  0  0
   -2.0926   12.1556   -6.9444 C   0  0  0  0  0  0  0  0  0  0  0  0
   -1.7338   13.4204   -6.4594 C   0  0  0  0  0  0  0  0  0  0  0  0
   -0.4064   13.4584   -6.4114 N   0  0  0  0  0  0  0  0  0  0  0  0
    0.1793   12.3493   -6.7865 N   0  0  0  0  0  0  0  0  0  0  0  0
   -0.7954   11.5387   -7.1512 C   0  0  0  0  0  0  0  0  0  0  0  0
    0.4205   14.5767   -6.0073 C   0  0  0  0  0  0  0  0  0  0  0  0
   -4.6894   13.8945  -11.1046 C   0  0  0  0  0  0  0  0  0  0  0  0
   -3.7822   15.1171  -11.3990 C   0  0  0  0  0  0  0  0  0  0  0  0
   -2.3310   14.9579  -11.2532 N   0  0  0  0  0  0  0  0  0  0  0  0
   -1.8099   14.4326  -10.1320 C   0  0  0  0  0  0  0  0  0  0  0  0
   -2.5019   14.0442   -9.2076 O   0  0  0  0  0  0  0  0  0  0  0  0
   -0.2869   14.3494  -10.0364 C   0  0  0  0  0  0  0  0  0  0  0  0
   -5.5086   11.5965  -10.3394 H   0  0  0  0  0  0  0  0  0  0  0  0
   -7.0053   12.5553  -10.0799 H   0  0  0  0  0  0  0  0  0  0  0  0
   -8.1374   10.1224  -13.9131 H   0  0  0  0  0  0  0  0  0  0  0  0
   -6.8466   12.2604  -14.0624 H   0  0  0  0  0  0  0  0  0  0  0  0
   -8.1751   11.2060  -10.4447 H   0  0  0  0  0  0  0  0  0  0  0  0
   -8.0269    9.5780   -7.2478 H   0  0  0  0  0  0  0  0  0  0  0  0
   -5.0791   13.4115  -13.0408 H   0  0  0  0  0  0  0  0  0  0  0  0
   -6.7507   12.3156   -6.9255 H   0  0  0  0  0  0  0  0  0  0  0  0
   -4.5132   13.2816   -6.4664 H   0  0  0  0  0  0  0  0  0  0  0  0
   -2.6683    9.7485   -8.0357 H   0  0  0  0  0  0  0  0  0  0  0  0
   -4.9092    8.7863   -8.4943 H   0  0  0  0  0  0  0  0  0  0  0  0
   -2.4090   14.2148   -6.1776 H   0  0  0  0  0  0  0  0  0  0  0  0
   -0.6475   10.5464   -7.5511 H   0  0  0  0  0  0  0  0  0  0  0  0
    1.4812   14.2962   -6.0855 H   0  0  0  0  0  0  0  0  0  0  0  0
    0.2196   15.4369   -6.6628 H   0  0  0  0  0  0  0  0  0  0  0  0
    0.1886   14.8468   -4.9665 H   0  0  0  0  0  0  0  0  0  0  0  0
   -5.2882   14.1185  -10.2095 H   0  0  0  0  0  0  0  0  0  0  0  0
   -4.0431   13.0269  -10.9057 H   0  0  0  0  0  0  0  0  0  0  0  0
   -3.9735   15.4217  -12.4385 H   0  0  0  0  0  0  0  0  0  0  0  0
   -4.0914   15.9235  -10.7178 H   0  0  0  0  0  0  0  0  0  0  0  0
   -1.9457   13.7098   -8.5138 H   0  0  0  0  0  0  0  0  0  0  0  0
   -0.0034   13.9020   -9.0723 H   0  0  0  0  0  0  0  0  0  0  0  0
    0.0984   13.7264  -10.8570 H   0  0  0  0  0  0  0  0  0  0  0  0
    0.1408   15.3601  -10.1114 H   0  0  0  0  0  0  0  0  0  0  0  0
  1  2  1  0  0  0  0
  1  4  2  0  0  0  0
  1 11  1  0  0  0  0
  2  6  1  0  0  0  0
  3  4  1  0  0  0  0
  3  5  2  0  0  0  0
  5  6  1  0  0  0  0
  5  9  1  0  0  0  0
  6  7  1  0  0  0  0
  7  8  1  0  0  0  0
  7 10  2  3  0  0  0
  8  9  2  0  0  0  0
 10 12  1  0  0  0  0
 11 24  1  0  0  0  0
 12 13  2  0  0  0  0
 12 17  1  0  0  0  0
 13 14  1  0  0  0  0
 14 15  2  0  0  0  0
 15 16  1  0  0  0  0
 15 18  1  0  0  0  0
 16 17  2  0  0  0  0
 18 19  2  0  0  0  0
 18 22  1  0  0  0  0
 19 20  1  0  0  0  0
 20 21  1  0  0  0  0
 20 23  1  0  0  0  0
 21 22  2  0  0  0  0
 24 25  1  0  0  0  0
 25 26  1  0  0  0  0
 26 27  2  0  0  0  0
 27 28  1  0  0  0  0
 27 29  1  0  0  0  0
  2 30  1  0  0  0  0
  2 31  1  0  0  0  0
  3 32  1  0  0  0  0
  4 33  1  0  0  0  0
  6 34  1  0  0  0  0
 10 35  1  0  0  0  0
 11 36  1  0  0  0  0
 13 37  1  0  0  0  0
 14 38  1  0  0  0  0
 16 39  1  0  0  0  0
 17 40  1  0  0  0  0
 19 41  1  0  0  0  0
 22 42  1  0  0  0  0
 23 43  1  0  0  0  0
 23 44  1  0  0  0  0
 23 45  1  0  0  0  0
 24 46  1  0  0  0  0
 24 47  1  0  0  0  0
 25 48  1  0  0  0  0
 25 49  1  0  0  0  0
 28 50  1  0  0  0  0
 29 51  1  0  0  0  0
 29 52  1  0  0  0  0
 29 53  1  0  0  0  0
M  END
> <Name>
27

> <IC50[uM]>
0.68

$$$$
27
  -OEChem-05192314333D
 Structure written by MMmdl.
 53 56  0     1  0  0  0  0  0999 V2000
   -6.3855   12.3606  -12.0031 C   0  0  3  0  0  0  0  0  0  0  0  0
   -6.5214   11.8004  -10.7171 C   0  0  0  0  0  0  0  0  0  0  0  0
   -7.6991   10.5797  -13.0384 C   0  0  0  0  0  0  0  0  0  0  0  0
   -6.9626   11.7779  -13.1031 C   0  0  0  0  0  0  0  0  0  0  0  0
   -7.8238   10.0198  -11.7523 C   0  0  0  0  0  0  0  0  0  0  0  0
   -7.2557   10.6213  -10.5956 C   0  0  0  0  0  0  0  0  0  0  0  0
   -7.6268    9.7501   -9.5073 C   0  0  0  0  0  0  0  0  0  0  0  0
   -8.3057    8.7491   -9.9816 N   0  0  0  0  0  0  0  0  0  0  0  0
   -8.4330    8.8776  -11.2917 N   0  0  0  0  0  0  0  0  0  0  0  0
   -7.3352    9.8817   -8.0196 C   0  0  0  0  0  0  0  0  0  0  0  0
   -5.6205   13.5372  -12.2095 N   0  0  0  0  0  0  0  0  0  0  0  0
   -5.9727   10.4835   -7.7324 C   0  0  0  0  0  0  0  0  0  0  0  0
   -5.8611   11.7523   -7.1657 C   0  0  0  0  0  0  0  0  0  0  0  0
   -4.5946   12.2988   -6.9068 C   0  0  0  0  0  0  0  0  0  0  0  0
   -3.4432   11.5806   -7.2147 C   0  0  0  0  0  0  0  0  0  0  0  0
   -3.5570   10.3109   -7.7899 C   0  0  0  0  0  0  0  0  0  0  0  0
   -4.8253    9.7663   -8.0483 C   0  0  0  0  0  0  0  0  0  0  0  0
   -2.0926   12.1556   -6.9444 C   0  0  0  0  0  0  0  0  0  0  0  0
   -1.7338   13.4204   -6.4594 C   0  0  0  0  0  0  0  0  0  0  0  0
   -0.4064   13.4584   -6.4114 N   0  0  0  0  0  0  0  0  0  0  0  0
    0.1793   12.3493   -6.7865 N   0  0  0  0  0  0  0  0  0  0  0  0
   -0.7954   11.5387   -7.1512 C   0  0  0  0  0  0  0  0  0  0  0  0
    0.4205   14.5767   -6.0073 C   0  0  0  0  0  0  0  0  0  0  0  0
   -4.6894   13.8945  -11.1046 C   0  0  0  0  0  0  0  0  0  0  0  0
   -3.7822   15.1171  -11.3990 C   0  0  0  0  0  0  0  0  0  0  0  0
   -2.3310   14.9579  -11.2532 N   0  0  0  0  0  0  0  0  0  0  0  0
   -1.8099   14.4326  -10.1320 C   0  0  0  0  0  0  0  0  0  0  0  0
   -2.5019   14.0442   -9.2076 O   0  0  0  0  0  0  0  0  0  0  0  0
   -0.2869   14.3494  -10.0364 C   0  0  0  0  0  0  0  0  0  0  0  0
   -7.2886   12.9676  -11.8418 H   0  0  0  0  0  0  0  0  0  0  0  0
   -5.5086   11.5965  -10.3394 H   0  0  0  0  0  0  0  0  0  0  0  0
   -7.0053   12.5553  -10.0799 H   0  0  0  0  0  0  0  0  0  0  0  0
   -8.1374   10.1224  -13.9131 H   0  0  0  0  0  0  0  0  0  0  0  0
   -6.8466   12.2604  -14.0624 H   0  0  0  0  0  0  0  0  0  0  0  0
   -8.0269    9.5780   -7.2478 H   0  0  0  0  0  0  0  0  0  0  0  0
   -5.0791   13.4115  -13.0408 H   0  0  0  0  0  0  0  0  0  0  0  0
   -6.7507   12.3156   -6.9255 H   0  0  0  0  0  0  0  0  0  0  0  0
   -4.5132   13.2816   -6.4664 H   0  0  0  0  0  0  0  0  0  0  0  0
   -2.6683    9.7485   -8.0357 H   0  0  0  0  0  0  0  0  0  0  0  0
   -4.9092    8.7863   -8.4943 H   0  0  0  0  0  0  0  0  0  0  0  0
   -2.4090   14.2148   -6.1776 H   0  0  0  0  0  0  0  0  0  0  0  0
   -0.6475   10.5464   -7.5511 H   0  0  0  0  0  0  0  0  0  0  0  0
    1.4812   14.2962   -6.0855 H   0  0  0  0  0  0  0  0  0  0  0  0
    0.2196   15.4369   -6.6628 H   0  0  0  0  0  0  0  0  0  0  0  0
    0.1886   14.8468   -4.9665 H   0  0  0  0  0  0  0  0  0  0  0  0
   -5.2882   14.1185  -10.2095 H   0  0  0  0  0  0  0  0  0  0  0  0
   -4.0431   13.0269  -10.9057 H   0  0  0  0  0  0  0  0  0  0  0  0
   -3.9735   15.4217  -12.4385 H   0  0  0  0  0  0  0  0  0  0  0  0
   -4.0914   15.9235  -10.7178 H   0  0  0  0  0  0  0  0  0  0  0  0
   -1.9457   13.7098   -8.5138 H   0  0  0  0  0  0  0  0  0  0  0  0
   -0.0034   13.9020   -9.0723 H   0  0  0  0  0  0  0  0  0  0  0  0
    0.0984   13.7264  -10.8570 H   0  0  0  0  0  0  0  0  0  0  0  0
    0.1408   15.3601  -10.1114 H   0  0  0  0  0  0  0  0  0  0  0  0
  1  2  1  0  0  0  0
  1  4  1  0  0  0  0
  1 11  1  0  0  0  0
  2  6  1  0  0  0  0
  3  4  2  0  0  0  0
  3  5  1  0  0  0  0
  5  6  2  0  0  0  0
  5  9  1  0  0  0  0
  6  7  1  0  0  0  0
  7  8  1  0  0  0  0
  7 10  2  3  0  0  0
  8  9  2  0  0  0  0
 10 12  1  0  0  0  0
 11 24  1  0  0  0  0
 12 13  2  0  0  0  0
 12 17  1  0  0  0  0
 13 14  1  0  0  0  0
 14 15  2  0  0  0  0
 15 16  1  0  0  0  0
 15 18  1  0  0  0  0
 16 17  2  0  0  0  0
 18 19  2  0  0  0  0
 18 22  1  0  0  0  0
 19 20  1  0  0  0  0
 20 21  1  0  0  0  0
 20 23  1  0  0  0  0
 21 22  2  0  0  0  0
 24 25  1  0  0  0  0
 25 26  1  0  0  0  0
 26 27  2  0  0  0  0
 27 28  1  0  0  0  0
 27 29  1  0  0  0  0
  1 30  1  0  0  0  0
  2 31  1  0  0  0  0
  2 32  1  0  0  0  0
  3 33  1  0  0  0  0
  4 34  1  0  0  0  0
 10 35  1  0  0  0  0
 11 36  1  0  0  0  0
 13 37  1  0  0  0  0
 14 38  1  0  0  0  0
 16 39  1  0  0  0  0
 17 40  1  0  0  0  0
 19 41  1  0  0  0  0
 22 42  1  0  0  0  0
 23 43  1  0  0  0  0
 23 44  1  0  0  0  0
 23 45  1  0  0  0  0
 24 46  1  0  0  0  0
 24 47  1  0  0  0  0
 25 48  1  0  0  0  0
 25 49  1  0  0  0  0
 28 50  1  0  0  0  0
 29 51  1  0  0  0  0
 29 52  1  0  0  0  0
 29 53  1  0  0  0  0
M  END
> <Name>
27

> <IC50[uM]>
0.68

$$$$
27
  -OEChem-05192314333D
 Structure written by MMmdl.
 53 56  0     0  0  0  0  0  0999 V2000
   -6.3855   12.3606  -12.0031 C   0  0  0  0  0  0  0  0  0  0  0  0
   -6.5214   11.8004  -10.7171 C   0  0  0  0  0  0  0  0  0  0  0  0
   -7.6991   10.5797  -13.0384 C   0  0  0  0  0  0  0  0  0  0  0  0
   -6.9626   11.7779  -13.1031 C   0  0  0  0  0  0  0  0  0  0  0  0
   -7.8238   10.0198  -11.7523 C   0  0  0  0  0  0  0  0  0  0  0  0
   -7.2557   10.6213  -10.5956 C   0  0  0  0  0  0  0  0  0  0  0  0
   -7.6268    9.7501   -9.5073 C   0  0  0  0  0  0  0  0  0  0  0  0
   -8.3057    8.7491   -9.9816 N   0  0  0  0  0  0  0  0  0  0  0  0
   -8.4330    8.8776  -11.2917 N   0  0  0  0  0  0  0  0  0  0  0  0
   -7.3352    9.8817   -8.0196 C   0  0  0  0  0  0  0  0  0  0  0  0
   -5.6205   13.5372  -12.2095 N   0  0  0  0  0  0  0  0  0  0  0  0
   -5.9727   10.4835   -7.7324 C   0  0  0  0  0  0  0  0  0  0  0  0
   -5.8611   11.7523   -7.1657 C   0  0  0  0  0  0  0  0  0  0  0  0
   -4.5946   12.2988   -6.9068 C   0  0  0  0  0  0  0  0  0  0  0  0
   -3.4432   11.5806   -7.2147 C   0  0  0  0  0  0  0  0  0  0  0  0
   -3.5570   10.3109   -7.7899 C   0  0  0  0  0  0  0  0  0  0  0  0
   -4.8253    9.7663   -8.0483 C   0  0  0  0  0  0  0  0  0  0  0  0
   -2.0926   12.1556   -6.9444 C   0  0  0  0  0  0  0  0  0  0  0  0
   -1.7338   13.4204   -6.4594 C   0  0  0  0  0  0  0  0  0  0  0  0
   -0.4064   13.4584   -6.4114 N   0  0  0  0  0  0  0  0  0  0  0  0
    0.1793   12.3493   -6.7865 N   0  0  0  0  0  0  0  0  0  0  0  0
   -0.7954   11.5387   -7.1512 C   0  0  0  0  0  0  0  0  0  0  0  0
    0.4205   14.5767   -6.0073 C   0  0  0  0  0  0  0  0  0  0  0  0
   -4.6894   13.8945  -11.1046 C   0  0  0  0  0  0  0  0  0  0  0  0
   -3.7822   15.1171  -11.3990 C   0  0  0  0  0  0  0  0  0  0  0  0
   -2.3310   14.9579  -11.2532 N   0  0  0  0  0  0  0  0  0  0  0  0
   -1.8099   14.4326  -10.1320 C   0  0  0  0  0  0  0  0  0  0  0  0
   -2.5019   14.0442   -9.2076 O   0  0  0  0  0  0  0  0  0  0  0  0
   -0.2869   14.3494  -10.0364 C   0  0  0  0  0  0  0  0  0  0  0  0
   -5.5086   11.5965  -10.3394 H   0  0  0  0  0  0  0  0  0  0  0  0
   -7.0053   12.5553  -10.0799 H   0  0  0  0  0  0  0  0  0  0  0  0
   -8.7105   10.7812  -13.4211 H   0  0  0  0  0  0  0  0  0  0  0  0
   -7.2031    9.8404  -13.6845 H   0  0  0  0  0  0  0  0  0  0  0  0
   -6.8466   12.2604  -14.0624 H   0  0  0  0  0  0  0  0  0  0  0  0
   -8.0269    9.5780   -7.2478 H   0  0  0  0  0  0  0  0  0  0  0  0
   -5.0791   13.4115  -13.0408 H   0  0  0  0  0  0  0  0  0  0  0  0
   -6.7507   12.3156   -6.9255 H   0  0  0  0  0  0  0  0  0  0  0  0
   -4.5132   13.2816   -6.4664 H   0  0  0  0  0  0  0  0  0  0  0  0
   -2.6683    9.7485   -8.0357 H   0  0  0  0  0  0  0  0  0  0  0  0
   -4.9092    8.7863   -8.4943 H   0  0  0  0  0  0  0  0  0  0  0  0
   -2.4090   14.2148   -6.1776 H   0  0  0  0  0  0  0  0  0  0  0  0
   -0.6475   10.5464   -7.5511 H   0  0  0  0  0  0  0  0  0  0  0  0
    1.4812   14.2962   -6.0855 H   0  0  0  0  0  0  0  0  0  0  0  0
    0.2196   15.4369   -6.6628 H   0  0  0  0  0  0  0  0  0  0  0  0
    0.1886   14.8468   -4.9665 H   0  0  0  0  0  0  0  0  0  0  0  0
   -5.2882   14.1185  -10.2095 H   0  0  0  0  0  0  0  0  0  0  0  0
   -4.0431   13.0269  -10.9057 H   0  0  0  0  0  0  0  0  0  0  0  0
   -3.9735   15.4217  -12.4385 H   0  0  0  0  0  0  0  0  0  0  0  0
   -4.0914   15.9235  -10.7178 H   0  0  0  0  0  0  0  0  0  0  0  0
   -1.9457   13.7098   -8.5138 H   0  0  0  0  0  0  0  0  0  0  0  0
   -0.0034   13.9020   -9.0723 H   0  0  0  0  0  0  0  0  0  0  0  0
    0.0984   13.7264  -10.8570 H   0  0  0  0  0  0  0  0  0  0  0  0
    0.1408   15.3601  -10.1114 H   0  0  0  0  0  0  0  0  0  0  0  0
  1  2  1  0  0  0  0
  1  4  2  0  0  0  0
  1 11  1  0  0  0  0
  2  6  1  0  0  0  0
  3  4  1  0  0  0  0
  3  5  1  0  0  0  0
  5  6  2  0  0  0  0
  5  9  1  0  0  0  0
  6  7  1  0  0  0  0
  7  8  1  0  0  0  0
  7 10  2  3  0  0  0
  8  9  2  0  0  0  0
 10 12  1  0  0  0  0
 11 24  1  0  0  0  0
 12 13  2  0  0  0  0
 12 17  1  0  0  0  0
 13 14  1  0  0  0  0
 14 15  2  0  0  0  0
 15 16  1  0  0  0  0
 15 18  1  0  0  0  0
 16 17  2  0  0  0  0
 18 19  2  0  0  0  0
 18 22  1  0  0  0  0
 19 20  1  0  0  0  0
 20 21  1  0  0  0  0
 20 23  1  0  0  0  0
 21 22  2  0  0  0  0
 24 25  1  0  0  0  0
 25 26  1  0  0  0  0
 26 27  2  0  0  0  0
 27 28  1  0  0  0  0
 27 29  1  0  0  0  0
  2 30  1  0  0  0  0
  2 31  1  0  0  0  0
  3 32  1  0  0  0  0
  3 33  1  0  0  0  0
  4 34  1  0  0  0  0
 10 35  1  0  0  0  0
 11 36  1  0  0  0  0
 13 37  1  0  0  0  0
 14 38  1  0  0  0  0
 16 39  1  0  0  0  0
 17 40  1  0  0  0  0
 19 41  1  0  0  0  0
 22 42  1  0  0  0  0
 23 43  1  0  0  0  0
 23 44  1  0  0  0  0
 23 45  1  0  0  0  0
 24 46  1  0  0  0  0
 24 47  1  0  0  0  0
 25 48  1  0  0  0  0
 25 49  1  0  0  0  0
 28 50  1  0  0  0  0
 29 51  1  0  0  0  0
 29 52  1  0  0  0  0
 29 53  1  0  0  0  0
M  END
> <Name>
27

> <IC50[uM]>
0.68

$$$$
27
  -OEChem-05192314333D
 Structure written by MMmdl.
 53 56  0     1  0  0  0  0  0999 V2000
   -6.3855   12.3606  -12.0031 C   0  0  0  0  0  0  0  0  0  0  0  0
   -6.5214   11.8004  -10.7171 C   0  0  0  0  0  0  0  0  0  0  0  0
   -7.6991   10.5797  -13.0384 C   0  0  0  0  0  0  0  0  0  0  0  0
   -6.9626   11.7779  -13.1031 C   0  0  0  0  0  0  0  0  0  0  0  0
   -7.8238   10.0198  -11.7523 C   0  0  3  0  0  0  0  0  0  0  0  0
   -7.2557   10.6213  -10.5956 C   0  0  0  0  0  0  0  0  0  0  0  0
   -7.6268    9.7501   -9.5073 C   0  0  0  0  0  0  0  0  0  0  0  0
   -8.3057    8.7491   -9.9816 N   0  0  0  0  0  0  0  0  0  0  0  0
   -8.4330    8.8776  -11.2917 N   0  0  0  0  0  0  0  0  0  0  0  0
   -7.3352    9.8817   -8.0196 C   0  0  0  0  0  0  0  0  0  0  0  0
   -5.6205   13.5372  -12.2095 N   0  0  0  0  0  0  0  0  0  0  0  0
   -5.9727   10.4835   -7.7324 C   0  0  0  0  0  0  0  0  0  0  0  0
   -5.8611   11.7523   -7.1657 C   0  0  0  0  0  0  0  0  0  0  0  0
   -4.5946   12.2988   -6.9068 C   0  0  0  0  0  0  0  0  0  0  0  0
   -3.4432   11.5806   -7.2147 C   0  0  0  0  0  0  0  0  0  0  0  0
   -3.5570   10.3109   -7.7899 C   0  0  0  0  0  0  0  0  0  0  0  0
   -4.8253    9.7663   -8.0483 C   0  0  0  0  0  0  0  0  0  0  0  0
   -2.0926   12.1556   -6.9444 C   0  0  0  0  0  0  0  0  0  0  0  0
   -1.7338   13.4204   -6.4594 C   0  0  0  0  0  0  0  0  0  0  0  0
   -0.4064   13.4584   -6.4114 N   0  0  0  0  0  0  0  0  0  0  0  0
    0.1793   12.3493   -6.7865 N   0  0  0  0  0  0  0  0  0  0  0  0
   -0.7954   11.5387   -7.1512 C   0  0  0  0  0  0  0  0  0  0  0  0
    0.4205   14.5767   -6.0073 C   0  0  0  0  0  0  0  0  0  0  0  0
   -4.6894   13.8945  -11.1046 C   0  0  0  0  0  0  0  0  0  0  0  0
   -3.7822   15.1171  -11.3990 C   0  0  0  0  0  0  0  0  0  0  0  0
   -2.3310   14.9579  -11.2532 N   0  0  0  0  0  0  0  0  0  0  0  0
   -1.8099   14.4326  -10.1320 C   0  0  0  0  0  0  0  0  0  0  0  0
   -2.5019   14.0442   -9.2076 O   0  0  0  0  0  0  0  0  0  0  0  0
   -0.2869   14.3494  -10.0364 C   0  0  0  0  0  0  0  0  0  0  0  0
   -6.0716   12.2689   -9.8542 H   0  0  0  0  0  0  0  0  0  0  0  0
   -8.1374   10.1224  -13.9131 H   0  0  0  0  0  0  0  0  0  0  0  0
   -6.8466   12.2604  -14.0624 H   0  0  0  0  0  0  0  0  0  0  0  0
   -8.7543   10.5845  -11.5930 H   0  0  0  0  0  0  0  0  0  0  0  0
   -8.1046   10.5248   -7.5674 H   0  0  0  0  0  0  0  0  0  0  0  0
   -7.3794    8.8814   -7.5641 H   0  0  0  0  0  0  0  0  0  0  0  0
   -5.0791   13.4115  -13.0408 H   0  0  0  0  0  0  0  0  0  0  0  0
   -6.7507   12.3156   -6.9255 H   0  0  0  0  0  0  0  0  0  0  0  0
   -4.5132   13.2816   -6.4664 H   0  0  0  0  0  0  0  0  0  0  0  0
   -2.6683    9.7485   -8.0357 H   0  0  0  0  0  0  0  0  0  0  0  0
   -4.9092    8.7863   -8.4943 H   0  0  0  0  0  0  0  0  0  0  0  0
   -2.4090   14.2148   -6.1776 H   0  0  0  0  0  0  0  0  0  0  0  0
   -0.6475   10.5464   -7.5511 H   0  0  0  0  0  0  0  0  0  0  0  0
    1.4812   14.2962   -6.0855 H   0  0  0  0  0  0  0  0  0  0  0  0
    0.2196   15.4369   -6.6628 H   0  0  0  0  0  0  0  0  0  0  0  0
    0.1886   14.8468   -4.9665 H   0  0  0  0  0  0  0  0  0  0  0  0
   -5.2882   14.1185  -10.2095 H   0  0  0  0  0  0  0  0  0  0  0  0
   -4.0431   13.0269  -10.9057 H   0  0  0  0  0  0  0  0  0  0  0  0
   -3.9735   15.4217  -12.4385 H   0  0  0  0  0  0  0  0  0  0  0  0
   -4.0914   15.9235  -10.7178 H   0  0  0  0  0  0  0  0  0  0  0  0
   -1.9457   13.7098   -8.5138 H   0  0  0  0  0  0  0  0  0  0  0  0
   -0.0034   13.9020   -9.0723 H   0  0  0  0  0  0  0  0  0  0  0  0
    0.0984   13.7264  -10.8570 H   0  0  0  0  0  0  0  0  0  0  0  0
    0.1408   15.3601  -10.1114 H   0  0  0  0  0  0  0  0  0  0  0  0
  1  2  2  0  0  0  0
  1  4  1  0  0  0  0
  1 11  1  0  0  0  0
  2  6  1  0  0  0  0
  3  4  2  0  0  0  0
  3  5  1  0  0  0  0
  5  6  1  0  0  0  0
  5  9  1  0  0  0  0
  6  7  2  0  0  0  0
  7  8  1  0  0  0  0
  7 10  1  0  0  0  0
  8  9  2  0  0  0  0
 10 12  1  0  0  0  0
 11 24  1  0  0  0  0
 12 13  2  0  0  0  0
 12 17  1  0  0  0  0
 13 14  1  0  0  0  0
 14 15  2  0  0  0  0
 15 16  1  0  0  0  0
 15 18  1  0  0  0  0
 16 17  2  0  0  0  0
 18 19  2  0  0  0  0
 18 22  1  0  0  0  0
 19 20  1  0  0  0  0
 20 21  1  0  0  0  0
 20 23  1  0  0  0  0
 21 22  2  0  0  0  0
 24 25  1  0  0  0  0
 25 26  1  0  0  0  0
 26 27  2  0  0  0  0
 27 28  1  0  0  0  0
 27 29  1  0  0  0  0
  2 30  1  0  0  0  0
  3 31  1  0  0  0  0
  4 32  1  0  0  0  0
  5 33  1  0  0  0  0
 10 34  1  0  0  0  0
 10 35  1  0  0  0  0
 11 36  1  0  0  0  0
 13 37  1  0  0  0  0
 14 38  1  0  0  0  0
 16 39  1  0  0  0  0
 17 40  1  0  0  0  0
 19 41  1  0  0  0  0
 22 42  1  0  0  0  0
 23 43  1  0  0  0  0
 23 44  1  0  0  0  0
 23 45  1  0  0  0  0
 24 46  1  0  0  0  0
 24 47  1  0  0  0  0
 25 48  1  0  0  0  0
 25 49  1  0  0  0  0
 28 50  1  0  0  0  0
 29 51  1  0  0  0  0
 29 52  1  0  0  0  0
 29 53  1  0  0  0  0
M  END
> <Name>
27

> <IC50[uM]>
0.68

$$$$
27
  -OEChem-05192314333D
 Structure written by MMmdl.
 53 56  0     0  0  0  0  0  0999 V2000
   -6.3855   12.3606  -12.0031 C   0  0  0  0  0  0  0  0  0  0  0  0
   -6.5214   11.8004  -10.7171 C   0  0  0  0  0  0  0  0  0  0  0  0
   -7.6991   10.5797  -13.0384 C   0  0  0  0  0  0  0  0  0  0  0  0
   -6.9626   11.7779  -13.1031 C   0  0  0  0  0  0  0  0  0  0  0  0
   -7.8238   10.0198  -11.7523 C   0  0  0  0  0  0  0  0  0  0  0  0
   -7.2557   10.6213  -10.5956 C   0  0  0  0  0  0  0  0  0  0  0  0
   -7.6268    9.7501   -9.5073 C   0  0  0  0  0  0  0  0  0  0  0  0
   -8.3057    8.7491   -9.9816 N   0  0  0  0  0  0  0  0  0  0  0  0
   -8.4330    8.8776  -11.2917 N   0  0  0  0  0  0  0  0  0  0  0  0
   -7.3352    9.8817   -8.0196 C   0  0  0  0  0  0  0  0  0  0  0  0
   -5.6205   13.5372  -12.2095 N   0  0  0  0  0  0  0  0  0  0  0  0
   -5.9727   10.4835   -7.7324 C   0  0  0  0  0  0  0  0  0  0  0  0
   -5.8611   11.7523   -7.1657 C   0  0  0  0  0  0  0  0  0  0  0  0
   -4.5946   12.2988   -6.9068 C   0  0  0  0  0  0  0  0  0  0  0  0
   -3.4432   11.5806   -7.2147 C   0  0  0  0  0  0  0  0  0  0  0  0
   -3.5570   10.3109   -7.7899 C   0  0  0  0  0  0  0  0  0  0  0  0
   -4.8253    9.7663   -8.0483 C   0  0  0  0  0  0  0  0  0  0  0  0
   -2.0926   12.1556   -6.9444 C   0  0  0  0  0  0  0  0  0  0  0  0
   -1.7338   13.4204   -6.4594 C   0  0  0  0  0  0  0  0  0  0  0  0
   -0.4064   13.4584   -6.4114 N   0  0  0  0  0  0  0  0  0  0  0  0
    0.1793   12.3493   -6.7865 N   0  0  0  0  0  0  0  0  0  0  0  0
   -0.7954   11.5387   -7.1512 C   0  0  0  0  0  0  0  0  0  0  0  0
    0.4205   14.5767   -6.0073 C   0  0  0  0  0  0  0  0  0  0  0  0
   -4.6894   13.8945  -11.1046 C   0  0  0  0  0  0  0  0  0  0  0  0
   -3.7822   15.1171  -11.3990 C   0  0  0  0  0  0  0  0  0  0  0  0
   -2.3310   14.9579  -11.2532 N   0  0  0  0  0  0  0  0  0  0  0  0
   -1.8099   14.4326  -10.1320 C   0  0  0  0  0  0  0  0  0  0  0  0
   -2.5019   14.0442   -9.2076 O   0  0  0  0  0  0  0  0  0  0  0  0
   -0.2869   14.3494  -10.0364 C   0  0  0  0  0  0  0  0  0  0  0  0
   -6.0716   12.2689   -9.8542 H   0  0  0  0  0  0  0  0  0  0  0  0
   -8.1374   10.1224  -13.9131 H   0  0  0  0  0  0  0  0  0  0  0  0
   -7.6459   12.5314  -13.5218 H   0  0  0  0  0  0  0  0  0  0  0  0
   -6.1429   11.5918  -13.8126 H   0  0  0  0  0  0  0  0  0  0  0  0
   -8.1046   10.5248   -7.5674 H   0  0  0  0  0  0  0  0  0  0  0  0
   -7.3794    8.8814   -7.5641 H   0  0  0  0  0  0  0  0  0  0  0  0
   -5.0791   13.4115  -13.0408 H   0  0  0  0  0  0  0  0  0  0  0  0
   -6.7507   12.3156   -6.9255 H   0  0  0  0  0  0  0  0  0  0  0  0
   -4.5132   13.2816   -6.4664 H   0  0  0  0  0  0  0  0  0  0  0  0
   -2.6683    9.7485   -8.0357 H   0  0  0  0  0  0  0  0  0  0  0  0
   -4.9092    8.7863   -8.4943 H   0  0  0  0  0  0  0  0  0  0  0  0
   -2.4090   14.2148   -6.1776 H   0  0  0  0  0  0  0  0  0  0  0  0
   -0.6475   10.5464   -7.5511 H   0  0  0  0  0  0  0  0  0  0  0  0
    1.4812   14.2962   -6.0855 H   0  0  0  0  0  0  0  0  0  0  0  0
    0.2196   15.4369   -6.6628 H   0  0  0  0  0  0  0  0  0  0  0  0
    0.1886   14.8468   -4.9665 H   0  0  0  0  0  0  0  0  0  0  0  0
   -5.2882   14.1185  -10.2095 H   0  0  0  0  0  0  0  0  0  0  0  0
   -4.0431   13.0269  -10.9057 H   0  0  0  0  0  0  0  0  0  0  0  0
   -3.9735   15.4217  -12.4385 H   0  0  0  0  0  0  0  0  0  0  0  0
   -4.0914   15.9235  -10.7178 H   0  0  0  0  0  0  0  0  0  0  0  0
   -1.9457   13.7098   -8.5138 H   0  0  0  0  0  0  0  0  0  0  0  0
   -0.0034   13.9020   -9.0723 H   0  0  0  0  0  0  0  0  0  0  0  0
    0.0984   13.7264  -10.8570 H   0  0  0  0  0  0  0  0  0  0  0  0
    0.1408   15.3601  -10.1114 H   0  0  0  0  0  0  0  0  0  0  0  0
  1  2  2  0  0  0  0
  1  4  1  0  0  0  0
  1 11  1  0  0  0  0
  2  6  1  0  0  0  0
  3  4  1  0  0  0  0
  3  5  2  0  0  0  0
  5  6  1  0  0  0  0
  5  9  1  0  0  0  0
  6  7  2  0  0  0  0
  7  8  1  0  0  0  0
  7 10  1  0  0  0  0
  8  9  2  0  0  0  0
 10 12  1  0  0  0  0
 11 24  1  0  0  0  0
 12 13  2  0  0  0  0
 12 17  1  0  0  0  0
 13 14  1  0  0  0  0
 14 15  2  0  0  0  0
 15 16  1  0  0  0  0
 15 18  1  0  0  0  0
 16 17  2  0  0  0  0
 18 19  2  0  0  0  0
 18 22  1  0  0  0  0
 19 20  1  0  0  0  0
 20 21  1  0  0  0  0
 20 23  1  0  0  0  0
 21 22  2  0  0  0  0
 24 25  1  0  0  0  0
 25 26  1  0  0  0  0
 26 27  2  0  0  0  0
 27 28  1  0  0  0  0
 27 29  1  0  0  0  0
  2 30  1  0  0  0  0
  3 31  1  0  0  0  0
  4 32  1  0  0  0  0
  4 33  1  0  0  0  0
 10 34  1  0  0  0  0
 10 35  1  0  0  0  0
 11 36  1  0  0  0  0
 13 37  1  0  0  0  0
 14 38  1  0  0  0  0
 16 39  1  0  0  0  0
 17 40  1  0  0  0  0
 19 41  1  0  0  0  0
 22 42  1  0  0  0  0
 23 43  1  0  0  0  0
 23 44  1  0  0  0  0
 23 45  1  0  0  0  0
 24 46  1  0  0  0  0
 24 47  1  0  0  0  0
 25 48  1  0  0  0  0
 25 49  1  0  0  0  0
 28 50  1  0  0  0  0
 29 51  1  0  0  0  0
 29 52  1  0  0  0  0
 29 53  1  0  0  0  0
M  END
> <Name>
27

> <IC50[uM]>
0.68

$$$$
27
  -OEChem-05192314333D
 Structure written by MMmdl.
 53 56  0     0  0  0  0  0  0999 V2000
   -6.3855   12.3606  -12.0031 C   0  0  0  0  0  0  0  0  0  0  0  0
   -6.5214   11.8004  -10.7171 C   0  0  0  0  0  0  0  0  0  0  0  0
   -7.6991   10.5797  -13.0384 C   0  0  0  0  0  0  0  0  0  0  0  0
   -6.9626   11.7779  -13.1031 C   0  0  0  0  0  0  0  0  0  0  0  0
   -7.8238   10.0198  -11.7523 C   0  0  0  0  0  0  0  0  0  0  0  0
   -7.2557   10.6213  -10.5956 C   0  0  0  0  0  0  0  0  0  0  0  0
   -7.6268    9.7501   -9.5073 C   0  0  0  0  0  0  0  0  0  0  0  0
   -8.3057    8.7491   -9.9816 N   0  0  0  0  0  0  0  0  0  0  0  0
   -8.4330    8.8776  -11.2917 N   0  0  0  0  0  0  0  0  0  0  0  0
   -7.3352    9.8817   -8.0196 C   0  0  0  0  0  0  0  0  0  0  0  0
   -5.6205   13.5372  -12.2095 N   0  0  0  0  0  0  0  0  0  0  0  0
   -5.9727   10.4835   -7.7324 C   0  0  0  0  0  0  0  0  0  0  0  0
   -5.8611   11.7523   -7.1657 C   0  0  0  0  0  0  0  0  0  0  0  0
   -4.5946   12.2988   -6.9068 C   0  0  0  0  0  0  0  0  0  0  0  0
   -3.4432   11.5806   -7.2147 C   0  0  0  0  0  0  0  0  0  0  0  0
   -3.5570   10.3109   -7.7899 C   0  0  0  0  0  0  0  0  0  0  0  0
   -4.8253    9.7663   -8.0483 C   0  0  0  0  0  0  0  0  0  0  0  0
   -2.0926   12.1556   -6.9444 C   0  0  0  0  0  0  0  0  0  0  0  0
   -1.7338   13.4204   -6.4594 C   0  0  0  0  0  0  0  0  0  0  0  0
   -0.4064   13.4584   -6.4114 N   0  0  0  0  0  0  0  0  0  0  0  0
    0.1793   12.3493   -6.7865 N   0  0  0  0  0  0  0  0  0  0  0  0
   -0.7954   11.5387   -7.1512 C   0  0  0  0  0  0  0  0  0  0  0  0
    0.4205   14.5767   -6.0073 C   0  0  0  0  0  0  0  0  0  0  0  0
   -4.6894   13.8945  -11.1046 C   0  0  0  0  0  0  0  0  0  0  0  0
   -3.7822   15.1171  -11.3990 C   0  0  0  0  0  0  0  0  0  0  0  0
   -2.3310   14.9579  -11.2532 N   0  0  0  0  0  0  0  0  0  0  0  0
   -1.8099   14.4326  -10.1320 C   0  0  0  0  0  0  0  0  0  0  0  0
   -2.5019   14.0442   -9.2076 O   0  0  0  0  0  0  0  0  0  0  0  0
   -0.2869   14.3494  -10.0364 C   0  0  0  0  0  0  0  0  0  0  0  0
   -5.5086   11.5965  -10.3394 H   0  0  0  0  0  0  0  0  0  0  0  0
   -7.0053   12.5553  -10.0799 H   0  0  0  0  0  0  0  0  0  0  0  0
   -8.1374   10.1224  -13.9131 H   0  0  0  0  0  0  0  0  0  0  0  0
   -6.8466   12.2604  -14.0624 H   0  0  0  0  0  0  0  0  0  0  0  0
   -8.1046   10.5248   -7.5674 H   0  0  0  0  0  0  0  0  0  0  0  0
   -7.3794    8.8814   -7.5641 H   0  0  0  0  0  0  0  0  0  0  0  0
   -5.0791   13.4115  -13.0408 H   0  0  0  0  0  0  0  0  0  0  0  0
   -6.7507   12.3156   -6.9255 H   0  0  0  0  0  0  0  0  0  0  0  0
   -4.5132   13.2816   -6.4664 H   0  0  0  0  0  0  0  0  0  0  0  0
   -2.6683    9.7485   -8.0357 H   0  0  0  0  0  0  0  0  0  0  0  0
   -4.9092    8.7863   -8.4943 H   0  0  0  0  0  0  0  0  0  0  0  0
   -2.4090   14.2148   -6.1776 H   0  0  0  0  0  0  0  0  0  0  0  0
   -0.6475   10.5464   -7.5511 H   0  0  0  0  0  0  0  0  0  0  0  0
    1.4812   14.2962   -6.0855 H   0  0  0  0  0  0  0  0  0  0  0  0
    0.2196   15.4369   -6.6628 H   0  0  0  0  0  0  0  0  0  0  0  0
    0.1886   14.8468   -4.9665 H   0  0  0  0  0  0  0  0  0  0  0  0
   -5.2882   14.1185  -10.2095 H   0  0  0  0  0  0  0  0  0  0  0  0
   -4.0431   13.0269  -10.9057 H   0  0  0  0  0  0  0  0  0  0  0  0
   -3.9735   15.4217  -12.4385 H   0  0  0  0  0  0  0  0  0  0  0  0
   -4.0914   15.9235  -10.7178 H   0  0  0  0  0  0  0  0  0  0  0  0
   -1.9457   13.7098   -8.5138 H   0  0  0  0  0  0  0  0  0  0  0  0
   -0.0034   13.9020   -9.0723 H   0  0  0  0  0  0  0  0  0  0  0  0
    0.0984   13.7264  -10.8570 H   0  0  0  0  0  0  0  0  0  0  0  0
    0.1408   15.3601  -10.1114 H   0  0  0  0  0  0  0  0  0  0  0  0
  1  2  1  0  0  0  0
  1  4  2  0  0  0  0
  1 11  1  0  0  0  0
  2  6  1  0  0  0  0
  3  4  1  0  0  0  0
  3  5  2  0  0  0  0
  5  6  1  0  0  0  0
  5  9  1  0  0  0  0
  6  7  2  0  0  0  0
  7  8  1  0  0  0  0
  7 10  1  0  0  0  0
  8  9  2  0  0  0  0
 10 12  1  0  0  0  0
 11 24  1  0  0  0  0
 12 13  2  0  0  0  0
 12 17  1  0  0  0  0
 13 14  1  0  0  0  0
 14 15  2  0  0  0  0
 15 16  1  0  0  0  0
 15 18  1  0  0  0  0
 16 17  2  0  0  0  0
 18 19  2  0  0  0  0
 18 22  1  0  0  0  0
 19 20  1  0  0  0  0
 20 21  1  0  0  0  0
 20 23  1  0  0  0  0
 21 22  2  0  0  0  0
 24 25  1  0  0  0  0
 25 26  1  0  0  0  0
 26 27  2  0  0  0  0
 27 28  1  0  0  0  0
 27 29  1  0  0  0  0
  2 30  1  0  0  0  0
  2 31  1  0  0  0  0
  3 32  1  0  0  0  0
  4 33  1  0  0  0  0
 10 34  1  0  0  0  0
 10 35  1  0  0  0  0
 11 36  1  0  0  0  0
 13 37  1  0  0  0  0
 14 38  1  0  0  0  0
 16 39  1  0  0  0  0
 17 40  1  0  0  0  0
 19 41  1  0  0  0  0
 22 42  1  0  0  0  0
 23 43  1  0  0  0  0
 23 44  1  0  0  0  0
 23 45  1  0  0  0  0
 24 46  1  0  0  0  0
 24 47  1  0  0  0  0
 25 48  1  0  0  0  0
 25 49  1  0  0  0  0
 28 50  1  0  0  0  0
 29 51  1  0  0  0  0
 29 52  1  0  0  0  0
 29 53  1  0  0  0  0
M  END
> <Name>
27

> <IC50[uM]>
0.68

$$$$
27
  -OEChem-05192314333D
 Structure written by MMmdl.
 53 56  0     1  0  0  0  0  0999 V2000
   -6.3855   12.3606  -12.0031 C   0  0  0  0  0  0  0  0  0  0  0  0
   -6.5214   11.8004  -10.7171 C   0  0  0  0  0  0  0  0  0  0  0  0
   -7.6991   10.5797  -13.0384 C   0  0  0  0  0  0  0  0  0  0  0  0
   -6.9626   11.7779  -13.1031 C   0  0  0  0  0  0  0  0  0  0  0  0
   -7.8238   10.0198  -11.7523 C   0  0  0  0  0  0  0  0  0  0  0  0
   -7.2557   10.6213  -10.5956 C   0  0  3  0  0  0  0  0  0  0  0  0
   -7.6268    9.7501   -9.5073 C   0  0  0  0  0  0  0  0  0  0  0  0
   -8.3057    8.7491   -9.9816 N   0  0  0  0  0  0  0  0  0  0  0  0
   -8.4330    8.8776  -11.2917 N   0  0  0  0  0  0  0  0  0  0  0  0
   -7.3352    9.8817   -8.0196 C   0  0  0  0  0  0  0  0  0  0  0  0
   -5.6205   13.5372  -12.2095 N   0  0  0  0  0  0  0  0  0  0  0  0
   -5.9727   10.4835   -7.7324 C   0  0  0  0  0  0  0  0  0  0  0  0
   -5.8611   11.7523   -7.1657 C   0  0  0  0  0  0  0  0  0  0  0  0
   -4.5946   12.2988   -6.9068 C   0  0  0  0  0  0  0  0  0  0  0  0
   -3.4432   11.5806   -7.2147 C   0  0  0  0  0  0  0  0  0  0  0  0
   -3.5570   10.3109   -7.7899 C   0  0  0  0  0  0  0  0  0  0  0  0
   -4.8253    9.7663   -8.0483 C   0  0  0  0  0  0  0  0  0  0  0  0
   -2.0926   12.1556   -6.9444 C   0  0  0  0  0  0  0  0  0  0  0  0
   -1.7338   13.4204   -6.4594 C   0  0  0  0  0  0  0  0  0  0  0  0
   -0.4064   13.4584   -6.4114 N   0  0  0  0  0  0  0  0  0  0  0  0
    0.1793   12.3493   -6.7865 N   0  0  0  0  0  0  0  0  0  0  0  0
   -0.7954   11.5387   -7.1512 C   0  0  0  0  0  0  0  0  0  0  0  0
    0.4205   14.5767   -6.0073 C   0  0  0  0  0  0  0  0  0  0  0  0
   -4.6894   13.8945  -11.1046 C   0  0  0  0  0  0  0  0  0  0  0  0
   -3.7822   15.1171  -11.3990 C   0  0  0  0  0  0  0  0  0  0  0  0
   -2.3310   14.9579  -11.2532 N   0  0  0  0  0  0  0  0  0  0  0  0
   -1.8099   14.4326  -10.1320 C   0  0  0  0  0  0  0  0  0  0  0  0
   -2.5019   14.0442   -9.2076 O   0  0  0  0  0  0  0  0  0  0  0  0
   -0.2869   14.3494  -10.0364 C   0  0  0  0  0  0  0  0  0  0  0  0
   -6.0716   12.2689   -9.8542 H   0  0  0  0  0  0  0  0  0  0  0  0
   -8.1374   10.1224  -13.9131 H   0  0  0  0  0  0  0  0  0  0  0  0
   -6.8466   12.2604  -14.0624 H   0  0  0  0  0  0  0  0  0  0  0  0
   -8.1751   11.2060  -10.4447 H   0  0  0  0  0  0  0  0  0  0  0  0
   -8.6759    7.9956   -9.4383 H   0  0  0  0  0  0  0  0  0  0  0  0
   -8.0269    9.5780   -7.2478 H   0  0  0  0  0  0  0  0  0  0  0  0
   -5.0791   13.4115  -13.0408 H   0  0  0  0  0  0  0  0  0  0  0  0
   -6.7507   12.3156   -6.9255 H   0  0  0  0  0  0  0  0  0  0  0  0
   -4.5132   13.2816   -6.4664 H   0  0  0  0  0  0  0  0  0  0  0  0
   -2.6683    9.7485   -8.0357 H   0  0  0  0  0  0  0  0  0  0  0  0
   -4.9092    8.7863   -8.4943 H   0  0  0  0  0  0  0  0  0  0  0  0
   -2.4090   14.2148   -6.1776 H   0  0  0  0  0  0  0  0  0  0  0  0
   -0.6475   10.5464   -7.5511 H   0  0  0  0  0  0  0  0  0  0  0  0
    1.4812   14.2962   -6.0855 H   0  0  0  0  0  0  0  0  0  0  0  0
    0.2196   15.4369   -6.6628 H   0  0  0  0  0  0  0  0  0  0  0  0
    0.1886   14.8468   -4.9665 H   0  0  0  0  0  0  0  0  0  0  0  0
   -5.2882   14.1185  -10.2095 H   0  0  0  0  0  0  0  0  0  0  0  0
   -4.0431   13.0269  -10.9057 H   0  0  0  0  0  0  0  0  0  0  0  0
   -3.9735   15.4217  -12.4385 H   0  0  0  0  0  0  0  0  0  0  0  0
   -4.0914   15.9235  -10.7178 H   0  0  0  0  0  0  0  0  0  0  0  0
   -1.9457   13.7098   -8.5138 H   0  0  0  0  0  0  0  0  0  0  0  0
   -0.0034   13.9020   -9.0723 H   0  0  0  0  0  0  0  0  0  0  0  0
    0.0984   13.7264  -10.8570 H   0  0  0  0  0  0  0  0  0  0  0  0
    0.1408   15.3601  -10.1114 H   0  0  0  0  0  0  0  0  0  0  0  0
  1  2  2  0  0  0  0
  1  4  1  0  0  0  0
  1 11  1  0  0  0  0
  2  6  1  0  0  0  0
  3  4  2  0  0  0  0
  3  5  1  0  0  0  0
  5  6  1  0  0  0  0
  5  9  2  0  0  0  0
  6  7  1  0  0  0  0
  7  8  1  0  0  0  0
  7 10  2  3  0  0  0
  8  9  1  0  0  0  0
 10 12  1  0  0  0  0
 11 24  1  0  0  0  0
 12 13  2  0  0  0  0
 12 17  1  0  0  0  0
 13 14  1  0  0  0  0
 14 15  2  0  0  0  0
 15 16  1  0  0  0  0
 15 18  1  0  0  0  0
 16 17  2  0  0  0  0
 18 19  2  0  0  0  0
 18 22  1  0  0  0  0
 19 20  1  0  0  0  0
 20 21  1  0  0  0  0
 20 23  1  0  0  0  0
 21 22  2  0  0  0  0
 24 25  1  0  0  0  0
 25 26  1  0  0  0  0
 26 27  2  0  0  0  0
 27 28  1  0  0  0  0
 27 29  1  0  0  0  0
  2 30  1  0  0  0  0
  3 31  1  0  0  0  0
  4 32  1  0  0  0  0
  6 33  1  0  0  0  0
  8 34  1  0  0  0  0
 10 35  1  0  0  0  0
 11 36  1  0  0  0  0
 13 37  1  0  0  0  0
 14 38  1  0  0  0  0
 16 39  1  0  0  0  0
 17 40  1  0  0  0  0
 19 41  1  0  0  0  0
 22 42  1  0  0  0  0
 23 43  1  0  0  0  0
 23 44  1  0  0  0  0
 23 45  1  0  0  0  0
 24 46  1  0  0  0  0
 24 47  1  0  0  0  0
 25 48  1  0  0  0  0
 25 49  1  0  0  0  0
 28 50  1  0  0  0  0
 29 51  1  0  0  0  0
 29 52  1  0  0  0  0
 29 53  1  0  0  0  0
M  END
> <Name>
27

> <IC50[uM]>
0.68

$$$$
27
  -OEChem-05192314333D
 Structure written by MMmdl.
 53 56  0     1  0  0  0  0  0999 V2000
   -6.3855   12.3606  -12.0031 C   0  0  0  0  0  0  0  0  0  0  0  0
   -6.5214   11.8004  -10.7171 C   0  0  0  0  0  0  0  0  0  0  0  0
   -7.6991   10.5797  -13.0384 C   0  0  0  0  0  0  0  0  0  0  0  0
   -6.9626   11.7779  -13.1031 C   0  0  0  0  0  0  0  0  0  0  0  0
   -7.8238   10.0198  -11.7523 C   0  0  3  0  0  0  0  0  0  0  0  0
   -7.2557   10.6213  -10.5956 C   0  0  0  0  0  0  0  0  0  0  0  0
   -7.6268    9.7501   -9.5073 C   0  0  0  0  0  0  0  0  0  0  0  0
   -8.3057    8.7491   -9.9816 N   0  0  0  0  0  0  0  0  0  0  0  0
   -8.4330    8.8776  -11.2917 N   0  0  0  0  0  0  0  0  0  0  0  0
   -7.3352    9.8817   -8.0196 C   0  0  0  0  0  0  0  0  0  0  0  0
   -5.6205   13.5372  -12.2095 N   0  0  0  0  0  0  0  0  0  0  0  0
   -5.9727   10.4835   -7.7324 C   0  0  0  0  0  0  0  0  0  0  0  0
   -5.8611   11.7523   -7.1657 C   0  0  0  0  0  0  0  0  0  0  0  0
   -4.5946   12.2988   -6.9068 C   0  0  0  0  0  0  0  0  0  0  0  0
   -3.4432   11.5806   -7.2147 C   0  0  0  0  0  0  0  0  0  0  0  0
   -3.5570   10.3109   -7.7899 C   0  0  0  0  0  0  0  0  0  0  0  0
   -4.8253    9.7663   -8.0483 C   0  0  0  0  0  0  0  0  0  0  0  0
   -2.0926   12.1556   -6.9444 C   0  0  0  0  0  0  0  0  0  0  0  0
   -1.7338   13.4204   -6.4594 C   0  0  0  0  0  0  0  0  0  0  0  0
   -0.4064   13.4584   -6.4114 N   0  0  0  0  0  0  0  0  0  0  0  0
    0.1793   12.3493   -6.7865 N   0  0  0  0  0  0  0  0  0  0  0  0
   -0.7954   11.5387   -7.1512 C   0  0  0  0  0  0  0  0  0  0  0  0
    0.4205   14.5767   -6.0073 C   0  0  0  0  0  0  0  0  0  0  0  0
   -4.6894   13.8945  -11.1046 C   0  0  0  0  0  0  0  0  0  0  0  0
   -3.7822   15.1171  -11.3990 C   0  0  0  0  0  0  0  0  0  0  0  0
   -2.3310   14.9579  -11.2532 N   0  0  0  0  0  0  0  0  0  0  0  0
   -1.8099   14.4326  -10.1320 C   0  0  0  0  0  0  0  0  0  0  0  0
   -2.5019   14.0442   -9.2076 O   0  0  0  0  0  0  0  0  0  0  0  0
   -0.2869   14.3494  -10.0364 C   0  0  0  0  0  0  0  0  0  0  0  0
   -6.0716   12.2689   -9.8542 H   0  0  0  0  0  0  0  0  0  0  0  0
   -8.1374   10.1224  -13.9131 H   0  0  0  0  0  0  0  0  0  0  0  0
   -6.8466   12.2604  -14.0624 H   0  0  0  0  0  0  0  0  0  0  0  0
   -8.7543   10.5845  -11.5930 H   0  0  0  0  0  0  0  0  0  0  0  0
   -7.8268    7.8956   -9.7763 H   0  0  0  0  0  0  0  0  0  0  0  0
   -9.4057    8.9143  -11.5206 H   0  0  0  0  0  0  0  0  0  0  0  0
   -8.0269    9.5780   -7.2478 H   0  0  0  0  0  0  0  0  0  0  0  0
   -6.7507   12.3156   -6.9255 H   0  0  0  0  0  0  0  0  0  0  0  0
   -4.5132   13.2816   -6.4664 H   0  0  0  0  0  0  0  0  0  0  0  0
   -2.6683    9.7485   -8.0357 H   0  0  0  0  0  0  0  0  0  0  0  0
   -4.9092    8.7863   -8.4943 H   0  0  0  0  0  0  0  0  0  0  0  0
   -2.4090   14.2148   -6.1776 H   0  0  0  0  0  0  0  0  0  0  0  0
   -0.6475   10.5464   -7.5511 H   0  0  0  0  0  0  0  0  0  0  0  0
    1.4812   14.2962   -6.0855 H   0  0  0  0  0  0  0  0  0  0  0  0
    0.2196   15.4369   -6.6628 H   0  0  0  0  0  0  0  0  0  0  0  0
    0.1886   14.8468   -4.9665 H   0  0  0  0  0  0  0  0  0  0  0  0
   -5.2882   14.1185  -10.2095 H   0  0  0  0  0  0  0  0  0  0  0  0
   -4.0431   13.0269  -10.9057 H   0  0  0  0  0  0  0  0  0  0  0  0
   -3.9735   15.4217  -12.4385 H   0  0  0  0  0  0  0  0  0  0  0  0
   -4.0914   15.9235  -10.7178 H   0  0  0  0  0  0  0  0  0  0  0  0
   -1.9457   13.7098   -8.5138 H   0  0  0  0  0  0  0  0  0  0  0  0
   -0.0034   13.9020   -9.0723 H   0  0  0  0  0  0  0  0  0  0  0  0
    0.0984   13.7264  -10.8570 H   0  0  0  0  0  0  0  0  0  0  0  0
    0.1408   15.3601  -10.1114 H   0  0  0  0  0  0  0  0  0  0  0  0
  1  2  1  0  0  0  0
  1  4  1  0  0  0  0
  1 11  2  0  0  0  0
  2  6  2  0  0  0  0
  3  4  2  0  0  0  0
  3  5  1  0  0  0  0
  5  6  1  0  0  0  0
  5  9  1  0  0  0  0
  6  7  1  0  0  0  0
  7  8  1  0  0  0  0
  7 10  2  3  0  0  0
  8  9  1  0  0  0  0
 10 12  1  0  0  0  0
 11 24  1  0  0  0  0
 12 13  2  0  0  0  0
 12 17  1  0  0  0  0
 13 14  1  0  0  0  0
 14 15  2  0  0  0  0
 15 16  1  0  0  0  0
 15 18  1  0  0  0  0
 16 17  2  0  0  0  0
 18 19  2  0  0  0  0
 18 22  1  0  0  0  0
 19 20  1  0  0  0  0
 20 21  1  0  0  0  0
 20 23  1  0  0  0  0
 21 22  2  0  0  0  0
 24 25  1  0  0  0  0
 25 26  1  0  0  0  0
 26 27  2  0  0  0  0
 27 28  1  0  0  0  0
 27 29  1  0  0  0  0
  2 30  1  0  0  0  0
  3 31  1  0  0  0  0
  4 32  1  0  0  0  0
  5 33  1  0  0  0  0
  8 34  1  0  0  0  0
  9 35  1  0  0  0  0
 10 36  1  0  0  0  0
 13 37  1  0  0  0  0
 14 38  1  0  0  0  0
 16 39  1  0  0  0  0
 17 40  1  0  0  0  0
 19 41  1  0  0  0  0
 22 42  1  0  0  0  0
 23 43  1  0  0  0  0
 23 44  1  0  0  0  0
 23 45  1  0  0  0  0
 24 46  1  0  0  0  0
 24 47  1  0  0  0  0
 25 48  1  0  0  0  0
 25 49  1  0  0  0  0
 28 50  1  0  0  0  0
 29 51  1  0  0  0  0
 29 52  1  0  0  0  0
 29 53  1  0  0  0  0
M  END
> <Name>
27

> <IC50[uM]>
0.68

$$$$
27
  -OEChem-05192314333D
 Structure written by MMmdl.
 53 56  0     0  0  0  0  0  0999 V2000
   -6.3855   12.3606  -12.0031 C   0  0  0  0  0  0  0  0  0  0  0  0
   -6.5214   11.8004  -10.7171 C   0  0  0  0  0  0  0  0  0  0  0  0
   -7.6991   10.5797  -13.0384 C   0  0  0  0  0  0  0  0  0  0  0  0
   -6.9626   11.7779  -13.1031 C   0  0  0  0  0  0  0  0  0  0  0  0
   -7.8238   10.0198  -11.7523 C   0  0  0  0  0  0  0  0  0  0  0  0
   -7.2557   10.6213  -10.5956 C   0  0  0  0  0  0  0  0  0  0  0  0
   -7.6268    9.7501   -9.5073 C   0  0  0  0  0  0  0  0  0  0  0  0
   -8.3057    8.7491   -9.9816 N   0  0  0  0  0  0  0  0  0  0  0  0
   -8.4330    8.8776  -11.2917 N   0  0  0  0  0  0  0  0  0  0  0  0
   -7.3352    9.8817   -8.0196 C   0  0  0  0  0  0  0  0  0  0  0  0
   -5.6205   13.5372  -12.2095 N   0  0  0  0  0  0  0  0  0  0  0  0
   -5.9727   10.4835   -7.7324 C   0  0  0  0  0  0  0  0  0  0  0  0
   -5.8611   11.7523   -7.1657 C   0  0  0  0  0  0  0  0  0  0  0  0
   -4.5946   12.2988   -6.9068 C   0  0  0  0  0  0  0  0  0  0  0  0
   -3.4432   11.5806   -7.2147 C   0  0  0  0  0  0  0  0  0  0  0  0
   -3.5570   10.3109   -7.7899 C   0  0  0  0  0  0  0  0  0  0  0  0
   -4.8253    9.7663   -8.0483 C   0  0  0  0  0  0  0  0  0  0  0  0
   -2.0926   12.1556   -6.9444 C   0  0  0  0  0  0  0  0  0  0  0  0
   -1.7338   13.4204   -6.4594 C   0  0  0  0  0  0  0  0  0  0  0  0
   -0.4064   13.4584   -6.4114 N   0  0  0  0  0  0  0  0  0  0  0  0
    0.1793   12.3493   -6.7865 N   0  0  0  0  0  0  0  0  0  0  0  0
   -0.7954   11.5387   -7.1512 C   0  0  0  0  0  0  0  0  0  0  0  0
    0.4205   14.5767   -6.0073 C   0  0  0  0  0  0  0  0  0  0  0  0
   -4.6894   13.8945  -11.1046 C   0  0  0  0  0  0  0  0  0  0  0  0
   -3.7822   15.1171  -11.3990 C   0  0  0  0  0  0  0  0  0  0  0  0
   -2.3310   14.9579  -11.2532 N   0  0  0  0  0  0  0  0  0  0  0  0
   -1.8099   14.4326  -10.1320 C   0  0  0  0  0  0  0  0  0  0  0  0
   -2.5019   14.0442   -9.2076 O   0  0  0  0  0  0  0  0  0  0  0  0
   -0.2869   14.3494  -10.0364 C   0  0  0  0  0  0  0  0  0  0  0  0
   -6.0716   12.2689   -9.8542 H   0  0  0  0  0  0  0  0  0  0  0  0
   -8.1374   10.1224  -13.9131 H   0  0  0  0  0  0  0  0  0  0  0  0
   -7.6459   12.5314  -13.5218 H   0  0  0  0  0  0  0  0  0  0  0  0
   -6.1429   11.5918  -13.8126 H   0  0  0  0  0  0  0  0  0  0  0  0
   -7.8268    7.8956   -9.7763 H   0  0  0  0  0  0  0  0  0  0  0  0
   -9.4057    8.9143  -11.5206 H   0  0  0  0  0  0  0  0  0  0  0  0
   -8.0269    9.5780   -7.2478 H   0  0  0  0  0  0  0  0  0  0  0  0
   -6.7507   12.3156   -6.9255 H   0  0  0  0  0  0  0  0  0  0  0  0
   -4.5132   13.2816   -6.4664 H   0  0  0  0  0  0  0  0  0  0  0  0
   -2.6683    9.7485   -8.0357 H   0  0  0  0  0  0  0  0  0  0  0  0
   -4.9092    8.7863   -8.4943 H   0  0  0  0  0  0  0  0  0  0  0  0
   -2.4090   14.2148   -6.1776 H   0  0  0  0  0  0  0  0  0  0  0  0
   -0.6475   10.5464   -7.5511 H   0  0  0  0  0  0  0  0  0  0  0  0
    1.4812   14.2962   -6.0855 H   0  0  0  0  0  0  0  0  0  0  0  0
    0.2196   15.4369   -6.6628 H   0  0  0  0  0  0  0  0  0  0  0  0
    0.1886   14.8468   -4.9665 H   0  0  0  0  0  0  0  0  0  0  0  0
   -5.2882   14.1185  -10.2095 H   0  0  0  0  0  0  0  0  0  0  0  0
   -4.0431   13.0269  -10.9057 H   0  0  0  0  0  0  0  0  0  0  0  0
   -3.9735   15.4217  -12.4385 H   0  0  0  0  0  0  0  0  0  0  0  0
   -4.0914   15.9235  -10.7178 H   0  0  0  0  0  0  0  0  0  0  0  0
   -1.9457   13.7098   -8.5138 H   0  0  0  0  0  0  0  0  0  0  0  0
   -0.0034   13.9020   -9.0723 H   0  0  0  0  0  0  0  0  0  0  0  0
    0.0984   13.7264  -10.8570 H   0  0  0  0  0  0  0  0  0  0  0  0
    0.1408   15.3601  -10.1114 H   0  0  0  0  0  0  0  0  0  0  0  0
  1  2  1  0  0  0  0
  1  4  1  0  0  0  0
  1 11  2  0  0  0  0
  2  6  2  0  0  0  0
  3  4  1  0  0  0  0
  3  5  2  0  0  0  0
  5  6  1  0  0  0  0
  5  9  1  0  0  0  0
  6  7  1  0  0  0  0
  7  8  1  0  0  0  0
  7 10  2  3  0  0  0
  8  9  1  0  0  0  0
 10 12  1  0  0  0  0
 11 24  1  0  0  0  0
 12 13  2  0  0  0  0
 12 17  1  0  0  0  0
 13 14  1  0  0  0  0
 14 15  2  0  0  0  0
 15 16  1  0  0  0  0
 15 18  1  0  0  0  0
 16 17  2  0  0  0  0
 18 19  2  0  0  0  0
 18 22  1  0  0  0  0
 19 20  1  0  0  0  0
 20 21  1  0  0  0  0
 20 23  1  0  0  0  0
 21 22  2  0  0  0  0
 24 25  1  0  0  0  0
 25 26  1  0  0  0  0
 26 27  2  0  0  0  0
 27 28  1  0  0  0  0
 27 29  1  0  0  0  0
  2 30  1  0  0  0  0
  3 31  1  0  0  0  0
  4 32  1  0  0  0  0
  4 33  1  0  0  0  0
  8 34  1  0  0  0  0
  9 35  1  0  0  0  0
 10 36  1  0  0  0  0
 13 37  1  0  0  0  0
 14 38  1  0  0  0  0
 16 39  1  0  0  0  0
 17 40  1  0  0  0  0
 19 41  1  0  0  0  0
 22 42  1  0  0  0  0
 23 43  1  0  0  0  0
 23 44  1  0  0  0  0
 23 45  1  0  0  0  0
 24 46  1  0  0  0  0
 24 47  1  0  0  0  0
 25 48  1  0  0  0  0
 25 49  1  0  0  0  0
 28 50  1  0  0  0  0
 29 51  1  0  0  0  0
 29 52  1  0  0  0  0
 29 53  1  0  0  0  0
M  END
> <Name>
27

> <IC50[uM]>
0.68

$$$$
27
  -OEChem-05192314333D
 Structure written by MMmdl.
 53 56  0     0  0  0  0  0  0999 V2000
   -6.3855   12.3606  -12.0031 C   0  0  0  0  0  0  0  0  0  0  0  0
   -6.5214   11.8004  -10.7171 C   0  0  0  0  0  0  0  0  0  0  0  0
   -7.6991   10.5797  -13.0384 C   0  0  0  0  0  0  0  0  0  0  0  0
   -6.9626   11.7779  -13.1031 C   0  0  0  0  0  0  0  0  0  0  0  0
   -7.8238   10.0198  -11.7523 C   0  0  0  0  0  0  0  0  0  0  0  0
   -7.2557   10.6213  -10.5956 C   0  0  0  0  0  0  0  0  0  0  0  0
   -7.6268    9.7501   -9.5073 C   0  0  0  0  0  0  0  0  0  0  0  0
   -8.3057    8.7491   -9.9816 N   0  0  0  0  0  0  0  0  0  0  0  0
   -8.4330    8.8776  -11.2917 N   0  0  0  0  0  0  0  0  0  0  0  0
   -7.3352    9.8817   -8.0196 C   0  0  0  0  0  0  0  0  0  0  0  0
   -5.6205   13.5372  -12.2095 N   0  0  0  0  0  0  0  0  0  0  0  0
   -5.9727   10.4835   -7.7324 C   0  0  0  0  0  0  0  0  0  0  0  0
   -5.8611   11.7523   -7.1657 C   0  0  0  0  0  0  0  0  0  0  0  0
   -4.5946   12.2988   -6.9068 C   0  0  0  0  0  0  0  0  0  0  0  0
   -3.4432   11.5806   -7.2147 C   0  0  0  0  0  0  0  0  0  0  0  0
   -3.5570   10.3109   -7.7899 C   0  0  0  0  0  0  0  0  0  0  0  0
   -4.8253    9.7663   -8.0483 C   0  0  0  0  0  0  0  0  0  0  0  0
   -2.0926   12.1556   -6.9444 C   0  0  0  0  0  0  0  0  0  0  0  0
   -1.7338   13.4204   -6.4594 C   0  0  0  0  0  0  0  0  0  0  0  0
   -0.4064   13.4584   -6.4114 N   0  0  0  0  0  0  0  0  0  0  0  0
    0.1793   12.3493   -6.7865 N   0  0  0  0  0  0  0  0  0  0  0  0
   -0.7954   11.5387   -7.1512 C   0  0  0  0  0  0  0  0  0  0  0  0
    0.4205   14.5767   -6.0073 C   0  0  0  0  0  0  0  0  0  0  0  0
   -4.6894   13.8945  -11.1046 C   0  0  0  0  0  0  0  0  0  0  0  0
   -3.7822   15.1171  -11.3990 C   0  0  0  0  0  0  0  0  0  0  0  0
   -2.3310   14.9579  -11.2532 N   0  0  0  0  0  0  0  0  0  0  0  0
   -1.8099   14.4326  -10.1320 C   0  0  0  0  0  0  0  0  0  0  0  0
   -2.5019   14.0442   -9.2076 O   0  0  0  0  0  0  0  0  0  0  0  0
   -0.2869   14.3494  -10.0364 C   0  0  0  0  0  0  0  0  0  0  0  0
   -5.5086   11.5965  -10.3394 H   0  0  0  0  0  0  0  0  0  0  0  0
   -7.0053   12.5553  -10.0799 H   0  0  0  0  0  0  0  0  0  0  0  0
   -8.1374   10.1224  -13.9131 H   0  0  0  0  0  0  0  0  0  0  0  0
   -6.8466   12.2604  -14.0624 H   0  0  0  0  0  0  0  0  0  0  0  0
   -7.8268    7.8956   -9.7763 H   0  0  0  0  0  0  0  0  0  0  0  0
   -9.4057    8.9143  -11.5206 H   0  0  0  0  0  0  0  0  0  0  0  0
   -8.0269    9.5780   -7.2478 H   0  0  0  0  0  0  0  0  0  0  0  0
   -6.7507   12.3156   -6.9255 H   0  0  0  0  0  0  0  0  0  0  0  0
   -4.5132   13.2816   -6.4664 H   0  0  0  0  0  0  0  0  0  0  0  0
   -2.6683    9.7485   -8.0357 H   0  0  0  0  0  0  0  0  0  0  0  0
   -4.9092    8.7863   -8.4943 H   0  0  0  0  0  0  0  0  0  0  0  0
   -2.4090   14.2148   -6.1776 H   0  0  0  0  0  0  0  0  0  0  0  0
   -0.6475   10.5464   -7.5511 H   0  0  0  0  0  0  0  0  0  0  0  0
    1.4812   14.2962   -6.0855 H   0  0  0  0  0  0  0  0  0  0  0  0
    0.2196   15.4369   -6.6628 H   0  0  0  0  0  0  0  0  0  0  0  0
    0.1886   14.8468   -4.9665 H   0  0  0  0  0  0  0  0  0  0  0  0
   -5.2882   14.1185  -10.2095 H   0  0  0  0  0  0  0  0  0  0  0  0
   -4.0431   13.0269  -10.9057 H   0  0  0  0  0  0  0  0  0  0  0  0
   -3.9735   15.4217  -12.4385 H   0  0  0  0  0  0  0  0  0  0  0  0
   -4.0914   15.9235  -10.7178 H   0  0  0  0  0  0  0  0  0  0  0  0
   -1.9457   13.7098   -8.5138 H   0  0  0  0  0  0  0  0  0  0  0  0
   -0.0034   13.9020   -9.0723 H   0  0  0  0  0  0  0  0  0  0  0  0
    0.0984   13.7264  -10.8570 H   0  0  0  0  0  0  0  0  0  0  0  0
    0.1408   15.3601  -10.1114 H   0  0  0  0  0  0  0  0  0  0  0  0
  1  2  1  0  0  0  0
  1  4  1  0  0  0  0
  1 11  2  0  0  0  0
  2  6  1  0  0  0  0
  3  4  2  0  0  0  0
  3  5  1  0  0  0  0
  5  6  2  0  0  0  0
  5  9  1  0  0  0  0
  6  7  1  0  0  0  0
  7  8  1  0  0  0  0
  7 10  2  3  0  0  0
  8  9  1  0  0  0  0
 10 12  1  0  0  0  0
 11 24  1  0  0  0  0
 12 13  2  0  0  0  0
 12 17  1  0  0  0  0
 13 14  1  0  0  0  0
 14 15  2  0  0  0  0
 15 16  1  0  0  0  0
 15 18  1  0  0  0  0
 16 17  2  0  0  0  0
 18 19  2  0  0  0  0
 18 22  1  0  0  0  0
 19 20  1  0  0  0  0
 20 21  1  0  0  0  0
 20 23  1  0  0  0  0
 21 22  2  0  0  0  0
 24 25  1  0  0  0  0
 25 26  1  0  0  0  0
 26 27  2  0  0  0  0
 27 28  1  0  0  0  0
 27 29  1  0  0  0  0
  2 30  1  0  0  0  0
  2 31  1  0  0  0  0
  3 32  1  0  0  0  0
  4 33  1  0  0  0  0
  8 34  1  0  0  0  0
  9 35  1  0  0  0  0
 10 36  1  0  0  0  0
 13 37  1  0  0  0  0
 14 38  1  0  0  0  0
 16 39  1  0  0  0  0
 17 40  1  0  0  0  0
 19 41  1  0  0  0  0
 22 42  1  0  0  0  0
 23 43  1  0  0  0  0
 23 44  1  0  0  0  0
 23 45  1  0  0  0  0
 24 46  1  0  0  0  0
 24 47  1  0  0  0  0
 25 48  1  0  0  0  0
 25 49  1  0  0  0  0
 28 50  1  0  0  0  0
 29 51  1  0  0  0  0
 29 52  1  0  0  0  0
 29 53  1  0  0  0  0
M  END
> <Name>
27

> <IC50[uM]>
0.68

$$$$
27
  -OEChem-05192314333D
 Structure written by MMmdl.
 53 56  0     1  0  0  0  0  0999 V2000
   -6.3855   12.3606  -12.0031 C   0  0  0  0  0  0  0  0  0  0  0  0
   -6.5214   11.8004  -10.7171 C   0  0  0  0  0  0  0  0  0  0  0  0
   -7.6991   10.5797  -13.0384 C   0  0  0  0  0  0  0  0  0  0  0  0
   -6.9626   11.7779  -13.1031 C   0  0  0  0  0  0  0  0  0  0  0  0
   -7.8238   10.0198  -11.7523 C   0  0  0  0  0  0  0  0  0  0  0  0
   -7.2557   10.6213  -10.5956 C   0  0  0  0  0  0  0  0  0  0  0  0
   -7.6268    9.7501   -9.5073 C   0  0  0  0  0  0  0  0  0  0  0  0
   -8.3057    8.7491   -9.9816 N   0  0  0  0  0  0  0  0  0  0  0  0
   -8.4330    8.8776  -11.2917 N   0  0  0  0  0  0  0  0  0  0  0  0
   -7.3352    9.8817   -8.0196 C   0  0  0  0  0  0  0  0  0  0  0  0
   -5.6205   13.5372  -12.2095 N   0  0  0  0  0  0  0  0  0  0  0  0
   -5.9727   10.4835   -7.7324 C   0  0  0  0  0  0  0  0  0  0  0  0
   -5.8611   11.7523   -7.1657 C   0  0  0  0  0  0  0  0  0  0  0  0
   -4.5946   12.2988   -6.9068 C   0  0  0  0  0  0  0  0  0  0  0  0
   -3.4432   11.5806   -7.2147 C   0  0  0  0  0  0  0  0  0  0  0  0
   -3.5570   10.3109   -7.7899 C   0  0  0  0  0  0  0  0  0  0  0  0
   -4.8253    9.7663   -8.0483 C   0  0  0  0  0  0  0  0  0  0  0  0
   -2.0926   12.1556   -6.9444 C   0  0  3  0  0  0  0  0  0  0  0  0
   -1.7338   13.4204   -6.4594 C   0  0  0  0  0  0  0  0  0  0  0  0
   -0.4064   13.4584   -6.4114 N   0  0  3  0  0  0  0  0  0  0  0  0
    0.1793   12.3493   -6.7865 N   0  0  0  0  0  0  0  0  0  0  0  0
   -0.7954   11.5387   -7.1512 C   0  0  0  0  0  0  0  0  0  0  0  0
    0.4205   14.5767   -6.0073 C   0  0  0  0  0  0  0  0  0  0  0  0
   -4.6894   13.8945  -11.1046 C   0  0  0  0  0  0  0  0  0  0  0  0
   -3.7822   15.1171  -11.3990 C   0  0  0  0  0  0  0  0  0  0  0  0
   -2.3310   14.9579  -11.2532 N   0  0  0  0  0  0  0  0  0  0  0  0
   -1.8099   14.4326  -10.1320 C   0  0  0  0  0  0  0  0  0  0  0  0
   -2.5019   14.0442   -9.2076 O   0  0  0  0  0  0  0  0  0  0  0  0
   -0.2869   14.3494  -10.0364 C   0  0  0  0  0  0  0  0  0  0  0  0
   -6.0716   12.2689   -9.8542 H   0  0  0  0  0  0  0  0  0  0  0  0
   -8.1374   10.1224  -13.9131 H   0  0  0  0  0  0  0  0  0  0  0  0
   -6.8466   12.2604  -14.0624 H   0  0  0  0  0  0  0  0  0  0  0  0
   -8.6759    7.9956   -9.4383 H   0  0  0  0  0  0  0  0  0  0  0  0
   -8.0269    9.5780   -7.2478 H   0  0  0  0  0  0  0  0  0  0  0  0
   -6.7507   12.3156   -6.9255 H   0  0  0  0  0  0  0  0  0  0  0  0
   -4.5132   13.2816   -6.4664 H   0  0  0  0  0  0  0  0  0  0  0  0
   -2.6683    9.7485   -8.0357 H   0  0  0  0  0  0  0  0  0  0  0  0
   -4.9092    8.7863   -8.4943 H   0  0  0  0  0  0  0  0  0  0  0  0
   -2.1234   11.7627   -5.9174 H   0  0  0  0  0  0  0  0  0  0  0  0
   -2.1095   14.2037   -7.1341 H   0  0  0  0  0  0  0  0  0  0  0  0
   -2.1522   13.5713   -5.4533 H   0  0  0  0  0  0  0  0  0  0  0  0
   -0.6475   10.5464   -7.5511 H   0  0  0  0  0  0  0  0  0  0  0  0
    1.4812   14.2962   -6.0855 H   0  0  0  0  0  0  0  0  0  0  0  0
    0.2196   15.4369   -6.6628 H   0  0  0  0  0  0  0  0  0  0  0  0
    0.1886   14.8468   -4.9665 H   0  0  0  0  0  0  0  0  0  0  0  0
   -5.2882   14.1185  -10.2095 H   0  0  0  0  0  0  0  0  0  0  0  0
   -4.0431   13.0269  -10.9057 H   0  0  0  0  0  0  0  0  0  0  0  0
   -3.9735   15.4217  -12.4385 H   0  0  0  0  0  0  0  0  0  0  0  0
   -4.0914   15.9235  -10.7178 H   0  0  0  0  0  0  0  0  0  0  0  0
   -1.7243   15.2430  -11.9952 H   0  0  0  0  0  0  0  0  0  0  0  0
   -0.0031   13.9147   -9.0666 H   0  0  0  0  0  0  0  0  0  0  0  0
    0.0973   13.7152  -10.8489 H   0  0  0  0  0  0  0  0  0  0  0  0
    0.1416   15.3586  -10.1252 H   0  0  0  0  0  0  0  0  0  0  0  0
  1  2  1  0  0  0  0
  1  4  1  0  0  0  0
  1 11  2  0  0  0  0
  2  6  2  0  0  0  0
  3  4  2  0  0  0  0
  3  5  1  0  0  0  0
  5  6  1  0  0  0  0
  5  9  2  0  0  0  0
  6  7  1  0  0  0  0
  7  8  1  0  0  0  0
  7 10  2  3  0  0  0
  8  9  1  0  0  0  0
 10 12  1  0  0  0  0
 11 24  1  0  0  0  0
 12 13  2  0  0  0  0
 12 17  1  0  0  0  0
 13 14  1  0  0  0  0
 14 15  2  0  0  0  0
 15 16  1  0  0  0  0
 15 18  1  0  0  0  0
 16 17  2  0  0  0  0
 18 19  1  0  0  0  0
 18 22  1  0  0  0  0
 19 20  1  0  0  0  0
 20 21  1  0  0  0  0
 20 23  1  0  0  0  0
 21 22  2  0  0  0  0
 24 25  1  0  0  0  0
 25 26  1  0  0  0  0
 26 27  1  0  0  0  0
 27 28  2  0  0  0  0
 27 29  1  0  0  0  0
  2 30  1  0  0  0  0
  3 31  1  0  0  0  0
  4 32  1  0  0  0  0
  8 33  1  0  0  0  0
 10 34  1  0  0  0  0
 13 35  1  0  0  0  0
 14 36  1  0  0  0  0
 16 37  1  0  0  0  0
 17 38  1  0  0  0  0
 18 39  1  0  0  0  0
 19 40  1  0  0  0  0
 19 41  1  0  0  0  0
 22 42  1  0  0  0  0
 23 43  1  0  0  0  0
 23 44  1  0  0  0  0
 23 45  1  0  0  0  0
 24 46  1  0  0  0  0
 24 47  1  0  0  0  0
 25 48  1  0  0  0  0
 25 49  1  0  0  0  0
 26 50  1  0  0  0  0
 29 51  1  0  0  0  0
 29 52  1  0  0  0  0
 29 53  1  0  0  0  0
M  END
> <Name>
27

> <IC50[uM]>
0.68

$$$$
27
  -OEChem-05192314333D
 Structure written by MMmdl.
 53 56  0     1  0  0  0  0  0999 V2000
   -6.3855   12.3606  -12.0031 C   0  0  0  0  0  0  0  0  0  0  0  0
   -6.5214   11.8004  -10.7171 C   0  0  0  0  0  0  0  0  0  0  0  0
   -7.6991   10.5797  -13.0384 C   0  0  0  0  0  0  0  0  0  0  0  0
   -6.9626   11.7779  -13.1031 C   0  0  0  0  0  0  0  0  0  0  0  0
   -7.8238   10.0198  -11.7523 C   0  0  0  0  0  0  0  0  0  0  0  0
   -7.2557   10.6213  -10.5956 C   0  0  0  0  0  0  0  0  0  0  0  0
   -7.6268    9.7501   -9.5073 C   0  0  0  0  0  0  0  0  0  0  0  0
   -8.3057    8.7491   -9.9816 N   0  0  0  0  0  0  0  0  0  0  0  0
   -8.4330    8.8776  -11.2917 N   0  0  0  0  0  0  0  0  0  0  0  0
   -7.3352    9.8817   -8.0196 C   0  0  0  0  0  0  0  0  0  0  0  0
   -5.6205   13.5372  -12.2095 N   0  0  0  0  0  0  0  0  0  0  0  0
   -5.9727   10.4835   -7.7324 C   0  0  0  0  0  0  0  0  0  0  0  0
   -5.8611   11.7523   -7.1657 C   0  0  0  0  0  0  0  0  0  0  0  0
   -4.5946   12.2988   -6.9068 C   0  0  0  0  0  0  0  0  0  0  0  0
   -3.4432   11.5806   -7.2147 C   0  0  0  0  0  0  0  0  0  0  0  0
   -3.5570   10.3109   -7.7899 C   0  0  0  0  0  0  0  0  0  0  0  0
   -4.8253    9.7663   -8.0483 C   0  0  0  0  0  0  0  0  0  0  0  0
   -2.0926   12.1556   -6.9444 C   0  0  0  0  0  0  0  0  0  0  0  0
   -1.7338   13.4204   -6.4594 C   0  0  0  0  0  0  0  0  0  0  0  0
   -0.4064   13.4584   -6.4114 N   0  0  3  0  0  0  0  0  0  0  0  0
    0.1793   12.3493   -6.7865 N   0  0  0  0  0  0  0  0  0  0  0  0
   -0.7954   11.5387   -7.1512 C   0  0  0  0  0  0  0  0  0  0  0  0
    0.4205   14.5767   -6.0073 C   0  0  0  0  0  0  0  0  0  0  0  0
   -4.6894   13.8945  -11.1046 C   0  0  0  0  0  0  0  0  0  0  0  0
   -3.7822   15.1171  -11.3990 C   0  0  0  0  0  0  0  0  0  0  0  0
   -2.3310   14.9579  -11.2532 N   0  0  0  0  0  0  0  0  0  0  0  0
   -1.8099   14.4326  -10.1320 C   0  0  0  0  0  0  0  0  0  0  0  0
   -2.5019   14.0442   -9.2076 O   0  0  0  0  0  0  0  0  0  0  0  0
   -0.2869   14.3494  -10.0364 C   0  0  0  0  0  0  0  0  0  0  0  0
   -5.5086   11.5965  -10.3394 H   0  0  0  0  0  0  0  0  0  0  0  0
   -7.0053   12.5553  -10.0799 H   0  0  0  0  0  0  0  0  0  0  0  0
   -8.1374   10.1224  -13.9131 H   0  0  0  0  0  0  0  0  0  0  0  0
   -6.8466   12.2604  -14.0624 H   0  0  0  0  0  0  0  0  0  0  0  0
   -8.6759    7.9956   -9.4383 H   0  0  0  0  0  0  0  0  0  0  0  0
   -8.0269    9.5780   -7.2478 H   0  0  0  0  0  0  0  0  0  0  0  0
   -6.7507   12.3156   -6.9255 H   0  0  0  0  0  0  0  0  0  0  0  0
   -4.5132   13.2816   -6.4664 H   0  0  0  0  0  0  0  0  0  0  0  0
   -2.6683    9.7485   -8.0357 H   0  0  0  0  0  0  0  0  0  0  0  0
   -4.9092    8.7863   -8.4943 H   0  0  0  0  0  0  0  0  0  0  0  0
   -2.1095   14.2037   -7.1341 H   0  0  0  0  0  0  0  0  0  0  0  0
   -2.1522   13.5713   -5.4533 H   0  0  0  0  0  0  0  0  0  0  0  0
   -0.6475   10.5464   -7.5511 H   0  0  0  0  0  0  0  0  0  0  0  0
    1.4812   14.2962   -6.0855 H   0  0  0  0  0  0  0  0  0  0  0  0
    0.2196   15.4369   -6.6628 H   0  0  0  0  0  0  0  0  0  0  0  0
    0.1886   14.8468   -4.9665 H   0  0  0  0  0  0  0  0  0  0  0  0
   -5.2882   14.1185  -10.2095 H   0  0  0  0  0  0  0  0  0  0  0  0
   -4.0431   13.0269  -10.9057 H   0  0  0  0  0  0  0  0  0  0  0  0
   -3.9735   15.4217  -12.4385 H   0  0  0  0  0  0  0  0  0  0  0  0
   -4.0914   15.9235  -10.7178 H   0  0  0  0  0  0  0  0  0  0  0  0
   -1.7243   15.2430  -11.9952 H   0  0  0  0  0  0  0  0  0  0  0  0
   -0.0031   13.9147   -9.0666 H   0  0  0  0  0  0  0  0  0  0  0  0
    0.0973   13.7152  -10.8489 H   0  0  0  0  0  0  0  0  0  0  0  0
    0.1416   15.3586  -10.1252 H   0  0  0  0  0  0  0  0  0  0  0  0
  1  2  1  0  0  0  0
  1  4  1  0  0  0  0
  1 11  2  0  0  0  0
  2  6  1  0  0  0  0
  3  4  2  0  0  0  0
  3  5  1  0  0  0  0
  5  6  1  0  0  0  0
  5  9  2  0  0  0  0
  6  7  2  0  0  0  0
  7  8  1  0  0  0  0
  7 10  1  0  0  0  0
  8  9  1  0  0  0  0
 10 12  2  0  0  0  0
 11 24  1  0  0  0  0
 12 13  1  0  0  0  0
 12 17  1  0  0  0  0
 13 14  2  0  0  0  0
 14 15  1  0  0  0  0
 15 16  1  0  0  0  0
 15 18  2  0  0  0  0
 16 17  2  0  0  0  0
 18 19  1  0  0  0  0
 18 22  1  0  0  0  0
 19 20  1  0  0  0  0
 20 21  1  0  0  0  0
 20 23  1  0  0  0  0
 21 22  2  0  0  0  0
 24 25  1  0  0  0  0
 25 26  1  0  0  0  0
 26 27  1  0  0  0  0
 27 28  2  0  0  0  0
 27 29  1  0  0  0  0
  2 30  1  0  0  0  0
  2 31  1  0  0  0  0
  3 32  1  0  0  0  0
  4 33  1  0  0  0  0
  8 34  1  0  0  0  0
 10 35  1  0  0  0  0
 13 36  1  0  0  0  0
 14 37  1  0  0  0  0
 16 38  1  0  0  0  0
 17 39  1  0  0  0  0
 19 40  1  0  0  0  0
 19 41  1  0  0  0  0
 22 42  1  0  0  0  0
 23 43  1  0  0  0  0
 23 44  1  0  0  0  0
 23 45  1  0  0  0  0
 24 46  1  0  0  0  0
 24 47  1  0  0  0  0
 25 48  1  0  0  0  0
 25 49  1  0  0  0  0
 26 50  1  0  0  0  0
 29 51  1  0  0  0  0
 29 52  1  0  0  0  0
 29 53  1  0  0  0  0
M  END
> <Name>
27

> <IC50[uM]>
0.68

$$$$
27
  -OEChem-05192314333D
 Structure written by MMmdl.
 53 56  0     1  0  0  0  0  0999 V2000
   -6.3855   12.3606  -12.0031 C   0  0  0  0  0  0  0  0  0  0  0  0
   -6.5214   11.8004  -10.7171 C   0  0  0  0  0  0  0  0  0  0  0  0
   -7.6991   10.5797  -13.0384 C   0  0  0  0  0  0  0  0  0  0  0  0
   -6.9626   11.7779  -13.1031 C   0  0  0  0  0  0  0  0  0  0  0  0
   -7.8238   10.0198  -11.7523 C   0  0  0  0  0  0  0  0  0  0  0  0
   -7.2557   10.6213  -10.5956 C   0  0  0  0  0  0  0  0  0  0  0  0
   -7.6268    9.7501   -9.5073 C   0  0  0  0  0  0  0  0  0  0  0  0
   -8.3057    8.7491   -9.9816 N   0  0  0  0  0  0  0  0  0  0  0  0
   -8.4330    8.8776  -11.2917 N   0  0  0  0  0  0  0  0  0  0  0  0
   -7.3352    9.8817   -8.0196 C   0  0  0  0  0  0  0  0  0  0  0  0
   -5.6205   13.5372  -12.2095 N   0  0  0  0  0  0  0  0  0  0  0  0
   -5.9727   10.4835   -7.7324 C   0  0  0  0  0  0  0  0  0  0  0  0
   -5.8611   11.7523   -7.1657 C   0  0  0  0  0  0  0  0  0  0  0  0
   -4.5946   12.2988   -6.9068 C   0  0  0  0  0  0  0  0  0  0  0  0
   -3.4432   11.5806   -7.2147 C   0  0  0  0  0  0  0  0  0  0  0  0
   -3.5570   10.3109   -7.7899 C   0  0  0  0  0  0  0  0  0  0  0  0
   -4.8253    9.7663   -8.0483 C   0  0  0  0  0  0  0  0  0  0  0  0
   -2.0926   12.1556   -6.9444 C   0  0  0  0  0  0  0  0  0  0  0  0
   -1.7338   13.4204   -6.4594 C   0  0  0  0  0  0  0  0  0  0  0  0
   -0.4064   13.4584   -6.4114 N   0  0  3  0  0  0  0  0  0  0  0  0
    0.1793   12.3493   -6.7865 N   0  0  0  0  0  0  0  0  0  0  0  0
   -0.7954   11.5387   -7.1512 C   0  0  0  0  0  0  0  0  0  0  0  0
    0.4205   14.5767   -6.0073 C   0  0  0  0  0  0  0  0  0  0  0  0
   -4.6894   13.8945  -11.1046 C   0  0  0  0  0  0  0  0  0  0  0  0
   -3.7822   15.1171  -11.3990 C   0  0  0  0  0  0  0  0  0  0  0  0
   -2.3310   14.9579  -11.2532 N   0  0  0  0  0  0  0  0  0  0  0  0
   -1.8099   14.4326  -10.1320 C   0  0  0  0  0  0  0  0  0  0  0  0
   -2.5019   14.0442   -9.2076 O   0  0  0  0  0  0  0  0  0  0  0  0
   -0.2869   14.3494  -10.0364 C   0  0  0  0  0  0  0  0  0  0  0  0
   -5.5086   11.5965  -10.3394 H   0  0  0  0  0  0  0  0  0  0  0  0
   -7.0053   12.5553  -10.0799 H   0  0  0  0  0  0  0  0  0  0  0  0
   -8.1374   10.1224  -13.9131 H   0  0  0  0  0  0  0  0  0  0  0  0
   -6.8466   12.2604  -14.0624 H   0  0  0  0  0  0  0  0  0  0  0  0
   -8.9138    8.2235  -11.8756 H   0  0  0  0  0  0  0  0  0  0  0  0
   -8.0269    9.5780   -7.2478 H   0  0  0  0  0  0  0  0  0  0  0  0
   -6.7507   12.3156   -6.9255 H   0  0  0  0  0  0  0  0  0  0  0  0
   -4.5132   13.2816   -6.4664 H   0  0  0  0  0  0  0  0  0  0  0  0
   -2.6683    9.7485   -8.0357 H   0  0  0  0  0  0  0  0  0  0  0  0
   -4.9092    8.7863   -8.4943 H   0  0  0  0  0  0  0  0  0  0  0  0
   -2.1095   14.2037   -7.1341 H   0  0  0  0  0  0  0  0  0  0  0  0
   -2.1522   13.5713   -5.4533 H   0  0  0  0  0  0  0  0  0  0  0  0
   -0.6475   10.5464   -7.5511 H   0  0  0  0  0  0  0  0  0  0  0  0
    1.4812   14.2962   -6.0855 H   0  0  0  0  0  0  0  0  0  0  0  0
    0.2196   15.4369   -6.6628 H   0  0  0  0  0  0  0  0  0  0  0  0
    0.1886   14.8468   -4.9665 H   0  0  0  0  0  0  0  0  0  0  0  0
   -5.2882   14.1185  -10.2095 H   0  0  0  0  0  0  0  0  0  0  0  0
   -4.0431   13.0269  -10.9057 H   0  0  0  0  0  0  0  0  0  0  0  0
   -3.9735   15.4217  -12.4385 H   0  0  0  0  0  0  0  0  0  0  0  0
   -4.0914   15.9235  -10.7178 H   0  0  0  0  0  0  0  0  0  0  0  0
   -1.7243   15.2430  -11.9952 H   0  0  0  0  0  0  0  0  0  0  0  0
   -0.0031   13.9147   -9.0666 H   0  0  0  0  0  0  0  0  0  0  0  0
    0.0973   13.7152  -10.8489 H   0  0  0  0  0  0  0  0  0  0  0  0
    0.1416   15.3586  -10.1252 H   0  0  0  0  0  0  0  0  0  0  0  0
  1  2  1  0  0  0  0
  1  4  1  0  0  0  0
  1 11  2  0  0  0  0
  2  6  1  0  0  0  0
  3  4  2  0  0  0  0
  3  5  1  0  0  0  0
  5  6  2  0  0  0  0
  5  9  1  0  0  0  0
  6  7  1  0  0  0  0
  7  8  2  0  0  0  0
  7 10  1  0  0  0  0
  8  9  1  0  0  0  0
 10 12  2  0  0  0  0
 11 24  1  0  0  0  0
 12 13  1  0  0  0  0
 12 17  1  0  0  0  0
 13 14  2  0  0  0  0
 14 15  1  0  0  0  0
 15 16  1  0  0  0  0
 15 18  2  0  0  0  0
 16 17  2  0  0  0  0
 18 19  1  0  0  0  0
 18 22  1  0  0  0  0
 19 20  1  0  0  0  0
 20 21  1  0  0  0  0
 20 23  1  0  0  0  0
 21 22  2  0  0  0  0
 24 25  1  0  0  0  0
 25 26  1  0  0  0  0
 26 27  1  0  0  0  0
 27 28  2  0  0  0  0
 27 29  1  0  0  0  0
  2 30  1  0  0  0  0
  2 31  1  0  0  0  0
  3 32  1  0  0  0  0
  4 33  1  0  0  0  0
  9 34  1  0  0  0  0
 10 35  1  0  0  0  0
 13 36  1  0  0  0  0
 14 37  1  0  0  0  0
 16 38  1  0  0  0  0
 17 39  1  0  0  0  0
 19 40  1  0  0  0  0
 19 41  1  0  0  0  0
 22 42  1  0  0  0  0
 23 43  1  0  0  0  0
 23 44  1  0  0  0  0
 23 45  1  0  0  0  0
 24 46  1  0  0  0  0
 24 47  1  0  0  0  0
 25 48  1  0  0  0  0
 25 49  1  0  0  0  0
 26 50  1  0  0  0  0
 29 51  1  0  0  0  0
 29 52  1  0  0  0  0
 29 53  1  0  0  0  0
M  END
> <Name>
27

> <IC50[uM]>
0.68

$$$$
27
  -OEChem-05192314333D
 Structure written by MMmdl.
 53 56  0     1  0  0  0  0  0999 V2000
   -6.3855   12.3606  -12.0031 C   0  0  0  0  0  0  0  0  0  0  0  0
   -6.5214   11.8004  -10.7171 C   0  0  0  0  0  0  0  0  0  0  0  0
   -7.6991   10.5797  -13.0384 C   0  0  0  0  0  0  0  0  0  0  0  0
   -6.9626   11.7779  -13.1031 C   0  0  0  0  0  0  0  0  0  0  0  0
   -7.8238   10.0198  -11.7523 C   0  0  0  0  0  0  0  0  0  0  0  0
   -7.2557   10.6213  -10.5956 C   0  0  0  0  0  0  0  0  0  0  0  0
   -7.6268    9.7501   -9.5073 C   0  0  0  0  0  0  0  0  0  0  0  0
   -8.3057    8.7491   -9.9816 N   0  0  0  0  0  0  0  0  0  0  0  0
   -8.4330    8.8776  -11.2917 N   0  0  0  0  0  0  0  0  0  0  0  0
   -7.3352    9.8817   -8.0196 C   0  0  0  0  0  0  0  0  0  0  0  0
   -5.6205   13.5372  -12.2095 N   0  0  0  0  0  0  0  0  0  0  0  0
   -5.9727   10.4835   -7.7324 C   0  0  0  0  0  0  0  0  0  0  0  0
   -5.8611   11.7523   -7.1657 C   0  0  0  0  0  0  0  0  0  0  0  0
   -4.5946   12.2988   -6.9068 C   0  0  0  0  0  0  0  0  0  0  0  0
   -3.4432   11.5806   -7.2147 C   0  0  0  0  0  0  0  0  0  0  0  0
   -3.5570   10.3109   -7.7899 C   0  0  0  0  0  0  0  0  0  0  0  0
   -4.8253    9.7663   -8.0483 C   0  0  0  0  0  0  0  0  0  0  0  0
   -2.0926   12.1556   -6.9444 C   0  0  3  0  0  0  0  0  0  0  0  0
   -1.7338   13.4204   -6.4594 C   0  0  0  0  0  0  0  0  0  0  0  0
   -0.4064   13.4584   -6.4114 N   0  0  3  0  0  0  0  0  0  0  0  0
    0.1793   12.3493   -6.7865 N   0  0  0  0  0  0  0  0  0  0  0  0
   -0.7954   11.5387   -7.1512 C   0  0  0  0  0  0  0  0  0  0  0  0
    0.4205   14.5767   -6.0073 C   0  0  0  0  0  0  0  0  0  0  0  0
   -4.6894   13.8945  -11.1046 C   0  0  0  0  0  0  0  0  0  0  0  0
   -3.7822   15.1171  -11.3990 C   0  0  0  0  0  0  0  0  0  0  0  0
   -2.3310   14.9579  -11.2532 N   0  0  0  0  0  0  0  0  0  0  0  0
   -1.8099   14.4326  -10.1320 C   0  0  0  0  0  0  0  0  0  0  0  0
   -2.5019   14.0442   -9.2076 O   0  0  0  0  0  0  0  0  0  0  0  0
   -0.2869   14.3494  -10.0364 C   0  0  0  0  0  0  0  0  0  0  0  0
   -6.0716   12.2689   -9.8542 H   0  0  0  0  0  0  0  0  0  0  0  0
   -8.1374   10.1224  -13.9131 H   0  0  0  0  0  0  0  0  0  0  0  0
   -6.8466   12.2604  -14.0624 H   0  0  0  0  0  0  0  0  0  0  0  0
   -8.6759    7.9956   -9.4383 H   0  0  0  0  0  0  0  0  0  0  0  0
   -8.0269    9.5780   -7.2478 H   0  0  0  0  0  0  0  0  0  0  0  0
   -6.7507   12.3156   -6.9255 H   0  0  0  0  0  0  0  0  0  0  0  0
   -4.5132   13.2816   -6.4664 H   0  0  0  0  0  0  0  0  0  0  0  0
   -2.6683    9.7485   -8.0357 H   0  0  0  0  0  0  0  0  0  0  0  0
   -4.9092    8.7863   -8.4943 H   0  0  0  0  0  0  0  0  0  0  0  0
   -2.1234   11.7627   -5.9174 H   0  0  0  0  0  0  0  0  0  0  0  0
   -2.1095   14.2037   -7.1341 H   0  0  0  0  0  0  0  0  0  0  0  0
   -2.1522   13.5713   -5.4533 H   0  0  0  0  0  0  0  0  0  0  0  0
   -0.6475   10.5464   -7.5511 H   0  0  0  0  0  0  0  0  0  0  0  0
    1.4812   14.2962   -6.0855 H   0  0  0  0  0  0  0  0  0  0  0  0
    0.2196   15.4369   -6.6628 H   0  0  0  0  0  0  0  0  0  0  0  0
    0.1886   14.8468   -4.9665 H   0  0  0  0  0  0  0  0  0  0  0  0
   -5.2882   14.1185  -10.2095 H   0  0  0  0  0  0  0  0  0  0  0  0
   -4.0431   13.0269  -10.9057 H   0  0  0  0  0  0  0  0  0  0  0  0
   -3.9735   15.4217  -12.4385 H   0  0  0  0  0  0  0  0  0  0  0  0
   -4.0914   15.9235  -10.7178 H   0  0  0  0  0  0  0  0  0  0  0  0
   -1.9457   13.7098   -8.5138 H   0  0  0  0  0  0  0  0  0  0  0  0
   -0.0034   13.9020   -9.0723 H   0  0  0  0  0  0  0  0  0  0  0  0
    0.0984   13.7264  -10.8570 H   0  0  0  0  0  0  0  0  0  0  0  0
    0.1408   15.3601  -10.1114 H   0  0  0  0  0  0  0  0  0  0  0  0
  1  2  1  0  0  0  0
  1  4  1  0  0  0  0
  1 11  2  0  0  0  0
  2  6  2  0  0  0  0
  3  4  2  0  0  0  0
  3  5  1  0  0  0  0
  5  6  1  0  0  0  0
  5  9  2  0  0  0  0
  6  7  1  0  0  0  0
  7  8  1  0  0  0  0
  7 10  2  3  0  0  0
  8  9  1  0  0  0  0
 10 12  1  0  0  0  0
 11 24  1  0  0  0  0
 12 13  2  0  0  0  0
 12 17  1  0  0  0  0
 13 14  1  0  0  0  0
 14 15  2  0  0  0  0
 15 16  1  0  0  0  0
 15 18  1  0  0  0  0
 16 17  2  0  0  0  0
 18 19  1  0  0  0  0
 18 22  1  0  0  0  0
 19 20  1  0  0  0  0
 20 21  1  0  0  0  0
 20 23  1  0  0  0  0
 21 22  2  0  0  0  0
 24 25  1  0  0  0  0
 25 26  1  0  0  0  0
 26 27  2  0  0  0  0
 27 28  1  0  0  0  0
 27 29  1  0  0  0  0
  2 30  1  0  0  0  0
  3 31  1  0  0  0  0
  4 32  1  0  0  0  0
  8 33  1  0  0  0  0
 10 34  1  0  0  0  0
 13 35  1  0  0  0  0
 14 36  1  0  0  0  0
 16 37  1  0  0  0  0
 17 38  1  0  0  0  0
 18 39  1  0  0  0  0
 19 40  1  0  0  0  0
 19 41  1  0  0  0  0
 22 42  1  0  0  0  0
 23 43  1  0  0  0  0
 23 44  1  0  0  0  0
 23 45  1  0  0  0  0
 24 46  1  0  0  0  0
 24 47  1  0  0  0  0
 25 48  1  0  0  0  0
 25 49  1  0  0  0  0
 28 50  1  0  0  0  0
 29 51  1  0  0  0  0
 29 52  1  0  0  0  0
 29 53  1  0  0  0  0
M  END
> <Name>
27

> <IC50[uM]>
0.68

$$$$
27
  -OEChem-05192314333D
 Structure written by MMmdl.
 53 56  0     1  0  0  0  0  0999 V2000
   -6.3855   12.3606  -12.0031 C   0  0  0  0  0  0  0  0  0  0  0  0
   -6.5214   11.8004  -10.7171 C   0  0  0  0  0  0  0  0  0  0  0  0
   -7.6991   10.5797  -13.0384 C   0  0  0  0  0  0  0  0  0  0  0  0
   -6.9626   11.7779  -13.1031 C   0  0  0  0  0  0  0  0  0  0  0  0
   -7.8238   10.0198  -11.7523 C   0  0  0  0  0  0  0  0  0  0  0  0
   -7.2557   10.6213  -10.5956 C   0  0  0  0  0  0  0  0  0  0  0  0
   -7.6268    9.7501   -9.5073 C   0  0  0  0  0  0  0  0  0  0  0  0
   -8.3057    8.7491   -9.9816 N   0  0  0  0  0  0  0  0  0  0  0  0
   -8.4330    8.8776  -11.2917 N   0  0  0  0  0  0  0  0  0  0  0  0
   -7.3352    9.8817   -8.0196 C   0  0  0  0  0  0  0  0  0  0  0  0
   -5.6205   13.5372  -12.2095 N   0  0  0  0  0  0  0  0  0  0  0  0
   -5.9727   10.4835   -7.7324 C   0  0  0  0  0  0  0  0  0  0  0  0
   -5.8611   11.7523   -7.1657 C   0  0  0  0  0  0  0  0  0  0  0  0
   -4.5946   12.2988   -6.9068 C   0  0  0  0  0  0  0  0  0  0  0  0
   -3.4432   11.5806   -7.2147 C   0  0  0  0  0  0  0  0  0  0  0  0
   -3.5570   10.3109   -7.7899 C   0  0  0  0  0  0  0  0  0  0  0  0
   -4.8253    9.7663   -8.0483 C   0  0  0  0  0  0  0  0  0  0  0  0
   -2.0926   12.1556   -6.9444 C   0  0  0  0  0  0  0  0  0  0  0  0
   -1.7338   13.4204   -6.4594 C   0  0  0  0  0  0  0  0  0  0  0  0
   -0.4064   13.4584   -6.4114 N   0  0  3  0  0  0  0  0  0  0  0  0
    0.1793   12.3493   -6.7865 N   0  0  0  0  0  0  0  0  0  0  0  0
   -0.7954   11.5387   -7.1512 C   0  0  0  0  0  0  0  0  0  0  0  0
    0.4205   14.5767   -6.0073 C   0  0  0  0  0  0  0  0  0  0  0  0
   -4.6894   13.8945  -11.1046 C   0  0  0  0  0  0  0  0  0  0  0  0
   -3.7822   15.1171  -11.3990 C   0  0  0  0  0  0  0  0  0  0  0  0
   -2.3310   14.9579  -11.2532 N   0  0  0  0  0  0  0  0  0  0  0  0
   -1.8099   14.4326  -10.1320 C   0  0  0  0  0  0  0  0  0  0  0  0
   -2.5019   14.0442   -9.2076 O   0  0  0  0  0  0  0  0  0  0  0  0
   -0.2869   14.3494  -10.0364 C   0  0  0  0  0  0  0  0  0  0  0  0
   -5.5086   11.5965  -10.3394 H   0  0  0  0  0  0  0  0  0  0  0  0
   -7.0053   12.5553  -10.0799 H   0  0  0  0  0  0  0  0  0  0  0  0
   -8.1374   10.1224  -13.9131 H   0  0  0  0  0  0  0  0  0  0  0  0
   -6.8466   12.2604  -14.0624 H   0  0  0  0  0  0  0  0  0  0  0  0
   -8.6759    7.9956   -9.4383 H   0  0  0  0  0  0  0  0  0  0  0  0
   -8.0269    9.5780   -7.2478 H   0  0  0  0  0  0  0  0  0  0  0  0
   -6.7507   12.3156   -6.9255 H   0  0  0  0  0  0  0  0  0  0  0  0
   -4.5132   13.2816   -6.4664 H   0  0  0  0  0  0  0  0  0  0  0  0
   -2.6683    9.7485   -8.0357 H   0  0  0  0  0  0  0  0  0  0  0  0
   -4.9092    8.7863   -8.4943 H   0  0  0  0  0  0  0  0  0  0  0  0
   -2.1095   14.2037   -7.1341 H   0  0  0  0  0  0  0  0  0  0  0  0
   -2.1522   13.5713   -5.4533 H   0  0  0  0  0  0  0  0  0  0  0  0
   -0.6475   10.5464   -7.5511 H   0  0  0  0  0  0  0  0  0  0  0  0
    1.4812   14.2962   -6.0855 H   0  0  0  0  0  0  0  0  0  0  0  0
    0.2196   15.4369   -6.6628 H   0  0  0  0  0  0  0  0  0  0  0  0
    0.1886   14.8468   -4.9665 H   0  0  0  0  0  0  0  0  0  0  0  0
   -5.2882   14.1185  -10.2095 H   0  0  0  0  0  0  0  0  0  0  0  0
   -4.0431   13.0269  -10.9057 H   0  0  0  0  0  0  0  0  0  0  0  0
   -3.9735   15.4217  -12.4385 H   0  0  0  0  0  0  0  0  0  0  0  0
   -4.0914   15.9235  -10.7178 H   0  0  0  0  0  0  0  0  0  0  0  0
   -1.9457   13.7098   -8.5138 H   0  0  0  0  0  0  0  0  0  0  0  0
   -0.0034   13.9020   -9.0723 H   0  0  0  0  0  0  0  0  0  0  0  0
    0.0984   13.7264  -10.8570 H   0  0  0  0  0  0  0  0  0  0  0  0
    0.1408   15.3601  -10.1114 H   0  0  0  0  0  0  0  0  0  0  0  0
  1  2  1  0  0  0  0
  1  4  1  0  0  0  0
  1 11  2  0  0  0  0
  2  6  1  0  0  0  0
  3  4  2  0  0  0  0
  3  5  1  0  0  0  0
  5  6  1  0  0  0  0
  5  9  2  0  0  0  0
  6  7  2  0  0  0  0
  7  8  1  0  0  0  0
  7 10  1  0  0  0  0
  8  9  1  0  0  0  0
 10 12  2  0  0  0  0
 11 24  1  0  0  0  0
 12 13  1  0  0  0  0
 12 17  1  0  0  0  0
 13 14  2  0  0  0  0
 14 15  1  0  0  0  0
 15 16  1  0  0  0  0
 15 18  2  0  0  0  0
 16 17  2  0  0  0  0
 18 19  1  0  0  0  0
 18 22  1  0  0  0  0
 19 20  1  0  0  0  0
 20 21  1  0  0  0  0
 20 23  1  0  0  0  0
 21 22  2  0  0  0  0
 24 25  1  0  0  0  0
 25 26  1  0  0  0  0
 26 27  2  0  0  0  0
 27 28  1  0  0  0  0
 27 29  1  0  0  0  0
  2 30  1  0  0  0  0
  2 31  1  0  0  0  0
  3 32  1  0  0  0  0
  4 33  1  0  0  0  0
  8 34  1  0  0  0  0
 10 35  1  0  0  0  0
 13 36  1  0  0  0  0
 14 37  1  0  0  0  0
 16 38  1  0  0  0  0
 17 39  1  0  0  0  0
 19 40  1  0  0  0  0
 19 41  1  0  0  0  0
 22 42  1  0  0  0  0
 23 43  1  0  0  0  0
 23 44  1  0  0  0  0
 23 45  1  0  0  0  0
 24 46  1  0  0  0  0
 24 47  1  0  0  0  0
 25 48  1  0  0  0  0
 25 49  1  0  0  0  0
 28 50  1  0  0  0  0
 29 51  1  0  0  0  0
 29 52  1  0  0  0  0
 29 53  1  0  0  0  0
M  END
> <Name>
27

> <IC50[uM]>
0.68

$$$$
27
  -OEChem-05192314333D
 Structure written by MMmdl.
 53 56  0     1  0  0  0  0  0999 V2000
   -6.3855   12.3606  -12.0031 C   0  0  0  0  0  0  0  0  0  0  0  0
   -6.5214   11.8004  -10.7171 C   0  0  0  0  0  0  0  0  0  0  0  0
   -7.6991   10.5797  -13.0384 C   0  0  0  0  0  0  0  0  0  0  0  0
   -6.9626   11.7779  -13.1031 C   0  0  0  0  0  0  0  0  0  0  0  0
   -7.8238   10.0198  -11.7523 C   0  0  0  0  0  0  0  0  0  0  0  0
   -7.2557   10.6213  -10.5956 C   0  0  0  0  0  0  0  0  0  0  0  0
   -7.6268    9.7501   -9.5073 C   0  0  0  0  0  0  0  0  0  0  0  0
   -8.3057    8.7491   -9.9816 N   0  0  0  0  0  0  0  0  0  0  0  0
   -8.4330    8.8776  -11.2917 N   0  0  0  0  0  0  0  0  0  0  0  0
   -7.3352    9.8817   -8.0196 C   0  0  0  0  0  0  0  0  0  0  0  0
   -5.6205   13.5372  -12.2095 N   0  0  0  0  0  0  0  0  0  0  0  0
   -5.9727   10.4835   -7.7324 C   0  0  0  0  0  0  0  0  0  0  0  0
   -5.8611   11.7523   -7.1657 C   0  0  0  0  0  0  0  0  0  0  0  0
   -4.5946   12.2988   -6.9068 C   0  0  0  0  0  0  0  0  0  0  0  0
   -3.4432   11.5806   -7.2147 C   0  0  0  0  0  0  0  0  0  0  0  0
   -3.5570   10.3109   -7.7899 C   0  0  0  0  0  0  0  0  0  0  0  0
   -4.8253    9.7663   -8.0483 C   0  0  0  0  0  0  0  0  0  0  0  0
   -2.0926   12.1556   -6.9444 C   0  0  0  0  0  0  0  0  0  0  0  0
   -1.7338   13.4204   -6.4594 C   0  0  0  0  0  0  0  0  0  0  0  0
   -0.4064   13.4584   -6.4114 N   0  0  3  0  0  0  0  0  0  0  0  0
    0.1793   12.3493   -6.7865 N   0  0  0  0  0  0  0  0  0  0  0  0
   -0.7954   11.5387   -7.1512 C   0  0  0  0  0  0  0  0  0  0  0  0
    0.4205   14.5767   -6.0073 C   0  0  0  0  0  0  0  0  0  0  0  0
   -4.6894   13.8945  -11.1046 C   0  0  0  0  0  0  0  0  0  0  0  0
   -3.7822   15.1171  -11.3990 C   0  0  0  0  0  0  0  0  0  0  0  0
   -2.3310   14.9579  -11.2532 N   0  0  0  0  0  0  0  0  0  0  0  0
   -1.8099   14.4326  -10.1320 C   0  0  0  0  0  0  0  0  0  0  0  0
   -2.5019   14.0442   -9.2076 O   0  0  0  0  0  0  0  0  0  0  0  0
   -0.2869   14.3494  -10.0364 C   0  0  0  0  0  0  0  0  0  0  0  0
   -5.5086   11.5965  -10.3394 H   0  0  0  0  0  0  0  0  0  0  0  0
   -7.0053   12.5553  -10.0799 H   0  0  0  0  0  0  0  0  0  0  0  0
   -8.1374   10.1224  -13.9131 H   0  0  0  0  0  0  0  0  0  0  0  0
   -6.8466   12.2604  -14.0624 H   0  0  0  0  0  0  0  0  0  0  0  0
   -8.9138    8.2235  -11.8756 H   0  0  0  0  0  0  0  0  0  0  0  0
   -8.0269    9.5780   -7.2478 H   0  0  0  0  0  0  0  0  0  0  0  0
   -6.7507   12.3156   -6.9255 H   0  0  0  0  0  0  0  0  0  0  0  0
   -4.5132   13.2816   -6.4664 H   0  0  0  0  0  0  0  0  0  0  0  0
   -2.6683    9.7485   -8.0357 H   0  0  0  0  0  0  0  0  0  0  0  0
   -4.9092    8.7863   -8.4943 H   0  0  0  0  0  0  0  0  0  0  0  0
   -2.1095   14.2037   -7.1341 H   0  0  0  0  0  0  0  0  0  0  0  0
   -2.1522   13.5713   -5.4533 H   0  0  0  0  0  0  0  0  0  0  0  0
   -0.6475   10.5464   -7.5511 H   0  0  0  0  0  0  0  0  0  0  0  0
    1.4812   14.2962   -6.0855 H   0  0  0  0  0  0  0  0  0  0  0  0
    0.2196   15.4369   -6.6628 H   0  0  0  0  0  0  0  0  0  0  0  0
    0.1886   14.8468   -4.9665 H   0  0  0  0  0  0  0  0  0  0  0  0
   -5.2882   14.1185  -10.2095 H   0  0  0  0  0  0  0  0  0  0  0  0
   -4.0431   13.0269  -10.9057 H   0  0  0  0  0  0  0  0  0  0  0  0
   -3.9735   15.4217  -12.4385 H   0  0  0  0  0  0  0  0  0  0  0  0
   -4.0914   15.9235  -10.7178 H   0  0  0  0  0  0  0  0  0  0  0  0
   -1.9457   13.7098   -8.5138 H   0  0  0  0  0  0  0  0  0  0  0  0
   -0.0034   13.9020   -9.0723 H   0  0  0  0  0  0  0  0  0  0  0  0
    0.0984   13.7264  -10.8570 H   0  0  0  0  0  0  0  0  0  0  0  0
    0.1408   15.3601  -10.1114 H   0  0  0  0  0  0  0  0  0  0  0  0
  1  2  1  0  0  0  0
  1  4  1  0  0  0  0
  1 11  2  0  0  0  0
  2  6  1  0  0  0  0
  3  4  2  0  0  0  0
  3  5  1  0  0  0  0
  5  6  2  0  0  0  0
  5  9  1  0  0  0  0
  6  7  1  0  0  0  0
  7  8  2  0  0  0  0
  7 10  1  0  0  0  0
  8  9  1  0  0  0  0
 10 12  2  0  0  0  0
 11 24  1  0  0  0  0
 12 13  1  0  0  0  0
 12 17  1  0  0  0  0
 13 14  2  0  0  0  0
 14 15  1  0  0  0  0
 15 16  1  0  0  0  0
 15 18  2  0  0  0  0
 16 17  2  0  0  0  0
 18 19  1  0  0  0  0
 18 22  1  0  0  0  0
 19 20  1  0  0  0  0
 20 21  1  0  0  0  0
 20 23  1  0  0  0  0
 21 22  2  0  0  0  0
 24 25  1  0  0  0  0
 25 26  1  0  0  0  0
 26 27  2  0  0  0  0
 27 28  1  0  0  0  0
 27 29  1  0  0  0  0
  2 30  1  0  0  0  0
  2 31  1  0  0  0  0
  3 32  1  0  0  0  0
  4 33  1  0  0  0  0
  9 34  1  0  0  0  0
 10 35  1  0  0  0  0
 13 36  1  0  0  0  0
 14 37  1  0  0  0  0
 16 38  1  0  0  0  0
 17 39  1  0  0  0  0
 19 40  1  0  0  0  0
 19 41  1  0  0  0  0
 22 42  1  0  0  0  0
 23 43  1  0  0  0  0
 23 44  1  0  0  0  0
 23 45  1  0  0  0  0
 24 46  1  0  0  0  0
 24 47  1  0  0  0  0
 25 48  1  0  0  0  0
 25 49  1  0  0  0  0
 28 50  1  0  0  0  0
 29 51  1  0  0  0  0
 29 52  1  0  0  0  0
 29 53  1  0  0  0  0
M  END
> <Name>
27

> <IC50[uM]>
0.68

$$$$
27
  -OEChem-05192314333D
 Structure written by MMmdl.
 53 56  0     1  0  0  0  0  0999 V2000
   -6.3855   12.3606  -12.0031 C   0  0  0  0  0  0  0  0  0  0  0  0
   -6.5214   11.8004  -10.7171 C   0  0  0  0  0  0  0  0  0  0  0  0
   -7.6991   10.5797  -13.0384 C   0  0  0  0  0  0  0  0  0  0  0  0
   -6.9626   11.7779  -13.1031 C   0  0  0  0  0  0  0  0  0  0  0  0
   -7.8238   10.0198  -11.7523 C   0  0  0  0  0  0  0  0  0  0  0  0
   -7.2557   10.6213  -10.5956 C   0  0  0  0  0  0  0  0  0  0  0  0
   -7.6268    9.7501   -9.5073 C   0  0  0  0  0  0  0  0  0  0  0  0
   -8.3057    8.7491   -9.9816 N   0  0  0  0  0  0  0  0  0  0  0  0
   -8.4330    8.8776  -11.2917 N   0  0  0  0  0  0  0  0  0  0  0  0
   -7.3352    9.8817   -8.0196 C   0  0  0  0  0  0  0  0  0  0  0  0
   -5.6205   13.5372  -12.2095 N   0  0  0  0  0  0  0  0  0  0  0  0
   -5.9727   10.4835   -7.7324 C   0  0  0  0  0  0  0  0  0  0  0  0
   -5.8611   11.7523   -7.1657 C   0  0  0  0  0  0  0  0  0  0  0  0
   -4.5946   12.2988   -6.9068 C   0  0  0  0  0  0  0  0  0  0  0  0
   -3.4432   11.5806   -7.2147 C   0  0  0  0  0  0  0  0  0  0  0  0
   -3.5570   10.3109   -7.7899 C   0  0  0  0  0  0  0  0  0  0  0  0
   -4.8253    9.7663   -8.0483 C   0  0  0  0  0  0  0  0  0  0  0  0
   -2.0926   12.1556   -6.9444 C   0  0  0  0  0  0  0  0  0  0  0  0
   -1.7338   13.4204   -6.4594 C   0  0  0  0  0  0  0  0  0  0  0  0
   -0.4064   13.4584   -6.4114 N   0  0  3  0  0  0  0  0  0  0  0  0
    0.1793   12.3493   -6.7865 N   0  0  0  0  0  0  0  0  0  0  0  0
   -0.7954   11.5387   -7.1512 C   0  0  0  0  0  0  0  0  0  0  0  0
    0.4205   14.5767   -6.0073 C   0  0  0  0  0  0  0  0  0  0  0  0
   -4.6894   13.8945  -11.1046 C   0  0  0  0  0  0  0  0  0  0  0  0
   -3.7822   15.1171  -11.3990 C   0  0  0  0  0  0  0  0  0  0  0  0
   -2.3310   14.9579  -11.2532 N   0  0  0  0  0  0  0  0  0  0  0  0
   -1.8099   14.4326  -10.1320 C   0  0  0  0  0  0  0  0  0  0  0  0
   -2.5019   14.0442   -9.2076 O   0  0  0  0  0  0  0  0  0  0  0  0
   -0.2869   14.3494  -10.0364 C   0  0  0  0  0  0  0  0  0  0  0  0
   -6.0716   12.2689   -9.8542 H   0  0  0  0  0  0  0  0  0  0  0  0
   -8.1374   10.1224  -13.9131 H   0  0  0  0  0  0  0  0  0  0  0  0
   -6.8466   12.2604  -14.0624 H   0  0  0  0  0  0  0  0  0  0  0  0
   -8.6759    7.9956   -9.4383 H   0  0  0  0  0  0  0  0  0  0  0  0
   -8.0269    9.5780   -7.2478 H   0  0  0  0  0  0  0  0  0  0  0  0
   -6.7507   12.3156   -6.9255 H   0  0  0  0  0  0  0  0  0  0  0  0
   -4.5132   13.2816   -6.4664 H   0  0  0  0  0  0  0  0  0  0  0  0
   -2.6683    9.7485   -8.0357 H   0  0  0  0  0  0  0  0  0  0  0  0
   -4.9092    8.7863   -8.4943 H   0  0  0  0  0  0  0  0  0  0  0  0
   -2.4090   14.2148   -6.1776 H   0  0  0  0  0  0  0  0  0  0  0  0
    0.7951   12.5225   -7.5551 H   0  0  0  0  0  0  0  0  0  0  0  0
   -0.7373   10.6160   -6.5552 H   0  0  0  0  0  0  0  0  0  0  0  0
   -0.6796   11.2945   -8.2175 H   0  0  0  0  0  0  0  0  0  0  0  0
    1.4810   14.2930   -6.0763 H   0  0  0  0  0  0  0  0  0  0  0  0
    0.2266   15.4339   -6.6689 H   0  0  0  0  0  0  0  0  0  0  0  0
    0.1818   14.8530   -4.9697 H   0  0  0  0  0  0  0  0  0  0  0  0
   -5.2882   14.1185  -10.2095 H   0  0  0  0  0  0  0  0  0  0  0  0
   -4.0431   13.0269  -10.9057 H   0  0  0  0  0  0  0  0  0  0  0  0
   -3.9735   15.4217  -12.4385 H   0  0  0  0  0  0  0  0  0  0  0  0
   -4.0914   15.9235  -10.7178 H   0  0  0  0  0  0  0  0  0  0  0  0
   -1.7243   15.2430  -11.9952 H   0  0  0  0  0  0  0  0  0  0  0  0
   -0.0031   13.9147   -9.0666 H   0  0  0  0  0  0  0  0  0  0  0  0
    0.0973   13.7152  -10.8489 H   0  0  0  0  0  0  0  0  0  0  0  0
    0.1416   15.3586  -10.1252 H   0  0  0  0  0  0  0  0  0  0  0  0
  1  2  1  0  0  0  0
  1  4  1  0  0  0  0
  1 11  2  0  0  0  0
  2  6  2  0  0  0  0
  3  4  2  0  0  0  0
  3  5  1  0  0  0  0
  5  6  1  0  0  0  0
  5  9  2  0  0  0  0
  6  7  1  0  0  0  0
  7  8  1  0  0  0  0
  7 10  2  3  0  0  0
  8  9  1  0  0  0  0
 10 12  1  0  0  0  0
 11 24  1  0  0  0  0
 12 13  2  0  0  0  0
 12 17  1  0  0  0  0
 13 14  1  0  0  0  0
 14 15  2  0  0  0  0
 15 16  1  0  0  0  0
 15 18  1  0  0  0  0
 16 17  2  0  0  0  0
 18 19  2  0  0  0  0
 18 22  1  0  0  0  0
 19 20  1  0  0  0  0
 20 21  1  0  0  0  0
 20 23  1  0  0  0  0
 21 22  1  0  0  0  0
 24 25  1  0  0  0  0
 25 26  1  0  0  0  0
 26 27  1  0  0  0  0
 27 28  2  0  0  0  0
 27 29  1  0  0  0  0
  2 30  1  0  0  0  0
  3 31  1  0  0  0  0
  4 32  1  0  0  0  0
  8 33  1  0  0  0  0
 10 34  1  0  0  0  0
 13 35  1  0  0  0  0
 14 36  1  0  0  0  0
 16 37  1  0  0  0  0
 17 38  1  0  0  0  0
 19 39  1  0  0  0  0
 21 40  1  0  0  0  0
 22 41  1  0  0  0  0
 22 42  1  0  0  0  0
 23 43  1  0  0  0  0
 23 44  1  0  0  0  0
 23 45  1  0  0  0  0
 24 46  1  0  0  0  0
 24 47  1  0  0  0  0
 25 48  1  0  0  0  0
 25 49  1  0  0  0  0
 26 50  1  0  0  0  0
 29 51  1  0  0  0  0
 29 52  1  0  0  0  0
 29 53  1  0  0  0  0
M  END
> <Name>
27

> <IC50[uM]>
0.68

$$$$
27
  -OEChem-05192314333D
 Structure written by MMmdl.
 53 56  0     1  0  0  0  0  0999 V2000
   -6.3855   12.3606  -12.0031 C   0  0  0  0  0  0  0  0  0  0  0  0
   -6.5214   11.8004  -10.7171 C   0  0  0  0  0  0  0  0  0  0  0  0
   -7.6991   10.5797  -13.0384 C   0  0  0  0  0  0  0  0  0  0  0  0
   -6.9626   11.7779  -13.1031 C   0  0  0  0  0  0  0  0  0  0  0  0
   -7.8238   10.0198  -11.7523 C   0  0  0  0  0  0  0  0  0  0  0  0
   -7.2557   10.6213  -10.5956 C   0  0  0  0  0  0  0  0  0  0  0  0
   -7.6268    9.7501   -9.5073 C   0  0  0  0  0  0  0  0  0  0  0  0
   -8.3057    8.7491   -9.9816 N   0  0  0  0  0  0  0  0  0  0  0  0
   -8.4330    8.8776  -11.2917 N   0  0  0  0  0  0  0  0  0  0  0  0
   -7.3352    9.8817   -8.0196 C   0  0  0  0  0  0  0  0  0  0  0  0
   -5.6205   13.5372  -12.2095 N   0  0  0  0  0  0  0  0  0  0  0  0
   -5.9727   10.4835   -7.7324 C   0  0  0  0  0  0  0  0  0  0  0  0
   -5.8611   11.7523   -7.1657 C   0  0  0  0  0  0  0  0  0  0  0  0
   -4.5946   12.2988   -6.9068 C   0  0  0  0  0  0  0  0  0  0  0  0
   -3.4432   11.5806   -7.2147 C   0  0  0  0  0  0  0  0  0  0  0  0
   -3.5570   10.3109   -7.7899 C   0  0  0  0  0  0  0  0  0  0  0  0
   -4.8253    9.7663   -8.0483 C   0  0  0  0  0  0  0  0  0  0  0  0
   -2.0926   12.1556   -6.9444 C   0  0  0  0  0  0  0  0  0  0  0  0
   -1.7338   13.4204   -6.4594 C   0  0  0  0  0  0  0  0  0  0  0  0
   -0.4064   13.4584   -6.4114 N   0  0  3  0  0  0  0  0  0  0  0  0
    0.1793   12.3493   -6.7865 N   0  0  0  0  0  0  0  0  0  0  0  0
   -0.7954   11.5387   -7.1512 C   0  0  0  0  0  0  0  0  0  0  0  0
    0.4205   14.5767   -6.0073 C   0  0  0  0  0  0  0  0  0  0  0  0
   -4.6894   13.8945  -11.1046 C   0  0  0  0  0  0  0  0  0  0  0  0
   -3.7822   15.1171  -11.3990 C   0  0  0  0  0  0  0  0  0  0  0  0
   -2.3310   14.9579  -11.2532 N   0  0  0  0  0  0  0  0  0  0  0  0
   -1.8099   14.4326  -10.1320 C   0  0  0  0  0  0  0  0  0  0  0  0
   -2.5019   14.0442   -9.2076 O   0  0  0  0  0  0  0  0  0  0  0  0
   -0.2869   14.3494  -10.0364 C   0  0  0  0  0  0  0  0  0  0  0  0
   -6.0716   12.2689   -9.8542 H   0  0  0  0  0  0  0  0  0  0  0  0
   -8.1374   10.1224  -13.9131 H   0  0  0  0  0  0  0  0  0  0  0  0
   -6.8466   12.2604  -14.0624 H   0  0  0  0  0  0  0  0  0  0  0  0
   -8.6759    7.9956   -9.4383 H   0  0  0  0  0  0  0  0  0  0  0  0
   -8.0269    9.5780   -7.2478 H   0  0  0  0  0  0  0  0  0  0  0  0
   -6.7507   12.3156   -6.9255 H   0  0  0  0  0  0  0  0  0  0  0  0
   -4.5132   13.2816   -6.4664 H   0  0  0  0  0  0  0  0  0  0  0  0
   -2.6683    9.7485   -8.0357 H   0  0  0  0  0  0  0  0  0  0  0  0
   -4.9092    8.7863   -8.4943 H   0  0  0  0  0  0  0  0  0  0  0  0
   -2.1095   14.2037   -7.1341 H   0  0  0  0  0  0  0  0  0  0  0  0
   -2.1522   13.5713   -5.4533 H   0  0  0  0  0  0  0  0  0  0  0  0
    0.7951   12.5225   -7.5551 H   0  0  0  0  0  0  0  0  0  0  0  0
   -0.6475   10.5464   -7.5511 H   0  0  0  0  0  0  0  0  0  0  0  0
    1.4810   14.2930   -6.0763 H   0  0  0  0  0  0  0  0  0  0  0  0
    0.2266   15.4339   -6.6689 H   0  0  0  0  0  0  0  0  0  0  0  0
    0.1818   14.8530   -4.9697 H   0  0  0  0  0  0  0  0  0  0  0  0
   -5.2882   14.1185  -10.2095 H   0  0  0  0  0  0  0  0  0  0  0  0
   -4.0431   13.0269  -10.9057 H   0  0  0  0  0  0  0  0  0  0  0  0
   -3.9735   15.4217  -12.4385 H   0  0  0  0  0  0  0  0  0  0  0  0
   -4.0914   15.9235  -10.7178 H   0  0  0  0  0  0  0  0  0  0  0  0
   -1.7243   15.2430  -11.9952 H   0  0  0  0  0  0  0  0  0  0  0  0
   -0.0031   13.9147   -9.0666 H   0  0  0  0  0  0  0  0  0  0  0  0
    0.0973   13.7152  -10.8489 H   0  0  0  0  0  0  0  0  0  0  0  0
    0.1416   15.3586  -10.1252 H   0  0  0  0  0  0  0  0  0  0  0  0
  1  2  1  0  0  0  0
  1  4  1  0  0  0  0
  1 11  2  0  0  0  0
  2  6  2  0  0  0  0
  3  4  2  0  0  0  0
  3  5  1  0  0  0  0
  5  6  1  0  0  0  0
  5  9  2  0  0  0  0
  6  7  1  0  0  0  0
  7  8  1  0  0  0  0
  7 10  2  3  0  0  0
  8  9  1  0  0  0  0
 10 12  1  0  0  0  0
 11 24  1  0  0  0  0
 12 13  2  0  0  0  0
 12 17  1  0  0  0  0
 13 14  1  0  0  0  0
 14 15  2  0  0  0  0
 15 16  1  0  0  0  0
 15 18  1  0  0  0  0
 16 17  2  0  0  0  0
 18 19  1  0  0  0  0
 18 22  2  0  0  0  0
 19 20  1  0  0  0  0
 20 21  1  0  0  0  0
 20 23  1  0  0  0  0
 21 22  1  0  0  0  0
 24 25  1  0  0  0  0
 25 26  1  0  0  0  0
 26 27  1  0  0  0  0
 27 28  2  0  0  0  0
 27 29  1  0  0  0  0
  2 30  1  0  0  0  0
  3 31  1  0  0  0  0
  4 32  1  0  0  0  0
  8 33  1  0  0  0  0
 10 34  1  0  0  0  0
 13 35  1  0  0  0  0
 14 36  1  0  0  0  0
 16 37  1  0  0  0  0
 17 38  1  0  0  0  0
 19 39  1  0  0  0  0
 19 40  1  0  0  0  0
 21 41  1  0  0  0  0
 22 42  1  0  0  0  0
 23 43  1  0  0  0  0
 23 44  1  0  0  0  0
 23 45  1  0  0  0  0
 24 46  1  0  0  0  0
 24 47  1  0  0  0  0
 25 48  1  0  0  0  0
 25 49  1  0  0  0  0
 26 50  1  0  0  0  0
 29 51  1  0  0  0  0
 29 52  1  0  0  0  0
 29 53  1  0  0  0  0
M  END
> <Name>
27

> <IC50[uM]>
0.68

$$$$
27
  -OEChem-05192314333D
 Structure written by MMmdl.
 53 56  0     1  0  0  0  0  0999 V2000
   -6.3855   12.3606  -12.0031 C   0  0  0  0  0  0  0  0  0  0  0  0
   -6.5214   11.8004  -10.7171 C   0  0  0  0  0  0  0  0  0  0  0  0
   -7.6991   10.5797  -13.0384 C   0  0  0  0  0  0  0  0  0  0  0  0
   -6.9626   11.7779  -13.1031 C   0  0  0  0  0  0  0  0  0  0  0  0
   -7.8238   10.0198  -11.7523 C   0  0  0  0  0  0  0  0  0  0  0  0
   -7.2557   10.6213  -10.5956 C   0  0  0  0  0  0  0  0  0  0  0  0
   -7.6268    9.7501   -9.5073 C   0  0  0  0  0  0  0  0  0  0  0  0
   -8.3057    8.7491   -9.9816 N   0  0  0  0  0  0  0  0  0  0  0  0
   -8.4330    8.8776  -11.2917 N   0  0  0  0  0  0  0  0  0  0  0  0
   -7.3352    9.8817   -8.0196 C   0  0  0  0  0  0  0  0  0  0  0  0
   -5.6205   13.5372  -12.2095 N   0  0  0  0  0  0  0  0  0  0  0  0
   -5.9727   10.4835   -7.7324 C   0  0  0  0  0  0  0  0  0  0  0  0
   -5.8611   11.7523   -7.1657 C   0  0  0  0  0  0  0  0  0  0  0  0
   -4.5946   12.2988   -6.9068 C   0  0  0  0  0  0  0  0  0  0  0  0
   -3.4432   11.5806   -7.2147 C   0  0  0  0  0  0  0  0  0  0  0  0
   -3.5570   10.3109   -7.7899 C   0  0  0  0  0  0  0  0  0  0  0  0
   -4.8253    9.7663   -8.0483 C   0  0  0  0  0  0  0  0  0  0  0  0
   -2.0926   12.1556   -6.9444 C   0  0  0  0  0  0  0  0  0  0  0  0
   -1.7338   13.4204   -6.4594 C   0  0  0  0  0  0  0  0  0  0  0  0
   -0.4064   13.4584   -6.4114 N   0  0  3  0  0  0  0  0  0  0  0  0
    0.1793   12.3493   -6.7865 N   0  0  0  0  0  0  0  0  0  0  0  0
   -0.7954   11.5387   -7.1512 C   0  0  0  0  0  0  0  0  0  0  0  0
    0.4205   14.5767   -6.0073 C   0  0  0  0  0  0  0  0  0  0  0  0
   -4.6894   13.8945  -11.1046 C   0  0  0  0  0  0  0  0  0  0  0  0
   -3.7822   15.1171  -11.3990 C   0  0  0  0  0  0  0  0  0  0  0  0
   -2.3310   14.9579  -11.2532 N   0  0  0  0  0  0  0  0  0  0  0  0
   -1.8099   14.4326  -10.1320 C   0  0  0  0  0  0  0  0  0  0  0  0
   -2.5019   14.0442   -9.2076 O   0  0  0  0  0  0  0  0  0  0  0  0
   -0.2869   14.3494  -10.0364 C   0  0  0  0  0  0  0  0  0  0  0  0
   -6.0716   12.2689   -9.8542 H   0  0  0  0  0  0  0  0  0  0  0  0
   -8.1374   10.1224  -13.9131 H   0  0  0  0  0  0  0  0  0  0  0  0
   -6.8466   12.2604  -14.0624 H   0  0  0  0  0  0  0  0  0  0  0  0
   -8.6759    7.9956   -9.4383 H   0  0  0  0  0  0  0  0  0  0  0  0
   -8.0269    9.5780   -7.2478 H   0  0  0  0  0  0  0  0  0  0  0  0
   -6.7507   12.3156   -6.9255 H   0  0  0  0  0  0  0  0  0  0  0  0
   -4.5132   13.2816   -6.4664 H   0  0  0  0  0  0  0  0  0  0  0  0
   -2.6683    9.7485   -8.0357 H   0  0  0  0  0  0  0  0  0  0  0  0
   -4.9092    8.7863   -8.4943 H   0  0  0  0  0  0  0  0  0  0  0  0
   -2.4090   14.2148   -6.1776 H   0  0  0  0  0  0  0  0  0  0  0  0
    0.7951   12.5225   -7.5551 H   0  0  0  0  0  0  0  0  0  0  0  0
   -0.7373   10.6160   -6.5552 H   0  0  0  0  0  0  0  0  0  0  0  0
   -0.6796   11.2945   -8.2175 H   0  0  0  0  0  0  0  0  0  0  0  0
    1.4810   14.2930   -6.0763 H   0  0  0  0  0  0  0  0  0  0  0  0
    0.2266   15.4339   -6.6689 H   0  0  0  0  0  0  0  0  0  0  0  0
    0.1818   14.8530   -4.9697 H   0  0  0  0  0  0  0  0  0  0  0  0
   -5.2882   14.1185  -10.2095 H   0  0  0  0  0  0  0  0  0  0  0  0
   -4.0431   13.0269  -10.9057 H   0  0  0  0  0  0  0  0  0  0  0  0
   -3.9735   15.4217  -12.4385 H   0  0  0  0  0  0  0  0  0  0  0  0
   -4.0914   15.9235  -10.7178 H   0  0  0  0  0  0  0  0  0  0  0  0
   -1.9457   13.7098   -8.5138 H   0  0  0  0  0  0  0  0  0  0  0  0
   -0.0034   13.9020   -9.0723 H   0  0  0  0  0  0  0  0  0  0  0  0
    0.0984   13.7264  -10.8570 H   0  0  0  0  0  0  0  0  0  0  0  0
    0.1408   15.3601  -10.1114 H   0  0  0  0  0  0  0  0  0  0  0  0
  1  2  1  0  0  0  0
  1  4  1  0  0  0  0
  1 11  2  0  0  0  0
  2  6  2  0  0  0  0
  3  4  2  0  0  0  0
  3  5  1  0  0  0  0
  5  6  1  0  0  0  0
  5  9  2  0  0  0  0
  6  7  1  0  0  0  0
  7  8  1  0  0  0  0
  7 10  2  3  0  0  0
  8  9  1  0  0  0  0
 10 12  1  0  0  0  0
 11 24  1  0  0  0  0
 12 13  2  0  0  0  0
 12 17  1  0  0  0  0
 13 14  1  0  0  0  0
 14 15  2  0  0  0  0
 15 16  1  0  0  0  0
 15 18  1  0  0  0  0
 16 17  2  0  0  0  0
 18 19  2  0  0  0  0
 18 22  1  0  0  0  0
 19 20  1  0  0  0  0
 20 21  1  0  0  0  0
 20 23  1  0  0  0  0
 21 22  1  0  0  0  0
 24 25  1  0  0  0  0
 25 26  1  0  0  0  0
 26 27  2  0  0  0  0
 27 28  1  0  0  0  0
 27 29  1  0  0  0  0
  2 30  1  0  0  0  0
  3 31  1  0  0  0  0
  4 32  1  0  0  0  0
  8 33  1  0  0  0  0
 10 34  1  0  0  0  0
 13 35  1  0  0  0  0
 14 36  1  0  0  0  0
 16 37  1  0  0  0  0
 17 38  1  0  0  0  0
 19 39  1  0  0  0  0
 21 40  1  0  0  0  0
 22 41  1  0  0  0  0
 22 42  1  0  0  0  0
 23 43  1  0  0  0  0
 23 44  1  0  0  0  0
 23 45  1  0  0  0  0
 24 46  1  0  0  0  0
 24 47  1  0  0  0  0
 25 48  1  0  0  0  0
 25 49  1  0  0  0  0
 28 50  1  0  0  0  0
 29 51  1  0  0  0  0
 29 52  1  0  0  0  0
 29 53  1  0  0  0  0
M  END
> <Name>
27

> <IC50[uM]>
0.68

$$$$
27
  -OEChem-05192314333D
 Structure written by MMmdl.
 53 56  0     1  0  0  0  0  0999 V2000
   -6.3855   12.3606  -12.0031 C   0  0  0  0  0  0  0  0  0  0  0  0
   -6.5214   11.8004  -10.7171 C   0  0  0  0  0  0  0  0  0  0  0  0
   -7.6991   10.5797  -13.0384 C   0  0  0  0  0  0  0  0  0  0  0  0
   -6.9626   11.7779  -13.1031 C   0  0  0  0  0  0  0  0  0  0  0  0
   -7.8238   10.0198  -11.7523 C   0  0  0  0  0  0  0  0  0  0  0  0
   -7.2557   10.6213  -10.5956 C   0  0  0  0  0  0  0  0  0  0  0  0
   -7.6268    9.7501   -9.5073 C   0  0  0  0  0  0  0  0  0  0  0  0
   -8.3057    8.7491   -9.9816 N   0  0  0  0  0  0  0  0  0  0  0  0
   -8.4330    8.8776  -11.2917 N   0  0  0  0  0  0  0  0  0  0  0  0
   -7.3352    9.8817   -8.0196 C   0  0  0  0  0  0  0  0  0  0  0  0
   -5.6205   13.5372  -12.2095 N   0  0  0  0  0  0  0  0  0  0  0  0
   -5.9727   10.4835   -7.7324 C   0  0  0  0  0  0  0  0  0  0  0  0
   -5.8611   11.7523   -7.1657 C   0  0  0  0  0  0  0  0  0  0  0  0
   -4.5946   12.2988   -6.9068 C   0  0  0  0  0  0  0  0  0  0  0  0
   -3.4432   11.5806   -7.2147 C   0  0  0  0  0  0  0  0  0  0  0  0
   -3.5570   10.3109   -7.7899 C   0  0  0  0  0  0  0  0  0  0  0  0
   -4.8253    9.7663   -8.0483 C   0  0  0  0  0  0  0  0  0  0  0  0
   -2.0926   12.1556   -6.9444 C   0  0  0  0  0  0  0  0  0  0  0  0
   -1.7338   13.4204   -6.4594 C   0  0  0  0  0  0  0  0  0  0  0  0
   -0.4064   13.4584   -6.4114 N   0  0  3  0  0  0  0  0  0  0  0  0
    0.1793   12.3493   -6.7865 N   0  0  0  0  0  0  0  0  0  0  0  0
   -0.7954   11.5387   -7.1512 C   0  0  0  0  0  0  0  0  0  0  0  0
    0.4205   14.5767   -6.0073 C   0  0  0  0  0  0  0  0  0  0  0  0
   -4.6894   13.8945  -11.1046 C   0  0  0  0  0  0  0  0  0  0  0  0
   -3.7822   15.1171  -11.3990 C   0  0  0  0  0  0  0  0  0  0  0  0
   -2.3310   14.9579  -11.2532 N   0  0  0  0  0  0  0  0  0  0  0  0
   -1.8099   14.4326  -10.1320 C   0  0  0  0  0  0  0  0  0  0  0  0
   -2.5019   14.0442   -9.2076 O   0  0  0  0  0  0  0  0  0  0  0  0
   -0.2869   14.3494  -10.0364 C   0  0  0  0  0  0  0  0  0  0  0  0
   -6.0716   12.2689   -9.8542 H   0  0  0  0  0  0  0  0  0  0  0  0
   -8.1374   10.1224  -13.9131 H   0  0  0  0  0  0  0  0  0  0  0  0
   -6.8466   12.2604  -14.0624 H   0  0  0  0  0  0  0  0  0  0  0  0
   -8.6759    7.9956   -9.4383 H   0  0  0  0  0  0  0  0  0  0  0  0
   -8.0269    9.5780   -7.2478 H   0  0  0  0  0  0  0  0  0  0  0  0
   -6.7507   12.3156   -6.9255 H   0  0  0  0  0  0  0  0  0  0  0  0
   -4.5132   13.2816   -6.4664 H   0  0  0  0  0  0  0  0  0  0  0  0
   -2.6683    9.7485   -8.0357 H   0  0  0  0  0  0  0  0  0  0  0  0
   -4.9092    8.7863   -8.4943 H   0  0  0  0  0  0  0  0  0  0  0  0
   -2.1095   14.2037   -7.1341 H   0  0  0  0  0  0  0  0  0  0  0  0
   -2.1522   13.5713   -5.4533 H   0  0  0  0  0  0  0  0  0  0  0  0
    0.7951   12.5225   -7.5551 H   0  0  0  0  0  0  0  0  0  0  0  0
   -0.6475   10.5464   -7.5511 H   0  0  0  0  0  0  0  0  0  0  0  0
    1.4810   14.2930   -6.0763 H   0  0  0  0  0  0  0  0  0  0  0  0
    0.2266   15.4339   -6.6689 H   0  0  0  0  0  0  0  0  0  0  0  0
    0.1818   14.8530   -4.9697 H   0  0  0  0  0  0  0  0  0  0  0  0
   -5.2882   14.1185  -10.2095 H   0  0  0  0  0  0  0  0  0  0  0  0
   -4.0431   13.0269  -10.9057 H   0  0  0  0  0  0  0  0  0  0  0  0
   -3.9735   15.4217  -12.4385 H   0  0  0  0  0  0  0  0  0  0  0  0
   -4.0914   15.9235  -10.7178 H   0  0  0  0  0  0  0  0  0  0  0  0
   -1.9457   13.7098   -8.5138 H   0  0  0  0  0  0  0  0  0  0  0  0
   -0.0034   13.9020   -9.0723 H   0  0  0  0  0  0  0  0  0  0  0  0
    0.0984   13.7264  -10.8570 H   0  0  0  0  0  0  0  0  0  0  0  0
    0.1408   15.3601  -10.1114 H   0  0  0  0  0  0  0  0  0  0  0  0
  1  2  1  0  0  0  0
  1  4  1  0  0  0  0
  1 11  2  0  0  0  0
  2  6  2  0  0  0  0
  3  4  2  0  0  0  0
  3  5  1  0  0  0  0
  5  6  1  0  0  0  0
  5  9  2  0  0  0  0
  6  7  1  0  0  0  0
  7  8  1  0  0  0  0
  7 10  2  3  0  0  0
  8  9  1  0  0  0  0
 10 12  1  0  0  0  0
 11 24  1  0  0  0  0
 12 13  2  0  0  0  0
 12 17  1  0  0  0  0
 13 14  1  0  0  0  0
 14 15  2  0  0  0  0
 15 16  1  0  0  0  0
 15 18  1  0  0  0  0
 16 17  2  0  0  0  0
 18 19  1  0  0  0  0
 18 22  2  0  0  0  0
 19 20  1  0  0  0  0
 20 21  1  0  0  0  0
 20 23  1  0  0  0  0
 21 22  1  0  0  0  0
 24 25  1  0  0  0  0
 25 26  1  0  0  0  0
 26 27  2  0  0  0  0
 27 28  1  0  0  0  0
 27 29  1  0  0  0  0
  2 30  1  0  0  0  0
  3 31  1  0  0  0  0
  4 32  1  0  0  0  0
  8 33  1  0  0  0  0
 10 34  1  0  0  0  0
 13 35  1  0  0  0  0
 14 36  1  0  0  0  0
 16 37  1  0  0  0  0
 17 38  1  0  0  0  0
 19 39  1  0  0  0  0
 19 40  1  0  0  0  0
 21 41  1  0  0  0  0
 22 42  1  0  0  0  0
 23 43  1  0  0  0  0
 23 44  1  0  0  0  0
 23 45  1  0  0  0  0
 24 46  1  0  0  0  0
 24 47  1  0  0  0  0
 25 48  1  0  0  0  0
 25 49  1  0  0  0  0
 28 50  1  0  0  0  0
 29 51  1  0  0  0  0
 29 52  1  0  0  0  0
 29 53  1  0  0  0  0
M  END
> <Name>
27

> <IC50[uM]>
0.68

$$$$
27
  -OEChem-05192314333D
 Structure written by MMmdl.
 53 56  0     1  0  0  0  0  0999 V2000
   -6.3855   12.3606  -12.0031 C   0  0  0  0  0  0  0  0  0  0  0  0
   -6.5214   11.8004  -10.7171 C   0  0  0  0  0  0  0  0  0  0  0  0
   -7.6991   10.5797  -13.0384 C   0  0  0  0  0  0  0  0  0  0  0  0
   -6.9626   11.7779  -13.1031 C   0  0  0  0  0  0  0  0  0  0  0  0
   -7.8238   10.0198  -11.7523 C   0  0  0  0  0  0  0  0  0  0  0  0
   -7.2557   10.6213  -10.5956 C   0  0  0  0  0  0  0  0  0  0  0  0
   -7.6268    9.7501   -9.5073 C   0  0  0  0  0  0  0  0  0  0  0  0
   -8.3057    8.7491   -9.9816 N   0  0  0  0  0  0  0  0  0  0  0  0
   -8.4330    8.8776  -11.2917 N   0  0  0  0  0  0  0  0  0  0  0  0
   -7.3352    9.8817   -8.0196 C   0  0  0  0  0  0  0  0  0  0  0  0
   -5.6205   13.5372  -12.2095 N   0  0  0  0  0  0  0  0  0  0  0  0
   -5.9727   10.4835   -7.7324 C   0  0  0  0  0  0  0  0  0  0  0  0
   -5.8611   11.7523   -7.1657 C   0  0  0  0  0  0  0  0  0  0  0  0
   -4.5946   12.2988   -6.9068 C   0  0  0  0  0  0  0  0  0  0  0  0
   -3.4432   11.5806   -7.2147 C   0  0  0  0  0  0  0  0  0  0  0  0
   -3.5570   10.3109   -7.7899 C   0  0  0  0  0  0  0  0  0  0  0  0
   -4.8253    9.7663   -8.0483 C   0  0  0  0  0  0  0  0  0  0  0  0
   -2.0926   12.1556   -6.9444 C   0  0  0  0  0  0  0  0  0  0  0  0
   -1.7338   13.4204   -6.4594 C   0  0  0  0  0  0  0  0  0  0  0  0
   -0.4064   13.4584   -6.4114 N   0  0  3  0  0  0  0  0  0  0  0  0
    0.1793   12.3493   -6.7865 N   0  0  0  0  0  0  0  0  0  0  0  0
   -0.7954   11.5387   -7.1512 C   0  0  0  0  0  0  0  0  0  0  0  0
    0.4205   14.5767   -6.0073 C   0  0  0  0  0  0  0  0  0  0  0  0
   -4.6894   13.8945  -11.1046 C   0  0  0  0  0  0  0  0  0  0  0  0
   -3.7822   15.1171  -11.3990 C   0  0  0  0  0  0  0  0  0  0  0  0
   -2.3310   14.9579  -11.2532 N   0  0  0  0  0  0  0  0  0  0  0  0
   -1.8099   14.4326  -10.1320 C   0  0  0  0  0  0  0  0  0  0  0  0
   -2.5019   14.0442   -9.2076 O   0  0  0  0  0  0  0  0  0  0  0  0
   -0.2869   14.3494  -10.0364 C   0  0  0  0  0  0  0  0  0  0  0  0
   -6.0716   12.2689   -9.8542 H   0  0  0  0  0  0  0  0  0  0  0  0
   -8.1374   10.1224  -13.9131 H   0  0  0  0  0  0  0  0  0  0  0  0
   -7.6459   12.5314  -13.5218 H   0  0  0  0  0  0  0  0  0  0  0  0
   -6.1429   11.5918  -13.8126 H   0  0  0  0  0  0  0  0  0  0  0  0
   -8.9138    8.2235  -11.8756 H   0  0  0  0  0  0  0  0  0  0  0  0
   -8.0269    9.5780   -7.2478 H   0  0  0  0  0  0  0  0  0  0  0  0
   -6.7507   12.3156   -6.9255 H   0  0  0  0  0  0  0  0  0  0  0  0
   -4.5132   13.2816   -6.4664 H   0  0  0  0  0  0  0  0  0  0  0  0
   -2.6683    9.7485   -8.0357 H   0  0  0  0  0  0  0  0  0  0  0  0
   -4.9092    8.7863   -8.4943 H   0  0  0  0  0  0  0  0  0  0  0  0
   -2.1095   14.2037   -7.1341 H   0  0  0  0  0  0  0  0  0  0  0  0
   -2.1522   13.5713   -5.4533 H   0  0  0  0  0  0  0  0  0  0  0  0
   -0.6475   10.5464   -7.5511 H   0  0  0  0  0  0  0  0  0  0  0  0
    1.4812   14.2962   -6.0855 H   0  0  0  0  0  0  0  0  0  0  0  0
    0.2196   15.4369   -6.6628 H   0  0  0  0  0  0  0  0  0  0  0  0
    0.1886   14.8468   -4.9665 H   0  0  0  0  0  0  0  0  0  0  0  0
   -5.2882   14.1185  -10.2095 H   0  0  0  0  0  0  0  0  0  0  0  0
   -4.0431   13.0269  -10.9057 H   0  0  0  0  0  0  0  0  0  0  0  0
   -3.9735   15.4217  -12.4385 H   0  0  0  0  0  0  0  0  0  0  0  0
   -4.0914   15.9235  -10.7178 H   0  0  0  0  0  0  0  0  0  0  0  0
   -1.7243   15.2430  -11.9952 H   0  0  0  0  0  0  0  0  0  0  0  0
   -0.0031   13.9147   -9.0666 H   0  0  0  0  0  0  0  0  0  0  0  0
    0.0973   13.7152  -10.8489 H   0  0  0  0  0  0  0  0  0  0  0  0
    0.1416   15.3586  -10.1252 H   0  0  0  0  0  0  0  0  0  0  0  0
  1  2  1  0  0  0  0
  1  4  1  0  0  0  0
  1 11  2  0  0  0  0
  2  6  2  0  0  0  0
  3  4  1  0  0  0  0
  3  5  2  0  0  0  0
  5  6  1  0  0  0  0
  5  9  1  0  0  0  0
  6  7  1  0  0  0  0
  7  8  2  0  0  0  0
  7 10  1  0  0  0  0
  8  9  1  0  0  0  0
 10 12  2  0  0  0  0
 11 24  1  0  0  0  0
 12 13  1  0  0  0  0
 12 17  1  0  0  0  0
 13 14  2  0  0  0  0
 14 15  1  0  0  0  0
 15 16  1  0  0  0  0
 15 18  2  0  0  0  0
 16 17  2  0  0  0  0
 18 19  1  0  0  0  0
 18 22  1  0  0  0  0
 19 20  1  0  0  0  0
 20 21  1  0  0  0  0
 20 23  1  0  0  0  0
 21 22  2  0  0  0  0
 24 25  1  0  0  0  0
 25 26  1  0  0  0  0
 26 27  1  0  0  0  0
 27 28  2  0  0  0  0
 27 29  1  0  0  0  0
  2 30  1  0  0  0  0
  3 31  1  0  0  0  0
  4 32  1  0  0  0  0
  4 33  1  0  0  0  0
  9 34  1  0  0  0  0
 10 35  1  0  0  0  0
 13 36  1  0  0  0  0
 14 37  1  0  0  0  0
 16 38  1  0  0  0  0
 17 39  1  0  0  0  0
 19 40  1  0  0  0  0
 19 41  1  0  0  0  0
 22 42  1  0  0  0  0
 23 43  1  0  0  0  0
 23 44  1  0  0  0  0
 23 45  1  0  0  0  0
 24 46  1  0  0  0  0
 24 47  1  0  0  0  0
 25 48  1  0  0  0  0
 25 49  1  0  0  0  0
 26 50  1  0  0  0  0
 29 51  1  0  0  0  0
 29 52  1  0  0  0  0
 29 53  1  0  0  0  0
M  END
> <Name>
27

> <IC50[uM]>
0.68

$$$$
27
  -OEChem-05192314333D
 Structure written by MMmdl.
 53 56  0     1  0  0  0  0  0999 V2000
   -6.3855   12.3606  -12.0031 C   0  0  0  0  0  0  0  0  0  0  0  0
   -6.5214   11.8004  -10.7171 C   0  0  0  0  0  0  0  0  0  0  0  0
   -7.6991   10.5797  -13.0384 C   0  0  0  0  0  0  0  0  0  0  0  0
   -6.9626   11.7779  -13.1031 C   0  0  0  0  0  0  0  0  0  0  0  0
   -7.8238   10.0198  -11.7523 C   0  0  0  0  0  0  0  0  0  0  0  0
   -7.2557   10.6213  -10.5956 C   0  0  0  0  0  0  0  0  0  0  0  0
   -7.6268    9.7501   -9.5073 C   0  0  0  0  0  0  0  0  0  0  0  0
   -8.3057    8.7491   -9.9816 N   0  0  0  0  0  0  0  0  0  0  0  0
   -8.4330    8.8776  -11.2917 N   0  0  0  0  0  0  0  0  0  0  0  0
   -7.3352    9.8817   -8.0196 C   0  0  0  0  0  0  0  0  0  0  0  0
   -5.6205   13.5372  -12.2095 N   0  0  0  0  0  0  0  0  0  0  0  0
   -5.9727   10.4835   -7.7324 C   0  0  0  0  0  0  0  0  0  0  0  0
   -5.8611   11.7523   -7.1657 C   0  0  0  0  0  0  0  0  0  0  0  0
   -4.5946   12.2988   -6.9068 C   0  0  0  0  0  0  0  0  0  0  0  0
   -3.4432   11.5806   -7.2147 C   0  0  0  0  0  0  0  0  0  0  0  0
   -3.5570   10.3109   -7.7899 C   0  0  0  0  0  0  0  0  0  0  0  0
   -4.8253    9.7663   -8.0483 C   0  0  0  0  0  0  0  0  0  0  0  0
   -2.0926   12.1556   -6.9444 C   0  0  0  0  0  0  0  0  0  0  0  0
   -1.7338   13.4204   -6.4594 C   0  0  0  0  0  0  0  0  0  0  0  0
   -0.4064   13.4584   -6.4114 N   0  0  3  0  0  0  0  0  0  0  0  0
    0.1793   12.3493   -6.7865 N   0  0  0  0  0  0  0  0  0  0  0  0
   -0.7954   11.5387   -7.1512 C   0  0  0  0  0  0  0  0  0  0  0  0
    0.4205   14.5767   -6.0073 C   0  0  0  0  0  0  0  0  0  0  0  0
   -4.6894   13.8945  -11.1046 C   0  0  0  0  0  0  0  0  0  0  0  0
   -3.7822   15.1171  -11.3990 C   0  0  0  0  0  0  0  0  0  0  0  0
   -2.3310   14.9579  -11.2532 N   0  0  0  0  0  0  0  0  0  0  0  0
   -1.8099   14.4326  -10.1320 C   0  0  0  0  0  0  0  0  0  0  0  0
   -2.5019   14.0442   -9.2076 O   0  0  0  0  0  0  0  0  0  0  0  0
   -0.2869   14.3494  -10.0364 C   0  0  0  0  0  0  0  0  0  0  0  0
   -6.0716   12.2689   -9.8542 H   0  0  0  0  0  0  0  0  0  0  0  0
   -8.1374   10.1224  -13.9131 H   0  0  0  0  0  0  0  0  0  0  0  0
   -7.6459   12.5314  -13.5218 H   0  0  0  0  0  0  0  0  0  0  0  0
   -6.1429   11.5918  -13.8126 H   0  0  0  0  0  0  0  0  0  0  0  0
   -8.9138    8.2235  -11.8756 H   0  0  0  0  0  0  0  0  0  0  0  0
   -8.0269    9.5780   -7.2478 H   0  0  0  0  0  0  0  0  0  0  0  0
   -6.7507   12.3156   -6.9255 H   0  0  0  0  0  0  0  0  0  0  0  0
   -4.5132   13.2816   -6.4664 H   0  0  0  0  0  0  0  0  0  0  0  0
   -2.6683    9.7485   -8.0357 H   0  0  0  0  0  0  0  0  0  0  0  0
   -4.9092    8.7863   -8.4943 H   0  0  0  0  0  0  0  0  0  0  0  0
   -2.1095   14.2037   -7.1341 H   0  0  0  0  0  0  0  0  0  0  0  0
   -2.1522   13.5713   -5.4533 H   0  0  0  0  0  0  0  0  0  0  0  0
   -0.6475   10.5464   -7.5511 H   0  0  0  0  0  0  0  0  0  0  0  0
    1.4812   14.2962   -6.0855 H   0  0  0  0  0  0  0  0  0  0  0  0
    0.2196   15.4369   -6.6628 H   0  0  0  0  0  0  0  0  0  0  0  0
    0.1886   14.8468   -4.9665 H   0  0  0  0  0  0  0  0  0  0  0  0
   -5.2882   14.1185  -10.2095 H   0  0  0  0  0  0  0  0  0  0  0  0
   -4.0431   13.0269  -10.9057 H   0  0  0  0  0  0  0  0  0  0  0  0
   -3.9735   15.4217  -12.4385 H   0  0  0  0  0  0  0  0  0  0  0  0
   -4.0914   15.9235  -10.7178 H   0  0  0  0  0  0  0  0  0  0  0  0
   -1.9457   13.7098   -8.5138 H   0  0  0  0  0  0  0  0  0  0  0  0
   -0.0034   13.9020   -9.0723 H   0  0  0  0  0  0  0  0  0  0  0  0
    0.0984   13.7264  -10.8570 H   0  0  0  0  0  0  0  0  0  0  0  0
    0.1408   15.3601  -10.1114 H   0  0  0  0  0  0  0  0  0  0  0  0
  1  2  1  0  0  0  0
  1  4  1  0  0  0  0
  1 11  2  0  0  0  0
  2  6  2  0  0  0  0
  3  4  1  0  0  0  0
  3  5  2  0  0  0  0
  5  6  1  0  0  0  0
  5  9  1  0  0  0  0
  6  7  1  0  0  0  0
  7  8  2  0  0  0  0
  7 10  1  0  0  0  0
  8  9  1  0  0  0  0
 10 12  2  0  0  0  0
 11 24  1  0  0  0  0
 12 13  1  0  0  0  0
 12 17  1  0  0  0  0
 13 14  2  0  0  0  0
 14 15  1  0  0  0  0
 15 16  1  0  0  0  0
 15 18  2  0  0  0  0
 16 17  2  0  0  0  0
 18 19  1  0  0  0  0
 18 22  1  0  0  0  0
 19 20  1  0  0  0  0
 20 21  1  0  0  0  0
 20 23  1  0  0  0  0
 21 22  2  0  0  0  0
 24 25  1  0  0  0  0
 25 26  1  0  0  0  0
 26 27  2  0  0  0  0
 27 28  1  0  0  0  0
 27 29  1  0  0  0  0
  2 30  1  0  0  0  0
  3 31  1  0  0  0  0
  4 32  1  0  0  0  0
  4 33  1  0  0  0  0
  9 34  1  0  0  0  0
 10 35  1  0  0  0  0
 13 36  1  0  0  0  0
 14 37  1  0  0  0  0
 16 38  1  0  0  0  0
 17 39  1  0  0  0  0
 19 40  1  0  0  0  0
 19 41  1  0  0  0  0
 22 42  1  0  0  0  0
 23 43  1  0  0  0  0
 23 44  1  0  0  0  0
 23 45  1  0  0  0  0
 24 46  1  0  0  0  0
 24 47  1  0  0  0  0
 25 48  1  0  0  0  0
 25 49  1  0  0  0  0
 28 50  1  0  0  0  0
 29 51  1  0  0  0  0
 29 52  1  0  0  0  0
 29 53  1  0  0  0  0
M  END
> <Name>
27

> <IC50[uM]>
0.68

$$$$
27
  -OEChem-05192314333D
 Structure written by MMmdl.
 53 56  0     0  0  0  0  0  0999 V2000
   -6.3855   12.3606  -12.0031 C   0  0  0  0  0  0  0  0  0  0  0  0
   -6.5214   11.8004  -10.7171 C   0  0  0  0  0  0  0  0  0  0  0  0
   -7.6991   10.5797  -13.0384 C   0  0  0  0  0  0  0  0  0  0  0  0
   -6.9626   11.7779  -13.1031 C   0  0  0  0  0  0  0  0  0  0  0  0
   -7.8238   10.0198  -11.7523 C   0  0  0  0  0  0  0  0  0  0  0  0
   -7.2557   10.6213  -10.5956 C   0  0  0  0  0  0  0  0  0  0  0  0
   -7.6268    9.7501   -9.5073 C   0  0  0  0  0  0  0  0  0  0  0  0
   -8.3057    8.7491   -9.9816 N   0  0  0  0  0  0  0  0  0  0  0  0
   -8.4330    8.8776  -11.2917 N   0  0  0  0  0  0  0  0  0  0  0  0
   -7.3352    9.8817   -8.0196 C   0  0  0  0  0  0  0  0  0  0  0  0
   -5.6205   13.5372  -12.2095 N   0  0  0  0  0  0  0  0  0  0  0  0
   -5.9727   10.4835   -7.7324 C   0  0  0  0  0  0  0  0  0  0  0  0
   -5.8611   11.7523   -7.1657 C   0  0  0  0  0  0  0  0  0  0  0  0
   -4.5946   12.2988   -6.9068 C   0  0  0  0  0  0  0  0  0  0  0  0
   -3.4432   11.5806   -7.2147 C   0  0  0  0  0  0  0  0  0  0  0  0
   -3.5570   10.3109   -7.7899 C   0  0  0  0  0  0  0  0  0  0  0  0
   -4.8253    9.7663   -8.0483 C   0  0  0  0  0  0  0  0  0  0  0  0
   -2.0926   12.1556   -6.9444 C   0  0  0  0  0  0  0  0  0  0  0  0
   -1.7338   13.4204   -6.4594 C   0  0  0  0  0  0  0  0  0  0  0  0
   -0.4064   13.4584   -6.4114 N   0  0  0  0  0  0  0  0  0  0  0  0
    0.1793   12.3493   -6.7865 N   0  0  0  0  0  0  0  0  0  0  0  0
   -0.7954   11.5387   -7.1512 C   0  0  0  0  0  0  0  0  0  0  0  0
    0.4205   14.5767   -6.0073 C   0  0  0  0  0  0  0  0  0  0  0  0
   -4.6894   13.8945  -11.1046 C   0  0  0  0  0  0  0  0  0  0  0  0
   -3.7822   15.1171  -11.3990 C   0  0  0  0  0  0  0  0  0  0  0  0
   -2.3310   14.9579  -11.2532 N   0  0  0  0  0  0  0  0  0  0  0  0
   -1.8099   14.4326  -10.1320 C   0  0  0  0  0  0  0  0  0  0  0  0
   -2.5019   14.0442   -9.2076 O   0  0  0  0  0  0  0  0  0  0  0  0
   -0.2869   14.3494  -10.0364 C   0  0  0  0  0  0  0  0  0  0  0  0
   -5.5086   11.5965  -10.3394 H   0  0  0  0  0  0  0  0  0  0  0  0
   -7.0053   12.5553  -10.0799 H   0  0  0  0  0  0  0  0  0  0  0  0
   -8.1374   10.1224  -13.9131 H   0  0  0  0  0  0  0  0  0  0  0  0
   -6.8466   12.2604  -14.0624 H   0  0  0  0  0  0  0  0  0  0  0  0
   -8.6759    7.9956   -9.4383 H   0  0  0  0  0  0  0  0  0  0  0  0
   -8.0269    9.5780   -7.2478 H   0  0  0  0  0  0  0  0  0  0  0  0
   -6.7507   12.3156   -6.9255 H   0  0  0  0  0  0  0  0  0  0  0  0
   -4.5132   13.2816   -6.4664 H   0  0  0  0  0  0  0  0  0  0  0  0
   -3.4540   11.1294   -6.2116 H   0  0  0  0  0  0  0  0  0  0  0  0
   -2.6683    9.7485   -8.0357 H   0  0  0  0  0  0  0  0  0  0  0  0
   -4.9092    8.7863   -8.4943 H   0  0  0  0  0  0  0  0  0  0  0  0
   -2.4090   14.2148   -6.1776 H   0  0  0  0  0  0  0  0  0  0  0  0
   -0.6475   10.5464   -7.5511 H   0  0  0  0  0  0  0  0  0  0  0  0
    1.4812   14.2962   -6.0855 H   0  0  0  0  0  0  0  0  0  0  0  0
    0.2196   15.4369   -6.6628 H   0  0  0  0  0  0  0  0  0  0  0  0
    0.1886   14.8468   -4.9665 H   0  0  0  0  0  0  0  0  0  0  0  0
   -5.2882   14.1185  -10.2095 H   0  0  0  0  0  0  0  0  0  0  0  0
   -4.0431   13.0269  -10.9057 H   0  0  0  0  0  0  0  0  0  0  0  0
   -3.9735   15.4217  -12.4385 H   0  0  0  0  0  0  0  0  0  0  0  0
   -4.0914   15.9235  -10.7178 H   0  0  0  0  0  0  0  0  0  0  0  0
   -1.7243   15.2430  -11.9952 H   0  0  0  0  0  0  0  0  0  0  0  0
   -0.0031   13.9147   -9.0666 H   0  0  0  0  0  0  0  0  0  0  0  0
    0.0973   13.7152  -10.8489 H   0  0  0  0  0  0  0  0  0  0  0  0
    0.1416   15.3586  -10.1252 H   0  0  0  0  0  0  0  0  0  0  0  0
  1  2  1  0  0  0  0
  1  4  1  0  0  0  0
  1 11  2  0  0  0  0
  2  6  1  0  0  0  0
  3  4  2  0  0  0  0
  3  5  1  0  0  0  0
  5  6  1  0  0  0  0
  5  9  2  0  0  0  0
  6  7  2  0  0  0  0
  7  8  1  0  0  0  0
  7 10  1  0  0  0  0
  8  9  1  0  0  0  0
 10 12  2  0  0  0  0
 11 24  1  0  0  0  0
 12 13  1  0  0  0  0
 12 17  1  0  0  0  0
 13 14  2  0  0  0  0
 14 15  1  0  0  0  0
 15 16  1  0  0  0  0
 15 18  1  0  0  0  0
 16 17  2  0  0  0  0
 18 19  2  0  0  0  0
 18 22  1  0  0  0  0
 19 20  1  0  0  0  0
 20 21  1  0  0  0  0
 20 23  1  0  0  0  0
 21 22  2  0  0  0  0
 24 25  1  0  0  0  0
 25 26  1  0  0  0  0
 26 27  1  0  0  0  0
 27 28  2  0  0  0  0
 27 29  1  0  0  0  0
  2 30  1  0  0  0  0
  2 31  1  0  0  0  0
  3 32  1  0  0  0  0
  4 33  1  0  0  0  0
  8 34  1  0  0  0  0
 10 35  1  0  0  0  0
 13 36  1  0  0  0  0
 14 37  1  0  0  0  0
 15 38  1  0  0  0  0
 16 39  1  0  0  0  0
 17 40  1  0  0  0  0
 19 41  1  0  0  0  0
 22 42  1  0  0  0  0
 23 43  1  0  0  0  0
 23 44  1  0  0  0  0
 23 45  1  0  0  0  0
 24 46  1  0  0  0  0
 24 47  1  0  0  0  0
 25 48  1  0  0  0  0
 25 49  1  0  0  0  0
 26 50  1  0  0  0  0
 29 51  1  0  0  0  0
 29 52  1  0  0  0  0
 29 53  1  0  0  0  0
M  END
> <Name>
27

> <IC50[uM]>
0.68

$$$$
27
  -OEChem-05192314333D
 Structure written by MMmdl.
 53 56  0     0  0  0  0  0  0999 V2000
   -6.3855   12.3606  -12.0031 C   0  0  0  0  0  0  0  0  0  0  0  0
   -6.5214   11.8004  -10.7171 C   0  0  0  0  0  0  0  0  0  0  0  0
   -7.6991   10.5797  -13.0384 C   0  0  0  0  0  0  0  0  0  0  0  0
   -6.9626   11.7779  -13.1031 C   0  0  0  0  0  0  0  0  0  0  0  0
   -7.8238   10.0198  -11.7523 C   0  0  0  0  0  0  0  0  0  0  0  0
   -7.2557   10.6213  -10.5956 C   0  0  0  0  0  0  0  0  0  0  0  0
   -7.6268    9.7501   -9.5073 C   0  0  0  0  0  0  0  0  0  0  0  0
   -8.3057    8.7491   -9.9816 N   0  0  0  0  0  0  0  0  0  0  0  0
   -8.4330    8.8776  -11.2917 N   0  0  0  0  0  0  0  0  0  0  0  0
   -7.3352    9.8817   -8.0196 C   0  0  0  0  0  0  0  0  0  0  0  0
   -5.6205   13.5372  -12.2095 N   0  0  0  0  0  0  0  0  0  0  0  0
   -5.9727   10.4835   -7.7324 C   0  0  0  0  0  0  0  0  0  0  0  0
   -5.8611   11.7523   -7.1657 C   0  0  0  0  0  0  0  0  0  0  0  0
   -4.5946   12.2988   -6.9068 C   0  0  0  0  0  0  0  0  0  0  0  0
   -3.4432   11.5806   -7.2147 C   0  0  0  0  0  0  0  0  0  0  0  0
   -3.5570   10.3109   -7.7899 C   0  0  0  0  0  0  0  0  0  0  0  0
   -4.8253    9.7663   -8.0483 C   0  0  0  0  0  0  0  0  0  0  0  0
   -2.0926   12.1556   -6.9444 C   0  0  0  0  0  0  0  0  0  0  0  0
   -1.7338   13.4204   -6.4594 C   0  0  0  0  0  0  0  0  0  0  0  0
   -0.4064   13.4584   -6.4114 N   0  0  0  0  0  0  0  0  0  0  0  0
    0.1793   12.3493   -6.7865 N   0  0  0  0  0  0  0  0  0  0  0  0
   -0.7954   11.5387   -7.1512 C   0  0  0  0  0  0  0  0  0  0  0  0
    0.4205   14.5767   -6.0073 C   0  0  0  0  0  0  0  0  0  0  0  0
   -4.6894   13.8945  -11.1046 C   0  0  0  0  0  0  0  0  0  0  0  0
   -3.7822   15.1171  -11.3990 C   0  0  0  0  0  0  0  0  0  0  0  0
   -2.3310   14.9579  -11.2532 N   0  0  0  0  0  0  0  0  0  0  0  0
   -1.8099   14.4326  -10.1320 C   0  0  0  0  0  0  0  0  0  0  0  0
   -2.5019   14.0442   -9.2076 O   0  0  0  0  0  0  0  0  0  0  0  0
   -0.2869   14.3494  -10.0364 C   0  0  0  0  0  0  0  0  0  0  0  0
   -5.5086   11.5965  -10.3394 H   0  0  0  0  0  0  0  0  0  0  0  0
   -7.0053   12.5553  -10.0799 H   0  0  0  0  0  0  0  0  0  0  0  0
   -8.1374   10.1224  -13.9131 H   0  0  0  0  0  0  0  0  0  0  0  0
   -6.8466   12.2604  -14.0624 H   0  0  0  0  0  0  0  0  0  0  0  0
   -8.9138    8.2235  -11.8756 H   0  0  0  0  0  0  0  0  0  0  0  0
   -8.0269    9.5780   -7.2478 H   0  0  0  0  0  0  0  0  0  0  0  0
   -6.7507   12.3156   -6.9255 H   0  0  0  0  0  0  0  0  0  0  0  0
   -4.5132   13.2816   -6.4664 H   0  0  0  0  0  0  0  0  0  0  0  0
   -3.4540   11.1294   -6.2116 H   0  0  0  0  0  0  0  0  0  0  0  0
   -2.6683    9.7485   -8.0357 H   0  0  0  0  0  0  0  0  0  0  0  0
   -4.9092    8.7863   -8.4943 H   0  0  0  0  0  0  0  0  0  0  0  0
   -2.4090   14.2148   -6.1776 H   0  0  0  0  0  0  0  0  0  0  0  0
   -0.6475   10.5464   -7.5511 H   0  0  0  0  0  0  0  0  0  0  0  0
    1.4812   14.2962   -6.0855 H   0  0  0  0  0  0  0  0  0  0  0  0
    0.2196   15.4369   -6.6628 H   0  0  0  0  0  0  0  0  0  0  0  0
    0.1886   14.8468   -4.9665 H   0  0  0  0  0  0  0  0  0  0  0  0
   -5.2882   14.1185  -10.2095 H   0  0  0  0  0  0  0  0  0  0  0  0
   -4.0431   13.0269  -10.9057 H   0  0  0  0  0  0  0  0  0  0  0  0
   -3.9735   15.4217  -12.4385 H   0  0  0  0  0  0  0  0  0  0  0  0
   -4.0914   15.9235  -10.7178 H   0  0  0  0  0  0  0  0  0  0  0  0
   -1.7243   15.2430  -11.9952 H   0  0  0  0  0  0  0  0  0  0  0  0
   -0.0031   13.9147   -9.0666 H   0  0  0  0  0  0  0  0  0  0  0  0
    0.0973   13.7152  -10.8489 H   0  0  0  0  0  0  0  0  0  0  0  0
    0.1416   15.3586  -10.1252 H   0  0  0  0  0  0  0  0  0  0  0  0
  1  2  1  0  0  0  0
  1  4  1  0  0  0  0
  1 11  2  0  0  0  0
  2  6  1  0  0  0  0
  3  4  2  0  0  0  0
  3  5  1  0  0  0  0
  5  6  2  0  0  0  0
  5  9  1  0  0  0  0
  6  7  1  0  0  0  0
  7  8  2  0  0  0  0
  7 10  1  0  0  0  0
  8  9  1  0  0  0  0
 10 12  2  0  0  0  0
 11 24  1  0  0  0  0
 12 13  1  0  0  0  0
 12 17  1  0  0  0  0
 13 14  2  0  0  0  0
 14 15  1  0  0  0  0
 15 16  1  0  0  0  0
 15 18  1  0  0  0  0
 16 17  2  0  0  0  0
 18 19  2  0  0  0  0
 18 22  1  0  0  0  0
 19 20  1  0  0  0  0
 20 21  1  0  0  0  0
 20 23  1  0  0  0  0
 21 22  2  0  0  0  0
 24 25  1  0  0  0  0
 25 26  1  0  0  0  0
 26 27  1  0  0  0  0
 27 28  2  0  0  0  0
 27 29  1  0  0  0  0
  2 30  1  0  0  0  0
  2 31  1  0  0  0  0
  3 32  1  0  0  0  0
  4 33  1  0  0  0  0
  9 34  1  0  0  0  0
 10 35  1  0  0  0  0
 13 36  1  0  0  0  0
 14 37  1  0  0  0  0
 15 38  1  0  0  0  0
 16 39  1  0  0  0  0
 17 40  1  0  0  0  0
 19 41  1  0  0  0  0
 22 42  1  0  0  0  0
 23 43  1  0  0  0  0
 23 44  1  0  0  0  0
 23 45  1  0  0  0  0
 24 46  1  0  0  0  0
 24 47  1  0  0  0  0
 25 48  1  0  0  0  0
 25 49  1  0  0  0  0
 26 50  1  0  0  0  0
 29 51  1  0  0  0  0
 29 52  1  0  0  0  0
 29 53  1  0  0  0  0
M  END
> <Name>
27

> <IC50[uM]>
0.68

$$$$
27
  -OEChem-05192314333D
 Structure written by MMmdl.
 53 56  0     0  0  0  0  0  0999 V2000
   -6.3855   12.3606  -12.0031 C   0  0  0  0  0  0  0  0  0  0  0  0
   -6.5214   11.8004  -10.7171 C   0  0  0  0  0  0  0  0  0  0  0  0
   -7.6991   10.5797  -13.0384 C   0  0  0  0  0  0  0  0  0  0  0  0
   -6.9626   11.7779  -13.1031 C   0  0  0  0  0  0  0  0  0  0  0  0
   -7.8238   10.0198  -11.7523 C   0  0  0  0  0  0  0  0  0  0  0  0
   -7.2557   10.6213  -10.5956 C   0  0  0  0  0  0  0  0  0  0  0  0
   -7.6268    9.7501   -9.5073 C   0  0  0  0  0  0  0  0  0  0  0  0
   -8.3057    8.7491   -9.9816 N   0  0  0  0  0  0  0  0  0  0  0  0
   -8.4330    8.8776  -11.2917 N   0  0  0  0  0  0  0  0  0  0  0  0
   -7.3352    9.8817   -8.0196 C   0  0  0  0  0  0  0  0  0  0  0  0
   -5.6205   13.5372  -12.2095 N   0  0  0  0  0  0  0  0  0  0  0  0
   -5.9727   10.4835   -7.7324 C   0  0  0  0  0  0  0  0  0  0  0  0
   -5.8611   11.7523   -7.1657 C   0  0  0  0  0  0  0  0  0  0  0  0
   -4.5946   12.2988   -6.9068 C   0  0  0  0  0  0  0  0  0  0  0  0
   -3.4432   11.5806   -7.2147 C   0  0  0  0  0  0  0  0  0  0  0  0
   -3.5570   10.3109   -7.7899 C   0  0  0  0  0  0  0  0  0  0  0  0
   -4.8253    9.7663   -8.0483 C   0  0  0  0  0  0  0  0  0  0  0  0
   -2.0926   12.1556   -6.9444 C   0  0  0  0  0  0  0  0  0  0  0  0
   -1.7338   13.4204   -6.4594 C   0  0  0  0  0  0  0  0  0  0  0  0
   -0.4064   13.4584   -6.4114 N   0  0  0  0  0  0  0  0  0  0  0  0
    0.1793   12.3493   -6.7865 N   0  0  0  0  0  0  0  0  0  0  0  0
   -0.7954   11.5387   -7.1512 C   0  0  0  0  0  0  0  0  0  0  0  0
    0.4205   14.5767   -6.0073 C   0  0  0  0  0  0  0  0  0  0  0  0
   -4.6894   13.8945  -11.1046 C   0  0  0  0  0  0  0  0  0  0  0  0
   -3.7822   15.1171  -11.3990 C   0  0  0  0  0  0  0  0  0  0  0  0
   -2.3310   14.9579  -11.2532 N   0  0  0  0  0  0  0  0  0  0  0  0
   -1.8099   14.4326  -10.1320 C   0  0  0  0  0  0  0  0  0  0  0  0
   -2.5019   14.0442   -9.2076 O   0  0  0  0  0  0  0  0  0  0  0  0
   -0.2869   14.3494  -10.0364 C   0  0  0  0  0  0  0  0  0  0  0  0
   -5.5086   11.5965  -10.3394 H   0  0  0  0  0  0  0  0  0  0  0  0
   -7.0053   12.5553  -10.0799 H   0  0  0  0  0  0  0  0  0  0  0  0
   -8.1374   10.1224  -13.9131 H   0  0  0  0  0  0  0  0  0  0  0  0
   -6.8466   12.2604  -14.0624 H   0  0  0  0  0  0  0  0  0  0  0  0
   -8.6759    7.9956   -9.4383 H   0  0  0  0  0  0  0  0  0  0  0  0
   -8.0269    9.5780   -7.2478 H   0  0  0  0  0  0  0  0  0  0  0  0
   -6.7507   12.3156   -6.9255 H   0  0  0  0  0  0  0  0  0  0  0  0
   -4.5132   13.2816   -6.4664 H   0  0  0  0  0  0  0  0  0  0  0  0
   -2.6683    9.7485   -8.0357 H   0  0  0  0  0  0  0  0  0  0  0  0
   -4.8817    8.8185   -7.4929 H   0  0  0  0  0  0  0  0  0  0  0  0
   -4.8676    9.5615   -9.1282 H   0  0  0  0  0  0  0  0  0  0  0  0
   -2.4090   14.2148   -6.1776 H   0  0  0  0  0  0  0  0  0  0  0  0
   -0.6475   10.5464   -7.5511 H   0  0  0  0  0  0  0  0  0  0  0  0
    1.4812   14.2962   -6.0855 H   0  0  0  0  0  0  0  0  0  0  0  0
    0.2196   15.4369   -6.6628 H   0  0  0  0  0  0  0  0  0  0  0  0
    0.1886   14.8468   -4.9665 H   0  0  0  0  0  0  0  0  0  0  0  0
   -5.2882   14.1185  -10.2095 H   0  0  0  0  0  0  0  0  0  0  0  0
   -4.0431   13.0269  -10.9057 H   0  0  0  0  0  0  0  0  0  0  0  0
   -3.9735   15.4217  -12.4385 H   0  0  0  0  0  0  0  0  0  0  0  0
   -4.0914   15.9235  -10.7178 H   0  0  0  0  0  0  0  0  0  0  0  0
   -1.7243   15.2430  -11.9952 H   0  0  0  0  0  0  0  0  0  0  0  0
   -0.0031   13.9147   -9.0666 H   0  0  0  0  0  0  0  0  0  0  0  0
    0.0973   13.7152  -10.8489 H   0  0  0  0  0  0  0  0  0  0  0  0
    0.1416   15.3586  -10.1252 H   0  0  0  0  0  0  0  0  0  0  0  0
  1  2  1  0  0  0  0
  1  4  1  0  0  0  0
  1 11  2  0  0  0  0
  2  6  1  0  0  0  0
  3  4  2  0  0  0  0
  3  5  1  0  0  0  0
  5  6  1  0  0  0  0
  5  9  2  0  0  0  0
  6  7  2  0  0  0  0
  7  8  1  0  0  0  0
  7 10  1  0  0  0  0
  8  9  1  0  0  0  0
 10 12  2  3  0  0  0
 11 24  1  0  0  0  0
 12 13  1  0  0  0  0
 12 17  1  0  0  0  0
 13 14  2  0  0  0  0
 14 15  1  0  0  0  0
 15 16  2  0  0  0  0
 15 18  1  0  0  0  0
 16 17  1  0  0  0  0
 18 19  2  0  0  0  0
 18 22  1  0  0  0  0
 19 20  1  0  0  0  0
 20 21  1  0  0  0  0
 20 23  1  0  0  0  0
 21 22  2  0  0  0  0
 24 25  1  0  0  0  0
 25 26  1  0  0  0  0
 26 27  1  0  0  0  0
 27 28  2  0  0  0  0
 27 29  1  0  0  0  0
  2 30  1  0  0  0  0
  2 31  1  0  0  0  0
  3 32  1  0  0  0  0
  4 33  1  0  0  0  0
  8 34  1  0  0  0  0
 10 35  1  0  0  0  0
 13 36  1  0  0  0  0
 14 37  1  0  0  0  0
 16 38  1  0  0  0  0
 17 39  1  0  0  0  0
 17 40  1  0  0  0  0
 19 41  1  0  0  0  0
 22 42  1  0  0  0  0
 23 43  1  0  0  0  0
 23 44  1  0  0  0  0
 23 45  1  0  0  0  0
 24 46  1  0  0  0  0
 24 47  1  0  0  0  0
 25 48  1  0  0  0  0
 25 49  1  0  0  0  0
 26 50  1  0  0  0  0
 29 51  1  0  0  0  0
 29 52  1  0  0  0  0
 29 53  1  0  0  0  0
M  END
> <Name>
27

> <IC50[uM]>
0.68

$$$$
27
  -OEChem-05192314333D
 Structure written by MMmdl.
 53 56  0     0  0  0  0  0  0999 V2000
   -6.3855   12.3606  -12.0031 C   0  0  0  0  0  0  0  0  0  0  0  0
   -6.5214   11.8004  -10.7171 C   0  0  0  0  0  0  0  0  0  0  0  0
   -7.6991   10.5797  -13.0384 C   0  0  0  0  0  0  0  0  0  0  0  0
   -6.9626   11.7779  -13.1031 C   0  0  0  0  0  0  0  0  0  0  0  0
   -7.8238   10.0198  -11.7523 C   0  0  0  0  0  0  0  0  0  0  0  0
   -7.2557   10.6213  -10.5956 C   0  0  0  0  0  0  0  0  0  0  0  0
   -7.6268    9.7501   -9.5073 C   0  0  0  0  0  0  0  0  0  0  0  0
   -8.3057    8.7491   -9.9816 N   0  0  0  0  0  0  0  0  0  0  0  0
   -8.4330    8.8776  -11.2917 N   0  0  0  0  0  0  0  0  0  0  0  0
   -7.3352    9.8817   -8.0196 C   0  0  0  0  0  0  0  0  0  0  0  0
   -5.6205   13.5372  -12.2095 N   0  0  0  0  0  0  0  0  0  0  0  0
   -5.9727   10.4835   -7.7324 C   0  0  0  0  0  0  0  0  0  0  0  0
   -5.8611   11.7523   -7.1657 C   0  0  0  0  0  0  0  0  0  0  0  0
   -4.5946   12.2988   -6.9068 C   0  0  0  0  0  0  0  0  0  0  0  0
   -3.4432   11.5806   -7.2147 C   0  0  0  0  0  0  0  0  0  0  0  0
   -3.5570   10.3109   -7.7899 C   0  0  0  0  0  0  0  0  0  0  0  0
   -4.8253    9.7663   -8.0483 C   0  0  0  0  0  0  0  0  0  0  0  0
   -2.0926   12.1556   -6.9444 C   0  0  0  0  0  0  0  0  0  0  0  0
   -1.7338   13.4204   -6.4594 C   0  0  0  0  0  0  0  0  0  0  0  0
   -0.4064   13.4584   -6.4114 N   0  0  0  0  0  0  0  0  0  0  0  0
    0.1793   12.3493   -6.7865 N   0  0  0  0  0  0  0  0  0  0  0  0
   -0.7954   11.5387   -7.1512 C   0  0  0  0  0  0  0  0  0  0  0  0
    0.4205   14.5767   -6.0073 C   0  0  0  0  0  0  0  0  0  0  0  0
   -4.6894   13.8945  -11.1046 C   0  0  0  0  0  0  0  0  0  0  0  0
   -3.7822   15.1171  -11.3990 C   0  0  0  0  0  0  0  0  0  0  0  0
   -2.3310   14.9579  -11.2532 N   0  0  0  0  0  0  0  0  0  0  0  0
   -1.8099   14.4326  -10.1320 C   0  0  0  0  0  0  0  0  0  0  0  0
   -2.5019   14.0442   -9.2076 O   0  0  0  0  0  0  0  0  0  0  0  0
   -0.2869   14.3494  -10.0364 C   0  0  0  0  0  0  0  0  0  0  0  0
   -5.5086   11.5965  -10.3394 H   0  0  0  0  0  0  0  0  0  0  0  0
   -7.0053   12.5553  -10.0799 H   0  0  0  0  0  0  0  0  0  0  0  0
   -8.1374   10.1224  -13.9131 H   0  0  0  0  0  0  0  0  0  0  0  0
   -6.8466   12.2604  -14.0624 H   0  0  0  0  0  0  0  0  0  0  0  0
   -8.9138    8.2235  -11.8756 H   0  0  0  0  0  0  0  0  0  0  0  0
   -8.0269    9.5780   -7.2478 H   0  0  0  0  0  0  0  0  0  0  0  0
   -6.7507   12.3156   -6.9255 H   0  0  0  0  0  0  0  0  0  0  0  0
   -4.5132   13.2816   -6.4664 H   0  0  0  0  0  0  0  0  0  0  0  0
   -2.6683    9.7485   -8.0357 H   0  0  0  0  0  0  0  0  0  0  0  0
   -4.8817    8.8185   -7.4929 H   0  0  0  0  0  0  0  0  0  0  0  0
   -4.8676    9.5615   -9.1282 H   0  0  0  0  0  0  0  0  0  0  0  0
   -2.4090   14.2148   -6.1776 H   0  0  0  0  0  0  0  0  0  0  0  0
   -0.6475   10.5464   -7.5511 H   0  0  0  0  0  0  0  0  0  0  0  0
    1.4812   14.2962   -6.0855 H   0  0  0  0  0  0  0  0  0  0  0  0
    0.2196   15.4369   -6.6628 H   0  0  0  0  0  0  0  0  0  0  0  0
    0.1886   14.8468   -4.9665 H   0  0  0  0  0  0  0  0  0  0  0  0
   -5.2882   14.1185  -10.2095 H   0  0  0  0  0  0  0  0  0  0  0  0
   -4.0431   13.0269  -10.9057 H   0  0  0  0  0  0  0  0  0  0  0  0
   -3.9735   15.4217  -12.4385 H   0  0  0  0  0  0  0  0  0  0  0  0
   -4.0914   15.9235  -10.7178 H   0  0  0  0  0  0  0  0  0  0  0  0
   -1.7243   15.2430  -11.9952 H   0  0  0  0  0  0  0  0  0  0  0  0
   -0.0031   13.9147   -9.0666 H   0  0  0  0  0  0  0  0  0  0  0  0
    0.0973   13.7152  -10.8489 H   0  0  0  0  0  0  0  0  0  0  0  0
    0.1416   15.3586  -10.1252 H   0  0  0  0  0  0  0  0  0  0  0  0
  1  2  1  0  0  0  0
  1  4  1  0  0  0  0
  1 11  2  0  0  0  0
  2  6  1  0  0  0  0
  3  4  2  0  0  0  0
  3  5  1  0  0  0  0
  5  6  2  0  0  0  0
  5  9  1  0  0  0  0
  6  7  1  0  0  0  0
  7  8  2  0  0  0  0
  7 10  1  0  0  0  0
  8  9  1  0  0  0  0
 10 12  2  3  0  0  0
 11 24  1  0  0  0  0
 12 13  1  0  0  0  0
 12 17  1  0  0  0  0
 13 14  2  0  0  0  0
 14 15  1  0  0  0  0
 15 16  2  0  0  0  0
 15 18  1  0  0  0  0
 16 17  1  0  0  0  0
 18 19  2  0  0  0  0
 18 22  1  0  0  0  0
 19 20  1  0  0  0  0
 20 21  1  0  0  0  0
 20 23  1  0  0  0  0
 21 22  2  0  0  0  0
 24 25  1  0  0  0  0
 25 26  1  0  0  0  0
 26 27  1  0  0  0  0
 27 28  2  0  0  0  0
 27 29  1  0  0  0  0
  2 30  1  0  0  0  0
  2 31  1  0  0  0  0
  3 32  1  0  0  0  0
  4 33  1  0  0  0  0
  9 34  1  0  0  0  0
 10 35  1  0  0  0  0
 13 36  1  0  0  0  0
 14 37  1  0  0  0  0
 16 38  1  0  0  0  0
 17 39  1  0  0  0  0
 17 40  1  0  0  0  0
 19 41  1  0  0  0  0
 22 42  1  0  0  0  0
 23 43  1  0  0  0  0
 23 44  1  0  0  0  0
 23 45  1  0  0  0  0
 24 46  1  0  0  0  0
 24 47  1  0  0  0  0
 25 48  1  0  0  0  0
 25 49  1  0  0  0  0
 26 50  1  0  0  0  0
 29 51  1  0  0  0  0
 29 52  1  0  0  0  0
 29 53  1  0  0  0  0
M  END
> <Name>
27

> <IC50[uM]>
0.68

$$$$
27
  -OEChem-05192314333D
 Structure written by MMmdl.
 53 56  0     0  0  0  0  0  0999 V2000
   -6.3855   12.3606  -12.0031 C   0  0  0  0  0  0  0  0  0  0  0  0
   -6.5214   11.8004  -10.7171 C   0  0  0  0  0  0  0  0  0  0  0  0
   -7.6991   10.5797  -13.0384 C   0  0  0  0  0  0  0  0  0  0  0  0
   -6.9626   11.7779  -13.1031 C   0  0  0  0  0  0  0  0  0  0  0  0
   -7.8238   10.0198  -11.7523 C   0  0  0  0  0  0  0  0  0  0  0  0
   -7.2557   10.6213  -10.5956 C   0  0  0  0  0  0  0  0  0  0  0  0
   -7.6268    9.7501   -9.5073 C   0  0  0  0  0  0  0  0  0  0  0  0
   -8.3057    8.7491   -9.9816 N   0  0  0  0  0  0  0  0  0  0  0  0
   -8.4330    8.8776  -11.2917 N   0  0  0  0  0  0  0  0  0  0  0  0
   -7.3352    9.8817   -8.0196 C   0  0  0  0  0  0  0  0  0  0  0  0
   -5.6205   13.5372  -12.2095 N   0  0  0  0  0  0  0  0  0  0  0  0
   -5.9727   10.4835   -7.7324 C   0  0  0  0  0  0  0  0  0  0  0  0
   -5.8611   11.7523   -7.1657 C   0  0  0  0  0  0  0  0  0  0  0  0
   -4.5946   12.2988   -6.9068 C   0  0  0  0  0  0  0  0  0  0  0  0
   -3.4432   11.5806   -7.2147 C   0  0  0  0  0  0  0  0  0  0  0  0
   -3.5570   10.3109   -7.7899 C   0  0  0  0  0  0  0  0  0  0  0  0
   -4.8253    9.7663   -8.0483 C   0  0  0  0  0  0  0  0  0  0  0  0
   -2.0926   12.1556   -6.9444 C   0  0  0  0  0  0  0  0  0  0  0  0
   -1.7338   13.4204   -6.4594 C   0  0  0  0  0  0  0  0  0  0  0  0
   -0.4064   13.4584   -6.4114 N   0  0  0  0  0  0  0  0  0  0  0  0
    0.1793   12.3493   -6.7865 N   0  0  0  0  0  0  0  0  0  0  0  0
   -0.7954   11.5387   -7.1512 C   0  0  0  0  0  0  0  0  0  0  0  0
    0.4205   14.5767   -6.0073 C   0  0  0  0  0  0  0  0  0  0  0  0
   -4.6894   13.8945  -11.1046 C   0  0  0  0  0  0  0  0  0  0  0  0
   -3.7822   15.1171  -11.3990 C   0  0  0  0  0  0  0  0  0  0  0  0
   -2.3310   14.9579  -11.2532 N   0  0  0  0  0  0  0  0  0  0  0  0
   -1.8099   14.4326  -10.1320 C   0  0  0  0  0  0  0  0  0  0  0  0
   -2.5019   14.0442   -9.2076 O   0  0  0  0  0  0  0  0  0  0  0  0
   -0.2869   14.3494  -10.0364 C   0  0  0  0  0  0  0  0  0  0  0  0
   -5.5086   11.5965  -10.3394 H   0  0  0  0  0  0  0  0  0  0  0  0
   -7.0053   12.5553  -10.0799 H   0  0  0  0  0  0  0  0  0  0  0  0
   -8.1374   10.1224  -13.9131 H   0  0  0  0  0  0  0  0  0  0  0  0
   -6.8466   12.2604  -14.0624 H   0  0  0  0  0  0  0  0  0  0  0  0
   -8.6759    7.9956   -9.4383 H   0  0  0  0  0  0  0  0  0  0  0  0
   -8.0269    9.5780   -7.2478 H   0  0  0  0  0  0  0  0  0  0  0  0
   -6.7507   12.3156   -6.9255 H   0  0  0  0  0  0  0  0  0  0  0  0
   -4.5132   13.2816   -6.4664 H   0  0  0  0  0  0  0  0  0  0  0  0
   -3.4540   11.1294   -6.2116 H   0  0  0  0  0  0  0  0  0  0  0  0
   -2.6683    9.7485   -8.0357 H   0  0  0  0  0  0  0  0  0  0  0  0
   -4.9092    8.7863   -8.4943 H   0  0  0  0  0  0  0  0  0  0  0  0
   -2.4090   14.2148   -6.1776 H   0  0  0  0  0  0  0  0  0  0  0  0
   -0.6475   10.5464   -7.5511 H   0  0  0  0  0  0  0  0  0  0  0  0
    1.4812   14.2962   -6.0855 H   0  0  0  0  0  0  0  0  0  0  0  0
    0.2196   15.4369   -6.6628 H   0  0  0  0  0  0  0  0  0  0  0  0
    0.1886   14.8468   -4.9665 H   0  0  0  0  0  0  0  0  0  0  0  0
   -5.2882   14.1185  -10.2095 H   0  0  0  0  0  0  0  0  0  0  0  0
   -4.0431   13.0269  -10.9057 H   0  0  0  0  0  0  0  0  0  0  0  0
   -3.9735   15.4217  -12.4385 H   0  0  0  0  0  0  0  0  0  0  0  0
   -4.0914   15.9235  -10.7178 H   0  0  0  0  0  0  0  0  0  0  0  0
   -1.9457   13.7098   -8.5138 H   0  0  0  0  0  0  0  0  0  0  0  0
   -0.0034   13.9020   -9.0723 H   0  0  0  0  0  0  0  0  0  0  0  0
    0.0984   13.7264  -10.8570 H   0  0  0  0  0  0  0  0  0  0  0  0
    0.1408   15.3601  -10.1114 H   0  0  0  0  0  0  0  0  0  0  0  0
  1  2  1  0  0  0  0
  1  4  1  0  0  0  0
  1 11  2  0  0  0  0
  2  6  1  0  0  0  0
  3  4  2  0  0  0  0
  3  5  1  0  0  0  0
  5  6  1  0  0  0  0
  5  9  2  0  0  0  0
  6  7  2  0  0  0  0
  7  8  1  0  0  0  0
  7 10  1  0  0  0  0
  8  9  1  0  0  0  0
 10 12  2  0  0  0  0
 11 24  1  0  0  0  0
 12 13  1  0  0  0  0
 12 17  1  0  0  0  0
 13 14  2  0  0  0  0
 14 15  1  0  0  0  0
 15 16  1  0  0  0  0
 15 18  1  0  0  0  0
 16 17  2  0  0  0  0
 18 19  2  0  0  0  0
 18 22  1  0  0  0  0
 19 20  1  0  0  0  0
 20 21  1  0  0  0  0
 20 23  1  0  0  0  0
 21 22  2  0  0  0  0
 24 25  1  0  0  0  0
 25 26  1  0  0  0  0
 26 27  2  0  0  0  0
 27 28  1  0  0  0  0
 27 29  1  0  0  0  0
  2 30  1  0  0  0  0
  2 31  1  0  0  0  0
  3 32  1  0  0  0  0
  4 33  1  0  0  0  0
  8 34  1  0  0  0  0
 10 35  1  0  0  0  0
 13 36  1  0  0  0  0
 14 37  1  0  0  0  0
 15 38  1  0  0  0  0
 16 39  1  0  0  0  0
 17 40  1  0  0  0  0
 19 41  1  0  0  0  0
 22 42  1  0  0  0  0
 23 43  1  0  0  0  0
 23 44  1  0  0  0  0
 23 45  1  0  0  0  0
 24 46  1  0  0  0  0
 24 47  1  0  0  0  0
 25 48  1  0  0  0  0
 25 49  1  0  0  0  0
 28 50  1  0  0  0  0
 29 51  1  0  0  0  0
 29 52  1  0  0  0  0
 29 53  1  0  0  0  0
M  END
> <Name>
27

> <IC50[uM]>
0.68

$$$$
27
  -OEChem-05192314333D
 Structure written by MMmdl.
 53 56  0     0  0  0  0  0  0999 V2000
   -6.3855   12.3606  -12.0031 C   0  0  0  0  0  0  0  0  0  0  0  0
   -6.5214   11.8004  -10.7171 C   0  0  0  0  0  0  0  0  0  0  0  0
   -7.6991   10.5797  -13.0384 C   0  0  0  0  0  0  0  0  0  0  0  0
   -6.9626   11.7779  -13.1031 C   0  0  0  0  0  0  0  0  0  0  0  0
   -7.8238   10.0198  -11.7523 C   0  0  0  0  0  0  0  0  0  0  0  0
   -7.2557   10.6213  -10.5956 C   0  0  0  0  0  0  0  0  0  0  0  0
   -7.6268    9.7501   -9.5073 C   0  0  0  0  0  0  0  0  0  0  0  0
   -8.3057    8.7491   -9.9816 N   0  0  0  0  0  0  0  0  0  0  0  0
   -8.4330    8.8776  -11.2917 N   0  0  0  0  0  0  0  0  0  0  0  0
   -7.3352    9.8817   -8.0196 C   0  0  0  0  0  0  0  0  0  0  0  0
   -5.6205   13.5372  -12.2095 N   0  0  0  0  0  0  0  0  0  0  0  0
   -5.9727   10.4835   -7.7324 C   0  0  0  0  0  0  0  0  0  0  0  0
   -5.8611   11.7523   -7.1657 C   0  0  0  0  0  0  0  0  0  0  0  0
   -4.5946   12.2988   -6.9068 C   0  0  0  0  0  0  0  0  0  0  0  0
   -3.4432   11.5806   -7.2147 C   0  0  0  0  0  0  0  0  0  0  0  0
   -3.5570   10.3109   -7.7899 C   0  0  0  0  0  0  0  0  0  0  0  0
   -4.8253    9.7663   -8.0483 C   0  0  0  0  0  0  0  0  0  0  0  0
   -2.0926   12.1556   -6.9444 C   0  0  0  0  0  0  0  0  0  0  0  0
   -1.7338   13.4204   -6.4594 C   0  0  0  0  0  0  0  0  0  0  0  0
   -0.4064   13.4584   -6.4114 N   0  0  0  0  0  0  0  0  0  0  0  0
    0.1793   12.3493   -6.7865 N   0  0  0  0  0  0  0  0  0  0  0  0
   -0.7954   11.5387   -7.1512 C   0  0  0  0  0  0  0  0  0  0  0  0
    0.4205   14.5767   -6.0073 C   0  0  0  0  0  0  0  0  0  0  0  0
   -4.6894   13.8945  -11.1046 C   0  0  0  0  0  0  0  0  0  0  0  0
   -3.7822   15.1171  -11.3990 C   0  0  0  0  0  0  0  0  0  0  0  0
   -2.3310   14.9579  -11.2532 N   0  0  0  0  0  0  0  0  0  0  0  0
   -1.8099   14.4326  -10.1320 C   0  0  0  0  0  0  0  0  0  0  0  0
   -2.5019   14.0442   -9.2076 O   0  0  0  0  0  0  0  0  0  0  0  0
   -0.2869   14.3494  -10.0364 C   0  0  0  0  0  0  0  0  0  0  0  0
   -5.5086   11.5965  -10.3394 H   0  0  0  0  0  0  0  0  0  0  0  0
   -7.0053   12.5553  -10.0799 H   0  0  0  0  0  0  0  0  0  0  0  0
   -8.1374   10.1224  -13.9131 H   0  0  0  0  0  0  0  0  0  0  0  0
   -6.8466   12.2604  -14.0624 H   0  0  0  0  0  0  0  0  0  0  0  0
   -8.9138    8.2235  -11.8756 H   0  0  0  0  0  0  0  0  0  0  0  0
   -8.0269    9.5780   -7.2478 H   0  0  0  0  0  0  0  0  0  0  0  0
   -6.7507   12.3156   -6.9255 H   0  0  0  0  0  0  0  0  0  0  0  0
   -4.5132   13.2816   -6.4664 H   0  0  0  0  0  0  0  0  0  0  0  0
   -3.4540   11.1294   -6.2116 H   0  0  0  0  0  0  0  0  0  0  0  0
   -2.6683    9.7485   -8.0357 H   0  0  0  0  0  0  0  0  0  0  0  0
   -4.9092    8.7863   -8.4943 H   0  0  0  0  0  0  0  0  0  0  0  0
   -2.4090   14.2148   -6.1776 H   0  0  0  0  0  0  0  0  0  0  0  0
   -0.6475   10.5464   -7.5511 H   0  0  0  0  0  0  0  0  0  0  0  0
    1.4812   14.2962   -6.0855 H   0  0  0  0  0  0  0  0  0  0  0  0
    0.2196   15.4369   -6.6628 H   0  0  0  0  0  0  0  0  0  0  0  0
    0.1886   14.8468   -4.9665 H   0  0  0  0  0  0  0  0  0  0  0  0
   -5.2882   14.1185  -10.2095 H   0  0  0  0  0  0  0  0  0  0  0  0
   -4.0431   13.0269  -10.9057 H   0  0  0  0  0  0  0  0  0  0  0  0
   -3.9735   15.4217  -12.4385 H   0  0  0  0  0  0  0  0  0  0  0  0
   -4.0914   15.9235  -10.7178 H   0  0  0  0  0  0  0  0  0  0  0  0
   -1.9457   13.7098   -8.5138 H   0  0  0  0  0  0  0  0  0  0  0  0
   -0.0034   13.9020   -9.0723 H   0  0  0  0  0  0  0  0  0  0  0  0
    0.0984   13.7264  -10.8570 H   0  0  0  0  0  0  0  0  0  0  0  0
    0.1408   15.3601  -10.1114 H   0  0  0  0  0  0  0  0  0  0  0  0
  1  2  1  0  0  0  0
  1  4  1  0  0  0  0
  1 11  2  0  0  0  0
  2  6  1  0  0  0  0
  3  4  2  0  0  0  0
  3  5  1  0  0  0  0
  5  6  2  0  0  0  0
  5  9  1  0  0  0  0
  6  7  1  0  0  0  0
  7  8  2  0  0  0  0
  7 10  1  0  0  0  0
  8  9  1  0  0  0  0
 10 12  2  0  0  0  0
 11 24  1  0  0  0  0
 12 13  1  0  0  0  0
 12 17  1  0  0  0  0
 13 14  2  0  0  0  0
 14 15  1  0  0  0  0
 15 16  1  0  0  0  0
 15 18  1  0  0  0  0
 16 17  2  0  0  0  0
 18 19  2  0  0  0  0
 18 22  1  0  0  0  0
 19 20  1  0  0  0  0
 20 21  1  0  0  0  0
 20 23  1  0  0  0  0
 21 22  2  0  0  0  0
 24 25  1  0  0  0  0
 25 26  1  0  0  0  0
 26 27  2  0  0  0  0
 27 28  1  0  0  0  0
 27 29  1  0  0  0  0
  2 30  1  0  0  0  0
  2 31  1  0  0  0  0
  3 32  1  0  0  0  0
  4 33  1  0  0  0  0
  9 34  1  0  0  0  0
 10 35  1  0  0  0  0
 13 36  1  0  0  0  0
 14 37  1  0  0  0  0
 15 38  1  0  0  0  0
 16 39  1  0  0  0  0
 17 40  1  0  0  0  0
 19 41  1  0  0  0  0
 22 42  1  0  0  0  0
 23 43  1  0  0  0  0
 23 44  1  0  0  0  0
 23 45  1  0  0  0  0
 24 46  1  0  0  0  0
 24 47  1  0  0  0  0
 25 48  1  0  0  0  0
 25 49  1  0  0  0  0
 28 50  1  0  0  0  0
 29 51  1  0  0  0  0
 29 52  1  0  0  0  0
 29 53  1  0  0  0  0
M  END
> <Name>
27

> <IC50[uM]>
0.68

$$$$
27
  -OEChem-05192314333D
 Structure written by MMmdl.
 53 56  0     0  0  0  0  0  0999 V2000
   -6.3855   12.3606  -12.0031 C   0  0  0  0  0  0  0  0  0  0  0  0
   -6.5214   11.8004  -10.7171 C   0  0  0  0  0  0  0  0  0  0  0  0
   -7.6991   10.5797  -13.0384 C   0  0  0  0  0  0  0  0  0  0  0  0
   -6.9626   11.7779  -13.1031 C   0  0  0  0  0  0  0  0  0  0  0  0
   -7.8238   10.0198  -11.7523 C   0  0  0  0  0  0  0  0  0  0  0  0
   -7.2557   10.6213  -10.5956 C   0  0  0  0  0  0  0  0  0  0  0  0
   -7.6268    9.7501   -9.5073 C   0  0  0  0  0  0  0  0  0  0  0  0
   -8.3057    8.7491   -9.9816 N   0  0  0  0  0  0  0  0  0  0  0  0
   -8.4330    8.8776  -11.2917 N   0  0  0  0  0  0  0  0  0  0  0  0
   -7.3352    9.8817   -8.0196 C   0  0  0  0  0  0  0  0  0  0  0  0
   -5.6205   13.5372  -12.2095 N   0  0  0  0  0  0  0  0  0  0  0  0
   -5.9727   10.4835   -7.7324 C   0  0  0  0  0  0  0  0  0  0  0  0
   -5.8611   11.7523   -7.1657 C   0  0  0  0  0  0  0  0  0  0  0  0
   -4.5946   12.2988   -6.9068 C   0  0  0  0  0  0  0  0  0  0  0  0
   -3.4432   11.5806   -7.2147 C   0  0  0  0  0  0  0  0  0  0  0  0
   -3.5570   10.3109   -7.7899 C   0  0  0  0  0  0  0  0  0  0  0  0
   -4.8253    9.7663   -8.0483 C   0  0  0  0  0  0  0  0  0  0  0  0
   -2.0926   12.1556   -6.9444 C   0  0  0  0  0  0  0  0  0  0  0  0
   -1.7338   13.4204   -6.4594 C   0  0  0  0  0  0  0  0  0  0  0  0
   -0.4064   13.4584   -6.4114 N   0  0  0  0  0  0  0  0  0  0  0  0
    0.1793   12.3493   -6.7865 N   0  0  0  0  0  0  0  0  0  0  0  0
   -0.7954   11.5387   -7.1512 C   0  0  0  0  0  0  0  0  0  0  0  0
    0.4205   14.5767   -6.0073 C   0  0  0  0  0  0  0  0  0  0  0  0
   -4.6894   13.8945  -11.1046 C   0  0  0  0  0  0  0  0  0  0  0  0
   -3.7822   15.1171  -11.3990 C   0  0  0  0  0  0  0  0  0  0  0  0
   -2.3310   14.9579  -11.2532 N   0  0  0  0  0  0  0  0  0  0  0  0
   -1.8099   14.4326  -10.1320 C   0  0  0  0  0  0  0  0  0  0  0  0
   -2.5019   14.0442   -9.2076 O   0  0  0  0  0  0  0  0  0  0  0  0
   -0.2869   14.3494  -10.0364 C   0  0  0  0  0  0  0  0  0  0  0  0
   -5.5086   11.5965  -10.3394 H   0  0  0  0  0  0  0  0  0  0  0  0
   -7.0053   12.5553  -10.0799 H   0  0  0  0  0  0  0  0  0  0  0  0
   -8.1374   10.1224  -13.9131 H   0  0  0  0  0  0  0  0  0  0  0  0
   -6.8466   12.2604  -14.0624 H   0  0  0  0  0  0  0  0  0  0  0  0
   -8.6759    7.9956   -9.4383 H   0  0  0  0  0  0  0  0  0  0  0  0
   -8.0269    9.5780   -7.2478 H   0  0  0  0  0  0  0  0  0  0  0  0
   -6.7507   12.3156   -6.9255 H   0  0  0  0  0  0  0  0  0  0  0  0
   -4.5132   13.2816   -6.4664 H   0  0  0  0  0  0  0  0  0  0  0  0
   -2.6683    9.7485   -8.0357 H   0  0  0  0  0  0  0  0  0  0  0  0
   -4.8817    8.8185   -7.4929 H   0  0  0  0  0  0  0  0  0  0  0  0
   -4.8676    9.5615   -9.1282 H   0  0  0  0  0  0  0  0  0  0  0  0
   -2.4090   14.2148   -6.1776 H   0  0  0  0  0  0  0  0  0  0  0  0
   -0.6475   10.5464   -7.5511 H   0  0  0  0  0  0  0  0  0  0  0  0
    1.4812   14.2962   -6.0855 H   0  0  0  0  0  0  0  0  0  0  0  0
    0.2196   15.4369   -6.6628 H   0  0  0  0  0  0  0  0  0  0  0  0
    0.1886   14.8468   -4.9665 H   0  0  0  0  0  0  0  0  0  0  0  0
   -5.2882   14.1185  -10.2095 H   0  0  0  0  0  0  0  0  0  0  0  0
   -4.0431   13.0269  -10.9057 H   0  0  0  0  0  0  0  0  0  0  0  0
   -3.9735   15.4217  -12.4385 H   0  0  0  0  0  0  0  0  0  0  0  0
   -4.0914   15.9235  -10.7178 H   0  0  0  0  0  0  0  0  0  0  0  0
   -1.9457   13.7098   -8.5138 H   0  0  0  0  0  0  0  0  0  0  0  0
   -0.0034   13.9020   -9.0723 H   0  0  0  0  0  0  0  0  0  0  0  0
    0.0984   13.7264  -10.8570 H   0  0  0  0  0  0  0  0  0  0  0  0
    0.1408   15.3601  -10.1114 H   0  0  0  0  0  0  0  0  0  0  0  0
  1  2  1  0  0  0  0
  1  4  1  0  0  0  0
  1 11  2  0  0  0  0
  2  6  1  0  0  0  0
  3  4  2  0  0  0  0
  3  5  1  0  0  0  0
  5  6  1  0  0  0  0
  5  9  2  0  0  0  0
  6  7  2  0  0  0  0
  7  8  1  0  0  0  0
  7 10  1  0  0  0  0
  8  9  1  0  0  0  0
 10 12  2  3  0  0  0
 11 24  1  0  0  0  0
 12 13  1  0  0  0  0
 12 17  1  0  0  0  0
 13 14  2  0  0  0  0
 14 15  1  0  0  0  0
 15 16  2  0  0  0  0
 15 18  1  0  0  0  0
 16 17  1  0  0  0  0
 18 19  2  0  0  0  0
 18 22  1  0  0  0  0
 19 20  1  0  0  0  0
 20 21  1  0  0  0  0
 20 23  1  0  0  0  0
 21 22  2  0  0  0  0
 24 25  1  0  0  0  0
 25 26  1  0  0  0  0
 26 27  2  0  0  0  0
 27 28  1  0  0  0  0
 27 29  1  0  0  0  0
  2 30  1  0  0  0  0
  2 31  1  0  0  0  0
  3 32  1  0  0  0  0
  4 33  1  0  0  0  0
  8 34  1  0  0  0  0
 10 35  1  0  0  0  0
 13 36  1  0  0  0  0
 14 37  1  0  0  0  0
 16 38  1  0  0  0  0
 17 39  1  0  0  0  0
 17 40  1  0  0  0  0
 19 41  1  0  0  0  0
 22 42  1  0  0  0  0
 23 43  1  0  0  0  0
 23 44  1  0  0  0  0
 23 45  1  0  0  0  0
 24 46  1  0  0  0  0
 24 47  1  0  0  0  0
 25 48  1  0  0  0  0
 25 49  1  0  0  0  0
 28 50  1  0  0  0  0
 29 51  1  0  0  0  0
 29 52  1  0  0  0  0
 29 53  1  0  0  0  0
M  END
> <Name>
27

> <IC50[uM]>
0.68

$$$$
27
  -OEChem-05192314333D
 Structure written by MMmdl.
 53 56  0     0  0  0  0  0  0999 V2000
   -6.3855   12.3606  -12.0031 C   0  0  0  0  0  0  0  0  0  0  0  0
   -6.5214   11.8004  -10.7171 C   0  0  0  0  0  0  0  0  0  0  0  0
   -7.6991   10.5797  -13.0384 C   0  0  0  0  0  0  0  0  0  0  0  0
   -6.9626   11.7779  -13.1031 C   0  0  0  0  0  0  0  0  0  0  0  0
   -7.8238   10.0198  -11.7523 C   0  0  0  0  0  0  0  0  0  0  0  0
   -7.2557   10.6213  -10.5956 C   0  0  0  0  0  0  0  0  0  0  0  0
   -7.6268    9.7501   -9.5073 C   0  0  0  0  0  0  0  0  0  0  0  0
   -8.3057    8.7491   -9.9816 N   0  0  0  0  0  0  0  0  0  0  0  0
   -8.4330    8.8776  -11.2917 N   0  0  0  0  0  0  0  0  0  0  0  0
   -7.3352    9.8817   -8.0196 C   0  0  0  0  0  0  0  0  0  0  0  0
   -5.6205   13.5372  -12.2095 N   0  0  0  0  0  0  0  0  0  0  0  0
   -5.9727   10.4835   -7.7324 C   0  0  0  0  0  0  0  0  0  0  0  0
   -5.8611   11.7523   -7.1657 C   0  0  0  0  0  0  0  0  0  0  0  0
   -4.5946   12.2988   -6.9068 C   0  0  0  0  0  0  0  0  0  0  0  0
   -3.4432   11.5806   -7.2147 C   0  0  0  0  0  0  0  0  0  0  0  0
   -3.5570   10.3109   -7.7899 C   0  0  0  0  0  0  0  0  0  0  0  0
   -4.8253    9.7663   -8.0483 C   0  0  0  0  0  0  0  0  0  0  0  0
   -2.0926   12.1556   -6.9444 C   0  0  0  0  0  0  0  0  0  0  0  0
   -1.7338   13.4204   -6.4594 C   0  0  0  0  0  0  0  0  0  0  0  0
   -0.4064   13.4584   -6.4114 N   0  0  0  0  0  0  0  0  0  0  0  0
    0.1793   12.3493   -6.7865 N   0  0  0  0  0  0  0  0  0  0  0  0
   -0.7954   11.5387   -7.1512 C   0  0  0  0  0  0  0  0  0  0  0  0
    0.4205   14.5767   -6.0073 C   0  0  0  0  0  0  0  0  0  0  0  0
   -4.6894   13.8945  -11.1046 C   0  0  0  0  0  0  0  0  0  0  0  0
   -3.7822   15.1171  -11.3990 C   0  0  0  0  0  0  0  0  0  0  0  0
   -2.3310   14.9579  -11.2532 N   0  0  0  0  0  0  0  0  0  0  0  0
   -1.8099   14.4326  -10.1320 C   0  0  0  0  0  0  0  0  0  0  0  0
   -2.5019   14.0442   -9.2076 O   0  0  0  0  0  0  0  0  0  0  0  0
   -0.2869   14.3494  -10.0364 C   0  0  0  0  0  0  0  0  0  0  0  0
   -5.5086   11.5965  -10.3394 H   0  0  0  0  0  0  0  0  0  0  0  0
   -7.0053   12.5553  -10.0799 H   0  0  0  0  0  0  0  0  0  0  0  0
   -8.1374   10.1224  -13.9131 H   0  0  0  0  0  0  0  0  0  0  0  0
   -6.8466   12.2604  -14.0624 H   0  0  0  0  0  0  0  0  0  0  0  0
   -8.9138    8.2235  -11.8756 H   0  0  0  0  0  0  0  0  0  0  0  0
   -8.0269    9.5780   -7.2478 H   0  0  0  0  0  0  0  0  0  0  0  0
   -6.7507   12.3156   -6.9255 H   0  0  0  0  0  0  0  0  0  0  0  0
   -4.5132   13.2816   -6.4664 H   0  0  0  0  0  0  0  0  0  0  0  0
   -2.6683    9.7485   -8.0357 H   0  0  0  0  0  0  0  0  0  0  0  0
   -4.8817    8.8185   -7.4929 H   0  0  0  0  0  0  0  0  0  0  0  0
   -4.8676    9.5615   -9.1282 H   0  0  0  0  0  0  0  0  0  0  0  0
   -2.4090   14.2148   -6.1776 H   0  0  0  0  0  0  0  0  0  0  0  0
   -0.6475   10.5464   -7.5511 H   0  0  0  0  0  0  0  0  0  0  0  0
    1.4812   14.2962   -6.0855 H   0  0  0  0  0  0  0  0  0  0  0  0
    0.2196   15.4369   -6.6628 H   0  0  0  0  0  0  0  0  0  0  0  0
    0.1886   14.8468   -4.9665 H   0  0  0  0  0  0  0  0  0  0  0  0
   -5.2882   14.1185  -10.2095 H   0  0  0  0  0  0  0  0  0  0  0  0
   -4.0431   13.0269  -10.9057 H   0  0  0  0  0  0  0  0  0  0  0  0
   -3.9735   15.4217  -12.4385 H   0  0  0  0  0  0  0  0  0  0  0  0
   -4.0914   15.9235  -10.7178 H   0  0  0  0  0  0  0  0  0  0  0  0
   -1.9457   13.7098   -8.5138 H   0  0  0  0  0  0  0  0  0  0  0  0
   -0.0034   13.9020   -9.0723 H   0  0  0  0  0  0  0  0  0  0  0  0
    0.0984   13.7264  -10.8570 H   0  0  0  0  0  0  0  0  0  0  0  0
    0.1408   15.3601  -10.1114 H   0  0  0  0  0  0  0  0  0  0  0  0
  1  2  1  0  0  0  0
  1  4  1  0  0  0  0
  1 11  2  0  0  0  0
  2  6  1  0  0  0  0
  3  4  2  0  0  0  0
  3  5  1  0  0  0  0
  5  6  2  0  0  0  0
  5  9  1  0  0  0  0
  6  7  1  0  0  0  0
  7  8  2  0  0  0  0
  7 10  1  0  0  0  0
  8  9  1  0  0  0  0
 10 12  2  3  0  0  0
 11 24  1  0  0  0  0
 12 13  1  0  0  0  0
 12 17  1  0  0  0  0
 13 14  2  0  0  0  0
 14 15  1  0  0  0  0
 15 16  2  0  0  0  0
 15 18  1  0  0  0  0
 16 17  1  0  0  0  0
 18 19  2  0  0  0  0
 18 22  1  0  0  0  0
 19 20  1  0  0  0  0
 20 21  1  0  0  0  0
 20 23  1  0  0  0  0
 21 22  2  0  0  0  0
 24 25  1  0  0  0  0
 25 26  1  0  0  0  0
 26 27  2  0  0  0  0
 27 28  1  0  0  0  0
 27 29  1  0  0  0  0
  2 30  1  0  0  0  0
  2 31  1  0  0  0  0
  3 32  1  0  0  0  0
  4 33  1  0  0  0  0
  9 34  1  0  0  0  0
 10 35  1  0  0  0  0
 13 36  1  0  0  0  0
 14 37  1  0  0  0  0
 16 38  1  0  0  0  0
 17 39  1  0  0  0  0
 17 40  1  0  0  0  0
 19 41  1  0  0  0  0
 22 42  1  0  0  0  0
 23 43  1  0  0  0  0
 23 44  1  0  0  0  0
 23 45  1  0  0  0  0
 24 46  1  0  0  0  0
 24 47  1  0  0  0  0
 25 48  1  0  0  0  0
 25 49  1  0  0  0  0
 28 50  1  0  0  0  0
 29 51  1  0  0  0  0
 29 52  1  0  0  0  0
 29 53  1  0  0  0  0
M  END
> <Name>
27

> <IC50[uM]>
0.68

$$$$
27
  -OEChem-05192314333D
 Structure written by MMmdl.
 53 56  0     0  0  0  0  0  0999 V2000
   -6.3855   12.3606  -12.0031 C   0  0  0  0  0  0  0  0  0  0  0  0
   -6.5214   11.8004  -10.7171 C   0  0  0  0  0  0  0  0  0  0  0  0
   -7.6991   10.5797  -13.0384 C   0  0  0  0  0  0  0  0  0  0  0  0
   -6.9626   11.7779  -13.1031 C   0  0  0  0  0  0  0  0  0  0  0  0
   -7.8238   10.0198  -11.7523 C   0  0  0  0  0  0  0  0  0  0  0  0
   -7.2557   10.6213  -10.5956 C   0  0  0  0  0  0  0  0  0  0  0  0
   -7.6268    9.7501   -9.5073 C   0  0  0  0  0  0  0  0  0  0  0  0
   -8.3057    8.7491   -9.9816 N   0  0  0  0  0  0  0  0  0  0  0  0
   -8.4330    8.8776  -11.2917 N   0  0  0  0  0  0  0  0  0  0  0  0
   -7.3352    9.8817   -8.0196 C   0  0  0  0  0  0  0  0  0  0  0  0
   -5.6205   13.5372  -12.2095 N   0  0  0  0  0  0  0  0  0  0  0  0
   -5.9727   10.4835   -7.7324 C   0  0  0  0  0  0  0  0  0  0  0  0
   -5.8611   11.7523   -7.1657 C   0  0  0  0  0  0  0  0  0  0  0  0
   -4.5946   12.2988   -6.9068 C   0  0  0  0  0  0  0  0  0  0  0  0
   -3.4432   11.5806   -7.2147 C   0  0  0  0  0  0  0  0  0  0  0  0
   -3.5570   10.3109   -7.7899 C   0  0  0  0  0  0  0  0  0  0  0  0
   -4.8253    9.7663   -8.0483 C   0  0  0  0  0  0  0  0  0  0  0  0
   -2.0926   12.1556   -6.9444 C   0  0  0  0  0  0  0  0  0  0  0  0
   -1.7338   13.4204   -6.4594 C   0  0  0  0  0  0  0  0  0  0  0  0
   -0.4064   13.4584   -6.4114 N   0  0  0  0  0  0  0  0  0  0  0  0
    0.1793   12.3493   -6.7865 N   0  0  0  0  0  0  0  0  0  0  0  0
   -0.7954   11.5387   -7.1512 C   0  0  0  0  0  0  0  0  0  0  0  0
    0.4205   14.5767   -6.0073 C   0  0  0  0  0  0  0  0  0  0  0  0
   -4.6894   13.8945  -11.1046 C   0  0  0  0  0  0  0  0  0  0  0  0
   -3.7822   15.1171  -11.3990 C   0  0  0  0  0  0  0  0  0  0  0  0
   -2.3310   14.9579  -11.2532 N   0  0  0  0  0  0  0  0  0  0  0  0
   -1.8099   14.4326  -10.1320 C   0  0  0  0  0  0  0  0  0  0  0  0
   -2.5019   14.0442   -9.2076 O   0  0  0  0  0  0  0  0  0  0  0  0
   -0.2869   14.3494  -10.0364 C   0  0  0  0  0  0  0  0  0  0  0  0
   -6.0716   12.2689   -9.8542 H   0  0  0  0  0  0  0  0  0  0  0  0
   -8.1374   10.1224  -13.9131 H   0  0  0  0  0  0  0  0  0  0  0  0
   -6.8466   12.2604  -14.0624 H   0  0  0  0  0  0  0  0  0  0  0  0
   -8.6759    7.9956   -9.4383 H   0  0  0  0  0  0  0  0  0  0  0  0
   -8.0269    9.5780   -7.2478 H   0  0  0  0  0  0  0  0  0  0  0  0
   -5.9820   10.0328   -6.7290 H   0  0  0  0  0  0  0  0  0  0  0  0
   -6.7507   12.3156   -6.9255 H   0  0  0  0  0  0  0  0  0  0  0  0
   -4.5132   13.2816   -6.4664 H   0  0  0  0  0  0  0  0  0  0  0  0
   -3.4540   11.1294   -6.2116 H   0  0  0  0  0  0  0  0  0  0  0  0
   -2.6683    9.7485   -8.0357 H   0  0  0  0  0  0  0  0  0  0  0  0
   -4.9092    8.7863   -8.4943 H   0  0  0  0  0  0  0  0  0  0  0  0
   -2.4090   14.2148   -6.1776 H   0  0  0  0  0  0  0  0  0  0  0  0
   -0.6475   10.5464   -7.5511 H   0  0  0  0  0  0  0  0  0  0  0  0
    1.4812   14.2962   -6.0855 H   0  0  0  0  0  0  0  0  0  0  0  0
    0.2196   15.4369   -6.6628 H   0  0  0  0  0  0  0  0  0  0  0  0
    0.1886   14.8468   -4.9665 H   0  0  0  0  0  0  0  0  0  0  0  0
   -5.2882   14.1185  -10.2095 H   0  0  0  0  0  0  0  0  0  0  0  0
   -4.0431   13.0269  -10.9057 H   0  0  0  0  0  0  0  0  0  0  0  0
   -3.9735   15.4217  -12.4385 H   0  0  0  0  0  0  0  0  0  0  0  0
   -4.0914   15.9235  -10.7178 H   0  0  0  0  0  0  0  0  0  0  0  0
   -1.7243   15.2430  -11.9952 H   0  0  0  0  0  0  0  0  0  0  0  0
   -0.0031   13.9147   -9.0666 H   0  0  0  0  0  0  0  0  0  0  0  0
    0.0973   13.7152  -10.8489 H   0  0  0  0  0  0  0  0  0  0  0  0
    0.1416   15.3586  -10.1252 H   0  0  0  0  0  0  0  0  0  0  0  0
  1  2  1  0  0  0  0
  1  4  1  0  0  0  0
  1 11  2  0  0  0  0
  2  6  2  0  0  0  0
  3  4  2  0  0  0  0
  3  5  1  0  0  0  0
  5  6  1  0  0  0  0
  5  9  2  0  0  0  0
  6  7  1  0  0  0  0
  7  8  1  0  0  0  0
  7 10  2  3  0  0  0
  8  9  1  0  0  0  0
 10 12  1  0  0  0  0
 11 24  1  0  0  0  0
 12 13  1  0  0  0  0
 12 17  1  0  0  0  0
 13 14  2  0  0  0  0
 14 15  1  0  0  0  0
 15 16  1  0  0  0  0
 15 18  1  0  0  0  0
 16 17  2  0  0  0  0
 18 19  2  0  0  0  0
 18 22  1  0  0  0  0
 19 20  1  0  0  0  0
 20 21  1  0  0  0  0
 20 23  1  0  0  0  0
 21 22  2  0  0  0  0
 24 25  1  0  0  0  0
 25 26  1  0  0  0  0
 26 27  1  0  0  0  0
 27 28  2  0  0  0  0
 27 29  1  0  0  0  0
  2 30  1  0  0  0  0
  3 31  1  0  0  0  0
  4 32  1  0  0  0  0
  8 33  1  0  0  0  0
 10 34  1  0  0  0  0
 12 35  1  0  0  0  0
 13 36  1  0  0  0  0
 14 37  1  0  0  0  0
 15 38  1  0  0  0  0
 16 39  1  0  0  0  0
 17 40  1  0  0  0  0
 19 41  1  0  0  0  0
 22 42  1  0  0  0  0
 23 43  1  0  0  0  0
 23 44  1  0  0  0  0
 23 45  1  0  0  0  0
 24 46  1  0  0  0  0
 24 47  1  0  0  0  0
 25 48  1  0  0  0  0
 25 49  1  0  0  0  0
 26 50  1  0  0  0  0
 29 51  1  0  0  0  0
 29 52  1  0  0  0  0
 29 53  1  0  0  0  0
M  END
> <Name>
27

> <IC50[uM]>
0.68

$$$$
27
  -OEChem-05192314333D
 Structure written by MMmdl.
 53 56  0     0  0  0  0  0  0999 V2000
   -6.3855   12.3606  -12.0031 C   0  0  0  0  0  0  0  0  0  0  0  0
   -6.5214   11.8004  -10.7171 C   0  0  0  0  0  0  0  0  0  0  0  0
   -7.6991   10.5797  -13.0384 C   0  0  0  0  0  0  0  0  0  0  0  0
   -6.9626   11.7779  -13.1031 C   0  0  0  0  0  0  0  0  0  0  0  0
   -7.8238   10.0198  -11.7523 C   0  0  0  0  0  0  0  0  0  0  0  0
   -7.2557   10.6213  -10.5956 C   0  0  0  0  0  0  0  0  0  0  0  0
   -7.6268    9.7501   -9.5073 C   0  0  0  0  0  0  0  0  0  0  0  0
   -8.3057    8.7491   -9.9816 N   0  0  0  0  0  0  0  0  0  0  0  0
   -8.4330    8.8776  -11.2917 N   0  0  0  0  0  0  0  0  0  0  0  0
   -7.3352    9.8817   -8.0196 C   0  0  0  0  0  0  0  0  0  0  0  0
   -5.6205   13.5372  -12.2095 N   0  0  0  0  0  0  0  0  0  0  0  0
   -5.9727   10.4835   -7.7324 C   0  0  0  0  0  0  0  0  0  0  0  0
   -5.8611   11.7523   -7.1657 C   0  0  0  0  0  0  0  0  0  0  0  0
   -4.5946   12.2988   -6.9068 C   0  0  0  0  0  0  0  0  0  0  0  0
   -3.4432   11.5806   -7.2147 C   0  0  0  0  0  0  0  0  0  0  0  0
   -3.5570   10.3109   -7.7899 C   0  0  0  0  0  0  0  0  0  0  0  0
   -4.8253    9.7663   -8.0483 C   0  0  0  0  0  0  0  0  0  0  0  0
   -2.0926   12.1556   -6.9444 C   0  0  0  0  0  0  0  0  0  0  0  0
   -1.7338   13.4204   -6.4594 C   0  0  0  0  0  0  0  0  0  0  0  0
   -0.4064   13.4584   -6.4114 N   0  0  0  0  0  0  0  0  0  0  0  0
    0.1793   12.3493   -6.7865 N   0  0  0  0  0  0  0  0  0  0  0  0
   -0.7954   11.5387   -7.1512 C   0  0  0  0  0  0  0  0  0  0  0  0
    0.4205   14.5767   -6.0073 C   0  0  0  0  0  0  0  0  0  0  0  0
   -4.6894   13.8945  -11.1046 C   0  0  0  0  0  0  0  0  0  0  0  0
   -3.7822   15.1171  -11.3990 C   0  0  0  0  0  0  0  0  0  0  0  0
   -2.3310   14.9579  -11.2532 N   0  0  0  0  0  0  0  0  0  0  0  0
   -1.8099   14.4326  -10.1320 C   0  0  0  0  0  0  0  0  0  0  0  0
   -2.5019   14.0442   -9.2076 O   0  0  0  0  0  0  0  0  0  0  0  0
   -0.2869   14.3494  -10.0364 C   0  0  0  0  0  0  0  0  0  0  0  0
   -6.0716   12.2689   -9.8542 H   0  0  0  0  0  0  0  0  0  0  0  0
   -8.1374   10.1224  -13.9131 H   0  0  0  0  0  0  0  0  0  0  0  0
   -7.6459   12.5314  -13.5218 H   0  0  0  0  0  0  0  0  0  0  0  0
   -6.1429   11.5918  -13.8126 H   0  0  0  0  0  0  0  0  0  0  0  0
   -8.9138    8.2235  -11.8756 H   0  0  0  0  0  0  0  0  0  0  0  0
   -8.0269    9.5780   -7.2478 H   0  0  0  0  0  0  0  0  0  0  0  0
   -6.7507   12.3156   -6.9255 H   0  0  0  0  0  0  0  0  0  0  0  0
   -4.5132   13.2816   -6.4664 H   0  0  0  0  0  0  0  0  0  0  0  0
   -3.4540   11.1294   -6.2116 H   0  0  0  0  0  0  0  0  0  0  0  0
   -2.6683    9.7485   -8.0357 H   0  0  0  0  0  0  0  0  0  0  0  0
   -4.9092    8.7863   -8.4943 H   0  0  0  0  0  0  0  0  0  0  0  0
   -2.4090   14.2148   -6.1776 H   0  0  0  0  0  0  0  0  0  0  0  0
   -0.6475   10.5464   -7.5511 H   0  0  0  0  0  0  0  0  0  0  0  0
    1.4812   14.2962   -6.0855 H   0  0  0  0  0  0  0  0  0  0  0  0
    0.2196   15.4369   -6.6628 H   0  0  0  0  0  0  0  0  0  0  0  0
    0.1886   14.8468   -4.9665 H   0  0  0  0  0  0  0  0  0  0  0  0
   -5.2882   14.1185  -10.2095 H   0  0  0  0  0  0  0  0  0  0  0  0
   -4.0431   13.0269  -10.9057 H   0  0  0  0  0  0  0  0  0  0  0  0
   -3.9735   15.4217  -12.4385 H   0  0  0  0  0  0  0  0  0  0  0  0
   -4.0914   15.9235  -10.7178 H   0  0  0  0  0  0  0  0  0  0  0  0
   -1.7243   15.2430  -11.9952 H   0  0  0  0  0  0  0  0  0  0  0  0
   -0.0031   13.9147   -9.0666 H   0  0  0  0  0  0  0  0  0  0  0  0
    0.0973   13.7152  -10.8489 H   0  0  0  0  0  0  0  0  0  0  0  0
    0.1416   15.3586  -10.1252 H   0  0  0  0  0  0  0  0  0  0  0  0
  1  2  1  0  0  0  0
  1  4  1  0  0  0  0
  1 11  2  0  0  0  0
  2  6  2  0  0  0  0
  3  4  1  0  0  0  0
  3  5  2  0  0  0  0
  5  6  1  0  0  0  0
  5  9  1  0  0  0  0
  6  7  1  0  0  0  0
  7  8  2  0  0  0  0
  7 10  1  0  0  0  0
  8  9  1  0  0  0  0
 10 12  2  0  0  0  0
 11 24  1  0  0  0  0
 12 13  1  0  0  0  0
 12 17  1  0  0  0  0
 13 14  2  0  0  0  0
 14 15  1  0  0  0  0
 15 16  1  0  0  0  0
 15 18  1  0  0  0  0
 16 17  2  0  0  0  0
 18 19  2  0  0  0  0
 18 22  1  0  0  0  0
 19 20  1  0  0  0  0
 20 21  1  0  0  0  0
 20 23  1  0  0  0  0
 21 22  2  0  0  0  0
 24 25  1  0  0  0  0
 25 26  1  0  0  0  0
 26 27  1  0  0  0  0
 27 28  2  0  0  0  0
 27 29  1  0  0  0  0
  2 30  1  0  0  0  0
  3 31  1  0  0  0  0
  4 32  1  0  0  0  0
  4 33  1  0  0  0  0
  9 34  1  0  0  0  0
 10 35  1  0  0  0  0
 13 36  1  0  0  0  0
 14 37  1  0  0  0  0
 15 38  1  0  0  0  0
 16 39  1  0  0  0  0
 17 40  1  0  0  0  0
 19 41  1  0  0  0  0
 22 42  1  0  0  0  0
 23 43  1  0  0  0  0
 23 44  1  0  0  0  0
 23 45  1  0  0  0  0
 24 46  1  0  0  0  0
 24 47  1  0  0  0  0
 25 48  1  0  0  0  0
 25 49  1  0  0  0  0
 26 50  1  0  0  0  0
 29 51  1  0  0  0  0
 29 52  1  0  0  0  0
 29 53  1  0  0  0  0
M  END
> <Name>
27

> <IC50[uM]>
0.68

$$$$
27
  -OEChem-05192314333D
 Structure written by MMmdl.
 53 56  0     1  0  0  0  0  0999 V2000
   -6.3855   12.3606  -12.0031 C   0  0  0  0  0  0  0  0  0  0  0  0
   -6.5214   11.8004  -10.7171 C   0  0  0  0  0  0  0  0  0  0  0  0
   -7.6991   10.5797  -13.0384 C   0  0  0  0  0  0  0  0  0  0  0  0
   -6.9626   11.7779  -13.1031 C   0  0  0  0  0  0  0  0  0  0  0  0
   -7.8238   10.0198  -11.7523 C   0  0  0  0  0  0  0  0  0  0  0  0
   -7.2557   10.6213  -10.5956 C   0  0  0  0  0  0  0  0  0  0  0  0
   -7.6268    9.7501   -9.5073 C   0  0  0  0  0  0  0  0  0  0  0  0
   -8.3057    8.7491   -9.9816 N   0  0  0  0  0  0  0  0  0  0  0  0
   -8.4330    8.8776  -11.2917 N   0  0  0  0  0  0  0  0  0  0  0  0
   -7.3352    9.8817   -8.0196 C   0  0  0  0  0  0  0  0  0  0  0  0
   -5.6205   13.5372  -12.2095 N   0  0  0  0  0  0  0  0  0  0  0  0
   -5.9727   10.4835   -7.7324 C   0  0  0  0  0  0  0  0  0  0  0  0
   -5.8611   11.7523   -7.1657 C   0  0  0  0  0  0  0  0  0  0  0  0
   -4.5946   12.2988   -6.9068 C   0  0  0  0  0  0  0  0  0  0  0  0
   -3.4432   11.5806   -7.2147 C   0  0  3  0  0  0  0  0  0  0  0  0
   -3.5570   10.3109   -7.7899 C   0  0  0  0  0  0  0  0  0  0  0  0
   -4.8253    9.7663   -8.0483 C   0  0  0  0  0  0  0  0  0  0  0  0
   -2.0926   12.1556   -6.9444 C   0  0  0  0  0  0  0  0  0  0  0  0
   -1.7338   13.4204   -6.4594 C   0  0  0  0  0  0  0  0  0  0  0  0
   -0.4064   13.4584   -6.4114 N   0  0  0  0  0  0  0  0  0  0  0  0
    0.1793   12.3493   -6.7865 N   0  0  0  0  0  0  0  0  0  0  0  0
   -0.7954   11.5387   -7.1512 C   0  0  0  0  0  0  0  0  0  0  0  0
    0.4205   14.5767   -6.0073 C   0  0  0  0  0  0  0  0  0  0  0  0
   -4.6894   13.8945  -11.1046 C   0  0  0  0  0  0  0  0  0  0  0  0
   -3.7822   15.1171  -11.3990 C   0  0  0  0  0  0  0  0  0  0  0  0
   -2.3310   14.9579  -11.2532 N   0  0  0  0  0  0  0  0  0  0  0  0
   -1.8099   14.4326  -10.1320 C   0  0  0  0  0  0  0  0  0  0  0  0
   -2.5019   14.0442   -9.2076 O   0  0  0  0  0  0  0  0  0  0  0  0
   -0.2869   14.3494  -10.0364 C   0  0  0  0  0  0  0  0  0  0  0  0
   -6.0716   12.2689   -9.8542 H   0  0  0  0  0  0  0  0  0  0  0  0
   -8.1374   10.1224  -13.9131 H   0  0  0  0  0  0  0  0  0  0  0  0
   -6.8466   12.2604  -14.0624 H   0  0  0  0  0  0  0  0  0  0  0  0
   -8.6759    7.9956   -9.4383 H   0  0  0  0  0  0  0  0  0  0  0  0
   -8.0269    9.5780   -7.2478 H   0  0  0  0  0  0  0  0  0  0  0  0
   -6.7507   12.3156   -6.9255 H   0  0  0  0  0  0  0  0  0  0  0  0
   -4.5373   13.2433   -7.4677 H   0  0  0  0  0  0  0  0  0  0  0  0
   -4.5562   12.5101   -5.8280 H   0  0  0  0  0  0  0  0  0  0  0  0
   -3.4540   11.1294   -6.2116 H   0  0  0  0  0  0  0  0  0  0  0  0
   -2.6683    9.7485   -8.0357 H   0  0  0  0  0  0  0  0  0  0  0  0
   -4.9092    8.7863   -8.4943 H   0  0  0  0  0  0  0  0  0  0  0  0
   -2.4090   14.2148   -6.1776 H   0  0  0  0  0  0  0  0  0  0  0  0
   -0.6475   10.5464   -7.5511 H   0  0  0  0  0  0  0  0  0  0  0  0
    1.4812   14.2962   -6.0855 H   0  0  0  0  0  0  0  0  0  0  0  0
    0.2196   15.4369   -6.6628 H   0  0  0  0  0  0  0  0  0  0  0  0
    0.1886   14.8468   -4.9665 H   0  0  0  0  0  0  0  0  0  0  0  0
   -5.2882   14.1185  -10.2095 H   0  0  0  0  0  0  0  0  0  0  0  0
   -4.0431   13.0269  -10.9057 H   0  0  0  0  0  0  0  0  0  0  0  0
   -3.9735   15.4217  -12.4385 H   0  0  0  0  0  0  0  0  0  0  0  0
   -4.0914   15.9235  -10.7178 H   0  0  0  0  0  0  0  0  0  0  0  0
   -1.7243   15.2430  -11.9952 H   0  0  0  0  0  0  0  0  0  0  0  0
   -0.0031   13.9147   -9.0666 H   0  0  0  0  0  0  0  0  0  0  0  0
    0.0973   13.7152  -10.8489 H   0  0  0  0  0  0  0  0  0  0  0  0
    0.1416   15.3586  -10.1252 H   0  0  0  0  0  0  0  0  0  0  0  0
  1  2  1  0  0  0  0
  1  4  1  0  0  0  0
  1 11  2  0  0  0  0
  2  6  2  0  0  0  0
  3  4  2  0  0  0  0
  3  5  1  0  0  0  0
  5  6  1  0  0  0  0
  5  9  2  0  0  0  0
  6  7  1  0  0  0  0
  7  8  1  0  0  0  0
  7 10  2  3  0  0  0
  8  9  1  0  0  0  0
 10 12  1  0  0  0  0
 11 24  1  0  0  0  0
 12 13  2  0  0  0  0
 12 17  1  0  0  0  0
 13 14  1  0  0  0  0
 14 15  1  0  0  0  0
 15 16  1  0  0  0  0
 15 18  1  0  0  0  0
 16 17  2  0  0  0  0
 18 19  2  0  0  0  0
 18 22  1  0  0  0  0
 19 20  1  0  0  0  0
 20 21  1  0  0  0  0
 20 23  1  0  0  0  0
 21 22  2  0  0  0  0
 24 25  1  0  0  0  0
 25 26  1  0  0  0  0
 26 27  1  0  0  0  0
 27 28  2  0  0  0  0
 27 29  1  0  0  0  0
  2 30  1  0  0  0  0
  3 31  1  0  0  0  0
  4 32  1  0  0  0  0
  8 33  1  0  0  0  0
 10 34  1  0  0  0  0
 13 35  1  0  0  0  0
 14 36  1  0  0  0  0
 14 37  1  0  0  0  0
 15 38  1  0  0  0  0
 16 39  1  0  0  0  0
 17 40  1  0  0  0  0
 19 41  1  0  0  0  0
 22 42  1  0  0  0  0
 23 43  1  0  0  0  0
 23 44  1  0  0  0  0
 23 45  1  0  0  0  0
 24 46  1  0  0  0  0
 24 47  1  0  0  0  0
 25 48  1  0  0  0  0
 25 49  1  0  0  0  0
 26 50  1  0  0  0  0
 29 51  1  0  0  0  0
 29 52  1  0  0  0  0
 29 53  1  0  0  0  0
M  END
> <Name>
27

> <IC50[uM]>
0.68

$$$$
27
  -OEChem-05192314333D
 Structure written by MMmdl.
 53 56  0     1  0  0  0  0  0999 V2000
   -6.3855   12.3606  -12.0031 C   0  0  0  0  0  0  0  0  0  0  0  0
   -6.5214   11.8004  -10.7171 C   0  0  0  0  0  0  0  0  0  0  0  0
   -7.6991   10.5797  -13.0384 C   0  0  0  0  0  0  0  0  0  0  0  0
   -6.9626   11.7779  -13.1031 C   0  0  0  0  0  0  0  0  0  0  0  0
   -7.8238   10.0198  -11.7523 C   0  0  0  0  0  0  0  0  0  0  0  0
   -7.2557   10.6213  -10.5956 C   0  0  0  0  0  0  0  0  0  0  0  0
   -7.6268    9.7501   -9.5073 C   0  0  0  0  0  0  0  0  0  0  0  0
   -8.3057    8.7491   -9.9816 N   0  0  0  0  0  0  0  0  0  0  0  0
   -8.4330    8.8776  -11.2917 N   0  0  0  0  0  0  0  0  0  0  0  0
   -7.3352    9.8817   -8.0196 C   0  0  0  0  0  0  0  0  0  0  0  0
   -5.6205   13.5372  -12.2095 N   0  0  0  0  0  0  0  0  0  0  0  0
   -5.9727   10.4835   -7.7324 C   0  0  3  0  0  0  0  0  0  0  0  0
   -5.8611   11.7523   -7.1657 C   0  0  0  0  0  0  0  0  0  0  0  0
   -4.5946   12.2988   -6.9068 C   0  0  0  0  0  0  0  0  0  0  0  0
   -3.4432   11.5806   -7.2147 C   0  0  0  0  0  0  0  0  0  0  0  0
   -3.5570   10.3109   -7.7899 C   0  0  0  0  0  0  0  0  0  0  0  0
   -4.8253    9.7663   -8.0483 C   0  0  0  0  0  0  0  0  0  0  0  0
   -2.0926   12.1556   -6.9444 C   0  0  0  0  0  0  0  0  0  0  0  0
   -1.7338   13.4204   -6.4594 C   0  0  0  0  0  0  0  0  0  0  0  0
   -0.4064   13.4584   -6.4114 N   0  0  0  0  0  0  0  0  0  0  0  0
    0.1793   12.3493   -6.7865 N   0  0  0  0  0  0  0  0  0  0  0  0
   -0.7954   11.5387   -7.1512 C   0  0  0  0  0  0  0  0  0  0  0  0
    0.4205   14.5767   -6.0073 C   0  0  0  0  0  0  0  0  0  0  0  0
   -4.6894   13.8945  -11.1046 C   0  0  0  0  0  0  0  0  0  0  0  0
   -3.7822   15.1171  -11.3990 C   0  0  0  0  0  0  0  0  0  0  0  0
   -2.3310   14.9579  -11.2532 N   0  0  0  0  0  0  0  0  0  0  0  0
   -1.8099   14.4326  -10.1320 C   0  0  0  0  0  0  0  0  0  0  0  0
   -2.5019   14.0442   -9.2076 O   0  0  0  0  0  0  0  0  0  0  0  0
   -0.2869   14.3494  -10.0364 C   0  0  0  0  0  0  0  0  0  0  0  0
   -6.0716   12.2689   -9.8542 H   0  0  0  0  0  0  0  0  0  0  0  0
   -8.1374   10.1224  -13.9131 H   0  0  0  0  0  0  0  0  0  0  0  0
   -6.8466   12.2604  -14.0624 H   0  0  0  0  0  0  0  0  0  0  0  0
   -8.6759    7.9956   -9.4383 H   0  0  0  0  0  0  0  0  0  0  0  0
   -8.0269    9.5780   -7.2478 H   0  0  0  0  0  0  0  0  0  0  0  0
   -5.9820   10.0328   -6.7290 H   0  0  0  0  0  0  0  0  0  0  0  0
   -6.7507   12.3156   -6.9255 H   0  0  0  0  0  0  0  0  0  0  0  0
   -4.5132   13.2816   -6.4664 H   0  0  0  0  0  0  0  0  0  0  0  0
   -2.6683    9.7485   -8.0357 H   0  0  0  0  0  0  0  0  0  0  0  0
   -4.8817    8.8185   -7.4929 H   0  0  0  0  0  0  0  0  0  0  0  0
   -4.8676    9.5615   -9.1282 H   0  0  0  0  0  0  0  0  0  0  0  0
   -2.4090   14.2148   -6.1776 H   0  0  0  0  0  0  0  0  0  0  0  0
   -0.6475   10.5464   -7.5511 H   0  0  0  0  0  0  0  0  0  0  0  0
    1.4812   14.2962   -6.0855 H   0  0  0  0  0  0  0  0  0  0  0  0
    0.2196   15.4369   -6.6628 H   0  0  0  0  0  0  0  0  0  0  0  0
    0.1886   14.8468   -4.9665 H   0  0  0  0  0  0  0  0  0  0  0  0
   -5.2882   14.1185  -10.2095 H   0  0  0  0  0  0  0  0  0  0  0  0
   -4.0431   13.0269  -10.9057 H   0  0  0  0  0  0  0  0  0  0  0  0
   -3.9735   15.4217  -12.4385 H   0  0  0  0  0  0  0  0  0  0  0  0
   -4.0914   15.9235  -10.7178 H   0  0  0  0  0  0  0  0  0  0  0  0
   -1.7243   15.2430  -11.9952 H   0  0  0  0  0  0  0  0  0  0  0  0
   -0.0031   13.9147   -9.0666 H   0  0  0  0  0  0  0  0  0  0  0  0
    0.0973   13.7152  -10.8489 H   0  0  0  0  0  0  0  0  0  0  0  0
    0.1416   15.3586  -10.1252 H   0  0  0  0  0  0  0  0  0  0  0  0
  1  2  1  0  0  0  0
  1  4  1  0  0  0  0
  1 11  2  0  0  0  0
  2  6  2  0  0  0  0
  3  4  2  0  0  0  0
  3  5  1  0  0  0  0
  5  6  1  0  0  0  0
  5  9  2  0  0  0  0
  6  7  1  0  0  0  0
  7  8  1  0  0  0  0
  7 10  2  3  0  0  0
  8  9  1  0  0  0  0
 10 12  1  0  0  0  0
 11 24  1  0  0  0  0
 12 13  1  0  0  0  0
 12 17  1  0  0  0  0
 13 14  2  0  0  0  0
 14 15  1  0  0  0  0
 15 16  2  0  0  0  0
 15 18  1  0  0  0  0
 16 17  1  0  0  0  0
 18 19  2  0  0  0  0
 18 22  1  0  0  0  0
 19 20  1  0  0  0  0
 20 21  1  0  0  0  0
 20 23  1  0  0  0  0
 21 22  2  0  0  0  0
 24 25  1  0  0  0  0
 25 26  1  0  0  0  0
 26 27  1  0  0  0  0
 27 28  2  0  0  0  0
 27 29  1  0  0  0  0
  2 30  1  0  0  0  0
  3 31  1  0  0  0  0
  4 32  1  0  0  0  0
  8 33  1  0  0  0  0
 10 34  1  0  0  0  0
 12 35  1  0  0  0  0
 13 36  1  0  0  0  0
 14 37  1  0  0  0  0
 16 38  1  0  0  0  0
 17 39  1  0  0  0  0
 17 40  1  0  0  0  0
 19 41  1  0  0  0  0
 22 42  1  0  0  0  0
 23 43  1  0  0  0  0
 23 44  1  0  0  0  0
 23 45  1  0  0  0  0
 24 46  1  0  0  0  0
 24 47  1  0  0  0  0
 25 48  1  0  0  0  0
 25 49  1  0  0  0  0
 26 50  1  0  0  0  0
 29 51  1  0  0  0  0
 29 52  1  0  0  0  0
 29 53  1  0  0  0  0
M  END
> <Name>
27

> <IC50[uM]>
0.68

$$$$
27
  -OEChem-05192314333D
 Structure written by MMmdl.
 53 56  0     0  0  0  0  0  0999 V2000
   -6.3855   12.3606  -12.0031 C   0  0  0  0  0  0  0  0  0  0  0  0
   -6.5214   11.8004  -10.7171 C   0  0  0  0  0  0  0  0  0  0  0  0
   -7.6991   10.5797  -13.0384 C   0  0  0  0  0  0  0  0  0  0  0  0
   -6.9626   11.7779  -13.1031 C   0  0  0  0  0  0  0  0  0  0  0  0
   -7.8238   10.0198  -11.7523 C   0  0  0  0  0  0  0  0  0  0  0  0
   -7.2557   10.6213  -10.5956 C   0  0  0  0  0  0  0  0  0  0  0  0
   -7.6268    9.7501   -9.5073 C   0  0  0  0  0  0  0  0  0  0  0  0
   -8.3057    8.7491   -9.9816 N   0  0  0  0  0  0  0  0  0  0  0  0
   -8.4330    8.8776  -11.2917 N   0  0  0  0  0  0  0  0  0  0  0  0
   -7.3352    9.8817   -8.0196 C   0  0  0  0  0  0  0  0  0  0  0  0
   -5.6205   13.5372  -12.2095 N   0  0  0  0  0  0  0  0  0  0  0  0
   -5.9727   10.4835   -7.7324 C   0  0  0  0  0  0  0  0  0  0  0  0
   -5.8611   11.7523   -7.1657 C   0  0  0  0  0  0  0  0  0  0  0  0
   -4.5946   12.2988   -6.9068 C   0  0  0  0  0  0  0  0  0  0  0  0
   -3.4432   11.5806   -7.2147 C   0  0  0  0  0  0  0  0  0  0  0  0
   -3.5570   10.3109   -7.7899 C   0  0  0  0  0  0  0  0  0  0  0  0
   -4.8253    9.7663   -8.0483 C   0  0  0  0  0  0  0  0  0  0  0  0
   -2.0926   12.1556   -6.9444 C   0  0  0  0  0  0  0  0  0  0  0  0
   -1.7338   13.4204   -6.4594 C   0  0  0  0  0  0  0  0  0  0  0  0
   -0.4064   13.4584   -6.4114 N   0  0  0  0  0  0  0  0  0  0  0  0
    0.1793   12.3493   -6.7865 N   0  0  0  0  0  0  0  0  0  0  0  0
   -0.7954   11.5387   -7.1512 C   0  0  0  0  0  0  0  0  0  0  0  0
    0.4205   14.5767   -6.0073 C   0  0  0  0  0  0  0  0  0  0  0  0
   -4.6894   13.8945  -11.1046 C   0  0  0  0  0  0  0  0  0  0  0  0
   -3.7822   15.1171  -11.3990 C   0  0  0  0  0  0  0  0  0  0  0  0
   -2.3310   14.9579  -11.2532 N   0  0  0  0  0  0  0  0  0  0  0  0
   -1.8099   14.4326  -10.1320 C   0  0  0  0  0  0  0  0  0  0  0  0
   -2.5019   14.0442   -9.2076 O   0  0  0  0  0  0  0  0  0  0  0  0
   -0.2869   14.3494  -10.0364 C   0  0  0  0  0  0  0  0  0  0  0  0
   -6.0716   12.2689   -9.8542 H   0  0  0  0  0  0  0  0  0  0  0  0
   -8.1374   10.1224  -13.9131 H   0  0  0  0  0  0  0  0  0  0  0  0
   -7.6459   12.5314  -13.5218 H   0  0  0  0  0  0  0  0  0  0  0  0
   -6.1429   11.5918  -13.8126 H   0  0  0  0  0  0  0  0  0  0  0  0
   -8.9138    8.2235  -11.8756 H   0  0  0  0  0  0  0  0  0  0  0  0
   -8.0269    9.5780   -7.2478 H   0  0  0  0  0  0  0  0  0  0  0  0
   -6.7507   12.3156   -6.9255 H   0  0  0  0  0  0  0  0  0  0  0  0
   -4.5132   13.2816   -6.4664 H   0  0  0  0  0  0  0  0  0  0  0  0
   -2.6683    9.7485   -8.0357 H   0  0  0  0  0  0  0  0  0  0  0  0
   -4.8817    8.8185   -7.4929 H   0  0  0  0  0  0  0  0  0  0  0  0
   -4.8676    9.5615   -9.1282 H   0  0  0  0  0  0  0  0  0  0  0  0
   -2.4090   14.2148   -6.1776 H   0  0  0  0  0  0  0  0  0  0  0  0
   -0.6475   10.5464   -7.5511 H   0  0  0  0  0  0  0  0  0  0  0  0
    1.4812   14.2962   -6.0855 H   0  0  0  0  0  0  0  0  0  0  0  0
    0.2196   15.4369   -6.6628 H   0  0  0  0  0  0  0  0  0  0  0  0
    0.1886   14.8468   -4.9665 H   0  0  0  0  0  0  0  0  0  0  0  0
   -5.2882   14.1185  -10.2095 H   0  0  0  0  0  0  0  0  0  0  0  0
   -4.0431   13.0269  -10.9057 H   0  0  0  0  0  0  0  0  0  0  0  0
   -3.9735   15.4217  -12.4385 H   0  0  0  0  0  0  0  0  0  0  0  0
   -4.0914   15.9235  -10.7178 H   0  0  0  0  0  0  0  0  0  0  0  0
   -1.7243   15.2430  -11.9952 H   0  0  0  0  0  0  0  0  0  0  0  0
   -0.0031   13.9147   -9.0666 H   0  0  0  0  0  0  0  0  0  0  0  0
    0.0973   13.7152  -10.8489 H   0  0  0  0  0  0  0  0  0  0  0  0
    0.1416   15.3586  -10.1252 H   0  0  0  0  0  0  0  0  0  0  0  0
  1  2  1  0  0  0  0
  1  4  1  0  0  0  0
  1 11  2  0  0  0  0
  2  6  2  0  0  0  0
  3  4  1  0  0  0  0
  3  5  2  0  0  0  0
  5  6  1  0  0  0  0
  5  9  1  0  0  0  0
  6  7  1  0  0  0  0
  7  8  2  0  0  0  0
  7 10  1  0  0  0  0
  8  9  1  0  0  0  0
 10 12  2  3  0  0  0
 11 24  1  0  0  0  0
 12 13  1  0  0  0  0
 12 17  1  0  0  0  0
 13 14  2  0  0  0  0
 14 15  1  0  0  0  0
 15 16  2  0  0  0  0
 15 18  1  0  0  0  0
 16 17  1  0  0  0  0
 18 19  2  0  0  0  0
 18 22  1  0  0  0  0
 19 20  1  0  0  0  0
 20 21  1  0  0  0  0
 20 23  1  0  0  0  0
 21 22  2  0  0  0  0
 24 25  1  0  0  0  0
 25 26  1  0  0  0  0
 26 27  1  0  0  0  0
 27 28  2  0  0  0  0
 27 29  1  0  0  0  0
  2 30  1  0  0  0  0
  3 31  1  0  0  0  0
  4 32  1  0  0  0  0
  4 33  1  0  0  0  0
  9 34  1  0  0  0  0
 10 35  1  0  0  0  0
 13 36  1  0  0  0  0
 14 37  1  0  0  0  0
 16 38  1  0  0  0  0
 17 39  1  0  0  0  0
 17 40  1  0  0  0  0
 19 41  1  0  0  0  0
 22 42  1  0  0  0  0
 23 43  1  0  0  0  0
 23 44  1  0  0  0  0
 23 45  1  0  0  0  0
 24 46  1  0  0  0  0
 24 47  1  0  0  0  0
 25 48  1  0  0  0  0
 25 49  1  0  0  0  0
 26 50  1  0  0  0  0
 29 51  1  0  0  0  0
 29 52  1  0  0  0  0
 29 53  1  0  0  0  0
M  END
> <Name>
27

> <IC50[uM]>
0.68

$$$$
27
  -OEChem-05192314333D
 Structure written by MMmdl.
 53 56  0     0  0  0  0  0  0999 V2000
   -6.3855   12.3606  -12.0031 C   0  0  0  0  0  0  0  0  0  0  0  0
   -6.5214   11.8004  -10.7171 C   0  0  0  0  0  0  0  0  0  0  0  0
   -7.6991   10.5797  -13.0384 C   0  0  0  0  0  0  0  0  0  0  0  0
   -6.9626   11.7779  -13.1031 C   0  0  0  0  0  0  0  0  0  0  0  0
   -7.8238   10.0198  -11.7523 C   0  0  0  0  0  0  0  0  0  0  0  0
   -7.2557   10.6213  -10.5956 C   0  0  0  0  0  0  0  0  0  0  0  0
   -7.6268    9.7501   -9.5073 C   0  0  0  0  0  0  0  0  0  0  0  0
   -8.3057    8.7491   -9.9816 N   0  0  0  0  0  0  0  0  0  0  0  0
   -8.4330    8.8776  -11.2917 N   0  0  0  0  0  0  0  0  0  0  0  0
   -7.3352    9.8817   -8.0196 C   0  0  0  0  0  0  0  0  0  0  0  0
   -5.6205   13.5372  -12.2095 N   0  0  0  0  0  0  0  0  0  0  0  0
   -5.9727   10.4835   -7.7324 C   0  0  0  0  0  0  0  0  0  0  0  0
   -5.8611   11.7523   -7.1657 C   0  0  0  0  0  0  0  0  0  0  0  0
   -4.5946   12.2988   -6.9068 C   0  0  0  0  0  0  0  0  0  0  0  0
   -3.4432   11.5806   -7.2147 C   0  0  0  0  0  0  0  0  0  0  0  0
   -3.5570   10.3109   -7.7899 C   0  0  0  0  0  0  0  0  0  0  0  0
   -4.8253    9.7663   -8.0483 C   0  0  0  0  0  0  0  0  0  0  0  0
   -2.0926   12.1556   -6.9444 C   0  0  0  0  0  0  0  0  0  0  0  0
   -1.7338   13.4204   -6.4594 C   0  0  0  0  0  0  0  0  0  0  0  0
   -0.4064   13.4584   -6.4114 N   0  0  0  0  0  0  0  0  0  0  0  0
    0.1793   12.3493   -6.7865 N   0  0  0  0  0  0  0  0  0  0  0  0
   -0.7954   11.5387   -7.1512 C   0  0  0  0  0  0  0  0  0  0  0  0
    0.4205   14.5767   -6.0073 C   0  0  0  0  0  0  0  0  0  0  0  0
   -4.6894   13.8945  -11.1046 C   0  0  0  0  0  0  0  0  0  0  0  0
   -3.7822   15.1171  -11.3990 C   0  0  0  0  0  0  0  0  0  0  0  0
   -2.3310   14.9579  -11.2532 N   0  0  0  0  0  0  0  0  0  0  0  0
   -1.8099   14.4326  -10.1320 C   0  0  0  0  0  0  0  0  0  0  0  0
   -2.5019   14.0442   -9.2076 O   0  0  0  0  0  0  0  0  0  0  0  0
   -0.2869   14.3494  -10.0364 C   0  0  0  0  0  0  0  0  0  0  0  0
   -6.0716   12.2689   -9.8542 H   0  0  0  0  0  0  0  0  0  0  0  0
   -8.1374   10.1224  -13.9131 H   0  0  0  0  0  0  0  0  0  0  0  0
   -6.8466   12.2604  -14.0624 H   0  0  0  0  0  0  0  0  0  0  0  0
   -8.6759    7.9956   -9.4383 H   0  0  0  0  0  0  0  0  0  0  0  0
   -8.0269    9.5780   -7.2478 H   0  0  0  0  0  0  0  0  0  0  0  0
   -6.7507   12.3156   -6.9255 H   0  0  0  0  0  0  0  0  0  0  0  0
   -4.5373   13.2433   -7.4677 H   0  0  0  0  0  0  0  0  0  0  0  0
   -4.5562   12.5101   -5.8280 H   0  0  0  0  0  0  0  0  0  0  0  0
   -2.6683    9.7485   -8.0357 H   0  0  0  0  0  0  0  0  0  0  0  0
   -4.8817    8.8185   -7.4929 H   0  0  0  0  0  0  0  0  0  0  0  0
   -4.8676    9.5615   -9.1282 H   0  0  0  0  0  0  0  0  0  0  0  0
   -2.4090   14.2148   -6.1776 H   0  0  0  0  0  0  0  0  0  0  0  0
   -0.6475   10.5464   -7.5511 H   0  0  0  0  0  0  0  0  0  0  0  0
    1.4812   14.2962   -6.0855 H   0  0  0  0  0  0  0  0  0  0  0  0
    0.2196   15.4369   -6.6628 H   0  0  0  0  0  0  0  0  0  0  0  0
    0.1886   14.8468   -4.9665 H   0  0  0  0  0  0  0  0  0  0  0  0
   -5.2882   14.1185  -10.2095 H   0  0  0  0  0  0  0  0  0  0  0  0
   -4.0431   13.0269  -10.9057 H   0  0  0  0  0  0  0  0  0  0  0  0
   -3.9735   15.4217  -12.4385 H   0  0  0  0  0  0  0  0  0  0  0  0
   -4.0914   15.9235  -10.7178 H   0  0  0  0  0  0  0  0  0  0  0  0
   -1.7243   15.2430  -11.9952 H   0  0  0  0  0  0  0  0  0  0  0  0
   -0.0031   13.9147   -9.0666 H   0  0  0  0  0  0  0  0  0  0  0  0
    0.0973   13.7152  -10.8489 H   0  0  0  0  0  0  0  0  0  0  0  0
    0.1416   15.3586  -10.1252 H   0  0  0  0  0  0  0  0  0  0  0  0
  1  2  1  0  0  0  0
  1  4  1  0  0  0  0
  1 11  2  0  0  0  0
  2  6  2  0  0  0  0
  3  4  2  0  0  0  0
  3  5  1  0  0  0  0
  5  6  1  0  0  0  0
  5  9  2  0  0  0  0
  6  7  1  0  0  0  0
  7  8  1  0  0  0  0
  7 10  2  3  0  0  0
  8  9  1  0  0  0  0
 10 12  1  0  0  0  0
 11 24  1  0  0  0  0
 12 13  2  0  0  0  0
 12 17  1  0  0  0  0
 13 14  1  0  0  0  0
 14 15  1  0  0  0  0
 15 16  2  0  0  0  0
 15 18  1  0  0  0  0
 16 17  1  0  0  0  0
 18 19  2  0  0  0  0
 18 22  1  0  0  0  0
 19 20  1  0  0  0  0
 20 21  1  0  0  0  0
 20 23  1  0  0  0  0
 21 22  2  0  0  0  0
 24 25  1  0  0  0  0
 25 26  1  0  0  0  0
 26 27  1  0  0  0  0
 27 28  2  0  0  0  0
 27 29  1  0  0  0  0
  2 30  1  0  0  0  0
  3 31  1  0  0  0  0
  4 32  1  0  0  0  0
  8 33  1  0  0  0  0
 10 34  1  0  0  0  0
 13 35  1  0  0  0  0
 14 36  1  0  0  0  0
 14 37  1  0  0  0  0
 16 38  1  0  0  0  0
 17 39  1  0  0  0  0
 17 40  1  0  0  0  0
 19 41  1  0  0  0  0
 22 42  1  0  0  0  0
 23 43  1  0  0  0  0
 23 44  1  0  0  0  0
 23 45  1  0  0  0  0
 24 46  1  0  0  0  0
 24 47  1  0  0  0  0
 25 48  1  0  0  0  0
 25 49  1  0  0  0  0
 26 50  1  0  0  0  0
 29 51  1  0  0  0  0
 29 52  1  0  0  0  0
 29 53  1  0  0  0  0
M  END
> <Name>
27

> <IC50[uM]>
0.68

$$$$
27
  -OEChem-05192314333D
 Structure written by MMmdl.
 53 56  0     0  0  0  0  0  0999 V2000
   -6.3855   12.3606  -12.0031 C   0  0  0  0  0  0  0  0  0  0  0  0
   -6.5214   11.8004  -10.7171 C   0  0  0  0  0  0  0  0  0  0  0  0
   -7.6991   10.5797  -13.0384 C   0  0  0  0  0  0  0  0  0  0  0  0
   -6.9626   11.7779  -13.1031 C   0  0  0  0  0  0  0  0  0  0  0  0
   -7.8238   10.0198  -11.7523 C   0  0  0  0  0  0  0  0  0  0  0  0
   -7.2557   10.6213  -10.5956 C   0  0  0  0  0  0  0  0  0  0  0  0
   -7.6268    9.7501   -9.5073 C   0  0  0  0  0  0  0  0  0  0  0  0
   -8.3057    8.7491   -9.9816 N   0  0  0  0  0  0  0  0  0  0  0  0
   -8.4330    8.8776  -11.2917 N   0  0  0  0  0  0  0  0  0  0  0  0
   -7.3352    9.8817   -8.0196 C   0  0  0  0  0  0  0  0  0  0  0  0
   -5.6205   13.5372  -12.2095 N   0  0  0  0  0  0  0  0  0  0  0  0
   -5.9727   10.4835   -7.7324 C   0  0  0  0  0  0  0  0  0  0  0  0
   -5.8611   11.7523   -7.1657 C   0  0  0  0  0  0  0  0  0  0  0  0
   -4.5946   12.2988   -6.9068 C   0  0  0  0  0  0  0  0  0  0  0  0
   -3.4432   11.5806   -7.2147 C   0  0  0  0  0  0  0  0  0  0  0  0
   -3.5570   10.3109   -7.7899 C   0  0  0  0  0  0  0  0  0  0  0  0
   -4.8253    9.7663   -8.0483 C   0  0  0  0  0  0  0  0  0  0  0  0
   -2.0926   12.1556   -6.9444 C   0  0  0  0  0  0  0  0  0  0  0  0
   -1.7338   13.4204   -6.4594 C   0  0  0  0  0  0  0  0  0  0  0  0
   -0.4064   13.4584   -6.4114 N   0  0  0  0  0  0  0  0  0  0  0  0
    0.1793   12.3493   -6.7865 N   0  0  0  0  0  0  0  0  0  0  0  0
   -0.7954   11.5387   -7.1512 C   0  0  0  0  0  0  0  0  0  0  0  0
    0.4205   14.5767   -6.0073 C   0  0  0  0  0  0  0  0  0  0  0  0
   -4.6894   13.8945  -11.1046 C   0  0  0  0  0  0  0  0  0  0  0  0
   -3.7822   15.1171  -11.3990 C   0  0  0  0  0  0  0  0  0  0  0  0
   -2.3310   14.9579  -11.2532 N   0  0  0  0  0  0  0  0  0  0  0  0
   -1.8099   14.4326  -10.1320 C   0  0  0  0  0  0  0  0  0  0  0  0
   -2.5019   14.0442   -9.2076 O   0  0  0  0  0  0  0  0  0  0  0  0
   -0.2869   14.3494  -10.0364 C   0  0  0  0  0  0  0  0  0  0  0  0
   -6.0716   12.2689   -9.8542 H   0  0  0  0  0  0  0  0  0  0  0  0
   -8.1374   10.1224  -13.9131 H   0  0  0  0  0  0  0  0  0  0  0  0
   -6.8466   12.2604  -14.0624 H   0  0  0  0  0  0  0  0  0  0  0  0
   -8.6759    7.9956   -9.4383 H   0  0  0  0  0  0  0  0  0  0  0  0
   -8.0269    9.5780   -7.2478 H   0  0  0  0  0  0  0  0  0  0  0  0
   -6.7507   12.3156   -6.9255 H   0  0  0  0  0  0  0  0  0  0  0  0
   -4.5132   13.2816   -6.4664 H   0  0  0  0  0  0  0  0  0  0  0  0
   -3.0266   10.3502   -8.7528 H   0  0  0  0  0  0  0  0  0  0  0  0
   -3.0423    9.6102   -7.1161 H   0  0  0  0  0  0  0  0  0  0  0  0
   -4.8817    8.8185   -7.4929 H   0  0  0  0  0  0  0  0  0  0  0  0
   -4.8676    9.5615   -9.1282 H   0  0  0  0  0  0  0  0  0  0  0  0
   -2.4090   14.2148   -6.1776 H   0  0  0  0  0  0  0  0  0  0  0  0
   -0.6475   10.5464   -7.5511 H   0  0  0  0  0  0  0  0  0  0  0  0
    1.4812   14.2962   -6.0855 H   0  0  0  0  0  0  0  0  0  0  0  0
    0.2196   15.4369   -6.6628 H   0  0  0  0  0  0  0  0  0  0  0  0
    0.1886   14.8468   -4.9665 H   0  0  0  0  0  0  0  0  0  0  0  0
   -5.2882   14.1185  -10.2095 H   0  0  0  0  0  0  0  0  0  0  0  0
   -4.0431   13.0269  -10.9057 H   0  0  0  0  0  0  0  0  0  0  0  0
   -3.9735   15.4217  -12.4385 H   0  0  0  0  0  0  0  0  0  0  0  0
   -4.0914   15.9235  -10.7178 H   0  0  0  0  0  0  0  0  0  0  0  0
   -1.7243   15.2430  -11.9952 H   0  0  0  0  0  0  0  0  0  0  0  0
   -0.0031   13.9147   -9.0666 H   0  0  0  0  0  0  0  0  0  0  0  0
    0.0973   13.7152  -10.8489 H   0  0  0  0  0  0  0  0  0  0  0  0
    0.1416   15.3586  -10.1252 H   0  0  0  0  0  0  0  0  0  0  0  0
  1  2  1  0  0  0  0
  1  4  1  0  0  0  0
  1 11  2  0  0  0  0
  2  6  2  0  0  0  0
  3  4  2  0  0  0  0
  3  5  1  0  0  0  0
  5  6  1  0  0  0  0
  5  9  2  0  0  0  0
  6  7  1  0  0  0  0
  7  8  1  0  0  0  0
  7 10  2  3  0  0  0
  8  9  1  0  0  0  0
 10 12  1  0  0  0  0
 11 24  1  0  0  0  0
 12 13  2  0  0  0  0
 12 17  1  0  0  0  0
 13 14  1  0  0  0  0
 14 15  2  0  0  0  0
 15 16  1  0  0  0  0
 15 18  1  0  0  0  0
 16 17  1  0  0  0  0
 18 19  2  0  0  0  0
 18 22  1  0  0  0  0
 19 20  1  0  0  0  0
 20 21  1  0  0  0  0
 20 23  1  0  0  0  0
 21 22  2  0  0  0  0
 24 25  1  0  0  0  0
 25 26  1  0  0  0  0
 26 27  1  0  0  0  0
 27 28  2  0  0  0  0
 27 29  1  0  0  0  0
  2 30  1  0  0  0  0
  3 31  1  0  0  0  0
  4 32  1  0  0  0  0
  8 33  1  0  0  0  0
 10 34  1  0  0  0  0
 13 35  1  0  0  0  0
 14 36  1  0  0  0  0
 16 37  1  0  0  0  0
 16 38  1  0  0  0  0
 17 39  1  0  0  0  0
 17 40  1  0  0  0  0
 19 41  1  0  0  0  0
 22 42  1  0  0  0  0
 23 43  1  0  0  0  0
 23 44  1  0  0  0  0
 23 45  1  0  0  0  0
 24 46  1  0  0  0  0
 24 47  1  0  0  0  0
 25 48  1  0  0  0  0
 25 49  1  0  0  0  0
 26 50  1  0  0  0  0
 29 51  1  0  0  0  0
 29 52  1  0  0  0  0
 29 53  1  0  0  0  0
M  END
> <Name>
27

> <IC50[uM]>
0.68

$$$$
27
  -OEChem-05192314333D
 Structure written by MMmdl.
 53 56  0     0  0  0  0  0  0999 V2000
   -6.3855   12.3606  -12.0031 C   0  0  0  0  0  0  0  0  0  0  0  0
   -6.5214   11.8004  -10.7171 C   0  0  0  0  0  0  0  0  0  0  0  0
   -7.6991   10.5797  -13.0384 C   0  0  0  0  0  0  0  0  0  0  0  0
   -6.9626   11.7779  -13.1031 C   0  0  0  0  0  0  0  0  0  0  0  0
   -7.8238   10.0198  -11.7523 C   0  0  0  0  0  0  0  0  0  0  0  0
   -7.2557   10.6213  -10.5956 C   0  0  0  0  0  0  0  0  0  0  0  0
   -7.6268    9.7501   -9.5073 C   0  0  0  0  0  0  0  0  0  0  0  0
   -8.3057    8.7491   -9.9816 N   0  0  0  0  0  0  0  0  0  0  0  0
   -8.4330    8.8776  -11.2917 N   0  0  0  0  0  0  0  0  0  0  0  0
   -7.3352    9.8817   -8.0196 C   0  0  0  0  0  0  0  0  0  0  0  0
   -5.6205   13.5372  -12.2095 N   0  0  0  0  0  0  0  0  0  0  0  0
   -5.9727   10.4835   -7.7324 C   0  0  0  0  0  0  0  0  0  0  0  0
   -5.8611   11.7523   -7.1657 C   0  0  0  0  0  0  0  0  0  0  0  0
   -4.5946   12.2988   -6.9068 C   0  0  0  0  0  0  0  0  0  0  0  0
   -3.4432   11.5806   -7.2147 C   0  0  0  0  0  0  0  0  0  0  0  0
   -3.5570   10.3109   -7.7899 C   0  0  0  0  0  0  0  0  0  0  0  0
   -4.8253    9.7663   -8.0483 C   0  0  0  0  0  0  0  0  0  0  0  0
   -2.0926   12.1556   -6.9444 C   0  0  0  0  0  0  0  0  0  0  0  0
   -1.7338   13.4204   -6.4594 C   0  0  0  0  0  0  0  0  0  0  0  0
   -0.4064   13.4584   -6.4114 N   0  0  0  0  0  0  0  0  0  0  0  0
    0.1793   12.3493   -6.7865 N   0  0  0  0  0  0  0  0  0  0  0  0
   -0.7954   11.5387   -7.1512 C   0  0  0  0  0  0  0  0  0  0  0  0
    0.4205   14.5767   -6.0073 C   0  0  0  0  0  0  0  0  0  0  0  0
   -4.6894   13.8945  -11.1046 C   0  0  0  0  0  0  0  0  0  0  0  0
   -3.7822   15.1171  -11.3990 C   0  0  0  0  0  0  0  0  0  0  0  0
   -2.3310   14.9579  -11.2532 N   0  0  0  0  0  0  0  0  0  0  0  0
   -1.8099   14.4326  -10.1320 C   0  0  0  0  0  0  0  0  0  0  0  0
   -2.5019   14.0442   -9.2076 O   0  0  0  0  0  0  0  0  0  0  0  0
   -0.2869   14.3494  -10.0364 C   0  0  0  0  0  0  0  0  0  0  0  0
   -6.0716   12.2689   -9.8542 H   0  0  0  0  0  0  0  0  0  0  0  0
   -8.1374   10.1224  -13.9131 H   0  0  0  0  0  0  0  0  0  0  0  0
   -6.8466   12.2604  -14.0624 H   0  0  0  0  0  0  0  0  0  0  0  0
   -8.6759    7.9956   -9.4383 H   0  0  0  0  0  0  0  0  0  0  0  0
   -8.0269    9.5780   -7.2478 H   0  0  0  0  0  0  0  0  0  0  0  0
   -5.9820   10.0328   -6.7290 H   0  0  0  0  0  0  0  0  0  0  0  0
   -6.7507   12.3156   -6.9255 H   0  0  0  0  0  0  0  0  0  0  0  0
   -4.5132   13.2816   -6.4664 H   0  0  0  0  0  0  0  0  0  0  0  0
   -3.4540   11.1294   -6.2116 H   0  0  0  0  0  0  0  0  0  0  0  0
   -2.6683    9.7485   -8.0357 H   0  0  0  0  0  0  0  0  0  0  0  0
   -4.9092    8.7863   -8.4943 H   0  0  0  0  0  0  0  0  0  0  0  0
   -2.4090   14.2148   -6.1776 H   0  0  0  0  0  0  0  0  0  0  0  0
   -0.6475   10.5464   -7.5511 H   0  0  0  0  0  0  0  0  0  0  0  0
    1.4812   14.2962   -6.0855 H   0  0  0  0  0  0  0  0  0  0  0  0
    0.2196   15.4369   -6.6628 H   0  0  0  0  0  0  0  0  0  0  0  0
    0.1886   14.8468   -4.9665 H   0  0  0  0  0  0  0  0  0  0  0  0
   -5.2882   14.1185  -10.2095 H   0  0  0  0  0  0  0  0  0  0  0  0
   -4.0431   13.0269  -10.9057 H   0  0  0  0  0  0  0  0  0  0  0  0
   -3.9735   15.4217  -12.4385 H   0  0  0  0  0  0  0  0  0  0  0  0
   -4.0914   15.9235  -10.7178 H   0  0  0  0  0  0  0  0  0  0  0  0
   -1.9457   13.7098   -8.5138 H   0  0  0  0  0  0  0  0  0  0  0  0
   -0.0034   13.9020   -9.0723 H   0  0  0  0  0  0  0  0  0  0  0  0
    0.0984   13.7264  -10.8570 H   0  0  0  0  0  0  0  0  0  0  0  0
    0.1408   15.3601  -10.1114 H   0  0  0  0  0  0  0  0  0  0  0  0
  1  2  1  0  0  0  0
  1  4  1  0  0  0  0
  1 11  2  0  0  0  0
  2  6  2  0  0  0  0
  3  4  2  0  0  0  0
  3  5  1  0  0  0  0
  5  6  1  0  0  0  0
  5  9  2  0  0  0  0
  6  7  1  0  0  0  0
  7  8  1  0  0  0  0
  7 10  2  3  0  0  0
  8  9  1  0  0  0  0
 10 12  1  0  0  0  0
 11 24  1  0  0  0  0
 12 13  1  0  0  0  0
 12 17  1  0  0  0  0
 13 14  2  0  0  0  0
 14 15  1  0  0  0  0
 15 16  1  0  0  0  0
 15 18  1  0  0  0  0
 16 17  2  0  0  0  0
 18 19  2  0  0  0  0
 18 22  1  0  0  0  0
 19 20  1  0  0  0  0
 20 21  1  0  0  0  0
 20 23  1  0  0  0  0
 21 22  2  0  0  0  0
 24 25  1  0  0  0  0
 25 26  1  0  0  0  0
 26 27  2  0  0  0  0
 27 28  1  0  0  0  0
 27 29  1  0  0  0  0
  2 30  1  0  0  0  0
  3 31  1  0  0  0  0
  4 32  1  0  0  0  0
  8 33  1  0  0  0  0
 10 34  1  0  0  0  0
 12 35  1  0  0  0  0
 13 36  1  0  0  0  0
 14 37  1  0  0  0  0
 15 38  1  0  0  0  0
 16 39  1  0  0  0  0
 17 40  1  0  0  0  0
 19 41  1  0  0  0  0
 22 42  1  0  0  0  0
 23 43  1  0  0  0  0
 23 44  1  0  0  0  0
 23 45  1  0  0  0  0
 24 46  1  0  0  0  0
 24 47  1  0  0  0  0
 25 48  1  0  0  0  0
 25 49  1  0  0  0  0
 28 50  1  0  0  0  0
 29 51  1  0  0  0  0
 29 52  1  0  0  0  0
 29 53  1  0  0  0  0
M  END
> <Name>
27

> <IC50[uM]>
0.68

$$$$
27
  -OEChem-05192314333D
 Structure written by MMmdl.
 53 56  0     0  0  0  0  0  0999 V2000
   -6.3855   12.3606  -12.0031 C   0  0  0  0  0  0  0  0  0  0  0  0
   -6.5214   11.8004  -10.7171 C   0  0  0  0  0  0  0  0  0  0  0  0
   -7.6991   10.5797  -13.0384 C   0  0  0  0  0  0  0  0  0  0  0  0
   -6.9626   11.7779  -13.1031 C   0  0  0  0  0  0  0  0  0  0  0  0
   -7.8238   10.0198  -11.7523 C   0  0  0  0  0  0  0  0  0  0  0  0
   -7.2557   10.6213  -10.5956 C   0  0  0  0  0  0  0  0  0  0  0  0
   -7.6268    9.7501   -9.5073 C   0  0  0  0  0  0  0  0  0  0  0  0
   -8.3057    8.7491   -9.9816 N   0  0  0  0  0  0  0  0  0  0  0  0
   -8.4330    8.8776  -11.2917 N   0  0  0  0  0  0  0  0  0  0  0  0
   -7.3352    9.8817   -8.0196 C   0  0  0  0  0  0  0  0  0  0  0  0
   -5.6205   13.5372  -12.2095 N   0  0  0  0  0  0  0  0  0  0  0  0
   -5.9727   10.4835   -7.7324 C   0  0  0  0  0  0  0  0  0  0  0  0
   -5.8611   11.7523   -7.1657 C   0  0  0  0  0  0  0  0  0  0  0  0
   -4.5946   12.2988   -6.9068 C   0  0  0  0  0  0  0  0  0  0  0  0
   -3.4432   11.5806   -7.2147 C   0  0  0  0  0  0  0  0  0  0  0  0
   -3.5570   10.3109   -7.7899 C   0  0  0  0  0  0  0  0  0  0  0  0
   -4.8253    9.7663   -8.0483 C   0  0  0  0  0  0  0  0  0  0  0  0
   -2.0926   12.1556   -6.9444 C   0  0  0  0  0  0  0  0  0  0  0  0
   -1.7338   13.4204   -6.4594 C   0  0  0  0  0  0  0  0  0  0  0  0
   -0.4064   13.4584   -6.4114 N   0  0  0  0  0  0  0  0  0  0  0  0
    0.1793   12.3493   -6.7865 N   0  0  0  0  0  0  0  0  0  0  0  0
   -0.7954   11.5387   -7.1512 C   0  0  0  0  0  0  0  0  0  0  0  0
    0.4205   14.5767   -6.0073 C   0  0  0  0  0  0  0  0  0  0  0  0
   -4.6894   13.8945  -11.1046 C   0  0  0  0  0  0  0  0  0  0  0  0
   -3.7822   15.1171  -11.3990 C   0  0  0  0  0  0  0  0  0  0  0  0
   -2.3310   14.9579  -11.2532 N   0  0  0  0  0  0  0  0  0  0  0  0
   -1.8099   14.4326  -10.1320 C   0  0  0  0  0  0  0  0  0  0  0  0
   -2.5019   14.0442   -9.2076 O   0  0  0  0  0  0  0  0  0  0  0  0
   -0.2869   14.3494  -10.0364 C   0  0  0  0  0  0  0  0  0  0  0  0
   -6.0716   12.2689   -9.8542 H   0  0  0  0  0  0  0  0  0  0  0  0
   -8.1374   10.1224  -13.9131 H   0  0  0  0  0  0  0  0  0  0  0  0
   -7.6459   12.5314  -13.5218 H   0  0  0  0  0  0  0  0  0  0  0  0
   -6.1429   11.5918  -13.8126 H   0  0  0  0  0  0  0  0  0  0  0  0
   -8.9138    8.2235  -11.8756 H   0  0  0  0  0  0  0  0  0  0  0  0
   -8.0269    9.5780   -7.2478 H   0  0  0  0  0  0  0  0  0  0  0  0
   -6.7507   12.3156   -6.9255 H   0  0  0  0  0  0  0  0  0  0  0  0
   -4.5132   13.2816   -6.4664 H   0  0  0  0  0  0  0  0  0  0  0  0
   -3.4540   11.1294   -6.2116 H   0  0  0  0  0  0  0  0  0  0  0  0
   -2.6683    9.7485   -8.0357 H   0  0  0  0  0  0  0  0  0  0  0  0
   -4.9092    8.7863   -8.4943 H   0  0  0  0  0  0  0  0  0  0  0  0
   -2.4090   14.2148   -6.1776 H   0  0  0  0  0  0  0  0  0  0  0  0
   -0.6475   10.5464   -7.5511 H   0  0  0  0  0  0  0  0  0  0  0  0
    1.4812   14.2962   -6.0855 H   0  0  0  0  0  0  0  0  0  0  0  0
    0.2196   15.4369   -6.6628 H   0  0  0  0  0  0  0  0  0  0  0  0
    0.1886   14.8468   -4.9665 H   0  0  0  0  0  0  0  0  0  0  0  0
   -5.2882   14.1185  -10.2095 H   0  0  0  0  0  0  0  0  0  0  0  0
   -4.0431   13.0269  -10.9057 H   0  0  0  0  0  0  0  0  0  0  0  0
   -3.9735   15.4217  -12.4385 H   0  0  0  0  0  0  0  0  0  0  0  0
   -4.0914   15.9235  -10.7178 H   0  0  0  0  0  0  0  0  0  0  0  0
   -1.9457   13.7098   -8.5138 H   0  0  0  0  0  0  0  0  0  0  0  0
   -0.0034   13.9020   -9.0723 H   0  0  0  0  0  0  0  0  0  0  0  0
    0.0984   13.7264  -10.8570 H   0  0  0  0  0  0  0  0  0  0  0  0
    0.1408   15.3601  -10.1114 H   0  0  0  0  0  0  0  0  0  0  0  0
  1  2  1  0  0  0  0
  1  4  1  0  0  0  0
  1 11  2  0  0  0  0
  2  6  2  0  0  0  0
  3  4  1  0  0  0  0
  3  5  2  0  0  0  0
  5  6  1  0  0  0  0
  5  9  1  0  0  0  0
  6  7  1  0  0  0  0
  7  8  2  0  0  0  0
  7 10  1  0  0  0  0
  8  9  1  0  0  0  0
 10 12  2  0  0  0  0
 11 24  1  0  0  0  0
 12 13  1  0  0  0  0
 12 17  1  0  0  0  0
 13 14  2  0  0  0  0
 14 15  1  0  0  0  0
 15 16  1  0  0  0  0
 15 18  1  0  0  0  0
 16 17  2  0  0  0  0
 18 19  2  0  0  0  0
 18 22  1  0  0  0  0
 19 20  1  0  0  0  0
 20 21  1  0  0  0  0
 20 23  1  0  0  0  0
 21 22  2  0  0  0  0
 24 25  1  0  0  0  0
 25 26  1  0  0  0  0
 26 27  2  0  0  0  0
 27 28  1  0  0  0  0
 27 29  1  0  0  0  0
  2 30  1  0  0  0  0
  3 31  1  0  0  0  0
  4 32  1  0  0  0  0
  4 33  1  0  0  0  0
  9 34  1  0  0  0  0
 10 35  1  0  0  0  0
 13 36  1  0  0  0  0
 14 37  1  0  0  0  0
 15 38  1  0  0  0  0
 16 39  1  0  0  0  0
 17 40  1  0  0  0  0
 19 41  1  0  0  0  0
 22 42  1  0  0  0  0
 23 43  1  0  0  0  0
 23 44  1  0  0  0  0
 23 45  1  0  0  0  0
 24 46  1  0  0  0  0
 24 47  1  0  0  0  0
 25 48  1  0  0  0  0
 25 49  1  0  0  0  0
 28 50  1  0  0  0  0
 29 51  1  0  0  0  0
 29 52  1  0  0  0  0
 29 53  1  0  0  0  0
M  END
> <Name>
27

> <IC50[uM]>
0.68

$$$$
27
  -OEChem-05192314333D
 Structure written by MMmdl.
 53 56  0     1  0  0  0  0  0999 V2000
   -6.3855   12.3606  -12.0031 C   0  0  0  0  0  0  0  0  0  0  0  0
   -6.5214   11.8004  -10.7171 C   0  0  0  0  0  0  0  0  0  0  0  0
   -7.6991   10.5797  -13.0384 C   0  0  0  0  0  0  0  0  0  0  0  0
   -6.9626   11.7779  -13.1031 C   0  0  0  0  0  0  0  0  0  0  0  0
   -7.8238   10.0198  -11.7523 C   0  0  0  0  0  0  0  0  0  0  0  0
   -7.2557   10.6213  -10.5956 C   0  0  0  0  0  0  0  0  0  0  0  0
   -7.6268    9.7501   -9.5073 C   0  0  0  0  0  0  0  0  0  0  0  0
   -8.3057    8.7491   -9.9816 N   0  0  0  0  0  0  0  0  0  0  0  0
   -8.4330    8.8776  -11.2917 N   0  0  0  0  0  0  0  0  0  0  0  0
   -7.3352    9.8817   -8.0196 C   0  0  0  0  0  0  0  0  0  0  0  0
   -5.6205   13.5372  -12.2095 N   0  0  0  0  0  0  0  0  0  0  0  0
   -5.9727   10.4835   -7.7324 C   0  0  0  0  0  0  0  0  0  0  0  0
   -5.8611   11.7523   -7.1657 C   0  0  0  0  0  0  0  0  0  0  0  0
   -4.5946   12.2988   -6.9068 C   0  0  0  0  0  0  0  0  0  0  0  0
   -3.4432   11.5806   -7.2147 C   0  0  3  0  0  0  0  0  0  0  0  0
   -3.5570   10.3109   -7.7899 C   0  0  0  0  0  0  0  0  0  0  0  0
   -4.8253    9.7663   -8.0483 C   0  0  0  0  0  0  0  0  0  0  0  0
   -2.0926   12.1556   -6.9444 C   0  0  0  0  0  0  0  0  0  0  0  0
   -1.7338   13.4204   -6.4594 C   0  0  0  0  0  0  0  0  0  0  0  0
   -0.4064   13.4584   -6.4114 N   0  0  0  0  0  0  0  0  0  0  0  0
    0.1793   12.3493   -6.7865 N   0  0  0  0  0  0  0  0  0  0  0  0
   -0.7954   11.5387   -7.1512 C   0  0  0  0  0  0  0  0  0  0  0  0
    0.4205   14.5767   -6.0073 C   0  0  0  0  0  0  0  0  0  0  0  0
   -4.6894   13.8945  -11.1046 C   0  0  0  0  0  0  0  0  0  0  0  0
   -3.7822   15.1171  -11.3990 C   0  0  0  0  0  0  0  0  0  0  0  0
   -2.3310   14.9579  -11.2532 N   0  0  0  0  0  0  0  0  0  0  0  0
   -1.8099   14.4326  -10.1320 C   0  0  0  0  0  0  0  0  0  0  0  0
   -2.5019   14.0442   -9.2076 O   0  0  0  0  0  0  0  0  0  0  0  0
   -0.2869   14.3494  -10.0364 C   0  0  0  0  0  0  0  0  0  0  0  0
   -6.0716   12.2689   -9.8542 H   0  0  0  0  0  0  0  0  0  0  0  0
   -8.1374   10.1224  -13.9131 H   0  0  0  0  0  0  0  0  0  0  0  0
   -6.8466   12.2604  -14.0624 H   0  0  0  0  0  0  0  0  0  0  0  0
   -8.6759    7.9956   -9.4383 H   0  0  0  0  0  0  0  0  0  0  0  0
   -8.0269    9.5780   -7.2478 H   0  0  0  0  0  0  0  0  0  0  0  0
   -6.7507   12.3156   -6.9255 H   0  0  0  0  0  0  0  0  0  0  0  0
   -4.5373   13.2433   -7.4677 H   0  0  0  0  0  0  0  0  0  0  0  0
   -4.5562   12.5101   -5.8280 H   0  0  0  0  0  0  0  0  0  0  0  0
   -3.4540   11.1294   -6.2116 H   0  0  0  0  0  0  0  0  0  0  0  0
   -2.6683    9.7485   -8.0357 H   0  0  0  0  0  0  0  0  0  0  0  0
   -4.9092    8.7863   -8.4943 H   0  0  0  0  0  0  0  0  0  0  0  0
   -2.4090   14.2148   -6.1776 H   0  0  0  0  0  0  0  0  0  0  0  0
   -0.6475   10.5464   -7.5511 H   0  0  0  0  0  0  0  0  0  0  0  0
    1.4812   14.2962   -6.0855 H   0  0  0  0  0  0  0  0  0  0  0  0
    0.2196   15.4369   -6.6628 H   0  0  0  0  0  0  0  0  0  0  0  0
    0.1886   14.8468   -4.9665 H   0  0  0  0  0  0  0  0  0  0  0  0
   -5.2882   14.1185  -10.2095 H   0  0  0  0  0  0  0  0  0  0  0  0
   -4.0431   13.0269  -10.9057 H   0  0  0  0  0  0  0  0  0  0  0  0
   -3.9735   15.4217  -12.4385 H   0  0  0  0  0  0  0  0  0  0  0  0
   -4.0914   15.9235  -10.7178 H   0  0  0  0  0  0  0  0  0  0  0  0
   -1.9457   13.7098   -8.5138 H   0  0  0  0  0  0  0  0  0  0  0  0
   -0.0034   13.9020   -9.0723 H   0  0  0  0  0  0  0  0  0  0  0  0
    0.0984   13.7264  -10.8570 H   0  0  0  0  0  0  0  0  0  0  0  0
    0.1408   15.3601  -10.1114 H   0  0  0  0  0  0  0  0  0  0  0  0
  1  2  1  0  0  0  0
  1  4  1  0  0  0  0
  1 11  2  0  0  0  0
  2  6  2  0  0  0  0
  3  4  2  0  0  0  0
  3  5  1  0  0  0  0
  5  6  1  0  0  0  0
  5  9  2  0  0  0  0
  6  7  1  0  0  0  0
  7  8  1  0  0  0  0
  7 10  2  3  0  0  0
  8  9  1  0  0  0  0
 10 12  1  0  0  0  0
 11 24  1  0  0  0  0
 12 13  2  0  0  0  0
 12 17  1  0  0  0  0
 13 14  1  0  0  0  0
 14 15  1  0  0  0  0
 15 16  1  0  0  0  0
 15 18  1  0  0  0  0
 16 17  2  0  0  0  0
 18 19  2  0  0  0  0
 18 22  1  0  0  0  0
 19 20  1  0  0  0  0
 20 21  1  0  0  0  0
 20 23  1  0  0  0  0
 21 22  2  0  0  0  0
 24 25  1  0  0  0  0
 25 26  1  0  0  0  0
 26 27  2  0  0  0  0
 27 28  1  0  0  0  0
 27 29  1  0  0  0  0
  2 30  1  0  0  0  0
  3 31  1  0  0  0  0
  4 32  1  0  0  0  0
  8 33  1  0  0  0  0
 10 34  1  0  0  0  0
 13 35  1  0  0  0  0
 14 36  1  0  0  0  0
 14 37  1  0  0  0  0
 15 38  1  0  0  0  0
 16 39  1  0  0  0  0
 17 40  1  0  0  0  0
 19 41  1  0  0  0  0
 22 42  1  0  0  0  0
 23 43  1  0  0  0  0
 23 44  1  0  0  0  0
 23 45  1  0  0  0  0
 24 46  1  0  0  0  0
 24 47  1  0  0  0  0
 25 48  1  0  0  0  0
 25 49  1  0  0  0  0
 28 50  1  0  0  0  0
 29 51  1  0  0  0  0
 29 52  1  0  0  0  0
 29 53  1  0  0  0  0
M  END
> <Name>
27

> <IC50[uM]>
0.68

$$$$
27
  -OEChem-05192314333D
 Structure written by MMmdl.
 53 56  0     1  0  0  0  0  0999 V2000
   -6.3855   12.3606  -12.0031 C   0  0  0  0  0  0  0  0  0  0  0  0
   -6.5214   11.8004  -10.7171 C   0  0  0  0  0  0  0  0  0  0  0  0
   -7.6991   10.5797  -13.0384 C   0  0  0  0  0  0  0  0  0  0  0  0
   -6.9626   11.7779  -13.1031 C   0  0  0  0  0  0  0  0  0  0  0  0
   -7.8238   10.0198  -11.7523 C   0  0  0  0  0  0  0  0  0  0  0  0
   -7.2557   10.6213  -10.5956 C   0  0  0  0  0  0  0  0  0  0  0  0
   -7.6268    9.7501   -9.5073 C   0  0  0  0  0  0  0  0  0  0  0  0
   -8.3057    8.7491   -9.9816 N   0  0  0  0  0  0  0  0  0  0  0  0
   -8.4330    8.8776  -11.2917 N   0  0  0  0  0  0  0  0  0  0  0  0
   -7.3352    9.8817   -8.0196 C   0  0  0  0  0  0  0  0  0  0  0  0
   -5.6205   13.5372  -12.2095 N   0  0  0  0  0  0  0  0  0  0  0  0
   -5.9727   10.4835   -7.7324 C   0  0  3  0  0  0  0  0  0  0  0  0
   -5.8611   11.7523   -7.1657 C   0  0  0  0  0  0  0  0  0  0  0  0
   -4.5946   12.2988   -6.9068 C   0  0  0  0  0  0  0  0  0  0  0  0
   -3.4432   11.5806   -7.2147 C   0  0  0  0  0  0  0  0  0  0  0  0
   -3.5570   10.3109   -7.7899 C   0  0  0  0  0  0  0  0  0  0  0  0
   -4.8253    9.7663   -8.0483 C   0  0  0  0  0  0  0  0  0  0  0  0
   -2.0926   12.1556   -6.9444 C   0  0  0  0  0  0  0  0  0  0  0  0
   -1.7338   13.4204   -6.4594 C   0  0  0  0  0  0  0  0  0  0  0  0
   -0.4064   13.4584   -6.4114 N   0  0  0  0  0  0  0  0  0  0  0  0
    0.1793   12.3493   -6.7865 N   0  0  0  0  0  0  0  0  0  0  0  0
   -0.7954   11.5387   -7.1512 C   0  0  0  0  0  0  0  0  0  0  0  0
    0.4205   14.5767   -6.0073 C   0  0  0  0  0  0  0  0  0  0  0  0
   -4.6894   13.8945  -11.1046 C   0  0  0  0  0  0  0  0  0  0  0  0
   -3.7822   15.1171  -11.3990 C   0  0  0  0  0  0  0  0  0  0  0  0
   -2.3310   14.9579  -11.2532 N   0  0  0  0  0  0  0  0  0  0  0  0
   -1.8099   14.4326  -10.1320 C   0  0  0  0  0  0  0  0  0  0  0  0
   -2.5019   14.0442   -9.2076 O   0  0  0  0  0  0  0  0  0  0  0  0
   -0.2869   14.3494  -10.0364 C   0  0  0  0  0  0  0  0  0  0  0  0
   -6.0716   12.2689   -9.8542 H   0  0  0  0  0  0  0  0  0  0  0  0
   -8.1374   10.1224  -13.9131 H   0  0  0  0  0  0  0  0  0  0  0  0
   -6.8466   12.2604  -14.0624 H   0  0  0  0  0  0  0  0  0  0  0  0
   -8.6759    7.9956   -9.4383 H   0  0  0  0  0  0  0  0  0  0  0  0
   -8.0269    9.5780   -7.2478 H   0  0  0  0  0  0  0  0  0  0  0  0
   -5.9820   10.0328   -6.7290 H   0  0  0  0  0  0  0  0  0  0  0  0
   -6.7507   12.3156   -6.9255 H   0  0  0  0  0  0  0  0  0  0  0  0
   -4.5132   13.2816   -6.4664 H   0  0  0  0  0  0  0  0  0  0  0  0
   -2.6683    9.7485   -8.0357 H   0  0  0  0  0  0  0  0  0  0  0  0
   -4.8817    8.8185   -7.4929 H   0  0  0  0  0  0  0  0  0  0  0  0
   -4.8676    9.5615   -9.1282 H   0  0  0  0  0  0  0  0  0  0  0  0
   -2.4090   14.2148   -6.1776 H   0  0  0  0  0  0  0  0  0  0  0  0
   -0.6475   10.5464   -7.5511 H   0  0  0  0  0  0  0  0  0  0  0  0
    1.4812   14.2962   -6.0855 H   0  0  0  0  0  0  0  0  0  0  0  0
    0.2196   15.4369   -6.6628 H   0  0  0  0  0  0  0  0  0  0  0  0
    0.1886   14.8468   -4.9665 H   0  0  0  0  0  0  0  0  0  0  0  0
   -5.2882   14.1185  -10.2095 H   0  0  0  0  0  0  0  0  0  0  0  0
   -4.0431   13.0269  -10.9057 H   0  0  0  0  0  0  0  0  0  0  0  0
   -3.9735   15.4217  -12.4385 H   0  0  0  0  0  0  0  0  0  0  0  0
   -4.0914   15.9235  -10.7178 H   0  0  0  0  0  0  0  0  0  0  0  0
   -1.9457   13.7098   -8.5138 H   0  0  0  0  0  0  0  0  0  0  0  0
   -0.0034   13.9020   -9.0723 H   0  0  0  0  0  0  0  0  0  0  0  0
    0.0984   13.7264  -10.8570 H   0  0  0  0  0  0  0  0  0  0  0  0
    0.1408   15.3601  -10.1114 H   0  0  0  0  0  0  0  0  0  0  0  0
  1  2  1  0  0  0  0
  1  4  1  0  0  0  0
  1 11  2  0  0  0  0
  2  6  2  0  0  0  0
  3  4  2  0  0  0  0
  3  5  1  0  0  0  0
  5  6  1  0  0  0  0
  5  9  2  0  0  0  0
  6  7  1  0  0  0  0
  7  8  1  0  0  0  0
  7 10  2  3  0  0  0
  8  9  1  0  0  0  0
 10 12  1  0  0  0  0
 11 24  1  0  0  0  0
 12 13  1  0  0  0  0
 12 17  1  0  0  0  0
 13 14  2  0  0  0  0
 14 15  1  0  0  0  0
 15 16  2  0  0  0  0
 15 18  1  0  0  0  0
 16 17  1  0  0  0  0
 18 19  2  0  0  0  0
 18 22  1  0  0  0  0
 19 20  1  0  0  0  0
 20 21  1  0  0  0  0
 20 23  1  0  0  0  0
 21 22  2  0  0  0  0
 24 25  1  0  0  0  0
 25 26  1  0  0  0  0
 26 27  2  0  0  0  0
 27 28  1  0  0  0  0
 27 29  1  0  0  0  0
  2 30  1  0  0  0  0
  3 31  1  0  0  0  0
  4 32  1  0  0  0  0
  8 33  1  0  0  0  0
 10 34  1  0  0  0  0
 12 35  1  0  0  0  0
 13 36  1  0  0  0  0
 14 37  1  0  0  0  0
 16 38  1  0  0  0  0
 17 39  1  0  0  0  0
 17 40  1  0  0  0  0
 19 41  1  0  0  0  0
 22 42  1  0  0  0  0
 23 43  1  0  0  0  0
 23 44  1  0  0  0  0
 23 45  1  0  0  0  0
 24 46  1  0  0  0  0
 24 47  1  0  0  0  0
 25 48  1  0  0  0  0
 25 49  1  0  0  0  0
 28 50  1  0  0  0  0
 29 51  1  0  0  0  0
 29 52  1  0  0  0  0
 29 53  1  0  0  0  0
M  END
> <Name>
27

> <IC50[uM]>
0.68

$$$$
27
  -OEChem-05192314333D
 Structure written by MMmdl.
 53 56  0     0  0  0  0  0  0999 V2000
   -6.3855   12.3606  -12.0031 C   0  0  0  0  0  0  0  0  0  0  0  0
   -6.5214   11.8004  -10.7171 C   0  0  0  0  0  0  0  0  0  0  0  0
   -7.6991   10.5797  -13.0384 C   0  0  0  0  0  0  0  0  0  0  0  0
   -6.9626   11.7779  -13.1031 C   0  0  0  0  0  0  0  0  0  0  0  0
   -7.8238   10.0198  -11.7523 C   0  0  0  0  0  0  0  0  0  0  0  0
   -7.2557   10.6213  -10.5956 C   0  0  0  0  0  0  0  0  0  0  0  0
   -7.6268    9.7501   -9.5073 C   0  0  0  0  0  0  0  0  0  0  0  0
   -8.3057    8.7491   -9.9816 N   0  0  0  0  0  0  0  0  0  0  0  0
   -8.4330    8.8776  -11.2917 N   0  0  0  0  0  0  0  0  0  0  0  0
   -7.3352    9.8817   -8.0196 C   0  0  0  0  0  0  0  0  0  0  0  0
   -5.6205   13.5372  -12.2095 N   0  0  0  0  0  0  0  0  0  0  0  0
   -5.9727   10.4835   -7.7324 C   0  0  0  0  0  0  0  0  0  0  0  0
   -5.8611   11.7523   -7.1657 C   0  0  0  0  0  0  0  0  0  0  0  0
   -4.5946   12.2988   -6.9068 C   0  0  0  0  0  0  0  0  0  0  0  0
   -3.4432   11.5806   -7.2147 C   0  0  0  0  0  0  0  0  0  0  0  0
   -3.5570   10.3109   -7.7899 C   0  0  0  0  0  0  0  0  0  0  0  0
   -4.8253    9.7663   -8.0483 C   0  0  0  0  0  0  0  0  0  0  0  0
   -2.0926   12.1556   -6.9444 C   0  0  0  0  0  0  0  0  0  0  0  0
   -1.7338   13.4204   -6.4594 C   0  0  0  0  0  0  0  0  0  0  0  0
   -0.4064   13.4584   -6.4114 N   0  0  0  0  0  0  0  0  0  0  0  0
    0.1793   12.3493   -6.7865 N   0  0  0  0  0  0  0  0  0  0  0  0
   -0.7954   11.5387   -7.1512 C   0  0  0  0  0  0  0  0  0  0  0  0
    0.4205   14.5767   -6.0073 C   0  0  0  0  0  0  0  0  0  0  0  0
   -4.6894   13.8945  -11.1046 C   0  0  0  0  0  0  0  0  0  0  0  0
   -3.7822   15.1171  -11.3990 C   0  0  0  0  0  0  0  0  0  0  0  0
   -2.3310   14.9579  -11.2532 N   0  0  0  0  0  0  0  0  0  0  0  0
   -1.8099   14.4326  -10.1320 C   0  0  0  0  0  0  0  0  0  0  0  0
   -2.5019   14.0442   -9.2076 O   0  0  0  0  0  0  0  0  0  0  0  0
   -0.2869   14.3494  -10.0364 C   0  0  0  0  0  0  0  0  0  0  0  0
   -6.0716   12.2689   -9.8542 H   0  0  0  0  0  0  0  0  0  0  0  0
   -8.1374   10.1224  -13.9131 H   0  0  0  0  0  0  0  0  0  0  0  0
   -7.6459   12.5314  -13.5218 H   0  0  0  0  0  0  0  0  0  0  0  0
   -6.1429   11.5918  -13.8126 H   0  0  0  0  0  0  0  0  0  0  0  0
   -8.9138    8.2235  -11.8756 H   0  0  0  0  0  0  0  0  0  0  0  0
   -8.0269    9.5780   -7.2478 H   0  0  0  0  0  0  0  0  0  0  0  0
   -6.7507   12.3156   -6.9255 H   0  0  0  0  0  0  0  0  0  0  0  0
   -4.5132   13.2816   -6.4664 H   0  0  0  0  0  0  0  0  0  0  0  0
   -2.6683    9.7485   -8.0357 H   0  0  0  0  0  0  0  0  0  0  0  0
   -4.8817    8.8185   -7.4929 H   0  0  0  0  0  0  0  0  0  0  0  0
   -4.8676    9.5615   -9.1282 H   0  0  0  0  0  0  0  0  0  0  0  0
   -2.4090   14.2148   -6.1776 H   0  0  0  0  0  0  0  0  0  0  0  0
   -0.6475   10.5464   -7.5511 H   0  0  0  0  0  0  0  0  0  0  0  0
    1.4812   14.2962   -6.0855 H   0  0  0  0  0  0  0  0  0  0  0  0
    0.2196   15.4369   -6.6628 H   0  0  0  0  0  0  0  0  0  0  0  0
    0.1886   14.8468   -4.9665 H   0  0  0  0  0  0  0  0  0  0  0  0
   -5.2882   14.1185  -10.2095 H   0  0  0  0  0  0  0  0  0  0  0  0
   -4.0431   13.0269  -10.9057 H   0  0  0  0  0  0  0  0  0  0  0  0
   -3.9735   15.4217  -12.4385 H   0  0  0  0  0  0  0  0  0  0  0  0
   -4.0914   15.9235  -10.7178 H   0  0  0  0  0  0  0  0  0  0  0  0
   -1.9457   13.7098   -8.5138 H   0  0  0  0  0  0  0  0  0  0  0  0
   -0.0034   13.9020   -9.0723 H   0  0  0  0  0  0  0  0  0  0  0  0
    0.0984   13.7264  -10.8570 H   0  0  0  0  0  0  0  0  0  0  0  0
    0.1408   15.3601  -10.1114 H   0  0  0  0  0  0  0  0  0  0  0  0
  1  2  1  0  0  0  0
  1  4  1  0  0  0  0
  1 11  2  0  0  0  0
  2  6  2  0  0  0  0
  3  4  1  0  0  0  0
  3  5  2  0  0  0  0
  5  6  1  0  0  0  0
  5  9  1  0  0  0  0
  6  7  1  0  0  0  0
  7  8  2  0  0  0  0
  7 10  1  0  0  0  0
  8  9  1  0  0  0  0
 10 12  2  3  0  0  0
 11 24  1  0  0  0  0
 12 13  1  0  0  0  0
 12 17  1  0  0  0  0
 13 14  2  0  0  0  0
 14 15  1  0  0  0  0
 15 16  2  0  0  0  0
 15 18  1  0  0  0  0
 16 17  1  0  0  0  0
 18 19  2  0  0  0  0
 18 22  1  0  0  0  0
 19 20  1  0  0  0  0
 20 21  1  0  0  0  0
 20 23  1  0  0  0  0
 21 22  2  0  0  0  0
 24 25  1  0  0  0  0
 25 26  1  0  0  0  0
 26 27  2  0  0  0  0
 27 28  1  0  0  0  0
 27 29  1  0  0  0  0
  2 30  1  0  0  0  0
  3 31  1  0  0  0  0
  4 32  1  0  0  0  0
  4 33  1  0  0  0  0
  9 34  1  0  0  0  0
 10 35  1  0  0  0  0
 13 36  1  0  0  0  0
 14 37  1  0  0  0  0
 16 38  1  0  0  0  0
 17 39  1  0  0  0  0
 17 40  1  0  0  0  0
 19 41  1  0  0  0  0
 22 42  1  0  0  0  0
 23 43  1  0  0  0  0
 23 44  1  0  0  0  0
 23 45  1  0  0  0  0
 24 46  1  0  0  0  0
 24 47  1  0  0  0  0
 25 48  1  0  0  0  0
 25 49  1  0  0  0  0
 28 50  1  0  0  0  0
 29 51  1  0  0  0  0
 29 52  1  0  0  0  0
 29 53  1  0  0  0  0
M  END
> <Name>
27

> <IC50[uM]>
0.68

$$$$
27
  -OEChem-05192314333D
 Structure written by MMmdl.
 53 56  0     0  0  0  0  0  0999 V2000
   -6.3855   12.3606  -12.0031 C   0  0  0  0  0  0  0  0  0  0  0  0
   -6.5214   11.8004  -10.7171 C   0  0  0  0  0  0  0  0  0  0  0  0
   -7.6991   10.5797  -13.0384 C   0  0  0  0  0  0  0  0  0  0  0  0
   -6.9626   11.7779  -13.1031 C   0  0  0  0  0  0  0  0  0  0  0  0
   -7.8238   10.0198  -11.7523 C   0  0  0  0  0  0  0  0  0  0  0  0
   -7.2557   10.6213  -10.5956 C   0  0  0  0  0  0  0  0  0  0  0  0
   -7.6268    9.7501   -9.5073 C   0  0  0  0  0  0  0  0  0  0  0  0
   -8.3057    8.7491   -9.9816 N   0  0  0  0  0  0  0  0  0  0  0  0
   -8.4330    8.8776  -11.2917 N   0  0  0  0  0  0  0  0  0  0  0  0
   -7.3352    9.8817   -8.0196 C   0  0  0  0  0  0  0  0  0  0  0  0
   -5.6205   13.5372  -12.2095 N   0  0  0  0  0  0  0  0  0  0  0  0
   -5.9727   10.4835   -7.7324 C   0  0  0  0  0  0  0  0  0  0  0  0
   -5.8611   11.7523   -7.1657 C   0  0  0  0  0  0  0  0  0  0  0  0
   -4.5946   12.2988   -6.9068 C   0  0  0  0  0  0  0  0  0  0  0  0
   -3.4432   11.5806   -7.2147 C   0  0  0  0  0  0  0  0  0  0  0  0
   -3.5570   10.3109   -7.7899 C   0  0  0  0  0  0  0  0  0  0  0  0
   -4.8253    9.7663   -8.0483 C   0  0  0  0  0  0  0  0  0  0  0  0
   -2.0926   12.1556   -6.9444 C   0  0  0  0  0  0  0  0  0  0  0  0
   -1.7338   13.4204   -6.4594 C   0  0  0  0  0  0  0  0  0  0  0  0
   -0.4064   13.4584   -6.4114 N   0  0  0  0  0  0  0  0  0  0  0  0
    0.1793   12.3493   -6.7865 N   0  0  0  0  0  0  0  0  0  0  0  0
   -0.7954   11.5387   -7.1512 C   0  0  0  0  0  0  0  0  0  0  0  0
    0.4205   14.5767   -6.0073 C   0  0  0  0  0  0  0  0  0  0  0  0
   -4.6894   13.8945  -11.1046 C   0  0  0  0  0  0  0  0  0  0  0  0
   -3.7822   15.1171  -11.3990 C   0  0  0  0  0  0  0  0  0  0  0  0
   -2.3310   14.9579  -11.2532 N   0  0  0  0  0  0  0  0  0  0  0  0
   -1.8099   14.4326  -10.1320 C   0  0  0  0  0  0  0  0  0  0  0  0
   -2.5019   14.0442   -9.2076 O   0  0  0  0  0  0  0  0  0  0  0  0
   -0.2869   14.3494  -10.0364 C   0  0  0  0  0  0  0  0  0  0  0  0
   -6.0716   12.2689   -9.8542 H   0  0  0  0  0  0  0  0  0  0  0  0
   -8.1374   10.1224  -13.9131 H   0  0  0  0  0  0  0  0  0  0  0  0
   -6.8466   12.2604  -14.0624 H   0  0  0  0  0  0  0  0  0  0  0  0
   -8.6759    7.9956   -9.4383 H   0  0  0  0  0  0  0  0  0  0  0  0
   -8.0269    9.5780   -7.2478 H   0  0  0  0  0  0  0  0  0  0  0  0
   -6.7507   12.3156   -6.9255 H   0  0  0  0  0  0  0  0  0  0  0  0
   -4.5373   13.2433   -7.4677 H   0  0  0  0  0  0  0  0  0  0  0  0
   -4.5562   12.5101   -5.8280 H   0  0  0  0  0  0  0  0  0  0  0  0
   -2.6683    9.7485   -8.0357 H   0  0  0  0  0  0  0  0  0  0  0  0
   -4.8817    8.8185   -7.4929 H   0  0  0  0  0  0  0  0  0  0  0  0
   -4.8676    9.5615   -9.1282 H   0  0  0  0  0  0  0  0  0  0  0  0
   -2.4090   14.2148   -6.1776 H   0  0  0  0  0  0  0  0  0  0  0  0
   -0.6475   10.5464   -7.5511 H   0  0  0  0  0  0  0  0  0  0  0  0
    1.4812   14.2962   -6.0855 H   0  0  0  0  0  0  0  0  0  0  0  0
    0.2196   15.4369   -6.6628 H   0  0  0  0  0  0  0  0  0  0  0  0
    0.1886   14.8468   -4.9665 H   0  0  0  0  0  0  0  0  0  0  0  0
   -5.2882   14.1185  -10.2095 H   0  0  0  0  0  0  0  0  0  0  0  0
   -4.0431   13.0269  -10.9057 H   0  0  0  0  0  0  0  0  0  0  0  0
   -3.9735   15.4217  -12.4385 H   0  0  0  0  0  0  0  0  0  0  0  0
   -4.0914   15.9235  -10.7178 H   0  0  0  0  0  0  0  0  0  0  0  0
   -1.9457   13.7098   -8.5138 H   0  0  0  0  0  0  0  0  0  0  0  0
   -0.0034   13.9020   -9.0723 H   0  0  0  0  0  0  0  0  0  0  0  0
    0.0984   13.7264  -10.8570 H   0  0  0  0  0  0  0  0  0  0  0  0
    0.1408   15.3601  -10.1114 H   0  0  0  0  0  0  0  0  0  0  0  0
  1  2  1  0  0  0  0
  1  4  1  0  0  0  0
  1 11  2  0  0  0  0
  2  6  2  0  0  0  0
  3  4  2  0  0  0  0
  3  5  1  0  0  0  0
  5  6  1  0  0  0  0
  5  9  2  0  0  0  0
  6  7  1  0  0  0  0
  7  8  1  0  0  0  0
  7 10  2  3  0  0  0
  8  9  1  0  0  0  0
 10 12  1  0  0  0  0
 11 24  1  0  0  0  0
 12 13  2  0  0  0  0
 12 17  1  0  0  0  0
 13 14  1  0  0  0  0
 14 15  1  0  0  0  0
 15 16  2  0  0  0  0
 15 18  1  0  0  0  0
 16 17  1  0  0  0  0
 18 19  2  0  0  0  0
 18 22  1  0  0  0  0
 19 20  1  0  0  0  0
 20 21  1  0  0  0  0
 20 23  1  0  0  0  0
 21 22  2  0  0  0  0
 24 25  1  0  0  0  0
 25 26  1  0  0  0  0
 26 27  2  0  0  0  0
 27 28  1  0  0  0  0
 27 29  1  0  0  0  0
  2 30  1  0  0  0  0
  3 31  1  0  0  0  0
  4 32  1  0  0  0  0
  8 33  1  0  0  0  0
 10 34  1  0  0  0  0
 13 35  1  0  0  0  0
 14 36  1  0  0  0  0
 14 37  1  0  0  0  0
 16 38  1  0  0  0  0
 17 39  1  0  0  0  0
 17 40  1  0  0  0  0
 19 41  1  0  0  0  0
 22 42  1  0  0  0  0
 23 43  1  0  0  0  0
 23 44  1  0  0  0  0
 23 45  1  0  0  0  0
 24 46  1  0  0  0  0
 24 47  1  0  0  0  0
 25 48  1  0  0  0  0
 25 49  1  0  0  0  0
 28 50  1  0  0  0  0
 29 51  1  0  0  0  0
 29 52  1  0  0  0  0
 29 53  1  0  0  0  0
M  END
> <Name>
27

> <IC50[uM]>
0.68

$$$$
27
  -OEChem-05192314333D
 Structure written by MMmdl.
 53 56  0     0  0  0  0  0  0999 V2000
   -6.3855   12.3606  -12.0031 C   0  0  0  0  0  0  0  0  0  0  0  0
   -6.5214   11.8004  -10.7171 C   0  0  0  0  0  0  0  0  0  0  0  0
   -7.6991   10.5797  -13.0384 C   0  0  0  0  0  0  0  0  0  0  0  0
   -6.9626   11.7779  -13.1031 C   0  0  0  0  0  0  0  0  0  0  0  0
   -7.8238   10.0198  -11.7523 C   0  0  0  0  0  0  0  0  0  0  0  0
   -7.2557   10.6213  -10.5956 C   0  0  0  0  0  0  0  0  0  0  0  0
   -7.6268    9.7501   -9.5073 C   0  0  0  0  0  0  0  0  0  0  0  0
   -8.3057    8.7491   -9.9816 N   0  0  0  0  0  0  0  0  0  0  0  0
   -8.4330    8.8776  -11.2917 N   0  0  0  0  0  0  0  0  0  0  0  0
   -7.3352    9.8817   -8.0196 C   0  0  0  0  0  0  0  0  0  0  0  0
   -5.6205   13.5372  -12.2095 N   0  0  0  0  0  0  0  0  0  0  0  0
   -5.9727   10.4835   -7.7324 C   0  0  0  0  0  0  0  0  0  0  0  0
   -5.8611   11.7523   -7.1657 C   0  0  0  0  0  0  0  0  0  0  0  0
   -4.5946   12.2988   -6.9068 C   0  0  0  0  0  0  0  0  0  0  0  0
   -3.4432   11.5806   -7.2147 C   0  0  0  0  0  0  0  0  0  0  0  0
   -3.5570   10.3109   -7.7899 C   0  0  0  0  0  0  0  0  0  0  0  0
   -4.8253    9.7663   -8.0483 C   0  0  0  0  0  0  0  0  0  0  0  0
   -2.0926   12.1556   -6.9444 C   0  0  0  0  0  0  0  0  0  0  0  0
   -1.7338   13.4204   -6.4594 C   0  0  0  0  0  0  0  0  0  0  0  0
   -0.4064   13.4584   -6.4114 N   0  0  0  0  0  0  0  0  0  0  0  0
    0.1793   12.3493   -6.7865 N   0  0  0  0  0  0  0  0  0  0  0  0
   -0.7954   11.5387   -7.1512 C   0  0  0  0  0  0  0  0  0  0  0  0
    0.4205   14.5767   -6.0073 C   0  0  0  0  0  0  0  0  0  0  0  0
   -4.6894   13.8945  -11.1046 C   0  0  0  0  0  0  0  0  0  0  0  0
   -3.7822   15.1171  -11.3990 C   0  0  0  0  0  0  0  0  0  0  0  0
   -2.3310   14.9579  -11.2532 N   0  0  0  0  0  0  0  0  0  0  0  0
   -1.8099   14.4326  -10.1320 C   0  0  0  0  0  0  0  0  0  0  0  0
   -2.5019   14.0442   -9.2076 O   0  0  0  0  0  0  0  0  0  0  0  0
   -0.2869   14.3494  -10.0364 C   0  0  0  0  0  0  0  0  0  0  0  0
   -6.0716   12.2689   -9.8542 H   0  0  0  0  0  0  0  0  0  0  0  0
   -8.1374   10.1224  -13.9131 H   0  0  0  0  0  0  0  0  0  0  0  0
   -6.8466   12.2604  -14.0624 H   0  0  0  0  0  0  0  0  0  0  0  0
   -8.6759    7.9956   -9.4383 H   0  0  0  0  0  0  0  0  0  0  0  0
   -8.0269    9.5780   -7.2478 H   0  0  0  0  0  0  0  0  0  0  0  0
   -6.7507   12.3156   -6.9255 H   0  0  0  0  0  0  0  0  0  0  0  0
   -4.5132   13.2816   -6.4664 H   0  0  0  0  0  0  0  0  0  0  0  0
   -3.0266   10.3502   -8.7528 H   0  0  0  0  0  0  0  0  0  0  0  0
   -3.0423    9.6102   -7.1161 H   0  0  0  0  0  0  0  0  0  0  0  0
   -4.8817    8.8185   -7.4929 H   0  0  0  0  0  0  0  0  0  0  0  0
   -4.8676    9.5615   -9.1282 H   0  0  0  0  0  0  0  0  0  0  0  0
   -2.4090   14.2148   -6.1776 H   0  0  0  0  0  0  0  0  0  0  0  0
   -0.6475   10.5464   -7.5511 H   0  0  0  0  0  0  0  0  0  0  0  0
    1.4812   14.2962   -6.0855 H   0  0  0  0  0  0  0  0  0  0  0  0
    0.2196   15.4369   -6.6628 H   0  0  0  0  0  0  0  0  0  0  0  0
    0.1886   14.8468   -4.9665 H   0  0  0  0  0  0  0  0  0  0  0  0
   -5.2882   14.1185  -10.2095 H   0  0  0  0  0  0  0  0  0  0  0  0
   -4.0431   13.0269  -10.9057 H   0  0  0  0  0  0  0  0  0  0  0  0
   -3.9735   15.4217  -12.4385 H   0  0  0  0  0  0  0  0  0  0  0  0
   -4.0914   15.9235  -10.7178 H   0  0  0  0  0  0  0  0  0  0  0  0
   -1.9457   13.7098   -8.5138 H   0  0  0  0  0  0  0  0  0  0  0  0
   -0.0034   13.9020   -9.0723 H   0  0  0  0  0  0  0  0  0  0  0  0
    0.0984   13.7264  -10.8570 H   0  0  0  0  0  0  0  0  0  0  0  0
    0.1408   15.3601  -10.1114 H   0  0  0  0  0  0  0  0  0  0  0  0
  1  2  1  0  0  0  0
  1  4  1  0  0  0  0
  1 11  2  0  0  0  0
  2  6  2  0  0  0  0
  3  4  2  0  0  0  0
  3  5  1  0  0  0  0
  5  6  1  0  0  0  0
  5  9  2  0  0  0  0
  6  7  1  0  0  0  0
  7  8  1  0  0  0  0
  7 10  2  3  0  0  0
  8  9  1  0  0  0  0
 10 12  1  0  0  0  0
 11 24  1  0  0  0  0
 12 13  2  0  0  0  0
 12 17  1  0  0  0  0
 13 14  1  0  0  0  0
 14 15  2  0  0  0  0
 15 16  1  0  0  0  0
 15 18  1  0  0  0  0
 16 17  1  0  0  0  0
 18 19  2  0  0  0  0
 18 22  1  0  0  0  0
 19 20  1  0  0  0  0
 20 21  1  0  0  0  0
 20 23  1  0  0  0  0
 21 22  2  0  0  0  0
 24 25  1  0  0  0  0
 25 26  1  0  0  0  0
 26 27  2  0  0  0  0
 27 28  1  0  0  0  0
 27 29  1  0  0  0  0
  2 30  1  0  0  0  0
  3 31  1  0  0  0  0
  4 32  1  0  0  0  0
  8 33  1  0  0  0  0
 10 34  1  0  0  0  0
 13 35  1  0  0  0  0
 14 36  1  0  0  0  0
 16 37  1  0  0  0  0
 16 38  1  0  0  0  0
 17 39  1  0  0  0  0
 17 40  1  0  0  0  0
 19 41  1  0  0  0  0
 22 42  1  0  0  0  0
 23 43  1  0  0  0  0
 23 44  1  0  0  0  0
 23 45  1  0  0  0  0
 24 46  1  0  0  0  0
 24 47  1  0  0  0  0
 25 48  1  0  0  0  0
 25 49  1  0  0  0  0
 28 50  1  0  0  0  0
 29 51  1  0  0  0  0
 29 52  1  0  0  0  0
 29 53  1  0  0  0  0
M  END
> <Name>
27

> <IC50[uM]>
0.68

$$$$
27
  -OEChem-05192314333D
 Structure written by MMmdl.
 53 56  0     1  0  0  0  0  0999 V2000
   -6.3855   12.3606  -12.0031 C   0  0  0  0  0  0  0  0  0  0  0  0
   -6.5214   11.8004  -10.7171 C   0  0  0  0  0  0  0  0  0  0  0  0
   -7.6991   10.5797  -13.0384 C   0  0  0  0  0  0  0  0  0  0  0  0
   -6.9626   11.7779  -13.1031 C   0  0  0  0  0  0  0  0  0  0  0  0
   -7.8238   10.0198  -11.7523 C   0  0  0  0  0  0  0  0  0  0  0  0
   -7.2557   10.6213  -10.5956 C   0  0  0  0  0  0  0  0  0  0  0  0
   -7.6268    9.7501   -9.5073 C   0  0  0  0  0  0  0  0  0  0  0  0
   -8.3057    8.7491   -9.9816 N   0  0  0  0  0  0  0  0  0  0  0  0
   -8.4330    8.8776  -11.2917 N   0  0  0  0  0  0  0  0  0  0  0  0
   -7.3352    9.8817   -8.0196 C   0  0  0  0  0  0  0  0  0  0  0  0
   -5.6205   13.5372  -12.2095 N   0  0  0  0  0  0  0  0  0  0  0  0
   -5.9727   10.4835   -7.7324 C   0  0  0  0  0  0  0  0  0  0  0  0
   -5.8611   11.7523   -7.1657 C   0  0  0  0  0  0  0  0  0  0  0  0
   -4.5946   12.2988   -6.9068 C   0  0  0  0  0  0  0  0  0  0  0  0
   -3.4432   11.5806   -7.2147 C   0  0  0  0  0  0  0  0  0  0  0  0
   -3.5570   10.3109   -7.7899 C   0  0  0  0  0  0  0  0  0  0  0  0
   -4.8253    9.7663   -8.0483 C   0  0  0  0  0  0  0  0  0  0  0  0
   -2.0926   12.1556   -6.9444 C   0  0  3  0  0  0  0  0  0  0  0  0
   -1.7338   13.4204   -6.4594 C   0  0  0  0  0  0  0  0  0  0  0  0
   -0.4064   13.4584   -6.4114 N   0  0  3  0  0  0  0  0  0  0  0  0
    0.1793   12.3493   -6.7865 N   0  0  0  0  0  0  0  0  0  0  0  0
   -0.7954   11.5387   -7.1512 C   0  0  0  0  0  0  0  0  0  0  0  0
    0.4205   14.5767   -6.0073 C   0  0  0  0  0  0  0  0  0  0  0  0
   -4.6894   13.8945  -11.1046 C   0  0  0  0  0  0  0  0  0  0  0  0
   -3.7822   15.1171  -11.3990 C   0  0  0  0  0  0  0  0  0  0  0  0
   -2.3310   14.9579  -11.2532 N   0  0  0  0  0  0  0  0  0  0  0  0
   -1.8099   14.4326  -10.1320 C   0  0  0  0  0  0  0  0  0  0  0  0
   -2.5019   14.0442   -9.2076 O   0  0  0  0  0  0  0  0  0  0  0  0
   -0.2869   14.3494  -10.0364 C   0  0  0  0  0  0  0  0  0  0  0  0
   -6.0716   12.2689   -9.8542 H   0  0  0  0  0  0  0  0  0  0  0  0
   -8.1374   10.1224  -13.9131 H   0  0  0  0  0  0  0  0  0  0  0  0
   -6.8466   12.2604  -14.0624 H   0  0  0  0  0  0  0  0  0  0  0  0
   -8.1046   10.5248   -7.5674 H   0  0  0  0  0  0  0  0  0  0  0  0
   -7.3794    8.8814   -7.5641 H   0  0  0  0  0  0  0  0  0  0  0  0
   -6.7507   12.3156   -6.9255 H   0  0  0  0  0  0  0  0  0  0  0  0
   -4.5132   13.2816   -6.4664 H   0  0  0  0  0  0  0  0  0  0  0  0
   -2.6683    9.7485   -8.0357 H   0  0  0  0  0  0  0  0  0  0  0  0
   -4.9092    8.7863   -8.4943 H   0  0  0  0  0  0  0  0  0  0  0  0
   -2.1234   11.7627   -5.9174 H   0  0  0  0  0  0  0  0  0  0  0  0
   -2.1095   14.2037   -7.1341 H   0  0  0  0  0  0  0  0  0  0  0  0
   -2.1522   13.5713   -5.4533 H   0  0  0  0  0  0  0  0  0  0  0  0
   -0.6475   10.5464   -7.5511 H   0  0  0  0  0  0  0  0  0  0  0  0
    1.4812   14.2962   -6.0855 H   0  0  0  0  0  0  0  0  0  0  0  0
    0.2196   15.4369   -6.6628 H   0  0  0  0  0  0  0  0  0  0  0  0
    0.1886   14.8468   -4.9665 H   0  0  0  0  0  0  0  0  0  0  0  0
   -5.2882   14.1185  -10.2095 H   0  0  0  0  0  0  0  0  0  0  0  0
   -4.0431   13.0269  -10.9057 H   0  0  0  0  0  0  0  0  0  0  0  0
   -3.9735   15.4217  -12.4385 H   0  0  0  0  0  0  0  0  0  0  0  0
   -4.0914   15.9235  -10.7178 H   0  0  0  0  0  0  0  0  0  0  0  0
   -1.7243   15.2430  -11.9952 H   0  0  0  0  0  0  0  0  0  0  0  0
   -0.0031   13.9147   -9.0666 H   0  0  0  0  0  0  0  0  0  0  0  0
    0.0973   13.7152  -10.8489 H   0  0  0  0  0  0  0  0  0  0  0  0
    0.1416   15.3586  -10.1252 H   0  0  0  0  0  0  0  0  0  0  0  0
  1  2  1  0  0  0  0
  1  4  1  0  0  0  0
  1 11  2  0  0  0  0
  2  6  2  0  0  0  0
  3  4  2  0  0  0  0
  3  5  1  0  0  0  0
  5  6  1  0  0  0  0
  5  9  2  0  0  0  0
  6  7  1  0  0  0  0
  7  8  2  0  0  0  0
  7 10  1  0  0  0  0
  8  9  1  0  0  0  0
 10 12  1  0  0  0  0
 11 24  1  0  0  0  0
 12 13  2  0  0  0  0
 12 17  1  0  0  0  0
 13 14  1  0  0  0  0
 14 15  2  0  0  0  0
 15 16  1  0  0  0  0
 15 18  1  0  0  0  0
 16 17  2  0  0  0  0
 18 19  1  0  0  0  0
 18 22  1  0  0  0  0
 19 20  1  0  0  0  0
 20 21  1  0  0  0  0
 20 23  1  0  0  0  0
 21 22  2  0  0  0  0
 24 25  1  0  0  0  0
 25 26  1  0  0  0  0
 26 27  1  0  0  0  0
 27 28  2  0  0  0  0
 27 29  1  0  0  0  0
  2 30  1  0  0  0  0
  3 31  1  0  0  0  0
  4 32  1  0  0  0  0
 10 33  1  0  0  0  0
 10 34  1  0  0  0  0
 13 35  1  0  0  0  0
 14 36  1  0  0  0  0
 16 37  1  0  0  0  0
 17 38  1  0  0  0  0
 18 39  1  0  0  0  0
 19 40  1  0  0  0  0
 19 41  1  0  0  0  0
 22 42  1  0  0  0  0
 23 43  1  0  0  0  0
 23 44  1  0  0  0  0
 23 45  1  0  0  0  0
 24 46  1  0  0  0  0
 24 47  1  0  0  0  0
 25 48  1  0  0  0  0
 25 49  1  0  0  0  0
 26 50  1  0  0  0  0
 29 51  1  0  0  0  0
 29 52  1  0  0  0  0
 29 53  1  0  0  0  0
M  END
> <Name>
27

> <IC50[uM]>
0.68

$$$$
27
  -OEChem-05192314333D
 Structure written by MMmdl.
 53 56  0     1  0  0  0  0  0999 V2000
   -6.3855   12.3606  -12.0031 C   0  0  0  0  0  0  0  0  0  0  0  0
   -6.5214   11.8004  -10.7171 C   0  0  0  0  0  0  0  0  0  0  0  0
   -7.6991   10.5797  -13.0384 C   0  0  0  0  0  0  0  0  0  0  0  0
   -6.9626   11.7779  -13.1031 C   0  0  0  0  0  0  0  0  0  0  0  0
   -7.8238   10.0198  -11.7523 C   0  0  0  0  0  0  0  0  0  0  0  0
   -7.2557   10.6213  -10.5956 C   0  0  0  0  0  0  0  0  0  0  0  0
   -7.6268    9.7501   -9.5073 C   0  0  0  0  0  0  0  0  0  0  0  0
   -8.3057    8.7491   -9.9816 N   0  0  0  0  0  0  0  0  0  0  0  0
   -8.4330    8.8776  -11.2917 N   0  0  0  0  0  0  0  0  0  0  0  0
   -7.3352    9.8817   -8.0196 C   0  0  0  0  0  0  0  0  0  0  0  0
   -5.6205   13.5372  -12.2095 N   0  0  0  0  0  0  0  0  0  0  0  0
   -5.9727   10.4835   -7.7324 C   0  0  0  0  0  0  0  0  0  0  0  0
   -5.8611   11.7523   -7.1657 C   0  0  0  0  0  0  0  0  0  0  0  0
   -4.5946   12.2988   -6.9068 C   0  0  0  0  0  0  0  0  0  0  0  0
   -3.4432   11.5806   -7.2147 C   0  0  0  0  0  0  0  0  0  0  0  0
   -3.5570   10.3109   -7.7899 C   0  0  0  0  0  0  0  0  0  0  0  0
   -4.8253    9.7663   -8.0483 C   0  0  0  0  0  0  0  0  0  0  0  0
   -2.0926   12.1556   -6.9444 C   0  0  3  0  0  0  0  0  0  0  0  0
   -1.7338   13.4204   -6.4594 C   0  0  0  0  0  0  0  0  0  0  0  0
   -0.4064   13.4584   -6.4114 N   0  0  3  0  0  0  0  0  0  0  0  0
    0.1793   12.3493   -6.7865 N   0  0  0  0  0  0  0  0  0  0  0  0
   -0.7954   11.5387   -7.1512 C   0  0  0  0  0  0  0  0  0  0  0  0
    0.4205   14.5767   -6.0073 C   0  0  0  0  0  0  0  0  0  0  0  0
   -4.6894   13.8945  -11.1046 C   0  0  0  0  0  0  0  0  0  0  0  0
   -3.7822   15.1171  -11.3990 C   0  0  0  0  0  0  0  0  0  0  0  0
   -2.3310   14.9579  -11.2532 N   0  0  0  0  0  0  0  0  0  0  0  0
   -1.8099   14.4326  -10.1320 C   0  0  0  0  0  0  0  0  0  0  0  0
   -2.5019   14.0442   -9.2076 O   0  0  0  0  0  0  0  0  0  0  0  0
   -0.2869   14.3494  -10.0364 C   0  0  0  0  0  0  0  0  0  0  0  0
   -6.0716   12.2689   -9.8542 H   0  0  0  0  0  0  0  0  0  0  0  0
   -8.1374   10.1224  -13.9131 H   0  0  0  0  0  0  0  0  0  0  0  0
   -6.8466   12.2604  -14.0624 H   0  0  0  0  0  0  0  0  0  0  0  0
   -8.1046   10.5248   -7.5674 H   0  0  0  0  0  0  0  0  0  0  0  0
   -7.3794    8.8814   -7.5641 H   0  0  0  0  0  0  0  0  0  0  0  0
   -6.7507   12.3156   -6.9255 H   0  0  0  0  0  0  0  0  0  0  0  0
   -4.5132   13.2816   -6.4664 H   0  0  0  0  0  0  0  0  0  0  0  0
   -2.6683    9.7485   -8.0357 H   0  0  0  0  0  0  0  0  0  0  0  0
   -4.9092    8.7863   -8.4943 H   0  0  0  0  0  0  0  0  0  0  0  0
   -2.1234   11.7627   -5.9174 H   0  0  0  0  0  0  0  0  0  0  0  0
   -2.1095   14.2037   -7.1341 H   0  0  0  0  0  0  0  0  0  0  0  0
   -2.1522   13.5713   -5.4533 H   0  0  0  0  0  0  0  0  0  0  0  0
   -0.6475   10.5464   -7.5511 H   0  0  0  0  0  0  0  0  0  0  0  0
    1.4812   14.2962   -6.0855 H   0  0  0  0  0  0  0  0  0  0  0  0
    0.2196   15.4369   -6.6628 H   0  0  0  0  0  0  0  0  0  0  0  0
    0.1886   14.8468   -4.9665 H   0  0  0  0  0  0  0  0  0  0  0  0
   -5.2882   14.1185  -10.2095 H   0  0  0  0  0  0  0  0  0  0  0  0
   -4.0431   13.0269  -10.9057 H   0  0  0  0  0  0  0  0  0  0  0  0
   -3.9735   15.4217  -12.4385 H   0  0  0  0  0  0  0  0  0  0  0  0
   -4.0914   15.9235  -10.7178 H   0  0  0  0  0  0  0  0  0  0  0  0
   -1.9457   13.7098   -8.5138 H   0  0  0  0  0  0  0  0  0  0  0  0
   -0.0034   13.9020   -9.0723 H   0  0  0  0  0  0  0  0  0  0  0  0
    0.0984   13.7264  -10.8570 H   0  0  0  0  0  0  0  0  0  0  0  0
    0.1408   15.3601  -10.1114 H   0  0  0  0  0  0  0  0  0  0  0  0
  1  2  1  0  0  0  0
  1  4  1  0  0  0  0
  1 11  2  0  0  0  0
  2  6  2  0  0  0  0
  3  4  2  0  0  0  0
  3  5  1  0  0  0  0
  5  6  1  0  0  0  0
  5  9  2  0  0  0  0
  6  7  1  0  0  0  0
  7  8  2  0  0  0  0
  7 10  1  0  0  0  0
  8  9  1  0  0  0  0
 10 12  1  0  0  0  0
 11 24  1  0  0  0  0
 12 13  2  0  0  0  0
 12 17  1  0  0  0  0
 13 14  1  0  0  0  0
 14 15  2  0  0  0  0
 15 16  1  0  0  0  0
 15 18  1  0  0  0  0
 16 17  2  0  0  0  0
 18 19  1  0  0  0  0
 18 22  1  0  0  0  0
 19 20  1  0  0  0  0
 20 21  1  0  0  0  0
 20 23  1  0  0  0  0
 21 22  2  0  0  0  0
 24 25  1  0  0  0  0
 25 26  1  0  0  0  0
 26 27  2  0  0  0  0
 27 28  1  0  0  0  0
 27 29  1  0  0  0  0
  2 30  1  0  0  0  0
  3 31  1  0  0  0  0
  4 32  1  0  0  0  0
 10 33  1  0  0  0  0
 10 34  1  0  0  0  0
 13 35  1  0  0  0  0
 14 36  1  0  0  0  0
 16 37  1  0  0  0  0
 17 38  1  0  0  0  0
 18 39  1  0  0  0  0
 19 40  1  0  0  0  0
 19 41  1  0  0  0  0
 22 42  1  0  0  0  0
 23 43  1  0  0  0  0
 23 44  1  0  0  0  0
 23 45  1  0  0  0  0
 24 46  1  0  0  0  0
 24 47  1  0  0  0  0
 25 48  1  0  0  0  0
 25 49  1  0  0  0  0
 28 50  1  0  0  0  0
 29 51  1  0  0  0  0
 29 52  1  0  0  0  0
 29 53  1  0  0  0  0
M  END
> <Name>
27

> <IC50[uM]>
0.68

$$$$
27
  -OEChem-05192314333D
 Structure written by MMmdl.
 53 56  0     1  0  0  0  0  0999 V2000
   -6.3855   12.3606  -12.0031 C   0  0  0  0  0  0  0  0  0  0  0  0
   -6.5214   11.8004  -10.7171 C   0  0  0  0  0  0  0  0  0  0  0  0
   -7.6991   10.5797  -13.0384 C   0  0  0  0  0  0  0  0  0  0  0  0
   -6.9626   11.7779  -13.1031 C   0  0  0  0  0  0  0  0  0  0  0  0
   -7.8238   10.0198  -11.7523 C   0  0  3  0  0  0  0  0  0  0  0  0
   -7.2557   10.6213  -10.5956 C   0  0  0  0  0  0  0  0  0  0  0  0
   -7.6268    9.7501   -9.5073 C   0  0  0  0  0  0  0  0  0  0  0  0
   -8.3057    8.7491   -9.9816 N   0  0  0  0  0  0  0  0  0  0  0  0
   -8.4330    8.8776  -11.2917 N   0  0  0  0  0  0  0  0  0  0  0  0
   -7.3352    9.8817   -8.0196 C   0  0  0  0  0  0  0  0  0  0  0  0
   -5.6205   13.5372  -12.2095 N   0  0  0  0  0  0  0  0  0  0  0  0
   -5.9727   10.4835   -7.7324 C   0  0  0  0  0  0  0  0  0  0  0  0
   -5.8611   11.7523   -7.1657 C   0  0  0  0  0  0  0  0  0  0  0  0
   -4.5946   12.2988   -6.9068 C   0  0  0  0  0  0  0  0  0  0  0  0
   -3.4432   11.5806   -7.2147 C   0  0  0  0  0  0  0  0  0  0  0  0
   -3.5570   10.3109   -7.7899 C   0  0  0  0  0  0  0  0  0  0  0  0
   -4.8253    9.7663   -8.0483 C   0  0  0  0  0  0  0  0  0  0  0  0
   -2.0926   12.1556   -6.9444 C   0  0  3  0  0  0  0  0  0  0  0  0
   -1.7338   13.4204   -6.4594 C   0  0  0  0  0  0  0  0  0  0  0  0
   -0.4064   13.4584   -6.4114 N   0  0  3  0  0  0  0  0  0  0  0  0
    0.1793   12.3493   -6.7865 N   0  0  0  0  0  0  0  0  0  0  0  0
   -0.7954   11.5387   -7.1512 C   0  0  0  0  0  0  0  0  0  0  0  0
    0.4205   14.5767   -6.0073 C   0  0  0  0  0  0  0  0  0  0  0  0
   -4.6894   13.8945  -11.1046 C   0  0  0  0  0  0  0  0  0  0  0  0
   -3.7822   15.1171  -11.3990 C   0  0  0  0  0  0  0  0  0  0  0  0
   -2.3310   14.9579  -11.2532 N   0  0  0  0  0  0  0  0  0  0  0  0
   -1.8099   14.4326  -10.1320 C   0  0  0  0  0  0  0  0  0  0  0  0
   -2.5019   14.0442   -9.2076 O   0  0  0  0  0  0  0  0  0  0  0  0
   -0.2869   14.3494  -10.0364 C   0  0  0  0  0  0  0  0  0  0  0  0
   -6.0716   12.2689   -9.8542 H   0  0  0  0  0  0  0  0  0  0  0  0
   -8.1374   10.1224  -13.9131 H   0  0  0  0  0  0  0  0  0  0  0  0
   -6.8466   12.2604  -14.0624 H   0  0  0  0  0  0  0  0  0  0  0  0
   -8.7543   10.5845  -11.5930 H   0  0  0  0  0  0  0  0  0  0  0  0
   -8.0269    9.5780   -7.2478 H   0  0  0  0  0  0  0  0  0  0  0  0
   -6.7507   12.3156   -6.9255 H   0  0  0  0  0  0  0  0  0  0  0  0
   -4.5132   13.2816   -6.4664 H   0  0  0  0  0  0  0  0  0  0  0  0
   -2.6683    9.7485   -8.0357 H   0  0  0  0  0  0  0  0  0  0  0  0
   -4.9092    8.7863   -8.4943 H   0  0  0  0  0  0  0  0  0  0  0  0
   -2.1234   11.7627   -5.9174 H   0  0  0  0  0  0  0  0  0  0  0  0
   -2.1095   14.2037   -7.1341 H   0  0  0  0  0  0  0  0  0  0  0  0
   -2.1522   13.5713   -5.4533 H   0  0  0  0  0  0  0  0  0  0  0  0
   -0.6475   10.5464   -7.5511 H   0  0  0  0  0  0  0  0  0  0  0  0
    1.4812   14.2962   -6.0855 H   0  0  0  0  0  0  0  0  0  0  0  0
    0.2196   15.4369   -6.6628 H   0  0  0  0  0  0  0  0  0  0  0  0
    0.1886   14.8468   -4.9665 H   0  0  0  0  0  0  0  0  0  0  0  0
   -5.2882   14.1185  -10.2095 H   0  0  0  0  0  0  0  0  0  0  0  0
   -4.0431   13.0269  -10.9057 H   0  0  0  0  0  0  0  0  0  0  0  0
   -3.9735   15.4217  -12.4385 H   0  0  0  0  0  0  0  0  0  0  0  0
   -4.0914   15.9235  -10.7178 H   0  0  0  0  0  0  0  0  0  0  0  0
   -1.7243   15.2430  -11.9952 H   0  0  0  0  0  0  0  0  0  0  0  0
   -0.0031   13.9147   -9.0666 H   0  0  0  0  0  0  0  0  0  0  0  0
    0.0973   13.7152  -10.8489 H   0  0  0  0  0  0  0  0  0  0  0  0
    0.1416   15.3586  -10.1252 H   0  0  0  0  0  0  0  0  0  0  0  0
  1  2  1  0  0  0  0
  1  4  1  0  0  0  0
  1 11  2  0  0  0  0
  2  6  2  0  0  0  0
  3  4  2  0  0  0  0
  3  5  1  0  0  0  0
  5  6  1  0  0  0  0
  5  9  1  0  0  0  0
  6  7  1  0  0  0  0
  7  8  1  0  0  0  0
  7 10  2  3  0  0  0
  8  9  2  0  0  0  0
 10 12  1  0  0  0  0
 11 24  1  0  0  0  0
 12 13  2  0  0  0  0
 12 17  1  0  0  0  0
 13 14  1  0  0  0  0
 14 15  2  0  0  0  0
 15 16  1  0  0  0  0
 15 18  1  0  0  0  0
 16 17  2  0  0  0  0
 18 19  1  0  0  0  0
 18 22  1  0  0  0  0
 19 20  1  0  0  0  0
 20 21  1  0  0  0  0
 20 23  1  0  0  0  0
 21 22  2  0  0  0  0
 24 25  1  0  0  0  0
 25 26  1  0  0  0  0
 26 27  1  0  0  0  0
 27 28  2  0  0  0  0
 27 29  1  0  0  0  0
  2 30  1  0  0  0  0
  3 31  1  0  0  0  0
  4 32  1  0  0  0  0
  5 33  1  0  0  0  0
 10 34  1  0  0  0  0
 13 35  1  0  0  0  0
 14 36  1  0  0  0  0
 16 37  1  0  0  0  0
 17 38  1  0  0  0  0
 18 39  1  0  0  0  0
 19 40  1  0  0  0  0
 19 41  1  0  0  0  0
 22 42  1  0  0  0  0
 23 43  1  0  0  0  0
 23 44  1  0  0  0  0
 23 45  1  0  0  0  0
 24 46  1  0  0  0  0
 24 47  1  0  0  0  0
 25 48  1  0  0  0  0
 25 49  1  0  0  0  0
 26 50  1  0  0  0  0
 29 51  1  0  0  0  0
 29 52  1  0  0  0  0
 29 53  1  0  0  0  0
M  END
> <Name>
27

> <IC50[uM]>
0.68

$$$$
27
  -OEChem-05192314333D
 Structure written by MMmdl.
 53 56  0     1  0  0  0  0  0999 V2000
   -6.3855   12.3606  -12.0031 C   0  0  0  0  0  0  0  0  0  0  0  0
   -6.5214   11.8004  -10.7171 C   0  0  0  0  0  0  0  0  0  0  0  0
   -7.6991   10.5797  -13.0384 C   0  0  0  0  0  0  0  0  0  0  0  0
   -6.9626   11.7779  -13.1031 C   0  0  0  0  0  0  0  0  0  0  0  0
   -7.8238   10.0198  -11.7523 C   0  0  0  0  0  0  0  0  0  0  0  0
   -7.2557   10.6213  -10.5956 C   0  0  0  0  0  0  0  0  0  0  0  0
   -7.6268    9.7501   -9.5073 C   0  0  0  0  0  0  0  0  0  0  0  0
   -8.3057    8.7491   -9.9816 N   0  0  0  0  0  0  0  0  0  0  0  0
   -8.4330    8.8776  -11.2917 N   0  0  0  0  0  0  0  0  0  0  0  0
   -7.3352    9.8817   -8.0196 C   0  0  0  0  0  0  0  0  0  0  0  0
   -5.6205   13.5372  -12.2095 N   0  0  0  0  0  0  0  0  0  0  0  0
   -5.9727   10.4835   -7.7324 C   0  0  0  0  0  0  0  0  0  0  0  0
   -5.8611   11.7523   -7.1657 C   0  0  0  0  0  0  0  0  0  0  0  0
   -4.5946   12.2988   -6.9068 C   0  0  0  0  0  0  0  0  0  0  0  0
   -3.4432   11.5806   -7.2147 C   0  0  0  0  0  0  0  0  0  0  0  0
   -3.5570   10.3109   -7.7899 C   0  0  0  0  0  0  0  0  0  0  0  0
   -4.8253    9.7663   -8.0483 C   0  0  0  0  0  0  0  0  0  0  0  0
   -2.0926   12.1556   -6.9444 C   0  0  3  0  0  0  0  0  0  0  0  0
   -1.7338   13.4204   -6.4594 C   0  0  0  0  0  0  0  0  0  0  0  0
   -0.4064   13.4584   -6.4114 N   0  0  3  0  0  0  0  0  0  0  0  0
    0.1793   12.3493   -6.7865 N   0  0  0  0  0  0  0  0  0  0  0  0
   -0.7954   11.5387   -7.1512 C   0  0  0  0  0  0  0  0  0  0  0  0
    0.4205   14.5767   -6.0073 C   0  0  0  0  0  0  0  0  0  0  0  0
   -4.6894   13.8945  -11.1046 C   0  0  0  0  0  0  0  0  0  0  0  0
   -3.7822   15.1171  -11.3990 C   0  0  0  0  0  0  0  0  0  0  0  0
   -2.3310   14.9579  -11.2532 N   0  0  0  0  0  0  0  0  0  0  0  0
   -1.8099   14.4326  -10.1320 C   0  0  0  0  0  0  0  0  0  0  0  0
   -2.5019   14.0442   -9.2076 O   0  0  0  0  0  0  0  0  0  0  0  0
   -0.2869   14.3494  -10.0364 C   0  0  0  0  0  0  0  0  0  0  0  0
   -6.0716   12.2689   -9.8542 H   0  0  0  0  0  0  0  0  0  0  0  0
   -8.1374   10.1224  -13.9131 H   0  0  0  0  0  0  0  0  0  0  0  0
   -7.6459   12.5314  -13.5218 H   0  0  0  0  0  0  0  0  0  0  0  0
   -6.1429   11.5918  -13.8126 H   0  0  0  0  0  0  0  0  0  0  0  0
   -8.0269    9.5780   -7.2478 H   0  0  0  0  0  0  0  0  0  0  0  0
   -6.7507   12.3156   -6.9255 H   0  0  0  0  0  0  0  0  0  0  0  0
   -4.5132   13.2816   -6.4664 H   0  0  0  0  0  0  0  0  0  0  0  0
   -2.6683    9.7485   -8.0357 H   0  0  0  0  0  0  0  0  0  0  0  0
   -4.9092    8.7863   -8.4943 H   0  0  0  0  0  0  0  0  0  0  0  0
   -2.1234   11.7627   -5.9174 H   0  0  0  0  0  0  0  0  0  0  0  0
   -2.1095   14.2037   -7.1341 H   0  0  0  0  0  0  0  0  0  0  0  0
   -2.1522   13.5713   -5.4533 H   0  0  0  0  0  0  0  0  0  0  0  0
   -0.6475   10.5464   -7.5511 H   0  0  0  0  0  0  0  0  0  0  0  0
    1.4812   14.2962   -6.0855 H   0  0  0  0  0  0  0  0  0  0  0  0
    0.2196   15.4369   -6.6628 H   0  0  0  0  0  0  0  0  0  0  0  0
    0.1886   14.8468   -4.9665 H   0  0  0  0  0  0  0  0  0  0  0  0
   -5.2882   14.1185  -10.2095 H   0  0  0  0  0  0  0  0  0  0  0  0
   -4.0431   13.0269  -10.9057 H   0  0  0  0  0  0  0  0  0  0  0  0
   -3.9735   15.4217  -12.4385 H   0  0  0  0  0  0  0  0  0  0  0  0
   -4.0914   15.9235  -10.7178 H   0  0  0  0  0  0  0  0  0  0  0  0
   -1.7243   15.2430  -11.9952 H   0  0  0  0  0  0  0  0  0  0  0  0
   -0.0031   13.9147   -9.0666 H   0  0  0  0  0  0  0  0  0  0  0  0
    0.0973   13.7152  -10.8489 H   0  0  0  0  0  0  0  0  0  0  0  0
    0.1416   15.3586  -10.1252 H   0  0  0  0  0  0  0  0  0  0  0  0
  1  2  1  0  0  0  0
  1  4  1  0  0  0  0
  1 11  2  0  0  0  0
  2  6  2  0  0  0  0
  3  4  1  0  0  0  0
  3  5  2  0  0  0  0
  5  6  1  0  0  0  0
  5  9  1  0  0  0  0
  6  7  1  0  0  0  0
  7  8  1  0  0  0  0
  7 10  2  3  0  0  0
  8  9  2  0  0  0  0
 10 12  1  0  0  0  0
 11 24  1  0  0  0  0
 12 13  2  0  0  0  0
 12 17  1  0  0  0  0
 13 14  1  0  0  0  0
 14 15  2  0  0  0  0
 15 16  1  0  0  0  0
 15 18  1  0  0  0  0
 16 17  2  0  0  0  0
 18 19  1  0  0  0  0
 18 22  1  0  0  0  0
 19 20  1  0  0  0  0
 20 21  1  0  0  0  0
 20 23  1  0  0  0  0
 21 22  2  0  0  0  0
 24 25  1  0  0  0  0
 25 26  1  0  0  0  0
 26 27  1  0  0  0  0
 27 28  2  0  0  0  0
 27 29  1  0  0  0  0
  2 30  1  0  0  0  0
  3 31  1  0  0  0  0
  4 32  1  0  0  0  0
  4 33  1  0  0  0  0
 10 34  1  0  0  0  0
 13 35  1  0  0  0  0
 14 36  1  0  0  0  0
 16 37  1  0  0  0  0
 17 38  1  0  0  0  0
 18 39  1  0  0  0  0
 19 40  1  0  0  0  0
 19 41  1  0  0  0  0
 22 42  1  0  0  0  0
 23 43  1  0  0  0  0
 23 44  1  0  0  0  0
 23 45  1  0  0  0  0
 24 46  1  0  0  0  0
 24 47  1  0  0  0  0
 25 48  1  0  0  0  0
 25 49  1  0  0  0  0
 26 50  1  0  0  0  0
 29 51  1  0  0  0  0
 29 52  1  0  0  0  0
 29 53  1  0  0  0  0
M  END
> <Name>
27

> <IC50[uM]>
0.68

$$$$
27
  -OEChem-05192314333D
 Structure written by MMmdl.
 53 56  0     1  0  0  0  0  0999 V2000
   -6.3855   12.3606  -12.0031 C   0  0  0  0  0  0  0  0  0  0  0  0
   -6.5214   11.8004  -10.7171 C   0  0  0  0  0  0  0  0  0  0  0  0
   -7.6991   10.5797  -13.0384 C   0  0  0  0  0  0  0  0  0  0  0  0
   -6.9626   11.7779  -13.1031 C   0  0  0  0  0  0  0  0  0  0  0  0
   -7.8238   10.0198  -11.7523 C   0  0  0  0  0  0  0  0  0  0  0  0
   -7.2557   10.6213  -10.5956 C   0  0  0  0  0  0  0  0  0  0  0  0
   -7.6268    9.7501   -9.5073 C   0  0  0  0  0  0  0  0  0  0  0  0
   -8.3057    8.7491   -9.9816 N   0  0  0  0  0  0  0  0  0  0  0  0
   -8.4330    8.8776  -11.2917 N   0  0  0  0  0  0  0  0  0  0  0  0
   -7.3352    9.8817   -8.0196 C   0  0  0  0  0  0  0  0  0  0  0  0
   -5.6205   13.5372  -12.2095 N   0  0  0  0  0  0  0  0  0  0  0  0
   -5.9727   10.4835   -7.7324 C   0  0  0  0  0  0  0  0  0  0  0  0
   -5.8611   11.7523   -7.1657 C   0  0  0  0  0  0  0  0  0  0  0  0
   -4.5946   12.2988   -6.9068 C   0  0  0  0  0  0  0  0  0  0  0  0
   -3.4432   11.5806   -7.2147 C   0  0  0  0  0  0  0  0  0  0  0  0
   -3.5570   10.3109   -7.7899 C   0  0  0  0  0  0  0  0  0  0  0  0
   -4.8253    9.7663   -8.0483 C   0  0  0  0  0  0  0  0  0  0  0  0
   -2.0926   12.1556   -6.9444 C   0  0  3  0  0  0  0  0  0  0  0  0
   -1.7338   13.4204   -6.4594 C   0  0  0  0  0  0  0  0  0  0  0  0
   -0.4064   13.4584   -6.4114 N   0  0  3  0  0  0  0  0  0  0  0  0
    0.1793   12.3493   -6.7865 N   0  0  0  0  0  0  0  0  0  0  0  0
   -0.7954   11.5387   -7.1512 C   0  0  0  0  0  0  0  0  0  0  0  0
    0.4205   14.5767   -6.0073 C   0  0  0  0  0  0  0  0  0  0  0  0
   -4.6894   13.8945  -11.1046 C   0  0  0  0  0  0  0  0  0  0  0  0
   -3.7822   15.1171  -11.3990 C   0  0  0  0  0  0  0  0  0  0  0  0
   -2.3310   14.9579  -11.2532 N   0  0  0  0  0  0  0  0  0  0  0  0
   -1.8099   14.4326  -10.1320 C   0  0  0  0  0  0  0  0  0  0  0  0
   -2.5019   14.0442   -9.2076 O   0  0  0  0  0  0  0  0  0  0  0  0
   -0.2869   14.3494  -10.0364 C   0  0  0  0  0  0  0  0  0  0  0  0
   -5.5086   11.5965  -10.3394 H   0  0  0  0  0  0  0  0  0  0  0  0
   -7.0053   12.5553  -10.0799 H   0  0  0  0  0  0  0  0  0  0  0  0
   -8.1374   10.1224  -13.9131 H   0  0  0  0  0  0  0  0  0  0  0  0
   -6.8466   12.2604  -14.0624 H   0  0  0  0  0  0  0  0  0  0  0  0
   -8.0269    9.5780   -7.2478 H   0  0  0  0  0  0  0  0  0  0  0  0
   -6.7507   12.3156   -6.9255 H   0  0  0  0  0  0  0  0  0  0  0  0
   -4.5132   13.2816   -6.4664 H   0  0  0  0  0  0  0  0  0  0  0  0
   -2.6683    9.7485   -8.0357 H   0  0  0  0  0  0  0  0  0  0  0  0
   -4.9092    8.7863   -8.4943 H   0  0  0  0  0  0  0  0  0  0  0  0
   -2.1234   11.7627   -5.9174 H   0  0  0  0  0  0  0  0  0  0  0  0
   -2.1095   14.2037   -7.1341 H   0  0  0  0  0  0  0  0  0  0  0  0
   -2.1522   13.5713   -5.4533 H   0  0  0  0  0  0  0  0  0  0  0  0
   -0.6475   10.5464   -7.5511 H   0  0  0  0  0  0  0  0  0  0  0  0
    1.4812   14.2962   -6.0855 H   0  0  0  0  0  0  0  0  0  0  0  0
    0.2196   15.4369   -6.6628 H   0  0  0  0  0  0  0  0  0  0  0  0
    0.1886   14.8468   -4.9665 H   0  0  0  0  0  0  0  0  0  0  0  0
   -5.2882   14.1185  -10.2095 H   0  0  0  0  0  0  0  0  0  0  0  0
   -4.0431   13.0269  -10.9057 H   0  0  0  0  0  0  0  0  0  0  0  0
   -3.9735   15.4217  -12.4385 H   0  0  0  0  0  0  0  0  0  0  0  0
   -4.0914   15.9235  -10.7178 H   0  0  0  0  0  0  0  0  0  0  0  0
   -1.7243   15.2430  -11.9952 H   0  0  0  0  0  0  0  0  0  0  0  0
   -0.0031   13.9147   -9.0666 H   0  0  0  0  0  0  0  0  0  0  0  0
    0.0973   13.7152  -10.8489 H   0  0  0  0  0  0  0  0  0  0  0  0
    0.1416   15.3586  -10.1252 H   0  0  0  0  0  0  0  0  0  0  0  0
  1  2  1  0  0  0  0
  1  4  1  0  0  0  0
  1 11  2  0  0  0  0
  2  6  1  0  0  0  0
  3  4  2  0  0  0  0
  3  5  1  0  0  0  0
  5  6  2  0  0  0  0
  5  9  1  0  0  0  0
  6  7  1  0  0  0  0
  7  8  1  0  0  0  0
  7 10  2  3  0  0  0
  8  9  2  0  0  0  0
 10 12  1  0  0  0  0
 11 24  1  0  0  0  0
 12 13  2  0  0  0  0
 12 17  1  0  0  0  0
 13 14  1  0  0  0  0
 14 15  2  0  0  0  0
 15 16  1  0  0  0  0
 15 18  1  0  0  0  0
 16 17  2  0  0  0  0
 18 19  1  0  0  0  0
 18 22  1  0  0  0  0
 19 20  1  0  0  0  0
 20 21  1  0  0  0  0
 20 23  1  0  0  0  0
 21 22  2  0  0  0  0
 24 25  1  0  0  0  0
 25 26  1  0  0  0  0
 26 27  1  0  0  0  0
 27 28  2  0  0  0  0
 27 29  1  0  0  0  0
  2 30  1  0  0  0  0
  2 31  1  0  0  0  0
  3 32  1  0  0  0  0
  4 33  1  0  0  0  0
 10 34  1  0  0  0  0
 13 35  1  0  0  0  0
 14 36  1  0  0  0  0
 16 37  1  0  0  0  0
 17 38  1  0  0  0  0
 18 39  1  0  0  0  0
 19 40  1  0  0  0  0
 19 41  1  0  0  0  0
 22 42  1  0  0  0  0
 23 43  1  0  0  0  0
 23 44  1  0  0  0  0
 23 45  1  0  0  0  0
 24 46  1  0  0  0  0
 24 47  1  0  0  0  0
 25 48  1  0  0  0  0
 25 49  1  0  0  0  0
 26 50  1  0  0  0  0
 29 51  1  0  0  0  0
 29 52  1  0  0  0  0
 29 53  1  0  0  0  0
M  END
> <Name>
27

> <IC50[uM]>
0.68

$$$$
27
  -OEChem-05192314333D
 Structure written by MMmdl.
 53 56  0     1  0  0  0  0  0999 V2000
   -6.3855   12.3606  -12.0031 C   0  0  0  0  0  0  0  0  0  0  0  0
   -6.5214   11.8004  -10.7171 C   0  0  0  0  0  0  0  0  0  0  0  0
   -7.6991   10.5797  -13.0384 C   0  0  0  0  0  0  0  0  0  0  0  0
   -6.9626   11.7779  -13.1031 C   0  0  0  0  0  0  0  0  0  0  0  0
   -7.8238   10.0198  -11.7523 C   0  0  0  0  0  0  0  0  0  0  0  0
   -7.2557   10.6213  -10.5956 C   0  0  0  0  0  0  0  0  0  0  0  0
   -7.6268    9.7501   -9.5073 C   0  0  0  0  0  0  0  0  0  0  0  0
   -8.3057    8.7491   -9.9816 N   0  0  0  0  0  0  0  0  0  0  0  0
   -8.4330    8.8776  -11.2917 N   0  0  0  0  0  0  0  0  0  0  0  0
   -7.3352    9.8817   -8.0196 C   0  0  0  0  0  0  0  0  0  0  0  0
   -5.6205   13.5372  -12.2095 N   0  0  0  0  0  0  0  0  0  0  0  0
   -5.9727   10.4835   -7.7324 C   0  0  0  0  0  0  0  0  0  0  0  0
   -5.8611   11.7523   -7.1657 C   0  0  0  0  0  0  0  0  0  0  0  0
   -4.5946   12.2988   -6.9068 C   0  0  0  0  0  0  0  0  0  0  0  0
   -3.4432   11.5806   -7.2147 C   0  0  0  0  0  0  0  0  0  0  0  0
   -3.5570   10.3109   -7.7899 C   0  0  0  0  0  0  0  0  0  0  0  0
   -4.8253    9.7663   -8.0483 C   0  0  0  0  0  0  0  0  0  0  0  0
   -2.0926   12.1556   -6.9444 C   0  0  0  0  0  0  0  0  0  0  0  0
   -1.7338   13.4204   -6.4594 C   0  0  0  0  0  0  0  0  0  0  0  0
   -0.4064   13.4584   -6.4114 N   0  0  3  0  0  0  0  0  0  0  0  0
    0.1793   12.3493   -6.7865 N   0  0  0  0  0  0  0  0  0  0  0  0
   -0.7954   11.5387   -7.1512 C   0  0  0  0  0  0  0  0  0  0  0  0
    0.4205   14.5767   -6.0073 C   0  0  0  0  0  0  0  0  0  0  0  0
   -4.6894   13.8945  -11.1046 C   0  0  0  0  0  0  0  0  0  0  0  0
   -3.7822   15.1171  -11.3990 C   0  0  0  0  0  0  0  0  0  0  0  0
   -2.3310   14.9579  -11.2532 N   0  0  0  0  0  0  0  0  0  0  0  0
   -1.8099   14.4326  -10.1320 C   0  0  0  0  0  0  0  0  0  0  0  0
   -2.5019   14.0442   -9.2076 O   0  0  0  0  0  0  0  0  0  0  0  0
   -0.2869   14.3494  -10.0364 C   0  0  0  0  0  0  0  0  0  0  0  0
   -6.0716   12.2689   -9.8542 H   0  0  0  0  0  0  0  0  0  0  0  0
   -8.1374   10.1224  -13.9131 H   0  0  0  0  0  0  0  0  0  0  0  0
   -6.8466   12.2604  -14.0624 H   0  0  0  0  0  0  0  0  0  0  0  0
   -8.1046   10.5248   -7.5674 H   0  0  0  0  0  0  0  0  0  0  0  0
   -7.3794    8.8814   -7.5641 H   0  0  0  0  0  0  0  0  0  0  0  0
   -6.7507   12.3156   -6.9255 H   0  0  0  0  0  0  0  0  0  0  0  0
   -4.5132   13.2816   -6.4664 H   0  0  0  0  0  0  0  0  0  0  0  0
   -2.6683    9.7485   -8.0357 H   0  0  0  0  0  0  0  0  0  0  0  0
   -4.9092    8.7863   -8.4943 H   0  0  0  0  0  0  0  0  0  0  0  0
   -2.4090   14.2148   -6.1776 H   0  0  0  0  0  0  0  0  0  0  0  0
    0.7951   12.5225   -7.5551 H   0  0  0  0  0  0  0  0  0  0  0  0
   -0.7373   10.6160   -6.5552 H   0  0  0  0  0  0  0  0  0  0  0  0
   -0.6796   11.2945   -8.2175 H   0  0  0  0  0  0  0  0  0  0  0  0
    1.4810   14.2930   -6.0763 H   0  0  0  0  0  0  0  0  0  0  0  0
    0.2266   15.4339   -6.6689 H   0  0  0  0  0  0  0  0  0  0  0  0
    0.1818   14.8530   -4.9697 H   0  0  0  0  0  0  0  0  0  0  0  0
   -5.2882   14.1185  -10.2095 H   0  0  0  0  0  0  0  0  0  0  0  0
   -4.0431   13.0269  -10.9057 H   0  0  0  0  0  0  0  0  0  0  0  0
   -3.9735   15.4217  -12.4385 H   0  0  0  0  0  0  0  0  0  0  0  0
   -4.0914   15.9235  -10.7178 H   0  0  0  0  0  0  0  0  0  0  0  0
   -1.7243   15.2430  -11.9952 H   0  0  0  0  0  0  0  0  0  0  0  0
   -0.0031   13.9147   -9.0666 H   0  0  0  0  0  0  0  0  0  0  0  0
    0.0973   13.7152  -10.8489 H   0  0  0  0  0  0  0  0  0  0  0  0
    0.1416   15.3586  -10.1252 H   0  0  0  0  0  0  0  0  0  0  0  0
  1  2  1  0  0  0  0
  1  4  1  0  0  0  0
  1 11  2  0  0  0  0
  2  6  2  0  0  0  0
  3  4  2  0  0  0  0
  3  5  1  0  0  0  0
  5  6  1  0  0  0  0
  5  9  2  0  0  0  0
  6  7  1  0  0  0  0
  7  8  2  0  0  0  0
  7 10  1  0  0  0  0
  8  9  1  0  0  0  0
 10 12  1  0  0  0  0
 11 24  1  0  0  0  0
 12 13  2  0  0  0  0
 12 17  1  0  0  0  0
 13 14  1  0  0  0  0
 14 15  2  0  0  0  0
 15 16  1  0  0  0  0
 15 18  1  0  0  0  0
 16 17  2  0  0  0  0
 18 19  2  0  0  0  0
 18 22  1  0  0  0  0
 19 20  1  0  0  0  0
 20 21  1  0  0  0  0
 20 23  1  0  0  0  0
 21 22  1  0  0  0  0
 24 25  1  0  0  0  0
 25 26  1  0  0  0  0
 26 27  1  0  0  0  0
 27 28  2  0  0  0  0
 27 29  1  0  0  0  0
  2 30  1  0  0  0  0
  3 31  1  0  0  0  0
  4 32  1  0  0  0  0
 10 33  1  0  0  0  0
 10 34  1  0  0  0  0
 13 35  1  0  0  0  0
 14 36  1  0  0  0  0
 16 37  1  0  0  0  0
 17 38  1  0  0  0  0
 19 39  1  0  0  0  0
 21 40  1  0  0  0  0
 22 41  1  0  0  0  0
 22 42  1  0  0  0  0
 23 43  1  0  0  0  0
 23 44  1  0  0  0  0
 23 45  1  0  0  0  0
 24 46  1  0  0  0  0
 24 47  1  0  0  0  0
 25 48  1  0  0  0  0
 25 49  1  0  0  0  0
 26 50  1  0  0  0  0
 29 51  1  0  0  0  0
 29 52  1  0  0  0  0
 29 53  1  0  0  0  0
M  END
> <Name>
27

> <IC50[uM]>
0.68

$$$$
27
  -OEChem-05192314333D
 Structure written by MMmdl.
 53 56  0     1  0  0  0  0  0999 V2000
   -6.3855   12.3606  -12.0031 C   0  0  0  0  0  0  0  0  0  0  0  0
   -6.5214   11.8004  -10.7171 C   0  0  0  0  0  0  0  0  0  0  0  0
   -7.6991   10.5797  -13.0384 C   0  0  0  0  0  0  0  0  0  0  0  0
   -6.9626   11.7779  -13.1031 C   0  0  0  0  0  0  0  0  0  0  0  0
   -7.8238   10.0198  -11.7523 C   0  0  0  0  0  0  0  0  0  0  0  0
   -7.2557   10.6213  -10.5956 C   0  0  0  0  0  0  0  0  0  0  0  0
   -7.6268    9.7501   -9.5073 C   0  0  0  0  0  0  0  0  0  0  0  0
   -8.3057    8.7491   -9.9816 N   0  0  0  0  0  0  0  0  0  0  0  0
   -8.4330    8.8776  -11.2917 N   0  0  0  0  0  0  0  0  0  0  0  0
   -7.3352    9.8817   -8.0196 C   0  0  0  0  0  0  0  0  0  0  0  0
   -5.6205   13.5372  -12.2095 N   0  0  0  0  0  0  0  0  0  0  0  0
   -5.9727   10.4835   -7.7324 C   0  0  0  0  0  0  0  0  0  0  0  0
   -5.8611   11.7523   -7.1657 C   0  0  0  0  0  0  0  0  0  0  0  0
   -4.5946   12.2988   -6.9068 C   0  0  0  0  0  0  0  0  0  0  0  0
   -3.4432   11.5806   -7.2147 C   0  0  0  0  0  0  0  0  0  0  0  0
   -3.5570   10.3109   -7.7899 C   0  0  0  0  0  0  0  0  0  0  0  0
   -4.8253    9.7663   -8.0483 C   0  0  0  0  0  0  0  0  0  0  0  0
   -2.0926   12.1556   -6.9444 C   0  0  0  0  0  0  0  0  0  0  0  0
   -1.7338   13.4204   -6.4594 C   0  0  0  0  0  0  0  0  0  0  0  0
   -0.4064   13.4584   -6.4114 N   0  0  3  0  0  0  0  0  0  0  0  0
    0.1793   12.3493   -6.7865 N   0  0  0  0  0  0  0  0  0  0  0  0
   -0.7954   11.5387   -7.1512 C   0  0  0  0  0  0  0  0  0  0  0  0
    0.4205   14.5767   -6.0073 C   0  0  0  0  0  0  0  0  0  0  0  0
   -4.6894   13.8945  -11.1046 C   0  0  0  0  0  0  0  0  0  0  0  0
   -3.7822   15.1171  -11.3990 C   0  0  0  0  0  0  0  0  0  0  0  0
   -2.3310   14.9579  -11.2532 N   0  0  0  0  0  0  0  0  0  0  0  0
   -1.8099   14.4326  -10.1320 C   0  0  0  0  0  0  0  0  0  0  0  0
   -2.5019   14.0442   -9.2076 O   0  0  0  0  0  0  0  0  0  0  0  0
   -0.2869   14.3494  -10.0364 C   0  0  0  0  0  0  0  0  0  0  0  0
   -6.0716   12.2689   -9.8542 H   0  0  0  0  0  0  0  0  0  0  0  0
   -8.1374   10.1224  -13.9131 H   0  0  0  0  0  0  0  0  0  0  0  0
   -6.8466   12.2604  -14.0624 H   0  0  0  0  0  0  0  0  0  0  0  0
   -8.1046   10.5248   -7.5674 H   0  0  0  0  0  0  0  0  0  0  0  0
   -7.3794    8.8814   -7.5641 H   0  0  0  0  0  0  0  0  0  0  0  0
   -6.7507   12.3156   -6.9255 H   0  0  0  0  0  0  0  0  0  0  0  0
   -4.5132   13.2816   -6.4664 H   0  0  0  0  0  0  0  0  0  0  0  0
   -2.6683    9.7485   -8.0357 H   0  0  0  0  0  0  0  0  0  0  0  0
   -4.9092    8.7863   -8.4943 H   0  0  0  0  0  0  0  0  0  0  0  0
   -2.1095   14.2037   -7.1341 H   0  0  0  0  0  0  0  0  0  0  0  0
   -2.1522   13.5713   -5.4533 H   0  0  0  0  0  0  0  0  0  0  0  0
    0.7951   12.5225   -7.5551 H   0  0  0  0  0  0  0  0  0  0  0  0
   -0.6475   10.5464   -7.5511 H   0  0  0  0  0  0  0  0  0  0  0  0
    1.4810   14.2930   -6.0763 H   0  0  0  0  0  0  0  0  0  0  0  0
    0.2266   15.4339   -6.6689 H   0  0  0  0  0  0  0  0  0  0  0  0
    0.1818   14.8530   -4.9697 H   0  0  0  0  0  0  0  0  0  0  0  0
   -5.2882   14.1185  -10.2095 H   0  0  0  0  0  0  0  0  0  0  0  0
   -4.0431   13.0269  -10.9057 H   0  0  0  0  0  0  0  0  0  0  0  0
   -3.9735   15.4217  -12.4385 H   0  0  0  0  0  0  0  0  0  0  0  0
   -4.0914   15.9235  -10.7178 H   0  0  0  0  0  0  0  0  0  0  0  0
   -1.7243   15.2430  -11.9952 H   0  0  0  0  0  0  0  0  0  0  0  0
   -0.0031   13.9147   -9.0666 H   0  0  0  0  0  0  0  0  0  0  0  0
    0.0973   13.7152  -10.8489 H   0  0  0  0  0  0  0  0  0  0  0  0
    0.1416   15.3586  -10.1252 H   0  0  0  0  0  0  0  0  0  0  0  0
  1  2  1  0  0  0  0
  1  4  1  0  0  0  0
  1 11  2  0  0  0  0
  2  6  2  0  0  0  0
  3  4  2  0  0  0  0
  3  5  1  0  0  0  0
  5  6  1  0  0  0  0
  5  9  2  0  0  0  0
  6  7  1  0  0  0  0
  7  8  2  0  0  0  0
  7 10  1  0  0  0  0
  8  9  1  0  0  0  0
 10 12  1  0  0  0  0
 11 24  1  0  0  0  0
 12 13  2  0  0  0  0
 12 17  1  0  0  0  0
 13 14  1  0  0  0  0
 14 15  2  0  0  0  0
 15 16  1  0  0  0  0
 15 18  1  0  0  0  0
 16 17  2  0  0  0  0
 18 19  1  0  0  0  0
 18 22  2  0  0  0  0
 19 20  1  0  0  0  0
 20 21  1  0  0  0  0
 20 23  1  0  0  0  0
 21 22  1  0  0  0  0
 24 25  1  0  0  0  0
 25 26  1  0  0  0  0
 26 27  1  0  0  0  0
 27 28  2  0  0  0  0
 27 29  1  0  0  0  0
  2 30  1  0  0  0  0
  3 31  1  0  0  0  0
  4 32  1  0  0  0  0
 10 33  1  0  0  0  0
 10 34  1  0  0  0  0
 13 35  1  0  0  0  0
 14 36  1  0  0  0  0
 16 37  1  0  0  0  0
 17 38  1  0  0  0  0
 19 39  1  0  0  0  0
 19 40  1  0  0  0  0
 21 41  1  0  0  0  0
 22 42  1  0  0  0  0
 23 43  1  0  0  0  0
 23 44  1  0  0  0  0
 23 45  1  0  0  0  0
 24 46  1  0  0  0  0
 24 47  1  0  0  0  0
 25 48  1  0  0  0  0
 25 49  1  0  0  0  0
 26 50  1  0  0  0  0
 29 51  1  0  0  0  0
 29 52  1  0  0  0  0
 29 53  1  0  0  0  0
M  END
> <Name>
27

> <IC50[uM]>
0.68

$$$$
27
  -OEChem-05192314333D
 Structure written by MMmdl.
 53 56  0     1  0  0  0  0  0999 V2000
   -6.3855   12.3606  -12.0031 C   0  0  0  0  0  0  0  0  0  0  0  0
   -6.5214   11.8004  -10.7171 C   0  0  0  0  0  0  0  0  0  0  0  0
   -7.6991   10.5797  -13.0384 C   0  0  0  0  0  0  0  0  0  0  0  0
   -6.9626   11.7779  -13.1031 C   0  0  0  0  0  0  0  0  0  0  0  0
   -7.8238   10.0198  -11.7523 C   0  0  3  0  0  0  0  0  0  0  0  0
   -7.2557   10.6213  -10.5956 C   0  0  0  0  0  0  0  0  0  0  0  0
   -7.6268    9.7501   -9.5073 C   0  0  0  0  0  0  0  0  0  0  0  0
   -8.3057    8.7491   -9.9816 N   0  0  0  0  0  0  0  0  0  0  0  0
   -8.4330    8.8776  -11.2917 N   0  0  0  0  0  0  0  0  0  0  0  0
   -7.3352    9.8817   -8.0196 C   0  0  0  0  0  0  0  0  0  0  0  0
   -5.6205   13.5372  -12.2095 N   0  0  0  0  0  0  0  0  0  0  0  0
   -5.9727   10.4835   -7.7324 C   0  0  0  0  0  0  0  0  0  0  0  0
   -5.8611   11.7523   -7.1657 C   0  0  0  0  0  0  0  0  0  0  0  0
   -4.5946   12.2988   -6.9068 C   0  0  0  0  0  0  0  0  0  0  0  0
   -3.4432   11.5806   -7.2147 C   0  0  0  0  0  0  0  0  0  0  0  0
   -3.5570   10.3109   -7.7899 C   0  0  0  0  0  0  0  0  0  0  0  0
   -4.8253    9.7663   -8.0483 C   0  0  0  0  0  0  0  0  0  0  0  0
   -2.0926   12.1556   -6.9444 C   0  0  3  0  0  0  0  0  0  0  0  0
   -1.7338   13.4204   -6.4594 C   0  0  0  0  0  0  0  0  0  0  0  0
   -0.4064   13.4584   -6.4114 N   0  0  3  0  0  0  0  0  0  0  0  0
    0.1793   12.3493   -6.7865 N   0  0  0  0  0  0  0  0  0  0  0  0
   -0.7954   11.5387   -7.1512 C   0  0  0  0  0  0  0  0  0  0  0  0
    0.4205   14.5767   -6.0073 C   0  0  0  0  0  0  0  0  0  0  0  0
   -4.6894   13.8945  -11.1046 C   0  0  0  0  0  0  0  0  0  0  0  0
   -3.7822   15.1171  -11.3990 C   0  0  0  0  0  0  0  0  0  0  0  0
   -2.3310   14.9579  -11.2532 N   0  0  0  0  0  0  0  0  0  0  0  0
   -1.8099   14.4326  -10.1320 C   0  0  0  0  0  0  0  0  0  0  0  0
   -2.5019   14.0442   -9.2076 O   0  0  0  0  0  0  0  0  0  0  0  0
   -0.2869   14.3494  -10.0364 C   0  0  0  0  0  0  0  0  0  0  0  0
   -6.0716   12.2689   -9.8542 H   0  0  0  0  0  0  0  0  0  0  0  0
   -8.1374   10.1224  -13.9131 H   0  0  0  0  0  0  0  0  0  0  0  0
   -6.8466   12.2604  -14.0624 H   0  0  0  0  0  0  0  0  0  0  0  0
   -8.7543   10.5845  -11.5930 H   0  0  0  0  0  0  0  0  0  0  0  0
   -8.0269    9.5780   -7.2478 H   0  0  0  0  0  0  0  0  0  0  0  0
   -6.7507   12.3156   -6.9255 H   0  0  0  0  0  0  0  0  0  0  0  0
   -4.5132   13.2816   -6.4664 H   0  0  0  0  0  0  0  0  0  0  0  0
   -2.6683    9.7485   -8.0357 H   0  0  0  0  0  0  0  0  0  0  0  0
   -4.9092    8.7863   -8.4943 H   0  0  0  0  0  0  0  0  0  0  0  0
   -2.1234   11.7627   -5.9174 H   0  0  0  0  0  0  0  0  0  0  0  0
   -2.1095   14.2037   -7.1341 H   0  0  0  0  0  0  0  0  0  0  0  0
   -2.1522   13.5713   -5.4533 H   0  0  0  0  0  0  0  0  0  0  0  0
   -0.6475   10.5464   -7.5511 H   0  0  0  0  0  0  0  0  0  0  0  0
    1.4812   14.2962   -6.0855 H   0  0  0  0  0  0  0  0  0  0  0  0
    0.2196   15.4369   -6.6628 H   0  0  0  0  0  0  0  0  0  0  0  0
    0.1886   14.8468   -4.9665 H   0  0  0  0  0  0  0  0  0  0  0  0
   -5.2882   14.1185  -10.2095 H   0  0  0  0  0  0  0  0  0  0  0  0
   -4.0431   13.0269  -10.9057 H   0  0  0  0  0  0  0  0  0  0  0  0
   -3.9735   15.4217  -12.4385 H   0  0  0  0  0  0  0  0  0  0  0  0
   -4.0914   15.9235  -10.7178 H   0  0  0  0  0  0  0  0  0  0  0  0
   -1.9457   13.7098   -8.5138 H   0  0  0  0  0  0  0  0  0  0  0  0
   -0.0034   13.9020   -9.0723 H   0  0  0  0  0  0  0  0  0  0  0  0
    0.0984   13.7264  -10.8570 H   0  0  0  0  0  0  0  0  0  0  0  0
    0.1408   15.3601  -10.1114 H   0  0  0  0  0  0  0  0  0  0  0  0
  1  2  1  0  0  0  0
  1  4  1  0  0  0  0
  1 11  2  0  0  0  0
  2  6  2  0  0  0  0
  3  4  2  0  0  0  0
  3  5  1  0  0  0  0
  5  6  1  0  0  0  0
  5  9  1  0  0  0  0
  6  7  1  0  0  0  0
  7  8  1  0  0  0  0
  7 10  2  3  0  0  0
  8  9  2  0  0  0  0
 10 12  1  0  0  0  0
 11 24  1  0  0  0  0
 12 13  2  0  0  0  0
 12 17  1  0  0  0  0
 13 14  1  0  0  0  0
 14 15  2  0  0  0  0
 15 16  1  0  0  0  0
 15 18  1  0  0  0  0
 16 17  2  0  0  0  0
 18 19  1  0  0  0  0
 18 22  1  0  0  0  0
 19 20  1  0  0  0  0
 20 21  1  0  0  0  0
 20 23  1  0  0  0  0
 21 22  2  0  0  0  0
 24 25  1  0  0  0  0
 25 26  1  0  0  0  0
 26 27  2  0  0  0  0
 27 28  1  0  0  0  0
 27 29  1  0  0  0  0
  2 30  1  0  0  0  0
  3 31  1  0  0  0  0
  4 32  1  0  0  0  0
  5 33  1  0  0  0  0
 10 34  1  0  0  0  0
 13 35  1  0  0  0  0
 14 36  1  0  0  0  0
 16 37  1  0  0  0  0
 17 38  1  0  0  0  0
 18 39  1  0  0  0  0
 19 40  1  0  0  0  0
 19 41  1  0  0  0  0
 22 42  1  0  0  0  0
 23 43  1  0  0  0  0
 23 44  1  0  0  0  0
 23 45  1  0  0  0  0
 24 46  1  0  0  0  0
 24 47  1  0  0  0  0
 25 48  1  0  0  0  0
 25 49  1  0  0  0  0
 28 50  1  0  0  0  0
 29 51  1  0  0  0  0
 29 52  1  0  0  0  0
 29 53  1  0  0  0  0
M  END
> <Name>
27

> <IC50[uM]>
0.68

$$$$
27
  -OEChem-05192314333D
 Structure written by MMmdl.
 53 56  0     1  0  0  0  0  0999 V2000
   -6.3855   12.3606  -12.0031 C   0  0  0  0  0  0  0  0  0  0  0  0
   -6.5214   11.8004  -10.7171 C   0  0  0  0  0  0  0  0  0  0  0  0
   -7.6991   10.5797  -13.0384 C   0  0  0  0  0  0  0  0  0  0  0  0
   -6.9626   11.7779  -13.1031 C   0  0  0  0  0  0  0  0  0  0  0  0
   -7.8238   10.0198  -11.7523 C   0  0  0  0  0  0  0  0  0  0  0  0
   -7.2557   10.6213  -10.5956 C   0  0  0  0  0  0  0  0  0  0  0  0
   -7.6268    9.7501   -9.5073 C   0  0  0  0  0  0  0  0  0  0  0  0
   -8.3057    8.7491   -9.9816 N   0  0  0  0  0  0  0  0  0  0  0  0
   -8.4330    8.8776  -11.2917 N   0  0  0  0  0  0  0  0  0  0  0  0
   -7.3352    9.8817   -8.0196 C   0  0  0  0  0  0  0  0  0  0  0  0
   -5.6205   13.5372  -12.2095 N   0  0  0  0  0  0  0  0  0  0  0  0
   -5.9727   10.4835   -7.7324 C   0  0  0  0  0  0  0  0  0  0  0  0
   -5.8611   11.7523   -7.1657 C   0  0  0  0  0  0  0  0  0  0  0  0
   -4.5946   12.2988   -6.9068 C   0  0  0  0  0  0  0  0  0  0  0  0
   -3.4432   11.5806   -7.2147 C   0  0  0  0  0  0  0  0  0  0  0  0
   -3.5570   10.3109   -7.7899 C   0  0  0  0  0  0  0  0  0  0  0  0
   -4.8253    9.7663   -8.0483 C   0  0  0  0  0  0  0  0  0  0  0  0
   -2.0926   12.1556   -6.9444 C   0  0  3  0  0  0  0  0  0  0  0  0
   -1.7338   13.4204   -6.4594 C   0  0  0  0  0  0  0  0  0  0  0  0
   -0.4064   13.4584   -6.4114 N   0  0  3  0  0  0  0  0  0  0  0  0
    0.1793   12.3493   -6.7865 N   0  0  0  0  0  0  0  0  0  0  0  0
   -0.7954   11.5387   -7.1512 C   0  0  0  0  0  0  0  0  0  0  0  0
    0.4205   14.5767   -6.0073 C   0  0  0  0  0  0  0  0  0  0  0  0
   -4.6894   13.8945  -11.1046 C   0  0  0  0  0  0  0  0  0  0  0  0
   -3.7822   15.1171  -11.3990 C   0  0  0  0  0  0  0  0  0  0  0  0
   -2.3310   14.9579  -11.2532 N   0  0  0  0  0  0  0  0  0  0  0  0
   -1.8099   14.4326  -10.1320 C   0  0  0  0  0  0  0  0  0  0  0  0
   -2.5019   14.0442   -9.2076 O   0  0  0  0  0  0  0  0  0  0  0  0
   -0.2869   14.3494  -10.0364 C   0  0  0  0  0  0  0  0  0  0  0  0
   -6.0716   12.2689   -9.8542 H   0  0  0  0  0  0  0  0  0  0  0  0
   -8.1374   10.1224  -13.9131 H   0  0  0  0  0  0  0  0  0  0  0  0
   -7.6459   12.5314  -13.5218 H   0  0  0  0  0  0  0  0  0  0  0  0
   -6.1429   11.5918  -13.8126 H   0  0  0  0  0  0  0  0  0  0  0  0
   -8.0269    9.5780   -7.2478 H   0  0  0  0  0  0  0  0  0  0  0  0
   -6.7507   12.3156   -6.9255 H   0  0  0  0  0  0  0  0  0  0  0  0
   -4.5132   13.2816   -6.4664 H   0  0  0  0  0  0  0  0  0  0  0  0
   -2.6683    9.7485   -8.0357 H   0  0  0  0  0  0  0  0  0  0  0  0
   -4.9092    8.7863   -8.4943 H   0  0  0  0  0  0  0  0  0  0  0  0
   -2.1234   11.7627   -5.9174 H   0  0  0  0  0  0  0  0  0  0  0  0
   -2.1095   14.2037   -7.1341 H   0  0  0  0  0  0  0  0  0  0  0  0
   -2.1522   13.5713   -5.4533 H   0  0  0  0  0  0  0  0  0  0  0  0
   -0.6475   10.5464   -7.5511 H   0  0  0  0  0  0  0  0  0  0  0  0
    1.4812   14.2962   -6.0855 H   0  0  0  0  0  0  0  0  0  0  0  0
    0.2196   15.4369   -6.6628 H   0  0  0  0  0  0  0  0  0  0  0  0
    0.1886   14.8468   -4.9665 H   0  0  0  0  0  0  0  0  0  0  0  0
   -5.2882   14.1185  -10.2095 H   0  0  0  0  0  0  0  0  0  0  0  0
   -4.0431   13.0269  -10.9057 H   0  0  0  0  0  0  0  0  0  0  0  0
   -3.9735   15.4217  -12.4385 H   0  0  0  0  0  0  0  0  0  0  0  0
   -4.0914   15.9235  -10.7178 H   0  0  0  0  0  0  0  0  0  0  0  0
   -1.9457   13.7098   -8.5138 H   0  0  0  0  0  0  0  0  0  0  0  0
   -0.0034   13.9020   -9.0723 H   0  0  0  0  0  0  0  0  0  0  0  0
    0.0984   13.7264  -10.8570 H   0  0  0  0  0  0  0  0  0  0  0  0
    0.1408   15.3601  -10.1114 H   0  0  0  0  0  0  0  0  0  0  0  0
  1  2  1  0  0  0  0
  1  4  1  0  0  0  0
  1 11  2  0  0  0  0
  2  6  2  0  0  0  0
  3  4  1  0  0  0  0
  3  5  2  0  0  0  0
  5  6  1  0  0  0  0
  5  9  1  0  0  0  0
  6  7  1  0  0  0  0
  7  8  1  0  0  0  0
  7 10  2  3  0  0  0
  8  9  2  0  0  0  0
 10 12  1  0  0  0  0
 11 24  1  0  0  0  0
 12 13  2  0  0  0  0
 12 17  1  0  0  0  0
 13 14  1  0  0  0  0
 14 15  2  0  0  0  0
 15 16  1  0  0  0  0
 15 18  1  0  0  0  0
 16 17  2  0  0  0  0
 18 19  1  0  0  0  0
 18 22  1  0  0  0  0
 19 20  1  0  0  0  0
 20 21  1  0  0  0  0
 20 23  1  0  0  0  0
 21 22  2  0  0  0  0
 24 25  1  0  0  0  0
 25 26  1  0  0  0  0
 26 27  2  0  0  0  0
 27 28  1  0  0  0  0
 27 29  1  0  0  0  0
  2 30  1  0  0  0  0
  3 31  1  0  0  0  0
  4 32  1  0  0  0  0
  4 33  1  0  0  0  0
 10 34  1  0  0  0  0
 13 35  1  0  0  0  0
 14 36  1  0  0  0  0
 16 37  1  0  0  0  0
 17 38  1  0  0  0  0
 18 39  1  0  0  0  0
 19 40  1  0  0  0  0
 19 41  1  0  0  0  0
 22 42  1  0  0  0  0
 23 43  1  0  0  0  0
 23 44  1  0  0  0  0
 23 45  1  0  0  0  0
 24 46  1  0  0  0  0
 24 47  1  0  0  0  0
 25 48  1  0  0  0  0
 25 49  1  0  0  0  0
 28 50  1  0  0  0  0
 29 51  1  0  0  0  0
 29 52  1  0  0  0  0
 29 53  1  0  0  0  0
M  END
> <Name>
27

> <IC50[uM]>
0.68

$$$$
27
  -OEChem-05192314333D
 Structure written by MMmdl.
 53 56  0     1  0  0  0  0  0999 V2000
   -6.3855   12.3606  -12.0031 C   0  0  0  0  0  0  0  0  0  0  0  0
   -6.5214   11.8004  -10.7171 C   0  0  0  0  0  0  0  0  0  0  0  0
   -7.6991   10.5797  -13.0384 C   0  0  0  0  0  0  0  0  0  0  0  0
   -6.9626   11.7779  -13.1031 C   0  0  0  0  0  0  0  0  0  0  0  0
   -7.8238   10.0198  -11.7523 C   0  0  0  0  0  0  0  0  0  0  0  0
   -7.2557   10.6213  -10.5956 C   0  0  0  0  0  0  0  0  0  0  0  0
   -7.6268    9.7501   -9.5073 C   0  0  0  0  0  0  0  0  0  0  0  0
   -8.3057    8.7491   -9.9816 N   0  0  0  0  0  0  0  0  0  0  0  0
   -8.4330    8.8776  -11.2917 N   0  0  0  0  0  0  0  0  0  0  0  0
   -7.3352    9.8817   -8.0196 C   0  0  0  0  0  0  0  0  0  0  0  0
   -5.6205   13.5372  -12.2095 N   0  0  0  0  0  0  0  0  0  0  0  0
   -5.9727   10.4835   -7.7324 C   0  0  0  0  0  0  0  0  0  0  0  0
   -5.8611   11.7523   -7.1657 C   0  0  0  0  0  0  0  0  0  0  0  0
   -4.5946   12.2988   -6.9068 C   0  0  0  0  0  0  0  0  0  0  0  0
   -3.4432   11.5806   -7.2147 C   0  0  0  0  0  0  0  0  0  0  0  0
   -3.5570   10.3109   -7.7899 C   0  0  0  0  0  0  0  0  0  0  0  0
   -4.8253    9.7663   -8.0483 C   0  0  0  0  0  0  0  0  0  0  0  0
   -2.0926   12.1556   -6.9444 C   0  0  3  0  0  0  0  0  0  0  0  0
   -1.7338   13.4204   -6.4594 C   0  0  0  0  0  0  0  0  0  0  0  0
   -0.4064   13.4584   -6.4114 N   0  0  3  0  0  0  0  0  0  0  0  0
    0.1793   12.3493   -6.7865 N   0  0  0  0  0  0  0  0  0  0  0  0
   -0.7954   11.5387   -7.1512 C   0  0  0  0  0  0  0  0  0  0  0  0
    0.4205   14.5767   -6.0073 C   0  0  0  0  0  0  0  0  0  0  0  0
   -4.6894   13.8945  -11.1046 C   0  0  0  0  0  0  0  0  0  0  0  0
   -3.7822   15.1171  -11.3990 C   0  0  0  0  0  0  0  0  0  0  0  0
   -2.3310   14.9579  -11.2532 N   0  0  0  0  0  0  0  0  0  0  0  0
   -1.8099   14.4326  -10.1320 C   0  0  0  0  0  0  0  0  0  0  0  0
   -2.5019   14.0442   -9.2076 O   0  0  0  0  0  0  0  0  0  0  0  0
   -0.2869   14.3494  -10.0364 C   0  0  0  0  0  0  0  0  0  0  0  0
   -5.5086   11.5965  -10.3394 H   0  0  0  0  0  0  0  0  0  0  0  0
   -7.0053   12.5553  -10.0799 H   0  0  0  0  0  0  0  0  0  0  0  0
   -8.1374   10.1224  -13.9131 H   0  0  0  0  0  0  0  0  0  0  0  0
   -6.8466   12.2604  -14.0624 H   0  0  0  0  0  0  0  0  0  0  0  0
   -8.0269    9.5780   -7.2478 H   0  0  0  0  0  0  0  0  0  0  0  0
   -6.7507   12.3156   -6.9255 H   0  0  0  0  0  0  0  0  0  0  0  0
   -4.5132   13.2816   -6.4664 H   0  0  0  0  0  0  0  0  0  0  0  0
   -2.6683    9.7485   -8.0357 H   0  0  0  0  0  0  0  0  0  0  0  0
   -4.9092    8.7863   -8.4943 H   0  0  0  0  0  0  0  0  0  0  0  0
   -2.1234   11.7627   -5.9174 H   0  0  0  0  0  0  0  0  0  0  0  0
   -2.1095   14.2037   -7.1341 H   0  0  0  0  0  0  0  0  0  0  0  0
   -2.1522   13.5713   -5.4533 H   0  0  0  0  0  0  0  0  0  0  0  0
   -0.6475   10.5464   -7.5511 H   0  0  0  0  0  0  0  0  0  0  0  0
    1.4812   14.2962   -6.0855 H   0  0  0  0  0  0  0  0  0  0  0  0
    0.2196   15.4369   -6.6628 H   0  0  0  0  0  0  0  0  0  0  0  0
    0.1886   14.8468   -4.9665 H   0  0  0  0  0  0  0  0  0  0  0  0
   -5.2882   14.1185  -10.2095 H   0  0  0  0  0  0  0  0  0  0  0  0
   -4.0431   13.0269  -10.9057 H   0  0  0  0  0  0  0  0  0  0  0  0
   -3.9735   15.4217  -12.4385 H   0  0  0  0  0  0  0  0  0  0  0  0
   -4.0914   15.9235  -10.7178 H   0  0  0  0  0  0  0  0  0  0  0  0
   -1.9457   13.7098   -8.5138 H   0  0  0  0  0  0  0  0  0  0  0  0
   -0.0034   13.9020   -9.0723 H   0  0  0  0  0  0  0  0  0  0  0  0
    0.0984   13.7264  -10.8570 H   0  0  0  0  0  0  0  0  0  0  0  0
    0.1408   15.3601  -10.1114 H   0  0  0  0  0  0  0  0  0  0  0  0
  1  2  1  0  0  0  0
  1  4  1  0  0  0  0
  1 11  2  0  0  0  0
  2  6  1  0  0  0  0
  3  4  2  0  0  0  0
  3  5  1  0  0  0  0
  5  6  2  0  0  0  0
  5  9  1  0  0  0  0
  6  7  1  0  0  0  0
  7  8  1  0  0  0  0
  7 10  2  3  0  0  0
  8  9  2  0  0  0  0
 10 12  1  0  0  0  0
 11 24  1  0  0  0  0
 12 13  2  0  0  0  0
 12 17  1  0  0  0  0
 13 14  1  0  0  0  0
 14 15  2  0  0  0  0
 15 16  1  0  0  0  0
 15 18  1  0  0  0  0
 16 17  2  0  0  0  0
 18 19  1  0  0  0  0
 18 22  1  0  0  0  0
 19 20  1  0  0  0  0
 20 21  1  0  0  0  0
 20 23  1  0  0  0  0
 21 22  2  0  0  0  0
 24 25  1  0  0  0  0
 25 26  1  0  0  0  0
 26 27  2  0  0  0  0
 27 28  1  0  0  0  0
 27 29  1  0  0  0  0
  2 30  1  0  0  0  0
  2 31  1  0  0  0  0
  3 32  1  0  0  0  0
  4 33  1  0  0  0  0
 10 34  1  0  0  0  0
 13 35  1  0  0  0  0
 14 36  1  0  0  0  0
 16 37  1  0  0  0  0
 17 38  1  0  0  0  0
 18 39  1  0  0  0  0
 19 40  1  0  0  0  0
 19 41  1  0  0  0  0
 22 42  1  0  0  0  0
 23 43  1  0  0  0  0
 23 44  1  0  0  0  0
 23 45  1  0  0  0  0
 24 46  1  0  0  0  0
 24 47  1  0  0  0  0
 25 48  1  0  0  0  0
 25 49  1  0  0  0  0
 28 50  1  0  0  0  0
 29 51  1  0  0  0  0
 29 52  1  0  0  0  0
 29 53  1  0  0  0  0
M  END
> <Name>
27

> <IC50[uM]>
0.68

$$$$
27
  -OEChem-05192314333D
 Structure written by MMmdl.
 53 56  0     1  0  0  0  0  0999 V2000
   -6.3855   12.3606  -12.0031 C   0  0  0  0  0  0  0  0  0  0  0  0
   -6.5214   11.8004  -10.7171 C   0  0  0  0  0  0  0  0  0  0  0  0
   -7.6991   10.5797  -13.0384 C   0  0  0  0  0  0  0  0  0  0  0  0
   -6.9626   11.7779  -13.1031 C   0  0  0  0  0  0  0  0  0  0  0  0
   -7.8238   10.0198  -11.7523 C   0  0  0  0  0  0  0  0  0  0  0  0
   -7.2557   10.6213  -10.5956 C   0  0  0  0  0  0  0  0  0  0  0  0
   -7.6268    9.7501   -9.5073 C   0  0  0  0  0  0  0  0  0  0  0  0
   -8.3057    8.7491   -9.9816 N   0  0  0  0  0  0  0  0  0  0  0  0
   -8.4330    8.8776  -11.2917 N   0  0  0  0  0  0  0  0  0  0  0  0
   -7.3352    9.8817   -8.0196 C   0  0  0  0  0  0  0  0  0  0  0  0
   -5.6205   13.5372  -12.2095 N   0  0  0  0  0  0  0  0  0  0  0  0
   -5.9727   10.4835   -7.7324 C   0  0  0  0  0  0  0  0  0  0  0  0
   -5.8611   11.7523   -7.1657 C   0  0  0  0  0  0  0  0  0  0  0  0
   -4.5946   12.2988   -6.9068 C   0  0  0  0  0  0  0  0  0  0  0  0
   -3.4432   11.5806   -7.2147 C   0  0  0  0  0  0  0  0  0  0  0  0
   -3.5570   10.3109   -7.7899 C   0  0  0  0  0  0  0  0  0  0  0  0
   -4.8253    9.7663   -8.0483 C   0  0  0  0  0  0  0  0  0  0  0  0
   -2.0926   12.1556   -6.9444 C   0  0  0  0  0  0  0  0  0  0  0  0
   -1.7338   13.4204   -6.4594 C   0  0  0  0  0  0  0  0  0  0  0  0
   -0.4064   13.4584   -6.4114 N   0  0  3  0  0  0  0  0  0  0  0  0
    0.1793   12.3493   -6.7865 N   0  0  0  0  0  0  0  0  0  0  0  0
   -0.7954   11.5387   -7.1512 C   0  0  0  0  0  0  0  0  0  0  0  0
    0.4205   14.5767   -6.0073 C   0  0  0  0  0  0  0  0  0  0  0  0
   -4.6894   13.8945  -11.1046 C   0  0  0  0  0  0  0  0  0  0  0  0
   -3.7822   15.1171  -11.3990 C   0  0  0  0  0  0  0  0  0  0  0  0
   -2.3310   14.9579  -11.2532 N   0  0  0  0  0  0  0  0  0  0  0  0
   -1.8099   14.4326  -10.1320 C   0  0  0  0  0  0  0  0  0  0  0  0
   -2.5019   14.0442   -9.2076 O   0  0  0  0  0  0  0  0  0  0  0  0
   -0.2869   14.3494  -10.0364 C   0  0  0  0  0  0  0  0  0  0  0  0
   -6.0716   12.2689   -9.8542 H   0  0  0  0  0  0  0  0  0  0  0  0
   -8.1374   10.1224  -13.9131 H   0  0  0  0  0  0  0  0  0  0  0  0
   -6.8466   12.2604  -14.0624 H   0  0  0  0  0  0  0  0  0  0  0  0
   -8.1046   10.5248   -7.5674 H   0  0  0  0  0  0  0  0  0  0  0  0
   -7.3794    8.8814   -7.5641 H   0  0  0  0  0  0  0  0  0  0  0  0
   -6.7507   12.3156   -6.9255 H   0  0  0  0  0  0  0  0  0  0  0  0
   -4.5132   13.2816   -6.4664 H   0  0  0  0  0  0  0  0  0  0  0  0
   -2.6683    9.7485   -8.0357 H   0  0  0  0  0  0  0  0  0  0  0  0
   -4.9092    8.7863   -8.4943 H   0  0  0  0  0  0  0  0  0  0  0  0
   -2.4090   14.2148   -6.1776 H   0  0  0  0  0  0  0  0  0  0  0  0
    0.7951   12.5225   -7.5551 H   0  0  0  0  0  0  0  0  0  0  0  0
   -0.7373   10.6160   -6.5552 H   0  0  0  0  0  0  0  0  0  0  0  0
   -0.6796   11.2945   -8.2175 H   0  0  0  0  0  0  0  0  0  0  0  0
    1.4810   14.2930   -6.0763 H   0  0  0  0  0  0  0  0  0  0  0  0
    0.2266   15.4339   -6.6689 H   0  0  0  0  0  0  0  0  0  0  0  0
    0.1818   14.8530   -4.9697 H   0  0  0  0  0  0  0  0  0  0  0  0
   -5.2882   14.1185  -10.2095 H   0  0  0  0  0  0  0  0  0  0  0  0
   -4.0431   13.0269  -10.9057 H   0  0  0  0  0  0  0  0  0  0  0  0
   -3.9735   15.4217  -12.4385 H   0  0  0  0  0  0  0  0  0  0  0  0
   -4.0914   15.9235  -10.7178 H   0  0  0  0  0  0  0  0  0  0  0  0
   -1.9457   13.7098   -8.5138 H   0  0  0  0  0  0  0  0  0  0  0  0
   -0.0034   13.9020   -9.0723 H   0  0  0  0  0  0  0  0  0  0  0  0
    0.0984   13.7264  -10.8570 H   0  0  0  0  0  0  0  0  0  0  0  0
    0.1408   15.3601  -10.1114 H   0  0  0  0  0  0  0  0  0  0  0  0
  1  2  1  0  0  0  0
  1  4  1  0  0  0  0
  1 11  2  0  0  0  0
  2  6  2  0  0  0  0
  3  4  2  0  0  0  0
  3  5  1  0  0  0  0
  5  6  1  0  0  0  0
  5  9  2  0  0  0  0
  6  7  1  0  0  0  0
  7  8  2  0  0  0  0
  7 10  1  0  0  0  0
  8  9  1  0  0  0  0
 10 12  1  0  0  0  0
 11 24  1  0  0  0  0
 12 13  2  0  0  0  0
 12 17  1  0  0  0  0
 13 14  1  0  0  0  0
 14 15  2  0  0  0  0
 15 16  1  0  0  0  0
 15 18  1  0  0  0  0
 16 17  2  0  0  0  0
 18 19  2  0  0  0  0
 18 22  1  0  0  0  0
 19 20  1  0  0  0  0
 20 21  1  0  0  0  0
 20 23  1  0  0  0  0
 21 22  1  0  0  0  0
 24 25  1  0  0  0  0
 25 26  1  0  0  0  0
 26 27  2  0  0  0  0
 27 28  1  0  0  0  0
 27 29  1  0  0  0  0
  2 30  1  0  0  0  0
  3 31  1  0  0  0  0
  4 32  1  0  0  0  0
 10 33  1  0  0  0  0
 10 34  1  0  0  0  0
 13 35  1  0  0  0  0
 14 36  1  0  0  0  0
 16 37  1  0  0  0  0
 17 38  1  0  0  0  0
 19 39  1  0  0  0  0
 21 40  1  0  0  0  0
 22 41  1  0  0  0  0
 22 42  1  0  0  0  0
 23 43  1  0  0  0  0
 23 44  1  0  0  0  0
 23 45  1  0  0  0  0
 24 46  1  0  0  0  0
 24 47  1  0  0  0  0
 25 48  1  0  0  0  0
 25 49  1  0  0  0  0
 28 50  1  0  0  0  0
 29 51  1  0  0  0  0
 29 52  1  0  0  0  0
 29 53  1  0  0  0  0
M  END
> <Name>
27

> <IC50[uM]>
0.68

$$$$
27
  -OEChem-05192314333D
 Structure written by MMmdl.
 53 56  0     1  0  0  0  0  0999 V2000
   -6.3855   12.3606  -12.0031 C   0  0  0  0  0  0  0  0  0  0  0  0
   -6.5214   11.8004  -10.7171 C   0  0  0  0  0  0  0  0  0  0  0  0
   -7.6991   10.5797  -13.0384 C   0  0  0  0  0  0  0  0  0  0  0  0
   -6.9626   11.7779  -13.1031 C   0  0  0  0  0  0  0  0  0  0  0  0
   -7.8238   10.0198  -11.7523 C   0  0  0  0  0  0  0  0  0  0  0  0
   -7.2557   10.6213  -10.5956 C   0  0  0  0  0  0  0  0  0  0  0  0
   -7.6268    9.7501   -9.5073 C   0  0  0  0  0  0  0  0  0  0  0  0
   -8.3057    8.7491   -9.9816 N   0  0  0  0  0  0  0  0  0  0  0  0
   -8.4330    8.8776  -11.2917 N   0  0  0  0  0  0  0  0  0  0  0  0
   -7.3352    9.8817   -8.0196 C   0  0  0  0  0  0  0  0  0  0  0  0
   -5.6205   13.5372  -12.2095 N   0  0  0  0  0  0  0  0  0  0  0  0
   -5.9727   10.4835   -7.7324 C   0  0  0  0  0  0  0  0  0  0  0  0
   -5.8611   11.7523   -7.1657 C   0  0  0  0  0  0  0  0  0  0  0  0
   -4.5946   12.2988   -6.9068 C   0  0  0  0  0  0  0  0  0  0  0  0
   -3.4432   11.5806   -7.2147 C   0  0  0  0  0  0  0  0  0  0  0  0
   -3.5570   10.3109   -7.7899 C   0  0  0  0  0  0  0  0  0  0  0  0
   -4.8253    9.7663   -8.0483 C   0  0  0  0  0  0  0  0  0  0  0  0
   -2.0926   12.1556   -6.9444 C   0  0  0  0  0  0  0  0  0  0  0  0
   -1.7338   13.4204   -6.4594 C   0  0  0  0  0  0  0  0  0  0  0  0
   -0.4064   13.4584   -6.4114 N   0  0  3  0  0  0  0  0  0  0  0  0
    0.1793   12.3493   -6.7865 N   0  0  0  0  0  0  0  0  0  0  0  0
   -0.7954   11.5387   -7.1512 C   0  0  0  0  0  0  0  0  0  0  0  0
    0.4205   14.5767   -6.0073 C   0  0  0  0  0  0  0  0  0  0  0  0
   -4.6894   13.8945  -11.1046 C   0  0  0  0  0  0  0  0  0  0  0  0
   -3.7822   15.1171  -11.3990 C   0  0  0  0  0  0  0  0  0  0  0  0
   -2.3310   14.9579  -11.2532 N   0  0  0  0  0  0  0  0  0  0  0  0
   -1.8099   14.4326  -10.1320 C   0  0  0  0  0  0  0  0  0  0  0  0
   -2.5019   14.0442   -9.2076 O   0  0  0  0  0  0  0  0  0  0  0  0
   -0.2869   14.3494  -10.0364 C   0  0  0  0  0  0  0  0  0  0  0  0
   -6.0716   12.2689   -9.8542 H   0  0  0  0  0  0  0  0  0  0  0  0
   -8.1374   10.1224  -13.9131 H   0  0  0  0  0  0  0  0  0  0  0  0
   -6.8466   12.2604  -14.0624 H   0  0  0  0  0  0  0  0  0  0  0  0
   -8.1046   10.5248   -7.5674 H   0  0  0  0  0  0  0  0  0  0  0  0
   -7.3794    8.8814   -7.5641 H   0  0  0  0  0  0  0  0  0  0  0  0
   -6.7507   12.3156   -6.9255 H   0  0  0  0  0  0  0  0  0  0  0  0
   -4.5132   13.2816   -6.4664 H   0  0  0  0  0  0  0  0  0  0  0  0
   -2.6683    9.7485   -8.0357 H   0  0  0  0  0  0  0  0  0  0  0  0
   -4.9092    8.7863   -8.4943 H   0  0  0  0  0  0  0  0  0  0  0  0
   -2.1095   14.2037   -7.1341 H   0  0  0  0  0  0  0  0  0  0  0  0
   -2.1522   13.5713   -5.4533 H   0  0  0  0  0  0  0  0  0  0  0  0
    0.7951   12.5225   -7.5551 H   0  0  0  0  0  0  0  0  0  0  0  0
   -0.6475   10.5464   -7.5511 H   0  0  0  0  0  0  0  0  0  0  0  0
    1.4810   14.2930   -6.0763 H   0  0  0  0  0  0  0  0  0  0  0  0
    0.2266   15.4339   -6.6689 H   0  0  0  0  0  0  0  0  0  0  0  0
    0.1818   14.8530   -4.9697 H   0  0  0  0  0  0  0  0  0  0  0  0
   -5.2882   14.1185  -10.2095 H   0  0  0  0  0  0  0  0  0  0  0  0
   -4.0431   13.0269  -10.9057 H   0  0  0  0  0  0  0  0  0  0  0  0
   -3.9735   15.4217  -12.4385 H   0  0  0  0  0  0  0  0  0  0  0  0
   -4.0914   15.9235  -10.7178 H   0  0  0  0  0  0  0  0  0  0  0  0
   -1.9457   13.7098   -8.5138 H   0  0  0  0  0  0  0  0  0  0  0  0
   -0.0034   13.9020   -9.0723 H   0  0  0  0  0  0  0  0  0  0  0  0
    0.0984   13.7264  -10.8570 H   0  0  0  0  0  0  0  0  0  0  0  0
    0.1408   15.3601  -10.1114 H   0  0  0  0  0  0  0  0  0  0  0  0
  1  2  1  0  0  0  0
  1  4  1  0  0  0  0
  1 11  2  0  0  0  0
  2  6  2  0  0  0  0
  3  4  2  0  0  0  0
  3  5  1  0  0  0  0
  5  6  1  0  0  0  0
  5  9  2  0  0  0  0
  6  7  1  0  0  0  0
  7  8  2  0  0  0  0
  7 10  1  0  0  0  0
  8  9  1  0  0  0  0
 10 12  1  0  0  0  0
 11 24  1  0  0  0  0
 12 13  2  0  0  0  0
 12 17  1  0  0  0  0
 13 14  1  0  0  0  0
 14 15  2  0  0  0  0
 15 16  1  0  0  0  0
 15 18  1  0  0  0  0
 16 17  2  0  0  0  0
 18 19  1  0  0  0  0
 18 22  2  0  0  0  0
 19 20  1  0  0  0  0
 20 21  1  0  0  0  0
 20 23  1  0  0  0  0
 21 22  1  0  0  0  0
 24 25  1  0  0  0  0
 25 26  1  0  0  0  0
 26 27  2  0  0  0  0
 27 28  1  0  0  0  0
 27 29  1  0  0  0  0
  2 30  1  0  0  0  0
  3 31  1  0  0  0  0
  4 32  1  0  0  0  0
 10 33  1  0  0  0  0
 10 34  1  0  0  0  0
 13 35  1  0  0  0  0
 14 36  1  0  0  0  0
 16 37  1  0  0  0  0
 17 38  1  0  0  0  0
 19 39  1  0  0  0  0
 19 40  1  0  0  0  0
 21 41  1  0  0  0  0
 22 42  1  0  0  0  0
 23 43  1  0  0  0  0
 23 44  1  0  0  0  0
 23 45  1  0  0  0  0
 24 46  1  0  0  0  0
 24 47  1  0  0  0  0
 25 48  1  0  0  0  0
 25 49  1  0  0  0  0
 28 50  1  0  0  0  0
 29 51  1  0  0  0  0
 29 52  1  0  0  0  0
 29 53  1  0  0  0  0
M  END
> <Name>
27

> <IC50[uM]>
0.68

$$$$
27
  -OEChem-05192314333D
 Structure written by MMmdl.
 53 56  0     1  0  0  0  0  0999 V2000
   -6.3855   12.3606  -12.0031 C   0  0  0  0  0  0  0  0  0  0  0  0
   -6.5214   11.8004  -10.7171 C   0  0  0  0  0  0  0  0  0  0  0  0
   -7.6991   10.5797  -13.0384 C   0  0  0  0  0  0  0  0  0  0  0  0
   -6.9626   11.7779  -13.1031 C   0  0  0  0  0  0  0  0  0  0  0  0
   -7.8238   10.0198  -11.7523 C   0  0  3  0  0  0  0  0  0  0  0  0
   -7.2557   10.6213  -10.5956 C   0  0  0  0  0  0  0  0  0  0  0  0
   -7.6268    9.7501   -9.5073 C   0  0  0  0  0  0  0  0  0  0  0  0
   -8.3057    8.7491   -9.9816 N   0  0  0  0  0  0  0  0  0  0  0  0
   -8.4330    8.8776  -11.2917 N   0  0  0  0  0  0  0  0  0  0  0  0
   -7.3352    9.8817   -8.0196 C   0  0  0  0  0  0  0  0  0  0  0  0
   -5.6205   13.5372  -12.2095 N   0  0  0  0  0  0  0  0  0  0  0  0
   -5.9727   10.4835   -7.7324 C   0  0  0  0  0  0  0  0  0  0  0  0
   -5.8611   11.7523   -7.1657 C   0  0  0  0  0  0  0  0  0  0  0  0
   -4.5946   12.2988   -6.9068 C   0  0  0  0  0  0  0  0  0  0  0  0
   -3.4432   11.5806   -7.2147 C   0  0  0  0  0  0  0  0  0  0  0  0
   -3.5570   10.3109   -7.7899 C   0  0  0  0  0  0  0  0  0  0  0  0
   -4.8253    9.7663   -8.0483 C   0  0  0  0  0  0  0  0  0  0  0  0
   -2.0926   12.1556   -6.9444 C   0  0  0  0  0  0  0  0  0  0  0  0
   -1.7338   13.4204   -6.4594 C   0  0  0  0  0  0  0  0  0  0  0  0
   -0.4064   13.4584   -6.4114 N   0  0  3  0  0  0  0  0  0  0  0  0
    0.1793   12.3493   -6.7865 N   0  0  0  0  0  0  0  0  0  0  0  0
   -0.7954   11.5387   -7.1512 C   0  0  0  0  0  0  0  0  0  0  0  0
    0.4205   14.5767   -6.0073 C   0  0  0  0  0  0  0  0  0  0  0  0
   -4.6894   13.8945  -11.1046 C   0  0  0  0  0  0  0  0  0  0  0  0
   -3.7822   15.1171  -11.3990 C   0  0  0  0  0  0  0  0  0  0  0  0
   -2.3310   14.9579  -11.2532 N   0  0  0  0  0  0  0  0  0  0  0  0
   -1.8099   14.4326  -10.1320 C   0  0  0  0  0  0  0  0  0  0  0  0
   -2.5019   14.0442   -9.2076 O   0  0  0  0  0  0  0  0  0  0  0  0
   -0.2869   14.3494  -10.0364 C   0  0  0  0  0  0  0  0  0  0  0  0
   -6.0716   12.2689   -9.8542 H   0  0  0  0  0  0  0  0  0  0  0  0
   -8.1374   10.1224  -13.9131 H   0  0  0  0  0  0  0  0  0  0  0  0
   -6.8466   12.2604  -14.0624 H   0  0  0  0  0  0  0  0  0  0  0  0
   -8.7543   10.5845  -11.5930 H   0  0  0  0  0  0  0  0  0  0  0  0
   -8.0269    9.5780   -7.2478 H   0  0  0  0  0  0  0  0  0  0  0  0
   -6.7507   12.3156   -6.9255 H   0  0  0  0  0  0  0  0  0  0  0  0
   -4.5132   13.2816   -6.4664 H   0  0  0  0  0  0  0  0  0  0  0  0
   -2.6683    9.7485   -8.0357 H   0  0  0  0  0  0  0  0  0  0  0  0
   -4.9092    8.7863   -8.4943 H   0  0  0  0  0  0  0  0  0  0  0  0
   -2.4090   14.2148   -6.1776 H   0  0  0  0  0  0  0  0  0  0  0  0
    0.7951   12.5225   -7.5551 H   0  0  0  0  0  0  0  0  0  0  0  0
   -0.7373   10.6160   -6.5552 H   0  0  0  0  0  0  0  0  0  0  0  0
   -0.6796   11.2945   -8.2175 H   0  0  0  0  0  0  0  0  0  0  0  0
    1.4810   14.2930   -6.0763 H   0  0  0  0  0  0  0  0  0  0  0  0
    0.2266   15.4339   -6.6689 H   0  0  0  0  0  0  0  0  0  0  0  0
    0.1818   14.8530   -4.9697 H   0  0  0  0  0  0  0  0  0  0  0  0
   -5.2882   14.1185  -10.2095 H   0  0  0  0  0  0  0  0  0  0  0  0
   -4.0431   13.0269  -10.9057 H   0  0  0  0  0  0  0  0  0  0  0  0
   -3.9735   15.4217  -12.4385 H   0  0  0  0  0  0  0  0  0  0  0  0
   -4.0914   15.9235  -10.7178 H   0  0  0  0  0  0  0  0  0  0  0  0
   -1.7243   15.2430  -11.9952 H   0  0  0  0  0  0  0  0  0  0  0  0
   -0.0031   13.9147   -9.0666 H   0  0  0  0  0  0  0  0  0  0  0  0
    0.0973   13.7152  -10.8489 H   0  0  0  0  0  0  0  0  0  0  0  0
    0.1416   15.3586  -10.1252 H   0  0  0  0  0  0  0  0  0  0  0  0
  1  2  1  0  0  0  0
  1  4  1  0  0  0  0
  1 11  2  0  0  0  0
  2  6  2  0  0  0  0
  3  4  2  0  0  0  0
  3  5  1  0  0  0  0
  5  6  1  0  0  0  0
  5  9  1  0  0  0  0
  6  7  1  0  0  0  0
  7  8  1  0  0  0  0
  7 10  2  3  0  0  0
  8  9  2  0  0  0  0
 10 12  1  0  0  0  0
 11 24  1  0  0  0  0
 12 13  2  0  0  0  0
 12 17  1  0  0  0  0
 13 14  1  0  0  0  0
 14 15  2  0  0  0  0
 15 16  1  0  0  0  0
 15 18  1  0  0  0  0
 16 17  2  0  0  0  0
 18 19  2  0  0  0  0
 18 22  1  0  0  0  0
 19 20  1  0  0  0  0
 20 21  1  0  0  0  0
 20 23  1  0  0  0  0
 21 22  1  0  0  0  0
 24 25  1  0  0  0  0
 25 26  1  0  0  0  0
 26 27  1  0  0  0  0
 27 28  2  0  0  0  0
 27 29  1  0  0  0  0
  2 30  1  0  0  0  0
  3 31  1  0  0  0  0
  4 32  1  0  0  0  0
  5 33  1  0  0  0  0
 10 34  1  0  0  0  0
 13 35  1  0  0  0  0
 14 36  1  0  0  0  0
 16 37  1  0  0  0  0
 17 38  1  0  0  0  0
 19 39  1  0  0  0  0
 21 40  1  0  0  0  0
 22 41  1  0  0  0  0
 22 42  1  0  0  0  0
 23 43  1  0  0  0  0
 23 44  1  0  0  0  0
 23 45  1  0  0  0  0
 24 46  1  0  0  0  0
 24 47  1  0  0  0  0
 25 48  1  0  0  0  0
 25 49  1  0  0  0  0
 26 50  1  0  0  0  0
 29 51  1  0  0  0  0
 29 52  1  0  0  0  0
 29 53  1  0  0  0  0
M  END
> <Name>
27

> <IC50[uM]>
0.68

$$$$
27
  -OEChem-05192314333D
 Structure written by MMmdl.
 53 56  0     1  0  0  0  0  0999 V2000
   -6.3855   12.3606  -12.0031 C   0  0  0  0  0  0  0  0  0  0  0  0
   -6.5214   11.8004  -10.7171 C   0  0  0  0  0  0  0  0  0  0  0  0
   -7.6991   10.5797  -13.0384 C   0  0  0  0  0  0  0  0  0  0  0  0
   -6.9626   11.7779  -13.1031 C   0  0  0  0  0  0  0  0  0  0  0  0
   -7.8238   10.0198  -11.7523 C   0  0  0  0  0  0  0  0  0  0  0  0
   -7.2557   10.6213  -10.5956 C   0  0  0  0  0  0  0  0  0  0  0  0
   -7.6268    9.7501   -9.5073 C   0  0  0  0  0  0  0  0  0  0  0  0
   -8.3057    8.7491   -9.9816 N   0  0  0  0  0  0  0  0  0  0  0  0
   -8.4330    8.8776  -11.2917 N   0  0  0  0  0  0  0  0  0  0  0  0
   -7.3352    9.8817   -8.0196 C   0  0  0  0  0  0  0  0  0  0  0  0
   -5.6205   13.5372  -12.2095 N   0  0  0  0  0  0  0  0  0  0  0  0
   -5.9727   10.4835   -7.7324 C   0  0  0  0  0  0  0  0  0  0  0  0
   -5.8611   11.7523   -7.1657 C   0  0  0  0  0  0  0  0  0  0  0  0
   -4.5946   12.2988   -6.9068 C   0  0  0  0  0  0  0  0  0  0  0  0
   -3.4432   11.5806   -7.2147 C   0  0  0  0  0  0  0  0  0  0  0  0
   -3.5570   10.3109   -7.7899 C   0  0  0  0  0  0  0  0  0  0  0  0
   -4.8253    9.7663   -8.0483 C   0  0  0  0  0  0  0  0  0  0  0  0
   -2.0926   12.1556   -6.9444 C   0  0  0  0  0  0  0  0  0  0  0  0
   -1.7338   13.4204   -6.4594 C   0  0  0  0  0  0  0  0  0  0  0  0
   -0.4064   13.4584   -6.4114 N   0  0  3  0  0  0  0  0  0  0  0  0
    0.1793   12.3493   -6.7865 N   0  0  0  0  0  0  0  0  0  0  0  0
   -0.7954   11.5387   -7.1512 C   0  0  0  0  0  0  0  0  0  0  0  0
    0.4205   14.5767   -6.0073 C   0  0  0  0  0  0  0  0  0  0  0  0
   -4.6894   13.8945  -11.1046 C   0  0  0  0  0  0  0  0  0  0  0  0
   -3.7822   15.1171  -11.3990 C   0  0  0  0  0  0  0  0  0  0  0  0
   -2.3310   14.9579  -11.2532 N   0  0  0  0  0  0  0  0  0  0  0  0
   -1.8099   14.4326  -10.1320 C   0  0  0  0  0  0  0  0  0  0  0  0
   -2.5019   14.0442   -9.2076 O   0  0  0  0  0  0  0  0  0  0  0  0
   -0.2869   14.3494  -10.0364 C   0  0  0  0  0  0  0  0  0  0  0  0
   -6.0716   12.2689   -9.8542 H   0  0  0  0  0  0  0  0  0  0  0  0
   -8.1374   10.1224  -13.9131 H   0  0  0  0  0  0  0  0  0  0  0  0
   -7.6459   12.5314  -13.5218 H   0  0  0  0  0  0  0  0  0  0  0  0
   -6.1429   11.5918  -13.8126 H   0  0  0  0  0  0  0  0  0  0  0  0
   -8.0269    9.5780   -7.2478 H   0  0  0  0  0  0  0  0  0  0  0  0
   -6.7507   12.3156   -6.9255 H   0  0  0  0  0  0  0  0  0  0  0  0
   -4.5132   13.2816   -6.4664 H   0  0  0  0  0  0  0  0  0  0  0  0
   -2.6683    9.7485   -8.0357 H   0  0  0  0  0  0  0  0  0  0  0  0
   -4.9092    8.7863   -8.4943 H   0  0  0  0  0  0  0  0  0  0  0  0
   -2.4090   14.2148   -6.1776 H   0  0  0  0  0  0  0  0  0  0  0  0
    0.7951   12.5225   -7.5551 H   0  0  0  0  0  0  0  0  0  0  0  0
   -0.7373   10.6160   -6.5552 H   0  0  0  0  0  0  0  0  0  0  0  0
   -0.6796   11.2945   -8.2175 H   0  0  0  0  0  0  0  0  0  0  0  0
    1.4810   14.2930   -6.0763 H   0  0  0  0  0  0  0  0  0  0  0  0
    0.2266   15.4339   -6.6689 H   0  0  0  0  0  0  0  0  0  0  0  0
    0.1818   14.8530   -4.9697 H   0  0  0  0  0  0  0  0  0  0  0  0
   -5.2882   14.1185  -10.2095 H   0  0  0  0  0  0  0  0  0  0  0  0
   -4.0431   13.0269  -10.9057 H   0  0  0  0  0  0  0  0  0  0  0  0
   -3.9735   15.4217  -12.4385 H   0  0  0  0  0  0  0  0  0  0  0  0
   -4.0914   15.9235  -10.7178 H   0  0  0  0  0  0  0  0  0  0  0  0
   -1.7243   15.2430  -11.9952 H   0  0  0  0  0  0  0  0  0  0  0  0
   -0.0031   13.9147   -9.0666 H   0  0  0  0  0  0  0  0  0  0  0  0
    0.0973   13.7152  -10.8489 H   0  0  0  0  0  0  0  0  0  0  0  0
    0.1416   15.3586  -10.1252 H   0  0  0  0  0  0  0  0  0  0  0  0
  1  2  1  0  0  0  0
  1  4  1  0  0  0  0
  1 11  2  0  0  0  0
  2  6  2  0  0  0  0
  3  4  1  0  0  0  0
  3  5  2  0  0  0  0
  5  6  1  0  0  0  0
  5  9  1  0  0  0  0
  6  7  1  0  0  0  0
  7  8  1  0  0  0  0
  7 10  2  3  0  0  0
  8  9  2  0  0  0  0
 10 12  1  0  0  0  0
 11 24  1  0  0  0  0
 12 13  2  0  0  0  0
 12 17  1  0  0  0  0
 13 14  1  0  0  0  0
 14 15  2  0  0  0  0
 15 16  1  0  0  0  0
 15 18  1  0  0  0  0
 16 17  2  0  0  0  0
 18 19  2  0  0  0  0
 18 22  1  0  0  0  0
 19 20  1  0  0  0  0
 20 21  1  0  0  0  0
 20 23  1  0  0  0  0
 21 22  1  0  0  0  0
 24 25  1  0  0  0  0
 25 26  1  0  0  0  0
 26 27  1  0  0  0  0
 27 28  2  0  0  0  0
 27 29  1  0  0  0  0
  2 30  1  0  0  0  0
  3 31  1  0  0  0  0
  4 32  1  0  0  0  0
  4 33  1  0  0  0  0
 10 34  1  0  0  0  0
 13 35  1  0  0  0  0
 14 36  1  0  0  0  0
 16 37  1  0  0  0  0
 17 38  1  0  0  0  0
 19 39  1  0  0  0  0
 21 40  1  0  0  0  0
 22 41  1  0  0  0  0
 22 42  1  0  0  0  0
 23 43  1  0  0  0  0
 23 44  1  0  0  0  0
 23 45  1  0  0  0  0
 24 46  1  0  0  0  0
 24 47  1  0  0  0  0
 25 48  1  0  0  0  0
 25 49  1  0  0  0  0
 26 50  1  0  0  0  0
 29 51  1  0  0  0  0
 29 52  1  0  0  0  0
 29 53  1  0  0  0  0
M  END
> <Name>
27

> <IC50[uM]>
0.68

$$$$
27
  -OEChem-05192314333D
 Structure written by MMmdl.
 53 56  0     1  0  0  0  0  0999 V2000
   -6.3855   12.3606  -12.0031 C   0  0  0  0  0  0  0  0  0  0  0  0
   -6.5214   11.8004  -10.7171 C   0  0  0  0  0  0  0  0  0  0  0  0
   -7.6991   10.5797  -13.0384 C   0  0  0  0  0  0  0  0  0  0  0  0
   -6.9626   11.7779  -13.1031 C   0  0  0  0  0  0  0  0  0  0  0  0
   -7.8238   10.0198  -11.7523 C   0  0  0  0  0  0  0  0  0  0  0  0
   -7.2557   10.6213  -10.5956 C   0  0  0  0  0  0  0  0  0  0  0  0
   -7.6268    9.7501   -9.5073 C   0  0  0  0  0  0  0  0  0  0  0  0
   -8.3057    8.7491   -9.9816 N   0  0  0  0  0  0  0  0  0  0  0  0
   -8.4330    8.8776  -11.2917 N   0  0  0  0  0  0  0  0  0  0  0  0
   -7.3352    9.8817   -8.0196 C   0  0  0  0  0  0  0  0  0  0  0  0
   -5.6205   13.5372  -12.2095 N   0  0  0  0  0  0  0  0  0  0  0  0
   -5.9727   10.4835   -7.7324 C   0  0  0  0  0  0  0  0  0  0  0  0
   -5.8611   11.7523   -7.1657 C   0  0  0  0  0  0  0  0  0  0  0  0
   -4.5946   12.2988   -6.9068 C   0  0  0  0  0  0  0  0  0  0  0  0
   -3.4432   11.5806   -7.2147 C   0  0  0  0  0  0  0  0  0  0  0  0
   -3.5570   10.3109   -7.7899 C   0  0  0  0  0  0  0  0  0  0  0  0
   -4.8253    9.7663   -8.0483 C   0  0  0  0  0  0  0  0  0  0  0  0
   -2.0926   12.1556   -6.9444 C   0  0  0  0  0  0  0  0  0  0  0  0
   -1.7338   13.4204   -6.4594 C   0  0  0  0  0  0  0  0  0  0  0  0
   -0.4064   13.4584   -6.4114 N   0  0  3  0  0  0  0  0  0  0  0  0
    0.1793   12.3493   -6.7865 N   0  0  0  0  0  0  0  0  0  0  0  0
   -0.7954   11.5387   -7.1512 C   0  0  0  0  0  0  0  0  0  0  0  0
    0.4205   14.5767   -6.0073 C   0  0  0  0  0  0  0  0  0  0  0  0
   -4.6894   13.8945  -11.1046 C   0  0  0  0  0  0  0  0  0  0  0  0
   -3.7822   15.1171  -11.3990 C   0  0  0  0  0  0  0  0  0  0  0  0
   -2.3310   14.9579  -11.2532 N   0  0  0  0  0  0  0  0  0  0  0  0
   -1.8099   14.4326  -10.1320 C   0  0  0  0  0  0  0  0  0  0  0  0
   -2.5019   14.0442   -9.2076 O   0  0  0  0  0  0  0  0  0  0  0  0
   -0.2869   14.3494  -10.0364 C   0  0  0  0  0  0  0  0  0  0  0  0
   -5.5086   11.5965  -10.3394 H   0  0  0  0  0  0  0  0  0  0  0  0
   -7.0053   12.5553  -10.0799 H   0  0  0  0  0  0  0  0  0  0  0  0
   -8.1374   10.1224  -13.9131 H   0  0  0  0  0  0  0  0  0  0  0  0
   -6.8466   12.2604  -14.0624 H   0  0  0  0  0  0  0  0  0  0  0  0
   -8.0269    9.5780   -7.2478 H   0  0  0  0  0  0  0  0  0  0  0  0
   -6.7507   12.3156   -6.9255 H   0  0  0  0  0  0  0  0  0  0  0  0
   -4.5132   13.2816   -6.4664 H   0  0  0  0  0  0  0  0  0  0  0  0
   -2.6683    9.7485   -8.0357 H   0  0  0  0  0  0  0  0  0  0  0  0
   -4.9092    8.7863   -8.4943 H   0  0  0  0  0  0  0  0  0  0  0  0
   -2.4090   14.2148   -6.1776 H   0  0  0  0  0  0  0  0  0  0  0  0
    0.7951   12.5225   -7.5551 H   0  0  0  0  0  0  0  0  0  0  0  0
   -0.7373   10.6160   -6.5552 H   0  0  0  0  0  0  0  0  0  0  0  0
   -0.6796   11.2945   -8.2175 H   0  0  0  0  0  0  0  0  0  0  0  0
    1.4810   14.2930   -6.0763 H   0  0  0  0  0  0  0  0  0  0  0  0
    0.2266   15.4339   -6.6689 H   0  0  0  0  0  0  0  0  0  0  0  0
    0.1818   14.8530   -4.9697 H   0  0  0  0  0  0  0  0  0  0  0  0
   -5.2882   14.1185  -10.2095 H   0  0  0  0  0  0  0  0  0  0  0  0
   -4.0431   13.0269  -10.9057 H   0  0  0  0  0  0  0  0  0  0  0  0
   -3.9735   15.4217  -12.4385 H   0  0  0  0  0  0  0  0  0  0  0  0
   -4.0914   15.9235  -10.7178 H   0  0  0  0  0  0  0  0  0  0  0  0
   -1.7243   15.2430  -11.9952 H   0  0  0  0  0  0  0  0  0  0  0  0
   -0.0031   13.9147   -9.0666 H   0  0  0  0  0  0  0  0  0  0  0  0
    0.0973   13.7152  -10.8489 H   0  0  0  0  0  0  0  0  0  0  0  0
    0.1416   15.3586  -10.1252 H   0  0  0  0  0  0  0  0  0  0  0  0
  1  2  1  0  0  0  0
  1  4  1  0  0  0  0
  1 11  2  0  0  0  0
  2  6  1  0  0  0  0
  3  4  2  0  0  0  0
  3  5  1  0  0  0  0
  5  6  2  0  0  0  0
  5  9  1  0  0  0  0
  6  7  1  0  0  0  0
  7  8  1  0  0  0  0
  7 10  2  3  0  0  0
  8  9  2  0  0  0  0
 10 12  1  0  0  0  0
 11 24  1  0  0  0  0
 12 13  2  0  0  0  0
 12 17  1  0  0  0  0
 13 14  1  0  0  0  0
 14 15  2  0  0  0  0
 15 16  1  0  0  0  0
 15 18  1  0  0  0  0
 16 17  2  0  0  0  0
 18 19  2  0  0  0  0
 18 22  1  0  0  0  0
 19 20  1  0  0  0  0
 20 21  1  0  0  0  0
 20 23  1  0  0  0  0
 21 22  1  0  0  0  0
 24 25  1  0  0  0  0
 25 26  1  0  0  0  0
 26 27  1  0  0  0  0
 27 28  2  0  0  0  0
 27 29  1  0  0  0  0
  2 30  1  0  0  0  0
  2 31  1  0  0  0  0
  3 32  1  0  0  0  0
  4 33  1  0  0  0  0
 10 34  1  0  0  0  0
 13 35  1  0  0  0  0
 14 36  1  0  0  0  0
 16 37  1  0  0  0  0
 17 38  1  0  0  0  0
 19 39  1  0  0  0  0
 21 40  1  0  0  0  0
 22 41  1  0  0  0  0
 22 42  1  0  0  0  0
 23 43  1  0  0  0  0
 23 44  1  0  0  0  0
 23 45  1  0  0  0  0
 24 46  1  0  0  0  0
 24 47  1  0  0  0  0
 25 48  1  0  0  0  0
 25 49  1  0  0  0  0
 26 50  1  0  0  0  0
 29 51  1  0  0  0  0
 29 52  1  0  0  0  0
 29 53  1  0  0  0  0
M  END
> <Name>
27

> <IC50[uM]>
0.68

$$$$
27
  -OEChem-05192314333D
 Structure written by MMmdl.
 53 56  0     1  0  0  0  0  0999 V2000
   -6.3855   12.3606  -12.0031 C   0  0  0  0  0  0  0  0  0  0  0  0
   -6.5214   11.8004  -10.7171 C   0  0  0  0  0  0  0  0  0  0  0  0
   -7.6991   10.5797  -13.0384 C   0  0  0  0  0  0  0  0  0  0  0  0
   -6.9626   11.7779  -13.1031 C   0  0  0  0  0  0  0  0  0  0  0  0
   -7.8238   10.0198  -11.7523 C   0  0  0  0  0  0  0  0  0  0  0  0
   -7.2557   10.6213  -10.5956 C   0  0  0  0  0  0  0  0  0  0  0  0
   -7.6268    9.7501   -9.5073 C   0  0  0  0  0  0  0  0  0  0  0  0
   -8.3057    8.7491   -9.9816 N   0  0  0  0  0  0  0  0  0  0  0  0
   -8.4330    8.8776  -11.2917 N   0  0  0  0  0  0  0  0  0  0  0  0
   -7.3352    9.8817   -8.0196 C   0  0  0  0  0  0  0  0  0  0  0  0
   -5.6205   13.5372  -12.2095 N   0  0  0  0  0  0  0  0  0  0  0  0
   -5.9727   10.4835   -7.7324 C   0  0  0  0  0  0  0  0  0  0  0  0
   -5.8611   11.7523   -7.1657 C   0  0  0  0  0  0  0  0  0  0  0  0
   -4.5946   12.2988   -6.9068 C   0  0  0  0  0  0  0  0  0  0  0  0
   -3.4432   11.5806   -7.2147 C   0  0  0  0  0  0  0  0  0  0  0  0
   -3.5570   10.3109   -7.7899 C   0  0  0  0  0  0  0  0  0  0  0  0
   -4.8253    9.7663   -8.0483 C   0  0  0  0  0  0  0  0  0  0  0  0
   -2.0926   12.1556   -6.9444 C   0  0  0  0  0  0  0  0  0  0  0  0
   -1.7338   13.4204   -6.4594 C   0  0  0  0  0  0  0  0  0  0  0  0
   -0.4064   13.4584   -6.4114 N   0  0  3  0  0  0  0  0  0  0  0  0
    0.1793   12.3493   -6.7865 N   0  0  0  0  0  0  0  0  0  0  0  0
   -0.7954   11.5387   -7.1512 C   0  0  0  0  0  0  0  0  0  0  0  0
    0.4205   14.5767   -6.0073 C   0  0  0  0  0  0  0  0  0  0  0  0
   -4.6894   13.8945  -11.1046 C   0  0  0  0  0  0  0  0  0  0  0  0
   -3.7822   15.1171  -11.3990 C   0  0  0  0  0  0  0  0  0  0  0  0
   -2.3310   14.9579  -11.2532 N   0  0  0  0  0  0  0  0  0  0  0  0
   -1.8099   14.4326  -10.1320 C   0  0  0  0  0  0  0  0  0  0  0  0
   -2.5019   14.0442   -9.2076 O   0  0  0  0  0  0  0  0  0  0  0  0
   -0.2869   14.3494  -10.0364 C   0  0  0  0  0  0  0  0  0  0  0  0
   -6.0716   12.2689   -9.8542 H   0  0  0  0  0  0  0  0  0  0  0  0
   -8.1374   10.1224  -13.9131 H   0  0  0  0  0  0  0  0  0  0  0  0
   -6.8466   12.2604  -14.0624 H   0  0  0  0  0  0  0  0  0  0  0  0
   -8.0269    9.5780   -7.2478 H   0  0  0  0  0  0  0  0  0  0  0  0
   -5.0791   13.4115  -13.0408 H   0  0  0  0  0  0  0  0  0  0  0  0
   -5.9820   10.0328   -6.7290 H   0  0  0  0  0  0  0  0  0  0  0  0
   -6.7507   12.3156   -6.9255 H   0  0  0  0  0  0  0  0  0  0  0  0
   -4.5132   13.2816   -6.4664 H   0  0  0  0  0  0  0  0  0  0  0  0
   -2.6683    9.7485   -8.0357 H   0  0  0  0  0  0  0  0  0  0  0  0
   -4.9092    8.7863   -8.4943 H   0  0  0  0  0  0  0  0  0  0  0  0
   -2.1095   14.2037   -7.1341 H   0  0  0  0  0  0  0  0  0  0  0  0
   -2.1522   13.5713   -5.4533 H   0  0  0  0  0  0  0  0  0  0  0  0
   -0.6475   10.5464   -7.5511 H   0  0  0  0  0  0  0  0  0  0  0  0
    1.4812   14.2962   -6.0855 H   0  0  0  0  0  0  0  0  0  0  0  0
    0.2196   15.4369   -6.6628 H   0  0  0  0  0  0  0  0  0  0  0  0
    0.1886   14.8468   -4.9665 H   0  0  0  0  0  0  0  0  0  0  0  0
   -5.2882   14.1185  -10.2095 H   0  0  0  0  0  0  0  0  0  0  0  0
   -4.0431   13.0269  -10.9057 H   0  0  0  0  0  0  0  0  0  0  0  0
   -3.9735   15.4217  -12.4385 H   0  0  0  0  0  0  0  0  0  0  0  0
   -4.0914   15.9235  -10.7178 H   0  0  0  0  0  0  0  0  0  0  0  0
   -1.7243   15.2430  -11.9952 H   0  0  0  0  0  0  0  0  0  0  0  0
   -0.0031   13.9147   -9.0666 H   0  0  0  0  0  0  0  0  0  0  0  0
    0.0973   13.7152  -10.8489 H   0  0  0  0  0  0  0  0  0  0  0  0
    0.1416   15.3586  -10.1252 H   0  0  0  0  0  0  0  0  0  0  0  0
  1  2  2  0  0  0  0
  1  4  1  0  0  0  0
  1 11  1  0  0  0  0
  2  6  1  0  0  0  0
  3  4  2  0  0  0  0
  3  5  1  0  0  0  0
  5  6  2  0  0  0  0
  5  9  1  0  0  0  0
  6  7  1  0  0  0  0
  7  8  1  0  0  0  0
  7 10  2  3  0  0  0
  8  9  2  0  0  0  0
 10 12  1  0  0  0  0
 11 24  1  0  0  0  0
 12 13  1  0  0  0  0
 12 17  1  0  0  0  0
 13 14  2  0  0  0  0
 14 15  1  0  0  0  0
 15 16  1  0  0  0  0
 15 18  2  0  0  0  0
 16 17  2  0  0  0  0
 18 19  1  0  0  0  0
 18 22  1  0  0  0  0
 19 20  1  0  0  0  0
 20 21  1  0  0  0  0
 20 23  1  0  0  0  0
 21 22  2  0  0  0  0
 24 25  1  0  0  0  0
 25 26  1  0  0  0  0
 26 27  1  0  0  0  0
 27 28  2  0  0  0  0
 27 29  1  0  0  0  0
  2 30  1  0  0  0  0
  3 31  1  0  0  0  0
  4 32  1  0  0  0  0
 10 33  1  0  0  0  0
 11 34  1  0  0  0  0
 12 35  1  0  0  0  0
 13 36  1  0  0  0  0
 14 37  1  0  0  0  0
 16 38  1  0  0  0  0
 17 39  1  0  0  0  0
 19 40  1  0  0  0  0
 19 41  1  0  0  0  0
 22 42  1  0  0  0  0
 23 43  1  0  0  0  0
 23 44  1  0  0  0  0
 23 45  1  0  0  0  0
 24 46  1  0  0  0  0
 24 47  1  0  0  0  0
 25 48  1  0  0  0  0
 25 49  1  0  0  0  0
 26 50  1  0  0  0  0
 29 51  1  0  0  0  0
 29 52  1  0  0  0  0
 29 53  1  0  0  0  0
M  END
> <Name>
27

> <IC50[uM]>
0.68

$$$$
27
  -OEChem-05192314333D
 Structure written by MMmdl.
 53 56  0     1  0  0  0  0  0999 V2000
   -6.3855   12.3606  -12.0031 C   0  0  0  0  0  0  0  0  0  0  0  0
   -6.5214   11.8004  -10.7171 C   0  0  0  0  0  0  0  0  0  0  0  0
   -7.6991   10.5797  -13.0384 C   0  0  0  0  0  0  0  0  0  0  0  0
   -6.9626   11.7779  -13.1031 C   0  0  0  0  0  0  0  0  0  0  0  0
   -7.8238   10.0198  -11.7523 C   0  0  3  0  0  0  0  0  0  0  0  0
   -7.2557   10.6213  -10.5956 C   0  0  0  0  0  0  0  0  0  0  0  0
   -7.6268    9.7501   -9.5073 C   0  0  0  0  0  0  0  0  0  0  0  0
   -8.3057    8.7491   -9.9816 N   0  0  0  0  0  0  0  0  0  0  0  0
   -8.4330    8.8776  -11.2917 N   0  0  0  0  0  0  0  0  0  0  0  0
   -7.3352    9.8817   -8.0196 C   0  0  0  0  0  0  0  0  0  0  0  0
   -5.6205   13.5372  -12.2095 N   0  0  0  0  0  0  0  0  0  0  0  0
   -5.9727   10.4835   -7.7324 C   0  0  0  0  0  0  0  0  0  0  0  0
   -5.8611   11.7523   -7.1657 C   0  0  0  0  0  0  0  0  0  0  0  0
   -4.5946   12.2988   -6.9068 C   0  0  0  0  0  0  0  0  0  0  0  0
   -3.4432   11.5806   -7.2147 C   0  0  0  0  0  0  0  0  0  0  0  0
   -3.5570   10.3109   -7.7899 C   0  0  0  0  0  0  0  0  0  0  0  0
   -4.8253    9.7663   -8.0483 C   0  0  0  0  0  0  0  0  0  0  0  0
   -2.0926   12.1556   -6.9444 C   0  0  0  0  0  0  0  0  0  0  0  0
   -1.7338   13.4204   -6.4594 C   0  0  0  0  0  0  0  0  0  0  0  0
   -0.4064   13.4584   -6.4114 N   0  0  3  0  0  0  0  0  0  0  0  0
    0.1793   12.3493   -6.7865 N   0  0  0  0  0  0  0  0  0  0  0  0
   -0.7954   11.5387   -7.1512 C   0  0  0  0  0  0  0  0  0  0  0  0
    0.4205   14.5767   -6.0073 C   0  0  0  0  0  0  0  0  0  0  0  0
   -4.6894   13.8945  -11.1046 C   0  0  0  0  0  0  0  0  0  0  0  0
   -3.7822   15.1171  -11.3990 C   0  0  0  0  0  0  0  0  0  0  0  0
   -2.3310   14.9579  -11.2532 N   0  0  0  0  0  0  0  0  0  0  0  0
   -1.8099   14.4326  -10.1320 C   0  0  0  0  0  0  0  0  0  0  0  0
   -2.5019   14.0442   -9.2076 O   0  0  0  0  0  0  0  0  0  0  0  0
   -0.2869   14.3494  -10.0364 C   0  0  0  0  0  0  0  0  0  0  0  0
   -6.0716   12.2689   -9.8542 H   0  0  0  0  0  0  0  0  0  0  0  0
   -8.1374   10.1224  -13.9131 H   0  0  0  0  0  0  0  0  0  0  0  0
   -6.8466   12.2604  -14.0624 H   0  0  0  0  0  0  0  0  0  0  0  0
   -8.7543   10.5845  -11.5930 H   0  0  0  0  0  0  0  0  0  0  0  0
   -8.0269    9.5780   -7.2478 H   0  0  0  0  0  0  0  0  0  0  0  0
   -6.7507   12.3156   -6.9255 H   0  0  0  0  0  0  0  0  0  0  0  0
   -4.5132   13.2816   -6.4664 H   0  0  0  0  0  0  0  0  0  0  0  0
   -2.6683    9.7485   -8.0357 H   0  0  0  0  0  0  0  0  0  0  0  0
   -4.9092    8.7863   -8.4943 H   0  0  0  0  0  0  0  0  0  0  0  0
   -2.1095   14.2037   -7.1341 H   0  0  0  0  0  0  0  0  0  0  0  0
   -2.1522   13.5713   -5.4533 H   0  0  0  0  0  0  0  0  0  0  0  0
    0.7951   12.5225   -7.5551 H   0  0  0  0  0  0  0  0  0  0  0  0
   -0.6475   10.5464   -7.5511 H   0  0  0  0  0  0  0  0  0  0  0  0
    1.4810   14.2930   -6.0763 H   0  0  0  0  0  0  0  0  0  0  0  0
    0.2266   15.4339   -6.6689 H   0  0  0  0  0  0  0  0  0  0  0  0
    0.1818   14.8530   -4.9697 H   0  0  0  0  0  0  0  0  0  0  0  0
   -5.2882   14.1185  -10.2095 H   0  0  0  0  0  0  0  0  0  0  0  0
   -4.0431   13.0269  -10.9057 H   0  0  0  0  0  0  0  0  0  0  0  0
   -3.9735   15.4217  -12.4385 H   0  0  0  0  0  0  0  0  0  0  0  0
   -4.0914   15.9235  -10.7178 H   0  0  0  0  0  0  0  0  0  0  0  0
   -1.7243   15.2430  -11.9952 H   0  0  0  0  0  0  0  0  0  0  0  0
   -0.0031   13.9147   -9.0666 H   0  0  0  0  0  0  0  0  0  0  0  0
    0.0973   13.7152  -10.8489 H   0  0  0  0  0  0  0  0  0  0  0  0
    0.1416   15.3586  -10.1252 H   0  0  0  0  0  0  0  0  0  0  0  0
  1  2  1  0  0  0  0
  1  4  1  0  0  0  0
  1 11  2  0  0  0  0
  2  6  2  0  0  0  0
  3  4  2  0  0  0  0
  3  5  1  0  0  0  0
  5  6  1  0  0  0  0
  5  9  1  0  0  0  0
  6  7  1  0  0  0  0
  7  8  1  0  0  0  0
  7 10  2  3  0  0  0
  8  9  2  0  0  0  0
 10 12  1  0  0  0  0
 11 24  1  0  0  0  0
 12 13  2  0  0  0  0
 12 17  1  0  0  0  0
 13 14  1  0  0  0  0
 14 15  2  0  0  0  0
 15 16  1  0  0  0  0
 15 18  1  0  0  0  0
 16 17  2  0  0  0  0
 18 19  1  0  0  0  0
 18 22  2  0  0  0  0
 19 20  1  0  0  0  0
 20 21  1  0  0  0  0
 20 23  1  0  0  0  0
 21 22  1  0  0  0  0
 24 25  1  0  0  0  0
 25 26  1  0  0  0  0
 26 27  1  0  0  0  0
 27 28  2  0  0  0  0
 27 29  1  0  0  0  0
  2 30  1  0  0  0  0
  3 31  1  0  0  0  0
  4 32  1  0  0  0  0
  5 33  1  0  0  0  0
 10 34  1  0  0  0  0
 13 35  1  0  0  0  0
 14 36  1  0  0  0  0
 16 37  1  0  0  0  0
 17 38  1  0  0  0  0
 19 39  1  0  0  0  0
 19 40  1  0  0  0  0
 21 41  1  0  0  0  0
 22 42  1  0  0  0  0
 23 43  1  0  0  0  0
 23 44  1  0  0  0  0
 23 45  1  0  0  0  0
 24 46  1  0  0  0  0
 24 47  1  0  0  0  0
 25 48  1  0  0  0  0
 25 49  1  0  0  0  0
 26 50  1  0  0  0  0
 29 51  1  0  0  0  0
 29 52  1  0  0  0  0
 29 53  1  0  0  0  0
M  END
> <Name>
27

> <IC50[uM]>
0.68

$$$$
27
  -OEChem-05192314333D
 Structure written by MMmdl.
 53 56  0     1  0  0  0  0  0999 V2000
   -6.3855   12.3606  -12.0031 C   0  0  0  0  0  0  0  0  0  0  0  0
   -6.5214   11.8004  -10.7171 C   0  0  0  0  0  0  0  0  0  0  0  0
   -7.6991   10.5797  -13.0384 C   0  0  0  0  0  0  0  0  0  0  0  0
   -6.9626   11.7779  -13.1031 C   0  0  0  0  0  0  0  0  0  0  0  0
   -7.8238   10.0198  -11.7523 C   0  0  0  0  0  0  0  0  0  0  0  0
   -7.2557   10.6213  -10.5956 C   0  0  0  0  0  0  0  0  0  0  0  0
   -7.6268    9.7501   -9.5073 C   0  0  0  0  0  0  0  0  0  0  0  0
   -8.3057    8.7491   -9.9816 N   0  0  0  0  0  0  0  0  0  0  0  0
   -8.4330    8.8776  -11.2917 N   0  0  0  0  0  0  0  0  0  0  0  0
   -7.3352    9.8817   -8.0196 C   0  0  0  0  0  0  0  0  0  0  0  0
   -5.6205   13.5372  -12.2095 N   0  0  0  0  0  0  0  0  0  0  0  0
   -5.9727   10.4835   -7.7324 C   0  0  0  0  0  0  0  0  0  0  0  0
   -5.8611   11.7523   -7.1657 C   0  0  0  0  0  0  0  0  0  0  0  0
   -4.5946   12.2988   -6.9068 C   0  0  0  0  0  0  0  0  0  0  0  0
   -3.4432   11.5806   -7.2147 C   0  0  0  0  0  0  0  0  0  0  0  0
   -3.5570   10.3109   -7.7899 C   0  0  0  0  0  0  0  0  0  0  0  0
   -4.8253    9.7663   -8.0483 C   0  0  0  0  0  0  0  0  0  0  0  0
   -2.0926   12.1556   -6.9444 C   0  0  0  0  0  0  0  0  0  0  0  0
   -1.7338   13.4204   -6.4594 C   0  0  0  0  0  0  0  0  0  0  0  0
   -0.4064   13.4584   -6.4114 N   0  0  3  0  0  0  0  0  0  0  0  0
    0.1793   12.3493   -6.7865 N   0  0  0  0  0  0  0  0  0  0  0  0
   -0.7954   11.5387   -7.1512 C   0  0  0  0  0  0  0  0  0  0  0  0
    0.4205   14.5767   -6.0073 C   0  0  0  0  0  0  0  0  0  0  0  0
   -4.6894   13.8945  -11.1046 C   0  0  0  0  0  0  0  0  0  0  0  0
   -3.7822   15.1171  -11.3990 C   0  0  0  0  0  0  0  0  0  0  0  0
   -2.3310   14.9579  -11.2532 N   0  0  0  0  0  0  0  0  0  0  0  0
   -1.8099   14.4326  -10.1320 C   0  0  0  0  0  0  0  0  0  0  0  0
   -2.5019   14.0442   -9.2076 O   0  0  0  0  0  0  0  0  0  0  0  0
   -0.2869   14.3494  -10.0364 C   0  0  0  0  0  0  0  0  0  0  0  0
   -6.0716   12.2689   -9.8542 H   0  0  0  0  0  0  0  0  0  0  0  0
   -8.1374   10.1224  -13.9131 H   0  0  0  0  0  0  0  0  0  0  0  0
   -7.6459   12.5314  -13.5218 H   0  0  0  0  0  0  0  0  0  0  0  0
   -6.1429   11.5918  -13.8126 H   0  0  0  0  0  0  0  0  0  0  0  0
   -8.0269    9.5780   -7.2478 H   0  0  0  0  0  0  0  0  0  0  0  0
   -6.7507   12.3156   -6.9255 H   0  0  0  0  0  0  0  0  0  0  0  0
   -4.5132   13.2816   -6.4664 H   0  0  0  0  0  0  0  0  0  0  0  0
   -2.6683    9.7485   -8.0357 H   0  0  0  0  0  0  0  0  0  0  0  0
   -4.9092    8.7863   -8.4943 H   0  0  0  0  0  0  0  0  0  0  0  0
   -2.1095   14.2037   -7.1341 H   0  0  0  0  0  0  0  0  0  0  0  0
   -2.1522   13.5713   -5.4533 H   0  0  0  0  0  0  0  0  0  0  0  0
    0.7951   12.5225   -7.5551 H   0  0  0  0  0  0  0  0  0  0  0  0
   -0.6475   10.5464   -7.5511 H   0  0  0  0  0  0  0  0  0  0  0  0
    1.4810   14.2930   -6.0763 H   0  0  0  0  0  0  0  0  0  0  0  0
    0.2266   15.4339   -6.6689 H   0  0  0  0  0  0  0  0  0  0  0  0
    0.1818   14.8530   -4.9697 H   0  0  0  0  0  0  0  0  0  0  0  0
   -5.2882   14.1185  -10.2095 H   0  0  0  0  0  0  0  0  0  0  0  0
   -4.0431   13.0269  -10.9057 H   0  0  0  0  0  0  0  0  0  0  0  0
   -3.9735   15.4217  -12.4385 H   0  0  0  0  0  0  0  0  0  0  0  0
   -4.0914   15.9235  -10.7178 H   0  0  0  0  0  0  0  0  0  0  0  0
   -1.7243   15.2430  -11.9952 H   0  0  0  0  0  0  0  0  0  0  0  0
   -0.0031   13.9147   -9.0666 H   0  0  0  0  0  0  0  0  0  0  0  0
    0.0973   13.7152  -10.8489 H   0  0  0  0  0  0  0  0  0  0  0  0
    0.1416   15.3586  -10.1252 H   0  0  0  0  0  0  0  0  0  0  0  0
  1  2  1  0  0  0  0
  1  4  1  0  0  0  0
  1 11  2  0  0  0  0
  2  6  2  0  0  0  0
  3  4  1  0  0  0  0
  3  5  2  0  0  0  0
  5  6  1  0  0  0  0
  5  9  1  0  0  0  0
  6  7  1  0  0  0  0
  7  8  1  0  0  0  0
  7 10  2  3  0  0  0
  8  9  2  0  0  0  0
 10 12  1  0  0  0  0
 11 24  1  0  0  0  0
 12 13  2  0  0  0  0
 12 17  1  0  0  0  0
 13 14  1  0  0  0  0
 14 15  2  0  0  0  0
 15 16  1  0  0  0  0
 15 18  1  0  0  0  0
 16 17  2  0  0  0  0
 18 19  1  0  0  0  0
 18 22  2  0  0  0  0
 19 20  1  0  0  0  0
 20 21  1  0  0  0  0
 20 23  1  0  0  0  0
 21 22  1  0  0  0  0
 24 25  1  0  0  0  0
 25 26  1  0  0  0  0
 26 27  1  0  0  0  0
 27 28  2  0  0  0  0
 27 29  1  0  0  0  0
  2 30  1  0  0  0  0
  3 31  1  0  0  0  0
  4 32  1  0  0  0  0
  4 33  1  0  0  0  0
 10 34  1  0  0  0  0
 13 35  1  0  0  0  0
 14 36  1  0  0  0  0
 16 37  1  0  0  0  0
 17 38  1  0  0  0  0
 19 39  1  0  0  0  0
 19 40  1  0  0  0  0
 21 41  1  0  0  0  0
 22 42  1  0  0  0  0
 23 43  1  0  0  0  0
 23 44  1  0  0  0  0
 23 45  1  0  0  0  0
 24 46  1  0  0  0  0
 24 47  1  0  0  0  0
 25 48  1  0  0  0  0
 25 49  1  0  0  0  0
 26 50  1  0  0  0  0
 29 51  1  0  0  0  0
 29 52  1  0  0  0  0
 29 53  1  0  0  0  0
M  END
> <Name>
27

> <IC50[uM]>
0.68

$$$$
27
  -OEChem-05192314333D
 Structure written by MMmdl.
 53 56  0     1  0  0  0  0  0999 V2000
   -6.3855   12.3606  -12.0031 C   0  0  0  0  0  0  0  0  0  0  0  0
   -6.5214   11.8004  -10.7171 C   0  0  0  0  0  0  0  0  0  0  0  0
   -7.6991   10.5797  -13.0384 C   0  0  0  0  0  0  0  0  0  0  0  0
   -6.9626   11.7779  -13.1031 C   0  0  0  0  0  0  0  0  0  0  0  0
   -7.8238   10.0198  -11.7523 C   0  0  0  0  0  0  0  0  0  0  0  0
   -7.2557   10.6213  -10.5956 C   0  0  0  0  0  0  0  0  0  0  0  0
   -7.6268    9.7501   -9.5073 C   0  0  0  0  0  0  0  0  0  0  0  0
   -8.3057    8.7491   -9.9816 N   0  0  0  0  0  0  0  0  0  0  0  0
   -8.4330    8.8776  -11.2917 N   0  0  0  0  0  0  0  0  0  0  0  0
   -7.3352    9.8817   -8.0196 C   0  0  0  0  0  0  0  0  0  0  0  0
   -5.6205   13.5372  -12.2095 N   0  0  0  0  0  0  0  0  0  0  0  0
   -5.9727   10.4835   -7.7324 C   0  0  0  0  0  0  0  0  0  0  0  0
   -5.8611   11.7523   -7.1657 C   0  0  0  0  0  0  0  0  0  0  0  0
   -4.5946   12.2988   -6.9068 C   0  0  0  0  0  0  0  0  0  0  0  0
   -3.4432   11.5806   -7.2147 C   0  0  0  0  0  0  0  0  0  0  0  0
   -3.5570   10.3109   -7.7899 C   0  0  0  0  0  0  0  0  0  0  0  0
   -4.8253    9.7663   -8.0483 C   0  0  0  0  0  0  0  0  0  0  0  0
   -2.0926   12.1556   -6.9444 C   0  0  0  0  0  0  0  0  0  0  0  0
   -1.7338   13.4204   -6.4594 C   0  0  0  0  0  0  0  0  0  0  0  0
   -0.4064   13.4584   -6.4114 N   0  0  3  0  0  0  0  0  0  0  0  0
    0.1793   12.3493   -6.7865 N   0  0  0  0  0  0  0  0  0  0  0  0
   -0.7954   11.5387   -7.1512 C   0  0  0  0  0  0  0  0  0  0  0  0
    0.4205   14.5767   -6.0073 C   0  0  0  0  0  0  0  0  0  0  0  0
   -4.6894   13.8945  -11.1046 C   0  0  0  0  0  0  0  0  0  0  0  0
   -3.7822   15.1171  -11.3990 C   0  0  0  0  0  0  0  0  0  0  0  0
   -2.3310   14.9579  -11.2532 N   0  0  0  0  0  0  0  0  0  0  0  0
   -1.8099   14.4326  -10.1320 C   0  0  0  0  0  0  0  0  0  0  0  0
   -2.5019   14.0442   -9.2076 O   0  0  0  0  0  0  0  0  0  0  0  0
   -0.2869   14.3494  -10.0364 C   0  0  0  0  0  0  0  0  0  0  0  0
   -6.0716   12.2689   -9.8542 H   0  0  0  0  0  0  0  0  0  0  0  0
   -8.1374   10.1224  -13.9131 H   0  0  0  0  0  0  0  0  0  0  0  0
   -6.8466   12.2604  -14.0624 H   0  0  0  0  0  0  0  0  0  0  0  0
   -8.0269    9.5780   -7.2478 H   0  0  0  0  0  0  0  0  0  0  0  0
   -5.0791   13.4115  -13.0408 H   0  0  0  0  0  0  0  0  0  0  0  0
   -6.7507   12.3156   -6.9255 H   0  0  0  0  0  0  0  0  0  0  0  0
   -4.5373   13.2433   -7.4677 H   0  0  0  0  0  0  0  0  0  0  0  0
   -4.5562   12.5101   -5.8280 H   0  0  0  0  0  0  0  0  0  0  0  0
   -2.6683    9.7485   -8.0357 H   0  0  0  0  0  0  0  0  0  0  0  0
   -4.9092    8.7863   -8.4943 H   0  0  0  0  0  0  0  0  0  0  0  0
   -2.1095   14.2037   -7.1341 H   0  0  0  0  0  0  0  0  0  0  0  0
   -2.1522   13.5713   -5.4533 H   0  0  0  0  0  0  0  0  0  0  0  0
   -0.6475   10.5464   -7.5511 H   0  0  0  0  0  0  0  0  0  0  0  0
    1.4812   14.2962   -6.0855 H   0  0  0  0  0  0  0  0  0  0  0  0
    0.2196   15.4369   -6.6628 H   0  0  0  0  0  0  0  0  0  0  0  0
    0.1886   14.8468   -4.9665 H   0  0  0  0  0  0  0  0  0  0  0  0
   -5.2882   14.1185  -10.2095 H   0  0  0  0  0  0  0  0  0  0  0  0
   -4.0431   13.0269  -10.9057 H   0  0  0  0  0  0  0  0  0  0  0  0
   -3.9735   15.4217  -12.4385 H   0  0  0  0  0  0  0  0  0  0  0  0
   -4.0914   15.9235  -10.7178 H   0  0  0  0  0  0  0  0  0  0  0  0
   -1.7243   15.2430  -11.9952 H   0  0  0  0  0  0  0  0  0  0  0  0
   -0.0031   13.9147   -9.0666 H   0  0  0  0  0  0  0  0  0  0  0  0
    0.0973   13.7152  -10.8489 H   0  0  0  0  0  0  0  0  0  0  0  0
    0.1416   15.3586  -10.1252 H   0  0  0  0  0  0  0  0  0  0  0  0
  1  2  2  0  0  0  0
  1  4  1  0  0  0  0
  1 11  1  0  0  0  0
  2  6  1  0  0  0  0
  3  4  2  0  0  0  0
  3  5  1  0  0  0  0
  5  6  2  0  0  0  0
  5  9  1  0  0  0  0
  6  7  1  0  0  0  0
  7  8  1  0  0  0  0
  7 10  2  3  0  0  0
  8  9  2  0  0  0  0
 10 12  1  0  0  0  0
 11 24  1  0  0  0  0
 12 13  2  0  0  0  0
 12 17  1  0  0  0  0
 13 14  1  0  0  0  0
 14 15  1  0  0  0  0
 15 16  1  0  0  0  0
 15 18  2  0  0  0  0
 16 17  2  0  0  0  0
 18 19  1  0  0  0  0
 18 22  1  0  0  0  0
 19 20  1  0  0  0  0
 20 21  1  0  0  0  0
 20 23  1  0  0  0  0
 21 22  2  0  0  0  0
 24 25  1  0  0  0  0
 25 26  1  0  0  0  0
 26 27  1  0  0  0  0
 27 28  2  0  0  0  0
 27 29  1  0  0  0  0
  2 30  1  0  0  0  0
  3 31  1  0  0  0  0
  4 32  1  0  0  0  0
 10 33  1  0  0  0  0
 11 34  1  0  0  0  0
 13 35  1  0  0  0  0
 14 36  1  0  0  0  0
 14 37  1  0  0  0  0
 16 38  1  0  0  0  0
 17 39  1  0  0  0  0
 19 40  1  0  0  0  0
 19 41  1  0  0  0  0
 22 42  1  0  0  0  0
 23 43  1  0  0  0  0
 23 44  1  0  0  0  0
 23 45  1  0  0  0  0
 24 46  1  0  0  0  0
 24 47  1  0  0  0  0
 25 48  1  0  0  0  0
 25 49  1  0  0  0  0
 26 50  1  0  0  0  0
 29 51  1  0  0  0  0
 29 52  1  0  0  0  0
 29 53  1  0  0  0  0
M  END
> <Name>
27

> <IC50[uM]>
0.68

$$$$
27
  -OEChem-05192314333D
 Structure written by MMmdl.
 53 56  0     1  0  0  0  0  0999 V2000
   -6.3855   12.3606  -12.0031 C   0  0  0  0  0  0  0  0  0  0  0  0
   -6.5214   11.8004  -10.7171 C   0  0  0  0  0  0  0  0  0  0  0  0
   -7.6991   10.5797  -13.0384 C   0  0  0  0  0  0  0  0  0  0  0  0
   -6.9626   11.7779  -13.1031 C   0  0  0  0  0  0  0  0  0  0  0  0
   -7.8238   10.0198  -11.7523 C   0  0  0  0  0  0  0  0  0  0  0  0
   -7.2557   10.6213  -10.5956 C   0  0  0  0  0  0  0  0  0  0  0  0
   -7.6268    9.7501   -9.5073 C   0  0  0  0  0  0  0  0  0  0  0  0
   -8.3057    8.7491   -9.9816 N   0  0  0  0  0  0  0  0  0  0  0  0
   -8.4330    8.8776  -11.2917 N   0  0  0  0  0  0  0  0  0  0  0  0
   -7.3352    9.8817   -8.0196 C   0  0  0  0  0  0  0  0  0  0  0  0
   -5.6205   13.5372  -12.2095 N   0  0  0  0  0  0  0  0  0  0  0  0
   -5.9727   10.4835   -7.7324 C   0  0  0  0  0  0  0  0  0  0  0  0
   -5.8611   11.7523   -7.1657 C   0  0  0  0  0  0  0  0  0  0  0  0
   -4.5946   12.2988   -6.9068 C   0  0  0  0  0  0  0  0  0  0  0  0
   -3.4432   11.5806   -7.2147 C   0  0  0  0  0  0  0  0  0  0  0  0
   -3.5570   10.3109   -7.7899 C   0  0  0  0  0  0  0  0  0  0  0  0
   -4.8253    9.7663   -8.0483 C   0  0  0  0  0  0  0  0  0  0  0  0
   -2.0926   12.1556   -6.9444 C   0  0  0  0  0  0  0  0  0  0  0  0
   -1.7338   13.4204   -6.4594 C   0  0  0  0  0  0  0  0  0  0  0  0
   -0.4064   13.4584   -6.4114 N   0  0  3  0  0  0  0  0  0  0  0  0
    0.1793   12.3493   -6.7865 N   0  0  0  0  0  0  0  0  0  0  0  0
   -0.7954   11.5387   -7.1512 C   0  0  0  0  0  0  0  0  0  0  0  0
    0.4205   14.5767   -6.0073 C   0  0  0  0  0  0  0  0  0  0  0  0
   -4.6894   13.8945  -11.1046 C   0  0  0  0  0  0  0  0  0  0  0  0
   -3.7822   15.1171  -11.3990 C   0  0  0  0  0  0  0  0  0  0  0  0
   -2.3310   14.9579  -11.2532 N   0  0  0  0  0  0  0  0  0  0  0  0
   -1.8099   14.4326  -10.1320 C   0  0  0  0  0  0  0  0  0  0  0  0
   -2.5019   14.0442   -9.2076 O   0  0  0  0  0  0  0  0  0  0  0  0
   -0.2869   14.3494  -10.0364 C   0  0  0  0  0  0  0  0  0  0  0  0
   -5.5086   11.5965  -10.3394 H   0  0  0  0  0  0  0  0  0  0  0  0
   -7.0053   12.5553  -10.0799 H   0  0  0  0  0  0  0  0  0  0  0  0
   -8.1374   10.1224  -13.9131 H   0  0  0  0  0  0  0  0  0  0  0  0
   -6.8466   12.2604  -14.0624 H   0  0  0  0  0  0  0  0  0  0  0  0
   -8.0269    9.5780   -7.2478 H   0  0  0  0  0  0  0  0  0  0  0  0
   -6.7507   12.3156   -6.9255 H   0  0  0  0  0  0  0  0  0  0  0  0
   -4.5132   13.2816   -6.4664 H   0  0  0  0  0  0  0  0  0  0  0  0
   -2.6683    9.7485   -8.0357 H   0  0  0  0  0  0  0  0  0  0  0  0
   -4.9092    8.7863   -8.4943 H   0  0  0  0  0  0  0  0  0  0  0  0
   -2.1095   14.2037   -7.1341 H   0  0  0  0  0  0  0  0  0  0  0  0
   -2.1522   13.5713   -5.4533 H   0  0  0  0  0  0  0  0  0  0  0  0
    0.7951   12.5225   -7.5551 H   0  0  0  0  0  0  0  0  0  0  0  0
   -0.6475   10.5464   -7.5511 H   0  0  0  0  0  0  0  0  0  0  0  0
    1.4810   14.2930   -6.0763 H   0  0  0  0  0  0  0  0  0  0  0  0
    0.2266   15.4339   -6.6689 H   0  0  0  0  0  0  0  0  0  0  0  0
    0.1818   14.8530   -4.9697 H   0  0  0  0  0  0  0  0  0  0  0  0
   -5.2882   14.1185  -10.2095 H   0  0  0  0  0  0  0  0  0  0  0  0
   -4.0431   13.0269  -10.9057 H   0  0  0  0  0  0  0  0  0  0  0  0
   -3.9735   15.4217  -12.4385 H   0  0  0  0  0  0  0  0  0  0  0  0
   -4.0914   15.9235  -10.7178 H   0  0  0  0  0  0  0  0  0  0  0  0
   -1.7243   15.2430  -11.9952 H   0  0  0  0  0  0  0  0  0  0  0  0
   -0.0031   13.9147   -9.0666 H   0  0  0  0  0  0  0  0  0  0  0  0
    0.0973   13.7152  -10.8489 H   0  0  0  0  0  0  0  0  0  0  0  0
    0.1416   15.3586  -10.1252 H   0  0  0  0  0  0  0  0  0  0  0  0
  1  2  1  0  0  0  0
  1  4  1  0  0  0  0
  1 11  2  0  0  0  0
  2  6  1  0  0  0  0
  3  4  2  0  0  0  0
  3  5  1  0  0  0  0
  5  6  2  0  0  0  0
  5  9  1  0  0  0  0
  6  7  1  0  0  0  0
  7  8  1  0  0  0  0
  7 10  2  3  0  0  0
  8  9  2  0  0  0  0
 10 12  1  0  0  0  0
 11 24  1  0  0  0  0
 12 13  2  0  0  0  0
 12 17  1  0  0  0  0
 13 14  1  0  0  0  0
 14 15  2  0  0  0  0
 15 16  1  0  0  0  0
 15 18  1  0  0  0  0
 16 17  2  0  0  0  0
 18 19  1  0  0  0  0
 18 22  2  0  0  0  0
 19 20  1  0  0  0  0
 20 21  1  0  0  0  0
 20 23  1  0  0  0  0
 21 22  1  0  0  0  0
 24 25  1  0  0  0  0
 25 26  1  0  0  0  0
 26 27  1  0  0  0  0
 27 28  2  0  0  0  0
 27 29  1  0  0  0  0
  2 30  1  0  0  0  0
  2 31  1  0  0  0  0
  3 32  1  0  0  0  0
  4 33  1  0  0  0  0
 10 34  1  0  0  0  0
 13 35  1  0  0  0  0
 14 36  1  0  0  0  0
 16 37  1  0  0  0  0
 17 38  1  0  0  0  0
 19 39  1  0  0  0  0
 19 40  1  0  0  0  0
 21 41  1  0  0  0  0
 22 42  1  0  0  0  0
 23 43  1  0  0  0  0
 23 44  1  0  0  0  0
 23 45  1  0  0  0  0
 24 46  1  0  0  0  0
 24 47  1  0  0  0  0
 25 48  1  0  0  0  0
 25 49  1  0  0  0  0
 26 50  1  0  0  0  0
 29 51  1  0  0  0  0
 29 52  1  0  0  0  0
 29 53  1  0  0  0  0
M  END
> <Name>
27

> <IC50[uM]>
0.68

$$$$
27
  -OEChem-05192314333D
 Structure written by MMmdl.
 53 56  0     1  0  0  0  0  0999 V2000
   -6.3855   12.3606  -12.0031 C   0  0  0  0  0  0  0  0  0  0  0  0
   -6.5214   11.8004  -10.7171 C   0  0  0  0  0  0  0  0  0  0  0  0
   -7.6991   10.5797  -13.0384 C   0  0  0  0  0  0  0  0  0  0  0  0
   -6.9626   11.7779  -13.1031 C   0  0  0  0  0  0  0  0  0  0  0  0
   -7.8238   10.0198  -11.7523 C   0  0  3  0  0  0  0  0  0  0  0  0
   -7.2557   10.6213  -10.5956 C   0  0  0  0  0  0  0  0  0  0  0  0
   -7.6268    9.7501   -9.5073 C   0  0  0  0  0  0  0  0  0  0  0  0
   -8.3057    8.7491   -9.9816 N   0  0  0  0  0  0  0  0  0  0  0  0
   -8.4330    8.8776  -11.2917 N   0  0  0  0  0  0  0  0  0  0  0  0
   -7.3352    9.8817   -8.0196 C   0  0  0  0  0  0  0  0  0  0  0  0
   -5.6205   13.5372  -12.2095 N   0  0  0  0  0  0  0  0  0  0  0  0
   -5.9727   10.4835   -7.7324 C   0  0  0  0  0  0  0  0  0  0  0  0
   -5.8611   11.7523   -7.1657 C   0  0  0  0  0  0  0  0  0  0  0  0
   -4.5946   12.2988   -6.9068 C   0  0  0  0  0  0  0  0  0  0  0  0
   -3.4432   11.5806   -7.2147 C   0  0  0  0  0  0  0  0  0  0  0  0
   -3.5570   10.3109   -7.7899 C   0  0  0  0  0  0  0  0  0  0  0  0
   -4.8253    9.7663   -8.0483 C   0  0  0  0  0  0  0  0  0  0  0  0
   -2.0926   12.1556   -6.9444 C   0  0  0  0  0  0  0  0  0  0  0  0
   -1.7338   13.4204   -6.4594 C   0  0  0  0  0  0  0  0  0  0  0  0
   -0.4064   13.4584   -6.4114 N   0  0  3  0  0  0  0  0  0  0  0  0
    0.1793   12.3493   -6.7865 N   0  0  0  0  0  0  0  0  0  0  0  0
   -0.7954   11.5387   -7.1512 C   0  0  0  0  0  0  0  0  0  0  0  0
    0.4205   14.5767   -6.0073 C   0  0  0  0  0  0  0  0  0  0  0  0
   -4.6894   13.8945  -11.1046 C   0  0  0  0  0  0  0  0  0  0  0  0
   -3.7822   15.1171  -11.3990 C   0  0  0  0  0  0  0  0  0  0  0  0
   -2.3310   14.9579  -11.2532 N   0  0  0  0  0  0  0  0  0  0  0  0
   -1.8099   14.4326  -10.1320 C   0  0  0  0  0  0  0  0  0  0  0  0
   -2.5019   14.0442   -9.2076 O   0  0  0  0  0  0  0  0  0  0  0  0
   -0.2869   14.3494  -10.0364 C   0  0  0  0  0  0  0  0  0  0  0  0
   -6.0716   12.2689   -9.8542 H   0  0  0  0  0  0  0  0  0  0  0  0
   -8.1374   10.1224  -13.9131 H   0  0  0  0  0  0  0  0  0  0  0  0
   -6.8466   12.2604  -14.0624 H   0  0  0  0  0  0  0  0  0  0  0  0
   -8.7543   10.5845  -11.5930 H   0  0  0  0  0  0  0  0  0  0  0  0
   -8.0269    9.5780   -7.2478 H   0  0  0  0  0  0  0  0  0  0  0  0
   -6.7507   12.3156   -6.9255 H   0  0  0  0  0  0  0  0  0  0  0  0
   -4.5132   13.2816   -6.4664 H   0  0  0  0  0  0  0  0  0  0  0  0
   -2.6683    9.7485   -8.0357 H   0  0  0  0  0  0  0  0  0  0  0  0
   -4.9092    8.7863   -8.4943 H   0  0  0  0  0  0  0  0  0  0  0  0
   -2.4090   14.2148   -6.1776 H   0  0  0  0  0  0  0  0  0  0  0  0
    0.7951   12.5225   -7.5551 H   0  0  0  0  0  0  0  0  0  0  0  0
   -0.7373   10.6160   -6.5552 H   0  0  0  0  0  0  0  0  0  0  0  0
   -0.6796   11.2945   -8.2175 H   0  0  0  0  0  0  0  0  0  0  0  0
    1.4810   14.2930   -6.0763 H   0  0  0  0  0  0  0  0  0  0  0  0
    0.2266   15.4339   -6.6689 H   0  0  0  0  0  0  0  0  0  0  0  0
    0.1818   14.8530   -4.9697 H   0  0  0  0  0  0  0  0  0  0  0  0
   -5.2882   14.1185  -10.2095 H   0  0  0  0  0  0  0  0  0  0  0  0
   -4.0431   13.0269  -10.9057 H   0  0  0  0  0  0  0  0  0  0  0  0
   -3.9735   15.4217  -12.4385 H   0  0  0  0  0  0  0  0  0  0  0  0
   -4.0914   15.9235  -10.7178 H   0  0  0  0  0  0  0  0  0  0  0  0
   -1.9457   13.7098   -8.5138 H   0  0  0  0  0  0  0  0  0  0  0  0
   -0.0034   13.9020   -9.0723 H   0  0  0  0  0  0  0  0  0  0  0  0
    0.0984   13.7264  -10.8570 H   0  0  0  0  0  0  0  0  0  0  0  0
    0.1408   15.3601  -10.1114 H   0  0  0  0  0  0  0  0  0  0  0  0
  1  2  1  0  0  0  0
  1  4  1  0  0  0  0
  1 11  2  0  0  0  0
  2  6  2  0  0  0  0
  3  4  2  0  0  0  0
  3  5  1  0  0  0  0
  5  6  1  0  0  0  0
  5  9  1  0  0  0  0
  6  7  1  0  0  0  0
  7  8  1  0  0  0  0
  7 10  2  3  0  0  0
  8  9  2  0  0  0  0
 10 12  1  0  0  0  0
 11 24  1  0  0  0  0
 12 13  2  0  0  0  0
 12 17  1  0  0  0  0
 13 14  1  0  0  0  0
 14 15  2  0  0  0  0
 15 16  1  0  0  0  0
 15 18  1  0  0  0  0
 16 17  2  0  0  0  0
 18 19  2  0  0  0  0
 18 22  1  0  0  0  0
 19 20  1  0  0  0  0
 20 21  1  0  0  0  0
 20 23  1  0  0  0  0
 21 22  1  0  0  0  0
 24 25  1  0  0  0  0
 25 26  1  0  0  0  0
 26 27  2  0  0  0  0
 27 28  1  0  0  0  0
 27 29  1  0  0  0  0
  2 30  1  0  0  0  0
  3 31  1  0  0  0  0
  4 32  1  0  0  0  0
  5 33  1  0  0  0  0
 10 34  1  0  0  0  0
 13 35  1  0  0  0  0
 14 36  1  0  0  0  0
 16 37  1  0  0  0  0
 17 38  1  0  0  0  0
 19 39  1  0  0  0  0
 21 40  1  0  0  0  0
 22 41  1  0  0  0  0
 22 42  1  0  0  0  0
 23 43  1  0  0  0  0
 23 44  1  0  0  0  0
 23 45  1  0  0  0  0
 24 46  1  0  0  0  0
 24 47  1  0  0  0  0
 25 48  1  0  0  0  0
 25 49  1  0  0  0  0
 28 50  1  0  0  0  0
 29 51  1  0  0  0  0
 29 52  1  0  0  0  0
 29 53  1  0  0  0  0
M  END
> <Name>
27

> <IC50[uM]>
0.68

$$$$
27
  -OEChem-05192314333D
 Structure written by MMmdl.
 53 56  0     1  0  0  0  0  0999 V2000
   -6.3855   12.3606  -12.0031 C   0  0  0  0  0  0  0  0  0  0  0  0
   -6.5214   11.8004  -10.7171 C   0  0  0  0  0  0  0  0  0  0  0  0
   -7.6991   10.5797  -13.0384 C   0  0  0  0  0  0  0  0  0  0  0  0
   -6.9626   11.7779  -13.1031 C   0  0  0  0  0  0  0  0  0  0  0  0
   -7.8238   10.0198  -11.7523 C   0  0  0  0  0  0  0  0  0  0  0  0
   -7.2557   10.6213  -10.5956 C   0  0  0  0  0  0  0  0  0  0  0  0
   -7.6268    9.7501   -9.5073 C   0  0  0  0  0  0  0  0  0  0  0  0
   -8.3057    8.7491   -9.9816 N   0  0  0  0  0  0  0  0  0  0  0  0
   -8.4330    8.8776  -11.2917 N   0  0  0  0  0  0  0  0  0  0  0  0
   -7.3352    9.8817   -8.0196 C   0  0  0  0  0  0  0  0  0  0  0  0
   -5.6205   13.5372  -12.2095 N   0  0  0  0  0  0  0  0  0  0  0  0
   -5.9727   10.4835   -7.7324 C   0  0  0  0  0  0  0  0  0  0  0  0
   -5.8611   11.7523   -7.1657 C   0  0  0  0  0  0  0  0  0  0  0  0
   -4.5946   12.2988   -6.9068 C   0  0  0  0  0  0  0  0  0  0  0  0
   -3.4432   11.5806   -7.2147 C   0  0  0  0  0  0  0  0  0  0  0  0
   -3.5570   10.3109   -7.7899 C   0  0  0  0  0  0  0  0  0  0  0  0
   -4.8253    9.7663   -8.0483 C   0  0  0  0  0  0  0  0  0  0  0  0
   -2.0926   12.1556   -6.9444 C   0  0  0  0  0  0  0  0  0  0  0  0
   -1.7338   13.4204   -6.4594 C   0  0  0  0  0  0  0  0  0  0  0  0
   -0.4064   13.4584   -6.4114 N   0  0  3  0  0  0  0  0  0  0  0  0
    0.1793   12.3493   -6.7865 N   0  0  0  0  0  0  0  0  0  0  0  0
   -0.7954   11.5387   -7.1512 C   0  0  0  0  0  0  0  0  0  0  0  0
    0.4205   14.5767   -6.0073 C   0  0  0  0  0  0  0  0  0  0  0  0
   -4.6894   13.8945  -11.1046 C   0  0  0  0  0  0  0  0  0  0  0  0
   -3.7822   15.1171  -11.3990 C   0  0  0  0  0  0  0  0  0  0  0  0
   -2.3310   14.9579  -11.2532 N   0  0  0  0  0  0  0  0  0  0  0  0
   -1.8099   14.4326  -10.1320 C   0  0  0  0  0  0  0  0  0  0  0  0
   -2.5019   14.0442   -9.2076 O   0  0  0  0  0  0  0  0  0  0  0  0
   -0.2869   14.3494  -10.0364 C   0  0  0  0  0  0  0  0  0  0  0  0
   -6.0716   12.2689   -9.8542 H   0  0  0  0  0  0  0  0  0  0  0  0
   -8.1374   10.1224  -13.9131 H   0  0  0  0  0  0  0  0  0  0  0  0
   -7.6459   12.5314  -13.5218 H   0  0  0  0  0  0  0  0  0  0  0  0
   -6.1429   11.5918  -13.8126 H   0  0  0  0  0  0  0  0  0  0  0  0
   -8.0269    9.5780   -7.2478 H   0  0  0  0  0  0  0  0  0  0  0  0
   -6.7507   12.3156   -6.9255 H   0  0  0  0  0  0  0  0  0  0  0  0
   -4.5132   13.2816   -6.4664 H   0  0  0  0  0  0  0  0  0  0  0  0
   -2.6683    9.7485   -8.0357 H   0  0  0  0  0  0  0  0  0  0  0  0
   -4.9092    8.7863   -8.4943 H   0  0  0  0  0  0  0  0  0  0  0  0
   -2.4090   14.2148   -6.1776 H   0  0  0  0  0  0  0  0  0  0  0  0
    0.7951   12.5225   -7.5551 H   0  0  0  0  0  0  0  0  0  0  0  0
   -0.7373   10.6160   -6.5552 H   0  0  0  0  0  0  0  0  0  0  0  0
   -0.6796   11.2945   -8.2175 H   0  0  0  0  0  0  0  0  0  0  0  0
    1.4810   14.2930   -6.0763 H   0  0  0  0  0  0  0  0  0  0  0  0
    0.2266   15.4339   -6.6689 H   0  0  0  0  0  0  0  0  0  0  0  0
    0.1818   14.8530   -4.9697 H   0  0  0  0  0  0  0  0  0  0  0  0
   -5.2882   14.1185  -10.2095 H   0  0  0  0  0  0  0  0  0  0  0  0
   -4.0431   13.0269  -10.9057 H   0  0  0  0  0  0  0  0  0  0  0  0
   -3.9735   15.4217  -12.4385 H   0  0  0  0  0  0  0  0  0  0  0  0
   -4.0914   15.9235  -10.7178 H   0  0  0  0  0  0  0  0  0  0  0  0
   -1.9457   13.7098   -8.5138 H   0  0  0  0  0  0  0  0  0  0  0  0
   -0.0034   13.9020   -9.0723 H   0  0  0  0  0  0  0  0  0  0  0  0
    0.0984   13.7264  -10.8570 H   0  0  0  0  0  0  0  0  0  0  0  0
    0.1408   15.3601  -10.1114 H   0  0  0  0  0  0  0  0  0  0  0  0
  1  2  1  0  0  0  0
  1  4  1  0  0  0  0
  1 11  2  0  0  0  0
  2  6  2  0  0  0  0
  3  4  1  0  0  0  0
  3  5  2  0  0  0  0
  5  6  1  0  0  0  0
  5  9  1  0  0  0  0
  6  7  1  0  0  0  0
  7  8  1  0  0  0  0
  7 10  2  3  0  0  0
  8  9  2  0  0  0  0
 10 12  1  0  0  0  0
 11 24  1  0  0  0  0
 12 13  2  0  0  0  0
 12 17  1  0  0  0  0
 13 14  1  0  0  0  0
 14 15  2  0  0  0  0
 15 16  1  0  0  0  0
 15 18  1  0  0  0  0
 16 17  2  0  0  0  0
 18 19  2  0  0  0  0
 18 22  1  0  0  0  0
 19 20  1  0  0  0  0
 20 21  1  0  0  0  0
 20 23  1  0  0  0  0
 21 22  1  0  0  0  0
 24 25  1  0  0  0  0
 25 26  1  0  0  0  0
 26 27  2  0  0  0  0
 27 28  1  0  0  0  0
 27 29  1  0  0  0  0
  2 30  1  0  0  0  0
  3 31  1  0  0  0  0
  4 32  1  0  0  0  0
  4 33  1  0  0  0  0
 10 34  1  0  0  0  0
 13 35  1  0  0  0  0
 14 36  1  0  0  0  0
 16 37  1  0  0  0  0
 17 38  1  0  0  0  0
 19 39  1  0  0  0  0
 21 40  1  0  0  0  0
 22 41  1  0  0  0  0
 22 42  1  0  0  0  0
 23 43  1  0  0  0  0
 23 44  1  0  0  0  0
 23 45  1  0  0  0  0
 24 46  1  0  0  0  0
 24 47  1  0  0  0  0
 25 48  1  0  0  0  0
 25 49  1  0  0  0  0
 28 50  1  0  0  0  0
 29 51  1  0  0  0  0
 29 52  1  0  0  0  0
 29 53  1  0  0  0  0
M  END
> <Name>
27

> <IC50[uM]>
0.68

$$$$
27
  -OEChem-05192314333D
 Structure written by MMmdl.
 53 56  0     1  0  0  0  0  0999 V2000
   -6.3855   12.3606  -12.0031 C   0  0  0  0  0  0  0  0  0  0  0  0
   -6.5214   11.8004  -10.7171 C   0  0  0  0  0  0  0  0  0  0  0  0
   -7.6991   10.5797  -13.0384 C   0  0  0  0  0  0  0  0  0  0  0  0
   -6.9626   11.7779  -13.1031 C   0  0  0  0  0  0  0  0  0  0  0  0
   -7.8238   10.0198  -11.7523 C   0  0  0  0  0  0  0  0  0  0  0  0
   -7.2557   10.6213  -10.5956 C   0  0  0  0  0  0  0  0  0  0  0  0
   -7.6268    9.7501   -9.5073 C   0  0  0  0  0  0  0  0  0  0  0  0
   -8.3057    8.7491   -9.9816 N   0  0  0  0  0  0  0  0  0  0  0  0
   -8.4330    8.8776  -11.2917 N   0  0  0  0  0  0  0  0  0  0  0  0
   -7.3352    9.8817   -8.0196 C   0  0  0  0  0  0  0  0  0  0  0  0
   -5.6205   13.5372  -12.2095 N   0  0  0  0  0  0  0  0  0  0  0  0
   -5.9727   10.4835   -7.7324 C   0  0  0  0  0  0  0  0  0  0  0  0
   -5.8611   11.7523   -7.1657 C   0  0  0  0  0  0  0  0  0  0  0  0
   -4.5946   12.2988   -6.9068 C   0  0  0  0  0  0  0  0  0  0  0  0
   -3.4432   11.5806   -7.2147 C   0  0  0  0  0  0  0  0  0  0  0  0
   -3.5570   10.3109   -7.7899 C   0  0  0  0  0  0  0  0  0  0  0  0
   -4.8253    9.7663   -8.0483 C   0  0  0  0  0  0  0  0  0  0  0  0
   -2.0926   12.1556   -6.9444 C   0  0  0  0  0  0  0  0  0  0  0  0
   -1.7338   13.4204   -6.4594 C   0  0  0  0  0  0  0  0  0  0  0  0
   -0.4064   13.4584   -6.4114 N   0  0  3  0  0  0  0  0  0  0  0  0
    0.1793   12.3493   -6.7865 N   0  0  0  0  0  0  0  0  0  0  0  0
   -0.7954   11.5387   -7.1512 C   0  0  0  0  0  0  0  0  0  0  0  0
    0.4205   14.5767   -6.0073 C   0  0  0  0  0  0  0  0  0  0  0  0
   -4.6894   13.8945  -11.1046 C   0  0  0  0  0  0  0  0  0  0  0  0
   -3.7822   15.1171  -11.3990 C   0  0  0  0  0  0  0  0  0  0  0  0
   -2.3310   14.9579  -11.2532 N   0  0  0  0  0  0  0  0  0  0  0  0
   -1.8099   14.4326  -10.1320 C   0  0  0  0  0  0  0  0  0  0  0  0
   -2.5019   14.0442   -9.2076 O   0  0  0  0  0  0  0  0  0  0  0  0
   -0.2869   14.3494  -10.0364 C   0  0  0  0  0  0  0  0  0  0  0  0
   -5.5086   11.5965  -10.3394 H   0  0  0  0  0  0  0  0  0  0  0  0
   -7.0053   12.5553  -10.0799 H   0  0  0  0  0  0  0  0  0  0  0  0
   -8.1374   10.1224  -13.9131 H   0  0  0  0  0  0  0  0  0  0  0  0
   -6.8466   12.2604  -14.0624 H   0  0  0  0  0  0  0  0  0  0  0  0
   -8.0269    9.5780   -7.2478 H   0  0  0  0  0  0  0  0  0  0  0  0
   -6.7507   12.3156   -6.9255 H   0  0  0  0  0  0  0  0  0  0  0  0
   -4.5132   13.2816   -6.4664 H   0  0  0  0  0  0  0  0  0  0  0  0
   -2.6683    9.7485   -8.0357 H   0  0  0  0  0  0  0  0  0  0  0  0
   -4.9092    8.7863   -8.4943 H   0  0  0  0  0  0  0  0  0  0  0  0
   -2.4090   14.2148   -6.1776 H   0  0  0  0  0  0  0  0  0  0  0  0
    0.7951   12.5225   -7.5551 H   0  0  0  0  0  0  0  0  0  0  0  0
   -0.7373   10.6160   -6.5552 H   0  0  0  0  0  0  0  0  0  0  0  0
   -0.6796   11.2945   -8.2175 H   0  0  0  0  0  0  0  0  0  0  0  0
    1.4810   14.2930   -6.0763 H   0  0  0  0  0  0  0  0  0  0  0  0
    0.2266   15.4339   -6.6689 H   0  0  0  0  0  0  0  0  0  0  0  0
    0.1818   14.8530   -4.9697 H   0  0  0  0  0  0  0  0  0  0  0  0
   -5.2882   14.1185  -10.2095 H   0  0  0  0  0  0  0  0  0  0  0  0
   -4.0431   13.0269  -10.9057 H   0  0  0  0  0  0  0  0  0  0  0  0
   -3.9735   15.4217  -12.4385 H   0  0  0  0  0  0  0  0  0  0  0  0
   -4.0914   15.9235  -10.7178 H   0  0  0  0  0  0  0  0  0  0  0  0
   -1.9457   13.7098   -8.5138 H   0  0  0  0  0  0  0  0  0  0  0  0
   -0.0034   13.9020   -9.0723 H   0  0  0  0  0  0  0  0  0  0  0  0
    0.0984   13.7264  -10.8570 H   0  0  0  0  0  0  0  0  0  0  0  0
    0.1408   15.3601  -10.1114 H   0  0  0  0  0  0  0  0  0  0  0  0
  1  2  1  0  0  0  0
  1  4  1  0  0  0  0
  1 11  2  0  0  0  0
  2  6  1  0  0  0  0
  3  4  2  0  0  0  0
  3  5  1  0  0  0  0
  5  6  2  0  0  0  0
  5  9  1  0  0  0  0
  6  7  1  0  0  0  0
  7  8  1  0  0  0  0
  7 10  2  3  0  0  0
  8  9  2  0  0  0  0
 10 12  1  0  0  0  0
 11 24  1  0  0  0  0
 12 13  2  0  0  0  0
 12 17  1  0  0  0  0
 13 14  1  0  0  0  0
 14 15  2  0  0  0  0
 15 16  1  0  0  0  0
 15 18  1  0  0  0  0
 16 17  2  0  0  0  0
 18 19  2  0  0  0  0
 18 22  1  0  0  0  0
 19 20  1  0  0  0  0
 20 21  1  0  0  0  0
 20 23  1  0  0  0  0
 21 22  1  0  0  0  0
 24 25  1  0  0  0  0
 25 26  1  0  0  0  0
 26 27  2  0  0  0  0
 27 28  1  0  0  0  0
 27 29  1  0  0  0  0
  2 30  1  0  0  0  0
  2 31  1  0  0  0  0
  3 32  1  0  0  0  0
  4 33  1  0  0  0  0
 10 34  1  0  0  0  0
 13 35  1  0  0  0  0
 14 36  1  0  0  0  0
 16 37  1  0  0  0  0
 17 38  1  0  0  0  0
 19 39  1  0  0  0  0
 21 40  1  0  0  0  0
 22 41  1  0  0  0  0
 22 42  1  0  0  0  0
 23 43  1  0  0  0  0
 23 44  1  0  0  0  0
 23 45  1  0  0  0  0
 24 46  1  0  0  0  0
 24 47  1  0  0  0  0
 25 48  1  0  0  0  0
 25 49  1  0  0  0  0
 28 50  1  0  0  0  0
 29 51  1  0  0  0  0
 29 52  1  0  0  0  0
 29 53  1  0  0  0  0
M  END
> <Name>
27

> <IC50[uM]>
0.68

$$$$
27
  -OEChem-05192314333D
 Structure written by MMmdl.
 53 56  0     1  0  0  0  0  0999 V2000
   -6.3855   12.3606  -12.0031 C   0  0  0  0  0  0  0  0  0  0  0  0
   -6.5214   11.8004  -10.7171 C   0  0  0  0  0  0  0  0  0  0  0  0
   -7.6991   10.5797  -13.0384 C   0  0  0  0  0  0  0  0  0  0  0  0
   -6.9626   11.7779  -13.1031 C   0  0  0  0  0  0  0  0  0  0  0  0
   -7.8238   10.0198  -11.7523 C   0  0  0  0  0  0  0  0  0  0  0  0
   -7.2557   10.6213  -10.5956 C   0  0  0  0  0  0  0  0  0  0  0  0
   -7.6268    9.7501   -9.5073 C   0  0  0  0  0  0  0  0  0  0  0  0
   -8.3057    8.7491   -9.9816 N   0  0  0  0  0  0  0  0  0  0  0  0
   -8.4330    8.8776  -11.2917 N   0  0  0  0  0  0  0  0  0  0  0  0
   -7.3352    9.8817   -8.0196 C   0  0  0  0  0  0  0  0  0  0  0  0
   -5.6205   13.5372  -12.2095 N   0  0  0  0  0  0  0  0  0  0  0  0
   -5.9727   10.4835   -7.7324 C   0  0  0  0  0  0  0  0  0  0  0  0
   -5.8611   11.7523   -7.1657 C   0  0  0  0  0  0  0  0  0  0  0  0
   -4.5946   12.2988   -6.9068 C   0  0  0  0  0  0  0  0  0  0  0  0
   -3.4432   11.5806   -7.2147 C   0  0  0  0  0  0  0  0  0  0  0  0
   -3.5570   10.3109   -7.7899 C   0  0  0  0  0  0  0  0  0  0  0  0
   -4.8253    9.7663   -8.0483 C   0  0  0  0  0  0  0  0  0  0  0  0
   -2.0926   12.1556   -6.9444 C   0  0  0  0  0  0  0  0  0  0  0  0
   -1.7338   13.4204   -6.4594 C   0  0  0  0  0  0  0  0  0  0  0  0
   -0.4064   13.4584   -6.4114 N   0  0  3  0  0  0  0  0  0  0  0  0
    0.1793   12.3493   -6.7865 N   0  0  0  0  0  0  0  0  0  0  0  0
   -0.7954   11.5387   -7.1512 C   0  0  0  0  0  0  0  0  0  0  0  0
    0.4205   14.5767   -6.0073 C   0  0  0  0  0  0  0  0  0  0  0  0
   -4.6894   13.8945  -11.1046 C   0  0  0  0  0  0  0  0  0  0  0  0
   -3.7822   15.1171  -11.3990 C   0  0  0  0  0  0  0  0  0  0  0  0
   -2.3310   14.9579  -11.2532 N   0  0  0  0  0  0  0  0  0  0  0  0
   -1.8099   14.4326  -10.1320 C   0  0  0  0  0  0  0  0  0  0  0  0
   -2.5019   14.0442   -9.2076 O   0  0  0  0  0  0  0  0  0  0  0  0
   -0.2869   14.3494  -10.0364 C   0  0  0  0  0  0  0  0  0  0  0  0
   -6.0716   12.2689   -9.8542 H   0  0  0  0  0  0  0  0  0  0  0  0
   -8.1374   10.1224  -13.9131 H   0  0  0  0  0  0  0  0  0  0  0  0
   -6.8466   12.2604  -14.0624 H   0  0  0  0  0  0  0  0  0  0  0  0
   -8.0269    9.5780   -7.2478 H   0  0  0  0  0  0  0  0  0  0  0  0
   -5.0791   13.4115  -13.0408 H   0  0  0  0  0  0  0  0  0  0  0  0
   -5.9820   10.0328   -6.7290 H   0  0  0  0  0  0  0  0  0  0  0  0
   -6.7507   12.3156   -6.9255 H   0  0  0  0  0  0  0  0  0  0  0  0
   -4.5132   13.2816   -6.4664 H   0  0  0  0  0  0  0  0  0  0  0  0
   -2.6683    9.7485   -8.0357 H   0  0  0  0  0  0  0  0  0  0  0  0
   -4.9092    8.7863   -8.4943 H   0  0  0  0  0  0  0  0  0  0  0  0
   -2.1095   14.2037   -7.1341 H   0  0  0  0  0  0  0  0  0  0  0  0
   -2.1522   13.5713   -5.4533 H   0  0  0  0  0  0  0  0  0  0  0  0
   -0.6475   10.5464   -7.5511 H   0  0  0  0  0  0  0  0  0  0  0  0
    1.4812   14.2962   -6.0855 H   0  0  0  0  0  0  0  0  0  0  0  0
    0.2196   15.4369   -6.6628 H   0  0  0  0  0  0  0  0  0  0  0  0
    0.1886   14.8468   -4.9665 H   0  0  0  0  0  0  0  0  0  0  0  0
   -5.2882   14.1185  -10.2095 H   0  0  0  0  0  0  0  0  0  0  0  0
   -4.0431   13.0269  -10.9057 H   0  0  0  0  0  0  0  0  0  0  0  0
   -3.9735   15.4217  -12.4385 H   0  0  0  0  0  0  0  0  0  0  0  0
   -4.0914   15.9235  -10.7178 H   0  0  0  0  0  0  0  0  0  0  0  0
   -1.9457   13.7098   -8.5138 H   0  0  0  0  0  0  0  0  0  0  0  0
   -0.0034   13.9020   -9.0723 H   0  0  0  0  0  0  0  0  0  0  0  0
    0.0984   13.7264  -10.8570 H   0  0  0  0  0  0  0  0  0  0  0  0
    0.1408   15.3601  -10.1114 H   0  0  0  0  0  0  0  0  0  0  0  0
  1  2  2  0  0  0  0
  1  4  1  0  0  0  0
  1 11  1  0  0  0  0
  2  6  1  0  0  0  0
  3  4  2  0  0  0  0
  3  5  1  0  0  0  0
  5  6  2  0  0  0  0
  5  9  1  0  0  0  0
  6  7  1  0  0  0  0
  7  8  1  0  0  0  0
  7 10  2  3  0  0  0
  8  9  2  0  0  0  0
 10 12  1  0  0  0  0
 11 24  1  0  0  0  0
 12 13  1  0  0  0  0
 12 17  1  0  0  0  0
 13 14  2  0  0  0  0
 14 15  1  0  0  0  0
 15 16  1  0  0  0  0
 15 18  2  0  0  0  0
 16 17  2  0  0  0  0
 18 19  1  0  0  0  0
 18 22  1  0  0  0  0
 19 20  1  0  0  0  0
 20 21  1  0  0  0  0
 20 23  1  0  0  0  0
 21 22  2  0  0  0  0
 24 25  1  0  0  0  0
 25 26  1  0  0  0  0
 26 27  2  0  0  0  0
 27 28  1  0  0  0  0
 27 29  1  0  0  0  0
  2 30  1  0  0  0  0
  3 31  1  0  0  0  0
  4 32  1  0  0  0  0
 10 33  1  0  0  0  0
 11 34  1  0  0  0  0
 12 35  1  0  0  0  0
 13 36  1  0  0  0  0
 14 37  1  0  0  0  0
 16 38  1  0  0  0  0
 17 39  1  0  0  0  0
 19 40  1  0  0  0  0
 19 41  1  0  0  0  0
 22 42  1  0  0  0  0
 23 43  1  0  0  0  0
 23 44  1  0  0  0  0
 23 45  1  0  0  0  0
 24 46  1  0  0  0  0
 24 47  1  0  0  0  0
 25 48  1  0  0  0  0
 25 49  1  0  0  0  0
 28 50  1  0  0  0  0
 29 51  1  0  0  0  0
 29 52  1  0  0  0  0
 29 53  1  0  0  0  0
M  END
> <Name>
27

> <IC50[uM]>
0.68

$$$$
27
  -OEChem-05192314333D
 Structure written by MMmdl.
 53 56  0     1  0  0  0  0  0999 V2000
   -6.3855   12.3606  -12.0031 C   0  0  0  0  0  0  0  0  0  0  0  0
   -6.5214   11.8004  -10.7171 C   0  0  0  0  0  0  0  0  0  0  0  0
   -7.6991   10.5797  -13.0384 C   0  0  0  0  0  0  0  0  0  0  0  0
   -6.9626   11.7779  -13.1031 C   0  0  0  0  0  0  0  0  0  0  0  0
   -7.8238   10.0198  -11.7523 C   0  0  3  0  0  0  0  0  0  0  0  0
   -7.2557   10.6213  -10.5956 C   0  0  0  0  0  0  0  0  0  0  0  0
   -7.6268    9.7501   -9.5073 C   0  0  0  0  0  0  0  0  0  0  0  0
   -8.3057    8.7491   -9.9816 N   0  0  0  0  0  0  0  0  0  0  0  0
   -8.4330    8.8776  -11.2917 N   0  0  0  0  0  0  0  0  0  0  0  0
   -7.3352    9.8817   -8.0196 C   0  0  0  0  0  0  0  0  0  0  0  0
   -5.6205   13.5372  -12.2095 N   0  0  0  0  0  0  0  0  0  0  0  0
   -5.9727   10.4835   -7.7324 C   0  0  0  0  0  0  0  0  0  0  0  0
   -5.8611   11.7523   -7.1657 C   0  0  0  0  0  0  0  0  0  0  0  0
   -4.5946   12.2988   -6.9068 C   0  0  0  0  0  0  0  0  0  0  0  0
   -3.4432   11.5806   -7.2147 C   0  0  0  0  0  0  0  0  0  0  0  0
   -3.5570   10.3109   -7.7899 C   0  0  0  0  0  0  0  0  0  0  0  0
   -4.8253    9.7663   -8.0483 C   0  0  0  0  0  0  0  0  0  0  0  0
   -2.0926   12.1556   -6.9444 C   0  0  0  0  0  0  0  0  0  0  0  0
   -1.7338   13.4204   -6.4594 C   0  0  0  0  0  0  0  0  0  0  0  0
   -0.4064   13.4584   -6.4114 N   0  0  3  0  0  0  0  0  0  0  0  0
    0.1793   12.3493   -6.7865 N   0  0  0  0  0  0  0  0  0  0  0  0
   -0.7954   11.5387   -7.1512 C   0  0  0  0  0  0  0  0  0  0  0  0
    0.4205   14.5767   -6.0073 C   0  0  0  0  0  0  0  0  0  0  0  0
   -4.6894   13.8945  -11.1046 C   0  0  0  0  0  0  0  0  0  0  0  0
   -3.7822   15.1171  -11.3990 C   0  0  0  0  0  0  0  0  0  0  0  0
   -2.3310   14.9579  -11.2532 N   0  0  0  0  0  0  0  0  0  0  0  0
   -1.8099   14.4326  -10.1320 C   0  0  0  0  0  0  0  0  0  0  0  0
   -2.5019   14.0442   -9.2076 O   0  0  0  0  0  0  0  0  0  0  0  0
   -0.2869   14.3494  -10.0364 C   0  0  0  0  0  0  0  0  0  0  0  0
   -6.0716   12.2689   -9.8542 H   0  0  0  0  0  0  0  0  0  0  0  0
   -8.1374   10.1224  -13.9131 H   0  0  0  0  0  0  0  0  0  0  0  0
   -6.8466   12.2604  -14.0624 H   0  0  0  0  0  0  0  0  0  0  0  0
   -8.7543   10.5845  -11.5930 H   0  0  0  0  0  0  0  0  0  0  0  0
   -8.0269    9.5780   -7.2478 H   0  0  0  0  0  0  0  0  0  0  0  0
   -6.7507   12.3156   -6.9255 H   0  0  0  0  0  0  0  0  0  0  0  0
   -4.5132   13.2816   -6.4664 H   0  0  0  0  0  0  0  0  0  0  0  0
   -2.6683    9.7485   -8.0357 H   0  0  0  0  0  0  0  0  0  0  0  0
   -4.9092    8.7863   -8.4943 H   0  0  0  0  0  0  0  0  0  0  0  0
   -2.1095   14.2037   -7.1341 H   0  0  0  0  0  0  0  0  0  0  0  0
   -2.1522   13.5713   -5.4533 H   0  0  0  0  0  0  0  0  0  0  0  0
    0.7951   12.5225   -7.5551 H   0  0  0  0  0  0  0  0  0  0  0  0
   -0.6475   10.5464   -7.5511 H   0  0  0  0  0  0  0  0  0  0  0  0
    1.4810   14.2930   -6.0763 H   0  0  0  0  0  0  0  0  0  0  0  0
    0.2266   15.4339   -6.6689 H   0  0  0  0  0  0  0  0  0  0  0  0
    0.1818   14.8530   -4.9697 H   0  0  0  0  0  0  0  0  0  0  0  0
   -5.2882   14.1185  -10.2095 H   0  0  0  0  0  0  0  0  0  0  0  0
   -4.0431   13.0269  -10.9057 H   0  0  0  0  0  0  0  0  0  0  0  0
   -3.9735   15.4217  -12.4385 H   0  0  0  0  0  0  0  0  0  0  0  0
   -4.0914   15.9235  -10.7178 H   0  0  0  0  0  0  0  0  0  0  0  0
   -1.9457   13.7098   -8.5138 H   0  0  0  0  0  0  0  0  0  0  0  0
   -0.0034   13.9020   -9.0723 H   0  0  0  0  0  0  0  0  0  0  0  0
    0.0984   13.7264  -10.8570 H   0  0  0  0  0  0  0  0  0  0  0  0
    0.1408   15.3601  -10.1114 H   0  0  0  0  0  0  0  0  0  0  0  0
  1  2  1  0  0  0  0
  1  4  1  0  0  0  0
  1 11  2  0  0  0  0
  2  6  2  0  0  0  0
  3  4  2  0  0  0  0
  3  5  1  0  0  0  0
  5  6  1  0  0  0  0
  5  9  1  0  0  0  0
  6  7  1  0  0  0  0
  7  8  1  0  0  0  0
  7 10  2  3  0  0  0
  8  9  2  0  0  0  0
 10 12  1  0  0  0  0
 11 24  1  0  0  0  0
 12 13  2  0  0  0  0
 12 17  1  0  0  0  0
 13 14  1  0  0  0  0
 14 15  2  0  0  0  0
 15 16  1  0  0  0  0
 15 18  1  0  0  0  0
 16 17  2  0  0  0  0
 18 19  1  0  0  0  0
 18 22  2  0  0  0  0
 19 20  1  0  0  0  0
 20 21  1  0  0  0  0
 20 23  1  0  0  0  0
 21 22  1  0  0  0  0
 24 25  1  0  0  0  0
 25 26  1  0  0  0  0
 26 27  2  0  0  0  0
 27 28  1  0  0  0  0
 27 29  1  0  0  0  0
  2 30  1  0  0  0  0
  3 31  1  0  0  0  0
  4 32  1  0  0  0  0
  5 33  1  0  0  0  0
 10 34  1  0  0  0  0
 13 35  1  0  0  0  0
 14 36  1  0  0  0  0
 16 37  1  0  0  0  0
 17 38  1  0  0  0  0
 19 39  1  0  0  0  0
 19 40  1  0  0  0  0
 21 41  1  0  0  0  0
 22 42  1  0  0  0  0
 23 43  1  0  0  0  0
 23 44  1  0  0  0  0
 23 45  1  0  0  0  0
 24 46  1  0  0  0  0
 24 47  1  0  0  0  0
 25 48  1  0  0  0  0
 25 49  1  0  0  0  0
 28 50  1  0  0  0  0
 29 51  1  0  0  0  0
 29 52  1  0  0  0  0
 29 53  1  0  0  0  0
M  END
> <Name>
27

> <IC50[uM]>
0.68

$$$$
27
  -OEChem-05192314333D
 Structure written by MMmdl.
 53 56  0     1  0  0  0  0  0999 V2000
   -6.3855   12.3606  -12.0031 C   0  0  0  0  0  0  0  0  0  0  0  0
   -6.5214   11.8004  -10.7171 C   0  0  0  0  0  0  0  0  0  0  0  0
   -7.6991   10.5797  -13.0384 C   0  0  0  0  0  0  0  0  0  0  0  0
   -6.9626   11.7779  -13.1031 C   0  0  0  0  0  0  0  0  0  0  0  0
   -7.8238   10.0198  -11.7523 C   0  0  0  0  0  0  0  0  0  0  0  0
   -7.2557   10.6213  -10.5956 C   0  0  0  0  0  0  0  0  0  0  0  0
   -7.6268    9.7501   -9.5073 C   0  0  0  0  0  0  0  0  0  0  0  0
   -8.3057    8.7491   -9.9816 N   0  0  0  0  0  0  0  0  0  0  0  0
   -8.4330    8.8776  -11.2917 N   0  0  0  0  0  0  0  0  0  0  0  0
   -7.3352    9.8817   -8.0196 C   0  0  0  0  0  0  0  0  0  0  0  0
   -5.6205   13.5372  -12.2095 N   0  0  0  0  0  0  0  0  0  0  0  0
   -5.9727   10.4835   -7.7324 C   0  0  0  0  0  0  0  0  0  0  0  0
   -5.8611   11.7523   -7.1657 C   0  0  0  0  0  0  0  0  0  0  0  0
   -4.5946   12.2988   -6.9068 C   0  0  0  0  0  0  0  0  0  0  0  0
   -3.4432   11.5806   -7.2147 C   0  0  0  0  0  0  0  0  0  0  0  0
   -3.5570   10.3109   -7.7899 C   0  0  0  0  0  0  0  0  0  0  0  0
   -4.8253    9.7663   -8.0483 C   0  0  0  0  0  0  0  0  0  0  0  0
   -2.0926   12.1556   -6.9444 C   0  0  0  0  0  0  0  0  0  0  0  0
   -1.7338   13.4204   -6.4594 C   0  0  0  0  0  0  0  0  0  0  0  0
   -0.4064   13.4584   -6.4114 N   0  0  3  0  0  0  0  0  0  0  0  0
    0.1793   12.3493   -6.7865 N   0  0  0  0  0  0  0  0  0  0  0  0
   -0.7954   11.5387   -7.1512 C   0  0  0  0  0  0  0  0  0  0  0  0
    0.4205   14.5767   -6.0073 C   0  0  0  0  0  0  0  0  0  0  0  0
   -4.6894   13.8945  -11.1046 C   0  0  0  0  0  0  0  0  0  0  0  0
   -3.7822   15.1171  -11.3990 C   0  0  0  0  0  0  0  0  0  0  0  0
   -2.3310   14.9579  -11.2532 N   0  0  0  0  0  0  0  0  0  0  0  0
   -1.8099   14.4326  -10.1320 C   0  0  0  0  0  0  0  0  0  0  0  0
   -2.5019   14.0442   -9.2076 O   0  0  0  0  0  0  0  0  0  0  0  0
   -0.2869   14.3494  -10.0364 C   0  0  0  0  0  0  0  0  0  0  0  0
   -6.0716   12.2689   -9.8542 H   0  0  0  0  0  0  0  0  0  0  0  0
   -8.1374   10.1224  -13.9131 H   0  0  0  0  0  0  0  0  0  0  0  0
   -7.6459   12.5314  -13.5218 H   0  0  0  0  0  0  0  0  0  0  0  0
   -6.1429   11.5918  -13.8126 H   0  0  0  0  0  0  0  0  0  0  0  0
   -8.0269    9.5780   -7.2478 H   0  0  0  0  0  0  0  0  0  0  0  0
   -6.7507   12.3156   -6.9255 H   0  0  0  0  0  0  0  0  0  0  0  0
   -4.5132   13.2816   -6.4664 H   0  0  0  0  0  0  0  0  0  0  0  0
   -2.6683    9.7485   -8.0357 H   0  0  0  0  0  0  0  0  0  0  0  0
   -4.9092    8.7863   -8.4943 H   0  0  0  0  0  0  0  0  0  0  0  0
   -2.1095   14.2037   -7.1341 H   0  0  0  0  0  0  0  0  0  0  0  0
   -2.1522   13.5713   -5.4533 H   0  0  0  0  0  0  0  0  0  0  0  0
    0.7951   12.5225   -7.5551 H   0  0  0  0  0  0  0  0  0  0  0  0
   -0.6475   10.5464   -7.5511 H   0  0  0  0  0  0  0  0  0  0  0  0
    1.4810   14.2930   -6.0763 H   0  0  0  0  0  0  0  0  0  0  0  0
    0.2266   15.4339   -6.6689 H   0  0  0  0  0  0  0  0  0  0  0  0
    0.1818   14.8530   -4.9697 H   0  0  0  0  0  0  0  0  0  0  0  0
   -5.2882   14.1185  -10.2095 H   0  0  0  0  0  0  0  0  0  0  0  0
   -4.0431   13.0269  -10.9057 H   0  0  0  0  0  0  0  0  0  0  0  0
   -3.9735   15.4217  -12.4385 H   0  0  0  0  0  0  0  0  0  0  0  0
   -4.0914   15.9235  -10.7178 H   0  0  0  0  0  0  0  0  0  0  0  0
   -1.9457   13.7098   -8.5138 H   0  0  0  0  0  0  0  0  0  0  0  0
   -0.0034   13.9020   -9.0723 H   0  0  0  0  0  0  0  0  0  0  0  0
    0.0984   13.7264  -10.8570 H   0  0  0  0  0  0  0  0  0  0  0  0
    0.1408   15.3601  -10.1114 H   0  0  0  0  0  0  0  0  0  0  0  0
  1  2  1  0  0  0  0
  1  4  1  0  0  0  0
  1 11  2  0  0  0  0
  2  6  2  0  0  0  0
  3  4  1  0  0  0  0
  3  5  2  0  0  0  0
  5  6  1  0  0  0  0
  5  9  1  0  0  0  0
  6  7  1  0  0  0  0
  7  8  1  0  0  0  0
  7 10  2  3  0  0  0
  8  9  2  0  0  0  0
 10 12  1  0  0  0  0
 11 24  1  0  0  0  0
 12 13  2  0  0  0  0
 12 17  1  0  0  0  0
 13 14  1  0  0  0  0
 14 15  2  0  0  0  0
 15 16  1  0  0  0  0
 15 18  1  0  0  0  0
 16 17  2  0  0  0  0
 18 19  1  0  0  0  0
 18 22  2  0  0  0  0
 19 20  1  0  0  0  0
 20 21  1  0  0  0  0
 20 23  1  0  0  0  0
 21 22  1  0  0  0  0
 24 25  1  0  0  0  0
 25 26  1  0  0  0  0
 26 27  2  0  0  0  0
 27 28  1  0  0  0  0
 27 29  1  0  0  0  0
  2 30  1  0  0  0  0
  3 31  1  0  0  0  0
  4 32  1  0  0  0  0
  4 33  1  0  0  0  0
 10 34  1  0  0  0  0
 13 35  1  0  0  0  0
 14 36  1  0  0  0  0
 16 37  1  0  0  0  0
 17 38  1  0  0  0  0
 19 39  1  0  0  0  0
 19 40  1  0  0  0  0
 21 41  1  0  0  0  0
 22 42  1  0  0  0  0
 23 43  1  0  0  0  0
 23 44  1  0  0  0  0
 23 45  1  0  0  0  0
 24 46  1  0  0  0  0
 24 47  1  0  0  0  0
 25 48  1  0  0  0  0
 25 49  1  0  0  0  0
 28 50  1  0  0  0  0
 29 51  1  0  0  0  0
 29 52  1  0  0  0  0
 29 53  1  0  0  0  0
M  END
> <Name>
27

> <IC50[uM]>
0.68

$$$$
27
  -OEChem-05192314333D
 Structure written by MMmdl.
 53 56  0     1  0  0  0  0  0999 V2000
   -6.3855   12.3606  -12.0031 C   0  0  0  0  0  0  0  0  0  0  0  0
   -6.5214   11.8004  -10.7171 C   0  0  0  0  0  0  0  0  0  0  0  0
   -7.6991   10.5797  -13.0384 C   0  0  0  0  0  0  0  0  0  0  0  0
   -6.9626   11.7779  -13.1031 C   0  0  0  0  0  0  0  0  0  0  0  0
   -7.8238   10.0198  -11.7523 C   0  0  0  0  0  0  0  0  0  0  0  0
   -7.2557   10.6213  -10.5956 C   0  0  0  0  0  0  0  0  0  0  0  0
   -7.6268    9.7501   -9.5073 C   0  0  0  0  0  0  0  0  0  0  0  0
   -8.3057    8.7491   -9.9816 N   0  0  0  0  0  0  0  0  0  0  0  0
   -8.4330    8.8776  -11.2917 N   0  0  0  0  0  0  0  0  0  0  0  0
   -7.3352    9.8817   -8.0196 C   0  0  0  0  0  0  0  0  0  0  0  0
   -5.6205   13.5372  -12.2095 N   0  0  0  0  0  0  0  0  0  0  0  0
   -5.9727   10.4835   -7.7324 C   0  0  0  0  0  0  0  0  0  0  0  0
   -5.8611   11.7523   -7.1657 C   0  0  0  0  0  0  0  0  0  0  0  0
   -4.5946   12.2988   -6.9068 C   0  0  0  0  0  0  0  0  0  0  0  0
   -3.4432   11.5806   -7.2147 C   0  0  0  0  0  0  0  0  0  0  0  0
   -3.5570   10.3109   -7.7899 C   0  0  0  0  0  0  0  0  0  0  0  0
   -4.8253    9.7663   -8.0483 C   0  0  0  0  0  0  0  0  0  0  0  0
   -2.0926   12.1556   -6.9444 C   0  0  0  0  0  0  0  0  0  0  0  0
   -1.7338   13.4204   -6.4594 C   0  0  0  0  0  0  0  0  0  0  0  0
   -0.4064   13.4584   -6.4114 N   0  0  3  0  0  0  0  0  0  0  0  0
    0.1793   12.3493   -6.7865 N   0  0  0  0  0  0  0  0  0  0  0  0
   -0.7954   11.5387   -7.1512 C   0  0  0  0  0  0  0  0  0  0  0  0
    0.4205   14.5767   -6.0073 C   0  0  0  0  0  0  0  0  0  0  0  0
   -4.6894   13.8945  -11.1046 C   0  0  0  0  0  0  0  0  0  0  0  0
   -3.7822   15.1171  -11.3990 C   0  0  0  0  0  0  0  0  0  0  0  0
   -2.3310   14.9579  -11.2532 N   0  0  0  0  0  0  0  0  0  0  0  0
   -1.8099   14.4326  -10.1320 C   0  0  0  0  0  0  0  0  0  0  0  0
   -2.5019   14.0442   -9.2076 O   0  0  0  0  0  0  0  0  0  0  0  0
   -0.2869   14.3494  -10.0364 C   0  0  0  0  0  0  0  0  0  0  0  0
   -6.0716   12.2689   -9.8542 H   0  0  0  0  0  0  0  0  0  0  0  0
   -8.1374   10.1224  -13.9131 H   0  0  0  0  0  0  0  0  0  0  0  0
   -6.8466   12.2604  -14.0624 H   0  0  0  0  0  0  0  0  0  0  0  0
   -8.0269    9.5780   -7.2478 H   0  0  0  0  0  0  0  0  0  0  0  0
   -5.0791   13.4115  -13.0408 H   0  0  0  0  0  0  0  0  0  0  0  0
   -6.7507   12.3156   -6.9255 H   0  0  0  0  0  0  0  0  0  0  0  0
   -4.5373   13.2433   -7.4677 H   0  0  0  0  0  0  0  0  0  0  0  0
   -4.5562   12.5101   -5.8280 H   0  0  0  0  0  0  0  0  0  0  0  0
   -2.6683    9.7485   -8.0357 H   0  0  0  0  0  0  0  0  0  0  0  0
   -4.9092    8.7863   -8.4943 H   0  0  0  0  0  0  0  0  0  0  0  0
   -2.1095   14.2037   -7.1341 H   0  0  0  0  0  0  0  0  0  0  0  0
   -2.1522   13.5713   -5.4533 H   0  0  0  0  0  0  0  0  0  0  0  0
   -0.6475   10.5464   -7.5511 H   0  0  0  0  0  0  0  0  0  0  0  0
    1.4812   14.2962   -6.0855 H   0  0  0  0  0  0  0  0  0  0  0  0
    0.2196   15.4369   -6.6628 H   0  0  0  0  0  0  0  0  0  0  0  0
    0.1886   14.8468   -4.9665 H   0  0  0  0  0  0  0  0  0  0  0  0
   -5.2882   14.1185  -10.2095 H   0  0  0  0  0  0  0  0  0  0  0  0
   -4.0431   13.0269  -10.9057 H   0  0  0  0  0  0  0  0  0  0  0  0
   -3.9735   15.4217  -12.4385 H   0  0  0  0  0  0  0  0  0  0  0  0
   -4.0914   15.9235  -10.7178 H   0  0  0  0  0  0  0  0  0  0  0  0
   -1.9457   13.7098   -8.5138 H   0  0  0  0  0  0  0  0  0  0  0  0
   -0.0034   13.9020   -9.0723 H   0  0  0  0  0  0  0  0  0  0  0  0
    0.0984   13.7264  -10.8570 H   0  0  0  0  0  0  0  0  0  0  0  0
    0.1408   15.3601  -10.1114 H   0  0  0  0  0  0  0  0  0  0  0  0
  1  2  2  0  0  0  0
  1  4  1  0  0  0  0
  1 11  1  0  0  0  0
  2  6  1  0  0  0  0
  3  4  2  0  0  0  0
  3  5  1  0  0  0  0
  5  6  2  0  0  0  0
  5  9  1  0  0  0  0
  6  7  1  0  0  0  0
  7  8  1  0  0  0  0
  7 10  2  3  0  0  0
  8  9  2  0  0  0  0
 10 12  1  0  0  0  0
 11 24  1  0  0  0  0
 12 13  2  0  0  0  0
 12 17  1  0  0  0  0
 13 14  1  0  0  0  0
 14 15  1  0  0  0  0
 15 16  1  0  0  0  0
 15 18  2  0  0  0  0
 16 17  2  0  0  0  0
 18 19  1  0  0  0  0
 18 22  1  0  0  0  0
 19 20  1  0  0  0  0
 20 21  1  0  0  0  0
 20 23  1  0  0  0  0
 21 22  2  0  0  0  0
 24 25  1  0  0  0  0
 25 26  1  0  0  0  0
 26 27  2  0  0  0  0
 27 28  1  0  0  0  0
 27 29  1  0  0  0  0
  2 30  1  0  0  0  0
  3 31  1  0  0  0  0
  4 32  1  0  0  0  0
 10 33  1  0  0  0  0
 11 34  1  0  0  0  0
 13 35  1  0  0  0  0
 14 36  1  0  0  0  0
 14 37  1  0  0  0  0
 16 38  1  0  0  0  0
 17 39  1  0  0  0  0
 19 40  1  0  0  0  0
 19 41  1  0  0  0  0
 22 42  1  0  0  0  0
 23 43  1  0  0  0  0
 23 44  1  0  0  0  0
 23 45  1  0  0  0  0
 24 46  1  0  0  0  0
 24 47  1  0  0  0  0
 25 48  1  0  0  0  0
 25 49  1  0  0  0  0
 28 50  1  0  0  0  0
 29 51  1  0  0  0  0
 29 52  1  0  0  0  0
 29 53  1  0  0  0  0
M  END
> <Name>
27

> <IC50[uM]>
0.68

$$$$
27
  -OEChem-05192314333D
 Structure written by MMmdl.
 53 56  0     1  0  0  0  0  0999 V2000
   -6.3855   12.3606  -12.0031 C   0  0  0  0  0  0  0  0  0  0  0  0
   -6.5214   11.8004  -10.7171 C   0  0  0  0  0  0  0  0  0  0  0  0
   -7.6991   10.5797  -13.0384 C   0  0  0  0  0  0  0  0  0  0  0  0
   -6.9626   11.7779  -13.1031 C   0  0  0  0  0  0  0  0  0  0  0  0
   -7.8238   10.0198  -11.7523 C   0  0  0  0  0  0  0  0  0  0  0  0
   -7.2557   10.6213  -10.5956 C   0  0  0  0  0  0  0  0  0  0  0  0
   -7.6268    9.7501   -9.5073 C   0  0  0  0  0  0  0  0  0  0  0  0
   -8.3057    8.7491   -9.9816 N   0  0  0  0  0  0  0  0  0  0  0  0
   -8.4330    8.8776  -11.2917 N   0  0  0  0  0  0  0  0  0  0  0  0
   -7.3352    9.8817   -8.0196 C   0  0  0  0  0  0  0  0  0  0  0  0
   -5.6205   13.5372  -12.2095 N   0  0  0  0  0  0  0  0  0  0  0  0
   -5.9727   10.4835   -7.7324 C   0  0  0  0  0  0  0  0  0  0  0  0
   -5.8611   11.7523   -7.1657 C   0  0  0  0  0  0  0  0  0  0  0  0
   -4.5946   12.2988   -6.9068 C   0  0  0  0  0  0  0  0  0  0  0  0
   -3.4432   11.5806   -7.2147 C   0  0  0  0  0  0  0  0  0  0  0  0
   -3.5570   10.3109   -7.7899 C   0  0  0  0  0  0  0  0  0  0  0  0
   -4.8253    9.7663   -8.0483 C   0  0  0  0  0  0  0  0  0  0  0  0
   -2.0926   12.1556   -6.9444 C   0  0  0  0  0  0  0  0  0  0  0  0
   -1.7338   13.4204   -6.4594 C   0  0  0  0  0  0  0  0  0  0  0  0
   -0.4064   13.4584   -6.4114 N   0  0  3  0  0  0  0  0  0  0  0  0
    0.1793   12.3493   -6.7865 N   0  0  0  0  0  0  0  0  0  0  0  0
   -0.7954   11.5387   -7.1512 C   0  0  0  0  0  0  0  0  0  0  0  0
    0.4205   14.5767   -6.0073 C   0  0  0  0  0  0  0  0  0  0  0  0
   -4.6894   13.8945  -11.1046 C   0  0  0  0  0  0  0  0  0  0  0  0
   -3.7822   15.1171  -11.3990 C   0  0  0  0  0  0  0  0  0  0  0  0
   -2.3310   14.9579  -11.2532 N   0  0  0  0  0  0  0  0  0  0  0  0
   -1.8099   14.4326  -10.1320 C   0  0  0  0  0  0  0  0  0  0  0  0
   -2.5019   14.0442   -9.2076 O   0  0  0  0  0  0  0  0  0  0  0  0
   -0.2869   14.3494  -10.0364 C   0  0  0  0  0  0  0  0  0  0  0  0
   -5.5086   11.5965  -10.3394 H   0  0  0  0  0  0  0  0  0  0  0  0
   -7.0053   12.5553  -10.0799 H   0  0  0  0  0  0  0  0  0  0  0  0
   -8.1374   10.1224  -13.9131 H   0  0  0  0  0  0  0  0  0  0  0  0
   -6.8466   12.2604  -14.0624 H   0  0  0  0  0  0  0  0  0  0  0  0
   -8.0269    9.5780   -7.2478 H   0  0  0  0  0  0  0  0  0  0  0  0
   -6.7507   12.3156   -6.9255 H   0  0  0  0  0  0  0  0  0  0  0  0
   -4.5132   13.2816   -6.4664 H   0  0  0  0  0  0  0  0  0  0  0  0
   -2.6683    9.7485   -8.0357 H   0  0  0  0  0  0  0  0  0  0  0  0
   -4.9092    8.7863   -8.4943 H   0  0  0  0  0  0  0  0  0  0  0  0
   -2.1095   14.2037   -7.1341 H   0  0  0  0  0  0  0  0  0  0  0  0
   -2.1522   13.5713   -5.4533 H   0  0  0  0  0  0  0  0  0  0  0  0
    0.7951   12.5225   -7.5551 H   0  0  0  0  0  0  0  0  0  0  0  0
   -0.6475   10.5464   -7.5511 H   0  0  0  0  0  0  0  0  0  0  0  0
    1.4810   14.2930   -6.0763 H   0  0  0  0  0  0  0  0  0  0  0  0
    0.2266   15.4339   -6.6689 H   0  0  0  0  0  0  0  0  0  0  0  0
    0.1818   14.8530   -4.9697 H   0  0  0  0  0  0  0  0  0  0  0  0
   -5.2882   14.1185  -10.2095 H   0  0  0  0  0  0  0  0  0  0  0  0
   -4.0431   13.0269  -10.9057 H   0  0  0  0  0  0  0  0  0  0  0  0
   -3.9735   15.4217  -12.4385 H   0  0  0  0  0  0  0  0  0  0  0  0
   -4.0914   15.9235  -10.7178 H   0  0  0  0  0  0  0  0  0  0  0  0
   -1.9457   13.7098   -8.5138 H   0  0  0  0  0  0  0  0  0  0  0  0
   -0.0034   13.9020   -9.0723 H   0  0  0  0  0  0  0  0  0  0  0  0
    0.0984   13.7264  -10.8570 H   0  0  0  0  0  0  0  0  0  0  0  0
    0.1408   15.3601  -10.1114 H   0  0  0  0  0  0  0  0  0  0  0  0
  1  2  1  0  0  0  0
  1  4  1  0  0  0  0
  1 11  2  0  0  0  0
  2  6  1  0  0  0  0
  3  4  2  0  0  0  0
  3  5  1  0  0  0  0
  5  6  2  0  0  0  0
  5  9  1  0  0  0  0
  6  7  1  0  0  0  0
  7  8  1  0  0  0  0
  7 10  2  3  0  0  0
  8  9  2  0  0  0  0
 10 12  1  0  0  0  0
 11 24  1  0  0  0  0
 12 13  2  0  0  0  0
 12 17  1  0  0  0  0
 13 14  1  0  0  0  0
 14 15  2  0  0  0  0
 15 16  1  0  0  0  0
 15 18  1  0  0  0  0
 16 17  2  0  0  0  0
 18 19  1  0  0  0  0
 18 22  2  0  0  0  0
 19 20  1  0  0  0  0
 20 21  1  0  0  0  0
 20 23  1  0  0  0  0
 21 22  1  0  0  0  0
 24 25  1  0  0  0  0
 25 26  1  0  0  0  0
 26 27  2  0  0  0  0
 27 28  1  0  0  0  0
 27 29  1  0  0  0  0
  2 30  1  0  0  0  0
  2 31  1  0  0  0  0
  3 32  1  0  0  0  0
  4 33  1  0  0  0  0
 10 34  1  0  0  0  0
 13 35  1  0  0  0  0
 14 36  1  0  0  0  0
 16 37  1  0  0  0  0
 17 38  1  0  0  0  0
 19 39  1  0  0  0  0
 19 40  1  0  0  0  0
 21 41  1  0  0  0  0
 22 42  1  0  0  0  0
 23 43  1  0  0  0  0
 23 44  1  0  0  0  0
 23 45  1  0  0  0  0
 24 46  1  0  0  0  0
 24 47  1  0  0  0  0
 25 48  1  0  0  0  0
 25 49  1  0  0  0  0
 28 50  1  0  0  0  0
 29 51  1  0  0  0  0
 29 52  1  0  0  0  0
 29 53  1  0  0  0  0
M  END
> <Name>
27

> <IC50[uM]>
0.68

$$$$
27
  -OEChem-05192314333D
 Structure written by MMmdl.
 53 56  0     1  0  0  0  0  0999 V2000
   -6.3855   12.3606  -12.0031 C   0  0  0  0  0  0  0  0  0  0  0  0
   -6.5214   11.8004  -10.7171 C   0  0  0  0  0  0  0  0  0  0  0  0
   -7.6991   10.5797  -13.0384 C   0  0  0  0  0  0  0  0  0  0  0  0
   -6.9626   11.7779  -13.1031 C   0  0  0  0  0  0  0  0  0  0  0  0
   -7.8238   10.0198  -11.7523 C   0  0  0  0  0  0  0  0  0  0  0  0
   -7.2557   10.6213  -10.5956 C   0  0  0  0  0  0  0  0  0  0  0  0
   -7.6268    9.7501   -9.5073 C   0  0  0  0  0  0  0  0  0  0  0  0
   -8.3057    8.7491   -9.9816 N   0  0  0  0  0  0  0  0  0  0  0  0
   -8.4330    8.8776  -11.2917 N   0  0  0  0  0  0  0  0  0  0  0  0
   -7.3352    9.8817   -8.0196 C   0  0  0  0  0  0  0  0  0  0  0  0
   -5.6205   13.5372  -12.2095 N   0  0  0  0  0  0  0  0  0  0  0  0
   -5.9727   10.4835   -7.7324 C   0  0  0  0  0  0  0  0  0  0  0  0
   -5.8611   11.7523   -7.1657 C   0  0  0  0  0  0  0  0  0  0  0  0
   -4.5946   12.2988   -6.9068 C   0  0  0  0  0  0  0  0  0  0  0  0
   -3.4432   11.5806   -7.2147 C   0  0  0  0  0  0  0  0  0  0  0  0
   -3.5570   10.3109   -7.7899 C   0  0  0  0  0  0  0  0  0  0  0  0
   -4.8253    9.7663   -8.0483 C   0  0  0  0  0  0  0  0  0  0  0  0
   -2.0926   12.1556   -6.9444 C   0  0  0  0  0  0  0  0  0  0  0  0
   -1.7338   13.4204   -6.4594 C   0  0  0  0  0  0  0  0  0  0  0  0
   -0.4064   13.4584   -6.4114 N   0  0  3  0  0  0  0  0  0  0  0  0
    0.1793   12.3493   -6.7865 N   0  0  0  0  0  0  0  0  0  0  0  0
   -0.7954   11.5387   -7.1512 C   0  0  0  0  0  0  0  0  0  0  0  0
    0.4205   14.5767   -6.0073 C   0  0  0  0  0  0  0  0  0  0  0  0
   -4.6894   13.8945  -11.1046 C   0  0  0  0  0  0  0  0  0  0  0  0
   -3.7822   15.1171  -11.3990 C   0  0  0  0  0  0  0  0  0  0  0  0
   -2.3310   14.9579  -11.2532 N   0  0  0  0  0  0  0  0  0  0  0  0
   -1.8099   14.4326  -10.1320 C   0  0  0  0  0  0  0  0  0  0  0  0
   -2.5019   14.0442   -9.2076 O   0  0  0  0  0  0  0  0  0  0  0  0
   -0.2869   14.3494  -10.0364 C   0  0  0  0  0  0  0  0  0  0  0  0
   -6.0716   12.2689   -9.8542 H   0  0  0  0  0  0  0  0  0  0  0  0
   -8.7105   10.7812  -13.4211 H   0  0  0  0  0  0  0  0  0  0  0  0
   -7.2031    9.8404  -13.6845 H   0  0  0  0  0  0  0  0  0  0  0  0
   -7.6459   12.5314  -13.5218 H   0  0  0  0  0  0  0  0  0  0  0  0
   -6.1429   11.5918  -13.8126 H   0  0  0  0  0  0  0  0  0  0  0  0
   -8.0269    9.5780   -7.2478 H   0  0  0  0  0  0  0  0  0  0  0  0
   -6.7507   12.3156   -6.9255 H   0  0  0  0  0  0  0  0  0  0  0  0
   -4.5132   13.2816   -6.4664 H   0  0  0  0  0  0  0  0  0  0  0  0
   -2.6683    9.7485   -8.0357 H   0  0  0  0  0  0  0  0  0  0  0  0
   -4.9092    8.7863   -8.4943 H   0  0  0  0  0  0  0  0  0  0  0  0
   -2.1095   14.2037   -7.1341 H   0  0  0  0  0  0  0  0  0  0  0  0
   -2.1522   13.5713   -5.4533 H   0  0  0  0  0  0  0  0  0  0  0  0
   -0.6475   10.5464   -7.5511 H   0  0  0  0  0  0  0  0  0  0  0  0
    1.4812   14.2962   -6.0855 H   0  0  0  0  0  0  0  0  0  0  0  0
    0.2196   15.4369   -6.6628 H   0  0  0  0  0  0  0  0  0  0  0  0
    0.1886   14.8468   -4.9665 H   0  0  0  0  0  0  0  0  0  0  0  0
   -5.2882   14.1185  -10.2095 H   0  0  0  0  0  0  0  0  0  0  0  0
   -4.0431   13.0269  -10.9057 H   0  0  0  0  0  0  0  0  0  0  0  0
   -3.9735   15.4217  -12.4385 H   0  0  0  0  0  0  0  0  0  0  0  0
   -4.0914   15.9235  -10.7178 H   0  0  0  0  0  0  0  0  0  0  0  0
   -1.7243   15.2430  -11.9952 H   0  0  0  0  0  0  0  0  0  0  0  0
   -0.0031   13.9147   -9.0666 H   0  0  0  0  0  0  0  0  0  0  0  0
    0.0973   13.7152  -10.8489 H   0  0  0  0  0  0  0  0  0  0  0  0
    0.1416   15.3586  -10.1252 H   0  0  0  0  0  0  0  0  0  0  0  0
  1  2  1  0  0  0  0
  1  4  1  0  0  0  0
  1 11  2  0  0  0  0
  2  6  2  0  0  0  0
  3  4  1  0  0  0  0
  3  5  1  0  0  0  0
  5  6  1  0  0  0  0
  5  9  2  0  0  0  0
  6  7  1  0  0  0  0
  7  8  2  0  0  0  0
  7 10  1  0  0  0  0
  8  9  1  0  0  0  0
 10 12  2  0  0  0  0
 11 24  1  0  0  0  0
 12 13  1  0  0  0  0
 12 17  1  0  0  0  0
 13 14  2  0  0  0  0
 14 15  1  0  0  0  0
 15 16  1  0  0  0  0
 15 18  2  0  0  0  0
 16 17  2  0  0  0  0
 18 19  1  0  0  0  0
 18 22  1  0  0  0  0
 19 20  1  0  0  0  0
 20 21  1  0  0  0  0
 20 23  1  0  0  0  0
 21 22  2  0  0  0  0
 24 25  1  0  0  0  0
 25 26  1  0  0  0  0
 26 27  1  0  0  0  0
 27 28  2  0  0  0  0
 27 29  1  0  0  0  0
  2 30  1  0  0  0  0
  3 31  1  0  0  0  0
  3 32  1  0  0  0  0
  4 33  1  0  0  0  0
  4 34  1  0  0  0  0
 10 35  1  0  0  0  0
 13 36  1  0  0  0  0
 14 37  1  0  0  0  0
 16 38  1  0  0  0  0
 17 39  1  0  0  0  0
 19 40  1  0  0  0  0
 19 41  1  0  0  0  0
 22 42  1  0  0  0  0
 23 43  1  0  0  0  0
 23 44  1  0  0  0  0
 23 45  1  0  0  0  0
 24 46  1  0  0  0  0
 24 47  1  0  0  0  0
 25 48  1  0  0  0  0
 25 49  1  0  0  0  0
 26 50  1  0  0  0  0
 29 51  1  0  0  0  0
 29 52  1  0  0  0  0
 29 53  1  0  0  0  0
M  END
> <Name>
27

> <IC50[uM]>
0.68

$$$$
27
  -OEChem-05192314333D
 Structure written by MMmdl.
 53 56  0     1  0  0  0  0  0999 V2000
   -6.3855   12.3606  -12.0031 C   0  0  0  0  0  0  0  0  0  0  0  0
   -6.5214   11.8004  -10.7171 C   0  0  0  0  0  0  0  0  0  0  0  0
   -7.6991   10.5797  -13.0384 C   0  0  0  0  0  0  0  0  0  0  0  0
   -6.9626   11.7779  -13.1031 C   0  0  0  0  0  0  0  0  0  0  0  0
   -7.8238   10.0198  -11.7523 C   0  0  0  0  0  0  0  0  0  0  0  0
   -7.2557   10.6213  -10.5956 C   0  0  3  0  0  0  0  0  0  0  0  0
   -7.6268    9.7501   -9.5073 C   0  0  0  0  0  0  0  0  0  0  0  0
   -8.3057    8.7491   -9.9816 N   0  0  0  0  0  0  0  0  0  0  0  0
   -8.4330    8.8776  -11.2917 N   0  0  0  0  0  0  0  0  0  0  0  0
   -7.3352    9.8817   -8.0196 C   0  0  0  0  0  0  0  0  0  0  0  0
   -5.6205   13.5372  -12.2095 N   0  0  0  0  0  0  0  0  0  0  0  0
   -5.9727   10.4835   -7.7324 C   0  0  0  0  0  0  0  0  0  0  0  0
   -5.8611   11.7523   -7.1657 C   0  0  0  0  0  0  0  0  0  0  0  0
   -4.5946   12.2988   -6.9068 C   0  0  0  0  0  0  0  0  0  0  0  0
   -3.4432   11.5806   -7.2147 C   0  0  0  0  0  0  0  0  0  0  0  0
   -3.5570   10.3109   -7.7899 C   0  0  0  0  0  0  0  0  0  0  0  0
   -4.8253    9.7663   -8.0483 C   0  0  0  0  0  0  0  0  0  0  0  0
   -2.0926   12.1556   -6.9444 C   0  0  0  0  0  0  0  0  0  0  0  0
   -1.7338   13.4204   -6.4594 C   0  0  0  0  0  0  0  0  0  0  0  0
   -0.4064   13.4584   -6.4114 N   0  0  3  0  0  0  0  0  0  0  0  0
    0.1793   12.3493   -6.7865 N   0  0  0  0  0  0  0  0  0  0  0  0
   -0.7954   11.5387   -7.1512 C   0  0  0  0  0  0  0  0  0  0  0  0
    0.4205   14.5767   -6.0073 C   0  0  0  0  0  0  0  0  0  0  0  0
   -4.6894   13.8945  -11.1046 C   0  0  0  0  0  0  0  0  0  0  0  0
   -3.7822   15.1171  -11.3990 C   0  0  0  0  0  0  0  0  0  0  0  0
   -2.3310   14.9579  -11.2532 N   0  0  0  0  0  0  0  0  0  0  0  0
   -1.8099   14.4326  -10.1320 C   0  0  0  0  0  0  0  0  0  0  0  0
   -2.5019   14.0442   -9.2076 O   0  0  0  0  0  0  0  0  0  0  0  0
   -0.2869   14.3494  -10.0364 C   0  0  0  0  0  0  0  0  0  0  0  0
   -5.5086   11.5965  -10.3394 H   0  0  0  0  0  0  0  0  0  0  0  0
   -7.0053   12.5553  -10.0799 H   0  0  0  0  0  0  0  0  0  0  0  0
   -8.1374   10.1224  -13.9131 H   0  0  0  0  0  0  0  0  0  0  0  0
   -6.8466   12.2604  -14.0624 H   0  0  0  0  0  0  0  0  0  0  0  0
   -8.1751   11.2060  -10.4447 H   0  0  0  0  0  0  0  0  0  0  0  0
   -8.0269    9.5780   -7.2478 H   0  0  0  0  0  0  0  0  0  0  0  0
   -6.7507   12.3156   -6.9255 H   0  0  0  0  0  0  0  0  0  0  0  0
   -4.5132   13.2816   -6.4664 H   0  0  0  0  0  0  0  0  0  0  0  0
   -2.6683    9.7485   -8.0357 H   0  0  0  0  0  0  0  0  0  0  0  0
   -4.9092    8.7863   -8.4943 H   0  0  0  0  0  0  0  0  0  0  0  0
   -2.1095   14.2037   -7.1341 H   0  0  0  0  0  0  0  0  0  0  0  0
   -2.1522   13.5713   -5.4533 H   0  0  0  0  0  0  0  0  0  0  0  0
   -0.6475   10.5464   -7.5511 H   0  0  0  0  0  0  0  0  0  0  0  0
    1.4812   14.2962   -6.0855 H   0  0  0  0  0  0  0  0  0  0  0  0
    0.2196   15.4369   -6.6628 H   0  0  0  0  0  0  0  0  0  0  0  0
    0.1886   14.8468   -4.9665 H   0  0  0  0  0  0  0  0  0  0  0  0
   -5.2882   14.1185  -10.2095 H   0  0  0  0  0  0  0  0  0  0  0  0
   -4.0431   13.0269  -10.9057 H   0  0  0  0  0  0  0  0  0  0  0  0
   -3.9735   15.4217  -12.4385 H   0  0  0  0  0  0  0  0  0  0  0  0
   -4.0914   15.9235  -10.7178 H   0  0  0  0  0  0  0  0  0  0  0  0
   -1.7243   15.2430  -11.9952 H   0  0  0  0  0  0  0  0  0  0  0  0
   -0.0031   13.9147   -9.0666 H   0  0  0  0  0  0  0  0  0  0  0  0
    0.0973   13.7152  -10.8489 H   0  0  0  0  0  0  0  0  0  0  0  0
    0.1416   15.3586  -10.1252 H   0  0  0  0  0  0  0  0  0  0  0  0
  1  2  1  0  0  0  0
  1  4  1  0  0  0  0
  1 11  2  0  0  0  0
  2  6  1  0  0  0  0
  3  4  2  0  0  0  0
  3  5  1  0  0  0  0
  5  6  1  0  0  0  0
  5  9  2  0  0  0  0
  6  7  1  0  0  0  0
  7  8  2  0  0  0  0
  7 10  1  0  0  0  0
  8  9  1  0  0  0  0
 10 12  2  0  0  0  0
 11 24  1  0  0  0  0
 12 13  1  0  0  0  0
 12 17  1  0  0  0  0
 13 14  2  0  0  0  0
 14 15  1  0  0  0  0
 15 16  1  0  0  0  0
 15 18  2  0  0  0  0
 16 17  2  0  0  0  0
 18 19  1  0  0  0  0
 18 22  1  0  0  0  0
 19 20  1  0  0  0  0
 20 21  1  0  0  0  0
 20 23  1  0  0  0  0
 21 22  2  0  0  0  0
 24 25  1  0  0  0  0
 25 26  1  0  0  0  0
 26 27  1  0  0  0  0
 27 28  2  0  0  0  0
 27 29  1  0  0  0  0
  2 30  1  0  0  0  0
  2 31  1  0  0  0  0
  3 32  1  0  0  0  0
  4 33  1  0  0  0  0
  6 34  1  0  0  0  0
 10 35  1  0  0  0  0
 13 36  1  0  0  0  0
 14 37  1  0  0  0  0
 16 38  1  0  0  0  0
 17 39  1  0  0  0  0
 19 40  1  0  0  0  0
 19 41  1  0  0  0  0
 22 42  1  0  0  0  0
 23 43  1  0  0  0  0
 23 44  1  0  0  0  0
 23 45  1  0  0  0  0
 24 46  1  0  0  0  0
 24 47  1  0  0  0  0
 25 48  1  0  0  0  0
 25 49  1  0  0  0  0
 26 50  1  0  0  0  0
 29 51  1  0  0  0  0
 29 52  1  0  0  0  0
 29 53  1  0  0  0  0
M  END
> <Name>
27

> <IC50[uM]>
0.68

$$$$
27
  -OEChem-05192314333D
 Structure written by MMmdl.
 53 56  0     1  0  0  0  0  0999 V2000
   -6.3855   12.3606  -12.0031 C   0  0  0  0  0  0  0  0  0  0  0  0
   -6.5214   11.8004  -10.7171 C   0  0  0  0  0  0  0  0  0  0  0  0
   -7.6991   10.5797  -13.0384 C   0  0  0  0  0  0  0  0  0  0  0  0
   -6.9626   11.7779  -13.1031 C   0  0  0  0  0  0  0  0  0  0  0  0
   -7.8238   10.0198  -11.7523 C   0  0  0  0  0  0  0  0  0  0  0  0
   -7.2557   10.6213  -10.5956 C   0  0  0  0  0  0  0  0  0  0  0  0
   -7.6268    9.7501   -9.5073 C   0  0  0  0  0  0  0  0  0  0  0  0
   -8.3057    8.7491   -9.9816 N   0  0  0  0  0  0  0  0  0  0  0  0
   -8.4330    8.8776  -11.2917 N   0  0  0  0  0  0  0  0  0  0  0  0
   -7.3352    9.8817   -8.0196 C   0  0  0  0  0  0  0  0  0  0  0  0
   -5.6205   13.5372  -12.2095 N   0  0  0  0  0  0  0  0  0  0  0  0
   -5.9727   10.4835   -7.7324 C   0  0  0  0  0  0  0  0  0  0  0  0
   -5.8611   11.7523   -7.1657 C   0  0  0  0  0  0  0  0  0  0  0  0
   -4.5946   12.2988   -6.9068 C   0  0  0  0  0  0  0  0  0  0  0  0
   -3.4432   11.5806   -7.2147 C   0  0  0  0  0  0  0  0  0  0  0  0
   -3.5570   10.3109   -7.7899 C   0  0  0  0  0  0  0  0  0  0  0  0
   -4.8253    9.7663   -8.0483 C   0  0  0  0  0  0  0  0  0  0  0  0
   -2.0926   12.1556   -6.9444 C   0  0  0  0  0  0  0  0  0  0  0  0
   -1.7338   13.4204   -6.4594 C   0  0  0  0  0  0  0  0  0  0  0  0
   -0.4064   13.4584   -6.4114 N   0  0  3  0  0  0  0  0  0  0  0  0
    0.1793   12.3493   -6.7865 N   0  0  0  0  0  0  0  0  0  0  0  0
   -0.7954   11.5387   -7.1512 C   0  0  0  0  0  0  0  0  0  0  0  0
    0.4205   14.5767   -6.0073 C   0  0  0  0  0  0  0  0  0  0  0  0
   -4.6894   13.8945  -11.1046 C   0  0  0  0  0  0  0  0  0  0  0  0
   -3.7822   15.1171  -11.3990 C   0  0  0  0  0  0  0  0  0  0  0  0
   -2.3310   14.9579  -11.2532 N   0  0  0  0  0  0  0  0  0  0  0  0
   -1.8099   14.4326  -10.1320 C   0  0  0  0  0  0  0  0  0  0  0  0
   -2.5019   14.0442   -9.2076 O   0  0  0  0  0  0  0  0  0  0  0  0
   -0.2869   14.3494  -10.0364 C   0  0  0  0  0  0  0  0  0  0  0  0
   -6.0716   12.2689   -9.8542 H   0  0  0  0  0  0  0  0  0  0  0  0
   -8.7105   10.7812  -13.4211 H   0  0  0  0  0  0  0  0  0  0  0  0
   -7.2031    9.8404  -13.6845 H   0  0  0  0  0  0  0  0  0  0  0  0
   -7.6459   12.5314  -13.5218 H   0  0  0  0  0  0  0  0  0  0  0  0
   -6.1429   11.5918  -13.8126 H   0  0  0  0  0  0  0  0  0  0  0  0
   -8.0269    9.5780   -7.2478 H   0  0  0  0  0  0  0  0  0  0  0  0
   -6.7507   12.3156   -6.9255 H   0  0  0  0  0  0  0  0  0  0  0  0
   -4.5132   13.2816   -6.4664 H   0  0  0  0  0  0  0  0  0  0  0  0
   -2.6683    9.7485   -8.0357 H   0  0  0  0  0  0  0  0  0  0  0  0
   -4.9092    8.7863   -8.4943 H   0  0  0  0  0  0  0  0  0  0  0  0
   -2.1095   14.2037   -7.1341 H   0  0  0  0  0  0  0  0  0  0  0  0
   -2.1522   13.5713   -5.4533 H   0  0  0  0  0  0  0  0  0  0  0  0
   -0.6475   10.5464   -7.5511 H   0  0  0  0  0  0  0  0  0  0  0  0
    1.4812   14.2962   -6.0855 H   0  0  0  0  0  0  0  0  0  0  0  0
    0.2196   15.4369   -6.6628 H   0  0  0  0  0  0  0  0  0  0  0  0
    0.1886   14.8468   -4.9665 H   0  0  0  0  0  0  0  0  0  0  0  0
   -5.2882   14.1185  -10.2095 H   0  0  0  0  0  0  0  0  0  0  0  0
   -4.0431   13.0269  -10.9057 H   0  0  0  0  0  0  0  0  0  0  0  0
   -3.9735   15.4217  -12.4385 H   0  0  0  0  0  0  0  0  0  0  0  0
   -4.0914   15.9235  -10.7178 H   0  0  0  0  0  0  0  0  0  0  0  0
   -1.9457   13.7098   -8.5138 H   0  0  0  0  0  0  0  0  0  0  0  0
   -0.0034   13.9020   -9.0723 H   0  0  0  0  0  0  0  0  0  0  0  0
    0.0984   13.7264  -10.8570 H   0  0  0  0  0  0  0  0  0  0  0  0
    0.1408   15.3601  -10.1114 H   0  0  0  0  0  0  0  0  0  0  0  0
  1  2  1  0  0  0  0
  1  4  1  0  0  0  0
  1 11  2  0  0  0  0
  2  6  2  0  0  0  0
  3  4  1  0  0  0  0
  3  5  1  0  0  0  0
  5  6  1  0  0  0  0
  5  9  2  0  0  0  0
  6  7  1  0  0  0  0
  7  8  2  0  0  0  0
  7 10  1  0  0  0  0
  8  9  1  0  0  0  0
 10 12  2  0  0  0  0
 11 24  1  0  0  0  0
 12 13  1  0  0  0  0
 12 17  1  0  0  0  0
 13 14  2  0  0  0  0
 14 15  1  0  0  0  0
 15 16  1  0  0  0  0
 15 18  2  0  0  0  0
 16 17  2  0  0  0  0
 18 19  1  0  0  0  0
 18 22  1  0  0  0  0
 19 20  1  0  0  0  0
 20 21  1  0  0  0  0
 20 23  1  0  0  0  0
 21 22  2  0  0  0  0
 24 25  1  0  0  0  0
 25 26  1  0  0  0  0
 26 27  2  0  0  0  0
 27 28  1  0  0  0  0
 27 29  1  0  0  0  0
  2 30  1  0  0  0  0
  3 31  1  0  0  0  0
  3 32  1  0  0  0  0
  4 33  1  0  0  0  0
  4 34  1  0  0  0  0
 10 35  1  0  0  0  0
 13 36  1  0  0  0  0
 14 37  1  0  0  0  0
 16 38  1  0  0  0  0
 17 39  1  0  0  0  0
 19 40  1  0  0  0  0
 19 41  1  0  0  0  0
 22 42  1  0  0  0  0
 23 43  1  0  0  0  0
 23 44  1  0  0  0  0
 23 45  1  0  0  0  0
 24 46  1  0  0  0  0
 24 47  1  0  0  0  0
 25 48  1  0  0  0  0
 25 49  1  0  0  0  0
 28 50  1  0  0  0  0
 29 51  1  0  0  0  0
 29 52  1  0  0  0  0
 29 53  1  0  0  0  0
M  END
> <Name>
27

> <IC50[uM]>
0.68

$$$$
27
  -OEChem-05192314333D
 Structure written by MMmdl.
 53 56  0     1  0  0  0  0  0999 V2000
   -6.3855   12.3606  -12.0031 C   0  0  0  0  0  0  0  0  0  0  0  0
   -6.5214   11.8004  -10.7171 C   0  0  0  0  0  0  0  0  0  0  0  0
   -7.6991   10.5797  -13.0384 C   0  0  0  0  0  0  0  0  0  0  0  0
   -6.9626   11.7779  -13.1031 C   0  0  0  0  0  0  0  0  0  0  0  0
   -7.8238   10.0198  -11.7523 C   0  0  0  0  0  0  0  0  0  0  0  0
   -7.2557   10.6213  -10.5956 C   0  0  3  0  0  0  0  0  0  0  0  0
   -7.6268    9.7501   -9.5073 C   0  0  0  0  0  0  0  0  0  0  0  0
   -8.3057    8.7491   -9.9816 N   0  0  0  0  0  0  0  0  0  0  0  0
   -8.4330    8.8776  -11.2917 N   0  0  0  0  0  0  0  0  0  0  0  0
   -7.3352    9.8817   -8.0196 C   0  0  0  0  0  0  0  0  0  0  0  0
   -5.6205   13.5372  -12.2095 N   0  0  0  0  0  0  0  0  0  0  0  0
   -5.9727   10.4835   -7.7324 C   0  0  0  0  0  0  0  0  0  0  0  0
   -5.8611   11.7523   -7.1657 C   0  0  0  0  0  0  0  0  0  0  0  0
   -4.5946   12.2988   -6.9068 C   0  0  0  0  0  0  0  0  0  0  0  0
   -3.4432   11.5806   -7.2147 C   0  0  0  0  0  0  0  0  0  0  0  0
   -3.5570   10.3109   -7.7899 C   0  0  0  0  0  0  0  0  0  0  0  0
   -4.8253    9.7663   -8.0483 C   0  0  0  0  0  0  0  0  0  0  0  0
   -2.0926   12.1556   -6.9444 C   0  0  0  0  0  0  0  0  0  0  0  0
   -1.7338   13.4204   -6.4594 C   0  0  0  0  0  0  0  0  0  0  0  0
   -0.4064   13.4584   -6.4114 N   0  0  3  0  0  0  0  0  0  0  0  0
    0.1793   12.3493   -6.7865 N   0  0  0  0  0  0  0  0  0  0  0  0
   -0.7954   11.5387   -7.1512 C   0  0  0  0  0  0  0  0  0  0  0  0
    0.4205   14.5767   -6.0073 C   0  0  0  0  0  0  0  0  0  0  0  0
   -4.6894   13.8945  -11.1046 C   0  0  0  0  0  0  0  0  0  0  0  0
   -3.7822   15.1171  -11.3990 C   0  0  0  0  0  0  0  0  0  0  0  0
   -2.3310   14.9579  -11.2532 N   0  0  0  0  0  0  0  0  0  0  0  0
   -1.8099   14.4326  -10.1320 C   0  0  0  0  0  0  0  0  0  0  0  0
   -2.5019   14.0442   -9.2076 O   0  0  0  0  0  0  0  0  0  0  0  0
   -0.2869   14.3494  -10.0364 C   0  0  0  0  0  0  0  0  0  0  0  0
   -5.5086   11.5965  -10.3394 H   0  0  0  0  0  0  0  0  0  0  0  0
   -7.0053   12.5553  -10.0799 H   0  0  0  0  0  0  0  0  0  0  0  0
   -8.1374   10.1224  -13.9131 H   0  0  0  0  0  0  0  0  0  0  0  0
   -6.8466   12.2604  -14.0624 H   0  0  0  0  0  0  0  0  0  0  0  0
   -8.1751   11.2060  -10.4447 H   0  0  0  0  0  0  0  0  0  0  0  0
   -8.0269    9.5780   -7.2478 H   0  0  0  0  0  0  0  0  0  0  0  0
   -6.7507   12.3156   -6.9255 H   0  0  0  0  0  0  0  0  0  0  0  0
   -4.5132   13.2816   -6.4664 H   0  0  0  0  0  0  0  0  0  0  0  0
   -2.6683    9.7485   -8.0357 H   0  0  0  0  0  0  0  0  0  0  0  0
   -4.9092    8.7863   -8.4943 H   0  0  0  0  0  0  0  0  0  0  0  0
   -2.1095   14.2037   -7.1341 H   0  0  0  0  0  0  0  0  0  0  0  0
   -2.1522   13.5713   -5.4533 H   0  0  0  0  0  0  0  0  0  0  0  0
   -0.6475   10.5464   -7.5511 H   0  0  0  0  0  0  0  0  0  0  0  0
    1.4812   14.2962   -6.0855 H   0  0  0  0  0  0  0  0  0  0  0  0
    0.2196   15.4369   -6.6628 H   0  0  0  0  0  0  0  0  0  0  0  0
    0.1886   14.8468   -4.9665 H   0  0  0  0  0  0  0  0  0  0  0  0
   -5.2882   14.1185  -10.2095 H   0  0  0  0  0  0  0  0  0  0  0  0
   -4.0431   13.0269  -10.9057 H   0  0  0  0  0  0  0  0  0  0  0  0
   -3.9735   15.4217  -12.4385 H   0  0  0  0  0  0  0  0  0  0  0  0
   -4.0914   15.9235  -10.7178 H   0  0  0  0  0  0  0  0  0  0  0  0
   -1.9457   13.7098   -8.5138 H   0  0  0  0  0  0  0  0  0  0  0  0
   -0.0034   13.9020   -9.0723 H   0  0  0  0  0  0  0  0  0  0  0  0
    0.0984   13.7264  -10.8570 H   0  0  0  0  0  0  0  0  0  0  0  0
    0.1408   15.3601  -10.1114 H   0  0  0  0  0  0  0  0  0  0  0  0
  1  2  1  0  0  0  0
  1  4  1  0  0  0  0
  1 11  2  0  0  0  0
  2  6  1  0  0  0  0
  3  4  2  0  0  0  0
  3  5  1  0  0  0  0
  5  6  1  0  0  0  0
  5  9  2  0  0  0  0
  6  7  1  0  0  0  0
  7  8  2  0  0  0  0
  7 10  1  0  0  0  0
  8  9  1  0  0  0  0
 10 12  2  0  0  0  0
 11 24  1  0  0  0  0
 12 13  1  0  0  0  0
 12 17  1  0  0  0  0
 13 14  2  0  0  0  0
 14 15  1  0  0  0  0
 15 16  1  0  0  0  0
 15 18  2  0  0  0  0
 16 17  2  0  0  0  0
 18 19  1  0  0  0  0
 18 22  1  0  0  0  0
 19 20  1  0  0  0  0
 20 21  1  0  0  0  0
 20 23  1  0  0  0  0
 21 22  2  0  0  0  0
 24 25  1  0  0  0  0
 25 26  1  0  0  0  0
 26 27  2  0  0  0  0
 27 28  1  0  0  0  0
 27 29  1  0  0  0  0
  2 30  1  0  0  0  0
  2 31  1  0  0  0  0
  3 32  1  0  0  0  0
  4 33  1  0  0  0  0
  6 34  1  0  0  0  0
 10 35  1  0  0  0  0
 13 36  1  0  0  0  0
 14 37  1  0  0  0  0
 16 38  1  0  0  0  0
 17 39  1  0  0  0  0
 19 40  1  0  0  0  0
 19 41  1  0  0  0  0
 22 42  1  0  0  0  0
 23 43  1  0  0  0  0
 23 44  1  0  0  0  0
 23 45  1  0  0  0  0
 24 46  1  0  0  0  0
 24 47  1  0  0  0  0
 25 48  1  0  0  0  0
 25 49  1  0  0  0  0
 28 50  1  0  0  0  0
 29 51  1  0  0  0  0
 29 52  1  0  0  0  0
 29 53  1  0  0  0  0
M  END
> <Name>
27

> <IC50[uM]>
0.68

$$$$
27
  -OEChem-05192314333D
 Structure written by MMmdl.
 53 56  0     1  0  0  0  0  0999 V2000
   -6.3855   12.3606  -12.0031 C   0  0  0  0  0  0  0  0  0  0  0  0
   -6.5214   11.8004  -10.7171 C   0  0  0  0  0  0  0  0  0  0  0  0
   -7.6991   10.5797  -13.0384 C   0  0  0  0  0  0  0  0  0  0  0  0
   -6.9626   11.7779  -13.1031 C   0  0  0  0  0  0  0  0  0  0  0  0
   -7.8238   10.0198  -11.7523 C   0  0  3  0  0  0  0  0  0  0  0  0
   -7.2557   10.6213  -10.5956 C   0  0  0  0  0  0  0  0  0  0  0  0
   -7.6268    9.7501   -9.5073 C   0  0  3  0  0  0  0  0  0  0  0  0
   -8.3057    8.7491   -9.9816 N   0  0  0  0  0  0  0  0  0  0  0  0
   -8.4330    8.8776  -11.2917 N   0  0  0  0  0  0  0  0  0  0  0  0
   -7.3352    9.8817   -8.0196 C   0  0  0  0  0  0  0  0  0  0  0  0
   -5.6205   13.5372  -12.2095 N   0  0  0  0  0  0  0  0  0  0  0  0
   -5.9727   10.4835   -7.7324 C   0  0  0  0  0  0  0  0  0  0  0  0
   -5.8611   11.7523   -7.1657 C   0  0  0  0  0  0  0  0  0  0  0  0
   -4.5946   12.2988   -6.9068 C   0  0  0  0  0  0  0  0  0  0  0  0
   -3.4432   11.5806   -7.2147 C   0  0  0  0  0  0  0  0  0  0  0  0
   -3.5570   10.3109   -7.7899 C   0  0  0  0  0  0  0  0  0  0  0  0
   -4.8253    9.7663   -8.0483 C   0  0  0  0  0  0  0  0  0  0  0  0
   -2.0926   12.1556   -6.9444 C   0  0  0  0  0  0  0  0  0  0  0  0
   -1.7338   13.4204   -6.4594 C   0  0  0  0  0  0  0  0  0  0  0  0
   -0.4064   13.4584   -6.4114 N   0  0  3  0  0  0  0  0  0  0  0  0
    0.1793   12.3493   -6.7865 N   0  0  0  0  0  0  0  0  0  0  0  0
   -0.7954   11.5387   -7.1512 C   0  0  0  0  0  0  0  0  0  0  0  0
    0.4205   14.5767   -6.0073 C   0  0  0  0  0  0  0  0  0  0  0  0
   -4.6894   13.8945  -11.1046 C   0  0  0  0  0  0  0  0  0  0  0  0
   -3.7822   15.1171  -11.3990 C   0  0  0  0  0  0  0  0  0  0  0  0
   -2.3310   14.9579  -11.2532 N   0  0  0  0  0  0  0  0  0  0  0  0
   -1.8099   14.4326  -10.1320 C   0  0  0  0  0  0  0  0  0  0  0  0
   -2.5019   14.0442   -9.2076 O   0  0  0  0  0  0  0  0  0  0  0  0
   -0.2869   14.3494  -10.0364 C   0  0  0  0  0  0  0  0  0  0  0  0
   -6.0716   12.2689   -9.8542 H   0  0  0  0  0  0  0  0  0  0  0  0
   -8.1374   10.1224  -13.9131 H   0  0  0  0  0  0  0  0  0  0  0  0
   -6.8466   12.2604  -14.0624 H   0  0  0  0  0  0  0  0  0  0  0  0
   -8.7543   10.5845  -11.5930 H   0  0  0  0  0  0  0  0  0  0  0  0
   -6.6939    9.1829   -9.6414 H   0  0  0  0  0  0  0  0  0  0  0  0
   -8.0269    9.5780   -7.2478 H   0  0  0  0  0  0  0  0  0  0  0  0
   -6.7507   12.3156   -6.9255 H   0  0  0  0  0  0  0  0  0  0  0  0
   -4.5132   13.2816   -6.4664 H   0  0  0  0  0  0  0  0  0  0  0  0
   -2.6683    9.7485   -8.0357 H   0  0  0  0  0  0  0  0  0  0  0  0
   -4.9092    8.7863   -8.4943 H   0  0  0  0  0  0  0  0  0  0  0  0
   -2.1095   14.2037   -7.1341 H   0  0  0  0  0  0  0  0  0  0  0  0
   -2.1522   13.5713   -5.4533 H   0  0  0  0  0  0  0  0  0  0  0  0
   -0.6475   10.5464   -7.5511 H   0  0  0  0  0  0  0  0  0  0  0  0
    1.4812   14.2962   -6.0855 H   0  0  0  0  0  0  0  0  0  0  0  0
    0.2196   15.4369   -6.6628 H   0  0  0  0  0  0  0  0  0  0  0  0
    0.1886   14.8468   -4.9665 H   0  0  0  0  0  0  0  0  0  0  0  0
   -5.2882   14.1185  -10.2095 H   0  0  0  0  0  0  0  0  0  0  0  0
   -4.0431   13.0269  -10.9057 H   0  0  0  0  0  0  0  0  0  0  0  0
   -3.9735   15.4217  -12.4385 H   0  0  0  0  0  0  0  0  0  0  0  0
   -4.0914   15.9235  -10.7178 H   0  0  0  0  0  0  0  0  0  0  0  0
   -1.7243   15.2430  -11.9952 H   0  0  0  0  0  0  0  0  0  0  0  0
   -0.0031   13.9147   -9.0666 H   0  0  0  0  0  0  0  0  0  0  0  0
    0.0973   13.7152  -10.8489 H   0  0  0  0  0  0  0  0  0  0  0  0
    0.1416   15.3586  -10.1252 H   0  0  0  0  0  0  0  0  0  0  0  0
  1  2  1  0  0  0  0
  1  4  1  0  0  0  0
  1 11  2  0  0  0  0
  2  6  2  0  0  0  0
  3  4  2  0  0  0  0
  3  5  1  0  0  0  0
  5  6  1  0  0  0  0
  5  9  1  0  0  0  0
  6  7  1  0  0  0  0
  7  8  1  0  0  0  0
  7 10  1  0  0  0  0
  8  9  2  0  0  0  0
 10 12  2  0  0  0  0
 11 24  1  0  0  0  0
 12 13  1  0  0  0  0
 12 17  1  0  0  0  0
 13 14  2  0  0  0  0
 14 15  1  0  0  0  0
 15 16  1  0  0  0  0
 15 18  2  0  0  0  0
 16 17  2  0  0  0  0
 18 19  1  0  0  0  0
 18 22  1  0  0  0  0
 19 20  1  0  0  0  0
 20 21  1  0  0  0  0
 20 23  1  0  0  0  0
 21 22  2  0  0  0  0
 24 25  1  0  0  0  0
 25 26  1  0  0  0  0
 26 27  1  0  0  0  0
 27 28  2  0  0  0  0
 27 29  1  0  0  0  0
  2 30  1  0  0  0  0
  3 31  1  0  0  0  0
  4 32  1  0  0  0  0
  5 33  1  0  0  0  0
  7 34  1  0  0  0  0
 10 35  1  0  0  0  0
 13 36  1  0  0  0  0
 14 37  1  0  0  0  0
 16 38  1  0  0  0  0
 17 39  1  0  0  0  0
 19 40  1  0  0  0  0
 19 41  1  0  0  0  0
 22 42  1  0  0  0  0
 23 43  1  0  0  0  0
 23 44  1  0  0  0  0
 23 45  1  0  0  0  0
 24 46  1  0  0  0  0
 24 47  1  0  0  0  0
 25 48  1  0  0  0  0
 25 49  1  0  0  0  0
 26 50  1  0  0  0  0
 29 51  1  0  0  0  0
 29 52  1  0  0  0  0
 29 53  1  0  0  0  0
M  END
> <Name>
27

> <IC50[uM]>
0.68

$$$$
27
  -OEChem-05192314333D
 Structure written by MMmdl.
 53 56  0     1  0  0  0  0  0999 V2000
   -6.3855   12.3606  -12.0031 C   0  0  0  0  0  0  0  0  0  0  0  0
   -6.5214   11.8004  -10.7171 C   0  0  0  0  0  0  0  0  0  0  0  0
   -7.6991   10.5797  -13.0384 C   0  0  0  0  0  0  0  0  0  0  0  0
   -6.9626   11.7779  -13.1031 C   0  0  0  0  0  0  0  0  0  0  0  0
   -7.8238   10.0198  -11.7523 C   0  0  0  0  0  0  0  0  0  0  0  0
   -7.2557   10.6213  -10.5956 C   0  0  0  0  0  0  0  0  0  0  0  0
   -7.6268    9.7501   -9.5073 C   0  0  3  0  0  0  0  0  0  0  0  0
   -8.3057    8.7491   -9.9816 N   0  0  0  0  0  0  0  0  0  0  0  0
   -8.4330    8.8776  -11.2917 N   0  0  0  0  0  0  0  0  0  0  0  0
   -7.3352    9.8817   -8.0196 C   0  0  0  0  0  0  0  0  0  0  0  0
   -5.6205   13.5372  -12.2095 N   0  0  0  0  0  0  0  0  0  0  0  0
   -5.9727   10.4835   -7.7324 C   0  0  0  0  0  0  0  0  0  0  0  0
   -5.8611   11.7523   -7.1657 C   0  0  0  0  0  0  0  0  0  0  0  0
   -4.5946   12.2988   -6.9068 C   0  0  0  0  0  0  0  0  0  0  0  0
   -3.4432   11.5806   -7.2147 C   0  0  0  0  0  0  0  0  0  0  0  0
   -3.5570   10.3109   -7.7899 C   0  0  0  0  0  0  0  0  0  0  0  0
   -4.8253    9.7663   -8.0483 C   0  0  0  0  0  0  0  0  0  0  0  0
   -2.0926   12.1556   -6.9444 C   0  0  0  0  0  0  0  0  0  0  0  0
   -1.7338   13.4204   -6.4594 C   0  0  0  0  0  0  0  0  0  0  0  0
   -0.4064   13.4584   -6.4114 N   0  0  3  0  0  0  0  0  0  0  0  0
    0.1793   12.3493   -6.7865 N   0  0  0  0  0  0  0  0  0  0  0  0
   -0.7954   11.5387   -7.1512 C   0  0  0  0  0  0  0  0  0  0  0  0
    0.4205   14.5767   -6.0073 C   0  0  0  0  0  0  0  0  0  0  0  0
   -4.6894   13.8945  -11.1046 C   0  0  0  0  0  0  0  0  0  0  0  0
   -3.7822   15.1171  -11.3990 C   0  0  0  0  0  0  0  0  0  0  0  0
   -2.3310   14.9579  -11.2532 N   0  0  0  0  0  0  0  0  0  0  0  0
   -1.8099   14.4326  -10.1320 C   0  0  0  0  0  0  0  0  0  0  0  0
   -2.5019   14.0442   -9.2076 O   0  0  0  0  0  0  0  0  0  0  0  0
   -0.2869   14.3494  -10.0364 C   0  0  0  0  0  0  0  0  0  0  0  0
   -6.0716   12.2689   -9.8542 H   0  0  0  0  0  0  0  0  0  0  0  0
   -8.1374   10.1224  -13.9131 H   0  0  0  0  0  0  0  0  0  0  0  0
   -7.6459   12.5314  -13.5218 H   0  0  0  0  0  0  0  0  0  0  0  0
   -6.1429   11.5918  -13.8126 H   0  0  0  0  0  0  0  0  0  0  0  0
   -6.6939    9.1829   -9.6414 H   0  0  0  0  0  0  0  0  0  0  0  0
   -8.0269    9.5780   -7.2478 H   0  0  0  0  0  0  0  0  0  0  0  0
   -6.7507   12.3156   -6.9255 H   0  0  0  0  0  0  0  0  0  0  0  0
   -4.5132   13.2816   -6.4664 H   0  0  0  0  0  0  0  0  0  0  0  0
   -2.6683    9.7485   -8.0357 H   0  0  0  0  0  0  0  0  0  0  0  0
   -4.9092    8.7863   -8.4943 H   0  0  0  0  0  0  0  0  0  0  0  0
   -2.1095   14.2037   -7.1341 H   0  0  0  0  0  0  0  0  0  0  0  0
   -2.1522   13.5713   -5.4533 H   0  0  0  0  0  0  0  0  0  0  0  0
   -0.6475   10.5464   -7.5511 H   0  0  0  0  0  0  0  0  0  0  0  0
    1.4812   14.2962   -6.0855 H   0  0  0  0  0  0  0  0  0  0  0  0
    0.2196   15.4369   -6.6628 H   0  0  0  0  0  0  0  0  0  0  0  0
    0.1886   14.8468   -4.9665 H   0  0  0  0  0  0  0  0  0  0  0  0
   -5.2882   14.1185  -10.2095 H   0  0  0  0  0  0  0  0  0  0  0  0
   -4.0431   13.0269  -10.9057 H   0  0  0  0  0  0  0  0  0  0  0  0
   -3.9735   15.4217  -12.4385 H   0  0  0  0  0  0  0  0  0  0  0  0
   -4.0914   15.9235  -10.7178 H   0  0  0  0  0  0  0  0  0  0  0  0
   -1.7243   15.2430  -11.9952 H   0  0  0  0  0  0  0  0  0  0  0  0
   -0.0031   13.9147   -9.0666 H   0  0  0  0  0  0  0  0  0  0  0  0
    0.0973   13.7152  -10.8489 H   0  0  0  0  0  0  0  0  0  0  0  0
    0.1416   15.3586  -10.1252 H   0  0  0  0  0  0  0  0  0  0  0  0
  1  2  1  0  0  0  0
  1  4  1  0  0  0  0
  1 11  2  0  0  0  0
  2  6  2  0  0  0  0
  3  4  1  0  0  0  0
  3  5  2  0  0  0  0
  5  6  1  0  0  0  0
  5  9  1  0  0  0  0
  6  7  1  0  0  0  0
  7  8  1  0  0  0  0
  7 10  1  0  0  0  0
  8  9  2  0  0  0  0
 10 12  2  0  0  0  0
 11 24  1  0  0  0  0
 12 13  1  0  0  0  0
 12 17  1  0  0  0  0
 13 14  2  0  0  0  0
 14 15  1  0  0  0  0
 15 16  1  0  0  0  0
 15 18  2  0  0  0  0
 16 17  2  0  0  0  0
 18 19  1  0  0  0  0
 18 22  1  0  0  0  0
 19 20  1  0  0  0  0
 20 21  1  0  0  0  0
 20 23  1  0  0  0  0
 21 22  2  0  0  0  0
 24 25  1  0  0  0  0
 25 26  1  0  0  0  0
 26 27  1  0  0  0  0
 27 28  2  0  0  0  0
 27 29  1  0  0  0  0
  2 30  1  0  0  0  0
  3 31  1  0  0  0  0
  4 32  1  0  0  0  0
  4 33  1  0  0  0  0
  7 34  1  0  0  0  0
 10 35  1  0  0  0  0
 13 36  1  0  0  0  0
 14 37  1  0  0  0  0
 16 38  1  0  0  0  0
 17 39  1  0  0  0  0
 19 40  1  0  0  0  0
 19 41  1  0  0  0  0
 22 42  1  0  0  0  0
 23 43  1  0  0  0  0
 23 44  1  0  0  0  0
 23 45  1  0  0  0  0
 24 46  1  0  0  0  0
 24 47  1  0  0  0  0
 25 48  1  0  0  0  0
 25 49  1  0  0  0  0
 26 50  1  0  0  0  0
 29 51  1  0  0  0  0
 29 52  1  0  0  0  0
 29 53  1  0  0  0  0
M  END
> <Name>
27

> <IC50[uM]>
0.68

$$$$
27
  -OEChem-05192314333D
 Structure written by MMmdl.
 53 56  0     1  0  0  0  0  0999 V2000
   -6.3855   12.3606  -12.0031 C   0  0  0  0  0  0  0  0  0  0  0  0
   -6.5214   11.8004  -10.7171 C   0  0  0  0  0  0  0  0  0  0  0  0
   -7.6991   10.5797  -13.0384 C   0  0  0  0  0  0  0  0  0  0  0  0
   -6.9626   11.7779  -13.1031 C   0  0  0  0  0  0  0  0  0  0  0  0
   -7.8238   10.0198  -11.7523 C   0  0  0  0  0  0  0  0  0  0  0  0
   -7.2557   10.6213  -10.5956 C   0  0  0  0  0  0  0  0  0  0  0  0
   -7.6268    9.7501   -9.5073 C   0  0  3  0  0  0  0  0  0  0  0  0
   -8.3057    8.7491   -9.9816 N   0  0  0  0  0  0  0  0  0  0  0  0
   -8.4330    8.8776  -11.2917 N   0  0  0  0  0  0  0  0  0  0  0  0
   -7.3352    9.8817   -8.0196 C   0  0  0  0  0  0  0  0  0  0  0  0
   -5.6205   13.5372  -12.2095 N   0  0  0  0  0  0  0  0  0  0  0  0
   -5.9727   10.4835   -7.7324 C   0  0  0  0  0  0  0  0  0  0  0  0
   -5.8611   11.7523   -7.1657 C   0  0  0  0  0  0  0  0  0  0  0  0
   -4.5946   12.2988   -6.9068 C   0  0  0  0  0  0  0  0  0  0  0  0
   -3.4432   11.5806   -7.2147 C   0  0  0  0  0  0  0  0  0  0  0  0
   -3.5570   10.3109   -7.7899 C   0  0  0  0  0  0  0  0  0  0  0  0
   -4.8253    9.7663   -8.0483 C   0  0  0  0  0  0  0  0  0  0  0  0
   -2.0926   12.1556   -6.9444 C   0  0  0  0  0  0  0  0  0  0  0  0
   -1.7338   13.4204   -6.4594 C   0  0  0  0  0  0  0  0  0  0  0  0
   -0.4064   13.4584   -6.4114 N   0  0  3  0  0  0  0  0  0  0  0  0
    0.1793   12.3493   -6.7865 N   0  0  0  0  0  0  0  0  0  0  0  0
   -0.7954   11.5387   -7.1512 C   0  0  0  0  0  0  0  0  0  0  0  0
    0.4205   14.5767   -6.0073 C   0  0  0  0  0  0  0  0  0  0  0  0
   -4.6894   13.8945  -11.1046 C   0  0  0  0  0  0  0  0  0  0  0  0
   -3.7822   15.1171  -11.3990 C   0  0  0  0  0  0  0  0  0  0  0  0
   -2.3310   14.9579  -11.2532 N   0  0  0  0  0  0  0  0  0  0  0  0
   -1.8099   14.4326  -10.1320 C   0  0  0  0  0  0  0  0  0  0  0  0
   -2.5019   14.0442   -9.2076 O   0  0  0  0  0  0  0  0  0  0  0  0
   -0.2869   14.3494  -10.0364 C   0  0  0  0  0  0  0  0  0  0  0  0
   -5.5086   11.5965  -10.3394 H   0  0  0  0  0  0  0  0  0  0  0  0
   -7.0053   12.5553  -10.0799 H   0  0  0  0  0  0  0  0  0  0  0  0
   -8.1374   10.1224  -13.9131 H   0  0  0  0  0  0  0  0  0  0  0  0
   -6.8466   12.2604  -14.0624 H   0  0  0  0  0  0  0  0  0  0  0  0
   -6.6939    9.1829   -9.6414 H   0  0  0  0  0  0  0  0  0  0  0  0
   -8.0269    9.5780   -7.2478 H   0  0  0  0  0  0  0  0  0  0  0  0
   -6.7507   12.3156   -6.9255 H   0  0  0  0  0  0  0  0  0  0  0  0
   -4.5132   13.2816   -6.4664 H   0  0  0  0  0  0  0  0  0  0  0  0
   -2.6683    9.7485   -8.0357 H   0  0  0  0  0  0  0  0  0  0  0  0
   -4.9092    8.7863   -8.4943 H   0  0  0  0  0  0  0  0  0  0  0  0
   -2.1095   14.2037   -7.1341 H   0  0  0  0  0  0  0  0  0  0  0  0
   -2.1522   13.5713   -5.4533 H   0  0  0  0  0  0  0  0  0  0  0  0
   -0.6475   10.5464   -7.5511 H   0  0  0  0  0  0  0  0  0  0  0  0
    1.4812   14.2962   -6.0855 H   0  0  0  0  0  0  0  0  0  0  0  0
    0.2196   15.4369   -6.6628 H   0  0  0  0  0  0  0  0  0  0  0  0
    0.1886   14.8468   -4.9665 H   0  0  0  0  0  0  0  0  0  0  0  0
   -5.2882   14.1185  -10.2095 H   0  0  0  0  0  0  0  0  0  0  0  0
   -4.0431   13.0269  -10.9057 H   0  0  0  0  0  0  0  0  0  0  0  0
   -3.9735   15.4217  -12.4385 H   0  0  0  0  0  0  0  0  0  0  0  0
   -4.0914   15.9235  -10.7178 H   0  0  0  0  0  0  0  0  0  0  0  0
   -1.7243   15.2430  -11.9952 H   0  0  0  0  0  0  0  0  0  0  0  0
   -0.0031   13.9147   -9.0666 H   0  0  0  0  0  0  0  0  0  0  0  0
    0.0973   13.7152  -10.8489 H   0  0  0  0  0  0  0  0  0  0  0  0
    0.1416   15.3586  -10.1252 H   0  0  0  0  0  0  0  0  0  0  0  0
  1  2  1  0  0  0  0
  1  4  1  0  0  0  0
  1 11  2  0  0  0  0
  2  6  1  0  0  0  0
  3  4  2  0  0  0  0
  3  5  1  0  0  0  0
  5  6  2  0  0  0  0
  5  9  1  0  0  0  0
  6  7  1  0  0  0  0
  7  8  1  0  0  0  0
  7 10  1  0  0  0  0
  8  9  2  0  0  0  0
 10 12  2  0  0  0  0
 11 24  1  0  0  0  0
 12 13  1  0  0  0  0
 12 17  1  0  0  0  0
 13 14  2  0  0  0  0
 14 15  1  0  0  0  0
 15 16  1  0  0  0  0
 15 18  2  0  0  0  0
 16 17  2  0  0  0  0
 18 19  1  0  0  0  0
 18 22  1  0  0  0  0
 19 20  1  0  0  0  0
 20 21  1  0  0  0  0
 20 23  1  0  0  0  0
 21 22  2  0  0  0  0
 24 25  1  0  0  0  0
 25 26  1  0  0  0  0
 26 27  1  0  0  0  0
 27 28  2  0  0  0  0
 27 29  1  0  0  0  0
  2 30  1  0  0  0  0
  2 31  1  0  0  0  0
  3 32  1  0  0  0  0
  4 33  1  0  0  0  0
  7 34  1  0  0  0  0
 10 35  1  0  0  0  0
 13 36  1  0  0  0  0
 14 37  1  0  0  0  0
 16 38  1  0  0  0  0
 17 39  1  0  0  0  0
 19 40  1  0  0  0  0
 19 41  1  0  0  0  0
 22 42  1  0  0  0  0
 23 43  1  0  0  0  0
 23 44  1  0  0  0  0
 23 45  1  0  0  0  0
 24 46  1  0  0  0  0
 24 47  1  0  0  0  0
 25 48  1  0  0  0  0
 25 49  1  0  0  0  0
 26 50  1  0  0  0  0
 29 51  1  0  0  0  0
 29 52  1  0  0  0  0
 29 53  1  0  0  0  0
M  END
> <Name>
27

> <IC50[uM]>
0.68

$$$$
27
  -OEChem-05192314333D
 Structure written by MMmdl.
 53 56  0     1  0  0  0  0  0999 V2000
   -6.3855   12.3606  -12.0031 C   0  0  0  0  0  0  0  0  0  0  0  0
   -6.5214   11.8004  -10.7171 C   0  0  0  0  0  0  0  0  0  0  0  0
   -7.6991   10.5797  -13.0384 C   0  0  0  0  0  0  0  0  0  0  0  0
   -6.9626   11.7779  -13.1031 C   0  0  0  0  0  0  0  0  0  0  0  0
   -7.8238   10.0198  -11.7523 C   0  0  3  0  0  0  0  0  0  0  0  0
   -7.2557   10.6213  -10.5956 C   0  0  0  0  0  0  0  0  0  0  0  0
   -7.6268    9.7501   -9.5073 C   0  0  0  0  0  0  0  0  0  0  0  0
   -8.3057    8.7491   -9.9816 N   0  0  0  0  0  0  0  0  0  0  0  0
   -8.4330    8.8776  -11.2917 N   0  0  0  0  0  0  0  0  0  0  0  0
   -7.3352    9.8817   -8.0196 C   0  0  0  0  0  0  0  0  0  0  0  0
   -5.6205   13.5372  -12.2095 N   0  0  0  0  0  0  0  0  0  0  0  0
   -5.9727   10.4835   -7.7324 C   0  0  0  0  0  0  0  0  0  0  0  0
   -5.8611   11.7523   -7.1657 C   0  0  0  0  0  0  0  0  0  0  0  0
   -4.5946   12.2988   -6.9068 C   0  0  0  0  0  0  0  0  0  0  0  0
   -3.4432   11.5806   -7.2147 C   0  0  0  0  0  0  0  0  0  0  0  0
   -3.5570   10.3109   -7.7899 C   0  0  0  0  0  0  0  0  0  0  0  0
   -4.8253    9.7663   -8.0483 C   0  0  0  0  0  0  0  0  0  0  0  0
   -2.0926   12.1556   -6.9444 C   0  0  0  0  0  0  0  0  0  0  0  0
   -1.7338   13.4204   -6.4594 C   0  0  0  0  0  0  0  0  0  0  0  0
   -0.4064   13.4584   -6.4114 N   0  0  3  0  0  0  0  0  0  0  0  0
    0.1793   12.3493   -6.7865 N   0  0  0  0  0  0  0  0  0  0  0  0
   -0.7954   11.5387   -7.1512 C   0  0  0  0  0  0  0  0  0  0  0  0
    0.4205   14.5767   -6.0073 C   0  0  0  0  0  0  0  0  0  0  0  0
   -4.6894   13.8945  -11.1046 C   0  0  0  0  0  0  0  0  0  0  0  0
   -3.7822   15.1171  -11.3990 C   0  0  0  0  0  0  0  0  0  0  0  0
   -2.3310   14.9579  -11.2532 N   0  0  0  0  0  0  0  0  0  0  0  0
   -1.8099   14.4326  -10.1320 C   0  0  0  0  0  0  0  0  0  0  0  0
   -2.5019   14.0442   -9.2076 O   0  0  0  0  0  0  0  0  0  0  0  0
   -0.2869   14.3494  -10.0364 C   0  0  0  0  0  0  0  0  0  0  0  0
   -5.5086   11.5965  -10.3394 H   0  0  0  0  0  0  0  0  0  0  0  0
   -7.0053   12.5553  -10.0799 H   0  0  0  0  0  0  0  0  0  0  0  0
   -8.1374   10.1224  -13.9131 H   0  0  0  0  0  0  0  0  0  0  0  0
   -6.8466   12.2604  -14.0624 H   0  0  0  0  0  0  0  0  0  0  0  0
   -8.7543   10.5845  -11.5930 H   0  0  0  0  0  0  0  0  0  0  0  0
   -8.0269    9.5780   -7.2478 H   0  0  0  0  0  0  0  0  0  0  0  0
   -6.7507   12.3156   -6.9255 H   0  0  0  0  0  0  0  0  0  0  0  0
   -4.5132   13.2816   -6.4664 H   0  0  0  0  0  0  0  0  0  0  0  0
   -2.6683    9.7485   -8.0357 H   0  0  0  0  0  0  0  0  0  0  0  0
   -4.9092    8.7863   -8.4943 H   0  0  0  0  0  0  0  0  0  0  0  0
   -2.1095   14.2037   -7.1341 H   0  0  0  0  0  0  0  0  0  0  0  0
   -2.1522   13.5713   -5.4533 H   0  0  0  0  0  0  0  0  0  0  0  0
   -0.6475   10.5464   -7.5511 H   0  0  0  0  0  0  0  0  0  0  0  0
    1.4812   14.2962   -6.0855 H   0  0  0  0  0  0  0  0  0  0  0  0
    0.2196   15.4369   -6.6628 H   0  0  0  0  0  0  0  0  0  0  0  0
    0.1886   14.8468   -4.9665 H   0  0  0  0  0  0  0  0  0  0  0  0
   -5.2882   14.1185  -10.2095 H   0  0  0  0  0  0  0  0  0  0  0  0
   -4.0431   13.0269  -10.9057 H   0  0  0  0  0  0  0  0  0  0  0  0
   -3.9735   15.4217  -12.4385 H   0  0  0  0  0  0  0  0  0  0  0  0
   -4.0914   15.9235  -10.7178 H   0  0  0  0  0  0  0  0  0  0  0  0
   -1.7243   15.2430  -11.9952 H   0  0  0  0  0  0  0  0  0  0  0  0
   -0.0031   13.9147   -9.0666 H   0  0  0  0  0  0  0  0  0  0  0  0
    0.0973   13.7152  -10.8489 H   0  0  0  0  0  0  0  0  0  0  0  0
    0.1416   15.3586  -10.1252 H   0  0  0  0  0  0  0  0  0  0  0  0
  1  2  1  0  0  0  0
  1  4  1  0  0  0  0
  1 11  2  0  0  0  0
  2  6  1  0  0  0  0
  3  4  2  0  0  0  0
  3  5  1  0  0  0  0
  5  6  1  0  0  0  0
  5  9  1  0  0  0  0
  6  7  2  0  0  0  0
  7  8  1  0  0  0  0
  7 10  1  0  0  0  0
  8  9  2  0  0  0  0
 10 12  2  0  0  0  0
 11 24  1  0  0  0  0
 12 13  1  0  0  0  0
 12 17  1  0  0  0  0
 13 14  2  0  0  0  0
 14 15  1  0  0  0  0
 15 16  1  0  0  0  0
 15 18  2  0  0  0  0
 16 17  2  0  0  0  0
 18 19  1  0  0  0  0
 18 22  1  0  0  0  0
 19 20  1  0  0  0  0
 20 21  1  0  0  0  0
 20 23  1  0  0  0  0
 21 22  2  0  0  0  0
 24 25  1  0  0  0  0
 25 26  1  0  0  0  0
 26 27  1  0  0  0  0
 27 28  2  0  0  0  0
 27 29  1  0  0  0  0
  2 30  1  0  0  0  0
  2 31  1  0  0  0  0
  3 32  1  0  0  0  0
  4 33  1  0  0  0  0
  5 34  1  0  0  0  0
 10 35  1  0  0  0  0
 13 36  1  0  0  0  0
 14 37  1  0  0  0  0
 16 38  1  0  0  0  0
 17 39  1  0  0  0  0
 19 40  1  0  0  0  0
 19 41  1  0  0  0  0
 22 42  1  0  0  0  0
 23 43  1  0  0  0  0
 23 44  1  0  0  0  0
 23 45  1  0  0  0  0
 24 46  1  0  0  0  0
 24 47  1  0  0  0  0
 25 48  1  0  0  0  0
 25 49  1  0  0  0  0
 26 50  1  0  0  0  0
 29 51  1  0  0  0  0
 29 52  1  0  0  0  0
 29 53  1  0  0  0  0
M  END
> <Name>
27

> <IC50[uM]>
0.68

$$$$
27
  -OEChem-05192314333D
 Structure written by MMmdl.
 53 56  0     1  0  0  0  0  0999 V2000
   -6.3855   12.3606  -12.0031 C   0  0  0  0  0  0  0  0  0  0  0  0
   -6.5214   11.8004  -10.7171 C   0  0  0  0  0  0  0  0  0  0  0  0
   -7.6991   10.5797  -13.0384 C   0  0  0  0  0  0  0  0  0  0  0  0
   -6.9626   11.7779  -13.1031 C   0  0  0  0  0  0  0  0  0  0  0  0
   -7.8238   10.0198  -11.7523 C   0  0  0  0  0  0  0  0  0  0  0  0
   -7.2557   10.6213  -10.5956 C   0  0  0  0  0  0  0  0  0  0  0  0
   -7.6268    9.7501   -9.5073 C   0  0  0  0  0  0  0  0  0  0  0  0
   -8.3057    8.7491   -9.9816 N   0  0  0  0  0  0  0  0  0  0  0  0
   -8.4330    8.8776  -11.2917 N   0  0  0  0  0  0  0  0  0  0  0  0
   -7.3352    9.8817   -8.0196 C   0  0  0  0  0  0  0  0  0  0  0  0
   -5.6205   13.5372  -12.2095 N   0  0  0  0  0  0  0  0  0  0  0  0
   -5.9727   10.4835   -7.7324 C   0  0  0  0  0  0  0  0  0  0  0  0
   -5.8611   11.7523   -7.1657 C   0  0  0  0  0  0  0  0  0  0  0  0
   -4.5946   12.2988   -6.9068 C   0  0  0  0  0  0  0  0  0  0  0  0
   -3.4432   11.5806   -7.2147 C   0  0  0  0  0  0  0  0  0  0  0  0
   -3.5570   10.3109   -7.7899 C   0  0  0  0  0  0  0  0  0  0  0  0
   -4.8253    9.7663   -8.0483 C   0  0  0  0  0  0  0  0  0  0  0  0
   -2.0926   12.1556   -6.9444 C   0  0  0  0  0  0  0  0  0  0  0  0
   -1.7338   13.4204   -6.4594 C   0  0  0  0  0  0  0  0  0  0  0  0
   -0.4064   13.4584   -6.4114 N   0  0  3  0  0  0  0  0  0  0  0  0
    0.1793   12.3493   -6.7865 N   0  0  0  0  0  0  0  0  0  0  0  0
   -0.7954   11.5387   -7.1512 C   0  0  0  0  0  0  0  0  0  0  0  0
    0.4205   14.5767   -6.0073 C   0  0  0  0  0  0  0  0  0  0  0  0
   -4.6894   13.8945  -11.1046 C   0  0  0  0  0  0  0  0  0  0  0  0
   -3.7822   15.1171  -11.3990 C   0  0  0  0  0  0  0  0  0  0  0  0
   -2.3310   14.9579  -11.2532 N   0  0  0  0  0  0  0  0  0  0  0  0
   -1.8099   14.4326  -10.1320 C   0  0  0  0  0  0  0  0  0  0  0  0
   -2.5019   14.0442   -9.2076 O   0  0  0  0  0  0  0  0  0  0  0  0
   -0.2869   14.3494  -10.0364 C   0  0  0  0  0  0  0  0  0  0  0  0
   -5.5086   11.5965  -10.3394 H   0  0  0  0  0  0  0  0  0  0  0  0
   -7.0053   12.5553  -10.0799 H   0  0  0  0  0  0  0  0  0  0  0  0
   -8.1374   10.1224  -13.9131 H   0  0  0  0  0  0  0  0  0  0  0  0
   -7.6459   12.5314  -13.5218 H   0  0  0  0  0  0  0  0  0  0  0  0
   -6.1429   11.5918  -13.8126 H   0  0  0  0  0  0  0  0  0  0  0  0
   -8.0269    9.5780   -7.2478 H   0  0  0  0  0  0  0  0  0  0  0  0
   -6.7507   12.3156   -6.9255 H   0  0  0  0  0  0  0  0  0  0  0  0
   -4.5132   13.2816   -6.4664 H   0  0  0  0  0  0  0  0  0  0  0  0
   -2.6683    9.7485   -8.0357 H   0  0  0  0  0  0  0  0  0  0  0  0
   -4.9092    8.7863   -8.4943 H   0  0  0  0  0  0  0  0  0  0  0  0
   -2.1095   14.2037   -7.1341 H   0  0  0  0  0  0  0  0  0  0  0  0
   -2.1522   13.5713   -5.4533 H   0  0  0  0  0  0  0  0  0  0  0  0
   -0.6475   10.5464   -7.5511 H   0  0  0  0  0  0  0  0  0  0  0  0
    1.4812   14.2962   -6.0855 H   0  0  0  0  0  0  0  0  0  0  0  0
    0.2196   15.4369   -6.6628 H   0  0  0  0  0  0  0  0  0  0  0  0
    0.1886   14.8468   -4.9665 H   0  0  0  0  0  0  0  0  0  0  0  0
   -5.2882   14.1185  -10.2095 H   0  0  0  0  0  0  0  0  0  0  0  0
   -4.0431   13.0269  -10.9057 H   0  0  0  0  0  0  0  0  0  0  0  0
   -3.9735   15.4217  -12.4385 H   0  0  0  0  0  0  0  0  0  0  0  0
   -4.0914   15.9235  -10.7178 H   0  0  0  0  0  0  0  0  0  0  0  0
   -1.7243   15.2430  -11.9952 H   0  0  0  0  0  0  0  0  0  0  0  0
   -0.0031   13.9147   -9.0666 H   0  0  0  0  0  0  0  0  0  0  0  0
    0.0973   13.7152  -10.8489 H   0  0  0  0  0  0  0  0  0  0  0  0
    0.1416   15.3586  -10.1252 H   0  0  0  0  0  0  0  0  0  0  0  0
  1  2  1  0  0  0  0
  1  4  1  0  0  0  0
  1 11  2  0  0  0  0
  2  6  1  0  0  0  0
  3  4  1  0  0  0  0
  3  5  2  0  0  0  0
  5  6  1  0  0  0  0
  5  9  1  0  0  0  0
  6  7  2  0  0  0  0
  7  8  1  0  0  0  0
  7 10  1  0  0  0  0
  8  9  2  0  0  0  0
 10 12  2  0  0  0  0
 11 24  1  0  0  0  0
 12 13  1  0  0  0  0
 12 17  1  0  0  0  0
 13 14  2  0  0  0  0
 14 15  1  0  0  0  0
 15 16  1  0  0  0  0
 15 18  2  0  0  0  0
 16 17  2  0  0  0  0
 18 19  1  0  0  0  0
 18 22  1  0  0  0  0
 19 20  1  0  0  0  0
 20 21  1  0  0  0  0
 20 23  1  0  0  0  0
 21 22  2  0  0  0  0
 24 25  1  0  0  0  0
 25 26  1  0  0  0  0
 26 27  1  0  0  0  0
 27 28  2  0  0  0  0
 27 29  1  0  0  0  0
  2 30  1  0  0  0  0
  2 31  1  0  0  0  0
  3 32  1  0  0  0  0
  4 33  1  0  0  0  0
  4 34  1  0  0  0  0
 10 35  1  0  0  0  0
 13 36  1  0  0  0  0
 14 37  1  0  0  0  0
 16 38  1  0  0  0  0
 17 39  1  0  0  0  0
 19 40  1  0  0  0  0
 19 41  1  0  0  0  0
 22 42  1  0  0  0  0
 23 43  1  0  0  0  0
 23 44  1  0  0  0  0
 23 45  1  0  0  0  0
 24 46  1  0  0  0  0
 24 47  1  0  0  0  0
 25 48  1  0  0  0  0
 25 49  1  0  0  0  0
 26 50  1  0  0  0  0
 29 51  1  0  0  0  0
 29 52  1  0  0  0  0
 29 53  1  0  0  0  0
M  END
> <Name>
27

> <IC50[uM]>
0.68

$$$$
27
  -OEChem-05192314333D
 Structure written by MMmdl.
 53 56  0     1  0  0  0  0  0999 V2000
   -6.3855   12.3606  -12.0031 C   0  0  0  0  0  0  0  0  0  0  0  0
   -6.5214   11.8004  -10.7171 C   0  0  0  0  0  0  0  0  0  0  0  0
   -7.6991   10.5797  -13.0384 C   0  0  0  0  0  0  0  0  0  0  0  0
   -6.9626   11.7779  -13.1031 C   0  0  0  0  0  0  0  0  0  0  0  0
   -7.8238   10.0198  -11.7523 C   0  0  0  0  0  0  0  0  0  0  0  0
   -7.2557   10.6213  -10.5956 C   0  0  3  0  0  0  0  0  0  0  0  0
   -7.6268    9.7501   -9.5073 C   0  0  0  0  0  0  0  0  0  0  0  0
   -8.3057    8.7491   -9.9816 N   0  0  0  0  0  0  0  0  0  0  0  0
   -8.4330    8.8776  -11.2917 N   0  0  0  0  0  0  0  0  0  0  0  0
   -7.3352    9.8817   -8.0196 C   0  0  0  0  0  0  0  0  0  0  0  0
   -5.6205   13.5372  -12.2095 N   0  0  0  0  0  0  0  0  0  0  0  0
   -5.9727   10.4835   -7.7324 C   0  0  0  0  0  0  0  0  0  0  0  0
   -5.8611   11.7523   -7.1657 C   0  0  0  0  0  0  0  0  0  0  0  0
   -4.5946   12.2988   -6.9068 C   0  0  0  0  0  0  0  0  0  0  0  0
   -3.4432   11.5806   -7.2147 C   0  0  0  0  0  0  0  0  0  0  0  0
   -3.5570   10.3109   -7.7899 C   0  0  0  0  0  0  0  0  0  0  0  0
   -4.8253    9.7663   -8.0483 C   0  0  0  0  0  0  0  0  0  0  0  0
   -2.0926   12.1556   -6.9444 C   0  0  0  0  0  0  0  0  0  0  0  0
   -1.7338   13.4204   -6.4594 C   0  0  0  0  0  0  0  0  0  0  0  0
   -0.4064   13.4584   -6.4114 N   0  0  3  0  0  0  0  0  0  0  0  0
    0.1793   12.3493   -6.7865 N   0  0  0  0  0  0  0  0  0  0  0  0
   -0.7954   11.5387   -7.1512 C   0  0  0  0  0  0  0  0  0  0  0  0
    0.4205   14.5767   -6.0073 C   0  0  0  0  0  0  0  0  0  0  0  0
   -4.6894   13.8945  -11.1046 C   0  0  0  0  0  0  0  0  0  0  0  0
   -3.7822   15.1171  -11.3990 C   0  0  0  0  0  0  0  0  0  0  0  0
   -2.3310   14.9579  -11.2532 N   0  0  0  0  0  0  0  0  0  0  0  0
   -1.8099   14.4326  -10.1320 C   0  0  0  0  0  0  0  0  0  0  0  0
   -2.5019   14.0442   -9.2076 O   0  0  0  0  0  0  0  0  0  0  0  0
   -0.2869   14.3494  -10.0364 C   0  0  0  0  0  0  0  0  0  0  0  0
   -6.0716   12.2689   -9.8542 H   0  0  0  0  0  0  0  0  0  0  0  0
   -8.1374   10.1224  -13.9131 H   0  0  0  0  0  0  0  0  0  0  0  0
   -6.8466   12.2604  -14.0624 H   0  0  0  0  0  0  0  0  0  0  0  0
   -8.1751   11.2060  -10.4447 H   0  0  0  0  0  0  0  0  0  0  0  0
   -8.0269    9.5780   -7.2478 H   0  0  0  0  0  0  0  0  0  0  0  0
   -5.0791   13.4115  -13.0408 H   0  0  0  0  0  0  0  0  0  0  0  0
   -6.7507   12.3156   -6.9255 H   0  0  0  0  0  0  0  0  0  0  0  0
   -4.5132   13.2816   -6.4664 H   0  0  0  0  0  0  0  0  0  0  0  0
   -2.6683    9.7485   -8.0357 H   0  0  0  0  0  0  0  0  0  0  0  0
   -4.9092    8.7863   -8.4943 H   0  0  0  0  0  0  0  0  0  0  0  0
   -2.1095   14.2037   -7.1341 H   0  0  0  0  0  0  0  0  0  0  0  0
   -2.1522   13.5713   -5.4533 H   0  0  0  0  0  0  0  0  0  0  0  0
   -0.6475   10.5464   -7.5511 H   0  0  0  0  0  0  0  0  0  0  0  0
    1.4812   14.2962   -6.0855 H   0  0  0  0  0  0  0  0  0  0  0  0
    0.2196   15.4369   -6.6628 H   0  0  0  0  0  0  0  0  0  0  0  0
    0.1886   14.8468   -4.9665 H   0  0  0  0  0  0  0  0  0  0  0  0
   -5.2882   14.1185  -10.2095 H   0  0  0  0  0  0  0  0  0  0  0  0
   -4.0431   13.0269  -10.9057 H   0  0  0  0  0  0  0  0  0  0  0  0
   -3.9735   15.4217  -12.4385 H   0  0  0  0  0  0  0  0  0  0  0  0
   -4.0914   15.9235  -10.7178 H   0  0  0  0  0  0  0  0  0  0  0  0
   -1.7243   15.2430  -11.9952 H   0  0  0  0  0  0  0  0  0  0  0  0
   -0.0031   13.9147   -9.0666 H   0  0  0  0  0  0  0  0  0  0  0  0
    0.0973   13.7152  -10.8489 H   0  0  0  0  0  0  0  0  0  0  0  0
    0.1416   15.3586  -10.1252 H   0  0  0  0  0  0  0  0  0  0  0  0
  1  2  2  0  0  0  0
  1  4  1  0  0  0  0
  1 11  1  0  0  0  0
  2  6  1  0  0  0  0
  3  4  2  0  0  0  0
  3  5  1  0  0  0  0
  5  6  1  0  0  0  0
  5  9  2  0  0  0  0
  6  7  1  0  0  0  0
  7  8  2  0  0  0  0
  7 10  1  0  0  0  0
  8  9  1  0  0  0  0
 10 12  2  0  0  0  0
 11 24  1  0  0  0  0
 12 13  1  0  0  0  0
 12 17  1  0  0  0  0
 13 14  2  0  0  0  0
 14 15  1  0  0  0  0
 15 16  1  0  0  0  0
 15 18  2  0  0  0  0
 16 17  2  0  0  0  0
 18 19  1  0  0  0  0
 18 22  1  0  0  0  0
 19 20  1  0  0  0  0
 20 21  1  0  0  0  0
 20 23  1  0  0  0  0
 21 22  2  0  0  0  0
 24 25  1  0  0  0  0
 25 26  1  0  0  0  0
 26 27  1  0  0  0  0
 27 28  2  0  0  0  0
 27 29  1  0  0  0  0
  2 30  1  0  0  0  0
  3 31  1  0  0  0  0
  4 32  1  0  0  0  0
  6 33  1  0  0  0  0
 10 34  1  0  0  0  0
 11 35  1  0  0  0  0
 13 36  1  0  0  0  0
 14 37  1  0  0  0  0
 16 38  1  0  0  0  0
 17 39  1  0  0  0  0
 19 40  1  0  0  0  0
 19 41  1  0  0  0  0
 22 42  1  0  0  0  0
 23 43  1  0  0  0  0
 23 44  1  0  0  0  0
 23 45  1  0  0  0  0
 24 46  1  0  0  0  0
 24 47  1  0  0  0  0
 25 48  1  0  0  0  0
 25 49  1  0  0  0  0
 26 50  1  0  0  0  0
 29 51  1  0  0  0  0
 29 52  1  0  0  0  0
 29 53  1  0  0  0  0
M  END
> <Name>
27

> <IC50[uM]>
0.68

$$$$
27
  -OEChem-05192314333D
 Structure written by MMmdl.
 53 56  0     1  0  0  0  0  0999 V2000
   -6.3855   12.3606  -12.0031 C   0  0  3  0  0  0  0  0  0  0  0  0
   -6.5214   11.8004  -10.7171 C   0  0  0  0  0  0  0  0  0  0  0  0
   -7.6991   10.5797  -13.0384 C   0  0  0  0  0  0  0  0  0  0  0  0
   -6.9626   11.7779  -13.1031 C   0  0  0  0  0  0  0  0  0  0  0  0
   -7.8238   10.0198  -11.7523 C   0  0  0  0  0  0  0  0  0  0  0  0
   -7.2557   10.6213  -10.5956 C   0  0  0  0  0  0  0  0  0  0  0  0
   -7.6268    9.7501   -9.5073 C   0  0  0  0  0  0  0  0  0  0  0  0
   -8.3057    8.7491   -9.9816 N   0  0  0  0  0  0  0  0  0  0  0  0
   -8.4330    8.8776  -11.2917 N   0  0  0  0  0  0  0  0  0  0  0  0
   -7.3352    9.8817   -8.0196 C   0  0  0  0  0  0  0  0  0  0  0  0
   -5.6205   13.5372  -12.2095 N   0  0  0  0  0  0  0  0  0  0  0  0
   -5.9727   10.4835   -7.7324 C   0  0  0  0  0  0  0  0  0  0  0  0
   -5.8611   11.7523   -7.1657 C   0  0  0  0  0  0  0  0  0  0  0  0
   -4.5946   12.2988   -6.9068 C   0  0  0  0  0  0  0  0  0  0  0  0
   -3.4432   11.5806   -7.2147 C   0  0  0  0  0  0  0  0  0  0  0  0
   -3.5570   10.3109   -7.7899 C   0  0  0  0  0  0  0  0  0  0  0  0
   -4.8253    9.7663   -8.0483 C   0  0  0  0  0  0  0  0  0  0  0  0
   -2.0926   12.1556   -6.9444 C   0  0  0  0  0  0  0  0  0  0  0  0
   -1.7338   13.4204   -6.4594 C   0  0  0  0  0  0  0  0  0  0  0  0
   -0.4064   13.4584   -6.4114 N   0  0  3  0  0  0  0  0  0  0  0  0
    0.1793   12.3493   -6.7865 N   0  0  0  0  0  0  0  0  0  0  0  0
   -0.7954   11.5387   -7.1512 C   0  0  0  0  0  0  0  0  0  0  0  0
    0.4205   14.5767   -6.0073 C   0  0  0  0  0  0  0  0  0  0  0  0
   -4.6894   13.8945  -11.1046 C   0  0  0  0  0  0  0  0  0  0  0  0
   -3.7822   15.1171  -11.3990 C   0  0  0  0  0  0  0  0  0  0  0  0
   -2.3310   14.9579  -11.2532 N   0  0  0  0  0  0  0  0  0  0  0  0
   -1.8099   14.4326  -10.1320 C   0  0  0  0  0  0  0  0  0  0  0  0
   -2.5019   14.0442   -9.2076 O   0  0  0  0  0  0  0  0  0  0  0  0
   -0.2869   14.3494  -10.0364 C   0  0  0  0  0  0  0  0  0  0  0  0
   -7.2886   12.9676  -11.8418 H   0  0  0  0  0  0  0  0  0  0  0  0
   -6.0716   12.2689   -9.8542 H   0  0  0  0  0  0  0  0  0  0  0  0
   -8.1374   10.1224  -13.9131 H   0  0  0  0  0  0  0  0  0  0  0  0
   -6.8466   12.2604  -14.0624 H   0  0  0  0  0  0  0  0  0  0  0  0
   -8.0269    9.5780   -7.2478 H   0  0  0  0  0  0  0  0  0  0  0  0
   -5.0791   13.4115  -13.0408 H   0  0  0  0  0  0  0  0  0  0  0  0
   -6.7507   12.3156   -6.9255 H   0  0  0  0  0  0  0  0  0  0  0  0
   -4.5132   13.2816   -6.4664 H   0  0  0  0  0  0  0  0  0  0  0  0
   -2.6683    9.7485   -8.0357 H   0  0  0  0  0  0  0  0  0  0  0  0
   -4.9092    8.7863   -8.4943 H   0  0  0  0  0  0  0  0  0  0  0  0
   -2.1095   14.2037   -7.1341 H   0  0  0  0  0  0  0  0  0  0  0  0
   -2.1522   13.5713   -5.4533 H   0  0  0  0  0  0  0  0  0  0  0  0
   -0.6475   10.5464   -7.5511 H   0  0  0  0  0  0  0  0  0  0  0  0
    1.4812   14.2962   -6.0855 H   0  0  0  0  0  0  0  0  0  0  0  0
    0.2196   15.4369   -6.6628 H   0  0  0  0  0  0  0  0  0  0  0  0
    0.1886   14.8468   -4.9665 H   0  0  0  0  0  0  0  0  0  0  0  0
   -5.2882   14.1185  -10.2095 H   0  0  0  0  0  0  0  0  0  0  0  0
   -4.0431   13.0269  -10.9057 H   0  0  0  0  0  0  0  0  0  0  0  0
   -3.9735   15.4217  -12.4385 H   0  0  0  0  0  0  0  0  0  0  0  0
   -4.0914   15.9235  -10.7178 H   0  0  0  0  0  0  0  0  0  0  0  0
   -1.7243   15.2430  -11.9952 H   0  0  0  0  0  0  0  0  0  0  0  0
   -0.0031   13.9147   -9.0666 H   0  0  0  0  0  0  0  0  0  0  0  0
    0.0973   13.7152  -10.8489 H   0  0  0  0  0  0  0  0  0  0  0  0
    0.1416   15.3586  -10.1252 H   0  0  0  0  0  0  0  0  0  0  0  0
  1  2  1  0  0  0  0
  1  4  1  0  0  0  0
  1 11  1  0  0  0  0
  2  6  2  0  0  0  0
  3  4  2  0  0  0  0
  3  5  1  0  0  0  0
  5  6  1  0  0  0  0
  5  9  2  0  0  0  0
  6  7  1  0  0  0  0
  7  8  2  0  0  0  0
  7 10  1  0  0  0  0
  8  9  1  0  0  0  0
 10 12  2  0  0  0  0
 11 24  1  0  0  0  0
 12 13  1  0  0  0  0
 12 17  1  0  0  0  0
 13 14  2  0  0  0  0
 14 15  1  0  0  0  0
 15 16  1  0  0  0  0
 15 18  2  0  0  0  0
 16 17  2  0  0  0  0
 18 19  1  0  0  0  0
 18 22  1  0  0  0  0
 19 20  1  0  0  0  0
 20 21  1  0  0  0  0
 20 23  1  0  0  0  0
 21 22  2  0  0  0  0
 24 25  1  0  0  0  0
 25 26  1  0  0  0  0
 26 27  1  0  0  0  0
 27 28  2  0  0  0  0
 27 29  1  0  0  0  0
  1 30  1  0  0  0  0
  2 31  1  0  0  0  0
  3 32  1  0  0  0  0
  4 33  1  0  0  0  0
 10 34  1  0  0  0  0
 11 35  1  0  0  0  0
 13 36  1  0  0  0  0
 14 37  1  0  0  0  0
 16 38  1  0  0  0  0
 17 39  1  0  0  0  0
 19 40  1  0  0  0  0
 19 41  1  0  0  0  0
 22 42  1  0  0  0  0
 23 43  1  0  0  0  0
 23 44  1  0  0  0  0
 23 45  1  0  0  0  0
 24 46  1  0  0  0  0
 24 47  1  0  0  0  0
 25 48  1  0  0  0  0
 25 49  1  0  0  0  0
 26 50  1  0  0  0  0
 29 51  1  0  0  0  0
 29 52  1  0  0  0  0
 29 53  1  0  0  0  0
M  END
> <Name>
27

> <IC50[uM]>
0.68

$$$$
27
  -OEChem-05192314333D
 Structure written by MMmdl.
 53 56  0     1  0  0  0  0  0999 V2000
   -6.3855   12.3606  -12.0031 C   0  0  0  0  0  0  0  0  0  0  0  0
   -6.5214   11.8004  -10.7171 C   0  0  0  0  0  0  0  0  0  0  0  0
   -7.6991   10.5797  -13.0384 C   0  0  0  0  0  0  0  0  0  0  0  0
   -6.9626   11.7779  -13.1031 C   0  0  0  0  0  0  0  0  0  0  0  0
   -7.8238   10.0198  -11.7523 C   0  0  0  0  0  0  0  0  0  0  0  0
   -7.2557   10.6213  -10.5956 C   0  0  0  0  0  0  0  0  0  0  0  0
   -7.6268    9.7501   -9.5073 C   0  0  3  0  0  0  0  0  0  0  0  0
   -8.3057    8.7491   -9.9816 N   0  0  0  0  0  0  0  0  0  0  0  0
   -8.4330    8.8776  -11.2917 N   0  0  0  0  0  0  0  0  0  0  0  0
   -7.3352    9.8817   -8.0196 C   0  0  0  0  0  0  0  0  0  0  0  0
   -5.6205   13.5372  -12.2095 N   0  0  0  0  0  0  0  0  0  0  0  0
   -5.9727   10.4835   -7.7324 C   0  0  0  0  0  0  0  0  0  0  0  0
   -5.8611   11.7523   -7.1657 C   0  0  0  0  0  0  0  0  0  0  0  0
   -4.5946   12.2988   -6.9068 C   0  0  0  0  0  0  0  0  0  0  0  0
   -3.4432   11.5806   -7.2147 C   0  0  0  0  0  0  0  0  0  0  0  0
   -3.5570   10.3109   -7.7899 C   0  0  0  0  0  0  0  0  0  0  0  0
   -4.8253    9.7663   -8.0483 C   0  0  0  0  0  0  0  0  0  0  0  0
   -2.0926   12.1556   -6.9444 C   0  0  0  0  0  0  0  0  0  0  0  0
   -1.7338   13.4204   -6.4594 C   0  0  0  0  0  0  0  0  0  0  0  0
   -0.4064   13.4584   -6.4114 N   0  0  3  0  0  0  0  0  0  0  0  0
    0.1793   12.3493   -6.7865 N   0  0  0  0  0  0  0  0  0  0  0  0
   -0.7954   11.5387   -7.1512 C   0  0  0  0  0  0  0  0  0  0  0  0
    0.4205   14.5767   -6.0073 C   0  0  0  0  0  0  0  0  0  0  0  0
   -4.6894   13.8945  -11.1046 C   0  0  0  0  0  0  0  0  0  0  0  0
   -3.7822   15.1171  -11.3990 C   0  0  0  0  0  0  0  0  0  0  0  0
   -2.3310   14.9579  -11.2532 N   0  0  0  0  0  0  0  0  0  0  0  0
   -1.8099   14.4326  -10.1320 C   0  0  0  0  0  0  0  0  0  0  0  0
   -2.5019   14.0442   -9.2076 O   0  0  0  0  0  0  0  0  0  0  0  0
   -0.2869   14.3494  -10.0364 C   0  0  0  0  0  0  0  0  0  0  0  0
   -6.0716   12.2689   -9.8542 H   0  0  0  0  0  0  0  0  0  0  0  0
   -8.1374   10.1224  -13.9131 H   0  0  0  0  0  0  0  0  0  0  0  0
   -6.8466   12.2604  -14.0624 H   0  0  0  0  0  0  0  0  0  0  0  0
   -6.6939    9.1829   -9.6414 H   0  0  0  0  0  0  0  0  0  0  0  0
   -7.8268    7.8956   -9.7763 H   0  0  0  0  0  0  0  0  0  0  0  0
   -8.0269    9.5780   -7.2478 H   0  0  0  0  0  0  0  0  0  0  0  0
   -6.7507   12.3156   -6.9255 H   0  0  0  0  0  0  0  0  0  0  0  0
   -4.5132   13.2816   -6.4664 H   0  0  0  0  0  0  0  0  0  0  0  0
   -2.6683    9.7485   -8.0357 H   0  0  0  0  0  0  0  0  0  0  0  0
   -4.9092    8.7863   -8.4943 H   0  0  0  0  0  0  0  0  0  0  0  0
   -2.1095   14.2037   -7.1341 H   0  0  0  0  0  0  0  0  0  0  0  0
   -2.1522   13.5713   -5.4533 H   0  0  0  0  0  0  0  0  0  0  0  0
   -0.6475   10.5464   -7.5511 H   0  0  0  0  0  0  0  0  0  0  0  0
    1.4812   14.2962   -6.0855 H   0  0  0  0  0  0  0  0  0  0  0  0
    0.2196   15.4369   -6.6628 H   0  0  0  0  0  0  0  0  0  0  0  0
    0.1886   14.8468   -4.9665 H   0  0  0  0  0  0  0  0  0  0  0  0
   -5.2882   14.1185  -10.2095 H   0  0  0  0  0  0  0  0  0  0  0  0
   -4.0431   13.0269  -10.9057 H   0  0  0  0  0  0  0  0  0  0  0  0
   -3.9735   15.4217  -12.4385 H   0  0  0  0  0  0  0  0  0  0  0  0
   -4.0914   15.9235  -10.7178 H   0  0  0  0  0  0  0  0  0  0  0  0
   -1.7243   15.2430  -11.9952 H   0  0  0  0  0  0  0  0  0  0  0  0
   -0.0031   13.9147   -9.0666 H   0  0  0  0  0  0  0  0  0  0  0  0
    0.0973   13.7152  -10.8489 H   0  0  0  0  0  0  0  0  0  0  0  0
    0.1416   15.3586  -10.1252 H   0  0  0  0  0  0  0  0  0  0  0  0
  1  2  1  0  0  0  0
  1  4  1  0  0  0  0
  1 11  2  0  0  0  0
  2  6  2  0  0  0  0
  3  4  2  0  0  0  0
  3  5  1  0  0  0  0
  5  6  1  0  0  0  0
  5  9  2  0  0  0  0
  6  7  1  0  0  0  0
  7  8  1  0  0  0  0
  7 10  1  0  0  0  0
  8  9  1  0  0  0  0
 10 12  2  0  0  0  0
 11 24  1  0  0  0  0
 12 13  1  0  0  0  0
 12 17  1  0  0  0  0
 13 14  2  0  0  0  0
 14 15  1  0  0  0  0
 15 16  1  0  0  0  0
 15 18  2  0  0  0  0
 16 17  2  0  0  0  0
 18 19  1  0  0  0  0
 18 22  1  0  0  0  0
 19 20  1  0  0  0  0
 20 21  1  0  0  0  0
 20 23  1  0  0  0  0
 21 22  2  0  0  0  0
 24 25  1  0  0  0  0
 25 26  1  0  0  0  0
 26 27  1  0  0  0  0
 27 28  2  0  0  0  0
 27 29  1  0  0  0  0
  2 30  1  0  0  0  0
  3 31  1  0  0  0  0
  4 32  1  0  0  0  0
  7 33  1  0  0  0  0
  8 34  1  0  0  0  0
 10 35  1  0  0  0  0
 13 36  1  0  0  0  0
 14 37  1  0  0  0  0
 16 38  1  0  0  0  0
 17 39  1  0  0  0  0
 19 40  1  0  0  0  0
 19 41  1  0  0  0  0
 22 42  1  0  0  0  0
 23 43  1  0  0  0  0
 23 44  1  0  0  0  0
 23 45  1  0  0  0  0
 24 46  1  0  0  0  0
 24 47  1  0  0  0  0
 25 48  1  0  0  0  0
 25 49  1  0  0  0  0
 26 50  1  0  0  0  0
 29 51  1  0  0  0  0
 29 52  1  0  0  0  0
 29 53  1  0  0  0  0
M  END
> <Name>
27

> <IC50[uM]>
0.68

$$$$
27
  -OEChem-05192314333D
 Structure written by MMmdl.
 53 56  0     1  0  0  0  0  0999 V2000
   -6.3855   12.3606  -12.0031 C   0  0  0  0  0  0  0  0  0  0  0  0
   -6.5214   11.8004  -10.7171 C   0  0  0  0  0  0  0  0  0  0  0  0
   -7.6991   10.5797  -13.0384 C   0  0  0  0  0  0  0  0  0  0  0  0
   -6.9626   11.7779  -13.1031 C   0  0  0  0  0  0  0  0  0  0  0  0
   -7.8238   10.0198  -11.7523 C   0  0  3  0  0  0  0  0  0  0  0  0
   -7.2557   10.6213  -10.5956 C   0  0  0  0  0  0  0  0  0  0  0  0
   -7.6268    9.7501   -9.5073 C   0  0  0  0  0  0  0  0  0  0  0  0
   -8.3057    8.7491   -9.9816 N   0  0  0  0  0  0  0  0  0  0  0  0
   -8.4330    8.8776  -11.2917 N   0  0  0  0  0  0  0  0  0  0  0  0
   -7.3352    9.8817   -8.0196 C   0  0  0  0  0  0  0  0  0  0  0  0
   -5.6205   13.5372  -12.2095 N   0  0  0  0  0  0  0  0  0  0  0  0
   -5.9727   10.4835   -7.7324 C   0  0  0  0  0  0  0  0  0  0  0  0
   -5.8611   11.7523   -7.1657 C   0  0  0  0  0  0  0  0  0  0  0  0
   -4.5946   12.2988   -6.9068 C   0  0  0  0  0  0  0  0  0  0  0  0
   -3.4432   11.5806   -7.2147 C   0  0  0  0  0  0  0  0  0  0  0  0
   -3.5570   10.3109   -7.7899 C   0  0  0  0  0  0  0  0  0  0  0  0
   -4.8253    9.7663   -8.0483 C   0  0  0  0  0  0  0  0  0  0  0  0
   -2.0926   12.1556   -6.9444 C   0  0  0  0  0  0  0  0  0  0  0  0
   -1.7338   13.4204   -6.4594 C   0  0  0  0  0  0  0  0  0  0  0  0
   -0.4064   13.4584   -6.4114 N   0  0  3  0  0  0  0  0  0  0  0  0
    0.1793   12.3493   -6.7865 N   0  0  0  0  0  0  0  0  0  0  0  0
   -0.7954   11.5387   -7.1512 C   0  0  0  0  0  0  0  0  0  0  0  0
    0.4205   14.5767   -6.0073 C   0  0  0  0  0  0  0  0  0  0  0  0
   -4.6894   13.8945  -11.1046 C   0  0  0  0  0  0  0  0  0  0  0  0
   -3.7822   15.1171  -11.3990 C   0  0  0  0  0  0  0  0  0  0  0  0
   -2.3310   14.9579  -11.2532 N   0  0  0  0  0  0  0  0  0  0  0  0
   -1.8099   14.4326  -10.1320 C   0  0  0  0  0  0  0  0  0  0  0  0
   -2.5019   14.0442   -9.2076 O   0  0  0  0  0  0  0  0  0  0  0  0
   -0.2869   14.3494  -10.0364 C   0  0  0  0  0  0  0  0  0  0  0  0
   -6.0716   12.2689   -9.8542 H   0  0  0  0  0  0  0  0  0  0  0  0
   -8.1374   10.1224  -13.9131 H   0  0  0  0  0  0  0  0  0  0  0  0
   -6.8466   12.2604  -14.0624 H   0  0  0  0  0  0  0  0  0  0  0  0
   -8.7543   10.5845  -11.5930 H   0  0  0  0  0  0  0  0  0  0  0  0
   -9.4057    8.9143  -11.5206 H   0  0  0  0  0  0  0  0  0  0  0  0
   -8.0269    9.5780   -7.2478 H   0  0  0  0  0  0  0  0  0  0  0  0
   -6.7507   12.3156   -6.9255 H   0  0  0  0  0  0  0  0  0  0  0  0
   -4.5132   13.2816   -6.4664 H   0  0  0  0  0  0  0  0  0  0  0  0
   -2.6683    9.7485   -8.0357 H   0  0  0  0  0  0  0  0  0  0  0  0
   -4.9092    8.7863   -8.4943 H   0  0  0  0  0  0  0  0  0  0  0  0
   -2.1095   14.2037   -7.1341 H   0  0  0  0  0  0  0  0  0  0  0  0
   -2.1522   13.5713   -5.4533 H   0  0  0  0  0  0  0  0  0  0  0  0
   -0.6475   10.5464   -7.5511 H   0  0  0  0  0  0  0  0  0  0  0  0
    1.4812   14.2962   -6.0855 H   0  0  0  0  0  0  0  0  0  0  0  0
    0.2196   15.4369   -6.6628 H   0  0  0  0  0  0  0  0  0  0  0  0
    0.1886   14.8468   -4.9665 H   0  0  0  0  0  0  0  0  0  0  0  0
   -5.2882   14.1185  -10.2095 H   0  0  0  0  0  0  0  0  0  0  0  0
   -4.0431   13.0269  -10.9057 H   0  0  0  0  0  0  0  0  0  0  0  0
   -3.9735   15.4217  -12.4385 H   0  0  0  0  0  0  0  0  0  0  0  0
   -4.0914   15.9235  -10.7178 H   0  0  0  0  0  0  0  0  0  0  0  0
   -1.7243   15.2430  -11.9952 H   0  0  0  0  0  0  0  0  0  0  0  0
   -0.0031   13.9147   -9.0666 H   0  0  0  0  0  0  0  0  0  0  0  0
    0.0973   13.7152  -10.8489 H   0  0  0  0  0  0  0  0  0  0  0  0
    0.1416   15.3586  -10.1252 H   0  0  0  0  0  0  0  0  0  0  0  0
  1  2  1  0  0  0  0
  1  4  1  0  0  0  0
  1 11  2  0  0  0  0
  2  6  2  0  0  0  0
  3  4  2  0  0  0  0
  3  5  1  0  0  0  0
  5  6  1  0  0  0  0
  5  9  1  0  0  0  0
  6  7  1  0  0  0  0
  7  8  2  0  0  0  0
  7 10  1  0  0  0  0
  8  9  1  0  0  0  0
 10 12  2  0  0  0  0
 11 24  1  0  0  0  0
 12 13  1  0  0  0  0
 12 17  1  0  0  0  0
 13 14  2  0  0  0  0
 14 15  1  0  0  0  0
 15 16  1  0  0  0  0
 15 18  2  0  0  0  0
 16 17  2  0  0  0  0
 18 19  1  0  0  0  0
 18 22  1  0  0  0  0
 19 20  1  0  0  0  0
 20 21  1  0  0  0  0
 20 23  1  0  0  0  0
 21 22  2  0  0  0  0
 24 25  1  0  0  0  0
 25 26  1  0  0  0  0
 26 27  1  0  0  0  0
 27 28  2  0  0  0  0
 27 29  1  0  0  0  0
  2 30  1  0  0  0  0
  3 31  1  0  0  0  0
  4 32  1  0  0  0  0
  5 33  1  0  0  0  0
  9 34  1  0  0  0  0
 10 35  1  0  0  0  0
 13 36  1  0  0  0  0
 14 37  1  0  0  0  0
 16 38  1  0  0  0  0
 17 39  1  0  0  0  0
 19 40  1  0  0  0  0
 19 41  1  0  0  0  0
 22 42  1  0  0  0  0
 23 43  1  0  0  0  0
 23 44  1  0  0  0  0
 23 45  1  0  0  0  0
 24 46  1  0  0  0  0
 24 47  1  0  0  0  0
 25 48  1  0  0  0  0
 25 49  1  0  0  0  0
 26 50  1  0  0  0  0
 29 51  1  0  0  0  0
 29 52  1  0  0  0  0
 29 53  1  0  0  0  0
M  END
> <Name>
27

> <IC50[uM]>
0.68

$$$$
27
  -OEChem-05192314333D
 Structure written by MMmdl.
 53 56  0     1  0  0  0  0  0999 V2000
   -6.3855   12.3606  -12.0031 C   0  0  0  0  0  0  0  0  0  0  0  0
   -6.5214   11.8004  -10.7171 C   0  0  0  0  0  0  0  0  0  0  0  0
   -7.6991   10.5797  -13.0384 C   0  0  0  0  0  0  0  0  0  0  0  0
   -6.9626   11.7779  -13.1031 C   0  0  0  0  0  0  0  0  0  0  0  0
   -7.8238   10.0198  -11.7523 C   0  0  0  0  0  0  0  0  0  0  0  0
   -7.2557   10.6213  -10.5956 C   0  0  0  0  0  0  0  0  0  0  0  0
   -7.6268    9.7501   -9.5073 C   0  0  0  0  0  0  0  0  0  0  0  0
   -8.3057    8.7491   -9.9816 N   0  0  0  0  0  0  0  0  0  0  0  0
   -8.4330    8.8776  -11.2917 N   0  0  0  0  0  0  0  0  0  0  0  0
   -7.3352    9.8817   -8.0196 C   0  0  0  0  0  0  0  0  0  0  0  0
   -5.6205   13.5372  -12.2095 N   0  0  0  0  0  0  0  0  0  0  0  0
   -5.9727   10.4835   -7.7324 C   0  0  0  0  0  0  0  0  0  0  0  0
   -5.8611   11.7523   -7.1657 C   0  0  0  0  0  0  0  0  0  0  0  0
   -4.5946   12.2988   -6.9068 C   0  0  0  0  0  0  0  0  0  0  0  0
   -3.4432   11.5806   -7.2147 C   0  0  0  0  0  0  0  0  0  0  0  0
   -3.5570   10.3109   -7.7899 C   0  0  0  0  0  0  0  0  0  0  0  0
   -4.8253    9.7663   -8.0483 C   0  0  0  0  0  0  0  0  0  0  0  0
   -2.0926   12.1556   -6.9444 C   0  0  0  0  0  0  0  0  0  0  0  0
   -1.7338   13.4204   -6.4594 C   0  0  0  0  0  0  0  0  0  0  0  0
   -0.4064   13.4584   -6.4114 N   0  0  3  0  0  0  0  0  0  0  0  0
    0.1793   12.3493   -6.7865 N   0  0  0  0  0  0  0  0  0  0  0  0
   -0.7954   11.5387   -7.1512 C   0  0  0  0  0  0  0  0  0  0  0  0
    0.4205   14.5767   -6.0073 C   0  0  0  0  0  0  0  0  0  0  0  0
   -4.6894   13.8945  -11.1046 C   0  0  0  0  0  0  0  0  0  0  0  0
   -3.7822   15.1171  -11.3990 C   0  0  0  0  0  0  0  0  0  0  0  0
   -2.3310   14.9579  -11.2532 N   0  0  0  0  0  0  0  0  0  0  0  0
   -1.8099   14.4326  -10.1320 C   0  0  0  0  0  0  0  0  0  0  0  0
   -2.5019   14.0442   -9.2076 O   0  0  0  0  0  0  0  0  0  0  0  0
   -0.2869   14.3494  -10.0364 C   0  0  0  0  0  0  0  0  0  0  0  0
   -6.0716   12.2689   -9.8542 H   0  0  0  0  0  0  0  0  0  0  0  0
   -8.7105   10.7812  -13.4211 H   0  0  0  0  0  0  0  0  0  0  0  0
   -7.2031    9.8404  -13.6845 H   0  0  0  0  0  0  0  0  0  0  0  0
   -6.8466   12.2604  -14.0624 H   0  0  0  0  0  0  0  0  0  0  0  0
   -8.0269    9.5780   -7.2478 H   0  0  0  0  0  0  0  0  0  0  0  0
   -5.0791   13.4115  -13.0408 H   0  0  0  0  0  0  0  0  0  0  0  0
   -6.7507   12.3156   -6.9255 H   0  0  0  0  0  0  0  0  0  0  0  0
   -4.5132   13.2816   -6.4664 H   0  0  0  0  0  0  0  0  0  0  0  0
   -2.6683    9.7485   -8.0357 H   0  0  0  0  0  0  0  0  0  0  0  0
   -4.9092    8.7863   -8.4943 H   0  0  0  0  0  0  0  0  0  0  0  0
   -2.1095   14.2037   -7.1341 H   0  0  0  0  0  0  0  0  0  0  0  0
   -2.1522   13.5713   -5.4533 H   0  0  0  0  0  0  0  0  0  0  0  0
   -0.6475   10.5464   -7.5511 H   0  0  0  0  0  0  0  0  0  0  0  0
    1.4812   14.2962   -6.0855 H   0  0  0  0  0  0  0  0  0  0  0  0
    0.2196   15.4369   -6.6628 H   0  0  0  0  0  0  0  0  0  0  0  0
    0.1886   14.8468   -4.9665 H   0  0  0  0  0  0  0  0  0  0  0  0
   -5.2882   14.1185  -10.2095 H   0  0  0  0  0  0  0  0  0  0  0  0
   -4.0431   13.0269  -10.9057 H   0  0  0  0  0  0  0  0  0  0  0  0
   -3.9735   15.4217  -12.4385 H   0  0  0  0  0  0  0  0  0  0  0  0
   -4.0914   15.9235  -10.7178 H   0  0  0  0  0  0  0  0  0  0  0  0
   -1.7243   15.2430  -11.9952 H   0  0  0  0  0  0  0  0  0  0  0  0
   -0.0031   13.9147   -9.0666 H   0  0  0  0  0  0  0  0  0  0  0  0
    0.0973   13.7152  -10.8489 H   0  0  0  0  0  0  0  0  0  0  0  0
    0.1416   15.3586  -10.1252 H   0  0  0  0  0  0  0  0  0  0  0  0
  1  2  1  0  0  0  0
  1  4  2  0  0  0  0
  1 11  1  0  0  0  0
  2  6  2  0  0  0  0
  3  4  1  0  0  0  0
  3  5  1  0  0  0  0
  5  6  1  0  0  0  0
  5  9  2  0  0  0  0
  6  7  1  0  0  0  0
  7  8  2  0  0  0  0
  7 10  1  0  0  0  0
  8  9  1  0  0  0  0
 10 12  2  0  0  0  0
 11 24  1  0  0  0  0
 12 13  1  0  0  0  0
 12 17  1  0  0  0  0
 13 14  2  0  0  0  0
 14 15  1  0  0  0  0
 15 16  1  0  0  0  0
 15 18  2  0  0  0  0
 16 17  2  0  0  0  0
 18 19  1  0  0  0  0
 18 22  1  0  0  0  0
 19 20  1  0  0  0  0
 20 21  1  0  0  0  0
 20 23  1  0  0  0  0
 21 22  2  0  0  0  0
 24 25  1  0  0  0  0
 25 26  1  0  0  0  0
 26 27  1  0  0  0  0
 27 28  2  0  0  0  0
 27 29  1  0  0  0  0
  2 30  1  0  0  0  0
  3 31  1  0  0  0  0
  3 32  1  0  0  0  0
  4 33  1  0  0  0  0
 10 34  1  0  0  0  0
 11 35  1  0  0  0  0
 13 36  1  0  0  0  0
 14 37  1  0  0  0  0
 16 38  1  0  0  0  0
 17 39  1  0  0  0  0
 19 40  1  0  0  0  0
 19 41  1  0  0  0  0
 22 42  1  0  0  0  0
 23 43  1  0  0  0  0
 23 44  1  0  0  0  0
 23 45  1  0  0  0  0
 24 46  1  0  0  0  0
 24 47  1  0  0  0  0
 25 48  1  0  0  0  0
 25 49  1  0  0  0  0
 26 50  1  0  0  0  0
 29 51  1  0  0  0  0
 29 52  1  0  0  0  0
 29 53  1  0  0  0  0
M  END
> <Name>
27

> <IC50[uM]>
0.68

$$$$
27
  -OEChem-05192314333D
 Structure written by MMmdl.
 53 56  0     1  0  0  0  0  0999 V2000
   -6.3855   12.3606  -12.0031 C   0  0  0  0  0  0  0  0  0  0  0  0
   -6.5214   11.8004  -10.7171 C   0  0  0  0  0  0  0  0  0  0  0  0
   -7.6991   10.5797  -13.0384 C   0  0  0  0  0  0  0  0  0  0  0  0
   -6.9626   11.7779  -13.1031 C   0  0  0  0  0  0  0  0  0  0  0  0
   -7.8238   10.0198  -11.7523 C   0  0  0  0  0  0  0  0  0  0  0  0
   -7.2557   10.6213  -10.5956 C   0  0  0  0  0  0  0  0  0  0  0  0
   -7.6268    9.7501   -9.5073 C   0  0  0  0  0  0  0  0  0  0  0  0
   -8.3057    8.7491   -9.9816 N   0  0  0  0  0  0  0  0  0  0  0  0
   -8.4330    8.8776  -11.2917 N   0  0  0  0  0  0  0  0  0  0  0  0
   -7.3352    9.8817   -8.0196 C   0  0  0  0  0  0  0  0  0  0  0  0
   -5.6205   13.5372  -12.2095 N   0  0  0  0  0  0  0  0  0  0  0  0
   -5.9727   10.4835   -7.7324 C   0  0  0  0  0  0  0  0  0  0  0  0
   -5.8611   11.7523   -7.1657 C   0  0  0  0  0  0  0  0  0  0  0  0
   -4.5946   12.2988   -6.9068 C   0  0  0  0  0  0  0  0  0  0  0  0
   -3.4432   11.5806   -7.2147 C   0  0  0  0  0  0  0  0  0  0  0  0
   -3.5570   10.3109   -7.7899 C   0  0  0  0  0  0  0  0  0  0  0  0
   -4.8253    9.7663   -8.0483 C   0  0  0  0  0  0  0  0  0  0  0  0
   -2.0926   12.1556   -6.9444 C   0  0  0  0  0  0  0  0  0  0  0  0
   -1.7338   13.4204   -6.4594 C   0  0  0  0  0  0  0  0  0  0  0  0
   -0.4064   13.4584   -6.4114 N   0  0  3  0  0  0  0  0  0  0  0  0
    0.1793   12.3493   -6.7865 N   0  0  0  0  0  0  0  0  0  0  0  0
   -0.7954   11.5387   -7.1512 C   0  0  0  0  0  0  0  0  0  0  0  0
    0.4205   14.5767   -6.0073 C   0  0  0  0  0  0  0  0  0  0  0  0
   -4.6894   13.8945  -11.1046 C   0  0  0  0  0  0  0  0  0  0  0  0
   -3.7822   15.1171  -11.3990 C   0  0  0  0  0  0  0  0  0  0  0  0
   -2.3310   14.9579  -11.2532 N   0  0  0  0  0  0  0  0  0  0  0  0
   -1.8099   14.4326  -10.1320 C   0  0  0  0  0  0  0  0  0  0  0  0
   -2.5019   14.0442   -9.2076 O   0  0  0  0  0  0  0  0  0  0  0  0
   -0.2869   14.3494  -10.0364 C   0  0  0  0  0  0  0  0  0  0  0  0
   -6.0716   12.2689   -9.8542 H   0  0  0  0  0  0  0  0  0  0  0  0
   -8.1374   10.1224  -13.9131 H   0  0  0  0  0  0  0  0  0  0  0  0
   -6.8466   12.2604  -14.0624 H   0  0  0  0  0  0  0  0  0  0  0  0
   -8.0269    9.5780   -7.2478 H   0  0  0  0  0  0  0  0  0  0  0  0
   -6.7507   12.3156   -6.9255 H   0  0  0  0  0  0  0  0  0  0  0  0
   -4.5132   13.2816   -6.4664 H   0  0  0  0  0  0  0  0  0  0  0  0
   -2.6683    9.7485   -8.0357 H   0  0  0  0  0  0  0  0  0  0  0  0
   -4.9092    8.7863   -8.4943 H   0  0  0  0  0  0  0  0  0  0  0  0
   -2.1095   14.2037   -7.1341 H   0  0  0  0  0  0  0  0  0  0  0  0
   -2.1522   13.5713   -5.4533 H   0  0  0  0  0  0  0  0  0  0  0  0
    0.7951   12.5225   -7.5551 H   0  0  0  0  0  0  0  0  0  0  0  0
   -0.7373   10.6160   -6.5552 H   0  0  0  0  0  0  0  0  0  0  0  0
   -0.6796   11.2945   -8.2175 H   0  0  0  0  0  0  0  0  0  0  0  0
    1.4810   14.2930   -6.0763 H   0  0  0  0  0  0  0  0  0  0  0  0
    0.2266   15.4339   -6.6689 H   0  0  0  0  0  0  0  0  0  0  0  0
    0.1818   14.8530   -4.9697 H   0  0  0  0  0  0  0  0  0  0  0  0
   -5.2882   14.1185  -10.2095 H   0  0  0  0  0  0  0  0  0  0  0  0
   -4.0431   13.0269  -10.9057 H   0  0  0  0  0  0  0  0  0  0  0  0
   -3.9735   15.4217  -12.4385 H   0  0  0  0  0  0  0  0  0  0  0  0
   -4.0914   15.9235  -10.7178 H   0  0  0  0  0  0  0  0  0  0  0  0
   -1.7243   15.2430  -11.9952 H   0  0  0  0  0  0  0  0  0  0  0  0
   -0.0031   13.9147   -9.0666 H   0  0  0  0  0  0  0  0  0  0  0  0
    0.0973   13.7152  -10.8489 H   0  0  0  0  0  0  0  0  0  0  0  0
    0.1416   15.3586  -10.1252 H   0  0  0  0  0  0  0  0  0  0  0  0
  1  2  1  0  0  0  0
  1  4  1  0  0  0  0
  1 11  2  0  0  0  0
  2  6  2  0  0  0  0
  3  4  2  0  0  0  0
  3  5  1  0  0  0  0
  5  6  1  0  0  0  0
  5  9  2  0  0  0  0
  6  7  1  0  0  0  0
  7  8  2  0  0  0  0
  7 10  1  0  0  0  0
  8  9  1  0  0  0  0
 10 12  2  0  0  0  0
 11 24  1  0  0  0  0
 12 13  1  0  0  0  0
 12 17  1  0  0  0  0
 13 14  2  0  0  0  0
 14 15  1  0  0  0  0
 15 16  1  0  0  0  0
 15 18  2  0  0  0  0
 16 17  2  0  0  0  0
 18 19  1  0  0  0  0
 18 22  1  0  0  0  0
 19 20  1  0  0  0  0
 20 21  1  0  0  0  0
 20 23  1  0  0  0  0
 21 22  1  0  0  0  0
 24 25  1  0  0  0  0
 25 26  1  0  0  0  0
 26 27  1  0  0  0  0
 27 28  2  0  0  0  0
 27 29  1  0  0  0  0
  2 30  1  0  0  0  0
  3 31  1  0  0  0  0
  4 32  1  0  0  0  0
 10 33  1  0  0  0  0
 13 34  1  0  0  0  0
 14 35  1  0  0  0  0
 16 36  1  0  0  0  0
 17 37  1  0  0  0  0
 19 38  1  0  0  0  0
 19 39  1  0  0  0  0
 21 40  1  0  0  0  0
 22 41  1  0  0  0  0
 22 42  1  0  0  0  0
 23 43  1  0  0  0  0
 23 44  1  0  0  0  0
 23 45  1  0  0  0  0
 24 46  1  0  0  0  0
 24 47  1  0  0  0  0
 25 48  1  0  0  0  0
 25 49  1  0  0  0  0
 26 50  1  0  0  0  0
 29 51  1  0  0  0  0
 29 52  1  0  0  0  0
 29 53  1  0  0  0  0
M  END
> <Name>
27

> <IC50[uM]>
0.68

$$$$
27
  -OEChem-05192314333D
 Structure written by MMmdl.
 53 56  0     1  0  0  0  0  0999 V2000
   -6.3855   12.3606  -12.0031 C   0  0  0  0  0  0  0  0  0  0  0  0
   -6.5214   11.8004  -10.7171 C   0  0  0  0  0  0  0  0  0  0  0  0
   -7.6991   10.5797  -13.0384 C   0  0  0  0  0  0  0  0  0  0  0  0
   -6.9626   11.7779  -13.1031 C   0  0  0  0  0  0  0  0  0  0  0  0
   -7.8238   10.0198  -11.7523 C   0  0  3  0  0  0  0  0  0  0  0  0
   -7.2557   10.6213  -10.5956 C   0  0  0  0  0  0  0  0  0  0  0  0
   -7.6268    9.7501   -9.5073 C   0  0  3  0  0  0  0  0  0  0  0  0
   -8.3057    8.7491   -9.9816 N   0  0  0  0  0  0  0  0  0  0  0  0
   -8.4330    8.8776  -11.2917 N   0  0  0  0  0  0  0  0  0  0  0  0
   -7.3352    9.8817   -8.0196 C   0  0  0  0  0  0  0  0  0  0  0  0
   -5.6205   13.5372  -12.2095 N   0  0  0  0  0  0  0  0  0  0  0  0
   -5.9727   10.4835   -7.7324 C   0  0  0  0  0  0  0  0  0  0  0  0
   -5.8611   11.7523   -7.1657 C   0  0  0  0  0  0  0  0  0  0  0  0
   -4.5946   12.2988   -6.9068 C   0  0  0  0  0  0  0  0  0  0  0  0
   -3.4432   11.5806   -7.2147 C   0  0  0  0  0  0  0  0  0  0  0  0
   -3.5570   10.3109   -7.7899 C   0  0  0  0  0  0  0  0  0  0  0  0
   -4.8253    9.7663   -8.0483 C   0  0  0  0  0  0  0  0  0  0  0  0
   -2.0926   12.1556   -6.9444 C   0  0  0  0  0  0  0  0  0  0  0  0
   -1.7338   13.4204   -6.4594 C   0  0  0  0  0  0  0  0  0  0  0  0
   -0.4064   13.4584   -6.4114 N   0  0  3  0  0  0  0  0  0  0  0  0
    0.1793   12.3493   -6.7865 N   0  0  0  0  0  0  0  0  0  0  0  0
   -0.7954   11.5387   -7.1512 C   0  0  0  0  0  0  0  0  0  0  0  0
    0.4205   14.5767   -6.0073 C   0  0  0  0  0  0  0  0  0  0  0  0
   -4.6894   13.8945  -11.1046 C   0  0  0  0  0  0  0  0  0  0  0  0
   -3.7822   15.1171  -11.3990 C   0  0  0  0  0  0  0  0  0  0  0  0
   -2.3310   14.9579  -11.2532 N   0  0  0  0  0  0  0  0  0  0  0  0
   -1.8099   14.4326  -10.1320 C   0  0  0  0  0  0  0  0  0  0  0  0
   -2.5019   14.0442   -9.2076 O   0  0  0  0  0  0  0  0  0  0  0  0
   -0.2869   14.3494  -10.0364 C   0  0  0  0  0  0  0  0  0  0  0  0
   -6.0716   12.2689   -9.8542 H   0  0  0  0  0  0  0  0  0  0  0  0
   -8.1374   10.1224  -13.9131 H   0  0  0  0  0  0  0  0  0  0  0  0
   -6.8466   12.2604  -14.0624 H   0  0  0  0  0  0  0  0  0  0  0  0
   -8.7543   10.5845  -11.5930 H   0  0  0  0  0  0  0  0  0  0  0  0
   -6.6939    9.1829   -9.6414 H   0  0  0  0  0  0  0  0  0  0  0  0
   -8.0269    9.5780   -7.2478 H   0  0  0  0  0  0  0  0  0  0  0  0
   -6.7507   12.3156   -6.9255 H   0  0  0  0  0  0  0  0  0  0  0  0
   -4.5132   13.2816   -6.4664 H   0  0  0  0  0  0  0  0  0  0  0  0
   -2.6683    9.7485   -8.0357 H   0  0  0  0  0  0  0  0  0  0  0  0
   -4.9092    8.7863   -8.4943 H   0  0  0  0  0  0  0  0  0  0  0  0
   -2.1095   14.2037   -7.1341 H   0  0  0  0  0  0  0  0  0  0  0  0
   -2.1522   13.5713   -5.4533 H   0  0  0  0  0  0  0  0  0  0  0  0
   -0.6475   10.5464   -7.5511 H   0  0  0  0  0  0  0  0  0  0  0  0
    1.4812   14.2962   -6.0855 H   0  0  0  0  0  0  0  0  0  0  0  0
    0.2196   15.4369   -6.6628 H   0  0  0  0  0  0  0  0  0  0  0  0
    0.1886   14.8468   -4.9665 H   0  0  0  0  0  0  0  0  0  0  0  0
   -5.2882   14.1185  -10.2095 H   0  0  0  0  0  0  0  0  0  0  0  0
   -4.0431   13.0269  -10.9057 H   0  0  0  0  0  0  0  0  0  0  0  0
   -3.9735   15.4217  -12.4385 H   0  0  0  0  0  0  0  0  0  0  0  0
   -4.0914   15.9235  -10.7178 H   0  0  0  0  0  0  0  0  0  0  0  0
   -1.9457   13.7098   -8.5138 H   0  0  0  0  0  0  0  0  0  0  0  0
   -0.0034   13.9020   -9.0723 H   0  0  0  0  0  0  0  0  0  0  0  0
    0.0984   13.7264  -10.8570 H   0  0  0  0  0  0  0  0  0  0  0  0
    0.1408   15.3601  -10.1114 H   0  0  0  0  0  0  0  0  0  0  0  0
  1  2  1  0  0  0  0
  1  4  1  0  0  0  0
  1 11  2  0  0  0  0
  2  6  2  0  0  0  0
  3  4  2  0  0  0  0
  3  5  1  0  0  0  0
  5  6  1  0  0  0  0
  5  9  1  0  0  0  0
  6  7  1  0  0  0  0
  7  8  1  0  0  0  0
  7 10  1  0  0  0  0
  8  9  2  0  0  0  0
 10 12  2  0  0  0  0
 11 24  1  0  0  0  0
 12 13  1  0  0  0  0
 12 17  1  0  0  0  0
 13 14  2  0  0  0  0
 14 15  1  0  0  0  0
 15 16  1  0  0  0  0
 15 18  2  0  0  0  0
 16 17  2  0  0  0  0
 18 19  1  0  0  0  0
 18 22  1  0  0  0  0
 19 20  1  0  0  0  0
 20 21  1  0  0  0  0
 20 23  1  0  0  0  0
 21 22  2  0  0  0  0
 24 25  1  0  0  0  0
 25 26  1  0  0  0  0
 26 27  2  0  0  0  0
 27 28  1  0  0  0  0
 27 29  1  0  0  0  0
  2 30  1  0  0  0  0
  3 31  1  0  0  0  0
  4 32  1  0  0  0  0
  5 33  1  0  0  0  0
  7 34  1  0  0  0  0
 10 35  1  0  0  0  0
 13 36  1  0  0  0  0
 14 37  1  0  0  0  0
 16 38  1  0  0  0  0
 17 39  1  0  0  0  0
 19 40  1  0  0  0  0
 19 41  1  0  0  0  0
 22 42  1  0  0  0  0
 23 43  1  0  0  0  0
 23 44  1  0  0  0  0
 23 45  1  0  0  0  0
 24 46  1  0  0  0  0
 24 47  1  0  0  0  0
 25 48  1  0  0  0  0
 25 49  1  0  0  0  0
 28 50  1  0  0  0  0
 29 51  1  0  0  0  0
 29 52  1  0  0  0  0
 29 53  1  0  0  0  0
M  END
> <Name>
27

> <IC50[uM]>
0.68

$$$$
27
  -OEChem-05192314333D
 Structure written by MMmdl.
 53 56  0     1  0  0  0  0  0999 V2000
   -6.3855   12.3606  -12.0031 C   0  0  0  0  0  0  0  0  0  0  0  0
   -6.5214   11.8004  -10.7171 C   0  0  0  0  0  0  0  0  0  0  0  0
   -7.6991   10.5797  -13.0384 C   0  0  0  0  0  0  0  0  0  0  0  0
   -6.9626   11.7779  -13.1031 C   0  0  0  0  0  0  0  0  0  0  0  0
   -7.8238   10.0198  -11.7523 C   0  0  0  0  0  0  0  0  0  0  0  0
   -7.2557   10.6213  -10.5956 C   0  0  0  0  0  0  0  0  0  0  0  0
   -7.6268    9.7501   -9.5073 C   0  0  3  0  0  0  0  0  0  0  0  0
   -8.3057    8.7491   -9.9816 N   0  0  0  0  0  0  0  0  0  0  0  0
   -8.4330    8.8776  -11.2917 N   0  0  0  0  0  0  0  0  0  0  0  0
   -7.3352    9.8817   -8.0196 C   0  0  0  0  0  0  0  0  0  0  0  0
   -5.6205   13.5372  -12.2095 N   0  0  0  0  0  0  0  0  0  0  0  0
   -5.9727   10.4835   -7.7324 C   0  0  0  0  0  0  0  0  0  0  0  0
   -5.8611   11.7523   -7.1657 C   0  0  0  0  0  0  0  0  0  0  0  0
   -4.5946   12.2988   -6.9068 C   0  0  0  0  0  0  0  0  0  0  0  0
   -3.4432   11.5806   -7.2147 C   0  0  0  0  0  0  0  0  0  0  0  0
   -3.5570   10.3109   -7.7899 C   0  0  0  0  0  0  0  0  0  0  0  0
   -4.8253    9.7663   -8.0483 C   0  0  0  0  0  0  0  0  0  0  0  0
   -2.0926   12.1556   -6.9444 C   0  0  0  0  0  0  0  0  0  0  0  0
   -1.7338   13.4204   -6.4594 C   0  0  0  0  0  0  0  0  0  0  0  0
   -0.4064   13.4584   -6.4114 N   0  0  3  0  0  0  0  0  0  0  0  0
    0.1793   12.3493   -6.7865 N   0  0  0  0  0  0  0  0  0  0  0  0
   -0.7954   11.5387   -7.1512 C   0  0  0  0  0  0  0  0  0  0  0  0
    0.4205   14.5767   -6.0073 C   0  0  0  0  0  0  0  0  0  0  0  0
   -4.6894   13.8945  -11.1046 C   0  0  0  0  0  0  0  0  0  0  0  0
   -3.7822   15.1171  -11.3990 C   0  0  0  0  0  0  0  0  0  0  0  0
   -2.3310   14.9579  -11.2532 N   0  0  0  0  0  0  0  0  0  0  0  0
   -1.8099   14.4326  -10.1320 C   0  0  0  0  0  0  0  0  0  0  0  0
   -2.5019   14.0442   -9.2076 O   0  0  0  0  0  0  0  0  0  0  0  0
   -0.2869   14.3494  -10.0364 C   0  0  0  0  0  0  0  0  0  0  0  0
   -6.0716   12.2689   -9.8542 H   0  0  0  0  0  0  0  0  0  0  0  0
   -8.1374   10.1224  -13.9131 H   0  0  0  0  0  0  0  0  0  0  0  0
   -7.6459   12.5314  -13.5218 H   0  0  0  0  0  0  0  0  0  0  0  0
   -6.1429   11.5918  -13.8126 H   0  0  0  0  0  0  0  0  0  0  0  0
   -6.6939    9.1829   -9.6414 H   0  0  0  0  0  0  0  0  0  0  0  0
   -8.0269    9.5780   -7.2478 H   0  0  0  0  0  0  0  0  0  0  0  0
   -6.7507   12.3156   -6.9255 H   0  0  0  0  0  0  0  0  0  0  0  0
   -4.5132   13.2816   -6.4664 H   0  0  0  0  0  0  0  0  0  0  0  0
   -2.6683    9.7485   -8.0357 H   0  0  0  0  0  0  0  0  0  0  0  0
   -4.9092    8.7863   -8.4943 H   0  0  0  0  0  0  0  0  0  0  0  0
   -2.1095   14.2037   -7.1341 H   0  0  0  0  0  0  0  0  0  0  0  0
   -2.1522   13.5713   -5.4533 H   0  0  0  0  0  0  0  0  0  0  0  0
   -0.6475   10.5464   -7.5511 H   0  0  0  0  0  0  0  0  0  0  0  0
    1.4812   14.2962   -6.0855 H   0  0  0  0  0  0  0  0  0  0  0  0
    0.2196   15.4369   -6.6628 H   0  0  0  0  0  0  0  0  0  0  0  0
    0.1886   14.8468   -4.9665 H   0  0  0  0  0  0  0  0  0  0  0  0
   -5.2882   14.1185  -10.2095 H   0  0  0  0  0  0  0  0  0  0  0  0
   -4.0431   13.0269  -10.9057 H   0  0  0  0  0  0  0  0  0  0  0  0
   -3.9735   15.4217  -12.4385 H   0  0  0  0  0  0  0  0  0  0  0  0
   -4.0914   15.9235  -10.7178 H   0  0  0  0  0  0  0  0  0  0  0  0
   -1.9457   13.7098   -8.5138 H   0  0  0  0  0  0  0  0  0  0  0  0
   -0.0034   13.9020   -9.0723 H   0  0  0  0  0  0  0  0  0  0  0  0
    0.0984   13.7264  -10.8570 H   0  0  0  0  0  0  0  0  0  0  0  0
    0.1408   15.3601  -10.1114 H   0  0  0  0  0  0  0  0  0  0  0  0
  1  2  1  0  0  0  0
  1  4  1  0  0  0  0
  1 11  2  0  0  0  0
  2  6  2  0  0  0  0
  3  4  1  0  0  0  0
  3  5  2  0  0  0  0
  5  6  1  0  0  0  0
  5  9  1  0  0  0  0
  6  7  1  0  0  0  0
  7  8  1  0  0  0  0
  7 10  1  0  0  0  0
  8  9  2  0  0  0  0
 10 12  2  0  0  0  0
 11 24  1  0  0  0  0
 12 13  1  0  0  0  0
 12 17  1  0  0  0  0
 13 14  2  0  0  0  0
 14 15  1  0  0  0  0
 15 16  1  0  0  0  0
 15 18  2  0  0  0  0
 16 17  2  0  0  0  0
 18 19  1  0  0  0  0
 18 22  1  0  0  0  0
 19 20  1  0  0  0  0
 20 21  1  0  0  0  0
 20 23  1  0  0  0  0
 21 22  2  0  0  0  0
 24 25  1  0  0  0  0
 25 26  1  0  0  0  0
 26 27  2  0  0  0  0
 27 28  1  0  0  0  0
 27 29  1  0  0  0  0
  2 30  1  0  0  0  0
  3 31  1  0  0  0  0
  4 32  1  0  0  0  0
  4 33  1  0  0  0  0
  7 34  1  0  0  0  0
 10 35  1  0  0  0  0
 13 36  1  0  0  0  0
 14 37  1  0  0  0  0
 16 38  1  0  0  0  0
 17 39  1  0  0  0  0
 19 40  1  0  0  0  0
 19 41  1  0  0  0  0
 22 42  1  0  0  0  0
 23 43  1  0  0  0  0
 23 44  1  0  0  0  0
 23 45  1  0  0  0  0
 24 46  1  0  0  0  0
 24 47  1  0  0  0  0
 25 48  1  0  0  0  0
 25 49  1  0  0  0  0
 28 50  1  0  0  0  0
 29 51  1  0  0  0  0
 29 52  1  0  0  0  0
 29 53  1  0  0  0  0
M  END
> <Name>
27

> <IC50[uM]>
0.68

$$$$
27
  -OEChem-05192314333D
 Structure written by MMmdl.
 53 56  0     1  0  0  0  0  0999 V2000
   -6.3855   12.3606  -12.0031 C   0  0  0  0  0  0  0  0  0  0  0  0
   -6.5214   11.8004  -10.7171 C   0  0  0  0  0  0  0  0  0  0  0  0
   -7.6991   10.5797  -13.0384 C   0  0  0  0  0  0  0  0  0  0  0  0
   -6.9626   11.7779  -13.1031 C   0  0  0  0  0  0  0  0  0  0  0  0
   -7.8238   10.0198  -11.7523 C   0  0  0  0  0  0  0  0  0  0  0  0
   -7.2557   10.6213  -10.5956 C   0  0  0  0  0  0  0  0  0  0  0  0
   -7.6268    9.7501   -9.5073 C   0  0  3  0  0  0  0  0  0  0  0  0
   -8.3057    8.7491   -9.9816 N   0  0  0  0  0  0  0  0  0  0  0  0
   -8.4330    8.8776  -11.2917 N   0  0  0  0  0  0  0  0  0  0  0  0
   -7.3352    9.8817   -8.0196 C   0  0  0  0  0  0  0  0  0  0  0  0
   -5.6205   13.5372  -12.2095 N   0  0  0  0  0  0  0  0  0  0  0  0
   -5.9727   10.4835   -7.7324 C   0  0  0  0  0  0  0  0  0  0  0  0
   -5.8611   11.7523   -7.1657 C   0  0  0  0  0  0  0  0  0  0  0  0
   -4.5946   12.2988   -6.9068 C   0  0  0  0  0  0  0  0  0  0  0  0
   -3.4432   11.5806   -7.2147 C   0  0  0  0  0  0  0  0  0  0  0  0
   -3.5570   10.3109   -7.7899 C   0  0  0  0  0  0  0  0  0  0  0  0
   -4.8253    9.7663   -8.0483 C   0  0  0  0  0  0  0  0  0  0  0  0
   -2.0926   12.1556   -6.9444 C   0  0  0  0  0  0  0  0  0  0  0  0
   -1.7338   13.4204   -6.4594 C   0  0  0  0  0  0  0  0  0  0  0  0
   -0.4064   13.4584   -6.4114 N   0  0  3  0  0  0  0  0  0  0  0  0
    0.1793   12.3493   -6.7865 N   0  0  0  0  0  0  0  0  0  0  0  0
   -0.7954   11.5387   -7.1512 C   0  0  0  0  0  0  0  0  0  0  0  0
    0.4205   14.5767   -6.0073 C   0  0  0  0  0  0  0  0  0  0  0  0
   -4.6894   13.8945  -11.1046 C   0  0  0  0  0  0  0  0  0  0  0  0
   -3.7822   15.1171  -11.3990 C   0  0  0  0  0  0  0  0  0  0  0  0
   -2.3310   14.9579  -11.2532 N   0  0  0  0  0  0  0  0  0  0  0  0
   -1.8099   14.4326  -10.1320 C   0  0  0  0  0  0  0  0  0  0  0  0
   -2.5019   14.0442   -9.2076 O   0  0  0  0  0  0  0  0  0  0  0  0
   -0.2869   14.3494  -10.0364 C   0  0  0  0  0  0  0  0  0  0  0  0
   -5.5086   11.5965  -10.3394 H   0  0  0  0  0  0  0  0  0  0  0  0
   -7.0053   12.5553  -10.0799 H   0  0  0  0  0  0  0  0  0  0  0  0
   -8.1374   10.1224  -13.9131 H   0  0  0  0  0  0  0  0  0  0  0  0
   -6.8466   12.2604  -14.0624 H   0  0  0  0  0  0  0  0  0  0  0  0
   -6.6939    9.1829   -9.6414 H   0  0  0  0  0  0  0  0  0  0  0  0
   -8.0269    9.5780   -7.2478 H   0  0  0  0  0  0  0  0  0  0  0  0
   -6.7507   12.3156   -6.9255 H   0  0  0  0  0  0  0  0  0  0  0  0
   -4.5132   13.2816   -6.4664 H   0  0  0  0  0  0  0  0  0  0  0  0
   -2.6683    9.7485   -8.0357 H   0  0  0  0  0  0  0  0  0  0  0  0
   -4.9092    8.7863   -8.4943 H   0  0  0  0  0  0  0  0  0  0  0  0
   -2.1095   14.2037   -7.1341 H   0  0  0  0  0  0  0  0  0  0  0  0
   -2.1522   13.5713   -5.4533 H   0  0  0  0  0  0  0  0  0  0  0  0
   -0.6475   10.5464   -7.5511 H   0  0  0  0  0  0  0  0  0  0  0  0
    1.4812   14.2962   -6.0855 H   0  0  0  0  0  0  0  0  0  0  0  0
    0.2196   15.4369   -6.6628 H   0  0  0  0  0  0  0  0  0  0  0  0
    0.1886   14.8468   -4.9665 H   0  0  0  0  0  0  0  0  0  0  0  0
   -5.2882   14.1185  -10.2095 H   0  0  0  0  0  0  0  0  0  0  0  0
   -4.0431   13.0269  -10.9057 H   0  0  0  0  0  0  0  0  0  0  0  0
   -3.9735   15.4217  -12.4385 H   0  0  0  0  0  0  0  0  0  0  0  0
   -4.0914   15.9235  -10.7178 H   0  0  0  0  0  0  0  0  0  0  0  0
   -1.9457   13.7098   -8.5138 H   0  0  0  0  0  0  0  0  0  0  0  0
   -0.0034   13.9020   -9.0723 H   0  0  0  0  0  0  0  0  0  0  0  0
    0.0984   13.7264  -10.8570 H   0  0  0  0  0  0  0  0  0  0  0  0
    0.1408   15.3601  -10.1114 H   0  0  0  0  0  0  0  0  0  0  0  0
  1  2  1  0  0  0  0
  1  4  1  0  0  0  0
  1 11  2  0  0  0  0
  2  6  1  0  0  0  0
  3  4  2  0  0  0  0
  3  5  1  0  0  0  0
  5  6  2  0  0  0  0
  5  9  1  0  0  0  0
  6  7  1  0  0  0  0
  7  8  1  0  0  0  0
  7 10  1  0  0  0  0
  8  9  2  0  0  0  0
 10 12  2  0  0  0  0
 11 24  1  0  0  0  0
 12 13  1  0  0  0  0
 12 17  1  0  0  0  0
 13 14  2  0  0  0  0
 14 15  1  0  0  0  0
 15 16  1  0  0  0  0
 15 18  2  0  0  0  0
 16 17  2  0  0  0  0
 18 19  1  0  0  0  0
 18 22  1  0  0  0  0
 19 20  1  0  0  0  0
 20 21  1  0  0  0  0
 20 23  1  0  0  0  0
 21 22  2  0  0  0  0
 24 25  1  0  0  0  0
 25 26  1  0  0  0  0
 26 27  2  0  0  0  0
 27 28  1  0  0  0  0
 27 29  1  0  0  0  0
  2 30  1  0  0  0  0
  2 31  1  0  0  0  0
  3 32  1  0  0  0  0
  4 33  1  0  0  0  0
  7 34  1  0  0  0  0
 10 35  1  0  0  0  0
 13 36  1  0  0  0  0
 14 37  1  0  0  0  0
 16 38  1  0  0  0  0
 17 39  1  0  0  0  0
 19 40  1  0  0  0  0
 19 41  1  0  0  0  0
 22 42  1  0  0  0  0
 23 43  1  0  0  0  0
 23 44  1  0  0  0  0
 23 45  1  0  0  0  0
 24 46  1  0  0  0  0
 24 47  1  0  0  0  0
 25 48  1  0  0  0  0
 25 49  1  0  0  0  0
 28 50  1  0  0  0  0
 29 51  1  0  0  0  0
 29 52  1  0  0  0  0
 29 53  1  0  0  0  0
M  END
> <Name>
27

> <IC50[uM]>
0.68

$$$$
27
  -OEChem-05192314333D
 Structure written by MMmdl.
 53 56  0     1  0  0  0  0  0999 V2000
   -6.3855   12.3606  -12.0031 C   0  0  0  0  0  0  0  0  0  0  0  0
   -6.5214   11.8004  -10.7171 C   0  0  0  0  0  0  0  0  0  0  0  0
   -7.6991   10.5797  -13.0384 C   0  0  0  0  0  0  0  0  0  0  0  0
   -6.9626   11.7779  -13.1031 C   0  0  0  0  0  0  0  0  0  0  0  0
   -7.8238   10.0198  -11.7523 C   0  0  3  0  0  0  0  0  0  0  0  0
   -7.2557   10.6213  -10.5956 C   0  0  0  0  0  0  0  0  0  0  0  0
   -7.6268    9.7501   -9.5073 C   0  0  0  0  0  0  0  0  0  0  0  0
   -8.3057    8.7491   -9.9816 N   0  0  0  0  0  0  0  0  0  0  0  0
   -8.4330    8.8776  -11.2917 N   0  0  0  0  0  0  0  0  0  0  0  0
   -7.3352    9.8817   -8.0196 C   0  0  0  0  0  0  0  0  0  0  0  0
   -5.6205   13.5372  -12.2095 N   0  0  0  0  0  0  0  0  0  0  0  0
   -5.9727   10.4835   -7.7324 C   0  0  0  0  0  0  0  0  0  0  0  0
   -5.8611   11.7523   -7.1657 C   0  0  0  0  0  0  0  0  0  0  0  0
   -4.5946   12.2988   -6.9068 C   0  0  0  0  0  0  0  0  0  0  0  0
   -3.4432   11.5806   -7.2147 C   0  0  0  0  0  0  0  0  0  0  0  0
   -3.5570   10.3109   -7.7899 C   0  0  0  0  0  0  0  0  0  0  0  0
   -4.8253    9.7663   -8.0483 C   0  0  0  0  0  0  0  0  0  0  0  0
   -2.0926   12.1556   -6.9444 C   0  0  0  0  0  0  0  0  0  0  0  0
   -1.7338   13.4204   -6.4594 C   0  0  0  0  0  0  0  0  0  0  0  0
   -0.4064   13.4584   -6.4114 N   0  0  3  0  0  0  0  0  0  0  0  0
    0.1793   12.3493   -6.7865 N   0  0  0  0  0  0  0  0  0  0  0  0
   -0.7954   11.5387   -7.1512 C   0  0  0  0  0  0  0  0  0  0  0  0
    0.4205   14.5767   -6.0073 C   0  0  0  0  0  0  0  0  0  0  0  0
   -4.6894   13.8945  -11.1046 C   0  0  0  0  0  0  0  0  0  0  0  0
   -3.7822   15.1171  -11.3990 C   0  0  0  0  0  0  0  0  0  0  0  0
   -2.3310   14.9579  -11.2532 N   0  0  0  0  0  0  0  0  0  0  0  0
   -1.8099   14.4326  -10.1320 C   0  0  0  0  0  0  0  0  0  0  0  0
   -2.5019   14.0442   -9.2076 O   0  0  0  0  0  0  0  0  0  0  0  0
   -0.2869   14.3494  -10.0364 C   0  0  0  0  0  0  0  0  0  0  0  0
   -5.5086   11.5965  -10.3394 H   0  0  0  0  0  0  0  0  0  0  0  0
   -7.0053   12.5553  -10.0799 H   0  0  0  0  0  0  0  0  0  0  0  0
   -8.1374   10.1224  -13.9131 H   0  0  0  0  0  0  0  0  0  0  0  0
   -6.8466   12.2604  -14.0624 H   0  0  0  0  0  0  0  0  0  0  0  0
   -8.7543   10.5845  -11.5930 H   0  0  0  0  0  0  0  0  0  0  0  0
   -8.0269    9.5780   -7.2478 H   0  0  0  0  0  0  0  0  0  0  0  0
   -6.7507   12.3156   -6.9255 H   0  0  0  0  0  0  0  0  0  0  0  0
   -4.5132   13.2816   -6.4664 H   0  0  0  0  0  0  0  0  0  0  0  0
   -2.6683    9.7485   -8.0357 H   0  0  0  0  0  0  0  0  0  0  0  0
   -4.9092    8.7863   -8.4943 H   0  0  0  0  0  0  0  0  0  0  0  0
   -2.1095   14.2037   -7.1341 H   0  0  0  0  0  0  0  0  0  0  0  0
   -2.1522   13.5713   -5.4533 H   0  0  0  0  0  0  0  0  0  0  0  0
   -0.6475   10.5464   -7.5511 H   0  0  0  0  0  0  0  0  0  0  0  0
    1.4812   14.2962   -6.0855 H   0  0  0  0  0  0  0  0  0  0  0  0
    0.2196   15.4369   -6.6628 H   0  0  0  0  0  0  0  0  0  0  0  0
    0.1886   14.8468   -4.9665 H   0  0  0  0  0  0  0  0  0  0  0  0
   -5.2882   14.1185  -10.2095 H   0  0  0  0  0  0  0  0  0  0  0  0
   -4.0431   13.0269  -10.9057 H   0  0  0  0  0  0  0  0  0  0  0  0
   -3.9735   15.4217  -12.4385 H   0  0  0  0  0  0  0  0  0  0  0  0
   -4.0914   15.9235  -10.7178 H   0  0  0  0  0  0  0  0  0  0  0  0
   -1.9457   13.7098   -8.5138 H   0  0  0  0  0  0  0  0  0  0  0  0
   -0.0034   13.9020   -9.0723 H   0  0  0  0  0  0  0  0  0  0  0  0
    0.0984   13.7264  -10.8570 H   0  0  0  0  0  0  0  0  0  0  0  0
    0.1408   15.3601  -10.1114 H   0  0  0  0  0  0  0  0  0  0  0  0
  1  2  1  0  0  0  0
  1  4  1  0  0  0  0
  1 11  2  0  0  0  0
  2  6  1  0  0  0  0
  3  4  2  0  0  0  0
  3  5  1  0  0  0  0
  5  6  1  0  0  0  0
  5  9  1  0  0  0  0
  6  7  2  0  0  0  0
  7  8  1  0  0  0  0
  7 10  1  0  0  0  0
  8  9  2  0  0  0  0
 10 12  2  0  0  0  0
 11 24  1  0  0  0  0
 12 13  1  0  0  0  0
 12 17  1  0  0  0  0
 13 14  2  0  0  0  0
 14 15  1  0  0  0  0
 15 16  1  0  0  0  0
 15 18  2  0  0  0  0
 16 17  2  0  0  0  0
 18 19  1  0  0  0  0
 18 22  1  0  0  0  0
 19 20  1  0  0  0  0
 20 21  1  0  0  0  0
 20 23  1  0  0  0  0
 21 22  2  0  0  0  0
 24 25  1  0  0  0  0
 25 26  1  0  0  0  0
 26 27  2  0  0  0  0
 27 28  1  0  0  0  0
 27 29  1  0  0  0  0
  2 30  1  0  0  0  0
  2 31  1  0  0  0  0
  3 32  1  0  0  0  0
  4 33  1  0  0  0  0
  5 34  1  0  0  0  0
 10 35  1  0  0  0  0
 13 36  1  0  0  0  0
 14 37  1  0  0  0  0
 16 38  1  0  0  0  0
 17 39  1  0  0  0  0
 19 40  1  0  0  0  0
 19 41  1  0  0  0  0
 22 42  1  0  0  0  0
 23 43  1  0  0  0  0
 23 44  1  0  0  0  0
 23 45  1  0  0  0  0
 24 46  1  0  0  0  0
 24 47  1  0  0  0  0
 25 48  1  0  0  0  0
 25 49  1  0  0  0  0
 28 50  1  0  0  0  0
 29 51  1  0  0  0  0
 29 52  1  0  0  0  0
 29 53  1  0  0  0  0
M  END
> <Name>
27

> <IC50[uM]>
0.68

$$$$
27
  -OEChem-05192314333D
 Structure written by MMmdl.
 53 56  0     1  0  0  0  0  0999 V2000
   -6.3855   12.3606  -12.0031 C   0  0  0  0  0  0  0  0  0  0  0  0
   -6.5214   11.8004  -10.7171 C   0  0  0  0  0  0  0  0  0  0  0  0
   -7.6991   10.5797  -13.0384 C   0  0  0  0  0  0  0  0  0  0  0  0
   -6.9626   11.7779  -13.1031 C   0  0  0  0  0  0  0  0  0  0  0  0
   -7.8238   10.0198  -11.7523 C   0  0  0  0  0  0  0  0  0  0  0  0
   -7.2557   10.6213  -10.5956 C   0  0  0  0  0  0  0  0  0  0  0  0
   -7.6268    9.7501   -9.5073 C   0  0  0  0  0  0  0  0  0  0  0  0
   -8.3057    8.7491   -9.9816 N   0  0  0  0  0  0  0  0  0  0  0  0
   -8.4330    8.8776  -11.2917 N   0  0  0  0  0  0  0  0  0  0  0  0
   -7.3352    9.8817   -8.0196 C   0  0  0  0  0  0  0  0  0  0  0  0
   -5.6205   13.5372  -12.2095 N   0  0  0  0  0  0  0  0  0  0  0  0
   -5.9727   10.4835   -7.7324 C   0  0  0  0  0  0  0  0  0  0  0  0
   -5.8611   11.7523   -7.1657 C   0  0  0  0  0  0  0  0  0  0  0  0
   -4.5946   12.2988   -6.9068 C   0  0  0  0  0  0  0  0  0  0  0  0
   -3.4432   11.5806   -7.2147 C   0  0  0  0  0  0  0  0  0  0  0  0
   -3.5570   10.3109   -7.7899 C   0  0  0  0  0  0  0  0  0  0  0  0
   -4.8253    9.7663   -8.0483 C   0  0  0  0  0  0  0  0  0  0  0  0
   -2.0926   12.1556   -6.9444 C   0  0  0  0  0  0  0  0  0  0  0  0
   -1.7338   13.4204   -6.4594 C   0  0  0  0  0  0  0  0  0  0  0  0
   -0.4064   13.4584   -6.4114 N   0  0  3  0  0  0  0  0  0  0  0  0
    0.1793   12.3493   -6.7865 N   0  0  0  0  0  0  0  0  0  0  0  0
   -0.7954   11.5387   -7.1512 C   0  0  0  0  0  0  0  0  0  0  0  0
    0.4205   14.5767   -6.0073 C   0  0  0  0  0  0  0  0  0  0  0  0
   -4.6894   13.8945  -11.1046 C   0  0  0  0  0  0  0  0  0  0  0  0
   -3.7822   15.1171  -11.3990 C   0  0  0  0  0  0  0  0  0  0  0  0
   -2.3310   14.9579  -11.2532 N   0  0  0  0  0  0  0  0  0  0  0  0
   -1.8099   14.4326  -10.1320 C   0  0  0  0  0  0  0  0  0  0  0  0
   -2.5019   14.0442   -9.2076 O   0  0  0  0  0  0  0  0  0  0  0  0
   -0.2869   14.3494  -10.0364 C   0  0  0  0  0  0  0  0  0  0  0  0
   -5.5086   11.5965  -10.3394 H   0  0  0  0  0  0  0  0  0  0  0  0
   -7.0053   12.5553  -10.0799 H   0  0  0  0  0  0  0  0  0  0  0  0
   -8.1374   10.1224  -13.9131 H   0  0  0  0  0  0  0  0  0  0  0  0
   -7.6459   12.5314  -13.5218 H   0  0  0  0  0  0  0  0  0  0  0  0
   -6.1429   11.5918  -13.8126 H   0  0  0  0  0  0  0  0  0  0  0  0
   -8.0269    9.5780   -7.2478 H   0  0  0  0  0  0  0  0  0  0  0  0
   -6.7507   12.3156   -6.9255 H   0  0  0  0  0  0  0  0  0  0  0  0
   -4.5132   13.2816   -6.4664 H   0  0  0  0  0  0  0  0  0  0  0  0
   -2.6683    9.7485   -8.0357 H   0  0  0  0  0  0  0  0  0  0  0  0
   -4.9092    8.7863   -8.4943 H   0  0  0  0  0  0  0  0  0  0  0  0
   -2.1095   14.2037   -7.1341 H   0  0  0  0  0  0  0  0  0  0  0  0
   -2.1522   13.5713   -5.4533 H   0  0  0  0  0  0  0  0  0  0  0  0
   -0.6475   10.5464   -7.5511 H   0  0  0  0  0  0  0  0  0  0  0  0
    1.4812   14.2962   -6.0855 H   0  0  0  0  0  0  0  0  0  0  0  0
    0.2196   15.4369   -6.6628 H   0  0  0  0  0  0  0  0  0  0  0  0
    0.1886   14.8468   -4.9665 H   0  0  0  0  0  0  0  0  0  0  0  0
   -5.2882   14.1185  -10.2095 H   0  0  0  0  0  0  0  0  0  0  0  0
   -4.0431   13.0269  -10.9057 H   0  0  0  0  0  0  0  0  0  0  0  0
   -3.9735   15.4217  -12.4385 H   0  0  0  0  0  0  0  0  0  0  0  0
   -4.0914   15.9235  -10.7178 H   0  0  0  0  0  0  0  0  0  0  0  0
   -1.9457   13.7098   -8.5138 H   0  0  0  0  0  0  0  0  0  0  0  0
   -0.0034   13.9020   -9.0723 H   0  0  0  0  0  0  0  0  0  0  0  0
    0.0984   13.7264  -10.8570 H   0  0  0  0  0  0  0  0  0  0  0  0
    0.1408   15.3601  -10.1114 H   0  0  0  0  0  0  0  0  0  0  0  0
  1  2  1  0  0  0  0
  1  4  1  0  0  0  0
  1 11  2  0  0  0  0
  2  6  1  0  0  0  0
  3  4  1  0  0  0  0
  3  5  2  0  0  0  0
  5  6  1  0  0  0  0
  5  9  1  0  0  0  0
  6  7  2  0  0  0  0
  7  8  1  0  0  0  0
  7 10  1  0  0  0  0
  8  9  2  0  0  0  0
 10 12  2  0  0  0  0
 11 24  1  0  0  0  0
 12 13  1  0  0  0  0
 12 17  1  0  0  0  0
 13 14  2  0  0  0  0
 14 15  1  0  0  0  0
 15 16  1  0  0  0  0
 15 18  2  0  0  0  0
 16 17  2  0  0  0  0
 18 19  1  0  0  0  0
 18 22  1  0  0  0  0
 19 20  1  0  0  0  0
 20 21  1  0  0  0  0
 20 23  1  0  0  0  0
 21 22  2  0  0  0  0
 24 25  1  0  0  0  0
 25 26  1  0  0  0  0
 26 27  2  0  0  0  0
 27 28  1  0  0  0  0
 27 29  1  0  0  0  0
  2 30  1  0  0  0  0
  2 31  1  0  0  0  0
  3 32  1  0  0  0  0
  4 33  1  0  0  0  0
  4 34  1  0  0  0  0
 10 35  1  0  0  0  0
 13 36  1  0  0  0  0
 14 37  1  0  0  0  0
 16 38  1  0  0  0  0
 17 39  1  0  0  0  0
 19 40  1  0  0  0  0
 19 41  1  0  0  0  0
 22 42  1  0  0  0  0
 23 43  1  0  0  0  0
 23 44  1  0  0  0  0
 23 45  1  0  0  0  0
 24 46  1  0  0  0  0
 24 47  1  0  0  0  0
 25 48  1  0  0  0  0
 25 49  1  0  0  0  0
 28 50  1  0  0  0  0
 29 51  1  0  0  0  0
 29 52  1  0  0  0  0
 29 53  1  0  0  0  0
M  END
> <Name>
27

> <IC50[uM]>
0.68

$$$$
27
  -OEChem-05192314333D
 Structure written by MMmdl.
 53 56  0     1  0  0  0  0  0999 V2000
   -6.3855   12.3606  -12.0031 C   0  0  0  0  0  0  0  0  0  0  0  0
   -6.5214   11.8004  -10.7171 C   0  0  0  0  0  0  0  0  0  0  0  0
   -7.6991   10.5797  -13.0384 C   0  0  0  0  0  0  0  0  0  0  0  0
   -6.9626   11.7779  -13.1031 C   0  0  0  0  0  0  0  0  0  0  0  0
   -7.8238   10.0198  -11.7523 C   0  0  0  0  0  0  0  0  0  0  0  0
   -7.2557   10.6213  -10.5956 C   0  0  3  0  0  0  0  0  0  0  0  0
   -7.6268    9.7501   -9.5073 C   0  0  0  0  0  0  0  0  0  0  0  0
   -8.3057    8.7491   -9.9816 N   0  0  0  0  0  0  0  0  0  0  0  0
   -8.4330    8.8776  -11.2917 N   0  0  0  0  0  0  0  0  0  0  0  0
   -7.3352    9.8817   -8.0196 C   0  0  0  0  0  0  0  0  0  0  0  0
   -5.6205   13.5372  -12.2095 N   0  0  0  0  0  0  0  0  0  0  0  0
   -5.9727   10.4835   -7.7324 C   0  0  0  0  0  0  0  0  0  0  0  0
   -5.8611   11.7523   -7.1657 C   0  0  0  0  0  0  0  0  0  0  0  0
   -4.5946   12.2988   -6.9068 C   0  0  0  0  0  0  0  0  0  0  0  0
   -3.4432   11.5806   -7.2147 C   0  0  0  0  0  0  0  0  0  0  0  0
   -3.5570   10.3109   -7.7899 C   0  0  0  0  0  0  0  0  0  0  0  0
   -4.8253    9.7663   -8.0483 C   0  0  0  0  0  0  0  0  0  0  0  0
   -2.0926   12.1556   -6.9444 C   0  0  0  0  0  0  0  0  0  0  0  0
   -1.7338   13.4204   -6.4594 C   0  0  0  0  0  0  0  0  0  0  0  0
   -0.4064   13.4584   -6.4114 N   0  0  3  0  0  0  0  0  0  0  0  0
    0.1793   12.3493   -6.7865 N   0  0  0  0  0  0  0  0  0  0  0  0
   -0.7954   11.5387   -7.1512 C   0  0  0  0  0  0  0  0  0  0  0  0
    0.4205   14.5767   -6.0073 C   0  0  0  0  0  0  0  0  0  0  0  0
   -4.6894   13.8945  -11.1046 C   0  0  0  0  0  0  0  0  0  0  0  0
   -3.7822   15.1171  -11.3990 C   0  0  0  0  0  0  0  0  0  0  0  0
   -2.3310   14.9579  -11.2532 N   0  0  0  0  0  0  0  0  0  0  0  0
   -1.8099   14.4326  -10.1320 C   0  0  0  0  0  0  0  0  0  0  0  0
   -2.5019   14.0442   -9.2076 O   0  0  0  0  0  0  0  0  0  0  0  0
   -0.2869   14.3494  -10.0364 C   0  0  0  0  0  0  0  0  0  0  0  0
   -6.0716   12.2689   -9.8542 H   0  0  0  0  0  0  0  0  0  0  0  0
   -8.1374   10.1224  -13.9131 H   0  0  0  0  0  0  0  0  0  0  0  0
   -6.8466   12.2604  -14.0624 H   0  0  0  0  0  0  0  0  0  0  0  0
   -8.1751   11.2060  -10.4447 H   0  0  0  0  0  0  0  0  0  0  0  0
   -8.0269    9.5780   -7.2478 H   0  0  0  0  0  0  0  0  0  0  0  0
   -5.0791   13.4115  -13.0408 H   0  0  0  0  0  0  0  0  0  0  0  0
   -6.7507   12.3156   -6.9255 H   0  0  0  0  0  0  0  0  0  0  0  0
   -4.5132   13.2816   -6.4664 H   0  0  0  0  0  0  0  0  0  0  0  0
   -2.6683    9.7485   -8.0357 H   0  0  0  0  0  0  0  0  0  0  0  0
   -4.9092    8.7863   -8.4943 H   0  0  0  0  0  0  0  0  0  0  0  0
   -2.1095   14.2037   -7.1341 H   0  0  0  0  0  0  0  0  0  0  0  0
   -2.1522   13.5713   -5.4533 H   0  0  0  0  0  0  0  0  0  0  0  0
   -0.6475   10.5464   -7.5511 H   0  0  0  0  0  0  0  0  0  0  0  0
    1.4812   14.2962   -6.0855 H   0  0  0  0  0  0  0  0  0  0  0  0
    0.2196   15.4369   -6.6628 H   0  0  0  0  0  0  0  0  0  0  0  0
    0.1886   14.8468   -4.9665 H   0  0  0  0  0  0  0  0  0  0  0  0
   -5.2882   14.1185  -10.2095 H   0  0  0  0  0  0  0  0  0  0  0  0
   -4.0431   13.0269  -10.9057 H   0  0  0  0  0  0  0  0  0  0  0  0
   -3.9735   15.4217  -12.4385 H   0  0  0  0  0  0  0  0  0  0  0  0
   -4.0914   15.9235  -10.7178 H   0  0  0  0  0  0  0  0  0  0  0  0
   -1.9457   13.7098   -8.5138 H   0  0  0  0  0  0  0  0  0  0  0  0
   -0.0034   13.9020   -9.0723 H   0  0  0  0  0  0  0  0  0  0  0  0
    0.0984   13.7264  -10.8570 H   0  0  0  0  0  0  0  0  0  0  0  0
    0.1408   15.3601  -10.1114 H   0  0  0  0  0  0  0  0  0  0  0  0
  1  2  2  0  0  0  0
  1  4  1  0  0  0  0
  1 11  1  0  0  0  0
  2  6  1  0  0  0  0
  3  4  2  0  0  0  0
  3  5  1  0  0  0  0
  5  6  1  0  0  0  0
  5  9  2  0  0  0  0
  6  7  1  0  0  0  0
  7  8  2  0  0  0  0
  7 10  1  0  0  0  0
  8  9  1  0  0  0  0
 10 12  2  0  0  0  0
 11 24  1  0  0  0  0
 12 13  1  0  0  0  0
 12 17  1  0  0  0  0
 13 14  2  0  0  0  0
 14 15  1  0  0  0  0
 15 16  1  0  0  0  0
 15 18  2  0  0  0  0
 16 17  2  0  0  0  0
 18 19  1  0  0  0  0
 18 22  1  0  0  0  0
 19 20  1  0  0  0  0
 20 21  1  0  0  0  0
 20 23  1  0  0  0  0
 21 22  2  0  0  0  0
 24 25  1  0  0  0  0
 25 26  1  0  0  0  0
 26 27  2  0  0  0  0
 27 28  1  0  0  0  0
 27 29  1  0  0  0  0
  2 30  1  0  0  0  0
  3 31  1  0  0  0  0
  4 32  1  0  0  0  0
  6 33  1  0  0  0  0
 10 34  1  0  0  0  0
 11 35  1  0  0  0  0
 13 36  1  0  0  0  0
 14 37  1  0  0  0  0
 16 38  1  0  0  0  0
 17 39  1  0  0  0  0
 19 40  1  0  0  0  0
 19 41  1  0  0  0  0
 22 42  1  0  0  0  0
 23 43  1  0  0  0  0
 23 44  1  0  0  0  0
 23 45  1  0  0  0  0
 24 46  1  0  0  0  0
 24 47  1  0  0  0  0
 25 48  1  0  0  0  0
 25 49  1  0  0  0  0
 28 50  1  0  0  0  0
 29 51  1  0  0  0  0
 29 52  1  0  0  0  0
 29 53  1  0  0  0  0
M  END
> <Name>
27

> <IC50[uM]>
0.68

$$$$
27
  -OEChem-05192314333D
 Structure written by MMmdl.
 53 56  0     1  0  0  0  0  0999 V2000
   -6.3855   12.3606  -12.0031 C   0  0  3  0  0  0  0  0  0  0  0  0
   -6.5214   11.8004  -10.7171 C   0  0  0  0  0  0  0  0  0  0  0  0
   -7.6991   10.5797  -13.0384 C   0  0  0  0  0  0  0  0  0  0  0  0
   -6.9626   11.7779  -13.1031 C   0  0  0  0  0  0  0  0  0  0  0  0
   -7.8238   10.0198  -11.7523 C   0  0  0  0  0  0  0  0  0  0  0  0
   -7.2557   10.6213  -10.5956 C   0  0  0  0  0  0  0  0  0  0  0  0
   -7.6268    9.7501   -9.5073 C   0  0  0  0  0  0  0  0  0  0  0  0
   -8.3057    8.7491   -9.9816 N   0  0  0  0  0  0  0  0  0  0  0  0
   -8.4330    8.8776  -11.2917 N   0  0  0  0  0  0  0  0  0  0  0  0
   -7.3352    9.8817   -8.0196 C   0  0  0  0  0  0  0  0  0  0  0  0
   -5.6205   13.5372  -12.2095 N   0  0  0  0  0  0  0  0  0  0  0  0
   -5.9727   10.4835   -7.7324 C   0  0  0  0  0  0  0  0  0  0  0  0
   -5.8611   11.7523   -7.1657 C   0  0  0  0  0  0  0  0  0  0  0  0
   -4.5946   12.2988   -6.9068 C   0  0  0  0  0  0  0  0  0  0  0  0
   -3.4432   11.5806   -7.2147 C   0  0  0  0  0  0  0  0  0  0  0  0
   -3.5570   10.3109   -7.7899 C   0  0  0  0  0  0  0  0  0  0  0  0
   -4.8253    9.7663   -8.0483 C   0  0  0  0  0  0  0  0  0  0  0  0
   -2.0926   12.1556   -6.9444 C   0  0  0  0  0  0  0  0  0  0  0  0
   -1.7338   13.4204   -6.4594 C   0  0  0  0  0  0  0  0  0  0  0  0
   -0.4064   13.4584   -6.4114 N   0  0  3  0  0  0  0  0  0  0  0  0
    0.1793   12.3493   -6.7865 N   0  0  0  0  0  0  0  0  0  0  0  0
   -0.7954   11.5387   -7.1512 C   0  0  0  0  0  0  0  0  0  0  0  0
    0.4205   14.5767   -6.0073 C   0  0  0  0  0  0  0  0  0  0  0  0
   -4.6894   13.8945  -11.1046 C   0  0  0  0  0  0  0  0  0  0  0  0
   -3.7822   15.1171  -11.3990 C   0  0  0  0  0  0  0  0  0  0  0  0
   -2.3310   14.9579  -11.2532 N   0  0  0  0  0  0  0  0  0  0  0  0
   -1.8099   14.4326  -10.1320 C   0  0  0  0  0  0  0  0  0  0  0  0
   -2.5019   14.0442   -9.2076 O   0  0  0  0  0  0  0  0  0  0  0  0
   -0.2869   14.3494  -10.0364 C   0  0  0  0  0  0  0  0  0  0  0  0
   -7.2886   12.9676  -11.8418 H   0  0  0  0  0  0  0  0  0  0  0  0
   -6.0716   12.2689   -9.8542 H   0  0  0  0  0  0  0  0  0  0  0  0
   -8.1374   10.1224  -13.9131 H   0  0  0  0  0  0  0  0  0  0  0  0
   -6.8466   12.2604  -14.0624 H   0  0  0  0  0  0  0  0  0  0  0  0
   -8.0269    9.5780   -7.2478 H   0  0  0  0  0  0  0  0  0  0  0  0
   -5.0791   13.4115  -13.0408 H   0  0  0  0  0  0  0  0  0  0  0  0
   -6.7507   12.3156   -6.9255 H   0  0  0  0  0  0  0  0  0  0  0  0
   -4.5132   13.2816   -6.4664 H   0  0  0  0  0  0  0  0  0  0  0  0
   -2.6683    9.7485   -8.0357 H   0  0  0  0  0  0  0  0  0  0  0  0
   -4.9092    8.7863   -8.4943 H   0  0  0  0  0  0  0  0  0  0  0  0
   -2.1095   14.2037   -7.1341 H   0  0  0  0  0  0  0  0  0  0  0  0
   -2.1522   13.5713   -5.4533 H   0  0  0  0  0  0  0  0  0  0  0  0
   -0.6475   10.5464   -7.5511 H   0  0  0  0  0  0  0  0  0  0  0  0
    1.4812   14.2962   -6.0855 H   0  0  0  0  0  0  0  0  0  0  0  0
    0.2196   15.4369   -6.6628 H   0  0  0  0  0  0  0  0  0  0  0  0
    0.1886   14.8468   -4.9665 H   0  0  0  0  0  0  0  0  0  0  0  0
   -5.2882   14.1185  -10.2095 H   0  0  0  0  0  0  0  0  0  0  0  0
   -4.0431   13.0269  -10.9057 H   0  0  0  0  0  0  0  0  0  0  0  0
   -3.9735   15.4217  -12.4385 H   0  0  0  0  0  0  0  0  0  0  0  0
   -4.0914   15.9235  -10.7178 H   0  0  0  0  0  0  0  0  0  0  0  0
   -1.9457   13.7098   -8.5138 H   0  0  0  0  0  0  0  0  0  0  0  0
   -0.0034   13.9020   -9.0723 H   0  0  0  0  0  0  0  0  0  0  0  0
    0.0984   13.7264  -10.8570 H   0  0  0  0  0  0  0  0  0  0  0  0
    0.1408   15.3601  -10.1114 H   0  0  0  0  0  0  0  0  0  0  0  0
  1  2  1  0  0  0  0
  1  4  1  0  0  0  0
  1 11  1  0  0  0  0
  2  6  2  0  0  0  0
  3  4  2  0  0  0  0
  3  5  1  0  0  0  0
  5  6  1  0  0  0  0
  5  9  2  0  0  0  0
  6  7  1  0  0  0  0
  7  8  2  0  0  0  0
  7 10  1  0  0  0  0
  8  9  1  0  0  0  0
 10 12  2  0  0  0  0
 11 24  1  0  0  0  0
 12 13  1  0  0  0  0
 12 17  1  0  0  0  0
 13 14  2  0  0  0  0
 14 15  1  0  0  0  0
 15 16  1  0  0  0  0
 15 18  2  0  0  0  0
 16 17  2  0  0  0  0
 18 19  1  0  0  0  0
 18 22  1  0  0  0  0
 19 20  1  0  0  0  0
 20 21  1  0  0  0  0
 20 23  1  0  0  0  0
 21 22  2  0  0  0  0
 24 25  1  0  0  0  0
 25 26  1  0  0  0  0
 26 27  2  0  0  0  0
 27 28  1  0  0  0  0
 27 29  1  0  0  0  0
  1 30  1  0  0  0  0
  2 31  1  0  0  0  0
  3 32  1  0  0  0  0
  4 33  1  0  0  0  0
 10 34  1  0  0  0  0
 11 35  1  0  0  0  0
 13 36  1  0  0  0  0
 14 37  1  0  0  0  0
 16 38  1  0  0  0  0
 17 39  1  0  0  0  0
 19 40  1  0  0  0  0
 19 41  1  0  0  0  0
 22 42  1  0  0  0  0
 23 43  1  0  0  0  0
 23 44  1  0  0  0  0
 23 45  1  0  0  0  0
 24 46  1  0  0  0  0
 24 47  1  0  0  0  0
 25 48  1  0  0  0  0
 25 49  1  0  0  0  0
 28 50  1  0  0  0  0
 29 51  1  0  0  0  0
 29 52  1  0  0  0  0
 29 53  1  0  0  0  0
M  END
> <Name>
27

> <IC50[uM]>
0.68

$$$$
27
  -OEChem-05192314333D
 Structure written by MMmdl.
 53 56  0     1  0  0  0  0  0999 V2000
   -6.3855   12.3606  -12.0031 C   0  0  0  0  0  0  0  0  0  0  0  0
   -6.5214   11.8004  -10.7171 C   0  0  0  0  0  0  0  0  0  0  0  0
   -7.6991   10.5797  -13.0384 C   0  0  0  0  0  0  0  0  0  0  0  0
   -6.9626   11.7779  -13.1031 C   0  0  0  0  0  0  0  0  0  0  0  0
   -7.8238   10.0198  -11.7523 C   0  0  0  0  0  0  0  0  0  0  0  0
   -7.2557   10.6213  -10.5956 C   0  0  0  0  0  0  0  0  0  0  0  0
   -7.6268    9.7501   -9.5073 C   0  0  3  0  0  0  0  0  0  0  0  0
   -8.3057    8.7491   -9.9816 N   0  0  0  0  0  0  0  0  0  0  0  0
   -8.4330    8.8776  -11.2917 N   0  0  0  0  0  0  0  0  0  0  0  0
   -7.3352    9.8817   -8.0196 C   0  0  0  0  0  0  0  0  0  0  0  0
   -5.6205   13.5372  -12.2095 N   0  0  0  0  0  0  0  0  0  0  0  0
   -5.9727   10.4835   -7.7324 C   0  0  0  0  0  0  0  0  0  0  0  0
   -5.8611   11.7523   -7.1657 C   0  0  0  0  0  0  0  0  0  0  0  0
   -4.5946   12.2988   -6.9068 C   0  0  0  0  0  0  0  0  0  0  0  0
   -3.4432   11.5806   -7.2147 C   0  0  0  0  0  0  0  0  0  0  0  0
   -3.5570   10.3109   -7.7899 C   0  0  0  0  0  0  0  0  0  0  0  0
   -4.8253    9.7663   -8.0483 C   0  0  0  0  0  0  0  0  0  0  0  0
   -2.0926   12.1556   -6.9444 C   0  0  0  0  0  0  0  0  0  0  0  0
   -1.7338   13.4204   -6.4594 C   0  0  0  0  0  0  0  0  0  0  0  0
   -0.4064   13.4584   -6.4114 N   0  0  3  0  0  0  0  0  0  0  0  0
    0.1793   12.3493   -6.7865 N   0  0  0  0  0  0  0  0  0  0  0  0
   -0.7954   11.5387   -7.1512 C   0  0  0  0  0  0  0  0  0  0  0  0
    0.4205   14.5767   -6.0073 C   0  0  0  0  0  0  0  0  0  0  0  0
   -4.6894   13.8945  -11.1046 C   0  0  0  0  0  0  0  0  0  0  0  0
   -3.7822   15.1171  -11.3990 C   0  0  0  0  0  0  0  0  0  0  0  0
   -2.3310   14.9579  -11.2532 N   0  0  0  0  0  0  0  0  0  0  0  0
   -1.8099   14.4326  -10.1320 C   0  0  0  0  0  0  0  0  0  0  0  0
   -2.5019   14.0442   -9.2076 O   0  0  0  0  0  0  0  0  0  0  0  0
   -0.2869   14.3494  -10.0364 C   0  0  0  0  0  0  0  0  0  0  0  0
   -6.0716   12.2689   -9.8542 H   0  0  0  0  0  0  0  0  0  0  0  0
   -8.1374   10.1224  -13.9131 H   0  0  0  0  0  0  0  0  0  0  0  0
   -6.8466   12.2604  -14.0624 H   0  0  0  0  0  0  0  0  0  0  0  0
   -6.6939    9.1829   -9.6414 H   0  0  0  0  0  0  0  0  0  0  0  0
   -7.8268    7.8956   -9.7763 H   0  0  0  0  0  0  0  0  0  0  0  0
   -8.0269    9.5780   -7.2478 H   0  0  0  0  0  0  0  0  0  0  0  0
   -6.7507   12.3156   -6.9255 H   0  0  0  0  0  0  0  0  0  0  0  0
   -4.5132   13.2816   -6.4664 H   0  0  0  0  0  0  0  0  0  0  0  0
   -2.6683    9.7485   -8.0357 H   0  0  0  0  0  0  0  0  0  0  0  0
   -4.9092    8.7863   -8.4943 H   0  0  0  0  0  0  0  0  0  0  0  0
   -2.1095   14.2037   -7.1341 H   0  0  0  0  0  0  0  0  0  0  0  0
   -2.1522   13.5713   -5.4533 H   0  0  0  0  0  0  0  0  0  0  0  0
   -0.6475   10.5464   -7.5511 H   0  0  0  0  0  0  0  0  0  0  0  0
    1.4812   14.2962   -6.0855 H   0  0  0  0  0  0  0  0  0  0  0  0
    0.2196   15.4369   -6.6628 H   0  0  0  0  0  0  0  0  0  0  0  0
    0.1886   14.8468   -4.9665 H   0  0  0  0  0  0  0  0  0  0  0  0
   -5.2882   14.1185  -10.2095 H   0  0  0  0  0  0  0  0  0  0  0  0
   -4.0431   13.0269  -10.9057 H   0  0  0  0  0  0  0  0  0  0  0  0
   -3.9735   15.4217  -12.4385 H   0  0  0  0  0  0  0  0  0  0  0  0
   -4.0914   15.9235  -10.7178 H   0  0  0  0  0  0  0  0  0  0  0  0
   -1.9457   13.7098   -8.5138 H   0  0  0  0  0  0  0  0  0  0  0  0
   -0.0034   13.9020   -9.0723 H   0  0  0  0  0  0  0  0  0  0  0  0
    0.0984   13.7264  -10.8570 H   0  0  0  0  0  0  0  0  0  0  0  0
    0.1408   15.3601  -10.1114 H   0  0  0  0  0  0  0  0  0  0  0  0
  1  2  1  0  0  0  0
  1  4  1  0  0  0  0
  1 11  2  0  0  0  0
  2  6  2  0  0  0  0
  3  4  2  0  0  0  0
  3  5  1  0  0  0  0
  5  6  1  0  0  0  0
  5  9  2  0  0  0  0
  6  7  1  0  0  0  0
  7  8  1  0  0  0  0
  7 10  1  0  0  0  0
  8  9  1  0  0  0  0
 10 12  2  0  0  0  0
 11 24  1  0  0  0  0
 12 13  1  0  0  0  0
 12 17  1  0  0  0  0
 13 14  2  0  0  0  0
 14 15  1  0  0  0  0
 15 16  1  0  0  0  0
 15 18  2  0  0  0  0
 16 17  2  0  0  0  0
 18 19  1  0  0  0  0
 18 22  1  0  0  0  0
 19 20  1  0  0  0  0
 20 21  1  0  0  0  0
 20 23  1  0  0  0  0
 21 22  2  0  0  0  0
 24 25  1  0  0  0  0
 25 26  1  0  0  0  0
 26 27  2  0  0  0  0
 27 28  1  0  0  0  0
 27 29  1  0  0  0  0
  2 30  1  0  0  0  0
  3 31  1  0  0  0  0
  4 32  1  0  0  0  0
  7 33  1  0  0  0  0
  8 34  1  0  0  0  0
 10 35  1  0  0  0  0
 13 36  1  0  0  0  0
 14 37  1  0  0  0  0
 16 38  1  0  0  0  0
 17 39  1  0  0  0  0
 19 40  1  0  0  0  0
 19 41  1  0  0  0  0
 22 42  1  0  0  0  0
 23 43  1  0  0  0  0
 23 44  1  0  0  0  0
 23 45  1  0  0  0  0
 24 46  1  0  0  0  0
 24 47  1  0  0  0  0
 25 48  1  0  0  0  0
 25 49  1  0  0  0  0
 28 50  1  0  0  0  0
 29 51  1  0  0  0  0
 29 52  1  0  0  0  0
 29 53  1  0  0  0  0
M  END
> <Name>
27

> <IC50[uM]>
0.68

$$$$
27
  -OEChem-05192314333D
 Structure written by MMmdl.
 53 56  0     1  0  0  0  0  0999 V2000
   -6.3855   12.3606  -12.0031 C   0  0  0  0  0  0  0  0  0  0  0  0
   -6.5214   11.8004  -10.7171 C   0  0  0  0  0  0  0  0  0  0  0  0
   -7.6991   10.5797  -13.0384 C   0  0  0  0  0  0  0  0  0  0  0  0
   -6.9626   11.7779  -13.1031 C   0  0  0  0  0  0  0  0  0  0  0  0
   -7.8238   10.0198  -11.7523 C   0  0  3  0  0  0  0  0  0  0  0  0
   -7.2557   10.6213  -10.5956 C   0  0  0  0  0  0  0  0  0  0  0  0
   -7.6268    9.7501   -9.5073 C   0  0  0  0  0  0  0  0  0  0  0  0
   -8.3057    8.7491   -9.9816 N   0  0  0  0  0  0  0  0  0  0  0  0
   -8.4330    8.8776  -11.2917 N   0  0  0  0  0  0  0  0  0  0  0  0
   -7.3352    9.8817   -8.0196 C   0  0  0  0  0  0  0  0  0  0  0  0
   -5.6205   13.5372  -12.2095 N   0  0  0  0  0  0  0  0  0  0  0  0
   -5.9727   10.4835   -7.7324 C   0  0  0  0  0  0  0  0  0  0  0  0
   -5.8611   11.7523   -7.1657 C   0  0  0  0  0  0  0  0  0  0  0  0
   -4.5946   12.2988   -6.9068 C   0  0  0  0  0  0  0  0  0  0  0  0
   -3.4432   11.5806   -7.2147 C   0  0  0  0  0  0  0  0  0  0  0  0
   -3.5570   10.3109   -7.7899 C   0  0  0  0  0  0  0  0  0  0  0  0
   -4.8253    9.7663   -8.0483 C   0  0  0  0  0  0  0  0  0  0  0  0
   -2.0926   12.1556   -6.9444 C   0  0  0  0  0  0  0  0  0  0  0  0
   -1.7338   13.4204   -6.4594 C   0  0  0  0  0  0  0  0  0  0  0  0
   -0.4064   13.4584   -6.4114 N   0  0  3  0  0  0  0  0  0  0  0  0
    0.1793   12.3493   -6.7865 N   0  0  0  0  0  0  0  0  0  0  0  0
   -0.7954   11.5387   -7.1512 C   0  0  0  0  0  0  0  0  0  0  0  0
    0.4205   14.5767   -6.0073 C   0  0  0  0  0  0  0  0  0  0  0  0
   -4.6894   13.8945  -11.1046 C   0  0  0  0  0  0  0  0  0  0  0  0
   -3.7822   15.1171  -11.3990 C   0  0  0  0  0  0  0  0  0  0  0  0
   -2.3310   14.9579  -11.2532 N   0  0  0  0  0  0  0  0  0  0  0  0
   -1.8099   14.4326  -10.1320 C   0  0  0  0  0  0  0  0  0  0  0  0
   -2.5019   14.0442   -9.2076 O   0  0  0  0  0  0  0  0  0  0  0  0
   -0.2869   14.3494  -10.0364 C   0  0  0  0  0  0  0  0  0  0  0  0
   -6.0716   12.2689   -9.8542 H   0  0  0  0  0  0  0  0  0  0  0  0
   -8.1374   10.1224  -13.9131 H   0  0  0  0  0  0  0  0  0  0  0  0
   -6.8466   12.2604  -14.0624 H   0  0  0  0  0  0  0  0  0  0  0  0
   -8.7543   10.5845  -11.5930 H   0  0  0  0  0  0  0  0  0  0  0  0
   -9.4057    8.9143  -11.5206 H   0  0  0  0  0  0  0  0  0  0  0  0
   -8.0269    9.5780   -7.2478 H   0  0  0  0  0  0  0  0  0  0  0  0
   -6.7507   12.3156   -6.9255 H   0  0  0  0  0  0  0  0  0  0  0  0
   -4.5132   13.2816   -6.4664 H   0  0  0  0  0  0  0  0  0  0  0  0
   -2.6683    9.7485   -8.0357 H   0  0  0  0  0  0  0  0  0  0  0  0
   -4.9092    8.7863   -8.4943 H   0  0  0  0  0  0  0  0  0  0  0  0
   -2.1095   14.2037   -7.1341 H   0  0  0  0  0  0  0  0  0  0  0  0
   -2.1522   13.5713   -5.4533 H   0  0  0  0  0  0  0  0  0  0  0  0
   -0.6475   10.5464   -7.5511 H   0  0  0  0  0  0  0  0  0  0  0  0
    1.4812   14.2962   -6.0855 H   0  0  0  0  0  0  0  0  0  0  0  0
    0.2196   15.4369   -6.6628 H   0  0  0  0  0  0  0  0  0  0  0  0
    0.1886   14.8468   -4.9665 H   0  0  0  0  0  0  0  0  0  0  0  0
   -5.2882   14.1185  -10.2095 H   0  0  0  0  0  0  0  0  0  0  0  0
   -4.0431   13.0269  -10.9057 H   0  0  0  0  0  0  0  0  0  0  0  0
   -3.9735   15.4217  -12.4385 H   0  0  0  0  0  0  0  0  0  0  0  0
   -4.0914   15.9235  -10.7178 H   0  0  0  0  0  0  0  0  0  0  0  0
   -1.9457   13.7098   -8.5138 H   0  0  0  0  0  0  0  0  0  0  0  0
   -0.0034   13.9020   -9.0723 H   0  0  0  0  0  0  0  0  0  0  0  0
    0.0984   13.7264  -10.8570 H   0  0  0  0  0  0  0  0  0  0  0  0
    0.1408   15.3601  -10.1114 H   0  0  0  0  0  0  0  0  0  0  0  0
  1  2  1  0  0  0  0
  1  4  1  0  0  0  0
  1 11  2  0  0  0  0
  2  6  2  0  0  0  0
  3  4  2  0  0  0  0
  3  5  1  0  0  0  0
  5  6  1  0  0  0  0
  5  9  1  0  0  0  0
  6  7  1  0  0  0  0
  7  8  2  0  0  0  0
  7 10  1  0  0  0  0
  8  9  1  0  0  0  0
 10 12  2  0  0  0  0
 11 24  1  0  0  0  0
 12 13  1  0  0  0  0
 12 17  1  0  0  0  0
 13 14  2  0  0  0  0
 14 15  1  0  0  0  0
 15 16  1  0  0  0  0
 15 18  2  0  0  0  0
 16 17  2  0  0  0  0
 18 19  1  0  0  0  0
 18 22  1  0  0  0  0
 19 20  1  0  0  0  0
 20 21  1  0  0  0  0
 20 23  1  0  0  0  0
 21 22  2  0  0  0  0
 24 25  1  0  0  0  0
 25 26  1  0  0  0  0
 26 27  2  0  0  0  0
 27 28  1  0  0  0  0
 27 29  1  0  0  0  0
  2 30  1  0  0  0  0
  3 31  1  0  0  0  0
  4 32  1  0  0  0  0
  5 33  1  0  0  0  0
  9 34  1  0  0  0  0
 10 35  1  0  0  0  0
 13 36  1  0  0  0  0
 14 37  1  0  0  0  0
 16 38  1  0  0  0  0
 17 39  1  0  0  0  0
 19 40  1  0  0  0  0
 19 41  1  0  0  0  0
 22 42  1  0  0  0  0
 23 43  1  0  0  0  0
 23 44  1  0  0  0  0
 23 45  1  0  0  0  0
 24 46  1  0  0  0  0
 24 47  1  0  0  0  0
 25 48  1  0  0  0  0
 25 49  1  0  0  0  0
 28 50  1  0  0  0  0
 29 51  1  0  0  0  0
 29 52  1  0  0  0  0
 29 53  1  0  0  0  0
M  END
> <Name>
27

> <IC50[uM]>
0.68

$$$$
27
  -OEChem-05192314333D
 Structure written by MMmdl.
 53 56  0     1  0  0  0  0  0999 V2000
   -6.3855   12.3606  -12.0031 C   0  0  0  0  0  0  0  0  0  0  0  0
   -6.5214   11.8004  -10.7171 C   0  0  0  0  0  0  0  0  0  0  0  0
   -7.6991   10.5797  -13.0384 C   0  0  0  0  0  0  0  0  0  0  0  0
   -6.9626   11.7779  -13.1031 C   0  0  0  0  0  0  0  0  0  0  0  0
   -7.8238   10.0198  -11.7523 C   0  0  0  0  0  0  0  0  0  0  0  0
   -7.2557   10.6213  -10.5956 C   0  0  0  0  0  0  0  0  0  0  0  0
   -7.6268    9.7501   -9.5073 C   0  0  0  0  0  0  0  0  0  0  0  0
   -8.3057    8.7491   -9.9816 N   0  0  0  0  0  0  0  0  0  0  0  0
   -8.4330    8.8776  -11.2917 N   0  0  0  0  0  0  0  0  0  0  0  0
   -7.3352    9.8817   -8.0196 C   0  0  0  0  0  0  0  0  0  0  0  0
   -5.6205   13.5372  -12.2095 N   0  0  0  0  0  0  0  0  0  0  0  0
   -5.9727   10.4835   -7.7324 C   0  0  0  0  0  0  0  0  0  0  0  0
   -5.8611   11.7523   -7.1657 C   0  0  0  0  0  0  0  0  0  0  0  0
   -4.5946   12.2988   -6.9068 C   0  0  0  0  0  0  0  0  0  0  0  0
   -3.4432   11.5806   -7.2147 C   0  0  0  0  0  0  0  0  0  0  0  0
   -3.5570   10.3109   -7.7899 C   0  0  0  0  0  0  0  0  0  0  0  0
   -4.8253    9.7663   -8.0483 C   0  0  0  0  0  0  0  0  0  0  0  0
   -2.0926   12.1556   -6.9444 C   0  0  0  0  0  0  0  0  0  0  0  0
   -1.7338   13.4204   -6.4594 C   0  0  0  0  0  0  0  0  0  0  0  0
   -0.4064   13.4584   -6.4114 N   0  0  3  0  0  0  0  0  0  0  0  0
    0.1793   12.3493   -6.7865 N   0  0  0  0  0  0  0  0  0  0  0  0
   -0.7954   11.5387   -7.1512 C   0  0  0  0  0  0  0  0  0  0  0  0
    0.4205   14.5767   -6.0073 C   0  0  0  0  0  0  0  0  0  0  0  0
   -4.6894   13.8945  -11.1046 C   0  0  0  0  0  0  0  0  0  0  0  0
   -3.7822   15.1171  -11.3990 C   0  0  0  0  0  0  0  0  0  0  0  0
   -2.3310   14.9579  -11.2532 N   0  0  0  0  0  0  0  0  0  0  0  0
   -1.8099   14.4326  -10.1320 C   0  0  0  0  0  0  0  0  0  0  0  0
   -2.5019   14.0442   -9.2076 O   0  0  0  0  0  0  0  0  0  0  0  0
   -0.2869   14.3494  -10.0364 C   0  0  0  0  0  0  0  0  0  0  0  0
   -6.0716   12.2689   -9.8542 H   0  0  0  0  0  0  0  0  0  0  0  0
   -8.7105   10.7812  -13.4211 H   0  0  0  0  0  0  0  0  0  0  0  0
   -7.2031    9.8404  -13.6845 H   0  0  0  0  0  0  0  0  0  0  0  0
   -6.8466   12.2604  -14.0624 H   0  0  0  0  0  0  0  0  0  0  0  0
   -8.0269    9.5780   -7.2478 H   0  0  0  0  0  0  0  0  0  0  0  0
   -5.0791   13.4115  -13.0408 H   0  0  0  0  0  0  0  0  0  0  0  0
   -6.7507   12.3156   -6.9255 H   0  0  0  0  0  0  0  0  0  0  0  0
   -4.5132   13.2816   -6.4664 H   0  0  0  0  0  0  0  0  0  0  0  0
   -2.6683    9.7485   -8.0357 H   0  0  0  0  0  0  0  0  0  0  0  0
   -4.9092    8.7863   -8.4943 H   0  0  0  0  0  0  0  0  0  0  0  0
   -2.1095   14.2037   -7.1341 H   0  0  0  0  0  0  0  0  0  0  0  0
   -2.1522   13.5713   -5.4533 H   0  0  0  0  0  0  0  0  0  0  0  0
   -0.6475   10.5464   -7.5511 H   0  0  0  0  0  0  0  0  0  0  0  0
    1.4812   14.2962   -6.0855 H   0  0  0  0  0  0  0  0  0  0  0  0
    0.2196   15.4369   -6.6628 H   0  0  0  0  0  0  0  0  0  0  0  0
    0.1886   14.8468   -4.9665 H   0  0  0  0  0  0  0  0  0  0  0  0
   -5.2882   14.1185  -10.2095 H   0  0  0  0  0  0  0  0  0  0  0  0
   -4.0431   13.0269  -10.9057 H   0  0  0  0  0  0  0  0  0  0  0  0
   -3.9735   15.4217  -12.4385 H   0  0  0  0  0  0  0  0  0  0  0  0
   -4.0914   15.9235  -10.7178 H   0  0  0  0  0  0  0  0  0  0  0  0
   -1.9457   13.7098   -8.5138 H   0  0  0  0  0  0  0  0  0  0  0  0
   -0.0034   13.9020   -9.0723 H   0  0  0  0  0  0  0  0  0  0  0  0
    0.0984   13.7264  -10.8570 H   0  0  0  0  0  0  0  0  0  0  0  0
    0.1408   15.3601  -10.1114 H   0  0  0  0  0  0  0  0  0  0  0  0
  1  2  1  0  0  0  0
  1  4  2  0  0  0  0
  1 11  1  0  0  0  0
  2  6  2  0  0  0  0
  3  4  1  0  0  0  0
  3  5  1  0  0  0  0
  5  6  1  0  0  0  0
  5  9  2  0  0  0  0
  6  7  1  0  0  0  0
  7  8  2  0  0  0  0
  7 10  1  0  0  0  0
  8  9  1  0  0  0  0
 10 12  2  0  0  0  0
 11 24  1  0  0  0  0
 12 13  1  0  0  0  0
 12 17  1  0  0  0  0
 13 14  2  0  0  0  0
 14 15  1  0  0  0  0
 15 16  1  0  0  0  0
 15 18  2  0  0  0  0
 16 17  2  0  0  0  0
 18 19  1  0  0  0  0
 18 22  1  0  0  0  0
 19 20  1  0  0  0  0
 20 21  1  0  0  0  0
 20 23  1  0  0  0  0
 21 22  2  0  0  0  0
 24 25  1  0  0  0  0
 25 26  1  0  0  0  0
 26 27  2  0  0  0  0
 27 28  1  0  0  0  0
 27 29  1  0  0  0  0
  2 30  1  0  0  0  0
  3 31  1  0  0  0  0
  3 32  1  0  0  0  0
  4 33  1  0  0  0  0
 10 34  1  0  0  0  0
 11 35  1  0  0  0  0
 13 36  1  0  0  0  0
 14 37  1  0  0  0  0
 16 38  1  0  0  0  0
 17 39  1  0  0  0  0
 19 40  1  0  0  0  0
 19 41  1  0  0  0  0
 22 42  1  0  0  0  0
 23 43  1  0  0  0  0
 23 44  1  0  0  0  0
 23 45  1  0  0  0  0
 24 46  1  0  0  0  0
 24 47  1  0  0  0  0
 25 48  1  0  0  0  0
 25 49  1  0  0  0  0
 28 50  1  0  0  0  0
 29 51  1  0  0  0  0
 29 52  1  0  0  0  0
 29 53  1  0  0  0  0
M  END
> <Name>
27

> <IC50[uM]>
0.68

$$$$
27
  -OEChem-05192314333D
 Structure written by MMmdl.
 53 56  0     1  0  0  0  0  0999 V2000
   -6.3855   12.3606  -12.0031 C   0  0  0  0  0  0  0  0  0  0  0  0
   -6.5214   11.8004  -10.7171 C   0  0  0  0  0  0  0  0  0  0  0  0
   -7.6991   10.5797  -13.0384 C   0  0  0  0  0  0  0  0  0  0  0  0
   -6.9626   11.7779  -13.1031 C   0  0  0  0  0  0  0  0  0  0  0  0
   -7.8238   10.0198  -11.7523 C   0  0  0  0  0  0  0  0  0  0  0  0
   -7.2557   10.6213  -10.5956 C   0  0  0  0  0  0  0  0  0  0  0  0
   -7.6268    9.7501   -9.5073 C   0  0  0  0  0  0  0  0  0  0  0  0
   -8.3057    8.7491   -9.9816 N   0  0  0  0  0  0  0  0  0  0  0  0
   -8.4330    8.8776  -11.2917 N   0  0  0  0  0  0  0  0  0  0  0  0
   -7.3352    9.8817   -8.0196 C   0  0  0  0  0  0  0  0  0  0  0  0
   -5.6205   13.5372  -12.2095 N   0  0  0  0  0  0  0  0  0  0  0  0
   -5.9727   10.4835   -7.7324 C   0  0  0  0  0  0  0  0  0  0  0  0
   -5.8611   11.7523   -7.1657 C   0  0  0  0  0  0  0  0  0  0  0  0
   -4.5946   12.2988   -6.9068 C   0  0  0  0  0  0  0  0  0  0  0  0
   -3.4432   11.5806   -7.2147 C   0  0  0  0  0  0  0  0  0  0  0  0
   -3.5570   10.3109   -7.7899 C   0  0  0  0  0  0  0  0  0  0  0  0
   -4.8253    9.7663   -8.0483 C   0  0  0  0  0  0  0  0  0  0  0  0
   -2.0926   12.1556   -6.9444 C   0  0  0  0  0  0  0  0  0  0  0  0
   -1.7338   13.4204   -6.4594 C   0  0  0  0  0  0  0  0  0  0  0  0
   -0.4064   13.4584   -6.4114 N   0  0  3  0  0  0  0  0  0  0  0  0
    0.1793   12.3493   -6.7865 N   0  0  0  0  0  0  0  0  0  0  0  0
   -0.7954   11.5387   -7.1512 C   0  0  0  0  0  0  0  0  0  0  0  0
    0.4205   14.5767   -6.0073 C   0  0  0  0  0  0  0  0  0  0  0  0
   -4.6894   13.8945  -11.1046 C   0  0  0  0  0  0  0  0  0  0  0  0
   -3.7822   15.1171  -11.3990 C   0  0  0  0  0  0  0  0  0  0  0  0
   -2.3310   14.9579  -11.2532 N   0  0  0  0  0  0  0  0  0  0  0  0
   -1.8099   14.4326  -10.1320 C   0  0  0  0  0  0  0  0  0  0  0  0
   -2.5019   14.0442   -9.2076 O   0  0  0  0  0  0  0  0  0  0  0  0
   -0.2869   14.3494  -10.0364 C   0  0  0  0  0  0  0  0  0  0  0  0
   -6.0716   12.2689   -9.8542 H   0  0  0  0  0  0  0  0  0  0  0  0
   -8.1374   10.1224  -13.9131 H   0  0  0  0  0  0  0  0  0  0  0  0
   -6.8466   12.2604  -14.0624 H   0  0  0  0  0  0  0  0  0  0  0  0
   -8.0269    9.5780   -7.2478 H   0  0  0  0  0  0  0  0  0  0  0  0
   -6.7507   12.3156   -6.9255 H   0  0  0  0  0  0  0  0  0  0  0  0
   -4.5132   13.2816   -6.4664 H   0  0  0  0  0  0  0  0  0  0  0  0
   -2.6683    9.7485   -8.0357 H   0  0  0  0  0  0  0  0  0  0  0  0
   -4.9092    8.7863   -8.4943 H   0  0  0  0  0  0  0  0  0  0  0  0
   -2.1095   14.2037   -7.1341 H   0  0  0  0  0  0  0  0  0  0  0  0
   -2.1522   13.5713   -5.4533 H   0  0  0  0  0  0  0  0  0  0  0  0
    0.7951   12.5225   -7.5551 H   0  0  0  0  0  0  0  0  0  0  0  0
   -0.7373   10.6160   -6.5552 H   0  0  0  0  0  0  0  0  0  0  0  0
   -0.6796   11.2945   -8.2175 H   0  0  0  0  0  0  0  0  0  0  0  0
    1.4810   14.2930   -6.0763 H   0  0  0  0  0  0  0  0  0  0  0  0
    0.2266   15.4339   -6.6689 H   0  0  0  0  0  0  0  0  0  0  0  0
    0.1818   14.8530   -4.9697 H   0  0  0  0  0  0  0  0  0  0  0  0
   -5.2882   14.1185  -10.2095 H   0  0  0  0  0  0  0  0  0  0  0  0
   -4.0431   13.0269  -10.9057 H   0  0  0  0  0  0  0  0  0  0  0  0
   -3.9735   15.4217  -12.4385 H   0  0  0  0  0  0  0  0  0  0  0  0
   -4.0914   15.9235  -10.7178 H   0  0  0  0  0  0  0  0  0  0  0  0
   -1.9457   13.7098   -8.5138 H   0  0  0  0  0  0  0  0  0  0  0  0
   -0.0034   13.9020   -9.0723 H   0  0  0  0  0  0  0  0  0  0  0  0
    0.0984   13.7264  -10.8570 H   0  0  0  0  0  0  0  0  0  0  0  0
    0.1408   15.3601  -10.1114 H   0  0  0  0  0  0  0  0  0  0  0  0
  1  2  1  0  0  0  0
  1  4  1  0  0  0  0
  1 11  2  0  0  0  0
  2  6  2  0  0  0  0
  3  4  2  0  0  0  0
  3  5  1  0  0  0  0
  5  6  1  0  0  0  0
  5  9  2  0  0  0  0
  6  7  1  0  0  0  0
  7  8  2  0  0  0  0
  7 10  1  0  0  0  0
  8  9  1  0  0  0  0
 10 12  2  0  0  0  0
 11 24  1  0  0  0  0
 12 13  1  0  0  0  0
 12 17  1  0  0  0  0
 13 14  2  0  0  0  0
 14 15  1  0  0  0  0
 15 16  1  0  0  0  0
 15 18  2  0  0  0  0
 16 17  2  0  0  0  0
 18 19  1  0  0  0  0
 18 22  1  0  0  0  0
 19 20  1  0  0  0  0
 20 21  1  0  0  0  0
 20 23  1  0  0  0  0
 21 22  1  0  0  0  0
 24 25  1  0  0  0  0
 25 26  1  0  0  0  0
 26 27  2  0  0  0  0
 27 28  1  0  0  0  0
 27 29  1  0  0  0  0
  2 30  1  0  0  0  0
  3 31  1  0  0  0  0
  4 32  1  0  0  0  0
 10 33  1  0  0  0  0
 13 34  1  0  0  0  0
 14 35  1  0  0  0  0
 16 36  1  0  0  0  0
 17 37  1  0  0  0  0
 19 38  1  0  0  0  0
 19 39  1  0  0  0  0
 21 40  1  0  0  0  0
 22 41  1  0  0  0  0
 22 42  1  0  0  0  0
 23 43  1  0  0  0  0
 23 44  1  0  0  0  0
 23 45  1  0  0  0  0
 24 46  1  0  0  0  0
 24 47  1  0  0  0  0
 25 48  1  0  0  0  0
 25 49  1  0  0  0  0
 28 50  1  0  0  0  0
 29 51  1  0  0  0  0
 29 52  1  0  0  0  0
 29 53  1  0  0  0  0
M  END
> <Name>
27

> <IC50[uM]>
0.68

$$$$
27
  -OEChem-05192314333D
 Structure written by MMmdl.
 53 56  0     1  0  0  0  0  0999 V2000
   -6.3855   12.3606  -12.0031 C   0  0  0  0  0  0  0  0  0  0  0  0
   -6.5214   11.8004  -10.7171 C   0  0  0  0  0  0  0  0  0  0  0  0
   -7.6991   10.5797  -13.0384 C   0  0  0  0  0  0  0  0  0  0  0  0
   -6.9626   11.7779  -13.1031 C   0  0  0  0  0  0  0  0  0  0  0  0
   -7.8238   10.0198  -11.7523 C   0  0  3  0  0  0  0  0  0  0  0  0
   -7.2557   10.6213  -10.5956 C   0  0  0  0  0  0  0  0  0  0  0  0
   -7.6268    9.7501   -9.5073 C   0  0  0  0  0  0  0  0  0  0  0  0
   -8.3057    8.7491   -9.9816 N   0  0  0  0  0  0  0  0  0  0  0  0
   -8.4330    8.8776  -11.2917 N   0  0  0  0  0  0  0  0  0  0  0  0
   -7.3352    9.8817   -8.0196 C   0  0  0  0  0  0  0  0  0  0  0  0
   -5.6205   13.5372  -12.2095 N   0  0  0  0  0  0  0  0  0  0  0  0
   -5.9727   10.4835   -7.7324 C   0  0  0  0  0  0  0  0  0  0  0  0
   -5.8611   11.7523   -7.1657 C   0  0  0  0  0  0  0  0  0  0  0  0
   -4.5946   12.2988   -6.9068 C   0  0  0  0  0  0  0  0  0  0  0  0
   -3.4432   11.5806   -7.2147 C   0  0  0  0  0  0  0  0  0  0  0  0
   -3.5570   10.3109   -7.7899 C   0  0  0  0  0  0  0  0  0  0  0  0
   -4.8253    9.7663   -8.0483 C   0  0  0  0  0  0  0  0  0  0  0  0
   -2.0926   12.1556   -6.9444 C   0  0  0  0  0  0  0  0  0  0  0  0
   -1.7338   13.4204   -6.4594 C   0  0  0  0  0  0  0  0  0  0  0  0
   -0.4064   13.4584   -6.4114 N   0  0  3  0  0  0  0  0  0  0  0  0
    0.1793   12.3493   -6.7865 N   0  0  0  0  0  0  0  0  0  0  0  0
   -0.7954   11.5387   -7.1512 C   0  0  0  0  0  0  0  0  0  0  0  0
    0.4205   14.5767   -6.0073 C   0  0  0  0  0  0  0  0  0  0  0  0
   -4.6894   13.8945  -11.1046 C   0  0  0  0  0  0  0  0  0  0  0  0
   -3.7822   15.1171  -11.3990 C   0  0  0  0  0  0  0  0  0  0  0  0
   -2.3310   14.9579  -11.2532 N   0  0  0  0  0  0  0  0  0  0  0  0
   -1.8099   14.4326  -10.1320 C   0  0  0  0  0  0  0  0  0  0  0  0
   -2.5019   14.0442   -9.2076 O   0  0  0  0  0  0  0  0  0  0  0  0
   -0.2869   14.3494  -10.0364 C   0  0  0  0  0  0  0  0  0  0  0  0
   -6.0716   12.2689   -9.8542 H   0  0  0  0  0  0  0  0  0  0  0  0
   -8.1374   10.1224  -13.9131 H   0  0  0  0  0  0  0  0  0  0  0  0
   -6.8466   12.2604  -14.0624 H   0  0  0  0  0  0  0  0  0  0  0  0
   -8.7543   10.5845  -11.5930 H   0  0  0  0  0  0  0  0  0  0  0  0
   -8.0269    9.5780   -7.2478 H   0  0  0  0  0  0  0  0  0  0  0  0
   -5.0791   13.4115  -13.0408 H   0  0  0  0  0  0  0  0  0  0  0  0
   -6.7507   12.3156   -6.9255 H   0  0  0  0  0  0  0  0  0  0  0  0
   -4.5132   13.2816   -6.4664 H   0  0  0  0  0  0  0  0  0  0  0  0
   -2.6683    9.7485   -8.0357 H   0  0  0  0  0  0  0  0  0  0  0  0
   -4.9092    8.7863   -8.4943 H   0  0  0  0  0  0  0  0  0  0  0  0
   -2.1095   14.2037   -7.1341 H   0  0  0  0  0  0  0  0  0  0  0  0
   -2.1522   13.5713   -5.4533 H   0  0  0  0  0  0  0  0  0  0  0  0
   -0.6475   10.5464   -7.5511 H   0  0  0  0  0  0  0  0  0  0  0  0
    1.4812   14.2962   -6.0855 H   0  0  0  0  0  0  0  0  0  0  0  0
    0.2196   15.4369   -6.6628 H   0  0  0  0  0  0  0  0  0  0  0  0
    0.1886   14.8468   -4.9665 H   0  0  0  0  0  0  0  0  0  0  0  0
   -5.2882   14.1185  -10.2095 H   0  0  0  0  0  0  0  0  0  0  0  0
   -4.0431   13.0269  -10.9057 H   0  0  0  0  0  0  0  0  0  0  0  0
   -3.9735   15.4217  -12.4385 H   0  0  0  0  0  0  0  0  0  0  0  0
   -4.0914   15.9235  -10.7178 H   0  0  0  0  0  0  0  0  0  0  0  0
   -1.7243   15.2430  -11.9952 H   0  0  0  0  0  0  0  0  0  0  0  0
   -0.0031   13.9147   -9.0666 H   0  0  0  0  0  0  0  0  0  0  0  0
    0.0973   13.7152  -10.8489 H   0  0  0  0  0  0  0  0  0  0  0  0
    0.1416   15.3586  -10.1252 H   0  0  0  0  0  0  0  0  0  0  0  0
  1  2  2  0  0  0  0
  1  4  1  0  0  0  0
  1 11  1  0  0  0  0
  2  6  1  0  0  0  0
  3  4  2  0  0  0  0
  3  5  1  0  0  0  0
  5  6  1  0  0  0  0
  5  9  1  0  0  0  0
  6  7  2  0  0  0  0
  7  8  1  0  0  0  0
  7 10  1  0  0  0  0
  8  9  2  0  0  0  0
 10 12  2  0  0  0  0
 11 24  1  0  0  0  0
 12 13  1  0  0  0  0
 12 17  1  0  0  0  0
 13 14  2  0  0  0  0
 14 15  1  0  0  0  0
 15 16  1  0  0  0  0
 15 18  2  0  0  0  0
 16 17  2  0  0  0  0
 18 19  1  0  0  0  0
 18 22  1  0  0  0  0
 19 20  1  0  0  0  0
 20 21  1  0  0  0  0
 20 23  1  0  0  0  0
 21 22  2  0  0  0  0
 24 25  1  0  0  0  0
 25 26  1  0  0  0  0
 26 27  1  0  0  0  0
 27 28  2  0  0  0  0
 27 29  1  0  0  0  0
  2 30  1  0  0  0  0
  3 31  1  0  0  0  0
  4 32  1  0  0  0  0
  5 33  1  0  0  0  0
 10 34  1  0  0  0  0
 11 35  1  0  0  0  0
 13 36  1  0  0  0  0
 14 37  1  0  0  0  0
 16 38  1  0  0  0  0
 17 39  1  0  0  0  0
 19 40  1  0  0  0  0
 19 41  1  0  0  0  0
 22 42  1  0  0  0  0
 23 43  1  0  0  0  0
 23 44  1  0  0  0  0
 23 45  1  0  0  0  0
 24 46  1  0  0  0  0
 24 47  1  0  0  0  0
 25 48  1  0  0  0  0
 25 49  1  0  0  0  0
 26 50  1  0  0  0  0
 29 51  1  0  0  0  0
 29 52  1  0  0  0  0
 29 53  1  0  0  0  0
M  END
> <Name>
27

> <IC50[uM]>
0.68

$$$$
27
  -OEChem-05192314333D
 Structure written by MMmdl.
 53 56  0     1  0  0  0  0  0999 V2000
   -6.3855   12.3606  -12.0031 C   0  0  0  0  0  0  0  0  0  0  0  0
   -6.5214   11.8004  -10.7171 C   0  0  0  0  0  0  0  0  0  0  0  0
   -7.6991   10.5797  -13.0384 C   0  0  0  0  0  0  0  0  0  0  0  0
   -6.9626   11.7779  -13.1031 C   0  0  0  0  0  0  0  0  0  0  0  0
   -7.8238   10.0198  -11.7523 C   0  0  0  0  0  0  0  0  0  0  0  0
   -7.2557   10.6213  -10.5956 C   0  0  0  0  0  0  0  0  0  0  0  0
   -7.6268    9.7501   -9.5073 C   0  0  0  0  0  0  0  0  0  0  0  0
   -8.3057    8.7491   -9.9816 N   0  0  0  0  0  0  0  0  0  0  0  0
   -8.4330    8.8776  -11.2917 N   0  0  0  0  0  0  0  0  0  0  0  0
   -7.3352    9.8817   -8.0196 C   0  0  0  0  0  0  0  0  0  0  0  0
   -5.6205   13.5372  -12.2095 N   0  0  0  0  0  0  0  0  0  0  0  0
   -5.9727   10.4835   -7.7324 C   0  0  0  0  0  0  0  0  0  0  0  0
   -5.8611   11.7523   -7.1657 C   0  0  0  0  0  0  0  0  0  0  0  0
   -4.5946   12.2988   -6.9068 C   0  0  0  0  0  0  0  0  0  0  0  0
   -3.4432   11.5806   -7.2147 C   0  0  0  0  0  0  0  0  0  0  0  0
   -3.5570   10.3109   -7.7899 C   0  0  0  0  0  0  0  0  0  0  0  0
   -4.8253    9.7663   -8.0483 C   0  0  0  0  0  0  0  0  0  0  0  0
   -2.0926   12.1556   -6.9444 C   0  0  0  0  0  0  0  0  0  0  0  0
   -1.7338   13.4204   -6.4594 C   0  0  0  0  0  0  0  0  0  0  0  0
   -0.4064   13.4584   -6.4114 N   0  0  3  0  0  0  0  0  0  0  0  0
    0.1793   12.3493   -6.7865 N   0  0  0  0  0  0  0  0  0  0  0  0
   -0.7954   11.5387   -7.1512 C   0  0  0  0  0  0  0  0  0  0  0  0
    0.4205   14.5767   -6.0073 C   0  0  0  0  0  0  0  0  0  0  0  0
   -4.6894   13.8945  -11.1046 C   0  0  0  0  0  0  0  0  0  0  0  0
   -3.7822   15.1171  -11.3990 C   0  0  0  0  0  0  0  0  0  0  0  0
   -2.3310   14.9579  -11.2532 N   0  0  0  0  0  0  0  0  0  0  0  0
   -1.8099   14.4326  -10.1320 C   0  0  0  0  0  0  0  0  0  0  0  0
   -2.5019   14.0442   -9.2076 O   0  0  0  0  0  0  0  0  0  0  0  0
   -0.2869   14.3494  -10.0364 C   0  0  0  0  0  0  0  0  0  0  0  0
   -6.0716   12.2689   -9.8542 H   0  0  0  0  0  0  0  0  0  0  0  0
   -8.1374   10.1224  -13.9131 H   0  0  0  0  0  0  0  0  0  0  0  0
   -7.6459   12.5314  -13.5218 H   0  0  0  0  0  0  0  0  0  0  0  0
   -6.1429   11.5918  -13.8126 H   0  0  0  0  0  0  0  0  0  0  0  0
   -8.0269    9.5780   -7.2478 H   0  0  0  0  0  0  0  0  0  0  0  0
   -5.0791   13.4115  -13.0408 H   0  0  0  0  0  0  0  0  0  0  0  0
   -6.7507   12.3156   -6.9255 H   0  0  0  0  0  0  0  0  0  0  0  0
   -4.5132   13.2816   -6.4664 H   0  0  0  0  0  0  0  0  0  0  0  0
   -2.6683    9.7485   -8.0357 H   0  0  0  0  0  0  0  0  0  0  0  0
   -4.9092    8.7863   -8.4943 H   0  0  0  0  0  0  0  0  0  0  0  0
   -2.1095   14.2037   -7.1341 H   0  0  0  0  0  0  0  0  0  0  0  0
   -2.1522   13.5713   -5.4533 H   0  0  0  0  0  0  0  0  0  0  0  0
   -0.6475   10.5464   -7.5511 H   0  0  0  0  0  0  0  0  0  0  0  0
    1.4812   14.2962   -6.0855 H   0  0  0  0  0  0  0  0  0  0  0  0
    0.2196   15.4369   -6.6628 H   0  0  0  0  0  0  0  0  0  0  0  0
    0.1886   14.8468   -4.9665 H   0  0  0  0  0  0  0  0  0  0  0  0
   -5.2882   14.1185  -10.2095 H   0  0  0  0  0  0  0  0  0  0  0  0
   -4.0431   13.0269  -10.9057 H   0  0  0  0  0  0  0  0  0  0  0  0
   -3.9735   15.4217  -12.4385 H   0  0  0  0  0  0  0  0  0  0  0  0
   -4.0914   15.9235  -10.7178 H   0  0  0  0  0  0  0  0  0  0  0  0
   -1.7243   15.2430  -11.9952 H   0  0  0  0  0  0  0  0  0  0  0  0
   -0.0031   13.9147   -9.0666 H   0  0  0  0  0  0  0  0  0  0  0  0
    0.0973   13.7152  -10.8489 H   0  0  0  0  0  0  0  0  0  0  0  0
    0.1416   15.3586  -10.1252 H   0  0  0  0  0  0  0  0  0  0  0  0
  1  2  2  0  0  0  0
  1  4  1  0  0  0  0
  1 11  1  0  0  0  0
  2  6  1  0  0  0  0
  3  4  1  0  0  0  0
  3  5  2  0  0  0  0
  5  6  1  0  0  0  0
  5  9  1  0  0  0  0
  6  7  2  0  0  0  0
  7  8  1  0  0  0  0
  7 10  1  0  0  0  0
  8  9  2  0  0  0  0
 10 12  2  0  0  0  0
 11 24  1  0  0  0  0
 12 13  1  0  0  0  0
 12 17  1  0  0  0  0
 13 14  2  0  0  0  0
 14 15  1  0  0  0  0
 15 16  1  0  0  0  0
 15 18  2  0  0  0  0
 16 17  2  0  0  0  0
 18 19  1  0  0  0  0
 18 22  1  0  0  0  0
 19 20  1  0  0  0  0
 20 21  1  0  0  0  0
 20 23  1  0  0  0  0
 21 22  2  0  0  0  0
 24 25  1  0  0  0  0
 25 26  1  0  0  0  0
 26 27  1  0  0  0  0
 27 28  2  0  0  0  0
 27 29  1  0  0  0  0
  2 30  1  0  0  0  0
  3 31  1  0  0  0  0
  4 32  1  0  0  0  0
  4 33  1  0  0  0  0
 10 34  1  0  0  0  0
 11 35  1  0  0  0  0
 13 36  1  0  0  0  0
 14 37  1  0  0  0  0
 16 38  1  0  0  0  0
 17 39  1  0  0  0  0
 19 40  1  0  0  0  0
 19 41  1  0  0  0  0
 22 42  1  0  0  0  0
 23 43  1  0  0  0  0
 23 44  1  0  0  0  0
 23 45  1  0  0  0  0
 24 46  1  0  0  0  0
 24 47  1  0  0  0  0
 25 48  1  0  0  0  0
 25 49  1  0  0  0  0
 26 50  1  0  0  0  0
 29 51  1  0  0  0  0
 29 52  1  0  0  0  0
 29 53  1  0  0  0  0
M  END
> <Name>
27

> <IC50[uM]>
0.68

$$$$
27
  -OEChem-05192314333D
 Structure written by MMmdl.
 53 56  0     1  0  0  0  0  0999 V2000
   -6.3855   12.3606  -12.0031 C   0  0  0  0  0  0  0  0  0  0  0  0
   -6.5214   11.8004  -10.7171 C   0  0  0  0  0  0  0  0  0  0  0  0
   -7.6991   10.5797  -13.0384 C   0  0  0  0  0  0  0  0  0  0  0  0
   -6.9626   11.7779  -13.1031 C   0  0  0  0  0  0  0  0  0  0  0  0
   -7.8238   10.0198  -11.7523 C   0  0  0  0  0  0  0  0  0  0  0  0
   -7.2557   10.6213  -10.5956 C   0  0  0  0  0  0  0  0  0  0  0  0
   -7.6268    9.7501   -9.5073 C   0  0  0  0  0  0  0  0  0  0  0  0
   -8.3057    8.7491   -9.9816 N   0  0  0  0  0  0  0  0  0  0  0  0
   -8.4330    8.8776  -11.2917 N   0  0  0  0  0  0  0  0  0  0  0  0
   -7.3352    9.8817   -8.0196 C   0  0  0  0  0  0  0  0  0  0  0  0
   -5.6205   13.5372  -12.2095 N   0  0  0  0  0  0  0  0  0  0  0  0
   -5.9727   10.4835   -7.7324 C   0  0  0  0  0  0  0  0  0  0  0  0
   -5.8611   11.7523   -7.1657 C   0  0  0  0  0  0  0  0  0  0  0  0
   -4.5946   12.2988   -6.9068 C   0  0  0  0  0  0  0  0  0  0  0  0
   -3.4432   11.5806   -7.2147 C   0  0  0  0  0  0  0  0  0  0  0  0
   -3.5570   10.3109   -7.7899 C   0  0  0  0  0  0  0  0  0  0  0  0
   -4.8253    9.7663   -8.0483 C   0  0  0  0  0  0  0  0  0  0  0  0
   -2.0926   12.1556   -6.9444 C   0  0  0  0  0  0  0  0  0  0  0  0
   -1.7338   13.4204   -6.4594 C   0  0  0  0  0  0  0  0  0  0  0  0
   -0.4064   13.4584   -6.4114 N   0  0  3  0  0  0  0  0  0  0  0  0
    0.1793   12.3493   -6.7865 N   0  0  0  0  0  0  0  0  0  0  0  0
   -0.7954   11.5387   -7.1512 C   0  0  0  0  0  0  0  0  0  0  0  0
    0.4205   14.5767   -6.0073 C   0  0  0  0  0  0  0  0  0  0  0  0
   -4.6894   13.8945  -11.1046 C   0  0  0  0  0  0  0  0  0  0  0  0
   -3.7822   15.1171  -11.3990 C   0  0  0  0  0  0  0  0  0  0  0  0
   -2.3310   14.9579  -11.2532 N   0  0  0  0  0  0  0  0  0  0  0  0
   -1.8099   14.4326  -10.1320 C   0  0  0  0  0  0  0  0  0  0  0  0
   -2.5019   14.0442   -9.2076 O   0  0  0  0  0  0  0  0  0  0  0  0
   -0.2869   14.3494  -10.0364 C   0  0  0  0  0  0  0  0  0  0  0  0
   -5.5086   11.5965  -10.3394 H   0  0  0  0  0  0  0  0  0  0  0  0
   -7.0053   12.5553  -10.0799 H   0  0  0  0  0  0  0  0  0  0  0  0
   -8.1374   10.1224  -13.9131 H   0  0  0  0  0  0  0  0  0  0  0  0
   -6.8466   12.2604  -14.0624 H   0  0  0  0  0  0  0  0  0  0  0  0
   -8.0269    9.5780   -7.2478 H   0  0  0  0  0  0  0  0  0  0  0  0
   -5.0791   13.4115  -13.0408 H   0  0  0  0  0  0  0  0  0  0  0  0
   -6.7507   12.3156   -6.9255 H   0  0  0  0  0  0  0  0  0  0  0  0
   -4.5132   13.2816   -6.4664 H   0  0  0  0  0  0  0  0  0  0  0  0
   -2.6683    9.7485   -8.0357 H   0  0  0  0  0  0  0  0  0  0  0  0
   -4.9092    8.7863   -8.4943 H   0  0  0  0  0  0  0  0  0  0  0  0
   -2.1095   14.2037   -7.1341 H   0  0  0  0  0  0  0  0  0  0  0  0
   -2.1522   13.5713   -5.4533 H   0  0  0  0  0  0  0  0  0  0  0  0
   -0.6475   10.5464   -7.5511 H   0  0  0  0  0  0  0  0  0  0  0  0
    1.4812   14.2962   -6.0855 H   0  0  0  0  0  0  0  0  0  0  0  0
    0.2196   15.4369   -6.6628 H   0  0  0  0  0  0  0  0  0  0  0  0
    0.1886   14.8468   -4.9665 H   0  0  0  0  0  0  0  0  0  0  0  0
   -5.2882   14.1185  -10.2095 H   0  0  0  0  0  0  0  0  0  0  0  0
   -4.0431   13.0269  -10.9057 H   0  0  0  0  0  0  0  0  0  0  0  0
   -3.9735   15.4217  -12.4385 H   0  0  0  0  0  0  0  0  0  0  0  0
   -4.0914   15.9235  -10.7178 H   0  0  0  0  0  0  0  0  0  0  0  0
   -1.7243   15.2430  -11.9952 H   0  0  0  0  0  0  0  0  0  0  0  0
   -0.0031   13.9147   -9.0666 H   0  0  0  0  0  0  0  0  0  0  0  0
    0.0973   13.7152  -10.8489 H   0  0  0  0  0  0  0  0  0  0  0  0
    0.1416   15.3586  -10.1252 H   0  0  0  0  0  0  0  0  0  0  0  0
  1  2  1  0  0  0  0
  1  4  2  0  0  0  0
  1 11  1  0  0  0  0
  2  6  1  0  0  0  0
  3  4  1  0  0  0  0
  3  5  2  0  0  0  0
  5  6  1  0  0  0  0
  5  9  1  0  0  0  0
  6  7  2  0  0  0  0
  7  8  1  0  0  0  0
  7 10  1  0  0  0  0
  8  9  2  0  0  0  0
 10 12  2  0  0  0  0
 11 24  1  0  0  0  0
 12 13  1  0  0  0  0
 12 17  1  0  0  0  0
 13 14  2  0  0  0  0
 14 15  1  0  0  0  0
 15 16  1  0  0  0  0
 15 18  2  0  0  0  0
 16 17  2  0  0  0  0
 18 19  1  0  0  0  0
 18 22  1  0  0  0  0
 19 20  1  0  0  0  0
 20 21  1  0  0  0  0
 20 23  1  0  0  0  0
 21 22  2  0  0  0  0
 24 25  1  0  0  0  0
 25 26  1  0  0  0  0
 26 27  1  0  0  0  0
 27 28  2  0  0  0  0
 27 29  1  0  0  0  0
  2 30  1  0  0  0  0
  2 31  1  0  0  0  0
  3 32  1  0  0  0  0
  4 33  1  0  0  0  0
 10 34  1  0  0  0  0
 11 35  1  0  0  0  0
 13 36  1  0  0  0  0
 14 37  1  0  0  0  0
 16 38  1  0  0  0  0
 17 39  1  0  0  0  0
 19 40  1  0  0  0  0
 19 41  1  0  0  0  0
 22 42  1  0  0  0  0
 23 43  1  0  0  0  0
 23 44  1  0  0  0  0
 23 45  1  0  0  0  0
 24 46  1  0  0  0  0
 24 47  1  0  0  0  0
 25 48  1  0  0  0  0
 25 49  1  0  0  0  0
 26 50  1  0  0  0  0
 29 51  1  0  0  0  0
 29 52  1  0  0  0  0
 29 53  1  0  0  0  0
M  END
> <Name>
27

> <IC50[uM]>
0.68

$$$$
27
  -OEChem-05192314333D
 Structure written by MMmdl.
 53 56  0     1  0  0  0  0  0999 V2000
   -6.3855   12.3606  -12.0031 C   0  0  0  0  0  0  0  0  0  0  0  0
   -6.5214   11.8004  -10.7171 C   0  0  0  0  0  0  0  0  0  0  0  0
   -7.6991   10.5797  -13.0384 C   0  0  0  0  0  0  0  0  0  0  0  0
   -6.9626   11.7779  -13.1031 C   0  0  0  0  0  0  0  0  0  0  0  0
   -7.8238   10.0198  -11.7523 C   0  0  3  0  0  0  0  0  0  0  0  0
   -7.2557   10.6213  -10.5956 C   0  0  0  0  0  0  0  0  0  0  0  0
   -7.6268    9.7501   -9.5073 C   0  0  0  0  0  0  0  0  0  0  0  0
   -8.3057    8.7491   -9.9816 N   0  0  0  0  0  0  0  0  0  0  0  0
   -8.4330    8.8776  -11.2917 N   0  0  0  0  0  0  0  0  0  0  0  0
   -7.3352    9.8817   -8.0196 C   0  0  0  0  0  0  0  0  0  0  0  0
   -5.6205   13.5372  -12.2095 N   0  0  0  0  0  0  0  0  0  0  0  0
   -5.9727   10.4835   -7.7324 C   0  0  0  0  0  0  0  0  0  0  0  0
   -5.8611   11.7523   -7.1657 C   0  0  0  0  0  0  0  0  0  0  0  0
   -4.5946   12.2988   -6.9068 C   0  0  0  0  0  0  0  0  0  0  0  0
   -3.4432   11.5806   -7.2147 C   0  0  0  0  0  0  0  0  0  0  0  0
   -3.5570   10.3109   -7.7899 C   0  0  0  0  0  0  0  0  0  0  0  0
   -4.8253    9.7663   -8.0483 C   0  0  0  0  0  0  0  0  0  0  0  0
   -2.0926   12.1556   -6.9444 C   0  0  0  0  0  0  0  0  0  0  0  0
   -1.7338   13.4204   -6.4594 C   0  0  0  0  0  0  0  0  0  0  0  0
   -0.4064   13.4584   -6.4114 N   0  0  3  0  0  0  0  0  0  0  0  0
    0.1793   12.3493   -6.7865 N   0  0  0  0  0  0  0  0  0  0  0  0
   -0.7954   11.5387   -7.1512 C   0  0  0  0  0  0  0  0  0  0  0  0
    0.4205   14.5767   -6.0073 C   0  0  0  0  0  0  0  0  0  0  0  0
   -4.6894   13.8945  -11.1046 C   0  0  0  0  0  0  0  0  0  0  0  0
   -3.7822   15.1171  -11.3990 C   0  0  0  0  0  0  0  0  0  0  0  0
   -2.3310   14.9579  -11.2532 N   0  0  0  0  0  0  0  0  0  0  0  0
   -1.8099   14.4326  -10.1320 C   0  0  0  0  0  0  0  0  0  0  0  0
   -2.5019   14.0442   -9.2076 O   0  0  0  0  0  0  0  0  0  0  0  0
   -0.2869   14.3494  -10.0364 C   0  0  0  0  0  0  0  0  0  0  0  0
   -6.0716   12.2689   -9.8542 H   0  0  0  0  0  0  0  0  0  0  0  0
   -8.1374   10.1224  -13.9131 H   0  0  0  0  0  0  0  0  0  0  0  0
   -6.8466   12.2604  -14.0624 H   0  0  0  0  0  0  0  0  0  0  0  0
   -8.7543   10.5845  -11.5930 H   0  0  0  0  0  0  0  0  0  0  0  0
   -8.0269    9.5780   -7.2478 H   0  0  0  0  0  0  0  0  0  0  0  0
   -5.0791   13.4115  -13.0408 H   0  0  0  0  0  0  0  0  0  0  0  0
   -6.7507   12.3156   -6.9255 H   0  0  0  0  0  0  0  0  0  0  0  0
   -4.5132   13.2816   -6.4664 H   0  0  0  0  0  0  0  0  0  0  0  0
   -2.6683    9.7485   -8.0357 H   0  0  0  0  0  0  0  0  0  0  0  0
   -4.9092    8.7863   -8.4943 H   0  0  0  0  0  0  0  0  0  0  0  0
   -2.1095   14.2037   -7.1341 H   0  0  0  0  0  0  0  0  0  0  0  0
   -2.1522   13.5713   -5.4533 H   0  0  0  0  0  0  0  0  0  0  0  0
   -0.6475   10.5464   -7.5511 H   0  0  0  0  0  0  0  0  0  0  0  0
    1.4812   14.2962   -6.0855 H   0  0  0  0  0  0  0  0  0  0  0  0
    0.2196   15.4369   -6.6628 H   0  0  0  0  0  0  0  0  0  0  0  0
    0.1886   14.8468   -4.9665 H   0  0  0  0  0  0  0  0  0  0  0  0
   -5.2882   14.1185  -10.2095 H   0  0  0  0  0  0  0  0  0  0  0  0
   -4.0431   13.0269  -10.9057 H   0  0  0  0  0  0  0  0  0  0  0  0
   -3.9735   15.4217  -12.4385 H   0  0  0  0  0  0  0  0  0  0  0  0
   -4.0914   15.9235  -10.7178 H   0  0  0  0  0  0  0  0  0  0  0  0
   -1.9457   13.7098   -8.5138 H   0  0  0  0  0  0  0  0  0  0  0  0
   -0.0034   13.9020   -9.0723 H   0  0  0  0  0  0  0  0  0  0  0  0
    0.0984   13.7264  -10.8570 H   0  0  0  0  0  0  0  0  0  0  0  0
    0.1408   15.3601  -10.1114 H   0  0  0  0  0  0  0  0  0  0  0  0
  1  2  2  0  0  0  0
  1  4  1  0  0  0  0
  1 11  1  0  0  0  0
  2  6  1  0  0  0  0
  3  4  2  0  0  0  0
  3  5  1  0  0  0  0
  5  6  1  0  0  0  0
  5  9  1  0  0  0  0
  6  7  2  0  0  0  0
  7  8  1  0  0  0  0
  7 10  1  0  0  0  0
  8  9  2  0  0  0  0
 10 12  2  0  0  0  0
 11 24  1  0  0  0  0
 12 13  1  0  0  0  0
 12 17  1  0  0  0  0
 13 14  2  0  0  0  0
 14 15  1  0  0  0  0
 15 16  1  0  0  0  0
 15 18  2  0  0  0  0
 16 17  2  0  0  0  0
 18 19  1  0  0  0  0
 18 22  1  0  0  0  0
 19 20  1  0  0  0  0
 20 21  1  0  0  0  0
 20 23  1  0  0  0  0
 21 22  2  0  0  0  0
 24 25  1  0  0  0  0
 25 26  1  0  0  0  0
 26 27  2  0  0  0  0
 27 28  1  0  0  0  0
 27 29  1  0  0  0  0
  2 30  1  0  0  0  0
  3 31  1  0  0  0  0
  4 32  1  0  0  0  0
  5 33  1  0  0  0  0
 10 34  1  0  0  0  0
 11 35  1  0  0  0  0
 13 36  1  0  0  0  0
 14 37  1  0  0  0  0
 16 38  1  0  0  0  0
 17 39  1  0  0  0  0
 19 40  1  0  0  0  0
 19 41  1  0  0  0  0
 22 42  1  0  0  0  0
 23 43  1  0  0  0  0
 23 44  1  0  0  0  0
 23 45  1  0  0  0  0
 24 46  1  0  0  0  0
 24 47  1  0  0  0  0
 25 48  1  0  0  0  0
 25 49  1  0  0  0  0
 28 50  1  0  0  0  0
 29 51  1  0  0  0  0
 29 52  1  0  0  0  0
 29 53  1  0  0  0  0
M  END
> <Name>
27

> <IC50[uM]>
0.68

$$$$
27
  -OEChem-05192314333D
 Structure written by MMmdl.
 53 56  0     1  0  0  0  0  0999 V2000
   -6.3855   12.3606  -12.0031 C   0  0  0  0  0  0  0  0  0  0  0  0
   -6.5214   11.8004  -10.7171 C   0  0  0  0  0  0  0  0  0  0  0  0
   -7.6991   10.5797  -13.0384 C   0  0  0  0  0  0  0  0  0  0  0  0
   -6.9626   11.7779  -13.1031 C   0  0  0  0  0  0  0  0  0  0  0  0
   -7.8238   10.0198  -11.7523 C   0  0  0  0  0  0  0  0  0  0  0  0
   -7.2557   10.6213  -10.5956 C   0  0  0  0  0  0  0  0  0  0  0  0
   -7.6268    9.7501   -9.5073 C   0  0  0  0  0  0  0  0  0  0  0  0
   -8.3057    8.7491   -9.9816 N   0  0  0  0  0  0  0  0  0  0  0  0
   -8.4330    8.8776  -11.2917 N   0  0  0  0  0  0  0  0  0  0  0  0
   -7.3352    9.8817   -8.0196 C   0  0  0  0  0  0  0  0  0  0  0  0
   -5.6205   13.5372  -12.2095 N   0  0  0  0  0  0  0  0  0  0  0  0
   -5.9727   10.4835   -7.7324 C   0  0  0  0  0  0  0  0  0  0  0  0
   -5.8611   11.7523   -7.1657 C   0  0  0  0  0  0  0  0  0  0  0  0
   -4.5946   12.2988   -6.9068 C   0  0  0  0  0  0  0  0  0  0  0  0
   -3.4432   11.5806   -7.2147 C   0  0  0  0  0  0  0  0  0  0  0  0
   -3.5570   10.3109   -7.7899 C   0  0  0  0  0  0  0  0  0  0  0  0
   -4.8253    9.7663   -8.0483 C   0  0  0  0  0  0  0  0  0  0  0  0
   -2.0926   12.1556   -6.9444 C   0  0  0  0  0  0  0  0  0  0  0  0
   -1.7338   13.4204   -6.4594 C   0  0  0  0  0  0  0  0  0  0  0  0
   -0.4064   13.4584   -6.4114 N   0  0  3  0  0  0  0  0  0  0  0  0
    0.1793   12.3493   -6.7865 N   0  0  0  0  0  0  0  0  0  0  0  0
   -0.7954   11.5387   -7.1512 C   0  0  0  0  0  0  0  0  0  0  0  0
    0.4205   14.5767   -6.0073 C   0  0  0  0  0  0  0  0  0  0  0  0
   -4.6894   13.8945  -11.1046 C   0  0  0  0  0  0  0  0  0  0  0  0
   -3.7822   15.1171  -11.3990 C   0  0  0  0  0  0  0  0  0  0  0  0
   -2.3310   14.9579  -11.2532 N   0  0  0  0  0  0  0  0  0  0  0  0
   -1.8099   14.4326  -10.1320 C   0  0  0  0  0  0  0  0  0  0  0  0
   -2.5019   14.0442   -9.2076 O   0  0  0  0  0  0  0  0  0  0  0  0
   -0.2869   14.3494  -10.0364 C   0  0  0  0  0  0  0  0  0  0  0  0
   -6.0716   12.2689   -9.8542 H   0  0  0  0  0  0  0  0  0  0  0  0
   -8.1374   10.1224  -13.9131 H   0  0  0  0  0  0  0  0  0  0  0  0
   -7.6459   12.5314  -13.5218 H   0  0  0  0  0  0  0  0  0  0  0  0
   -6.1429   11.5918  -13.8126 H   0  0  0  0  0  0  0  0  0  0  0  0
   -8.0269    9.5780   -7.2478 H   0  0  0  0  0  0  0  0  0  0  0  0
   -5.0791   13.4115  -13.0408 H   0  0  0  0  0  0  0  0  0  0  0  0
   -6.7507   12.3156   -6.9255 H   0  0  0  0  0  0  0  0  0  0  0  0
   -4.5132   13.2816   -6.4664 H   0  0  0  0  0  0  0  0  0  0  0  0
   -2.6683    9.7485   -8.0357 H   0  0  0  0  0  0  0  0  0  0  0  0
   -4.9092    8.7863   -8.4943 H   0  0  0  0  0  0  0  0  0  0  0  0
   -2.1095   14.2037   -7.1341 H   0  0  0  0  0  0  0  0  0  0  0  0
   -2.1522   13.5713   -5.4533 H   0  0  0  0  0  0  0  0  0  0  0  0
   -0.6475   10.5464   -7.5511 H   0  0  0  0  0  0  0  0  0  0  0  0
    1.4812   14.2962   -6.0855 H   0  0  0  0  0  0  0  0  0  0  0  0
    0.2196   15.4369   -6.6628 H   0  0  0  0  0  0  0  0  0  0  0  0
    0.1886   14.8468   -4.9665 H   0  0  0  0  0  0  0  0  0  0  0  0
   -5.2882   14.1185  -10.2095 H   0  0  0  0  0  0  0  0  0  0  0  0
   -4.0431   13.0269  -10.9057 H   0  0  0  0  0  0  0  0  0  0  0  0
   -3.9735   15.4217  -12.4385 H   0  0  0  0  0  0  0  0  0  0  0  0
   -4.0914   15.9235  -10.7178 H   0  0  0  0  0  0  0  0  0  0  0  0
   -1.9457   13.7098   -8.5138 H   0  0  0  0  0  0  0  0  0  0  0  0
   -0.0034   13.9020   -9.0723 H   0  0  0  0  0  0  0  0  0  0  0  0
    0.0984   13.7264  -10.8570 H   0  0  0  0  0  0  0  0  0  0  0  0
    0.1408   15.3601  -10.1114 H   0  0  0  0  0  0  0  0  0  0  0  0
  1  2  2  0  0  0  0
  1  4  1  0  0  0  0
  1 11  1  0  0  0  0
  2  6  1  0  0  0  0
  3  4  1  0  0  0  0
  3  5  2  0  0  0  0
  5  6  1  0  0  0  0
  5  9  1  0  0  0  0
  6  7  2  0  0  0  0
  7  8  1  0  0  0  0
  7 10  1  0  0  0  0
  8  9  2  0  0  0  0
 10 12  2  0  0  0  0
 11 24  1  0  0  0  0
 12 13  1  0  0  0  0
 12 17  1  0  0  0  0
 13 14  2  0  0  0  0
 14 15  1  0  0  0  0
 15 16  1  0  0  0  0
 15 18  2  0  0  0  0
 16 17  2  0  0  0  0
 18 19  1  0  0  0  0
 18 22  1  0  0  0  0
 19 20  1  0  0  0  0
 20 21  1  0  0  0  0
 20 23  1  0  0  0  0
 21 22  2  0  0  0  0
 24 25  1  0  0  0  0
 25 26  1  0  0  0  0
 26 27  2  0  0  0  0
 27 28  1  0  0  0  0
 27 29  1  0  0  0  0
  2 30  1  0  0  0  0
  3 31  1  0  0  0  0
  4 32  1  0  0  0  0
  4 33  1  0  0  0  0
 10 34  1  0  0  0  0
 11 35  1  0  0  0  0
 13 36  1  0  0  0  0
 14 37  1  0  0  0  0
 16 38  1  0  0  0  0
 17 39  1  0  0  0  0
 19 40  1  0  0  0  0
 19 41  1  0  0  0  0
 22 42  1  0  0  0  0
 23 43  1  0  0  0  0
 23 44  1  0  0  0  0
 23 45  1  0  0  0  0
 24 46  1  0  0  0  0
 24 47  1  0  0  0  0
 25 48  1  0  0  0  0
 25 49  1  0  0  0  0
 28 50  1  0  0  0  0
 29 51  1  0  0  0  0
 29 52  1  0  0  0  0
 29 53  1  0  0  0  0
M  END
> <Name>
27

> <IC50[uM]>
0.68

$$$$
27
  -OEChem-05192314333D
 Structure written by MMmdl.
 53 56  0     1  0  0  0  0  0999 V2000
   -6.3855   12.3606  -12.0031 C   0  0  0  0  0  0  0  0  0  0  0  0
   -6.5214   11.8004  -10.7171 C   0  0  0  0  0  0  0  0  0  0  0  0
   -7.6991   10.5797  -13.0384 C   0  0  0  0  0  0  0  0  0  0  0  0
   -6.9626   11.7779  -13.1031 C   0  0  0  0  0  0  0  0  0  0  0  0
   -7.8238   10.0198  -11.7523 C   0  0  0  0  0  0  0  0  0  0  0  0
   -7.2557   10.6213  -10.5956 C   0  0  0  0  0  0  0  0  0  0  0  0
   -7.6268    9.7501   -9.5073 C   0  0  0  0  0  0  0  0  0  0  0  0
   -8.3057    8.7491   -9.9816 N   0  0  0  0  0  0  0  0  0  0  0  0
   -8.4330    8.8776  -11.2917 N   0  0  0  0  0  0  0  0  0  0  0  0
   -7.3352    9.8817   -8.0196 C   0  0  0  0  0  0  0  0  0  0  0  0
   -5.6205   13.5372  -12.2095 N   0  0  0  0  0  0  0  0  0  0  0  0
   -5.9727   10.4835   -7.7324 C   0  0  0  0  0  0  0  0  0  0  0  0
   -5.8611   11.7523   -7.1657 C   0  0  0  0  0  0  0  0  0  0  0  0
   -4.5946   12.2988   -6.9068 C   0  0  0  0  0  0  0  0  0  0  0  0
   -3.4432   11.5806   -7.2147 C   0  0  0  0  0  0  0  0  0  0  0  0
   -3.5570   10.3109   -7.7899 C   0  0  0  0  0  0  0  0  0  0  0  0
   -4.8253    9.7663   -8.0483 C   0  0  0  0  0  0  0  0  0  0  0  0
   -2.0926   12.1556   -6.9444 C   0  0  0  0  0  0  0  0  0  0  0  0
   -1.7338   13.4204   -6.4594 C   0  0  0  0  0  0  0  0  0  0  0  0
   -0.4064   13.4584   -6.4114 N   0  0  3  0  0  0  0  0  0  0  0  0
    0.1793   12.3493   -6.7865 N   0  0  0  0  0  0  0  0  0  0  0  0
   -0.7954   11.5387   -7.1512 C   0  0  0  0  0  0  0  0  0  0  0  0
    0.4205   14.5767   -6.0073 C   0  0  0  0  0  0  0  0  0  0  0  0
   -4.6894   13.8945  -11.1046 C   0  0  0  0  0  0  0  0  0  0  0  0
   -3.7822   15.1171  -11.3990 C   0  0  0  0  0  0  0  0  0  0  0  0
   -2.3310   14.9579  -11.2532 N   0  0  0  0  0  0  0  0  0  0  0  0
   -1.8099   14.4326  -10.1320 C   0  0  0  0  0  0  0  0  0  0  0  0
   -2.5019   14.0442   -9.2076 O   0  0  0  0  0  0  0  0  0  0  0  0
   -0.2869   14.3494  -10.0364 C   0  0  0  0  0  0  0  0  0  0  0  0
   -5.5086   11.5965  -10.3394 H   0  0  0  0  0  0  0  0  0  0  0  0
   -7.0053   12.5553  -10.0799 H   0  0  0  0  0  0  0  0  0  0  0  0
   -8.1374   10.1224  -13.9131 H   0  0  0  0  0  0  0  0  0  0  0  0
   -6.8466   12.2604  -14.0624 H   0  0  0  0  0  0  0  0  0  0  0  0
   -8.0269    9.5780   -7.2478 H   0  0  0  0  0  0  0  0  0  0  0  0
   -5.0791   13.4115  -13.0408 H   0  0  0  0  0  0  0  0  0  0  0  0
   -6.7507   12.3156   -6.9255 H   0  0  0  0  0  0  0  0  0  0  0  0
   -4.5132   13.2816   -6.4664 H   0  0  0  0  0  0  0  0  0  0  0  0
   -2.6683    9.7485   -8.0357 H   0  0  0  0  0  0  0  0  0  0  0  0
   -4.9092    8.7863   -8.4943 H   0  0  0  0  0  0  0  0  0  0  0  0
   -2.1095   14.2037   -7.1341 H   0  0  0  0  0  0  0  0  0  0  0  0
   -2.1522   13.5713   -5.4533 H   0  0  0  0  0  0  0  0  0  0  0  0
   -0.6475   10.5464   -7.5511 H   0  0  0  0  0  0  0  0  0  0  0  0
    1.4812   14.2962   -6.0855 H   0  0  0  0  0  0  0  0  0  0  0  0
    0.2196   15.4369   -6.6628 H   0  0  0  0  0  0  0  0  0  0  0  0
    0.1886   14.8468   -4.9665 H   0  0  0  0  0  0  0  0  0  0  0  0
   -5.2882   14.1185  -10.2095 H   0  0  0  0  0  0  0  0  0  0  0  0
   -4.0431   13.0269  -10.9057 H   0  0  0  0  0  0  0  0  0  0  0  0
   -3.9735   15.4217  -12.4385 H   0  0  0  0  0  0  0  0  0  0  0  0
   -4.0914   15.9235  -10.7178 H   0  0  0  0  0  0  0  0  0  0  0  0
   -1.9457   13.7098   -8.5138 H   0  0  0  0  0  0  0  0  0  0  0  0
   -0.0034   13.9020   -9.0723 H   0  0  0  0  0  0  0  0  0  0  0  0
    0.0984   13.7264  -10.8570 H   0  0  0  0  0  0  0  0  0  0  0  0
    0.1408   15.3601  -10.1114 H   0  0  0  0  0  0  0  0  0  0  0  0
  1  2  1  0  0  0  0
  1  4  2  0  0  0  0
  1 11  1  0  0  0  0
  2  6  1  0  0  0  0
  3  4  1  0  0  0  0
  3  5  2  0  0  0  0
  5  6  1  0  0  0  0
  5  9  1  0  0  0  0
  6  7  2  0  0  0  0
  7  8  1  0  0  0  0
  7 10  1  0  0  0  0
  8  9  2  0  0  0  0
 10 12  2  0  0  0  0
 11 24  1  0  0  0  0
 12 13  1  0  0  0  0
 12 17  1  0  0  0  0
 13 14  2  0  0  0  0
 14 15  1  0  0  0  0
 15 16  1  0  0  0  0
 15 18  2  0  0  0  0
 16 17  2  0  0  0  0
 18 19  1  0  0  0  0
 18 22  1  0  0  0  0
 19 20  1  0  0  0  0
 20 21  1  0  0  0  0
 20 23  1  0  0  0  0
 21 22  2  0  0  0  0
 24 25  1  0  0  0  0
 25 26  1  0  0  0  0
 26 27  2  0  0  0  0
 27 28  1  0  0  0  0
 27 29  1  0  0  0  0
  2 30  1  0  0  0  0
  2 31  1  0  0  0  0
  3 32  1  0  0  0  0
  4 33  1  0  0  0  0
 10 34  1  0  0  0  0
 11 35  1  0  0  0  0
 13 36  1  0  0  0  0
 14 37  1  0  0  0  0
 16 38  1  0  0  0  0
 17 39  1  0  0  0  0
 19 40  1  0  0  0  0
 19 41  1  0  0  0  0
 22 42  1  0  0  0  0
 23 43  1  0  0  0  0
 23 44  1  0  0  0  0
 23 45  1  0  0  0  0
 24 46  1  0  0  0  0
 24 47  1  0  0  0  0
 25 48  1  0  0  0  0
 25 49  1  0  0  0  0
 28 50  1  0  0  0  0
 29 51  1  0  0  0  0
 29 52  1  0  0  0  0
 29 53  1  0  0  0  0
M  END
> <Name>
27

> <IC50[uM]>
0.68

$$$$
27
  -OEChem-05192314333D
 Structure written by MMmdl.
 53 56  0     0  0  0  0  0  0999 V2000
   -6.3855   12.3606  -12.0031 C   0  0  0  0  0  0  0  0  0  0  0  0
   -6.5214   11.8004  -10.7171 C   0  0  0  0  0  0  0  0  0  0  0  0
   -7.6991   10.5797  -13.0384 C   0  0  0  0  0  0  0  0  0  0  0  0
   -6.9626   11.7779  -13.1031 C   0  0  0  0  0  0  0  0  0  0  0  0
   -7.8238   10.0198  -11.7523 C   0  0  0  0  0  0  0  0  0  0  0  0
   -7.2557   10.6213  -10.5956 C   0  0  0  0  0  0  0  0  0  0  0  0
   -7.6268    9.7501   -9.5073 C   0  0  0  0  0  0  0  0  0  0  0  0
   -8.3057    8.7491   -9.9816 N   0  0  0  0  0  0  0  0  0  0  0  0
   -8.4330    8.8776  -11.2917 N   0  0  0  0  0  0  0  0  0  0  0  0
   -7.3352    9.8817   -8.0196 C   0  0  0  0  0  0  0  0  0  0  0  0
   -5.6205   13.5372  -12.2095 N   0  0  0  0  0  0  0  0  0  0  0  0
   -5.9727   10.4835   -7.7324 C   0  0  0  0  0  0  0  0  0  0  0  0
   -5.8611   11.7523   -7.1657 C   0  0  0  0  0  0  0  0  0  0  0  0
   -4.5946   12.2988   -6.9068 C   0  0  0  0  0  0  0  0  0  0  0  0
   -3.4432   11.5806   -7.2147 C   0  0  0  0  0  0  0  0  0  0  0  0
   -3.5570   10.3109   -7.7899 C   0  0  0  0  0  0  0  0  0  0  0  0
   -4.8253    9.7663   -8.0483 C   0  0  0  0  0  0  0  0  0  0  0  0
   -2.0926   12.1556   -6.9444 C   0  0  0  0  0  0  0  0  0  0  0  0
   -1.7338   13.4204   -6.4594 C   0  0  0  0  0  0  0  0  0  0  0  0
   -0.4064   13.4584   -6.4114 N   0  0  0  0  0  0  0  0  0  0  0  0
    0.1793   12.3493   -6.7865 N   0  0  0  0  0  0  0  0  0  0  0  0
   -0.7954   11.5387   -7.1512 C   0  0  0  0  0  0  0  0  0  0  0  0
    0.4205   14.5767   -6.0073 C   0  0  0  0  0  0  0  0  0  0  0  0
   -4.6894   13.8945  -11.1046 C   0  0  0  0  0  0  0  0  0  0  0  0
   -3.7822   15.1171  -11.3990 C   0  0  0  0  0  0  0  0  0  0  0  0
   -2.3310   14.9579  -11.2532 N   0  0  0  0  0  0  0  0  0  0  0  0
   -1.8099   14.4326  -10.1320 C   0  0  0  0  0  0  0  0  0  0  0  0
   -2.5019   14.0442   -9.2076 O   0  0  0  0  0  0  0  0  0  0  0  0
   -0.2869   14.3494  -10.0364 C   0  0  0  0  0  0  0  0  0  0  0  0
   -6.0716   12.2689   -9.8542 H   0  0  0  0  0  0  0  0  0  0  0  0
   -8.7105   10.7812  -13.4211 H   0  0  0  0  0  0  0  0  0  0  0  0
   -7.2031    9.8404  -13.6845 H   0  0  0  0  0  0  0  0  0  0  0  0
   -7.6459   12.5314  -13.5218 H   0  0  0  0  0  0  0  0  0  0  0  0
   -6.1429   11.5918  -13.8126 H   0  0  0  0  0  0  0  0  0  0  0  0
   -8.0269    9.5780   -7.2478 H   0  0  0  0  0  0  0  0  0  0  0  0
   -6.7507   12.3156   -6.9255 H   0  0  0  0  0  0  0  0  0  0  0  0
   -4.5132   13.2816   -6.4664 H   0  0  0  0  0  0  0  0  0  0  0  0
   -3.4540   11.1294   -6.2116 H   0  0  0  0  0  0  0  0  0  0  0  0
   -2.6683    9.7485   -8.0357 H   0  0  0  0  0  0  0  0  0  0  0  0
   -4.9092    8.7863   -8.4943 H   0  0  0  0  0  0  0  0  0  0  0  0
   -2.4090   14.2148   -6.1776 H   0  0  0  0  0  0  0  0  0  0  0  0
   -0.6475   10.5464   -7.5511 H   0  0  0  0  0  0  0  0  0  0  0  0
    1.4812   14.2962   -6.0855 H   0  0  0  0  0  0  0  0  0  0  0  0
    0.2196   15.4369   -6.6628 H   0  0  0  0  0  0  0  0  0  0  0  0
    0.1886   14.8468   -4.9665 H   0  0  0  0  0  0  0  0  0  0  0  0
   -5.2882   14.1185  -10.2095 H   0  0  0  0  0  0  0  0  0  0  0  0
   -4.0431   13.0269  -10.9057 H   0  0  0  0  0  0  0  0  0  0  0  0
   -3.9735   15.4217  -12.4385 H   0  0  0  0  0  0  0  0  0  0  0  0
   -4.0914   15.9235  -10.7178 H   0  0  0  0  0  0  0  0  0  0  0  0
   -1.7243   15.2430  -11.9952 H   0  0  0  0  0  0  0  0  0  0  0  0
   -0.0031   13.9147   -9.0666 H   0  0  0  0  0  0  0  0  0  0  0  0
    0.0973   13.7152  -10.8489 H   0  0  0  0  0  0  0  0  0  0  0  0
    0.1416   15.3586  -10.1252 H   0  0  0  0  0  0  0  0  0  0  0  0
  1  2  1  0  0  0  0
  1  4  1  0  0  0  0
  1 11  2  0  0  0  0
  2  6  2  0  0  0  0
  3  4  1  0  0  0  0
  3  5  1  0  0  0  0
  5  6  1  0  0  0  0
  5  9  2  0  0  0  0
  6  7  1  0  0  0  0
  7  8  2  0  0  0  0
  7 10  1  0  0  0  0
  8  9  1  0  0  0  0
 10 12  2  0  0  0  0
 11 24  1  0  0  0  0
 12 13  1  0  0  0  0
 12 17  1  0  0  0  0
 13 14  2  0  0  0  0
 14 15  1  0  0  0  0
 15 16  1  0  0  0  0
 15 18  1  0  0  0  0
 16 17  2  0  0  0  0
 18 19  2  0  0  0  0
 18 22  1  0  0  0  0
 19 20  1  0  0  0  0
 20 21  1  0  0  0  0
 20 23  1  0  0  0  0
 21 22  2  0  0  0  0
 24 25  1  0  0  0  0
 25 26  1  0  0  0  0
 26 27  1  0  0  0  0
 27 28  2  0  0  0  0
 27 29  1  0  0  0  0
  2 30  1  0  0  0  0
  3 31  1  0  0  0  0
  3 32  1  0  0  0  0
  4 33  1  0  0  0  0
  4 34  1  0  0  0  0
 10 35  1  0  0  0  0
 13 36  1  0  0  0  0
 14 37  1  0  0  0  0
 15 38  1  0  0  0  0
 16 39  1  0  0  0  0
 17 40  1  0  0  0  0
 19 41  1  0  0  0  0
 22 42  1  0  0  0  0
 23 43  1  0  0  0  0
 23 44  1  0  0  0  0
 23 45  1  0  0  0  0
 24 46  1  0  0  0  0
 24 47  1  0  0  0  0
 25 48  1  0  0  0  0
 25 49  1  0  0  0  0
 26 50  1  0  0  0  0
 29 51  1  0  0  0  0
 29 52  1  0  0  0  0
 29 53  1  0  0  0  0
M  END
> <Name>
27

> <IC50[uM]>
0.68

$$$$
27
  -OEChem-05192314333D
 Structure written by MMmdl.
 53 56  0     0  0  0  0  0  0999 V2000
   -6.3855   12.3606  -12.0031 C   0  0  0  0  0  0  0  0  0  0  0  0
   -6.5214   11.8004  -10.7171 C   0  0  0  0  0  0  0  0  0  0  0  0
   -7.6991   10.5797  -13.0384 C   0  0  0  0  0  0  0  0  0  0  0  0
   -6.9626   11.7779  -13.1031 C   0  0  0  0  0  0  0  0  0  0  0  0
   -7.8238   10.0198  -11.7523 C   0  0  0  0  0  0  0  0  0  0  0  0
   -7.2557   10.6213  -10.5956 C   0  0  0  0  0  0  0  0  0  0  0  0
   -7.6268    9.7501   -9.5073 C   0  0  0  0  0  0  0  0  0  0  0  0
   -8.3057    8.7491   -9.9816 N   0  0  0  0  0  0  0  0  0  0  0  0
   -8.4330    8.8776  -11.2917 N   0  0  0  0  0  0  0  0  0  0  0  0
   -7.3352    9.8817   -8.0196 C   0  0  0  0  0  0  0  0  0  0  0  0
   -5.6205   13.5372  -12.2095 N   0  0  0  0  0  0  0  0  0  0  0  0
   -5.9727   10.4835   -7.7324 C   0  0  0  0  0  0  0  0  0  0  0  0
   -5.8611   11.7523   -7.1657 C   0  0  0  0  0  0  0  0  0  0  0  0
   -4.5946   12.2988   -6.9068 C   0  0  0  0  0  0  0  0  0  0  0  0
   -3.4432   11.5806   -7.2147 C   0  0  0  0  0  0  0  0  0  0  0  0
   -3.5570   10.3109   -7.7899 C   0  0  0  0  0  0  0  0  0  0  0  0
   -4.8253    9.7663   -8.0483 C   0  0  0  0  0  0  0  0  0  0  0  0
   -2.0926   12.1556   -6.9444 C   0  0  0  0  0  0  0  0  0  0  0  0
   -1.7338   13.4204   -6.4594 C   0  0  0  0  0  0  0  0  0  0  0  0
   -0.4064   13.4584   -6.4114 N   0  0  0  0  0  0  0  0  0  0  0  0
    0.1793   12.3493   -6.7865 N   0  0  0  0  0  0  0  0  0  0  0  0
   -0.7954   11.5387   -7.1512 C   0  0  0  0  0  0  0  0  0  0  0  0
    0.4205   14.5767   -6.0073 C   0  0  0  0  0  0  0  0  0  0  0  0
   -4.6894   13.8945  -11.1046 C   0  0  0  0  0  0  0  0  0  0  0  0
   -3.7822   15.1171  -11.3990 C   0  0  0  0  0  0  0  0  0  0  0  0
   -2.3310   14.9579  -11.2532 N   0  0  0  0  0  0  0  0  0  0  0  0
   -1.8099   14.4326  -10.1320 C   0  0  0  0  0  0  0  0  0  0  0  0
   -2.5019   14.0442   -9.2076 O   0  0  0  0  0  0  0  0  0  0  0  0
   -0.2869   14.3494  -10.0364 C   0  0  0  0  0  0  0  0  0  0  0  0
   -6.0716   12.2689   -9.8542 H   0  0  0  0  0  0  0  0  0  0  0  0
   -8.7105   10.7812  -13.4211 H   0  0  0  0  0  0  0  0  0  0  0  0
   -7.2031    9.8404  -13.6845 H   0  0  0  0  0  0  0  0  0  0  0  0
   -7.6459   12.5314  -13.5218 H   0  0  0  0  0  0  0  0  0  0  0  0
   -6.1429   11.5918  -13.8126 H   0  0  0  0  0  0  0  0  0  0  0  0
   -8.0269    9.5780   -7.2478 H   0  0  0  0  0  0  0  0  0  0  0  0
   -6.7507   12.3156   -6.9255 H   0  0  0  0  0  0  0  0  0  0  0  0
   -4.5132   13.2816   -6.4664 H   0  0  0  0  0  0  0  0  0  0  0  0
   -2.6683    9.7485   -8.0357 H   0  0  0  0  0  0  0  0  0  0  0  0
   -4.8817    8.8185   -7.4929 H   0  0  0  0  0  0  0  0  0  0  0  0
   -4.8676    9.5615   -9.1282 H   0  0  0  0  0  0  0  0  0  0  0  0
   -2.4090   14.2148   -6.1776 H   0  0  0  0  0  0  0  0  0  0  0  0
   -0.6475   10.5464   -7.5511 H   0  0  0  0  0  0  0  0  0  0  0  0
    1.4812   14.2962   -6.0855 H   0  0  0  0  0  0  0  0  0  0  0  0
    0.2196   15.4369   -6.6628 H   0  0  0  0  0  0  0  0  0  0  0  0
    0.1886   14.8468   -4.9665 H   0  0  0  0  0  0  0  0  0  0  0  0
   -5.2882   14.1185  -10.2095 H   0  0  0  0  0  0  0  0  0  0  0  0
   -4.0431   13.0269  -10.9057 H   0  0  0  0  0  0  0  0  0  0  0  0
   -3.9735   15.4217  -12.4385 H   0  0  0  0  0  0  0  0  0  0  0  0
   -4.0914   15.9235  -10.7178 H   0  0  0  0  0  0  0  0  0  0  0  0
   -1.7243   15.2430  -11.9952 H   0  0  0  0  0  0  0  0  0  0  0  0
   -0.0031   13.9147   -9.0666 H   0  0  0  0  0  0  0  0  0  0  0  0
    0.0973   13.7152  -10.8489 H   0  0  0  0  0  0  0  0  0  0  0  0
    0.1416   15.3586  -10.1252 H   0  0  0  0  0  0  0  0  0  0  0  0
  1  2  1  0  0  0  0
  1  4  1  0  0  0  0
  1 11  2  0  0  0  0
  2  6  2  0  0  0  0
  3  4  1  0  0  0  0
  3  5  1  0  0  0  0
  5  6  1  0  0  0  0
  5  9  2  0  0  0  0
  6  7  1  0  0  0  0
  7  8  2  0  0  0  0
  7 10  1  0  0  0  0
  8  9  1  0  0  0  0
 10 12  2  3  0  0  0
 11 24  1  0  0  0  0
 12 13  1  0  0  0  0
 12 17  1  0  0  0  0
 13 14  2  0  0  0  0
 14 15  1  0  0  0  0
 15 16  2  0  0  0  0
 15 18  1  0  0  0  0
 16 17  1  0  0  0  0
 18 19  2  0  0  0  0
 18 22  1  0  0  0  0
 19 20  1  0  0  0  0
 20 21  1  0  0  0  0
 20 23  1  0  0  0  0
 21 22  2  0  0  0  0
 24 25  1  0  0  0  0
 25 26  1  0  0  0  0
 26 27  1  0  0  0  0
 27 28  2  0  0  0  0
 27 29  1  0  0  0  0
  2 30  1  0  0  0  0
  3 31  1  0  0  0  0
  3 32  1  0  0  0  0
  4 33  1  0  0  0  0
  4 34  1  0  0  0  0
 10 35  1  0  0  0  0
 13 36  1  0  0  0  0
 14 37  1  0  0  0  0
 16 38  1  0  0  0  0
 17 39  1  0  0  0  0
 17 40  1  0  0  0  0
 19 41  1  0  0  0  0
 22 42  1  0  0  0  0
 23 43  1  0  0  0  0
 23 44  1  0  0  0  0
 23 45  1  0  0  0  0
 24 46  1  0  0  0  0
 24 47  1  0  0  0  0
 25 48  1  0  0  0  0
 25 49  1  0  0  0  0
 26 50  1  0  0  0  0
 29 51  1  0  0  0  0
 29 52  1  0  0  0  0
 29 53  1  0  0  0  0
M  END
> <Name>
27

> <IC50[uM]>
0.68

$$$$
27
  -OEChem-05192314333D
 Structure written by MMmdl.
 53 56  0     1  0  0  0  0  0999 V2000
   -6.3855   12.3606  -12.0031 C   0  0  0  0  0  0  0  0  0  0  0  0
   -6.5214   11.8004  -10.7171 C   0  0  0  0  0  0  0  0  0  0  0  0
   -7.6991   10.5797  -13.0384 C   0  0  0  0  0  0  0  0  0  0  0  0
   -6.9626   11.7779  -13.1031 C   0  0  0  0  0  0  0  0  0  0  0  0
   -7.8238   10.0198  -11.7523 C   0  0  0  0  0  0  0  0  0  0  0  0
   -7.2557   10.6213  -10.5956 C   0  0  0  0  0  0  0  0  0  0  0  0
   -7.6268    9.7501   -9.5073 C   0  0  0  0  0  0  0  0  0  0  0  0
   -8.3057    8.7491   -9.9816 N   0  0  0  0  0  0  0  0  0  0  0  0
   -8.4330    8.8776  -11.2917 N   0  0  0  0  0  0  0  0  0  0  0  0
   -7.3352    9.8817   -8.0196 C   0  0  0  0  0  0  0  0  0  0  0  0
   -5.6205   13.5372  -12.2095 N   0  0  0  0  0  0  0  0  0  0  0  0
   -5.9727   10.4835   -7.7324 C   0  0  0  0  0  0  0  0  0  0  0  0
   -5.8611   11.7523   -7.1657 C   0  0  0  0  0  0  0  0  0  0  0  0
   -4.5946   12.2988   -6.9068 C   0  0  0  0  0  0  0  0  0  0  0  0
   -3.4432   11.5806   -7.2147 C   0  0  3  0  0  0  0  0  0  0  0  0
   -3.5570   10.3109   -7.7899 C   0  0  0  0  0  0  0  0  0  0  0  0
   -4.8253    9.7663   -8.0483 C   0  0  0  0  0  0  0  0  0  0  0  0
   -2.0926   12.1556   -6.9444 C   0  0  0  0  0  0  0  0  0  0  0  0
   -1.7338   13.4204   -6.4594 C   0  0  0  0  0  0  0  0  0  0  0  0
   -0.4064   13.4584   -6.4114 N   0  0  0  0  0  0  0  0  0  0  0  0
    0.1793   12.3493   -6.7865 N   0  0  0  0  0  0  0  0  0  0  0  0
   -0.7954   11.5387   -7.1512 C   0  0  0  0  0  0  0  0  0  0  0  0
    0.4205   14.5767   -6.0073 C   0  0  0  0  0  0  0  0  0  0  0  0
   -4.6894   13.8945  -11.1046 C   0  0  0  0  0  0  0  0  0  0  0  0
   -3.7822   15.1171  -11.3990 C   0  0  0  0  0  0  0  0  0  0  0  0
   -2.3310   14.9579  -11.2532 N   0  0  0  0  0  0  0  0  0  0  0  0
   -1.8099   14.4326  -10.1320 C   0  0  0  0  0  0  0  0  0  0  0  0
   -2.5019   14.0442   -9.2076 O   0  0  0  0  0  0  0  0  0  0  0  0
   -0.2869   14.3494  -10.0364 C   0  0  0  0  0  0  0  0  0  0  0  0
   -6.0716   12.2689   -9.8542 H   0  0  0  0  0  0  0  0  0  0  0  0
   -8.1374   10.1224  -13.9131 H   0  0  0  0  0  0  0  0  0  0  0  0
   -6.8466   12.2604  -14.0624 H   0  0  0  0  0  0  0  0  0  0  0  0
   -8.0269    9.5780   -7.2478 H   0  0  0  0  0  0  0  0  0  0  0  0
   -6.7507   12.3156   -6.9255 H   0  0  0  0  0  0  0  0  0  0  0  0
   -4.5132   13.2816   -6.4664 H   0  0  0  0  0  0  0  0  0  0  0  0
   -3.4540   11.1294   -6.2116 H   0  0  0  0  0  0  0  0  0  0  0  0
   -3.0266   10.3502   -8.7528 H   0  0  0  0  0  0  0  0  0  0  0  0
   -3.0423    9.6102   -7.1161 H   0  0  0  0  0  0  0  0  0  0  0  0
   -4.8817    8.8185   -7.4929 H   0  0  0  0  0  0  0  0  0  0  0  0
   -4.8676    9.5615   -9.1282 H   0  0  0  0  0  0  0  0  0  0  0  0
   -2.4090   14.2148   -6.1776 H   0  0  0  0  0  0  0  0  0  0  0  0
   -0.6475   10.5464   -7.5511 H   0  0  0  0  0  0  0  0  0  0  0  0
    1.4812   14.2962   -6.0855 H   0  0  0  0  0  0  0  0  0  0  0  0
    0.2196   15.4369   -6.6628 H   0  0  0  0  0  0  0  0  0  0  0  0
    0.1886   14.8468   -4.9665 H   0  0  0  0  0  0  0  0  0  0  0  0
   -5.2882   14.1185  -10.2095 H   0  0  0  0  0  0  0  0  0  0  0  0
   -4.0431   13.0269  -10.9057 H   0  0  0  0  0  0  0  0  0  0  0  0
   -3.9735   15.4217  -12.4385 H   0  0  0  0  0  0  0  0  0  0  0  0
   -4.0914   15.9235  -10.7178 H   0  0  0  0  0  0  0  0  0  0  0  0
   -1.7243   15.2430  -11.9952 H   0  0  0  0  0  0  0  0  0  0  0  0
   -0.0031   13.9147   -9.0666 H   0  0  0  0  0  0  0  0  0  0  0  0
    0.0973   13.7152  -10.8489 H   0  0  0  0  0  0  0  0  0  0  0  0
    0.1416   15.3586  -10.1252 H   0  0  0  0  0  0  0  0  0  0  0  0
  1  2  1  0  0  0  0
  1  4  1  0  0  0  0
  1 11  2  0  0  0  0
  2  6  2  0  0  0  0
  3  4  2  0  0  0  0
  3  5  1  0  0  0  0
  5  6  1  0  0  0  0
  5  9  2  0  0  0  0
  6  7  1  0  0  0  0
  7  8  2  0  0  0  0
  7 10  1  0  0  0  0
  8  9  1  0  0  0  0
 10 12  2  3  0  0  0
 11 24  1  0  0  0  0
 12 13  1  0  0  0  0
 12 17  1  0  0  0  0
 13 14  2  0  0  0  0
 14 15  1  0  0  0  0
 15 16  1  0  0  0  0
 15 18  1  0  0  0  0
 16 17  1  0  0  0  0
 18 19  2  0  0  0  0
 18 22  1  0  0  0  0
 19 20  1  0  0  0  0
 20 21  1  0  0  0  0
 20 23  1  0  0  0  0
 21 22  2  0  0  0  0
 24 25  1  0  0  0  0
 25 26  1  0  0  0  0
 26 27  1  0  0  0  0
 27 28  2  0  0  0  0
 27 29  1  0  0  0  0
  2 30  1  0  0  0  0
  3 31  1  0  0  0  0
  4 32  1  0  0  0  0
 10 33  1  0  0  0  0
 13 34  1  0  0  0  0
 14 35  1  0  0  0  0
 15 36  1  0  0  0  0
 16 37  1  0  0  0  0
 16 38  1  0  0  0  0
 17 39  1  0  0  0  0
 17 40  1  0  0  0  0
 19 41  1  0  0  0  0
 22 42  1  0  0  0  0
 23 43  1  0  0  0  0
 23 44  1  0  0  0  0
 23 45  1  0  0  0  0
 24 46  1  0  0  0  0
 24 47  1  0  0  0  0
 25 48  1  0  0  0  0
 25 49  1  0  0  0  0
 26 50  1  0  0  0  0
 29 51  1  0  0  0  0
 29 52  1  0  0  0  0
 29 53  1  0  0  0  0
M  END
> <Name>
27

> <IC50[uM]>
0.68

$$$$
27
  -OEChem-05192314333D
 Structure written by MMmdl.
 53 56  0     0  0  0  0  0  0999 V2000
   -6.3855   12.3606  -12.0031 C   0  0  0  0  0  0  0  0  0  0  0  0
   -6.5214   11.8004  -10.7171 C   0  0  0  0  0  0  0  0  0  0  0  0
   -7.6991   10.5797  -13.0384 C   0  0  0  0  0  0  0  0  0  0  0  0
   -6.9626   11.7779  -13.1031 C   0  0  0  0  0  0  0  0  0  0  0  0
   -7.8238   10.0198  -11.7523 C   0  0  0  0  0  0  0  0  0  0  0  0
   -7.2557   10.6213  -10.5956 C   0  0  0  0  0  0  0  0  0  0  0  0
   -7.6268    9.7501   -9.5073 C   0  0  0  0  0  0  0  0  0  0  0  0
   -8.3057    8.7491   -9.9816 N   0  0  0  0  0  0  0  0  0  0  0  0
   -8.4330    8.8776  -11.2917 N   0  0  0  0  0  0  0  0  0  0  0  0
   -7.3352    9.8817   -8.0196 C   0  0  0  0  0  0  0  0  0  0  0  0
   -5.6205   13.5372  -12.2095 N   0  0  0  0  0  0  0  0  0  0  0  0
   -5.9727   10.4835   -7.7324 C   0  0  0  0  0  0  0  0  0  0  0  0
   -5.8611   11.7523   -7.1657 C   0  0  0  0  0  0  0  0  0  0  0  0
   -4.5946   12.2988   -6.9068 C   0  0  0  0  0  0  0  0  0  0  0  0
   -3.4432   11.5806   -7.2147 C   0  0  0  0  0  0  0  0  0  0  0  0
   -3.5570   10.3109   -7.7899 C   0  0  0  0  0  0  0  0  0  0  0  0
   -4.8253    9.7663   -8.0483 C   0  0  0  0  0  0  0  0  0  0  0  0
   -2.0926   12.1556   -6.9444 C   0  0  0  0  0  0  0  0  0  0  0  0
   -1.7338   13.4204   -6.4594 C   0  0  0  0  0  0  0  0  0  0  0  0
   -0.4064   13.4584   -6.4114 N   0  0  0  0  0  0  0  0  0  0  0  0
    0.1793   12.3493   -6.7865 N   0  0  0  0  0  0  0  0  0  0  0  0
   -0.7954   11.5387   -7.1512 C   0  0  0  0  0  0  0  0  0  0  0  0
    0.4205   14.5767   -6.0073 C   0  0  0  0  0  0  0  0  0  0  0  0
   -4.6894   13.8945  -11.1046 C   0  0  0  0  0  0  0  0  0  0  0  0
   -3.7822   15.1171  -11.3990 C   0  0  0  0  0  0  0  0  0  0  0  0
   -2.3310   14.9579  -11.2532 N   0  0  0  0  0  0  0  0  0  0  0  0
   -1.8099   14.4326  -10.1320 C   0  0  0  0  0  0  0  0  0  0  0  0
   -2.5019   14.0442   -9.2076 O   0  0  0  0  0  0  0  0  0  0  0  0
   -0.2869   14.3494  -10.0364 C   0  0  0  0  0  0  0  0  0  0  0  0
   -6.0716   12.2689   -9.8542 H   0  0  0  0  0  0  0  0  0  0  0  0
   -8.1374   10.1224  -13.9131 H   0  0  0  0  0  0  0  0  0  0  0  0
   -6.8466   12.2604  -14.0624 H   0  0  0  0  0  0  0  0  0  0  0  0
   -8.0269    9.5780   -7.2478 H   0  0  0  0  0  0  0  0  0  0  0  0
   -6.3742   12.4491   -7.8448 H   0  0  0  0  0  0  0  0  0  0  0  0
   -6.3942   11.7180   -6.2041 H   0  0  0  0  0  0  0  0  0  0  0  0
   -4.5373   13.2433   -7.4677 H   0  0  0  0  0  0  0  0  0  0  0  0
   -4.5562   12.5101   -5.8280 H   0  0  0  0  0  0  0  0  0  0  0  0
   -2.6683    9.7485   -8.0357 H   0  0  0  0  0  0  0  0  0  0  0  0
   -4.8817    8.8185   -7.4929 H   0  0  0  0  0  0  0  0  0  0  0  0
   -4.8676    9.5615   -9.1282 H   0  0  0  0  0  0  0  0  0  0  0  0
   -2.4090   14.2148   -6.1776 H   0  0  0  0  0  0  0  0  0  0  0  0
   -0.6475   10.5464   -7.5511 H   0  0  0  0  0  0  0  0  0  0  0  0
    1.4812   14.2962   -6.0855 H   0  0  0  0  0  0  0  0  0  0  0  0
    0.2196   15.4369   -6.6628 H   0  0  0  0  0  0  0  0  0  0  0  0
    0.1886   14.8468   -4.9665 H   0  0  0  0  0  0  0  0  0  0  0  0
   -5.2882   14.1185  -10.2095 H   0  0  0  0  0  0  0  0  0  0  0  0
   -4.0431   13.0269  -10.9057 H   0  0  0  0  0  0  0  0  0  0  0  0
   -3.9735   15.4217  -12.4385 H   0  0  0  0  0  0  0  0  0  0  0  0
   -4.0914   15.9235  -10.7178 H   0  0  0  0  0  0  0  0  0  0  0  0
   -1.7243   15.2430  -11.9952 H   0  0  0  0  0  0  0  0  0  0  0  0
   -0.0031   13.9147   -9.0666 H   0  0  0  0  0  0  0  0  0  0  0  0
    0.0973   13.7152  -10.8489 H   0  0  0  0  0  0  0  0  0  0  0  0
    0.1416   15.3586  -10.1252 H   0  0  0  0  0  0  0  0  0  0  0  0
  1  2  1  0  0  0  0
  1  4  1  0  0  0  0
  1 11  2  0  0  0  0
  2  6  2  0  0  0  0
  3  4  2  0  0  0  0
  3  5  1  0  0  0  0
  5  6  1  0  0  0  0
  5  9  2  0  0  0  0
  6  7  1  0  0  0  0
  7  8  2  0  0  0  0
  7 10  1  0  0  0  0
  8  9  1  0  0  0  0
 10 12  2  3  0  0  0
 11 24  1  0  0  0  0
 12 13  1  0  0  0  0
 12 17  1  0  0  0  0
 13 14  1  0  0  0  0
 14 15  1  0  0  0  0
 15 16  2  0  0  0  0
 15 18  1  0  0  0  0
 16 17  1  0  0  0  0
 18 19  2  0  0  0  0
 18 22  1  0  0  0  0
 19 20  1  0  0  0  0
 20 21  1  0  0  0  0
 20 23  1  0  0  0  0
 21 22  2  0  0  0  0
 24 25  1  0  0  0  0
 25 26  1  0  0  0  0
 26 27  1  0  0  0  0
 27 28  2  0  0  0  0
 27 29  1  0  0  0  0
  2 30  1  0  0  0  0
  3 31  1  0  0  0  0
  4 32  1  0  0  0  0
 10 33  1  0  0  0  0
 13 34  1  0  0  0  0
 13 35  1  0  0  0  0
 14 36  1  0  0  0  0
 14 37  1  0  0  0  0
 16 38  1  0  0  0  0
 17 39  1  0  0  0  0
 17 40  1  0  0  0  0
 19 41  1  0  0  0  0
 22 42  1  0  0  0  0
 23 43  1  0  0  0  0
 23 44  1  0  0  0  0
 23 45  1  0  0  0  0
 24 46  1  0  0  0  0
 24 47  1  0  0  0  0
 25 48  1  0  0  0  0
 25 49  1  0  0  0  0
 26 50  1  0  0  0  0
 29 51  1  0  0  0  0
 29 52  1  0  0  0  0
 29 53  1  0  0  0  0
M  END
> <Name>
27

> <IC50[uM]>
0.68

$$$$
27
  -OEChem-05192314333D
 Structure written by MMmdl.
 53 56  0     1  0  0  0  0  0999 V2000
   -6.3855   12.3606  -12.0031 C   0  0  0  0  0  0  0  0  0  0  0  0
   -6.5214   11.8004  -10.7171 C   0  0  0  0  0  0  0  0  0  0  0  0
   -7.6991   10.5797  -13.0384 C   0  0  0  0  0  0  0  0  0  0  0  0
   -6.9626   11.7779  -13.1031 C   0  0  0  0  0  0  0  0  0  0  0  0
   -7.8238   10.0198  -11.7523 C   0  0  0  0  0  0  0  0  0  0  0  0
   -7.2557   10.6213  -10.5956 C   0  0  3  0  0  0  0  0  0  0  0  0
   -7.6268    9.7501   -9.5073 C   0  0  0  0  0  0  0  0  0  0  0  0
   -8.3057    8.7491   -9.9816 N   0  0  0  0  0  0  0  0  0  0  0  0
   -8.4330    8.8776  -11.2917 N   0  0  0  0  0  0  0  0  0  0  0  0
   -7.3352    9.8817   -8.0196 C   0  0  0  0  0  0  0  0  0  0  0  0
   -5.6205   13.5372  -12.2095 N   0  0  0  0  0  0  0  0  0  0  0  0
   -5.9727   10.4835   -7.7324 C   0  0  0  0  0  0  0  0  0  0  0  0
   -5.8611   11.7523   -7.1657 C   0  0  0  0  0  0  0  0  0  0  0  0
   -4.5946   12.2988   -6.9068 C   0  0  0  0  0  0  0  0  0  0  0  0
   -3.4432   11.5806   -7.2147 C   0  0  0  0  0  0  0  0  0  0  0  0
   -3.5570   10.3109   -7.7899 C   0  0  0  0  0  0  0  0  0  0  0  0
   -4.8253    9.7663   -8.0483 C   0  0  0  0  0  0  0  0  0  0  0  0
   -2.0926   12.1556   -6.9444 C   0  0  0  0  0  0  0  0  0  0  0  0
   -1.7338   13.4204   -6.4594 C   0  0  0  0  0  0  0  0  0  0  0  0
   -0.4064   13.4584   -6.4114 N   0  0  0  0  0  0  0  0  0  0  0  0
    0.1793   12.3493   -6.7865 N   0  0  0  0  0  0  0  0  0  0  0  0
   -0.7954   11.5387   -7.1512 C   0  0  0  0  0  0  0  0  0  0  0  0
    0.4205   14.5767   -6.0073 C   0  0  0  0  0  0  0  0  0  0  0  0
   -4.6894   13.8945  -11.1046 C   0  0  0  0  0  0  0  0  0  0  0  0
   -3.7822   15.1171  -11.3990 C   0  0  0  0  0  0  0  0  0  0  0  0
   -2.3310   14.9579  -11.2532 N   0  0  0  0  0  0  0  0  0  0  0  0
   -1.8099   14.4326  -10.1320 C   0  0  0  0  0  0  0  0  0  0  0  0
   -2.5019   14.0442   -9.2076 O   0  0  0  0  0  0  0  0  0  0  0  0
   -0.2869   14.3494  -10.0364 C   0  0  0  0  0  0  0  0  0  0  0  0
   -5.5086   11.5965  -10.3394 H   0  0  0  0  0  0  0  0  0  0  0  0
   -7.0053   12.5553  -10.0799 H   0  0  0  0  0  0  0  0  0  0  0  0
   -8.1374   10.1224  -13.9131 H   0  0  0  0  0  0  0  0  0  0  0  0
   -6.8466   12.2604  -14.0624 H   0  0  0  0  0  0  0  0  0  0  0  0
   -8.1751   11.2060  -10.4447 H   0  0  0  0  0  0  0  0  0  0  0  0
   -8.0269    9.5780   -7.2478 H   0  0  0  0  0  0  0  0  0  0  0  0
   -6.7507   12.3156   -6.9255 H   0  0  0  0  0  0  0  0  0  0  0  0
   -4.5132   13.2816   -6.4664 H   0  0  0  0  0  0  0  0  0  0  0  0
   -3.4540   11.1294   -6.2116 H   0  0  0  0  0  0  0  0  0  0  0  0
   -2.6683    9.7485   -8.0357 H   0  0  0  0  0  0  0  0  0  0  0  0
   -4.9092    8.7863   -8.4943 H   0  0  0  0  0  0  0  0  0  0  0  0
   -2.4090   14.2148   -6.1776 H   0  0  0  0  0  0  0  0  0  0  0  0
   -0.6475   10.5464   -7.5511 H   0  0  0  0  0  0  0  0  0  0  0  0
    1.4812   14.2962   -6.0855 H   0  0  0  0  0  0  0  0  0  0  0  0
    0.2196   15.4369   -6.6628 H   0  0  0  0  0  0  0  0  0  0  0  0
    0.1886   14.8468   -4.9665 H   0  0  0  0  0  0  0  0  0  0  0  0
   -5.2882   14.1185  -10.2095 H   0  0  0  0  0  0  0  0  0  0  0  0
   -4.0431   13.0269  -10.9057 H   0  0  0  0  0  0  0  0  0  0  0  0
   -3.9735   15.4217  -12.4385 H   0  0  0  0  0  0  0  0  0  0  0  0
   -4.0914   15.9235  -10.7178 H   0  0  0  0  0  0  0  0  0  0  0  0
   -1.7243   15.2430  -11.9952 H   0  0  0  0  0  0  0  0  0  0  0  0
   -0.0031   13.9147   -9.0666 H   0  0  0  0  0  0  0  0  0  0  0  0
    0.0973   13.7152  -10.8489 H   0  0  0  0  0  0  0  0  0  0  0  0
    0.1416   15.3586  -10.1252 H   0  0  0  0  0  0  0  0  0  0  0  0
  1  2  1  0  0  0  0
  1  4  1  0  0  0  0
  1 11  2  0  0  0  0
  2  6  1  0  0  0  0
  3  4  2  0  0  0  0
  3  5  1  0  0  0  0
  5  6  1  0  0  0  0
  5  9  2  0  0  0  0
  6  7  1  0  0  0  0
  7  8  2  0  0  0  0
  7 10  1  0  0  0  0
  8  9  1  0  0  0  0
 10 12  2  0  0  0  0
 11 24  1  0  0  0  0
 12 13  1  0  0  0  0
 12 17  1  0  0  0  0
 13 14  2  0  0  0  0
 14 15  1  0  0  0  0
 15 16  1  0  0  0  0
 15 18  1  0  0  0  0
 16 17  2  0  0  0  0
 18 19  2  0  0  0  0
 18 22  1  0  0  0  0
 19 20  1  0  0  0  0
 20 21  1  0  0  0  0
 20 23  1  0  0  0  0
 21 22  2  0  0  0  0
 24 25  1  0  0  0  0
 25 26  1  0  0  0  0
 26 27  1  0  0  0  0
 27 28  2  0  0  0  0
 27 29  1  0  0  0  0
  2 30  1  0  0  0  0
  2 31  1  0  0  0  0
  3 32  1  0  0  0  0
  4 33  1  0  0  0  0
  6 34  1  0  0  0  0
 10 35  1  0  0  0  0
 13 36  1  0  0  0  0
 14 37  1  0  0  0  0
 15 38  1  0  0  0  0
 16 39  1  0  0  0  0
 17 40  1  0  0  0  0
 19 41  1  0  0  0  0
 22 42  1  0  0  0  0
 23 43  1  0  0  0  0
 23 44  1  0  0  0  0
 23 45  1  0  0  0  0
 24 46  1  0  0  0  0
 24 47  1  0  0  0  0
 25 48  1  0  0  0  0
 25 49  1  0  0  0  0
 26 50  1  0  0  0  0
 29 51  1  0  0  0  0
 29 52  1  0  0  0  0
 29 53  1  0  0  0  0
M  END
> <Name>
27

> <IC50[uM]>
0.68

$$$$
27
  -OEChem-05192314333D
 Structure written by MMmdl.
 53 56  0     1  0  0  0  0  0999 V2000
   -6.3855   12.3606  -12.0031 C   0  0  0  0  0  0  0  0  0  0  0  0
   -6.5214   11.8004  -10.7171 C   0  0  0  0  0  0  0  0  0  0  0  0
   -7.6991   10.5797  -13.0384 C   0  0  0  0  0  0  0  0  0  0  0  0
   -6.9626   11.7779  -13.1031 C   0  0  0  0  0  0  0  0  0  0  0  0
   -7.8238   10.0198  -11.7523 C   0  0  0  0  0  0  0  0  0  0  0  0
   -7.2557   10.6213  -10.5956 C   0  0  3  0  0  0  0  0  0  0  0  0
   -7.6268    9.7501   -9.5073 C   0  0  0  0  0  0  0  0  0  0  0  0
   -8.3057    8.7491   -9.9816 N   0  0  0  0  0  0  0  0  0  0  0  0
   -8.4330    8.8776  -11.2917 N   0  0  0  0  0  0  0  0  0  0  0  0
   -7.3352    9.8817   -8.0196 C   0  0  0  0  0  0  0  0  0  0  0  0
   -5.6205   13.5372  -12.2095 N   0  0  0  0  0  0  0  0  0  0  0  0
   -5.9727   10.4835   -7.7324 C   0  0  0  0  0  0  0  0  0  0  0  0
   -5.8611   11.7523   -7.1657 C   0  0  0  0  0  0  0  0  0  0  0  0
   -4.5946   12.2988   -6.9068 C   0  0  0  0  0  0  0  0  0  0  0  0
   -3.4432   11.5806   -7.2147 C   0  0  0  0  0  0  0  0  0  0  0  0
   -3.5570   10.3109   -7.7899 C   0  0  0  0  0  0  0  0  0  0  0  0
   -4.8253    9.7663   -8.0483 C   0  0  0  0  0  0  0  0  0  0  0  0
   -2.0926   12.1556   -6.9444 C   0  0  0  0  0  0  0  0  0  0  0  0
   -1.7338   13.4204   -6.4594 C   0  0  0  0  0  0  0  0  0  0  0  0
   -0.4064   13.4584   -6.4114 N   0  0  0  0  0  0  0  0  0  0  0  0
    0.1793   12.3493   -6.7865 N   0  0  0  0  0  0  0  0  0  0  0  0
   -0.7954   11.5387   -7.1512 C   0  0  0  0  0  0  0  0  0  0  0  0
    0.4205   14.5767   -6.0073 C   0  0  0  0  0  0  0  0  0  0  0  0
   -4.6894   13.8945  -11.1046 C   0  0  0  0  0  0  0  0  0  0  0  0
   -3.7822   15.1171  -11.3990 C   0  0  0  0  0  0  0  0  0  0  0  0
   -2.3310   14.9579  -11.2532 N   0  0  0  0  0  0  0  0  0  0  0  0
   -1.8099   14.4326  -10.1320 C   0  0  0  0  0  0  0  0  0  0  0  0
   -2.5019   14.0442   -9.2076 O   0  0  0  0  0  0  0  0  0  0  0  0
   -0.2869   14.3494  -10.0364 C   0  0  0  0  0  0  0  0  0  0  0  0
   -5.5086   11.5965  -10.3394 H   0  0  0  0  0  0  0  0  0  0  0  0
   -7.0053   12.5553  -10.0799 H   0  0  0  0  0  0  0  0  0  0  0  0
   -8.1374   10.1224  -13.9131 H   0  0  0  0  0  0  0  0  0  0  0  0
   -6.8466   12.2604  -14.0624 H   0  0  0  0  0  0  0  0  0  0  0  0
   -8.1751   11.2060  -10.4447 H   0  0  0  0  0  0  0  0  0  0  0  0
   -8.0269    9.5780   -7.2478 H   0  0  0  0  0  0  0  0  0  0  0  0
   -6.7507   12.3156   -6.9255 H   0  0  0  0  0  0  0  0  0  0  0  0
   -4.5132   13.2816   -6.4664 H   0  0  0  0  0  0  0  0  0  0  0  0
   -2.6683    9.7485   -8.0357 H   0  0  0  0  0  0  0  0  0  0  0  0
   -4.8817    8.8185   -7.4929 H   0  0  0  0  0  0  0  0  0  0  0  0
   -4.8676    9.5615   -9.1282 H   0  0  0  0  0  0  0  0  0  0  0  0
   -2.4090   14.2148   -6.1776 H   0  0  0  0  0  0  0  0  0  0  0  0
   -0.6475   10.5464   -7.5511 H   0  0  0  0  0  0  0  0  0  0  0  0
    1.4812   14.2962   -6.0855 H   0  0  0  0  0  0  0  0  0  0  0  0
    0.2196   15.4369   -6.6628 H   0  0  0  0  0  0  0  0  0  0  0  0
    0.1886   14.8468   -4.9665 H   0  0  0  0  0  0  0  0  0  0  0  0
   -5.2882   14.1185  -10.2095 H   0  0  0  0  0  0  0  0  0  0  0  0
   -4.0431   13.0269  -10.9057 H   0  0  0  0  0  0  0  0  0  0  0  0
   -3.9735   15.4217  -12.4385 H   0  0  0  0  0  0  0  0  0  0  0  0
   -4.0914   15.9235  -10.7178 H   0  0  0  0  0  0  0  0  0  0  0  0
   -1.7243   15.2430  -11.9952 H   0  0  0  0  0  0  0  0  0  0  0  0
   -0.0031   13.9147   -9.0666 H   0  0  0  0  0  0  0  0  0  0  0  0
    0.0973   13.7152  -10.8489 H   0  0  0  0  0  0  0  0  0  0  0  0
    0.1416   15.3586  -10.1252 H   0  0  0  0  0  0  0  0  0  0  0  0
  1  2  1  0  0  0  0
  1  4  1  0  0  0  0
  1 11  2  0  0  0  0
  2  6  1  0  0  0  0
  3  4  2  0  0  0  0
  3  5  1  0  0  0  0
  5  6  1  0  0  0  0
  5  9  2  0  0  0  0
  6  7  1  0  0  0  0
  7  8  2  0  0  0  0
  7 10  1  0  0  0  0
  8  9  1  0  0  0  0
 10 12  2  3  0  0  0
 11 24  1  0  0  0  0
 12 13  1  0  0  0  0
 12 17  1  0  0  0  0
 13 14  2  0  0  0  0
 14 15  1  0  0  0  0
 15 16  2  0  0  0  0
 15 18  1  0  0  0  0
 16 17  1  0  0  0  0
 18 19  2  0  0  0  0
 18 22  1  0  0  0  0
 19 20  1  0  0  0  0
 20 21  1  0  0  0  0
 20 23  1  0  0  0  0
 21 22  2  0  0  0  0
 24 25  1  0  0  0  0
 25 26  1  0  0  0  0
 26 27  1  0  0  0  0
 27 28  2  0  0  0  0
 27 29  1  0  0  0  0
  2 30  1  0  0  0  0
  2 31  1  0  0  0  0
  3 32  1  0  0  0  0
  4 33  1  0  0  0  0
  6 34  1  0  0  0  0
 10 35  1  0  0  0  0
 13 36  1  0  0  0  0
 14 37  1  0  0  0  0
 16 38  1  0  0  0  0
 17 39  1  0  0  0  0
 17 40  1  0  0  0  0
 19 41  1  0  0  0  0
 22 42  1  0  0  0  0
 23 43  1  0  0  0  0
 23 44  1  0  0  0  0
 23 45  1  0  0  0  0
 24 46  1  0  0  0  0
 24 47  1  0  0  0  0
 25 48  1  0  0  0  0
 25 49  1  0  0  0  0
 26 50  1  0  0  0  0
 29 51  1  0  0  0  0
 29 52  1  0  0  0  0
 29 53  1  0  0  0  0
M  END
> <Name>
27

> <IC50[uM]>
0.68

$$$$
27
  -OEChem-05192314333D
 Structure written by MMmdl.
 53 56  0     0  0  0  0  0  0999 V2000
   -6.3855   12.3606  -12.0031 C   0  0  0  0  0  0  0  0  0  0  0  0
   -6.5214   11.8004  -10.7171 C   0  0  0  0  0  0  0  0  0  0  0  0
   -7.6991   10.5797  -13.0384 C   0  0  0  0  0  0  0  0  0  0  0  0
   -6.9626   11.7779  -13.1031 C   0  0  0  0  0  0  0  0  0  0  0  0
   -7.8238   10.0198  -11.7523 C   0  0  0  0  0  0  0  0  0  0  0  0
   -7.2557   10.6213  -10.5956 C   0  0  0  0  0  0  0  0  0  0  0  0
   -7.6268    9.7501   -9.5073 C   0  0  0  0  0  0  0  0  0  0  0  0
   -8.3057    8.7491   -9.9816 N   0  0  0  0  0  0  0  0  0  0  0  0
   -8.4330    8.8776  -11.2917 N   0  0  0  0  0  0  0  0  0  0  0  0
   -7.3352    9.8817   -8.0196 C   0  0  0  0  0  0  0  0  0  0  0  0
   -5.6205   13.5372  -12.2095 N   0  0  0  0  0  0  0  0  0  0  0  0
   -5.9727   10.4835   -7.7324 C   0  0  0  0  0  0  0  0  0  0  0  0
   -5.8611   11.7523   -7.1657 C   0  0  0  0  0  0  0  0  0  0  0  0
   -4.5946   12.2988   -6.9068 C   0  0  0  0  0  0  0  0  0  0  0  0
   -3.4432   11.5806   -7.2147 C   0  0  0  0  0  0  0  0  0  0  0  0
   -3.5570   10.3109   -7.7899 C   0  0  0  0  0  0  0  0  0  0  0  0
   -4.8253    9.7663   -8.0483 C   0  0  0  0  0  0  0  0  0  0  0  0
   -2.0926   12.1556   -6.9444 C   0  0  0  0  0  0  0  0  0  0  0  0
   -1.7338   13.4204   -6.4594 C   0  0  0  0  0  0  0  0  0  0  0  0
   -0.4064   13.4584   -6.4114 N   0  0  0  0  0  0  0  0  0  0  0  0
    0.1793   12.3493   -6.7865 N   0  0  0  0  0  0  0  0  0  0  0  0
   -0.7954   11.5387   -7.1512 C   0  0  0  0  0  0  0  0  0  0  0  0
    0.4205   14.5767   -6.0073 C   0  0  0  0  0  0  0  0  0  0  0  0
   -4.6894   13.8945  -11.1046 C   0  0  0  0  0  0  0  0  0  0  0  0
   -3.7822   15.1171  -11.3990 C   0  0  0  0  0  0  0  0  0  0  0  0
   -2.3310   14.9579  -11.2532 N   0  0  0  0  0  0  0  0  0  0  0  0
   -1.8099   14.4326  -10.1320 C   0  0  0  0  0  0  0  0  0  0  0  0
   -2.5019   14.0442   -9.2076 O   0  0  0  0  0  0  0  0  0  0  0  0
   -0.2869   14.3494  -10.0364 C   0  0  0  0  0  0  0  0  0  0  0  0
   -6.0716   12.2689   -9.8542 H   0  0  0  0  0  0  0  0  0  0  0  0
   -8.1374   10.1224  -13.9131 H   0  0  0  0  0  0  0  0  0  0  0  0
   -6.8466   12.2604  -14.0624 H   0  0  0  0  0  0  0  0  0  0  0  0
   -8.1046   10.5248   -7.5674 H   0  0  0  0  0  0  0  0  0  0  0  0
   -7.3794    8.8814   -7.5641 H   0  0  0  0  0  0  0  0  0  0  0  0
   -5.9820   10.0328   -6.7290 H   0  0  0  0  0  0  0  0  0  0  0  0
   -6.7507   12.3156   -6.9255 H   0  0  0  0  0  0  0  0  0  0  0  0
   -4.5132   13.2816   -6.4664 H   0  0  0  0  0  0  0  0  0  0  0  0
   -3.4540   11.1294   -6.2116 H   0  0  0  0  0  0  0  0  0  0  0  0
   -2.6683    9.7485   -8.0357 H   0  0  0  0  0  0  0  0  0  0  0  0
   -4.9092    8.7863   -8.4943 H   0  0  0  0  0  0  0  0  0  0  0  0
   -2.4090   14.2148   -6.1776 H   0  0  0  0  0  0  0  0  0  0  0  0
   -0.6475   10.5464   -7.5511 H   0  0  0  0  0  0  0  0  0  0  0  0
    1.4812   14.2962   -6.0855 H   0  0  0  0  0  0  0  0  0  0  0  0
    0.2196   15.4369   -6.6628 H   0  0  0  0  0  0  0  0  0  0  0  0
    0.1886   14.8468   -4.9665 H   0  0  0  0  0  0  0  0  0  0  0  0
   -5.2882   14.1185  -10.2095 H   0  0  0  0  0  0  0  0  0  0  0  0
   -4.0431   13.0269  -10.9057 H   0  0  0  0  0  0  0  0  0  0  0  0
   -3.9735   15.4217  -12.4385 H   0  0  0  0  0  0  0  0  0  0  0  0
   -4.0914   15.9235  -10.7178 H   0  0  0  0  0  0  0  0  0  0  0  0
   -1.7243   15.2430  -11.9952 H   0  0  0  0  0  0  0  0  0  0  0  0
   -0.0031   13.9147   -9.0666 H   0  0  0  0  0  0  0  0  0  0  0  0
    0.0973   13.7152  -10.8489 H   0  0  0  0  0  0  0  0  0  0  0  0
    0.1416   15.3586  -10.1252 H   0  0  0  0  0  0  0  0  0  0  0  0
  1  2  1  0  0  0  0
  1  4  1  0  0  0  0
  1 11  2  0  0  0  0
  2  6  2  0  0  0  0
  3  4  2  0  0  0  0
  3  5  1  0  0  0  0
  5  6  1  0  0  0  0
  5  9  2  0  0  0  0
  6  7  1  0  0  0  0
  7  8  2  0  0  0  0
  7 10  1  0  0  0  0
  8  9  1  0  0  0  0
 10 12  1  0  0  0  0
 11 24  1  0  0  0  0
 12 13  1  0  0  0  0
 12 17  1  0  0  0  0
 13 14  2  0  0  0  0
 14 15  1  0  0  0  0
 15 16  1  0  0  0  0
 15 18  1  0  0  0  0
 16 17  2  0  0  0  0
 18 19  2  0  0  0  0
 18 22  1  0  0  0  0
 19 20  1  0  0  0  0
 20 21  1  0  0  0  0
 20 23  1  0  0  0  0
 21 22  2  0  0  0  0
 24 25  1  0  0  0  0
 25 26  1  0  0  0  0
 26 27  1  0  0  0  0
 27 28  2  0  0  0  0
 27 29  1  0  0  0  0
  2 30  1  0  0  0  0
  3 31  1  0  0  0  0
  4 32  1  0  0  0  0
 10 33  1  0  0  0  0
 10 34  1  0  0  0  0
 12 35  1  0  0  0  0
 13 36  1  0  0  0  0
 14 37  1  0  0  0  0
 15 38  1  0  0  0  0
 16 39  1  0  0  0  0
 17 40  1  0  0  0  0
 19 41  1  0  0  0  0
 22 42  1  0  0  0  0
 23 43  1  0  0  0  0
 23 44  1  0  0  0  0
 23 45  1  0  0  0  0
 24 46  1  0  0  0  0
 24 47  1  0  0  0  0
 25 48  1  0  0  0  0
 25 49  1  0  0  0  0
 26 50  1  0  0  0  0
 29 51  1  0  0  0  0
 29 52  1  0  0  0  0
 29 53  1  0  0  0  0
M  END
> <Name>
27

> <IC50[uM]>
0.68

$$$$
27
  -OEChem-05192314333D
 Structure written by MMmdl.
 53 56  0     1  0  0  0  0  0999 V2000
   -6.3855   12.3606  -12.0031 C   0  0  0  0  0  0  0  0  0  0  0  0
   -6.5214   11.8004  -10.7171 C   0  0  0  0  0  0  0  0  0  0  0  0
   -7.6991   10.5797  -13.0384 C   0  0  0  0  0  0  0  0  0  0  0  0
   -6.9626   11.7779  -13.1031 C   0  0  0  0  0  0  0  0  0  0  0  0
   -7.8238   10.0198  -11.7523 C   0  0  0  0  0  0  0  0  0  0  0  0
   -7.2557   10.6213  -10.5956 C   0  0  0  0  0  0  0  0  0  0  0  0
   -7.6268    9.7501   -9.5073 C   0  0  0  0  0  0  0  0  0  0  0  0
   -8.3057    8.7491   -9.9816 N   0  0  0  0  0  0  0  0  0  0  0  0
   -8.4330    8.8776  -11.2917 N   0  0  0  0  0  0  0  0  0  0  0  0
   -7.3352    9.8817   -8.0196 C   0  0  0  0  0  0  0  0  0  0  0  0
   -5.6205   13.5372  -12.2095 N   0  0  0  0  0  0  0  0  0  0  0  0
   -5.9727   10.4835   -7.7324 C   0  0  0  0  0  0  0  0  0  0  0  0
   -5.8611   11.7523   -7.1657 C   0  0  0  0  0  0  0  0  0  0  0  0
   -4.5946   12.2988   -6.9068 C   0  0  0  0  0  0  0  0  0  0  0  0
   -3.4432   11.5806   -7.2147 C   0  0  3  0  0  0  0  0  0  0  0  0
   -3.5570   10.3109   -7.7899 C   0  0  0  0  0  0  0  0  0  0  0  0
   -4.8253    9.7663   -8.0483 C   0  0  0  0  0  0  0  0  0  0  0  0
   -2.0926   12.1556   -6.9444 C   0  0  0  0  0  0  0  0  0  0  0  0
   -1.7338   13.4204   -6.4594 C   0  0  0  0  0  0  0  0  0  0  0  0
   -0.4064   13.4584   -6.4114 N   0  0  0  0  0  0  0  0  0  0  0  0
    0.1793   12.3493   -6.7865 N   0  0  0  0  0  0  0  0  0  0  0  0
   -0.7954   11.5387   -7.1512 C   0  0  0  0  0  0  0  0  0  0  0  0
    0.4205   14.5767   -6.0073 C   0  0  0  0  0  0  0  0  0  0  0  0
   -4.6894   13.8945  -11.1046 C   0  0  0  0  0  0  0  0  0  0  0  0
   -3.7822   15.1171  -11.3990 C   0  0  0  0  0  0  0  0  0  0  0  0
   -2.3310   14.9579  -11.2532 N   0  0  0  0  0  0  0  0  0  0  0  0
   -1.8099   14.4326  -10.1320 C   0  0  0  0  0  0  0  0  0  0  0  0
   -2.5019   14.0442   -9.2076 O   0  0  0  0  0  0  0  0  0  0  0  0
   -0.2869   14.3494  -10.0364 C   0  0  0  0  0  0  0  0  0  0  0  0
   -6.0716   12.2689   -9.8542 H   0  0  0  0  0  0  0  0  0  0  0  0
   -8.1374   10.1224  -13.9131 H   0  0  0  0  0  0  0  0  0  0  0  0
   -6.8466   12.2604  -14.0624 H   0  0  0  0  0  0  0  0  0  0  0  0
   -8.1046   10.5248   -7.5674 H   0  0  0  0  0  0  0  0  0  0  0  0
   -7.3794    8.8814   -7.5641 H   0  0  0  0  0  0  0  0  0  0  0  0
   -6.7507   12.3156   -6.9255 H   0  0  0  0  0  0  0  0  0  0  0  0
   -4.5373   13.2433   -7.4677 H   0  0  0  0  0  0  0  0  0  0  0  0
   -4.5562   12.5101   -5.8280 H   0  0  0  0  0  0  0  0  0  0  0  0
   -3.4540   11.1294   -6.2116 H   0  0  0  0  0  0  0  0  0  0  0  0
   -2.6683    9.7485   -8.0357 H   0  0  0  0  0  0  0  0  0  0  0  0
   -4.9092    8.7863   -8.4943 H   0  0  0  0  0  0  0  0  0  0  0  0
   -2.4090   14.2148   -6.1776 H   0  0  0  0  0  0  0  0  0  0  0  0
   -0.6475   10.5464   -7.5511 H   0  0  0  0  0  0  0  0  0  0  0  0
    1.4812   14.2962   -6.0855 H   0  0  0  0  0  0  0  0  0  0  0  0
    0.2196   15.4369   -6.6628 H   0  0  0  0  0  0  0  0  0  0  0  0
    0.1886   14.8468   -4.9665 H   0  0  0  0  0  0  0  0  0  0  0  0
   -5.2882   14.1185  -10.2095 H   0  0  0  0  0  0  0  0  0  0  0  0
   -4.0431   13.0269  -10.9057 H   0  0  0  0  0  0  0  0  0  0  0  0
   -3.9735   15.4217  -12.4385 H   0  0  0  0  0  0  0  0  0  0  0  0
   -4.0914   15.9235  -10.7178 H   0  0  0  0  0  0  0  0  0  0  0  0
   -1.7243   15.2430  -11.9952 H   0  0  0  0  0  0  0  0  0  0  0  0
   -0.0031   13.9147   -9.0666 H   0  0  0  0  0  0  0  0  0  0  0  0
    0.0973   13.7152  -10.8489 H   0  0  0  0  0  0  0  0  0  0  0  0
    0.1416   15.3586  -10.1252 H   0  0  0  0  0  0  0  0  0  0  0  0
  1  2  1  0  0  0  0
  1  4  1  0  0  0  0
  1 11  2  0  0  0  0
  2  6  2  0  0  0  0
  3  4  2  0  0  0  0
  3  5  1  0  0  0  0
  5  6  1  0  0  0  0
  5  9  2  0  0  0  0
  6  7  1  0  0  0  0
  7  8  2  0  0  0  0
  7 10  1  0  0  0  0
  8  9  1  0  0  0  0
 10 12  1  0  0  0  0
 11 24  1  0  0  0  0
 12 13  2  0  0  0  0
 12 17  1  0  0  0  0
 13 14  1  0  0  0  0
 14 15  1  0  0  0  0
 15 16  1  0  0  0  0
 15 18  1  0  0  0  0
 16 17  2  0  0  0  0
 18 19  2  0  0  0  0
 18 22  1  0  0  0  0
 19 20  1  0  0  0  0
 20 21  1  0  0  0  0
 20 23  1  0  0  0  0
 21 22  2  0  0  0  0
 24 25  1  0  0  0  0
 25 26  1  0  0  0  0
 26 27  1  0  0  0  0
 27 28  2  0  0  0  0
 27 29  1  0  0  0  0
  2 30  1  0  0  0  0
  3 31  1  0  0  0  0
  4 32  1  0  0  0  0
 10 33  1  0  0  0  0
 10 34  1  0  0  0  0
 13 35  1  0  0  0  0
 14 36  1  0  0  0  0
 14 37  1  0  0  0  0
 15 38  1  0  0  0  0
 16 39  1  0  0  0  0
 17 40  1  0  0  0  0
 19 41  1  0  0  0  0
 22 42  1  0  0  0  0
 23 43  1  0  0  0  0
 23 44  1  0  0  0  0
 23 45  1  0  0  0  0
 24 46  1  0  0  0  0
 24 47  1  0  0  0  0
 25 48  1  0  0  0  0
 25 49  1  0  0  0  0
 26 50  1  0  0  0  0
 29 51  1  0  0  0  0
 29 52  1  0  0  0  0
 29 53  1  0  0  0  0
M  END
> <Name>
27

> <IC50[uM]>
0.68

$$$$
27
  -OEChem-05192314333D
 Structure written by MMmdl.
 53 56  0     1  0  0  0  0  0999 V2000
   -6.3855   12.3606  -12.0031 C   0  0  0  0  0  0  0  0  0  0  0  0
   -6.5214   11.8004  -10.7171 C   0  0  0  0  0  0  0  0  0  0  0  0
   -7.6991   10.5797  -13.0384 C   0  0  0  0  0  0  0  0  0  0  0  0
   -6.9626   11.7779  -13.1031 C   0  0  0  0  0  0  0  0  0  0  0  0
   -7.8238   10.0198  -11.7523 C   0  0  0  0  0  0  0  0  0  0  0  0
   -7.2557   10.6213  -10.5956 C   0  0  0  0  0  0  0  0  0  0  0  0
   -7.6268    9.7501   -9.5073 C   0  0  0  0  0  0  0  0  0  0  0  0
   -8.3057    8.7491   -9.9816 N   0  0  0  0  0  0  0  0  0  0  0  0
   -8.4330    8.8776  -11.2917 N   0  0  0  0  0  0  0  0  0  0  0  0
   -7.3352    9.8817   -8.0196 C   0  0  0  0  0  0  0  0  0  0  0  0
   -5.6205   13.5372  -12.2095 N   0  0  0  0  0  0  0  0  0  0  0  0
   -5.9727   10.4835   -7.7324 C   0  0  3  0  0  0  0  0  0  0  0  0
   -5.8611   11.7523   -7.1657 C   0  0  0  0  0  0  0  0  0  0  0  0
   -4.5946   12.2988   -6.9068 C   0  0  0  0  0  0  0  0  0  0  0  0
   -3.4432   11.5806   -7.2147 C   0  0  0  0  0  0  0  0  0  0  0  0
   -3.5570   10.3109   -7.7899 C   0  0  0  0  0  0  0  0  0  0  0  0
   -4.8253    9.7663   -8.0483 C   0  0  0  0  0  0  0  0  0  0  0  0
   -2.0926   12.1556   -6.9444 C   0  0  0  0  0  0  0  0  0  0  0  0
   -1.7338   13.4204   -6.4594 C   0  0  0  0  0  0  0  0  0  0  0  0
   -0.4064   13.4584   -6.4114 N   0  0  0  0  0  0  0  0  0  0  0  0
    0.1793   12.3493   -6.7865 N   0  0  0  0  0  0  0  0  0  0  0  0
   -0.7954   11.5387   -7.1512 C   0  0  0  0  0  0  0  0  0  0  0  0
    0.4205   14.5767   -6.0073 C   0  0  0  0  0  0  0  0  0  0  0  0
   -4.6894   13.8945  -11.1046 C   0  0  0  0  0  0  0  0  0  0  0  0
   -3.7822   15.1171  -11.3990 C   0  0  0  0  0  0  0  0  0  0  0  0
   -2.3310   14.9579  -11.2532 N   0  0  0  0  0  0  0  0  0  0  0  0
   -1.8099   14.4326  -10.1320 C   0  0  0  0  0  0  0  0  0  0  0  0
   -2.5019   14.0442   -9.2076 O   0  0  0  0  0  0  0  0  0  0  0  0
   -0.2869   14.3494  -10.0364 C   0  0  0  0  0  0  0  0  0  0  0  0
   -6.0716   12.2689   -9.8542 H   0  0  0  0  0  0  0  0  0  0  0  0
   -8.1374   10.1224  -13.9131 H   0  0  0  0  0  0  0  0  0  0  0  0
   -6.8466   12.2604  -14.0624 H   0  0  0  0  0  0  0  0  0  0  0  0
   -8.1046   10.5248   -7.5674 H   0  0  0  0  0  0  0  0  0  0  0  0
   -7.3794    8.8814   -7.5641 H   0  0  0  0  0  0  0  0  0  0  0  0
   -5.9820   10.0328   -6.7290 H   0  0  0  0  0  0  0  0  0  0  0  0
   -6.7507   12.3156   -6.9255 H   0  0  0  0  0  0  0  0  0  0  0  0
   -4.5132   13.2816   -6.4664 H   0  0  0  0  0  0  0  0  0  0  0  0
   -2.6683    9.7485   -8.0357 H   0  0  0  0  0  0  0  0  0  0  0  0
   -4.8817    8.8185   -7.4929 H   0  0  0  0  0  0  0  0  0  0  0  0
   -4.8676    9.5615   -9.1282 H   0  0  0  0  0  0  0  0  0  0  0  0
   -2.4090   14.2148   -6.1776 H   0  0  0  0  0  0  0  0  0  0  0  0
   -0.6475   10.5464   -7.5511 H   0  0  0  0  0  0  0  0  0  0  0  0
    1.4812   14.2962   -6.0855 H   0  0  0  0  0  0  0  0  0  0  0  0
    0.2196   15.4369   -6.6628 H   0  0  0  0  0  0  0  0  0  0  0  0
    0.1886   14.8468   -4.9665 H   0  0  0  0  0  0  0  0  0  0  0  0
   -5.2882   14.1185  -10.2095 H   0  0  0  0  0  0  0  0  0  0  0  0
   -4.0431   13.0269  -10.9057 H   0  0  0  0  0  0  0  0  0  0  0  0
   -3.9735   15.4217  -12.4385 H   0  0  0  0  0  0  0  0  0  0  0  0
   -4.0914   15.9235  -10.7178 H   0  0  0  0  0  0  0  0  0  0  0  0
   -1.7243   15.2430  -11.9952 H   0  0  0  0  0  0  0  0  0  0  0  0
   -0.0031   13.9147   -9.0666 H   0  0  0  0  0  0  0  0  0  0  0  0
    0.0973   13.7152  -10.8489 H   0  0  0  0  0  0  0  0  0  0  0  0
    0.1416   15.3586  -10.1252 H   0  0  0  0  0  0  0  0  0  0  0  0
  1  2  1  0  0  0  0
  1  4  1  0  0  0  0
  1 11  2  0  0  0  0
  2  6  2  0  0  0  0
  3  4  2  0  0  0  0
  3  5  1  0  0  0  0
  5  6  1  0  0  0  0
  5  9  2  0  0  0  0
  6  7  1  0  0  0  0
  7  8  2  0  0  0  0
  7 10  1  0  0  0  0
  8  9  1  0  0  0  0
 10 12  1  0  0  0  0
 11 24  1  0  0  0  0
 12 13  1  0  0  0  0
 12 17  1  0  0  0  0
 13 14  2  0  0  0  0
 14 15  1  0  0  0  0
 15 16  2  0  0  0  0
 15 18  1  0  0  0  0
 16 17  1  0  0  0  0
 18 19  2  0  0  0  0
 18 22  1  0  0  0  0
 19 20  1  0  0  0  0
 20 21  1  0  0  0  0
 20 23  1  0  0  0  0
 21 22  2  0  0  0  0
 24 25  1  0  0  0  0
 25 26  1  0  0  0  0
 26 27  1  0  0  0  0
 27 28  2  0  0  0  0
 27 29  1  0  0  0  0
  2 30  1  0  0  0  0
  3 31  1  0  0  0  0
  4 32  1  0  0  0  0
 10 33  1  0  0  0  0
 10 34  1  0  0  0  0
 12 35  1  0  0  0  0
 13 36  1  0  0  0  0
 14 37  1  0  0  0  0
 16 38  1  0  0  0  0
 17 39  1  0  0  0  0
 17 40  1  0  0  0  0
 19 41  1  0  0  0  0
 22 42  1  0  0  0  0
 23 43  1  0  0  0  0
 23 44  1  0  0  0  0
 23 45  1  0  0  0  0
 24 46  1  0  0  0  0
 24 47  1  0  0  0  0
 25 48  1  0  0  0  0
 25 49  1  0  0  0  0
 26 50  1  0  0  0  0
 29 51  1  0  0  0  0
 29 52  1  0  0  0  0
 29 53  1  0  0  0  0
M  END
> <Name>
27

> <IC50[uM]>
0.68

$$$$
27
  -OEChem-05192314333D
 Structure written by MMmdl.
 53 56  0     0  0  0  0  0  0999 V2000
   -6.3855   12.3606  -12.0031 C   0  0  0  0  0  0  0  0  0  0  0  0
   -6.5214   11.8004  -10.7171 C   0  0  0  0  0  0  0  0  0  0  0  0
   -7.6991   10.5797  -13.0384 C   0  0  0  0  0  0  0  0  0  0  0  0
   -6.9626   11.7779  -13.1031 C   0  0  0  0  0  0  0  0  0  0  0  0
   -7.8238   10.0198  -11.7523 C   0  0  0  0  0  0  0  0  0  0  0  0
   -7.2557   10.6213  -10.5956 C   0  0  0  0  0  0  0  0  0  0  0  0
   -7.6268    9.7501   -9.5073 C   0  0  0  0  0  0  0  0  0  0  0  0
   -8.3057    8.7491   -9.9816 N   0  0  0  0  0  0  0  0  0  0  0  0
   -8.4330    8.8776  -11.2917 N   0  0  0  0  0  0  0  0  0  0  0  0
   -7.3352    9.8817   -8.0196 C   0  0  0  0  0  0  0  0  0  0  0  0
   -5.6205   13.5372  -12.2095 N   0  0  0  0  0  0  0  0  0  0  0  0
   -5.9727   10.4835   -7.7324 C   0  0  0  0  0  0  0  0  0  0  0  0
   -5.8611   11.7523   -7.1657 C   0  0  0  0  0  0  0  0  0  0  0  0
   -4.5946   12.2988   -6.9068 C   0  0  0  0  0  0  0  0  0  0  0  0
   -3.4432   11.5806   -7.2147 C   0  0  0  0  0  0  0  0  0  0  0  0
   -3.5570   10.3109   -7.7899 C   0  0  0  0  0  0  0  0  0  0  0  0
   -4.8253    9.7663   -8.0483 C   0  0  0  0  0  0  0  0  0  0  0  0
   -2.0926   12.1556   -6.9444 C   0  0  0  0  0  0  0  0  0  0  0  0
   -1.7338   13.4204   -6.4594 C   0  0  0  0  0  0  0  0  0  0  0  0
   -0.4064   13.4584   -6.4114 N   0  0  0  0  0  0  0  0  0  0  0  0
    0.1793   12.3493   -6.7865 N   0  0  0  0  0  0  0  0  0  0  0  0
   -0.7954   11.5387   -7.1512 C   0  0  0  0  0  0  0  0  0  0  0  0
    0.4205   14.5767   -6.0073 C   0  0  0  0  0  0  0  0  0  0  0  0
   -4.6894   13.8945  -11.1046 C   0  0  0  0  0  0  0  0  0  0  0  0
   -3.7822   15.1171  -11.3990 C   0  0  0  0  0  0  0  0  0  0  0  0
   -2.3310   14.9579  -11.2532 N   0  0  0  0  0  0  0  0  0  0  0  0
   -1.8099   14.4326  -10.1320 C   0  0  0  0  0  0  0  0  0  0  0  0
   -2.5019   14.0442   -9.2076 O   0  0  0  0  0  0  0  0  0  0  0  0
   -0.2869   14.3494  -10.0364 C   0  0  0  0  0  0  0  0  0  0  0  0
   -6.0716   12.2689   -9.8542 H   0  0  0  0  0  0  0  0  0  0  0  0
   -8.1374   10.1224  -13.9131 H   0  0  0  0  0  0  0  0  0  0  0  0
   -6.8466   12.2604  -14.0624 H   0  0  0  0  0  0  0  0  0  0  0  0
   -8.1046   10.5248   -7.5674 H   0  0  0  0  0  0  0  0  0  0  0  0
   -7.3794    8.8814   -7.5641 H   0  0  0  0  0  0  0  0  0  0  0  0
   -6.7507   12.3156   -6.9255 H   0  0  0  0  0  0  0  0  0  0  0  0
   -4.5373   13.2433   -7.4677 H   0  0  0  0  0  0  0  0  0  0  0  0
   -4.5562   12.5101   -5.8280 H   0  0  0  0  0  0  0  0  0  0  0  0
   -2.6683    9.7485   -8.0357 H   0  0  0  0  0  0  0  0  0  0  0  0
   -4.8817    8.8185   -7.4929 H   0  0  0  0  0  0  0  0  0  0  0  0
   -4.8676    9.5615   -9.1282 H   0  0  0  0  0  0  0  0  0  0  0  0
   -2.4090   14.2148   -6.1776 H   0  0  0  0  0  0  0  0  0  0  0  0
   -0.6475   10.5464   -7.5511 H   0  0  0  0  0  0  0  0  0  0  0  0
    1.4812   14.2962   -6.0855 H   0  0  0  0  0  0  0  0  0  0  0  0
    0.2196   15.4369   -6.6628 H   0  0  0  0  0  0  0  0  0  0  0  0
    0.1886   14.8468   -4.9665 H   0  0  0  0  0  0  0  0  0  0  0  0
   -5.2882   14.1185  -10.2095 H   0  0  0  0  0  0  0  0  0  0  0  0
   -4.0431   13.0269  -10.9057 H   0  0  0  0  0  0  0  0  0  0  0  0
   -3.9735   15.4217  -12.4385 H   0  0  0  0  0  0  0  0  0  0  0  0
   -4.0914   15.9235  -10.7178 H   0  0  0  0  0  0  0  0  0  0  0  0
   -1.7243   15.2430  -11.9952 H   0  0  0  0  0  0  0  0  0  0  0  0
   -0.0031   13.9147   -9.0666 H   0  0  0  0  0  0  0  0  0  0  0  0
    0.0973   13.7152  -10.8489 H   0  0  0  0  0  0  0  0  0  0  0  0
    0.1416   15.3586  -10.1252 H   0  0  0  0  0  0  0  0  0  0  0  0
  1  2  1  0  0  0  0
  1  4  1  0  0  0  0
  1 11  2  0  0  0  0
  2  6  2  0  0  0  0
  3  4  2  0  0  0  0
  3  5  1  0  0  0  0
  5  6  1  0  0  0  0
  5  9  2  0  0  0  0
  6  7  1  0  0  0  0
  7  8  2  0  0  0  0
  7 10  1  0  0  0  0
  8  9  1  0  0  0  0
 10 12  1  0  0  0  0
 11 24  1  0  0  0  0
 12 13  2  0  0  0  0
 12 17  1  0  0  0  0
 13 14  1  0  0  0  0
 14 15  1  0  0  0  0
 15 16  2  0  0  0  0
 15 18  1  0  0  0  0
 16 17  1  0  0  0  0
 18 19  2  0  0  0  0
 18 22  1  0  0  0  0
 19 20  1  0  0  0  0
 20 21  1  0  0  0  0
 20 23  1  0  0  0  0
 21 22  2  0  0  0  0
 24 25  1  0  0  0  0
 25 26  1  0  0  0  0
 26 27  1  0  0  0  0
 27 28  2  0  0  0  0
 27 29  1  0  0  0  0
  2 30  1  0  0  0  0
  3 31  1  0  0  0  0
  4 32  1  0  0  0  0
 10 33  1  0  0  0  0
 10 34  1  0  0  0  0
 13 35  1  0  0  0  0
 14 36  1  0  0  0  0
 14 37  1  0  0  0  0
 16 38  1  0  0  0  0
 17 39  1  0  0  0  0
 17 40  1  0  0  0  0
 19 41  1  0  0  0  0
 22 42  1  0  0  0  0
 23 43  1  0  0  0  0
 23 44  1  0  0  0  0
 23 45  1  0  0  0  0
 24 46  1  0  0  0  0
 24 47  1  0  0  0  0
 25 48  1  0  0  0  0
 25 49  1  0  0  0  0
 26 50  1  0  0  0  0
 29 51  1  0  0  0  0
 29 52  1  0  0  0  0
 29 53  1  0  0  0  0
M  END
> <Name>
27

> <IC50[uM]>
0.68

$$$$
27
  -OEChem-05192314333D
 Structure written by MMmdl.
 53 56  0     0  0  0  0  0  0999 V2000
   -6.3855   12.3606  -12.0031 C   0  0  0  0  0  0  0  0  0  0  0  0
   -6.5214   11.8004  -10.7171 C   0  0  0  0  0  0  0  0  0  0  0  0
   -7.6991   10.5797  -13.0384 C   0  0  0  0  0  0  0  0  0  0  0  0
   -6.9626   11.7779  -13.1031 C   0  0  0  0  0  0  0  0  0  0  0  0
   -7.8238   10.0198  -11.7523 C   0  0  0  0  0  0  0  0  0  0  0  0
   -7.2557   10.6213  -10.5956 C   0  0  0  0  0  0  0  0  0  0  0  0
   -7.6268    9.7501   -9.5073 C   0  0  0  0  0  0  0  0  0  0  0  0
   -8.3057    8.7491   -9.9816 N   0  0  0  0  0  0  0  0  0  0  0  0
   -8.4330    8.8776  -11.2917 N   0  0  0  0  0  0  0  0  0  0  0  0
   -7.3352    9.8817   -8.0196 C   0  0  0  0  0  0  0  0  0  0  0  0
   -5.6205   13.5372  -12.2095 N   0  0  0  0  0  0  0  0  0  0  0  0
   -5.9727   10.4835   -7.7324 C   0  0  0  0  0  0  0  0  0  0  0  0
   -5.8611   11.7523   -7.1657 C   0  0  0  0  0  0  0  0  0  0  0  0
   -4.5946   12.2988   -6.9068 C   0  0  0  0  0  0  0  0  0  0  0  0
   -3.4432   11.5806   -7.2147 C   0  0  0  0  0  0  0  0  0  0  0  0
   -3.5570   10.3109   -7.7899 C   0  0  0  0  0  0  0  0  0  0  0  0
   -4.8253    9.7663   -8.0483 C   0  0  0  0  0  0  0  0  0  0  0  0
   -2.0926   12.1556   -6.9444 C   0  0  0  0  0  0  0  0  0  0  0  0
   -1.7338   13.4204   -6.4594 C   0  0  0  0  0  0  0  0  0  0  0  0
   -0.4064   13.4584   -6.4114 N   0  0  0  0  0  0  0  0  0  0  0  0
    0.1793   12.3493   -6.7865 N   0  0  0  0  0  0  0  0  0  0  0  0
   -0.7954   11.5387   -7.1512 C   0  0  0  0  0  0  0  0  0  0  0  0
    0.4205   14.5767   -6.0073 C   0  0  0  0  0  0  0  0  0  0  0  0
   -4.6894   13.8945  -11.1046 C   0  0  0  0  0  0  0  0  0  0  0  0
   -3.7822   15.1171  -11.3990 C   0  0  0  0  0  0  0  0  0  0  0  0
   -2.3310   14.9579  -11.2532 N   0  0  0  0  0  0  0  0  0  0  0  0
   -1.8099   14.4326  -10.1320 C   0  0  0  0  0  0  0  0  0  0  0  0
   -2.5019   14.0442   -9.2076 O   0  0  0  0  0  0  0  0  0  0  0  0
   -0.2869   14.3494  -10.0364 C   0  0  0  0  0  0  0  0  0  0  0  0
   -6.0716   12.2689   -9.8542 H   0  0  0  0  0  0  0  0  0  0  0  0
   -8.1374   10.1224  -13.9131 H   0  0  0  0  0  0  0  0  0  0  0  0
   -6.8466   12.2604  -14.0624 H   0  0  0  0  0  0  0  0  0  0  0  0
   -8.1046   10.5248   -7.5674 H   0  0  0  0  0  0  0  0  0  0  0  0
   -7.3794    8.8814   -7.5641 H   0  0  0  0  0  0  0  0  0  0  0  0
   -6.7507   12.3156   -6.9255 H   0  0  0  0  0  0  0  0  0  0  0  0
   -4.5132   13.2816   -6.4664 H   0  0  0  0  0  0  0  0  0  0  0  0
   -3.0266   10.3502   -8.7528 H   0  0  0  0  0  0  0  0  0  0  0  0
   -3.0423    9.6102   -7.1161 H   0  0  0  0  0  0  0  0  0  0  0  0
   -4.8817    8.8185   -7.4929 H   0  0  0  0  0  0  0  0  0  0  0  0
   -4.8676    9.5615   -9.1282 H   0  0  0  0  0  0  0  0  0  0  0  0
   -2.4090   14.2148   -6.1776 H   0  0  0  0  0  0  0  0  0  0  0  0
   -0.6475   10.5464   -7.5511 H   0  0  0  0  0  0  0  0  0  0  0  0
    1.4812   14.2962   -6.0855 H   0  0  0  0  0  0  0  0  0  0  0  0
    0.2196   15.4369   -6.6628 H   0  0  0  0  0  0  0  0  0  0  0  0
    0.1886   14.8468   -4.9665 H   0  0  0  0  0  0  0  0  0  0  0  0
   -5.2882   14.1185  -10.2095 H   0  0  0  0  0  0  0  0  0  0  0  0
   -4.0431   13.0269  -10.9057 H   0  0  0  0  0  0  0  0  0  0  0  0
   -3.9735   15.4217  -12.4385 H   0  0  0  0  0  0  0  0  0  0  0  0
   -4.0914   15.9235  -10.7178 H   0  0  0  0  0  0  0  0  0  0  0  0
   -1.7243   15.2430  -11.9952 H   0  0  0  0  0  0  0  0  0  0  0  0
   -0.0031   13.9147   -9.0666 H   0  0  0  0  0  0  0  0  0  0  0  0
    0.0973   13.7152  -10.8489 H   0  0  0  0  0  0  0  0  0  0  0  0
    0.1416   15.3586  -10.1252 H   0  0  0  0  0  0  0  0  0  0  0  0
  1  2  1  0  0  0  0
  1  4  1  0  0  0  0
  1 11  2  0  0  0  0
  2  6  2  0  0  0  0
  3  4  2  0  0  0  0
  3  5  1  0  0  0  0
  5  6  1  0  0  0  0
  5  9  2  0  0  0  0
  6  7  1  0  0  0  0
  7  8  2  0  0  0  0
  7 10  1  0  0  0  0
  8  9  1  0  0  0  0
 10 12  1  0  0  0  0
 11 24  1  0  0  0  0
 12 13  2  0  0  0  0
 12 17  1  0  0  0  0
 13 14  1  0  0  0  0
 14 15  2  0  0  0  0
 15 16  1  0  0  0  0
 15 18  1  0  0  0  0
 16 17  1  0  0  0  0
 18 19  2  0  0  0  0
 18 22  1  0  0  0  0
 19 20  1  0  0  0  0
 20 21  1  0  0  0  0
 20 23  1  0  0  0  0
 21 22  2  0  0  0  0
 24 25  1  0  0  0  0
 25 26  1  0  0  0  0
 26 27  1  0  0  0  0
 27 28  2  0  0  0  0
 27 29  1  0  0  0  0
  2 30  1  0  0  0  0
  3 31  1  0  0  0  0
  4 32  1  0  0  0  0
 10 33  1  0  0  0  0
 10 34  1  0  0  0  0
 13 35  1  0  0  0  0
 14 36  1  0  0  0  0
 16 37  1  0  0  0  0
 16 38  1  0  0  0  0
 17 39  1  0  0  0  0
 17 40  1  0  0  0  0
 19 41  1  0  0  0  0
 22 42  1  0  0  0  0
 23 43  1  0  0  0  0
 23 44  1  0  0  0  0
 23 45  1  0  0  0  0
 24 46  1  0  0  0  0
 24 47  1  0  0  0  0
 25 48  1  0  0  0  0
 25 49  1  0  0  0  0
 26 50  1  0  0  0  0
 29 51  1  0  0  0  0
 29 52  1  0  0  0  0
 29 53  1  0  0  0  0
M  END
> <Name>
27

> <IC50[uM]>
0.68

$$$$
27
  -OEChem-05192314333D
 Structure written by MMmdl.
 53 56  0     0  0  0  0  0  0999 V2000
   -6.3855   12.3606  -12.0031 C   0  0  0  0  0  0  0  0  0  0  0  0
   -6.5214   11.8004  -10.7171 C   0  0  0  0  0  0  0  0  0  0  0  0
   -7.6991   10.5797  -13.0384 C   0  0  0  0  0  0  0  0  0  0  0  0
   -6.9626   11.7779  -13.1031 C   0  0  0  0  0  0  0  0  0  0  0  0
   -7.8238   10.0198  -11.7523 C   0  0  0  0  0  0  0  0  0  0  0  0
   -7.2557   10.6213  -10.5956 C   0  0  0  0  0  0  0  0  0  0  0  0
   -7.6268    9.7501   -9.5073 C   0  0  0  0  0  0  0  0  0  0  0  0
   -8.3057    8.7491   -9.9816 N   0  0  0  0  0  0  0  0  0  0  0  0
   -8.4330    8.8776  -11.2917 N   0  0  0  0  0  0  0  0  0  0  0  0
   -7.3352    9.8817   -8.0196 C   0  0  0  0  0  0  0  0  0  0  0  0
   -5.6205   13.5372  -12.2095 N   0  0  0  0  0  0  0  0  0  0  0  0
   -5.9727   10.4835   -7.7324 C   0  0  0  0  0  0  0  0  0  0  0  0
   -5.8611   11.7523   -7.1657 C   0  0  0  0  0  0  0  0  0  0  0  0
   -4.5946   12.2988   -6.9068 C   0  0  0  0  0  0  0  0  0  0  0  0
   -3.4432   11.5806   -7.2147 C   0  0  0  0  0  0  0  0  0  0  0  0
   -3.5570   10.3109   -7.7899 C   0  0  0  0  0  0  0  0  0  0  0  0
   -4.8253    9.7663   -8.0483 C   0  0  0  0  0  0  0  0  0  0  0  0
   -2.0926   12.1556   -6.9444 C   0  0  0  0  0  0  0  0  0  0  0  0
   -1.7338   13.4204   -6.4594 C   0  0  0  0  0  0  0  0  0  0  0  0
   -0.4064   13.4584   -6.4114 N   0  0  0  0  0  0  0  0  0  0  0  0
    0.1793   12.3493   -6.7865 N   0  0  0  0  0  0  0  0  0  0  0  0
   -0.7954   11.5387   -7.1512 C   0  0  0  0  0  0  0  0  0  0  0  0
    0.4205   14.5767   -6.0073 C   0  0  0  0  0  0  0  0  0  0  0  0
   -4.6894   13.8945  -11.1046 C   0  0  0  0  0  0  0  0  0  0  0  0
   -3.7822   15.1171  -11.3990 C   0  0  0  0  0  0  0  0  0  0  0  0
   -2.3310   14.9579  -11.2532 N   0  0  0  0  0  0  0  0  0  0  0  0
   -1.8099   14.4326  -10.1320 C   0  0  0  0  0  0  0  0  0  0  0  0
   -2.5019   14.0442   -9.2076 O   0  0  0  0  0  0  0  0  0  0  0  0
   -0.2869   14.3494  -10.0364 C   0  0  0  0  0  0  0  0  0  0  0  0
   -6.0716   12.2689   -9.8542 H   0  0  0  0  0  0  0  0  0  0  0  0
   -8.7105   10.7812  -13.4211 H   0  0  0  0  0  0  0  0  0  0  0  0
   -7.2031    9.8404  -13.6845 H   0  0  0  0  0  0  0  0  0  0  0  0
   -7.6459   12.5314  -13.5218 H   0  0  0  0  0  0  0  0  0  0  0  0
   -6.1429   11.5918  -13.8126 H   0  0  0  0  0  0  0  0  0  0  0  0
   -8.0269    9.5780   -7.2478 H   0  0  0  0  0  0  0  0  0  0  0  0
   -6.7507   12.3156   -6.9255 H   0  0  0  0  0  0  0  0  0  0  0  0
   -4.5132   13.2816   -6.4664 H   0  0  0  0  0  0  0  0  0  0  0  0
   -3.4540   11.1294   -6.2116 H   0  0  0  0  0  0  0  0  0  0  0  0
   -2.6683    9.7485   -8.0357 H   0  0  0  0  0  0  0  0  0  0  0  0
   -4.9092    8.7863   -8.4943 H   0  0  0  0  0  0  0  0  0  0  0  0
   -2.4090   14.2148   -6.1776 H   0  0  0  0  0  0  0  0  0  0  0  0
   -0.6475   10.5464   -7.5511 H   0  0  0  0  0  0  0  0  0  0  0  0
    1.4812   14.2962   -6.0855 H   0  0  0  0  0  0  0  0  0  0  0  0
    0.2196   15.4369   -6.6628 H   0  0  0  0  0  0  0  0  0  0  0  0
    0.1886   14.8468   -4.9665 H   0  0  0  0  0  0  0  0  0  0  0  0
   -5.2882   14.1185  -10.2095 H   0  0  0  0  0  0  0  0  0  0  0  0
   -4.0431   13.0269  -10.9057 H   0  0  0  0  0  0  0  0  0  0  0  0
   -3.9735   15.4217  -12.4385 H   0  0  0  0  0  0  0  0  0  0  0  0
   -4.0914   15.9235  -10.7178 H   0  0  0  0  0  0  0  0  0  0  0  0
   -1.9457   13.7098   -8.5138 H   0  0  0  0  0  0  0  0  0  0  0  0
   -0.0034   13.9020   -9.0723 H   0  0  0  0  0  0  0  0  0  0  0  0
    0.0984   13.7264  -10.8570 H   0  0  0  0  0  0  0  0  0  0  0  0
    0.1408   15.3601  -10.1114 H   0  0  0  0  0  0  0  0  0  0  0  0
  1  2  1  0  0  0  0
  1  4  1  0  0  0  0
  1 11  2  0  0  0  0
  2  6  2  0  0  0  0
  3  4  1  0  0  0  0
  3  5  1  0  0  0  0
  5  6  1  0  0  0  0
  5  9  2  0  0  0  0
  6  7  1  0  0  0  0
  7  8  2  0  0  0  0
  7 10  1  0  0  0  0
  8  9  1  0  0  0  0
 10 12  2  0  0  0  0
 11 24  1  0  0  0  0
 12 13  1  0  0  0  0
 12 17  1  0  0  0  0
 13 14  2  0  0  0  0
 14 15  1  0  0  0  0
 15 16  1  0  0  0  0
 15 18  1  0  0  0  0
 16 17  2  0  0  0  0
 18 19  2  0  0  0  0
 18 22  1  0  0  0  0
 19 20  1  0  0  0  0
 20 21  1  0  0  0  0
 20 23  1  0  0  0  0
 21 22  2  0  0  0  0
 24 25  1  0  0  0  0
 25 26  1  0  0  0  0
 26 27  2  0  0  0  0
 27 28  1  0  0  0  0
 27 29  1  0  0  0  0
  2 30  1  0  0  0  0
  3 31  1  0  0  0  0
  3 32  1  0  0  0  0
  4 33  1  0  0  0  0
  4 34  1  0  0  0  0
 10 35  1  0  0  0  0
 13 36  1  0  0  0  0
 14 37  1  0  0  0  0
 15 38  1  0  0  0  0
 16 39  1  0  0  0  0
 17 40  1  0  0  0  0
 19 41  1  0  0  0  0
 22 42  1  0  0  0  0
 23 43  1  0  0  0  0
 23 44  1  0  0  0  0
 23 45  1  0  0  0  0
 24 46  1  0  0  0  0
 24 47  1  0  0  0  0
 25 48  1  0  0  0  0
 25 49  1  0  0  0  0
 28 50  1  0  0  0  0
 29 51  1  0  0  0  0
 29 52  1  0  0  0  0
 29 53  1  0  0  0  0
M  END
> <Name>
27

> <IC50[uM]>
0.68

$$$$
27
  -OEChem-05192314333D
 Structure written by MMmdl.
 53 56  0     0  0  0  0  0  0999 V2000
   -6.3855   12.3606  -12.0031 C   0  0  0  0  0  0  0  0  0  0  0  0
   -6.5214   11.8004  -10.7171 C   0  0  0  0  0  0  0  0  0  0  0  0
   -7.6991   10.5797  -13.0384 C   0  0  0  0  0  0  0  0  0  0  0  0
   -6.9626   11.7779  -13.1031 C   0  0  0  0  0  0  0  0  0  0  0  0
   -7.8238   10.0198  -11.7523 C   0  0  0  0  0  0  0  0  0  0  0  0
   -7.2557   10.6213  -10.5956 C   0  0  0  0  0  0  0  0  0  0  0  0
   -7.6268    9.7501   -9.5073 C   0  0  0  0  0  0  0  0  0  0  0  0
   -8.3057    8.7491   -9.9816 N   0  0  0  0  0  0  0  0  0  0  0  0
   -8.4330    8.8776  -11.2917 N   0  0  0  0  0  0  0  0  0  0  0  0
   -7.3352    9.8817   -8.0196 C   0  0  0  0  0  0  0  0  0  0  0  0
   -5.6205   13.5372  -12.2095 N   0  0  0  0  0  0  0  0  0  0  0  0
   -5.9727   10.4835   -7.7324 C   0  0  0  0  0  0  0  0  0  0  0  0
   -5.8611   11.7523   -7.1657 C   0  0  0  0  0  0  0  0  0  0  0  0
   -4.5946   12.2988   -6.9068 C   0  0  0  0  0  0  0  0  0  0  0  0
   -3.4432   11.5806   -7.2147 C   0  0  0  0  0  0  0  0  0  0  0  0
   -3.5570   10.3109   -7.7899 C   0  0  0  0  0  0  0  0  0  0  0  0
   -4.8253    9.7663   -8.0483 C   0  0  0  0  0  0  0  0  0  0  0  0
   -2.0926   12.1556   -6.9444 C   0  0  0  0  0  0  0  0  0  0  0  0
   -1.7338   13.4204   -6.4594 C   0  0  0  0  0  0  0  0  0  0  0  0
   -0.4064   13.4584   -6.4114 N   0  0  0  0  0  0  0  0  0  0  0  0
    0.1793   12.3493   -6.7865 N   0  0  0  0  0  0  0  0  0  0  0  0
   -0.7954   11.5387   -7.1512 C   0  0  0  0  0  0  0  0  0  0  0  0
    0.4205   14.5767   -6.0073 C   0  0  0  0  0  0  0  0  0  0  0  0
   -4.6894   13.8945  -11.1046 C   0  0  0  0  0  0  0  0  0  0  0  0
   -3.7822   15.1171  -11.3990 C   0  0  0  0  0  0  0  0  0  0  0  0
   -2.3310   14.9579  -11.2532 N   0  0  0  0  0  0  0  0  0  0  0  0
   -1.8099   14.4326  -10.1320 C   0  0  0  0  0  0  0  0  0  0  0  0
   -2.5019   14.0442   -9.2076 O   0  0  0  0  0  0  0  0  0  0  0  0
   -0.2869   14.3494  -10.0364 C   0  0  0  0  0  0  0  0  0  0  0  0
   -6.0716   12.2689   -9.8542 H   0  0  0  0  0  0  0  0  0  0  0  0
   -8.7105   10.7812  -13.4211 H   0  0  0  0  0  0  0  0  0  0  0  0
   -7.2031    9.8404  -13.6845 H   0  0  0  0  0  0  0  0  0  0  0  0
   -7.6459   12.5314  -13.5218 H   0  0  0  0  0  0  0  0  0  0  0  0
   -6.1429   11.5918  -13.8126 H   0  0  0  0  0  0  0  0  0  0  0  0
   -8.0269    9.5780   -7.2478 H   0  0  0  0  0  0  0  0  0  0  0  0
   -6.7507   12.3156   -6.9255 H   0  0  0  0  0  0  0  0  0  0  0  0
   -4.5132   13.2816   -6.4664 H   0  0  0  0  0  0  0  0  0  0  0  0
   -2.6683    9.7485   -8.0357 H   0  0  0  0  0  0  0  0  0  0  0  0
   -4.8817    8.8185   -7.4929 H   0  0  0  0  0  0  0  0  0  0  0  0
   -4.8676    9.5615   -9.1282 H   0  0  0  0  0  0  0  0  0  0  0  0
   -2.4090   14.2148   -6.1776 H   0  0  0  0  0  0  0  0  0  0  0  0
   -0.6475   10.5464   -7.5511 H   0  0  0  0  0  0  0  0  0  0  0  0
    1.4812   14.2962   -6.0855 H   0  0  0  0  0  0  0  0  0  0  0  0
    0.2196   15.4369   -6.6628 H   0  0  0  0  0  0  0  0  0  0  0  0
    0.1886   14.8468   -4.9665 H   0  0  0  0  0  0  0  0  0  0  0  0
   -5.2882   14.1185  -10.2095 H   0  0  0  0  0  0  0  0  0  0  0  0
   -4.0431   13.0269  -10.9057 H   0  0  0  0  0  0  0  0  0  0  0  0
   -3.9735   15.4217  -12.4385 H   0  0  0  0  0  0  0  0  0  0  0  0
   -4.0914   15.9235  -10.7178 H   0  0  0  0  0  0  0  0  0  0  0  0
   -1.9457   13.7098   -8.5138 H   0  0  0  0  0  0  0  0  0  0  0  0
   -0.0034   13.9020   -9.0723 H   0  0  0  0  0  0  0  0  0  0  0  0
    0.0984   13.7264  -10.8570 H   0  0  0  0  0  0  0  0  0  0  0  0
    0.1408   15.3601  -10.1114 H   0  0  0  0  0  0  0  0  0  0  0  0
  1  2  1  0  0  0  0
  1  4  1  0  0  0  0
  1 11  2  0  0  0  0
  2  6  2  0  0  0  0
  3  4  1  0  0  0  0
  3  5  1  0  0  0  0
  5  6  1  0  0  0  0
  5  9  2  0  0  0  0
  6  7  1  0  0  0  0
  7  8  2  0  0  0  0
  7 10  1  0  0  0  0
  8  9  1  0  0  0  0
 10 12  2  3  0  0  0
 11 24  1  0  0  0  0
 12 13  1  0  0  0  0
 12 17  1  0  0  0  0
 13 14  2  0  0  0  0
 14 15  1  0  0  0  0
 15 16  2  0  0  0  0
 15 18  1  0  0  0  0
 16 17  1  0  0  0  0
 18 19  2  0  0  0  0
 18 22  1  0  0  0  0
 19 20  1  0  0  0  0
 20 21  1  0  0  0  0
 20 23  1  0  0  0  0
 21 22  2  0  0  0  0
 24 25  1  0  0  0  0
 25 26  1  0  0  0  0
 26 27  2  0  0  0  0
 27 28  1  0  0  0  0
 27 29  1  0  0  0  0
  2 30  1  0  0  0  0
  3 31  1  0  0  0  0
  3 32  1  0  0  0  0
  4 33  1  0  0  0  0
  4 34  1  0  0  0  0
 10 35  1  0  0  0  0
 13 36  1  0  0  0  0
 14 37  1  0  0  0  0
 16 38  1  0  0  0  0
 17 39  1  0  0  0  0
 17 40  1  0  0  0  0
 19 41  1  0  0  0  0
 22 42  1  0  0  0  0
 23 43  1  0  0  0  0
 23 44  1  0  0  0  0
 23 45  1  0  0  0  0
 24 46  1  0  0  0  0
 24 47  1  0  0  0  0
 25 48  1  0  0  0  0
 25 49  1  0  0  0  0
 28 50  1  0  0  0  0
 29 51  1  0  0  0  0
 29 52  1  0  0  0  0
 29 53  1  0  0  0  0
M  END
> <Name>
27

> <IC50[uM]>
0.68

$$$$
27
  -OEChem-05192314333D
 Structure written by MMmdl.
 53 56  0     1  0  0  0  0  0999 V2000
   -6.3855   12.3606  -12.0031 C   0  0  0  0  0  0  0  0  0  0  0  0
   -6.5214   11.8004  -10.7171 C   0  0  0  0  0  0  0  0  0  0  0  0
   -7.6991   10.5797  -13.0384 C   0  0  0  0  0  0  0  0  0  0  0  0
   -6.9626   11.7779  -13.1031 C   0  0  0  0  0  0  0  0  0  0  0  0
   -7.8238   10.0198  -11.7523 C   0  0  0  0  0  0  0  0  0  0  0  0
   -7.2557   10.6213  -10.5956 C   0  0  0  0  0  0  0  0  0  0  0  0
   -7.6268    9.7501   -9.5073 C   0  0  0  0  0  0  0  0  0  0  0  0
   -8.3057    8.7491   -9.9816 N   0  0  0  0  0  0  0  0  0  0  0  0
   -8.4330    8.8776  -11.2917 N   0  0  0  0  0  0  0  0  0  0  0  0
   -7.3352    9.8817   -8.0196 C   0  0  0  0  0  0  0  0  0  0  0  0
   -5.6205   13.5372  -12.2095 N   0  0  0  0  0  0  0  0  0  0  0  0
   -5.9727   10.4835   -7.7324 C   0  0  0  0  0  0  0  0  0  0  0  0
   -5.8611   11.7523   -7.1657 C   0  0  0  0  0  0  0  0  0  0  0  0
   -4.5946   12.2988   -6.9068 C   0  0  0  0  0  0  0  0  0  0  0  0
   -3.4432   11.5806   -7.2147 C   0  0  3  0  0  0  0  0  0  0  0  0
   -3.5570   10.3109   -7.7899 C   0  0  0  0  0  0  0  0  0  0  0  0
   -4.8253    9.7663   -8.0483 C   0  0  0  0  0  0  0  0  0  0  0  0
   -2.0926   12.1556   -6.9444 C   0  0  0  0  0  0  0  0  0  0  0  0
   -1.7338   13.4204   -6.4594 C   0  0  0  0  0  0  0  0  0  0  0  0
   -0.4064   13.4584   -6.4114 N   0  0  0  0  0  0  0  0  0  0  0  0
    0.1793   12.3493   -6.7865 N   0  0  0  0  0  0  0  0  0  0  0  0
   -0.7954   11.5387   -7.1512 C   0  0  0  0  0  0  0  0  0  0  0  0
    0.4205   14.5767   -6.0073 C   0  0  0  0  0  0  0  0  0  0  0  0
   -4.6894   13.8945  -11.1046 C   0  0  0  0  0  0  0  0  0  0  0  0
   -3.7822   15.1171  -11.3990 C   0  0  0  0  0  0  0  0  0  0  0  0
   -2.3310   14.9579  -11.2532 N   0  0  0  0  0  0  0  0  0  0  0  0
   -1.8099   14.4326  -10.1320 C   0  0  0  0  0  0  0  0  0  0  0  0
   -2.5019   14.0442   -9.2076 O   0  0  0  0  0  0  0  0  0  0  0  0
   -0.2869   14.3494  -10.0364 C   0  0  0  0  0  0  0  0  0  0  0  0
   -6.0716   12.2689   -9.8542 H   0  0  0  0  0  0  0  0  0  0  0  0
   -8.1374   10.1224  -13.9131 H   0  0  0  0  0  0  0  0  0  0  0  0
   -6.8466   12.2604  -14.0624 H   0  0  0  0  0  0  0  0  0  0  0  0
   -8.0269    9.5780   -7.2478 H   0  0  0  0  0  0  0  0  0  0  0  0
   -6.7507   12.3156   -6.9255 H   0  0  0  0  0  0  0  0  0  0  0  0
   -4.5132   13.2816   -6.4664 H   0  0  0  0  0  0  0  0  0  0  0  0
   -3.4540   11.1294   -6.2116 H   0  0  0  0  0  0  0  0  0  0  0  0
   -3.0266   10.3502   -8.7528 H   0  0  0  0  0  0  0  0  0  0  0  0
   -3.0423    9.6102   -7.1161 H   0  0  0  0  0  0  0  0  0  0  0  0
   -4.8817    8.8185   -7.4929 H   0  0  0  0  0  0  0  0  0  0  0  0
   -4.8676    9.5615   -9.1282 H   0  0  0  0  0  0  0  0  0  0  0  0
   -2.4090   14.2148   -6.1776 H   0  0  0  0  0  0  0  0  0  0  0  0
   -0.6475   10.5464   -7.5511 H   0  0  0  0  0  0  0  0  0  0  0  0
    1.4812   14.2962   -6.0855 H   0  0  0  0  0  0  0  0  0  0  0  0
    0.2196   15.4369   -6.6628 H   0  0  0  0  0  0  0  0  0  0  0  0
    0.1886   14.8468   -4.9665 H   0  0  0  0  0  0  0  0  0  0  0  0
   -5.2882   14.1185  -10.2095 H   0  0  0  0  0  0  0  0  0  0  0  0
   -4.0431   13.0269  -10.9057 H   0  0  0  0  0  0  0  0  0  0  0  0
   -3.9735   15.4217  -12.4385 H   0  0  0  0  0  0  0  0  0  0  0  0
   -4.0914   15.9235  -10.7178 H   0  0  0  0  0  0  0  0  0  0  0  0
   -1.9457   13.7098   -8.5138 H   0  0  0  0  0  0  0  0  0  0  0  0
   -0.0034   13.9020   -9.0723 H   0  0  0  0  0  0  0  0  0  0  0  0
    0.0984   13.7264  -10.8570 H   0  0  0  0  0  0  0  0  0  0  0  0
    0.1408   15.3601  -10.1114 H   0  0  0  0  0  0  0  0  0  0  0  0
  1  2  1  0  0  0  0
  1  4  1  0  0  0  0
  1 11  2  0  0  0  0
  2  6  2  0  0  0  0
  3  4  2  0  0  0  0
  3  5  1  0  0  0  0
  5  6  1  0  0  0  0
  5  9  2  0  0  0  0
  6  7  1  0  0  0  0
  7  8  2  0  0  0  0
  7 10  1  0  0  0  0
  8  9  1  0  0  0  0
 10 12  2  3  0  0  0
 11 24  1  0  0  0  0
 12 13  1  0  0  0  0
 12 17  1  0  0  0  0
 13 14  2  0  0  0  0
 14 15  1  0  0  0  0
 15 16  1  0  0  0  0
 15 18  1  0  0  0  0
 16 17  1  0  0  0  0
 18 19  2  0  0  0  0
 18 22  1  0  0  0  0
 19 20  1  0  0  0  0
 20 21  1  0  0  0  0
 20 23  1  0  0  0  0
 21 22  2  0  0  0  0
 24 25  1  0  0  0  0
 25 26  1  0  0  0  0
 26 27  2  0  0  0  0
 27 28  1  0  0  0  0
 27 29  1  0  0  0  0
  2 30  1  0  0  0  0
  3 31  1  0  0  0  0
  4 32  1  0  0  0  0
 10 33  1  0  0  0  0
 13 34  1  0  0  0  0
 14 35  1  0  0  0  0
 15 36  1  0  0  0  0
 16 37  1  0  0  0  0
 16 38  1  0  0  0  0
 17 39  1  0  0  0  0
 17 40  1  0  0  0  0
 19 41  1  0  0  0  0
 22 42  1  0  0  0  0
 23 43  1  0  0  0  0
 23 44  1  0  0  0  0
 23 45  1  0  0  0  0
 24 46  1  0  0  0  0
 24 47  1  0  0  0  0
 25 48  1  0  0  0  0
 25 49  1  0  0  0  0
 28 50  1  0  0  0  0
 29 51  1  0  0  0  0
 29 52  1  0  0  0  0
 29 53  1  0  0  0  0
M  END
> <Name>
27

> <IC50[uM]>
0.68

$$$$
27
  -OEChem-05192314333D
 Structure written by MMmdl.
 53 56  0     0  0  0  0  0  0999 V2000
   -6.3855   12.3606  -12.0031 C   0  0  0  0  0  0  0  0  0  0  0  0
   -6.5214   11.8004  -10.7171 C   0  0  0  0  0  0  0  0  0  0  0  0
   -7.6991   10.5797  -13.0384 C   0  0  0  0  0  0  0  0  0  0  0  0
   -6.9626   11.7779  -13.1031 C   0  0  0  0  0  0  0  0  0  0  0  0
   -7.8238   10.0198  -11.7523 C   0  0  0  0  0  0  0  0  0  0  0  0
   -7.2557   10.6213  -10.5956 C   0  0  0  0  0  0  0  0  0  0  0  0
   -7.6268    9.7501   -9.5073 C   0  0  0  0  0  0  0  0  0  0  0  0
   -8.3057    8.7491   -9.9816 N   0  0  0  0  0  0  0  0  0  0  0  0
   -8.4330    8.8776  -11.2917 N   0  0  0  0  0  0  0  0  0  0  0  0
   -7.3352    9.8817   -8.0196 C   0  0  0  0  0  0  0  0  0  0  0  0
   -5.6205   13.5372  -12.2095 N   0  0  0  0  0  0  0  0  0  0  0  0
   -5.9727   10.4835   -7.7324 C   0  0  0  0  0  0  0  0  0  0  0  0
   -5.8611   11.7523   -7.1657 C   0  0  0  0  0  0  0  0  0  0  0  0
   -4.5946   12.2988   -6.9068 C   0  0  0  0  0  0  0  0  0  0  0  0
   -3.4432   11.5806   -7.2147 C   0  0  0  0  0  0  0  0  0  0  0  0
   -3.5570   10.3109   -7.7899 C   0  0  0  0  0  0  0  0  0  0  0  0
   -4.8253    9.7663   -8.0483 C   0  0  0  0  0  0  0  0  0  0  0  0
   -2.0926   12.1556   -6.9444 C   0  0  0  0  0  0  0  0  0  0  0  0
   -1.7338   13.4204   -6.4594 C   0  0  0  0  0  0  0  0  0  0  0  0
   -0.4064   13.4584   -6.4114 N   0  0  0  0  0  0  0  0  0  0  0  0
    0.1793   12.3493   -6.7865 N   0  0  0  0  0  0  0  0  0  0  0  0
   -0.7954   11.5387   -7.1512 C   0  0  0  0  0  0  0  0  0  0  0  0
    0.4205   14.5767   -6.0073 C   0  0  0  0  0  0  0  0  0  0  0  0
   -4.6894   13.8945  -11.1046 C   0  0  0  0  0  0  0  0  0  0  0  0
   -3.7822   15.1171  -11.3990 C   0  0  0  0  0  0  0  0  0  0  0  0
   -2.3310   14.9579  -11.2532 N   0  0  0  0  0  0  0  0  0  0  0  0
   -1.8099   14.4326  -10.1320 C   0  0  0  0  0  0  0  0  0  0  0  0
   -2.5019   14.0442   -9.2076 O   0  0  0  0  0  0  0  0  0  0  0  0
   -0.2869   14.3494  -10.0364 C   0  0  0  0  0  0  0  0  0  0  0  0
   -6.0716   12.2689   -9.8542 H   0  0  0  0  0  0  0  0  0  0  0  0
   -8.1374   10.1224  -13.9131 H   0  0  0  0  0  0  0  0  0  0  0  0
   -6.8466   12.2604  -14.0624 H   0  0  0  0  0  0  0  0  0  0  0  0
   -8.0269    9.5780   -7.2478 H   0  0  0  0  0  0  0  0  0  0  0  0
   -6.3742   12.4491   -7.8448 H   0  0  0  0  0  0  0  0  0  0  0  0
   -6.3942   11.7180   -6.2041 H   0  0  0  0  0  0  0  0  0  0  0  0
   -4.5373   13.2433   -7.4677 H   0  0  0  0  0  0  0  0  0  0  0  0
   -4.5562   12.5101   -5.8280 H   0  0  0  0  0  0  0  0  0  0  0  0
   -2.6683    9.7485   -8.0357 H   0  0  0  0  0  0  0  0  0  0  0  0
   -4.8817    8.8185   -7.4929 H   0  0  0  0  0  0  0  0  0  0  0  0
   -4.8676    9.5615   -9.1282 H   0  0  0  0  0  0  0  0  0  0  0  0
   -2.4090   14.2148   -6.1776 H   0  0  0  0  0  0  0  0  0  0  0  0
   -0.6475   10.5464   -7.5511 H   0  0  0  0  0  0  0  0  0  0  0  0
    1.4812   14.2962   -6.0855 H   0  0  0  0  0  0  0  0  0  0  0  0
    0.2196   15.4369   -6.6628 H   0  0  0  0  0  0  0  0  0  0  0  0
    0.1886   14.8468   -4.9665 H   0  0  0  0  0  0  0  0  0  0  0  0
   -5.2882   14.1185  -10.2095 H   0  0  0  0  0  0  0  0  0  0  0  0
   -4.0431   13.0269  -10.9057 H   0  0  0  0  0  0  0  0  0  0  0  0
   -3.9735   15.4217  -12.4385 H   0  0  0  0  0  0  0  0  0  0  0  0
   -4.0914   15.9235  -10.7178 H   0  0  0  0  0  0  0  0  0  0  0  0
   -1.9457   13.7098   -8.5138 H   0  0  0  0  0  0  0  0  0  0  0  0
   -0.0034   13.9020   -9.0723 H   0  0  0  0  0  0  0  0  0  0  0  0
    0.0984   13.7264  -10.8570 H   0  0  0  0  0  0  0  0  0  0  0  0
    0.1408   15.3601  -10.1114 H   0  0  0  0  0  0  0  0  0  0  0  0
  1  2  1  0  0  0  0
  1  4  1  0  0  0  0
  1 11  2  0  0  0  0
  2  6  2  0  0  0  0
  3  4  2  0  0  0  0
  3  5  1  0  0  0  0
  5  6  1  0  0  0  0
  5  9  2  0  0  0  0
  6  7  1  0  0  0  0
  7  8  2  0  0  0  0
  7 10  1  0  0  0  0
  8  9  1  0  0  0  0
 10 12  2  3  0  0  0
 11 24  1  0  0  0  0
 12 13  1  0  0  0  0
 12 17  1  0  0  0  0
 13 14  1  0  0  0  0
 14 15  1  0  0  0  0
 15 16  2  0  0  0  0
 15 18  1  0  0  0  0
 16 17  1  0  0  0  0
 18 19  2  0  0  0  0
 18 22  1  0  0  0  0
 19 20  1  0  0  0  0
 20 21  1  0  0  0  0
 20 23  1  0  0  0  0
 21 22  2  0  0  0  0
 24 25  1  0  0  0  0
 25 26  1  0  0  0  0
 26 27  2  0  0  0  0
 27 28  1  0  0  0  0
 27 29  1  0  0  0  0
  2 30  1  0  0  0  0
  3 31  1  0  0  0  0
  4 32  1  0  0  0  0
 10 33  1  0  0  0  0
 13 34  1  0  0  0  0
 13 35  1  0  0  0  0
 14 36  1  0  0  0  0
 14 37  1  0  0  0  0
 16 38  1  0  0  0  0
 17 39  1  0  0  0  0
 17 40  1  0  0  0  0
 19 41  1  0  0  0  0
 22 42  1  0  0  0  0
 23 43  1  0  0  0  0
 23 44  1  0  0  0  0
 23 45  1  0  0  0  0
 24 46  1  0  0  0  0
 24 47  1  0  0  0  0
 25 48  1  0  0  0  0
 25 49  1  0  0  0  0
 28 50  1  0  0  0  0
 29 51  1  0  0  0  0
 29 52  1  0  0  0  0
 29 53  1  0  0  0  0
M  END
> <Name>
27

> <IC50[uM]>
0.68

$$$$
27
  -OEChem-05192314333D
 Structure written by MMmdl.
 53 56  0     1  0  0  0  0  0999 V2000
   -6.3855   12.3606  -12.0031 C   0  0  0  0  0  0  0  0  0  0  0  0
   -6.5214   11.8004  -10.7171 C   0  0  0  0  0  0  0  0  0  0  0  0
   -7.6991   10.5797  -13.0384 C   0  0  0  0  0  0  0  0  0  0  0  0
   -6.9626   11.7779  -13.1031 C   0  0  0  0  0  0  0  0  0  0  0  0
   -7.8238   10.0198  -11.7523 C   0  0  0  0  0  0  0  0  0  0  0  0
   -7.2557   10.6213  -10.5956 C   0  0  3  0  0  0  0  0  0  0  0  0
   -7.6268    9.7501   -9.5073 C   0  0  0  0  0  0  0  0  0  0  0  0
   -8.3057    8.7491   -9.9816 N   0  0  0  0  0  0  0  0  0  0  0  0
   -8.4330    8.8776  -11.2917 N   0  0  0  0  0  0  0  0  0  0  0  0
   -7.3352    9.8817   -8.0196 C   0  0  0  0  0  0  0  0  0  0  0  0
   -5.6205   13.5372  -12.2095 N   0  0  0  0  0  0  0  0  0  0  0  0
   -5.9727   10.4835   -7.7324 C   0  0  0  0  0  0  0  0  0  0  0  0
   -5.8611   11.7523   -7.1657 C   0  0  0  0  0  0  0  0  0  0  0  0
   -4.5946   12.2988   -6.9068 C   0  0  0  0  0  0  0  0  0  0  0  0
   -3.4432   11.5806   -7.2147 C   0  0  0  0  0  0  0  0  0  0  0  0
   -3.5570   10.3109   -7.7899 C   0  0  0  0  0  0  0  0  0  0  0  0
   -4.8253    9.7663   -8.0483 C   0  0  0  0  0  0  0  0  0  0  0  0
   -2.0926   12.1556   -6.9444 C   0  0  0  0  0  0  0  0  0  0  0  0
   -1.7338   13.4204   -6.4594 C   0  0  0  0  0  0  0  0  0  0  0  0
   -0.4064   13.4584   -6.4114 N   0  0  0  0  0  0  0  0  0  0  0  0
    0.1793   12.3493   -6.7865 N   0  0  0  0  0  0  0  0  0  0  0  0
   -0.7954   11.5387   -7.1512 C   0  0  0  0  0  0  0  0  0  0  0  0
    0.4205   14.5767   -6.0073 C   0  0  0  0  0  0  0  0  0  0  0  0
   -4.6894   13.8945  -11.1046 C   0  0  0  0  0  0  0  0  0  0  0  0
   -3.7822   15.1171  -11.3990 C   0  0  0  0  0  0  0  0  0  0  0  0
   -2.3310   14.9579  -11.2532 N   0  0  0  0  0  0  0  0  0  0  0  0
   -1.8099   14.4326  -10.1320 C   0  0  0  0  0  0  0  0  0  0  0  0
   -2.5019   14.0442   -9.2076 O   0  0  0  0  0  0  0  0  0  0  0  0
   -0.2869   14.3494  -10.0364 C   0  0  0  0  0  0  0  0  0  0  0  0
   -5.5086   11.5965  -10.3394 H   0  0  0  0  0  0  0  0  0  0  0  0
   -7.0053   12.5553  -10.0799 H   0  0  0  0  0  0  0  0  0  0  0  0
   -8.1374   10.1224  -13.9131 H   0  0  0  0  0  0  0  0  0  0  0  0
   -6.8466   12.2604  -14.0624 H   0  0  0  0  0  0  0  0  0  0  0  0
   -8.1751   11.2060  -10.4447 H   0  0  0  0  0  0  0  0  0  0  0  0
   -8.0269    9.5780   -7.2478 H   0  0  0  0  0  0  0  0  0  0  0  0
   -6.7507   12.3156   -6.9255 H   0  0  0  0  0  0  0  0  0  0  0  0
   -4.5132   13.2816   -6.4664 H   0  0  0  0  0  0  0  0  0  0  0  0
   -3.4540   11.1294   -6.2116 H   0  0  0  0  0  0  0  0  0  0  0  0
   -2.6683    9.7485   -8.0357 H   0  0  0  0  0  0  0  0  0  0  0  0
   -4.9092    8.7863   -8.4943 H   0  0  0  0  0  0  0  0  0  0  0  0
   -2.4090   14.2148   -6.1776 H   0  0  0  0  0  0  0  0  0  0  0  0
   -0.6475   10.5464   -7.5511 H   0  0  0  0  0  0  0  0  0  0  0  0
    1.4812   14.2962   -6.0855 H   0  0  0  0  0  0  0  0  0  0  0  0
    0.2196   15.4369   -6.6628 H   0  0  0  0  0  0  0  0  0  0  0  0
    0.1886   14.8468   -4.9665 H   0  0  0  0  0  0  0  0  0  0  0  0
   -5.2882   14.1185  -10.2095 H   0  0  0  0  0  0  0  0  0  0  0  0
   -4.0431   13.0269  -10.9057 H   0  0  0  0  0  0  0  0  0  0  0  0
   -3.9735   15.4217  -12.4385 H   0  0  0  0  0  0  0  0  0  0  0  0
   -4.0914   15.9235  -10.7178 H   0  0  0  0  0  0  0  0  0  0  0  0
   -1.9457   13.7098   -8.5138 H   0  0  0  0  0  0  0  0  0  0  0  0
   -0.0034   13.9020   -9.0723 H   0  0  0  0  0  0  0  0  0  0  0  0
    0.0984   13.7264  -10.8570 H   0  0  0  0  0  0  0  0  0  0  0  0
    0.1408   15.3601  -10.1114 H   0  0  0  0  0  0  0  0  0  0  0  0
  1  2  1  0  0  0  0
  1  4  1  0  0  0  0
  1 11  2  0  0  0  0
  2  6  1  0  0  0  0
  3  4  2  0  0  0  0
  3  5  1  0  0  0  0
  5  6  1  0  0  0  0
  5  9  2  0  0  0  0
  6  7  1  0  0  0  0
  7  8  2  0  0  0  0
  7 10  1  0  0  0  0
  8  9  1  0  0  0  0
 10 12  2  0  0  0  0
 11 24  1  0  0  0  0
 12 13  1  0  0  0  0
 12 17  1  0  0  0  0
 13 14  2  0  0  0  0
 14 15  1  0  0  0  0
 15 16  1  0  0  0  0
 15 18  1  0  0  0  0
 16 17  2  0  0  0  0
 18 19  2  0  0  0  0
 18 22  1  0  0  0  0
 19 20  1  0  0  0  0
 20 21  1  0  0  0  0
 20 23  1  0  0  0  0
 21 22  2  0  0  0  0
 24 25  1  0  0  0  0
 25 26  1  0  0  0  0
 26 27  2  0  0  0  0
 27 28  1  0  0  0  0
 27 29  1  0  0  0  0
  2 30  1  0  0  0  0
  2 31  1  0  0  0  0
  3 32  1  0  0  0  0
  4 33  1  0  0  0  0
  6 34  1  0  0  0  0
 10 35  1  0  0  0  0
 13 36  1  0  0  0  0
 14 37  1  0  0  0  0
 15 38  1  0  0  0  0
 16 39  1  0  0  0  0
 17 40  1  0  0  0  0
 19 41  1  0  0  0  0
 22 42  1  0  0  0  0
 23 43  1  0  0  0  0
 23 44  1  0  0  0  0
 23 45  1  0  0  0  0
 24 46  1  0  0  0  0
 24 47  1  0  0  0  0
 25 48  1  0  0  0  0
 25 49  1  0  0  0  0
 28 50  1  0  0  0  0
 29 51  1  0  0  0  0
 29 52  1  0  0  0  0
 29 53  1  0  0  0  0
M  END
> <Name>
27

> <IC50[uM]>
0.68

$$$$
27
  -OEChem-05192314333D
 Structure written by MMmdl.
 53 56  0     1  0  0  0  0  0999 V2000
   -6.3855   12.3606  -12.0031 C   0  0  0  0  0  0  0  0  0  0  0  0
   -6.5214   11.8004  -10.7171 C   0  0  0  0  0  0  0  0  0  0  0  0
   -7.6991   10.5797  -13.0384 C   0  0  0  0  0  0  0  0  0  0  0  0
   -6.9626   11.7779  -13.1031 C   0  0  0  0  0  0  0  0  0  0  0  0
   -7.8238   10.0198  -11.7523 C   0  0  0  0  0  0  0  0  0  0  0  0
   -7.2557   10.6213  -10.5956 C   0  0  3  0  0  0  0  0  0  0  0  0
   -7.6268    9.7501   -9.5073 C   0  0  0  0  0  0  0  0  0  0  0  0
   -8.3057    8.7491   -9.9816 N   0  0  0  0  0  0  0  0  0  0  0  0
   -8.4330    8.8776  -11.2917 N   0  0  0  0  0  0  0  0  0  0  0  0
   -7.3352    9.8817   -8.0196 C   0  0  0  0  0  0  0  0  0  0  0  0
   -5.6205   13.5372  -12.2095 N   0  0  0  0  0  0  0  0  0  0  0  0
   -5.9727   10.4835   -7.7324 C   0  0  0  0  0  0  0  0  0  0  0  0
   -5.8611   11.7523   -7.1657 C   0  0  0  0  0  0  0  0  0  0  0  0
   -4.5946   12.2988   -6.9068 C   0  0  0  0  0  0  0  0  0  0  0  0
   -3.4432   11.5806   -7.2147 C   0  0  0  0  0  0  0  0  0  0  0  0
   -3.5570   10.3109   -7.7899 C   0  0  0  0  0  0  0  0  0  0  0  0
   -4.8253    9.7663   -8.0483 C   0  0  0  0  0  0  0  0  0  0  0  0
   -2.0926   12.1556   -6.9444 C   0  0  0  0  0  0  0  0  0  0  0  0
   -1.7338   13.4204   -6.4594 C   0  0  0  0  0  0  0  0  0  0  0  0
   -0.4064   13.4584   -6.4114 N   0  0  0  0  0  0  0  0  0  0  0  0
    0.1793   12.3493   -6.7865 N   0  0  0  0  0  0  0  0  0  0  0  0
   -0.7954   11.5387   -7.1512 C   0  0  0  0  0  0  0  0  0  0  0  0
    0.4205   14.5767   -6.0073 C   0  0  0  0  0  0  0  0  0  0  0  0
   -4.6894   13.8945  -11.1046 C   0  0  0  0  0  0  0  0  0  0  0  0
   -3.7822   15.1171  -11.3990 C   0  0  0  0  0  0  0  0  0  0  0  0
   -2.3310   14.9579  -11.2532 N   0  0  0  0  0  0  0  0  0  0  0  0
   -1.8099   14.4326  -10.1320 C   0  0  0  0  0  0  0  0  0  0  0  0
   -2.5019   14.0442   -9.2076 O   0  0  0  0  0  0  0  0  0  0  0  0
   -0.2869   14.3494  -10.0364 C   0  0  0  0  0  0  0  0  0  0  0  0
   -5.5086   11.5965  -10.3394 H   0  0  0  0  0  0  0  0  0  0  0  0
   -7.0053   12.5553  -10.0799 H   0  0  0  0  0  0  0  0  0  0  0  0
   -8.1374   10.1224  -13.9131 H   0  0  0  0  0  0  0  0  0  0  0  0
   -6.8466   12.2604  -14.0624 H   0  0  0  0  0  0  0  0  0  0  0  0
   -8.1751   11.2060  -10.4447 H   0  0  0  0  0  0  0  0  0  0  0  0
   -8.0269    9.5780   -7.2478 H   0  0  0  0  0  0  0  0  0  0  0  0
   -6.7507   12.3156   -6.9255 H   0  0  0  0  0  0  0  0  0  0  0  0
   -4.5132   13.2816   -6.4664 H   0  0  0  0  0  0  0  0  0  0  0  0
   -2.6683    9.7485   -8.0357 H   0  0  0  0  0  0  0  0  0  0  0  0
   -4.8817    8.8185   -7.4929 H   0  0  0  0  0  0  0  0  0  0  0  0
   -4.8676    9.5615   -9.1282 H   0  0  0  0  0  0  0  0  0  0  0  0
   -2.4090   14.2148   -6.1776 H   0  0  0  0  0  0  0  0  0  0  0  0
   -0.6475   10.5464   -7.5511 H   0  0  0  0  0  0  0  0  0  0  0  0
    1.4812   14.2962   -6.0855 H   0  0  0  0  0  0  0  0  0  0  0  0
    0.2196   15.4369   -6.6628 H   0  0  0  0  0  0  0  0  0  0  0  0
    0.1886   14.8468   -4.9665 H   0  0  0  0  0  0  0  0  0  0  0  0
   -5.2882   14.1185  -10.2095 H   0  0  0  0  0  0  0  0  0  0  0  0
   -4.0431   13.0269  -10.9057 H   0  0  0  0  0  0  0  0  0  0  0  0
   -3.9735   15.4217  -12.4385 H   0  0  0  0  0  0  0  0  0  0  0  0
   -4.0914   15.9235  -10.7178 H   0  0  0  0  0  0  0  0  0  0  0  0
   -1.9457   13.7098   -8.5138 H   0  0  0  0  0  0  0  0  0  0  0  0
   -0.0034   13.9020   -9.0723 H   0  0  0  0  0  0  0  0  0  0  0  0
    0.0984   13.7264  -10.8570 H   0  0  0  0  0  0  0  0  0  0  0  0
    0.1408   15.3601  -10.1114 H   0  0  0  0  0  0  0  0  0  0  0  0
  1  2  1  0  0  0  0
  1  4  1  0  0  0  0
  1 11  2  0  0  0  0
  2  6  1  0  0  0  0
  3  4  2  0  0  0  0
  3  5  1  0  0  0  0
  5  6  1  0  0  0  0
  5  9  2  0  0  0  0
  6  7  1  0  0  0  0
  7  8  2  0  0  0  0
  7 10  1  0  0  0  0
  8  9  1  0  0  0  0
 10 12  2  3  0  0  0
 11 24  1  0  0  0  0
 12 13  1  0  0  0  0
 12 17  1  0  0  0  0
 13 14  2  0  0  0  0
 14 15  1  0  0  0  0
 15 16  2  0  0  0  0
 15 18  1  0  0  0  0
 16 17  1  0  0  0  0
 18 19  2  0  0  0  0
 18 22  1  0  0  0  0
 19 20  1  0  0  0  0
 20 21  1  0  0  0  0
 20 23  1  0  0  0  0
 21 22  2  0  0  0  0
 24 25  1  0  0  0  0
 25 26  1  0  0  0  0
 26 27  2  0  0  0  0
 27 28  1  0  0  0  0
 27 29  1  0  0  0  0
  2 30  1  0  0  0  0
  2 31  1  0  0  0  0
  3 32  1  0  0  0  0
  4 33  1  0  0  0  0
  6 34  1  0  0  0  0
 10 35  1  0  0  0  0
 13 36  1  0  0  0  0
 14 37  1  0  0  0  0
 16 38  1  0  0  0  0
 17 39  1  0  0  0  0
 17 40  1  0  0  0  0
 19 41  1  0  0  0  0
 22 42  1  0  0  0  0
 23 43  1  0  0  0  0
 23 44  1  0  0  0  0
 23 45  1  0  0  0  0
 24 46  1  0  0  0  0
 24 47  1  0  0  0  0
 25 48  1  0  0  0  0
 25 49  1  0  0  0  0
 28 50  1  0  0  0  0
 29 51  1  0  0  0  0
 29 52  1  0  0  0  0
 29 53  1  0  0  0  0
M  END
> <Name>
27

> <IC50[uM]>
0.68

$$$$
27
  -OEChem-05192314333D
 Structure written by MMmdl.
 53 56  0     0  0  0  0  0  0999 V2000
   -6.3855   12.3606  -12.0031 C   0  0  0  0  0  0  0  0  0  0  0  0
   -6.5214   11.8004  -10.7171 C   0  0  0  0  0  0  0  0  0  0  0  0
   -7.6991   10.5797  -13.0384 C   0  0  0  0  0  0  0  0  0  0  0  0
   -6.9626   11.7779  -13.1031 C   0  0  0  0  0  0  0  0  0  0  0  0
   -7.8238   10.0198  -11.7523 C   0  0  0  0  0  0  0  0  0  0  0  0
   -7.2557   10.6213  -10.5956 C   0  0  0  0  0  0  0  0  0  0  0  0
   -7.6268    9.7501   -9.5073 C   0  0  0  0  0  0  0  0  0  0  0  0
   -8.3057    8.7491   -9.9816 N   0  0  0  0  0  0  0  0  0  0  0  0
   -8.4330    8.8776  -11.2917 N   0  0  0  0  0  0  0  0  0  0  0  0
   -7.3352    9.8817   -8.0196 C   0  0  0  0  0  0  0  0  0  0  0  0
   -5.6205   13.5372  -12.2095 N   0  0  0  0  0  0  0  0  0  0  0  0
   -5.9727   10.4835   -7.7324 C   0  0  0  0  0  0  0  0  0  0  0  0
   -5.8611   11.7523   -7.1657 C   0  0  0  0  0  0  0  0  0  0  0  0
   -4.5946   12.2988   -6.9068 C   0  0  0  0  0  0  0  0  0  0  0  0
   -3.4432   11.5806   -7.2147 C   0  0  0  0  0  0  0  0  0  0  0  0
   -3.5570   10.3109   -7.7899 C   0  0  0  0  0  0  0  0  0  0  0  0
   -4.8253    9.7663   -8.0483 C   0  0  0  0  0  0  0  0  0  0  0  0
   -2.0926   12.1556   -6.9444 C   0  0  0  0  0  0  0  0  0  0  0  0
   -1.7338   13.4204   -6.4594 C   0  0  0  0  0  0  0  0  0  0  0  0
   -0.4064   13.4584   -6.4114 N   0  0  0  0  0  0  0  0  0  0  0  0
    0.1793   12.3493   -6.7865 N   0  0  0  0  0  0  0  0  0  0  0  0
   -0.7954   11.5387   -7.1512 C   0  0  0  0  0  0  0  0  0  0  0  0
    0.4205   14.5767   -6.0073 C   0  0  0  0  0  0  0  0  0  0  0  0
   -4.6894   13.8945  -11.1046 C   0  0  0  0  0  0  0  0  0  0  0  0
   -3.7822   15.1171  -11.3990 C   0  0  0  0  0  0  0  0  0  0  0  0
   -2.3310   14.9579  -11.2532 N   0  0  0  0  0  0  0  0  0  0  0  0
   -1.8099   14.4326  -10.1320 C   0  0  0  0  0  0  0  0  0  0  0  0
   -2.5019   14.0442   -9.2076 O   0  0  0  0  0  0  0  0  0  0  0  0
   -0.2869   14.3494  -10.0364 C   0  0  0  0  0  0  0  0  0  0  0  0
   -6.0716   12.2689   -9.8542 H   0  0  0  0  0  0  0  0  0  0  0  0
   -8.1374   10.1224  -13.9131 H   0  0  0  0  0  0  0  0  0  0  0  0
   -6.8466   12.2604  -14.0624 H   0  0  0  0  0  0  0  0  0  0  0  0
   -8.1046   10.5248   -7.5674 H   0  0  0  0  0  0  0  0  0  0  0  0
   -7.3794    8.8814   -7.5641 H   0  0  0  0  0  0  0  0  0  0  0  0
   -5.9820   10.0328   -6.7290 H   0  0  0  0  0  0  0  0  0  0  0  0
   -6.7507   12.3156   -6.9255 H   0  0  0  0  0  0  0  0  0  0  0  0
   -4.5132   13.2816   -6.4664 H   0  0  0  0  0  0  0  0  0  0  0  0
   -3.4540   11.1294   -6.2116 H   0  0  0  0  0  0  0  0  0  0  0  0
   -2.6683    9.7485   -8.0357 H   0  0  0  0  0  0  0  0  0  0  0  0
   -4.9092    8.7863   -8.4943 H   0  0  0  0  0  0  0  0  0  0  0  0
   -2.4090   14.2148   -6.1776 H   0  0  0  0  0  0  0  0  0  0  0  0
   -0.6475   10.5464   -7.5511 H   0  0  0  0  0  0  0  0  0  0  0  0
    1.4812   14.2962   -6.0855 H   0  0  0  0  0  0  0  0  0  0  0  0
    0.2196   15.4369   -6.6628 H   0  0  0  0  0  0  0  0  0  0  0  0
    0.1886   14.8468   -4.9665 H   0  0  0  0  0  0  0  0  0  0  0  0
   -5.2882   14.1185  -10.2095 H   0  0  0  0  0  0  0  0  0  0  0  0
   -4.0431   13.0269  -10.9057 H   0  0  0  0  0  0  0  0  0  0  0  0
   -3.9735   15.4217  -12.4385 H   0  0  0  0  0  0  0  0  0  0  0  0
   -4.0914   15.9235  -10.7178 H   0  0  0  0  0  0  0  0  0  0  0  0
   -1.9457   13.7098   -8.5138 H   0  0  0  0  0  0  0  0  0  0  0  0
   -0.0034   13.9020   -9.0723 H   0  0  0  0  0  0  0  0  0  0  0  0
    0.0984   13.7264  -10.8570 H   0  0  0  0  0  0  0  0  0  0  0  0
    0.1408   15.3601  -10.1114 H   0  0  0  0  0  0  0  0  0  0  0  0
  1  2  1  0  0  0  0
  1  4  1  0  0  0  0
  1 11  2  0  0  0  0
  2  6  2  0  0  0  0
  3  4  2  0  0  0  0
  3  5  1  0  0  0  0
  5  6  1  0  0  0  0
  5  9  2  0  0  0  0
  6  7  1  0  0  0  0
  7  8  2  0  0  0  0
  7 10  1  0  0  0  0
  8  9  1  0  0  0  0
 10 12  1  0  0  0  0
 11 24  1  0  0  0  0
 12 13  1  0  0  0  0
 12 17  1  0  0  0  0
 13 14  2  0  0  0  0
 14 15  1  0  0  0  0
 15 16  1  0  0  0  0
 15 18  1  0  0  0  0
 16 17  2  0  0  0  0
 18 19  2  0  0  0  0
 18 22  1  0  0  0  0
 19 20  1  0  0  0  0
 20 21  1  0  0  0  0
 20 23  1  0  0  0  0
 21 22  2  0  0  0  0
 24 25  1  0  0  0  0
 25 26  1  0  0  0  0
 26 27  2  0  0  0  0
 27 28  1  0  0  0  0
 27 29  1  0  0  0  0
  2 30  1  0  0  0  0
  3 31  1  0  0  0  0
  4 32  1  0  0  0  0
 10 33  1  0  0  0  0
 10 34  1  0  0  0  0
 12 35  1  0  0  0  0
 13 36  1  0  0  0  0
 14 37  1  0  0  0  0
 15 38  1  0  0  0  0
 16 39  1  0  0  0  0
 17 40  1  0  0  0  0
 19 41  1  0  0  0  0
 22 42  1  0  0  0  0
 23 43  1  0  0  0  0
 23 44  1  0  0  0  0
 23 45  1  0  0  0  0
 24 46  1  0  0  0  0
 24 47  1  0  0  0  0
 25 48  1  0  0  0  0
 25 49  1  0  0  0  0
 28 50  1  0  0  0  0
 29 51  1  0  0  0  0
 29 52  1  0  0  0  0
 29 53  1  0  0  0  0
M  END
> <Name>
27

> <IC50[uM]>
0.68

$$$$
27
  -OEChem-05192314333D
 Structure written by MMmdl.
 53 56  0     1  0  0  0  0  0999 V2000
   -6.3855   12.3606  -12.0031 C   0  0  0  0  0  0  0  0  0  0  0  0
   -6.5214   11.8004  -10.7171 C   0  0  0  0  0  0  0  0  0  0  0  0
   -7.6991   10.5797  -13.0384 C   0  0  0  0  0  0  0  0  0  0  0  0
   -6.9626   11.7779  -13.1031 C   0  0  0  0  0  0  0  0  0  0  0  0
   -7.8238   10.0198  -11.7523 C   0  0  0  0  0  0  0  0  0  0  0  0
   -7.2557   10.6213  -10.5956 C   0  0  0  0  0  0  0  0  0  0  0  0
   -7.6268    9.7501   -9.5073 C   0  0  0  0  0  0  0  0  0  0  0  0
   -8.3057    8.7491   -9.9816 N   0  0  0  0  0  0  0  0  0  0  0  0
   -8.4330    8.8776  -11.2917 N   0  0  0  0  0  0  0  0  0  0  0  0
   -7.3352    9.8817   -8.0196 C   0  0  0  0  0  0  0  0  0  0  0  0
   -5.6205   13.5372  -12.2095 N   0  0  0  0  0  0  0  0  0  0  0  0
   -5.9727   10.4835   -7.7324 C   0  0  0  0  0  0  0  0  0  0  0  0
   -5.8611   11.7523   -7.1657 C   0  0  0  0  0  0  0  0  0  0  0  0
   -4.5946   12.2988   -6.9068 C   0  0  0  0  0  0  0  0  0  0  0  0
   -3.4432   11.5806   -7.2147 C   0  0  3  0  0  0  0  0  0  0  0  0
   -3.5570   10.3109   -7.7899 C   0  0  0  0  0  0  0  0  0  0  0  0
   -4.8253    9.7663   -8.0483 C   0  0  0  0  0  0  0  0  0  0  0  0
   -2.0926   12.1556   -6.9444 C   0  0  0  0  0  0  0  0  0  0  0  0
   -1.7338   13.4204   -6.4594 C   0  0  0  0  0  0  0  0  0  0  0  0
   -0.4064   13.4584   -6.4114 N   0  0  0  0  0  0  0  0  0  0  0  0
    0.1793   12.3493   -6.7865 N   0  0  0  0  0  0  0  0  0  0  0  0
   -0.7954   11.5387   -7.1512 C   0  0  0  0  0  0  0  0  0  0  0  0
    0.4205   14.5767   -6.0073 C   0  0  0  0  0  0  0  0  0  0  0  0
   -4.6894   13.8945  -11.1046 C   0  0  0  0  0  0  0  0  0  0  0  0
   -3.7822   15.1171  -11.3990 C   0  0  0  0  0  0  0  0  0  0  0  0
   -2.3310   14.9579  -11.2532 N   0  0  0  0  0  0  0  0  0  0  0  0
   -1.8099   14.4326  -10.1320 C   0  0  0  0  0  0  0  0  0  0  0  0
   -2.5019   14.0442   -9.2076 O   0  0  0  0  0  0  0  0  0  0  0  0
   -0.2869   14.3494  -10.0364 C   0  0  0  0  0  0  0  0  0  0  0  0
   -6.0716   12.2689   -9.8542 H   0  0  0  0  0  0  0  0  0  0  0  0
   -8.1374   10.1224  -13.9131 H   0  0  0  0  0  0  0  0  0  0  0  0
   -6.8466   12.2604  -14.0624 H   0  0  0  0  0  0  0  0  0  0  0  0
   -8.1046   10.5248   -7.5674 H   0  0  0  0  0  0  0  0  0  0  0  0
   -7.3794    8.8814   -7.5641 H   0  0  0  0  0  0  0  0  0  0  0  0
   -6.7507   12.3156   -6.9255 H   0  0  0  0  0  0  0  0  0  0  0  0
   -4.5373   13.2433   -7.4677 H   0  0  0  0  0  0  0  0  0  0  0  0
   -4.5562   12.5101   -5.8280 H   0  0  0  0  0  0  0  0  0  0  0  0
   -3.4540   11.1294   -6.2116 H   0  0  0  0  0  0  0  0  0  0  0  0
   -2.6683    9.7485   -8.0357 H   0  0  0  0  0  0  0  0  0  0  0  0
   -4.9092    8.7863   -8.4943 H   0  0  0  0  0  0  0  0  0  0  0  0
   -2.4090   14.2148   -6.1776 H   0  0  0  0  0  0  0  0  0  0  0  0
   -0.6475   10.5464   -7.5511 H   0  0  0  0  0  0  0  0  0  0  0  0
    1.4812   14.2962   -6.0855 H   0  0  0  0  0  0  0  0  0  0  0  0
    0.2196   15.4369   -6.6628 H   0  0  0  0  0  0  0  0  0  0  0  0
    0.1886   14.8468   -4.9665 H   0  0  0  0  0  0  0  0  0  0  0  0
   -5.2882   14.1185  -10.2095 H   0  0  0  0  0  0  0  0  0  0  0  0
   -4.0431   13.0269  -10.9057 H   0  0  0  0  0  0  0  0  0  0  0  0
   -3.9735   15.4217  -12.4385 H   0  0  0  0  0  0  0  0  0  0  0  0
   -4.0914   15.9235  -10.7178 H   0  0  0  0  0  0  0  0  0  0  0  0
   -1.9457   13.7098   -8.5138 H   0  0  0  0  0  0  0  0  0  0  0  0
   -0.0034   13.9020   -9.0723 H   0  0  0  0  0  0  0  0  0  0  0  0
    0.0984   13.7264  -10.8570 H   0  0  0  0  0  0  0  0  0  0  0  0
    0.1408   15.3601  -10.1114 H   0  0  0  0  0  0  0  0  0  0  0  0
  1  2  1  0  0  0  0
  1  4  1  0  0  0  0
  1 11  2  0  0  0  0
  2  6  2  0  0  0  0
  3  4  2  0  0  0  0
  3  5  1  0  0  0  0
  5  6  1  0  0  0  0
  5  9  2  0  0  0  0
  6  7  1  0  0  0  0
  7  8  2  0  0  0  0
  7 10  1  0  0  0  0
  8  9  1  0  0  0  0
 10 12  1  0  0  0  0
 11 24  1  0  0  0  0
 12 13  2  0  0  0  0
 12 17  1  0  0  0  0
 13 14  1  0  0  0  0
 14 15  1  0  0  0  0
 15 16  1  0  0  0  0
 15 18  1  0  0  0  0
 16 17  2  0  0  0  0
 18 19  2  0  0  0  0
 18 22  1  0  0  0  0
 19 20  1  0  0  0  0
 20 21  1  0  0  0  0
 20 23  1  0  0  0  0
 21 22  2  0  0  0  0
 24 25  1  0  0  0  0
 25 26  1  0  0  0  0
 26 27  2  0  0  0  0
 27 28  1  0  0  0  0
 27 29  1  0  0  0  0
  2 30  1  0  0  0  0
  3 31  1  0  0  0  0
  4 32  1  0  0  0  0
 10 33  1  0  0  0  0
 10 34  1  0  0  0  0
 13 35  1  0  0  0  0
 14 36  1  0  0  0  0
 14 37  1  0  0  0  0
 15 38  1  0  0  0  0
 16 39  1  0  0  0  0
 17 40  1  0  0  0  0
 19 41  1  0  0  0  0
 22 42  1  0  0  0  0
 23 43  1  0  0  0  0
 23 44  1  0  0  0  0
 23 45  1  0  0  0  0
 24 46  1  0  0  0  0
 24 47  1  0  0  0  0
 25 48  1  0  0  0  0
 25 49  1  0  0  0  0
 28 50  1  0  0  0  0
 29 51  1  0  0  0  0
 29 52  1  0  0  0  0
 29 53  1  0  0  0  0
M  END
> <Name>
27

> <IC50[uM]>
0.68

$$$$
27
  -OEChem-05192314333D
 Structure written by MMmdl.
 53 56  0     1  0  0  0  0  0999 V2000
   -6.3855   12.3606  -12.0031 C   0  0  0  0  0  0  0  0  0  0  0  0
   -6.5214   11.8004  -10.7171 C   0  0  0  0  0  0  0  0  0  0  0  0
   -7.6991   10.5797  -13.0384 C   0  0  0  0  0  0  0  0  0  0  0  0
   -6.9626   11.7779  -13.1031 C   0  0  0  0  0  0  0  0  0  0  0  0
   -7.8238   10.0198  -11.7523 C   0  0  0  0  0  0  0  0  0  0  0  0
   -7.2557   10.6213  -10.5956 C   0  0  0  0  0  0  0  0  0  0  0  0
   -7.6268    9.7501   -9.5073 C   0  0  0  0  0  0  0  0  0  0  0  0
   -8.3057    8.7491   -9.9816 N   0  0  0  0  0  0  0  0  0  0  0  0
   -8.4330    8.8776  -11.2917 N   0  0  0  0  0  0  0  0  0  0  0  0
   -7.3352    9.8817   -8.0196 C   0  0  0  0  0  0  0  0  0  0  0  0
   -5.6205   13.5372  -12.2095 N   0  0  0  0  0  0  0  0  0  0  0  0
   -5.9727   10.4835   -7.7324 C   0  0  3  0  0  0  0  0  0  0  0  0
   -5.8611   11.7523   -7.1657 C   0  0  0  0  0  0  0  0  0  0  0  0
   -4.5946   12.2988   -6.9068 C   0  0  0  0  0  0  0  0  0  0  0  0
   -3.4432   11.5806   -7.2147 C   0  0  0  0  0  0  0  0  0  0  0  0
   -3.5570   10.3109   -7.7899 C   0  0  0  0  0  0  0  0  0  0  0  0
   -4.8253    9.7663   -8.0483 C   0  0  0  0  0  0  0  0  0  0  0  0
   -2.0926   12.1556   -6.9444 C   0  0  0  0  0  0  0  0  0  0  0  0
   -1.7338   13.4204   -6.4594 C   0  0  0  0  0  0  0  0  0  0  0  0
   -0.4064   13.4584   -6.4114 N   0  0  0  0  0  0  0  0  0  0  0  0
    0.1793   12.3493   -6.7865 N   0  0  0  0  0  0  0  0  0  0  0  0
   -0.7954   11.5387   -7.1512 C   0  0  0  0  0  0  0  0  0  0  0  0
    0.4205   14.5767   -6.0073 C   0  0  0  0  0  0  0  0  0  0  0  0
   -4.6894   13.8945  -11.1046 C   0  0  0  0  0  0  0  0  0  0  0  0
   -3.7822   15.1171  -11.3990 C   0  0  0  0  0  0  0  0  0  0  0  0
   -2.3310   14.9579  -11.2532 N   0  0  0  0  0  0  0  0  0  0  0  0
   -1.8099   14.4326  -10.1320 C   0  0  0  0  0  0  0  0  0  0  0  0
   -2.5019   14.0442   -9.2076 O   0  0  0  0  0  0  0  0  0  0  0  0
   -0.2869   14.3494  -10.0364 C   0  0  0  0  0  0  0  0  0  0  0  0
   -6.0716   12.2689   -9.8542 H   0  0  0  0  0  0  0  0  0  0  0  0
   -8.1374   10.1224  -13.9131 H   0  0  0  0  0  0  0  0  0  0  0  0
   -6.8466   12.2604  -14.0624 H   0  0  0  0  0  0  0  0  0  0  0  0
   -8.1046   10.5248   -7.5674 H   0  0  0  0  0  0  0  0  0  0  0  0
   -7.3794    8.8814   -7.5641 H   0  0  0  0  0  0  0  0  0  0  0  0
   -5.9820   10.0328   -6.7290 H   0  0  0  0  0  0  0  0  0  0  0  0
   -6.7507   12.3156   -6.9255 H   0  0  0  0  0  0  0  0  0  0  0  0
   -4.5132   13.2816   -6.4664 H   0  0  0  0  0  0  0  0  0  0  0  0
   -2.6683    9.7485   -8.0357 H   0  0  0  0  0  0  0  0  0  0  0  0
   -4.8817    8.8185   -7.4929 H   0  0  0  0  0  0  0  0  0  0  0  0
   -4.8676    9.5615   -9.1282 H   0  0  0  0  0  0  0  0  0  0  0  0
   -2.4090   14.2148   -6.1776 H   0  0  0  0  0  0  0  0  0  0  0  0
   -0.6475   10.5464   -7.5511 H   0  0  0  0  0  0  0  0  0  0  0  0
    1.4812   14.2962   -6.0855 H   0  0  0  0  0  0  0  0  0  0  0  0
    0.2196   15.4369   -6.6628 H   0  0  0  0  0  0  0  0  0  0  0  0
    0.1886   14.8468   -4.9665 H   0  0  0  0  0  0  0  0  0  0  0  0
   -5.2882   14.1185  -10.2095 H   0  0  0  0  0  0  0  0  0  0  0  0
   -4.0431   13.0269  -10.9057 H   0  0  0  0  0  0  0  0  0  0  0  0
   -3.9735   15.4217  -12.4385 H   0  0  0  0  0  0  0  0  0  0  0  0
   -4.0914   15.9235  -10.7178 H   0  0  0  0  0  0  0  0  0  0  0  0
   -1.9457   13.7098   -8.5138 H   0  0  0  0  0  0  0  0  0  0  0  0
   -0.0034   13.9020   -9.0723 H   0  0  0  0  0  0  0  0  0  0  0  0
    0.0984   13.7264  -10.8570 H   0  0  0  0  0  0  0  0  0  0  0  0
    0.1408   15.3601  -10.1114 H   0  0  0  0  0  0  0  0  0  0  0  0
  1  2  1  0  0  0  0
  1  4  1  0  0  0  0
  1 11  2  0  0  0  0
  2  6  2  0  0  0  0
  3  4  2  0  0  0  0
  3  5  1  0  0  0  0
  5  6  1  0  0  0  0
  5  9  2  0  0  0  0
  6  7  1  0  0  0  0
  7  8  2  0  0  0  0
  7 10  1  0  0  0  0
  8  9  1  0  0  0  0
 10 12  1  0  0  0  0
 11 24  1  0  0  0  0
 12 13  1  0  0  0  0
 12 17  1  0  0  0  0
 13 14  2  0  0  0  0
 14 15  1  0  0  0  0
 15 16  2  0  0  0  0
 15 18  1  0  0  0  0
 16 17  1  0  0  0  0
 18 19  2  0  0  0  0
 18 22  1  0  0  0  0
 19 20  1  0  0  0  0
 20 21  1  0  0  0  0
 20 23  1  0  0  0  0
 21 22  2  0  0  0  0
 24 25  1  0  0  0  0
 25 26  1  0  0  0  0
 26 27  2  0  0  0  0
 27 28  1  0  0  0  0
 27 29  1  0  0  0  0
  2 30  1  0  0  0  0
  3 31  1  0  0  0  0
  4 32  1  0  0  0  0
 10 33  1  0  0  0  0
 10 34  1  0  0  0  0
 12 35  1  0  0  0  0
 13 36  1  0  0  0  0
 14 37  1  0  0  0  0
 16 38  1  0  0  0  0
 17 39  1  0  0  0  0
 17 40  1  0  0  0  0
 19 41  1  0  0  0  0
 22 42  1  0  0  0  0
 23 43  1  0  0  0  0
 23 44  1  0  0  0  0
 23 45  1  0  0  0  0
 24 46  1  0  0  0  0
 24 47  1  0  0  0  0
 25 48  1  0  0  0  0
 25 49  1  0  0  0  0
 28 50  1  0  0  0  0
 29 51  1  0  0  0  0
 29 52  1  0  0  0  0
 29 53  1  0  0  0  0
M  END
> <Name>
27

> <IC50[uM]>
0.68

$$$$
27
  -OEChem-05192314333D
 Structure written by MMmdl.
 53 56  0     0  0  0  0  0  0999 V2000
   -6.3855   12.3606  -12.0031 C   0  0  0  0  0  0  0  0  0  0  0  0
   -6.5214   11.8004  -10.7171 C   0  0  0  0  0  0  0  0  0  0  0  0
   -7.6991   10.5797  -13.0384 C   0  0  0  0  0  0  0  0  0  0  0  0
   -6.9626   11.7779  -13.1031 C   0  0  0  0  0  0  0  0  0  0  0  0
   -7.8238   10.0198  -11.7523 C   0  0  0  0  0  0  0  0  0  0  0  0
   -7.2557   10.6213  -10.5956 C   0  0  0  0  0  0  0  0  0  0  0  0
   -7.6268    9.7501   -9.5073 C   0  0  0  0  0  0  0  0  0  0  0  0
   -8.3057    8.7491   -9.9816 N   0  0  0  0  0  0  0  0  0  0  0  0
   -8.4330    8.8776  -11.2917 N   0  0  0  0  0  0  0  0  0  0  0  0
   -7.3352    9.8817   -8.0196 C   0  0  0  0  0  0  0  0  0  0  0  0
   -5.6205   13.5372  -12.2095 N   0  0  0  0  0  0  0  0  0  0  0  0
   -5.9727   10.4835   -7.7324 C   0  0  0  0  0  0  0  0  0  0  0  0
   -5.8611   11.7523   -7.1657 C   0  0  0  0  0  0  0  0  0  0  0  0
   -4.5946   12.2988   -6.9068 C   0  0  0  0  0  0  0  0  0  0  0  0
   -3.4432   11.5806   -7.2147 C   0  0  0  0  0  0  0  0  0  0  0  0
   -3.5570   10.3109   -7.7899 C   0  0  0  0  0  0  0  0  0  0  0  0
   -4.8253    9.7663   -8.0483 C   0  0  0  0  0  0  0  0  0  0  0  0
   -2.0926   12.1556   -6.9444 C   0  0  0  0  0  0  0  0  0  0  0  0
   -1.7338   13.4204   -6.4594 C   0  0  0  0  0  0  0  0  0  0  0  0
   -0.4064   13.4584   -6.4114 N   0  0  0  0  0  0  0  0  0  0  0  0
    0.1793   12.3493   -6.7865 N   0  0  0  0  0  0  0  0  0  0  0  0
   -0.7954   11.5387   -7.1512 C   0  0  0  0  0  0  0  0  0  0  0  0
    0.4205   14.5767   -6.0073 C   0  0  0  0  0  0  0  0  0  0  0  0
   -4.6894   13.8945  -11.1046 C   0  0  0  0  0  0  0  0  0  0  0  0
   -3.7822   15.1171  -11.3990 C   0  0  0  0  0  0  0  0  0  0  0  0
   -2.3310   14.9579  -11.2532 N   0  0  0  0  0  0  0  0  0  0  0  0
   -1.8099   14.4326  -10.1320 C   0  0  0  0  0  0  0  0  0  0  0  0
   -2.5019   14.0442   -9.2076 O   0  0  0  0  0  0  0  0  0  0  0  0
   -0.2869   14.3494  -10.0364 C   0  0  0  0  0  0  0  0  0  0  0  0
   -6.0716   12.2689   -9.8542 H   0  0  0  0  0  0  0  0  0  0  0  0
   -8.1374   10.1224  -13.9131 H   0  0  0  0  0  0  0  0  0  0  0  0
   -6.8466   12.2604  -14.0624 H   0  0  0  0  0  0  0  0  0  0  0  0
   -8.1046   10.5248   -7.5674 H   0  0  0  0  0  0  0  0  0  0  0  0
   -7.3794    8.8814   -7.5641 H   0  0  0  0  0  0  0  0  0  0  0  0
   -6.7507   12.3156   -6.9255 H   0  0  0  0  0  0  0  0  0  0  0  0
   -4.5373   13.2433   -7.4677 H   0  0  0  0  0  0  0  0  0  0  0  0
   -4.5562   12.5101   -5.8280 H   0  0  0  0  0  0  0  0  0  0  0  0
   -2.6683    9.7485   -8.0357 H   0  0  0  0  0  0  0  0  0  0  0  0
   -4.8817    8.8185   -7.4929 H   0  0  0  0  0  0  0  0  0  0  0  0
   -4.8676    9.5615   -9.1282 H   0  0  0  0  0  0  0  0  0  0  0  0
   -2.4090   14.2148   -6.1776 H   0  0  0  0  0  0  0  0  0  0  0  0
   -0.6475   10.5464   -7.5511 H   0  0  0  0  0  0  0  0  0  0  0  0
    1.4812   14.2962   -6.0855 H   0  0  0  0  0  0  0  0  0  0  0  0
    0.2196   15.4369   -6.6628 H   0  0  0  0  0  0  0  0  0  0  0  0
    0.1886   14.8468   -4.9665 H   0  0  0  0  0  0  0  0  0  0  0  0
   -5.2882   14.1185  -10.2095 H   0  0  0  0  0  0  0  0  0  0  0  0
   -4.0431   13.0269  -10.9057 H   0  0  0  0  0  0  0  0  0  0  0  0
   -3.9735   15.4217  -12.4385 H   0  0  0  0  0  0  0  0  0  0  0  0
   -4.0914   15.9235  -10.7178 H   0  0  0  0  0  0  0  0  0  0  0  0
   -1.9457   13.7098   -8.5138 H   0  0  0  0  0  0  0  0  0  0  0  0
   -0.0034   13.9020   -9.0723 H   0  0  0  0  0  0  0  0  0  0  0  0
    0.0984   13.7264  -10.8570 H   0  0  0  0  0  0  0  0  0  0  0  0
    0.1408   15.3601  -10.1114 H   0  0  0  0  0  0  0  0  0  0  0  0
  1  2  1  0  0  0  0
  1  4  1  0  0  0  0
  1 11  2  0  0  0  0
  2  6  2  0  0  0  0
  3  4  2  0  0  0  0
  3  5  1  0  0  0  0
  5  6  1  0  0  0  0
  5  9  2  0  0  0  0
  6  7  1  0  0  0  0
  7  8  2  0  0  0  0
  7 10  1  0  0  0  0
  8  9  1  0  0  0  0
 10 12  1  0  0  0  0
 11 24  1  0  0  0  0
 12 13  2  0  0  0  0
 12 17  1  0  0  0  0
 13 14  1  0  0  0  0
 14 15  1  0  0  0  0
 15 16  2  0  0  0  0
 15 18  1  0  0  0  0
 16 17  1  0  0  0  0
 18 19  2  0  0  0  0
 18 22  1  0  0  0  0
 19 20  1  0  0  0  0
 20 21  1  0  0  0  0
 20 23  1  0  0  0  0
 21 22  2  0  0  0  0
 24 25  1  0  0  0  0
 25 26  1  0  0  0  0
 26 27  2  0  0  0  0
 27 28  1  0  0  0  0
 27 29  1  0  0  0  0
  2 30  1  0  0  0  0
  3 31  1  0  0  0  0
  4 32  1  0  0  0  0
 10 33  1  0  0  0  0
 10 34  1  0  0  0  0
 13 35  1  0  0  0  0
 14 36  1  0  0  0  0
 14 37  1  0  0  0  0
 16 38  1  0  0  0  0
 17 39  1  0  0  0  0
 17 40  1  0  0  0  0
 19 41  1  0  0  0  0
 22 42  1  0  0  0  0
 23 43  1  0  0  0  0
 23 44  1  0  0  0  0
 23 45  1  0  0  0  0
 24 46  1  0  0  0  0
 24 47  1  0  0  0  0
 25 48  1  0  0  0  0
 25 49  1  0  0  0  0
 28 50  1  0  0  0  0
 29 51  1  0  0  0  0
 29 52  1  0  0  0  0
 29 53  1  0  0  0  0
M  END
> <Name>
27

> <IC50[uM]>
0.68

$$$$
27
  -OEChem-05192314333D
 Structure written by MMmdl.
 53 56  0     0  0  0  0  0  0999 V2000
   -6.3855   12.3606  -12.0031 C   0  0  0  0  0  0  0  0  0  0  0  0
   -6.5214   11.8004  -10.7171 C   0  0  0  0  0  0  0  0  0  0  0  0
   -7.6991   10.5797  -13.0384 C   0  0  0  0  0  0  0  0  0  0  0  0
   -6.9626   11.7779  -13.1031 C   0  0  0  0  0  0  0  0  0  0  0  0
   -7.8238   10.0198  -11.7523 C   0  0  0  0  0  0  0  0  0  0  0  0
   -7.2557   10.6213  -10.5956 C   0  0  0  0  0  0  0  0  0  0  0  0
   -7.6268    9.7501   -9.5073 C   0  0  0  0  0  0  0  0  0  0  0  0
   -8.3057    8.7491   -9.9816 N   0  0  0  0  0  0  0  0  0  0  0  0
   -8.4330    8.8776  -11.2917 N   0  0  0  0  0  0  0  0  0  0  0  0
   -7.3352    9.8817   -8.0196 C   0  0  0  0  0  0  0  0  0  0  0  0
   -5.6205   13.5372  -12.2095 N   0  0  0  0  0  0  0  0  0  0  0  0
   -5.9727   10.4835   -7.7324 C   0  0  0  0  0  0  0  0  0  0  0  0
   -5.8611   11.7523   -7.1657 C   0  0  0  0  0  0  0  0  0  0  0  0
   -4.5946   12.2988   -6.9068 C   0  0  0  0  0  0  0  0  0  0  0  0
   -3.4432   11.5806   -7.2147 C   0  0  0  0  0  0  0  0  0  0  0  0
   -3.5570   10.3109   -7.7899 C   0  0  0  0  0  0  0  0  0  0  0  0
   -4.8253    9.7663   -8.0483 C   0  0  0  0  0  0  0  0  0  0  0  0
   -2.0926   12.1556   -6.9444 C   0  0  0  0  0  0  0  0  0  0  0  0
   -1.7338   13.4204   -6.4594 C   0  0  0  0  0  0  0  0  0  0  0  0
   -0.4064   13.4584   -6.4114 N   0  0  0  0  0  0  0  0  0  0  0  0
    0.1793   12.3493   -6.7865 N   0  0  0  0  0  0  0  0  0  0  0  0
   -0.7954   11.5387   -7.1512 C   0  0  0  0  0  0  0  0  0  0  0  0
    0.4205   14.5767   -6.0073 C   0  0  0  0  0  0  0  0  0  0  0  0
   -4.6894   13.8945  -11.1046 C   0  0  0  0  0  0  0  0  0  0  0  0
   -3.7822   15.1171  -11.3990 C   0  0  0  0  0  0  0  0  0  0  0  0
   -2.3310   14.9579  -11.2532 N   0  0  0  0  0  0  0  0  0  0  0  0
   -1.8099   14.4326  -10.1320 C   0  0  0  0  0  0  0  0  0  0  0  0
   -2.5019   14.0442   -9.2076 O   0  0  0  0  0  0  0  0  0  0  0  0
   -0.2869   14.3494  -10.0364 C   0  0  0  0  0  0  0  0  0  0  0  0
   -6.0716   12.2689   -9.8542 H   0  0  0  0  0  0  0  0  0  0  0  0
   -8.1374   10.1224  -13.9131 H   0  0  0  0  0  0  0  0  0  0  0  0
   -6.8466   12.2604  -14.0624 H   0  0  0  0  0  0  0  0  0  0  0  0
   -8.1046   10.5248   -7.5674 H   0  0  0  0  0  0  0  0  0  0  0  0
   -7.3794    8.8814   -7.5641 H   0  0  0  0  0  0  0  0  0  0  0  0
   -6.7507   12.3156   -6.9255 H   0  0  0  0  0  0  0  0  0  0  0  0
   -4.5132   13.2816   -6.4664 H   0  0  0  0  0  0  0  0  0  0  0  0
   -3.0266   10.3502   -8.7528 H   0  0  0  0  0  0  0  0  0  0  0  0
   -3.0423    9.6102   -7.1161 H   0  0  0  0  0  0  0  0  0  0  0  0
   -4.8817    8.8185   -7.4929 H   0  0  0  0  0  0  0  0  0  0  0  0
   -4.8676    9.5615   -9.1282 H   0  0  0  0  0  0  0  0  0  0  0  0
   -2.4090   14.2148   -6.1776 H   0  0  0  0  0  0  0  0  0  0  0  0
   -0.6475   10.5464   -7.5511 H   0  0  0  0  0  0  0  0  0  0  0  0
    1.4812   14.2962   -6.0855 H   0  0  0  0  0  0  0  0  0  0  0  0
    0.2196   15.4369   -6.6628 H   0  0  0  0  0  0  0  0  0  0  0  0
    0.1886   14.8468   -4.9665 H   0  0  0  0  0  0  0  0  0  0  0  0
   -5.2882   14.1185  -10.2095 H   0  0  0  0  0  0  0  0  0  0  0  0
   -4.0431   13.0269  -10.9057 H   0  0  0  0  0  0  0  0  0  0  0  0
   -3.9735   15.4217  -12.4385 H   0  0  0  0  0  0  0  0  0  0  0  0
   -4.0914   15.9235  -10.7178 H   0  0  0  0  0  0  0  0  0  0  0  0
   -1.9457   13.7098   -8.5138 H   0  0  0  0  0  0  0  0  0  0  0  0
   -0.0034   13.9020   -9.0723 H   0  0  0  0  0  0  0  0  0  0  0  0
    0.0984   13.7264  -10.8570 H   0  0  0  0  0  0  0  0  0  0  0  0
    0.1408   15.3601  -10.1114 H   0  0  0  0  0  0  0  0  0  0  0  0
  1  2  1  0  0  0  0
  1  4  1  0  0  0  0
  1 11  2  0  0  0  0
  2  6  2  0  0  0  0
  3  4  2  0  0  0  0
  3  5  1  0  0  0  0
  5  6  1  0  0  0  0
  5  9  2  0  0  0  0
  6  7  1  0  0  0  0
  7  8  2  0  0  0  0
  7 10  1  0  0  0  0
  8  9  1  0  0  0  0
 10 12  1  0  0  0  0
 11 24  1  0  0  0  0
 12 13  2  0  0  0  0
 12 17  1  0  0  0  0
 13 14  1  0  0  0  0
 14 15  2  0  0  0  0
 15 16  1  0  0  0  0
 15 18  1  0  0  0  0
 16 17  1  0  0  0  0
 18 19  2  0  0  0  0
 18 22  1  0  0  0  0
 19 20  1  0  0  0  0
 20 21  1  0  0  0  0
 20 23  1  0  0  0  0
 21 22  2  0  0  0  0
 24 25  1  0  0  0  0
 25 26  1  0  0  0  0
 26 27  2  0  0  0  0
 27 28  1  0  0  0  0
 27 29  1  0  0  0  0
  2 30  1  0  0  0  0
  3 31  1  0  0  0  0
  4 32  1  0  0  0  0
 10 33  1  0  0  0  0
 10 34  1  0  0  0  0
 13 35  1  0  0  0  0
 14 36  1  0  0  0  0
 16 37  1  0  0  0  0
 16 38  1  0  0  0  0
 17 39  1  0  0  0  0
 17 40  1  0  0  0  0
 19 41  1  0  0  0  0
 22 42  1  0  0  0  0
 23 43  1  0  0  0  0
 23 44  1  0  0  0  0
 23 45  1  0  0  0  0
 24 46  1  0  0  0  0
 24 47  1  0  0  0  0
 25 48  1  0  0  0  0
 25 49  1  0  0  0  0
 28 50  1  0  0  0  0
 29 51  1  0  0  0  0
 29 52  1  0  0  0  0
 29 53  1  0  0  0  0
M  END
> <Name>
27

> <IC50[uM]>
0.68

$$$$
27
  -OEChem-05192314333D
 Structure written by MMmdl.
 53 56  0     1  0  0  0  0  0999 V2000
   -6.3855   12.3606  -12.0031 C   0  0  0  0  0  0  0  0  0  0  0  0
   -6.5214   11.8004  -10.7171 C   0  0  0  0  0  0  0  0  0  0  0  0
   -7.6991   10.5797  -13.0384 C   0  0  0  0  0  0  0  0  0  0  0  0
   -6.9626   11.7779  -13.1031 C   0  0  0  0  0  0  0  0  0  0  0  0
   -7.8238   10.0198  -11.7523 C   0  0  3  0  0  0  0  0  0  0  0  0
   -7.2557   10.6213  -10.5956 C   0  0  0  0  0  0  0  0  0  0  0  0
   -7.6268    9.7501   -9.5073 C   0  0  0  0  0  0  0  0  0  0  0  0
   -8.3057    8.7491   -9.9816 N   0  0  0  0  0  0  0  0  0  0  0  0
   -8.4330    8.8776  -11.2917 N   0  0  0  0  0  0  0  0  0  0  0  0
   -7.3352    9.8817   -8.0196 C   0  0  0  0  0  0  0  0  0  0  0  0
   -5.6205   13.5372  -12.2095 N   0  0  0  0  0  0  0  0  0  0  0  0
   -5.9727   10.4835   -7.7324 C   0  0  0  0  0  0  0  0  0  0  0  0
   -5.8611   11.7523   -7.1657 C   0  0  0  0  0  0  0  0  0  0  0  0
   -4.5946   12.2988   -6.9068 C   0  0  0  0  0  0  0  0  0  0  0  0
   -3.4432   11.5806   -7.2147 C   0  0  0  0  0  0  0  0  0  0  0  0
   -3.5570   10.3109   -7.7899 C   0  0  0  0  0  0  0  0  0  0  0  0
   -4.8253    9.7663   -8.0483 C   0  0  0  0  0  0  0  0  0  0  0  0
   -2.0926   12.1556   -6.9444 C   0  0  0  0  0  0  0  0  0  0  0  0
   -1.7338   13.4204   -6.4594 C   0  0  0  0  0  0  0  0  0  0  0  0
   -0.4064   13.4584   -6.4114 N   0  0  0  0  0  0  0  0  0  0  0  0
    0.1793   12.3493   -6.7865 N   0  0  0  0  0  0  0  0  0  0  0  0
   -0.7954   11.5387   -7.1512 C   0  0  0  0  0  0  0  0  0  0  0  0
    0.4205   14.5767   -6.0073 C   0  0  0  0  0  0  0  0  0  0  0  0
   -4.6894   13.8945  -11.1046 C   0  0  0  0  0  0  0  0  0  0  0  0
   -3.7822   15.1171  -11.3990 C   0  0  0  0  0  0  0  0  0  0  0  0
   -2.3310   14.9579  -11.2532 N   0  0  0  0  0  0  0  0  0  0  0  0
   -1.8099   14.4326  -10.1320 C   0  0  0  0  0  0  0  0  0  0  0  0
   -2.5019   14.0442   -9.2076 O   0  0  0  0  0  0  0  0  0  0  0  0
   -0.2869   14.3494  -10.0364 C   0  0  0  0  0  0  0  0  0  0  0  0
   -6.0716   12.2689   -9.8542 H   0  0  0  0  0  0  0  0  0  0  0  0
   -8.1374   10.1224  -13.9131 H   0  0  0  0  0  0  0  0  0  0  0  0
   -6.8466   12.2604  -14.0624 H   0  0  0  0  0  0  0  0  0  0  0  0
   -8.7543   10.5845  -11.5930 H   0  0  0  0  0  0  0  0  0  0  0  0
   -8.0269    9.5780   -7.2478 H   0  0  0  0  0  0  0  0  0  0  0  0
   -5.9820   10.0328   -6.7290 H   0  0  0  0  0  0  0  0  0  0  0  0
   -6.7507   12.3156   -6.9255 H   0  0  0  0  0  0  0  0  0  0  0  0
   -4.5132   13.2816   -6.4664 H   0  0  0  0  0  0  0  0  0  0  0  0
   -3.4540   11.1294   -6.2116 H   0  0  0  0  0  0  0  0  0  0  0  0
   -2.6683    9.7485   -8.0357 H   0  0  0  0  0  0  0  0  0  0  0  0
   -4.9092    8.7863   -8.4943 H   0  0  0  0  0  0  0  0  0  0  0  0
   -2.4090   14.2148   -6.1776 H   0  0  0  0  0  0  0  0  0  0  0  0
   -0.6475   10.5464   -7.5511 H   0  0  0  0  0  0  0  0  0  0  0  0
    1.4812   14.2962   -6.0855 H   0  0  0  0  0  0  0  0  0  0  0  0
    0.2196   15.4369   -6.6628 H   0  0  0  0  0  0  0  0  0  0  0  0
    0.1886   14.8468   -4.9665 H   0  0  0  0  0  0  0  0  0  0  0  0
   -5.2882   14.1185  -10.2095 H   0  0  0  0  0  0  0  0  0  0  0  0
   -4.0431   13.0269  -10.9057 H   0  0  0  0  0  0  0  0  0  0  0  0
   -3.9735   15.4217  -12.4385 H   0  0  0  0  0  0  0  0  0  0  0  0
   -4.0914   15.9235  -10.7178 H   0  0  0  0  0  0  0  0  0  0  0  0
   -1.7243   15.2430  -11.9952 H   0  0  0  0  0  0  0  0  0  0  0  0
   -0.0031   13.9147   -9.0666 H   0  0  0  0  0  0  0  0  0  0  0  0
    0.0973   13.7152  -10.8489 H   0  0  0  0  0  0  0  0  0  0  0  0
    0.1416   15.3586  -10.1252 H   0  0  0  0  0  0  0  0  0  0  0  0
  1  2  1  0  0  0  0
  1  4  1  0  0  0  0
  1 11  2  0  0  0  0
  2  6  2  0  0  0  0
  3  4  2  0  0  0  0
  3  5  1  0  0  0  0
  5  6  1  0  0  0  0
  5  9  1  0  0  0  0
  6  7  1  0  0  0  0
  7  8  1  0  0  0  0
  7 10  2  3  0  0  0
  8  9  2  0  0  0  0
 10 12  1  0  0  0  0
 11 24  1  0  0  0  0
 12 13  1  0  0  0  0
 12 17  1  0  0  0  0
 13 14  2  0  0  0  0
 14 15  1  0  0  0  0
 15 16  1  0  0  0  0
 15 18  1  0  0  0  0
 16 17  2  0  0  0  0
 18 19  2  0  0  0  0
 18 22  1  0  0  0  0
 19 20  1  0  0  0  0
 20 21  1  0  0  0  0
 20 23  1  0  0  0  0
 21 22  2  0  0  0  0
 24 25  1  0  0  0  0
 25 26  1  0  0  0  0
 26 27  1  0  0  0  0
 27 28  2  0  0  0  0
 27 29  1  0  0  0  0
  2 30  1  0  0  0  0
  3 31  1  0  0  0  0
  4 32  1  0  0  0  0
  5 33  1  0  0  0  0
 10 34  1  0  0  0  0
 12 35  1  0  0  0  0
 13 36  1  0  0  0  0
 14 37  1  0  0  0  0
 15 38  1  0  0  0  0
 16 39  1  0  0  0  0
 17 40  1  0  0  0  0
 19 41  1  0  0  0  0
 22 42  1  0  0  0  0
 23 43  1  0  0  0  0
 23 44  1  0  0  0  0
 23 45  1  0  0  0  0
 24 46  1  0  0  0  0
 24 47  1  0  0  0  0
 25 48  1  0  0  0  0
 25 49  1  0  0  0  0
 26 50  1  0  0  0  0
 29 51  1  0  0  0  0
 29 52  1  0  0  0  0
 29 53  1  0  0  0  0
M  END
> <Name>
27

> <IC50[uM]>
0.68

$$$$
27
  -OEChem-05192314333D
 Structure written by MMmdl.
 53 56  0     1  0  0  0  0  0999 V2000
   -6.3855   12.3606  -12.0031 C   0  0  0  0  0  0  0  0  0  0  0  0
   -6.5214   11.8004  -10.7171 C   0  0  0  0  0  0  0  0  0  0  0  0
   -7.6991   10.5797  -13.0384 C   0  0  0  0  0  0  0  0  0  0  0  0
   -6.9626   11.7779  -13.1031 C   0  0  0  0  0  0  0  0  0  0  0  0
   -7.8238   10.0198  -11.7523 C   0  0  3  0  0  0  0  0  0  0  0  0
   -7.2557   10.6213  -10.5956 C   0  0  0  0  0  0  0  0  0  0  0  0
   -7.6268    9.7501   -9.5073 C   0  0  3  0  0  0  0  0  0  0  0  0
   -8.3057    8.7491   -9.9816 N   0  0  0  0  0  0  0  0  0  0  0  0
   -8.4330    8.8776  -11.2917 N   0  0  0  0  0  0  0  0  0  0  0  0
   -7.3352    9.8817   -8.0196 C   0  0  0  0  0  0  0  0  0  0  0  0
   -5.6205   13.5372  -12.2095 N   0  0  0  0  0  0  0  0  0  0  0  0
   -5.9727   10.4835   -7.7324 C   0  0  0  0  0  0  0  0  0  0  0  0
   -5.8611   11.7523   -7.1657 C   0  0  0  0  0  0  0  0  0  0  0  0
   -4.5946   12.2988   -6.9068 C   0  0  0  0  0  0  0  0  0  0  0  0
   -3.4432   11.5806   -7.2147 C   0  0  0  0  0  0  0  0  0  0  0  0
   -3.5570   10.3109   -7.7899 C   0  0  0  0  0  0  0  0  0  0  0  0
   -4.8253    9.7663   -8.0483 C   0  0  0  0  0  0  0  0  0  0  0  0
   -2.0926   12.1556   -6.9444 C   0  0  0  0  0  0  0  0  0  0  0  0
   -1.7338   13.4204   -6.4594 C   0  0  0  0  0  0  0  0  0  0  0  0
   -0.4064   13.4584   -6.4114 N   0  0  0  0  0  0  0  0  0  0  0  0
    0.1793   12.3493   -6.7865 N   0  0  0  0  0  0  0  0  0  0  0  0
   -0.7954   11.5387   -7.1512 C   0  0  0  0  0  0  0  0  0  0  0  0
    0.4205   14.5767   -6.0073 C   0  0  0  0  0  0  0  0  0  0  0  0
   -4.6894   13.8945  -11.1046 C   0  0  0  0  0  0  0  0  0  0  0  0
   -3.7822   15.1171  -11.3990 C   0  0  0  0  0  0  0  0  0  0  0  0
   -2.3310   14.9579  -11.2532 N   0  0  0  0  0  0  0  0  0  0  0  0
   -1.8099   14.4326  -10.1320 C   0  0  0  0  0  0  0  0  0  0  0  0
   -2.5019   14.0442   -9.2076 O   0  0  0  0  0  0  0  0  0  0  0  0
   -0.2869   14.3494  -10.0364 C   0  0  0  0  0  0  0  0  0  0  0  0
   -6.0716   12.2689   -9.8542 H   0  0  0  0  0  0  0  0  0  0  0  0
   -8.1374   10.1224  -13.9131 H   0  0  0  0  0  0  0  0  0  0  0  0
   -6.8466   12.2604  -14.0624 H   0  0  0  0  0  0  0  0  0  0  0  0
   -8.7543   10.5845  -11.5930 H   0  0  0  0  0  0  0  0  0  0  0  0
   -6.6939    9.1829   -9.6414 H   0  0  0  0  0  0  0  0  0  0  0  0
   -8.0269    9.5780   -7.2478 H   0  0  0  0  0  0  0  0  0  0  0  0
   -6.7507   12.3156   -6.9255 H   0  0  0  0  0  0  0  0  0  0  0  0
   -4.5132   13.2816   -6.4664 H   0  0  0  0  0  0  0  0  0  0  0  0
   -3.4540   11.1294   -6.2116 H   0  0  0  0  0  0  0  0  0  0  0  0
   -2.6683    9.7485   -8.0357 H   0  0  0  0  0  0  0  0  0  0  0  0
   -4.9092    8.7863   -8.4943 H   0  0  0  0  0  0  0  0  0  0  0  0
   -2.4090   14.2148   -6.1776 H   0  0  0  0  0  0  0  0  0  0  0  0
   -0.6475   10.5464   -7.5511 H   0  0  0  0  0  0  0  0  0  0  0  0
    1.4812   14.2962   -6.0855 H   0  0  0  0  0  0  0  0  0  0  0  0
    0.2196   15.4369   -6.6628 H   0  0  0  0  0  0  0  0  0  0  0  0
    0.1886   14.8468   -4.9665 H   0  0  0  0  0  0  0  0  0  0  0  0
   -5.2882   14.1185  -10.2095 H   0  0  0  0  0  0  0  0  0  0  0  0
   -4.0431   13.0269  -10.9057 H   0  0  0  0  0  0  0  0  0  0  0  0
   -3.9735   15.4217  -12.4385 H   0  0  0  0  0  0  0  0  0  0  0  0
   -4.0914   15.9235  -10.7178 H   0  0  0  0  0  0  0  0  0  0  0  0
   -1.7243   15.2430  -11.9952 H   0  0  0  0  0  0  0  0  0  0  0  0
   -0.0031   13.9147   -9.0666 H   0  0  0  0  0  0  0  0  0  0  0  0
    0.0973   13.7152  -10.8489 H   0  0  0  0  0  0  0  0  0  0  0  0
    0.1416   15.3586  -10.1252 H   0  0  0  0  0  0  0  0  0  0  0  0
  1  2  1  0  0  0  0
  1  4  1  0  0  0  0
  1 11  2  0  0  0  0
  2  6  2  0  0  0  0
  3  4  2  0  0  0  0
  3  5  1  0  0  0  0
  5  6  1  0  0  0  0
  5  9  1  0  0  0  0
  6  7  1  0  0  0  0
  7  8  1  0  0  0  0
  7 10  1  0  0  0  0
  8  9  2  0  0  0  0
 10 12  2  0  0  0  0
 11 24  1  0  0  0  0
 12 13  1  0  0  0  0
 12 17  1  0  0  0  0
 13 14  2  0  0  0  0
 14 15  1  0  0  0  0
 15 16  1  0  0  0  0
 15 18  1  0  0  0  0
 16 17  2  0  0  0  0
 18 19  2  0  0  0  0
 18 22  1  0  0  0  0
 19 20  1  0  0  0  0
 20 21  1  0  0  0  0
 20 23  1  0  0  0  0
 21 22  2  0  0  0  0
 24 25  1  0  0  0  0
 25 26  1  0  0  0  0
 26 27  1  0  0  0  0
 27 28  2  0  0  0  0
 27 29  1  0  0  0  0
  2 30  1  0  0  0  0
  3 31  1  0  0  0  0
  4 32  1  0  0  0  0
  5 33  1  0  0  0  0
  7 34  1  0  0  0  0
 10 35  1  0  0  0  0
 13 36  1  0  0  0  0
 14 37  1  0  0  0  0
 15 38  1  0  0  0  0
 16 39  1  0  0  0  0
 17 40  1  0  0  0  0
 19 41  1  0  0  0  0
 22 42  1  0  0  0  0
 23 43  1  0  0  0  0
 23 44  1  0  0  0  0
 23 45  1  0  0  0  0
 24 46  1  0  0  0  0
 24 47  1  0  0  0  0
 25 48  1  0  0  0  0
 25 49  1  0  0  0  0
 26 50  1  0  0  0  0
 29 51  1  0  0  0  0
 29 52  1  0  0  0  0
 29 53  1  0  0  0  0
M  END
> <Name>
27

> <IC50[uM]>
0.68

$$$$
27
  -OEChem-05192314333D
 Structure written by MMmdl.
 53 56  0     0  0  0  0  0  0999 V2000
   -6.3855   12.3606  -12.0031 C   0  0  0  0  0  0  0  0  0  0  0  0
   -6.5214   11.8004  -10.7171 C   0  0  0  0  0  0  0  0  0  0  0  0
   -7.6991   10.5797  -13.0384 C   0  0  0  0  0  0  0  0  0  0  0  0
   -6.9626   11.7779  -13.1031 C   0  0  0  0  0  0  0  0  0  0  0  0
   -7.8238   10.0198  -11.7523 C   0  0  0  0  0  0  0  0  0  0  0  0
   -7.2557   10.6213  -10.5956 C   0  0  0  0  0  0  0  0  0  0  0  0
   -7.6268    9.7501   -9.5073 C   0  0  0  0  0  0  0  0  0  0  0  0
   -8.3057    8.7491   -9.9816 N   0  0  0  0  0  0  0  0  0  0  0  0
   -8.4330    8.8776  -11.2917 N   0  0  0  0  0  0  0  0  0  0  0  0
   -7.3352    9.8817   -8.0196 C   0  0  0  0  0  0  0  0  0  0  0  0
   -5.6205   13.5372  -12.2095 N   0  0  0  0  0  0  0  0  0  0  0  0
   -5.9727   10.4835   -7.7324 C   0  0  0  0  0  0  0  0  0  0  0  0
   -5.8611   11.7523   -7.1657 C   0  0  0  0  0  0  0  0  0  0  0  0
   -4.5946   12.2988   -6.9068 C   0  0  0  0  0  0  0  0  0  0  0  0
   -3.4432   11.5806   -7.2147 C   0  0  0  0  0  0  0  0  0  0  0  0
   -3.5570   10.3109   -7.7899 C   0  0  0  0  0  0  0  0  0  0  0  0
   -4.8253    9.7663   -8.0483 C   0  0  0  0  0  0  0  0  0  0  0  0
   -2.0926   12.1556   -6.9444 C   0  0  0  0  0  0  0  0  0  0  0  0
   -1.7338   13.4204   -6.4594 C   0  0  0  0  0  0  0  0  0  0  0  0
   -0.4064   13.4584   -6.4114 N   0  0  0  0  0  0  0  0  0  0  0  0
    0.1793   12.3493   -6.7865 N   0  0  0  0  0  0  0  0  0  0  0  0
   -0.7954   11.5387   -7.1512 C   0  0  0  0  0  0  0  0  0  0  0  0
    0.4205   14.5767   -6.0073 C   0  0  0  0  0  0  0  0  0  0  0  0
   -4.6894   13.8945  -11.1046 C   0  0  0  0  0  0  0  0  0  0  0  0
   -3.7822   15.1171  -11.3990 C   0  0  0  0  0  0  0  0  0  0  0  0
   -2.3310   14.9579  -11.2532 N   0  0  0  0  0  0  0  0  0  0  0  0
   -1.8099   14.4326  -10.1320 C   0  0  0  0  0  0  0  0  0  0  0  0
   -2.5019   14.0442   -9.2076 O   0  0  0  0  0  0  0  0  0  0  0  0
   -0.2869   14.3494  -10.0364 C   0  0  0  0  0  0  0  0  0  0  0  0
   -6.0716   12.2689   -9.8542 H   0  0  0  0  0  0  0  0  0  0  0  0
   -8.1374   10.1224  -13.9131 H   0  0  0  0  0  0  0  0  0  0  0  0
   -7.6459   12.5314  -13.5218 H   0  0  0  0  0  0  0  0  0  0  0  0
   -6.1429   11.5918  -13.8126 H   0  0  0  0  0  0  0  0  0  0  0  0
   -8.0269    9.5780   -7.2478 H   0  0  0  0  0  0  0  0  0  0  0  0
   -5.9820   10.0328   -6.7290 H   0  0  0  0  0  0  0  0  0  0  0  0
   -6.7507   12.3156   -6.9255 H   0  0  0  0  0  0  0  0  0  0  0  0
   -4.5132   13.2816   -6.4664 H   0  0  0  0  0  0  0  0  0  0  0  0
   -3.4540   11.1294   -6.2116 H   0  0  0  0  0  0  0  0  0  0  0  0
   -2.6683    9.7485   -8.0357 H   0  0  0  0  0  0  0  0  0  0  0  0
   -4.9092    8.7863   -8.4943 H   0  0  0  0  0  0  0  0  0  0  0  0
   -2.4090   14.2148   -6.1776 H   0  0  0  0  0  0  0  0  0  0  0  0
   -0.6475   10.5464   -7.5511 H   0  0  0  0  0  0  0  0  0  0  0  0
    1.4812   14.2962   -6.0855 H   0  0  0  0  0  0  0  0  0  0  0  0
    0.2196   15.4369   -6.6628 H   0  0  0  0  0  0  0  0  0  0  0  0
    0.1886   14.8468   -4.9665 H   0  0  0  0  0  0  0  0  0  0  0  0
   -5.2882   14.1185  -10.2095 H   0  0  0  0  0  0  0  0  0  0  0  0
   -4.0431   13.0269  -10.9057 H   0  0  0  0  0  0  0  0  0  0  0  0
   -3.9735   15.4217  -12.4385 H   0  0  0  0  0  0  0  0  0  0  0  0
   -4.0914   15.9235  -10.7178 H   0  0  0  0  0  0  0  0  0  0  0  0
   -1.7243   15.2430  -11.9952 H   0  0  0  0  0  0  0  0  0  0  0  0
   -0.0031   13.9147   -9.0666 H   0  0  0  0  0  0  0  0  0  0  0  0
    0.0973   13.7152  -10.8489 H   0  0  0  0  0  0  0  0  0  0  0  0
    0.1416   15.3586  -10.1252 H   0  0  0  0  0  0  0  0  0  0  0  0
  1  2  1  0  0  0  0
  1  4  1  0  0  0  0
  1 11  2  0  0  0  0
  2  6  2  0  0  0  0
  3  4  1  0  0  0  0
  3  5  2  0  0  0  0
  5  6  1  0  0  0  0
  5  9  1  0  0  0  0
  6  7  1  0  0  0  0
  7  8  1  0  0  0  0
  7 10  2  3  0  0  0
  8  9  2  0  0  0  0
 10 12  1  0  0  0  0
 11 24  1  0  0  0  0
 12 13  1  0  0  0  0
 12 17  1  0  0  0  0
 13 14  2  0  0  0  0
 14 15  1  0  0  0  0
 15 16  1  0  0  0  0
 15 18  1  0  0  0  0
 16 17  2  0  0  0  0
 18 19  2  0  0  0  0
 18 22  1  0  0  0  0
 19 20  1  0  0  0  0
 20 21  1  0  0  0  0
 20 23  1  0  0  0  0
 21 22  2  0  0  0  0
 24 25  1  0  0  0  0
 25 26  1  0  0  0  0
 26 27  1  0  0  0  0
 27 28  2  0  0  0  0
 27 29  1  0  0  0  0
  2 30  1  0  0  0  0
  3 31  1  0  0  0  0
  4 32  1  0  0  0  0
  4 33  1  0  0  0  0
 10 34  1  0  0  0  0
 12 35  1  0  0  0  0
 13 36  1  0  0  0  0
 14 37  1  0  0  0  0
 15 38  1  0  0  0  0
 16 39  1  0  0  0  0
 17 40  1  0  0  0  0
 19 41  1  0  0  0  0
 22 42  1  0  0  0  0
 23 43  1  0  0  0  0
 23 44  1  0  0  0  0
 23 45  1  0  0  0  0
 24 46  1  0  0  0  0
 24 47  1  0  0  0  0
 25 48  1  0  0  0  0
 25 49  1  0  0  0  0
 26 50  1  0  0  0  0
 29 51  1  0  0  0  0
 29 52  1  0  0  0  0
 29 53  1  0  0  0  0
M  END
> <Name>
27

> <IC50[uM]>
0.68

$$$$
27
  -OEChem-05192314333D
 Structure written by MMmdl.
 53 56  0     1  0  0  0  0  0999 V2000
   -6.3855   12.3606  -12.0031 C   0  0  0  0  0  0  0  0  0  0  0  0
   -6.5214   11.8004  -10.7171 C   0  0  0  0  0  0  0  0  0  0  0  0
   -7.6991   10.5797  -13.0384 C   0  0  0  0  0  0  0  0  0  0  0  0
   -6.9626   11.7779  -13.1031 C   0  0  0  0  0  0  0  0  0  0  0  0
   -7.8238   10.0198  -11.7523 C   0  0  0  0  0  0  0  0  0  0  0  0
   -7.2557   10.6213  -10.5956 C   0  0  0  0  0  0  0  0  0  0  0  0
   -7.6268    9.7501   -9.5073 C   0  0  3  0  0  0  0  0  0  0  0  0
   -8.3057    8.7491   -9.9816 N   0  0  0  0  0  0  0  0  0  0  0  0
   -8.4330    8.8776  -11.2917 N   0  0  0  0  0  0  0  0  0  0  0  0
   -7.3352    9.8817   -8.0196 C   0  0  0  0  0  0  0  0  0  0  0  0
   -5.6205   13.5372  -12.2095 N   0  0  0  0  0  0  0  0  0  0  0  0
   -5.9727   10.4835   -7.7324 C   0  0  0  0  0  0  0  0  0  0  0  0
   -5.8611   11.7523   -7.1657 C   0  0  0  0  0  0  0  0  0  0  0  0
   -4.5946   12.2988   -6.9068 C   0  0  0  0  0  0  0  0  0  0  0  0
   -3.4432   11.5806   -7.2147 C   0  0  0  0  0  0  0  0  0  0  0  0
   -3.5570   10.3109   -7.7899 C   0  0  0  0  0  0  0  0  0  0  0  0
   -4.8253    9.7663   -8.0483 C   0  0  0  0  0  0  0  0  0  0  0  0
   -2.0926   12.1556   -6.9444 C   0  0  0  0  0  0  0  0  0  0  0  0
   -1.7338   13.4204   -6.4594 C   0  0  0  0  0  0  0  0  0  0  0  0
   -0.4064   13.4584   -6.4114 N   0  0  0  0  0  0  0  0  0  0  0  0
    0.1793   12.3493   -6.7865 N   0  0  0  0  0  0  0  0  0  0  0  0
   -0.7954   11.5387   -7.1512 C   0  0  0  0  0  0  0  0  0  0  0  0
    0.4205   14.5767   -6.0073 C   0  0  0  0  0  0  0  0  0  0  0  0
   -4.6894   13.8945  -11.1046 C   0  0  0  0  0  0  0  0  0  0  0  0
   -3.7822   15.1171  -11.3990 C   0  0  0  0  0  0  0  0  0  0  0  0
   -2.3310   14.9579  -11.2532 N   0  0  0  0  0  0  0  0  0  0  0  0
   -1.8099   14.4326  -10.1320 C   0  0  0  0  0  0  0  0  0  0  0  0
   -2.5019   14.0442   -9.2076 O   0  0  0  0  0  0  0  0  0  0  0  0
   -0.2869   14.3494  -10.0364 C   0  0  0  0  0  0  0  0  0  0  0  0
   -6.0716   12.2689   -9.8542 H   0  0  0  0  0  0  0  0  0  0  0  0
   -8.1374   10.1224  -13.9131 H   0  0  0  0  0  0  0  0  0  0  0  0
   -7.6459   12.5314  -13.5218 H   0  0  0  0  0  0  0  0  0  0  0  0
   -6.1429   11.5918  -13.8126 H   0  0  0  0  0  0  0  0  0  0  0  0
   -6.6939    9.1829   -9.6414 H   0  0  0  0  0  0  0  0  0  0  0  0
   -8.0269    9.5780   -7.2478 H   0  0  0  0  0  0  0  0  0  0  0  0
   -6.7507   12.3156   -6.9255 H   0  0  0  0  0  0  0  0  0  0  0  0
   -4.5132   13.2816   -6.4664 H   0  0  0  0  0  0  0  0  0  0  0  0
   -3.4540   11.1294   -6.2116 H   0  0  0  0  0  0  0  0  0  0  0  0
   -2.6683    9.7485   -8.0357 H   0  0  0  0  0  0  0  0  0  0  0  0
   -4.9092    8.7863   -8.4943 H   0  0  0  0  0  0  0  0  0  0  0  0
   -2.4090   14.2148   -6.1776 H   0  0  0  0  0  0  0  0  0  0  0  0
   -0.6475   10.5464   -7.5511 H   0  0  0  0  0  0  0  0  0  0  0  0
    1.4812   14.2962   -6.0855 H   0  0  0  0  0  0  0  0  0  0  0  0
    0.2196   15.4369   -6.6628 H   0  0  0  0  0  0  0  0  0  0  0  0
    0.1886   14.8468   -4.9665 H   0  0  0  0  0  0  0  0  0  0  0  0
   -5.2882   14.1185  -10.2095 H   0  0  0  0  0  0  0  0  0  0  0  0
   -4.0431   13.0269  -10.9057 H   0  0  0  0  0  0  0  0  0  0  0  0
   -3.9735   15.4217  -12.4385 H   0  0  0  0  0  0  0  0  0  0  0  0
   -4.0914   15.9235  -10.7178 H   0  0  0  0  0  0  0  0  0  0  0  0
   -1.7243   15.2430  -11.9952 H   0  0  0  0  0  0  0  0  0  0  0  0
   -0.0031   13.9147   -9.0666 H   0  0  0  0  0  0  0  0  0  0  0  0
    0.0973   13.7152  -10.8489 H   0  0  0  0  0  0  0  0  0  0  0  0
    0.1416   15.3586  -10.1252 H   0  0  0  0  0  0  0  0  0  0  0  0
  1  2  1  0  0  0  0
  1  4  1  0  0  0  0
  1 11  2  0  0  0  0
  2  6  2  0  0  0  0
  3  4  1  0  0  0  0
  3  5  2  0  0  0  0
  5  6  1  0  0  0  0
  5  9  1  0  0  0  0
  6  7  1  0  0  0  0
  7  8  1  0  0  0  0
  7 10  1  0  0  0  0
  8  9  2  0  0  0  0
 10 12  2  0  0  0  0
 11 24  1  0  0  0  0
 12 13  1  0  0  0  0
 12 17  1  0  0  0  0
 13 14  2  0  0  0  0
 14 15  1  0  0  0  0
 15 16  1  0  0  0  0
 15 18  1  0  0  0  0
 16 17  2  0  0  0  0
 18 19  2  0  0  0  0
 18 22  1  0  0  0  0
 19 20  1  0  0  0  0
 20 21  1  0  0  0  0
 20 23  1  0  0  0  0
 21 22  2  0  0  0  0
 24 25  1  0  0  0  0
 25 26  1  0  0  0  0
 26 27  1  0  0  0  0
 27 28  2  0  0  0  0
 27 29  1  0  0  0  0
  2 30  1  0  0  0  0
  3 31  1  0  0  0  0
  4 32  1  0  0  0  0
  4 33  1  0  0  0  0
  7 34  1  0  0  0  0
 10 35  1  0  0  0  0
 13 36  1  0  0  0  0
 14 37  1  0  0  0  0
 15 38  1  0  0  0  0
 16 39  1  0  0  0  0
 17 40  1  0  0  0  0
 19 41  1  0  0  0  0
 22 42  1  0  0  0  0
 23 43  1  0  0  0  0
 23 44  1  0  0  0  0
 23 45  1  0  0  0  0
 24 46  1  0  0  0  0
 24 47  1  0  0  0  0
 25 48  1  0  0  0  0
 25 49  1  0  0  0  0
 26 50  1  0  0  0  0
 29 51  1  0  0  0  0
 29 52  1  0  0  0  0
 29 53  1  0  0  0  0
M  END
> <Name>
27

> <IC50[uM]>
0.68

$$$$
27
  -OEChem-05192314333D
 Structure written by MMmdl.
 53 56  0     1  0  0  0  0  0999 V2000
   -6.3855   12.3606  -12.0031 C   0  0  0  0  0  0  0  0  0  0  0  0
   -6.5214   11.8004  -10.7171 C   0  0  0  0  0  0  0  0  0  0  0  0
   -7.6991   10.5797  -13.0384 C   0  0  0  0  0  0  0  0  0  0  0  0
   -6.9626   11.7779  -13.1031 C   0  0  0  0  0  0  0  0  0  0  0  0
   -7.8238   10.0198  -11.7523 C   0  0  3  0  0  0  0  0  0  0  0  0
   -7.2557   10.6213  -10.5956 C   0  0  0  0  0  0  0  0  0  0  0  0
   -7.6268    9.7501   -9.5073 C   0  0  0  0  0  0  0  0  0  0  0  0
   -8.3057    8.7491   -9.9816 N   0  0  0  0  0  0  0  0  0  0  0  0
   -8.4330    8.8776  -11.2917 N   0  0  0  0  0  0  0  0  0  0  0  0
   -7.3352    9.8817   -8.0196 C   0  0  0  0  0  0  0  0  0  0  0  0
   -5.6205   13.5372  -12.2095 N   0  0  0  0  0  0  0  0  0  0  0  0
   -5.9727   10.4835   -7.7324 C   0  0  0  0  0  0  0  0  0  0  0  0
   -5.8611   11.7523   -7.1657 C   0  0  0  0  0  0  0  0  0  0  0  0
   -4.5946   12.2988   -6.9068 C   0  0  0  0  0  0  0  0  0  0  0  0
   -3.4432   11.5806   -7.2147 C   0  0  3  0  0  0  0  0  0  0  0  0
   -3.5570   10.3109   -7.7899 C   0  0  0  0  0  0  0  0  0  0  0  0
   -4.8253    9.7663   -8.0483 C   0  0  0  0  0  0  0  0  0  0  0  0
   -2.0926   12.1556   -6.9444 C   0  0  0  0  0  0  0  0  0  0  0  0
   -1.7338   13.4204   -6.4594 C   0  0  0  0  0  0  0  0  0  0  0  0
   -0.4064   13.4584   -6.4114 N   0  0  0  0  0  0  0  0  0  0  0  0
    0.1793   12.3493   -6.7865 N   0  0  0  0  0  0  0  0  0  0  0  0
   -0.7954   11.5387   -7.1512 C   0  0  0  0  0  0  0  0  0  0  0  0
    0.4205   14.5767   -6.0073 C   0  0  0  0  0  0  0  0  0  0  0  0
   -4.6894   13.8945  -11.1046 C   0  0  0  0  0  0  0  0  0  0  0  0
   -3.7822   15.1171  -11.3990 C   0  0  0  0  0  0  0  0  0  0  0  0
   -2.3310   14.9579  -11.2532 N   0  0  0  0  0  0  0  0  0  0  0  0
   -1.8099   14.4326  -10.1320 C   0  0  0  0  0  0  0  0  0  0  0  0
   -2.5019   14.0442   -9.2076 O   0  0  0  0  0  0  0  0  0  0  0  0
   -0.2869   14.3494  -10.0364 C   0  0  0  0  0  0  0  0  0  0  0  0
   -6.0716   12.2689   -9.8542 H   0  0  0  0  0  0  0  0  0  0  0  0
   -8.1374   10.1224  -13.9131 H   0  0  0  0  0  0  0  0  0  0  0  0
   -6.8466   12.2604  -14.0624 H   0  0  0  0  0  0  0  0  0  0  0  0
   -8.7543   10.5845  -11.5930 H   0  0  0  0  0  0  0  0  0  0  0  0
   -8.0269    9.5780   -7.2478 H   0  0  0  0  0  0  0  0  0  0  0  0
   -6.7507   12.3156   -6.9255 H   0  0  0  0  0  0  0  0  0  0  0  0
   -4.5373   13.2433   -7.4677 H   0  0  0  0  0  0  0  0  0  0  0  0
   -4.5562   12.5101   -5.8280 H   0  0  0  0  0  0  0  0  0  0  0  0
   -3.4540   11.1294   -6.2116 H   0  0  0  0  0  0  0  0  0  0  0  0
   -2.6683    9.7485   -8.0357 H   0  0  0  0  0  0  0  0  0  0  0  0
   -4.9092    8.7863   -8.4943 H   0  0  0  0  0  0  0  0  0  0  0  0
   -2.4090   14.2148   -6.1776 H   0  0  0  0  0  0  0  0  0  0  0  0
   -0.6475   10.5464   -7.5511 H   0  0  0  0  0  0  0  0  0  0  0  0
    1.4812   14.2962   -6.0855 H   0  0  0  0  0  0  0  0  0  0  0  0
    0.2196   15.4369   -6.6628 H   0  0  0  0  0  0  0  0  0  0  0  0
    0.1886   14.8468   -4.9665 H   0  0  0  0  0  0  0  0  0  0  0  0
   -5.2882   14.1185  -10.2095 H   0  0  0  0  0  0  0  0  0  0  0  0
   -4.0431   13.0269  -10.9057 H   0  0  0  0  0  0  0  0  0  0  0  0
   -3.9735   15.4217  -12.4385 H   0  0  0  0  0  0  0  0  0  0  0  0
   -4.0914   15.9235  -10.7178 H   0  0  0  0  0  0  0  0  0  0  0  0
   -1.7243   15.2430  -11.9952 H   0  0  0  0  0  0  0  0  0  0  0  0
   -0.0031   13.9147   -9.0666 H   0  0  0  0  0  0  0  0  0  0  0  0
    0.0973   13.7152  -10.8489 H   0  0  0  0  0  0  0  0  0  0  0  0
    0.1416   15.3586  -10.1252 H   0  0  0  0  0  0  0  0  0  0  0  0
  1  2  1  0  0  0  0
  1  4  1  0  0  0  0
  1 11  2  0  0  0  0
  2  6  2  0  0  0  0
  3  4  2  0  0  0  0
  3  5  1  0  0  0  0
  5  6  1  0  0  0  0
  5  9  1  0  0  0  0
  6  7  1  0  0  0  0
  7  8  1  0  0  0  0
  7 10  2  3  0  0  0
  8  9  2  0  0  0  0
 10 12  1  0  0  0  0
 11 24  1  0  0  0  0
 12 13  2  0  0  0  0
 12 17  1  0  0  0  0
 13 14  1  0  0  0  0
 14 15  1  0  0  0  0
 15 16  1  0  0  0  0
 15 18  1  0  0  0  0
 16 17  2  0  0  0  0
 18 19  2  0  0  0  0
 18 22  1  0  0  0  0
 19 20  1  0  0  0  0
 20 21  1  0  0  0  0
 20 23  1  0  0  0  0
 21 22  2  0  0  0  0
 24 25  1  0  0  0  0
 25 26  1  0  0  0  0
 26 27  1  0  0  0  0
 27 28  2  0  0  0  0
 27 29  1  0  0  0  0
  2 30  1  0  0  0  0
  3 31  1  0  0  0  0
  4 32  1  0  0  0  0
  5 33  1  0  0  0  0
 10 34  1  0  0  0  0
 13 35  1  0  0  0  0
 14 36  1  0  0  0  0
 14 37  1  0  0  0  0
 15 38  1  0  0  0  0
 16 39  1  0  0  0  0
 17 40  1  0  0  0  0
 19 41  1  0  0  0  0
 22 42  1  0  0  0  0
 23 43  1  0  0  0  0
 23 44  1  0  0  0  0
 23 45  1  0  0  0  0
 24 46  1  0  0  0  0
 24 47  1  0  0  0  0
 25 48  1  0  0  0  0
 25 49  1  0  0  0  0
 26 50  1  0  0  0  0
 29 51  1  0  0  0  0
 29 52  1  0  0  0  0
 29 53  1  0  0  0  0
M  END
> <Name>
27

> <IC50[uM]>
0.68

$$$$
27
  -OEChem-05192314333D
 Structure written by MMmdl.
 53 56  0     1  0  0  0  0  0999 V2000
   -6.3855   12.3606  -12.0031 C   0  0  0  0  0  0  0  0  0  0  0  0
   -6.5214   11.8004  -10.7171 C   0  0  0  0  0  0  0  0  0  0  0  0
   -7.6991   10.5797  -13.0384 C   0  0  0  0  0  0  0  0  0  0  0  0
   -6.9626   11.7779  -13.1031 C   0  0  0  0  0  0  0  0  0  0  0  0
   -7.8238   10.0198  -11.7523 C   0  0  0  0  0  0  0  0  0  0  0  0
   -7.2557   10.6213  -10.5956 C   0  0  0  0  0  0  0  0  0  0  0  0
   -7.6268    9.7501   -9.5073 C   0  0  0  0  0  0  0  0  0  0  0  0
   -8.3057    8.7491   -9.9816 N   0  0  0  0  0  0  0  0  0  0  0  0
   -8.4330    8.8776  -11.2917 N   0  0  0  0  0  0  0  0  0  0  0  0
   -7.3352    9.8817   -8.0196 C   0  0  0  0  0  0  0  0  0  0  0  0
   -5.6205   13.5372  -12.2095 N   0  0  0  0  0  0  0  0  0  0  0  0
   -5.9727   10.4835   -7.7324 C   0  0  0  0  0  0  0  0  0  0  0  0
   -5.8611   11.7523   -7.1657 C   0  0  0  0  0  0  0  0  0  0  0  0
   -4.5946   12.2988   -6.9068 C   0  0  0  0  0  0  0  0  0  0  0  0
   -3.4432   11.5806   -7.2147 C   0  0  3  0  0  0  0  0  0  0  0  0
   -3.5570   10.3109   -7.7899 C   0  0  0  0  0  0  0  0  0  0  0  0
   -4.8253    9.7663   -8.0483 C   0  0  0  0  0  0  0  0  0  0  0  0
   -2.0926   12.1556   -6.9444 C   0  0  0  0  0  0  0  0  0  0  0  0
   -1.7338   13.4204   -6.4594 C   0  0  0  0  0  0  0  0  0  0  0  0
   -0.4064   13.4584   -6.4114 N   0  0  0  0  0  0  0  0  0  0  0  0
    0.1793   12.3493   -6.7865 N   0  0  0  0  0  0  0  0  0  0  0  0
   -0.7954   11.5387   -7.1512 C   0  0  0  0  0  0  0  0  0  0  0  0
    0.4205   14.5767   -6.0073 C   0  0  0  0  0  0  0  0  0  0  0  0
   -4.6894   13.8945  -11.1046 C   0  0  0  0  0  0  0  0  0  0  0  0
   -3.7822   15.1171  -11.3990 C   0  0  0  0  0  0  0  0  0  0  0  0
   -2.3310   14.9579  -11.2532 N   0  0  0  0  0  0  0  0  0  0  0  0
   -1.8099   14.4326  -10.1320 C   0  0  0  0  0  0  0  0  0  0  0  0
   -2.5019   14.0442   -9.2076 O   0  0  0  0  0  0  0  0  0  0  0  0
   -0.2869   14.3494  -10.0364 C   0  0  0  0  0  0  0  0  0  0  0  0
   -6.0716   12.2689   -9.8542 H   0  0  0  0  0  0  0  0  0  0  0  0
   -8.1374   10.1224  -13.9131 H   0  0  0  0  0  0  0  0  0  0  0  0
   -7.6459   12.5314  -13.5218 H   0  0  0  0  0  0  0  0  0  0  0  0
   -6.1429   11.5918  -13.8126 H   0  0  0  0  0  0  0  0  0  0  0  0
   -8.0269    9.5780   -7.2478 H   0  0  0  0  0  0  0  0  0  0  0  0
   -6.7507   12.3156   -6.9255 H   0  0  0  0  0  0  0  0  0  0  0  0
   -4.5373   13.2433   -7.4677 H   0  0  0  0  0  0  0  0  0  0  0  0
   -4.5562   12.5101   -5.8280 H   0  0  0  0  0  0  0  0  0  0  0  0
   -3.4540   11.1294   -6.2116 H   0  0  0  0  0  0  0  0  0  0  0  0
   -2.6683    9.7485   -8.0357 H   0  0  0  0  0  0  0  0  0  0  0  0
   -4.9092    8.7863   -8.4943 H   0  0  0  0  0  0  0  0  0  0  0  0
   -2.4090   14.2148   -6.1776 H   0  0  0  0  0  0  0  0  0  0  0  0
   -0.6475   10.5464   -7.5511 H   0  0  0  0  0  0  0  0  0  0  0  0
    1.4812   14.2962   -6.0855 H   0  0  0  0  0  0  0  0  0  0  0  0
    0.2196   15.4369   -6.6628 H   0  0  0  0  0  0  0  0  0  0  0  0
    0.1886   14.8468   -4.9665 H   0  0  0  0  0  0  0  0  0  0  0  0
   -5.2882   14.1185  -10.2095 H   0  0  0  0  0  0  0  0  0  0  0  0
   -4.0431   13.0269  -10.9057 H   0  0  0  0  0  0  0  0  0  0  0  0
   -3.9735   15.4217  -12.4385 H   0  0  0  0  0  0  0  0  0  0  0  0
   -4.0914   15.9235  -10.7178 H   0  0  0  0  0  0  0  0  0  0  0  0
   -1.7243   15.2430  -11.9952 H   0  0  0  0  0  0  0  0  0  0  0  0
   -0.0031   13.9147   -9.0666 H   0  0  0  0  0  0  0  0  0  0  0  0
    0.0973   13.7152  -10.8489 H   0  0  0  0  0  0  0  0  0  0  0  0
    0.1416   15.3586  -10.1252 H   0  0  0  0  0  0  0  0  0  0  0  0
  1  2  1  0  0  0  0
  1  4  1  0  0  0  0
  1 11  2  0  0  0  0
  2  6  2  0  0  0  0
  3  4  1  0  0  0  0
  3  5  2  0  0  0  0
  5  6  1  0  0  0  0
  5  9  1  0  0  0  0
  6  7  1  0  0  0  0
  7  8  1  0  0  0  0
  7 10  2  3  0  0  0
  8  9  2  0  0  0  0
 10 12  1  0  0  0  0
 11 24  1  0  0  0  0
 12 13  2  0  0  0  0
 12 17  1  0  0  0  0
 13 14  1  0  0  0  0
 14 15  1  0  0  0  0
 15 16  1  0  0  0  0
 15 18  1  0  0  0  0
 16 17  2  0  0  0  0
 18 19  2  0  0  0  0
 18 22  1  0  0  0  0
 19 20  1  0  0  0  0
 20 21  1  0  0  0  0
 20 23  1  0  0  0  0
 21 22  2  0  0  0  0
 24 25  1  0  0  0  0
 25 26  1  0  0  0  0
 26 27  1  0  0  0  0
 27 28  2  0  0  0  0
 27 29  1  0  0  0  0
  2 30  1  0  0  0  0
  3 31  1  0  0  0  0
  4 32  1  0  0  0  0
  4 33  1  0  0  0  0
 10 34  1  0  0  0  0
 13 35  1  0  0  0  0
 14 36  1  0  0  0  0
 14 37  1  0  0  0  0
 15 38  1  0  0  0  0
 16 39  1  0  0  0  0
 17 40  1  0  0  0  0
 19 41  1  0  0  0  0
 22 42  1  0  0  0  0
 23 43  1  0  0  0  0
 23 44  1  0  0  0  0
 23 45  1  0  0  0  0
 24 46  1  0  0  0  0
 24 47  1  0  0  0  0
 25 48  1  0  0  0  0
 25 49  1  0  0  0  0
 26 50  1  0  0  0  0
 29 51  1  0  0  0  0
 29 52  1  0  0  0  0
 29 53  1  0  0  0  0
M  END
> <Name>
27

> <IC50[uM]>
0.68

$$$$
27
  -OEChem-05192314333D
 Structure written by MMmdl.
 53 56  0     1  0  0  0  0  0999 V2000
   -6.3855   12.3606  -12.0031 C   0  0  0  0  0  0  0  0  0  0  0  0
   -6.5214   11.8004  -10.7171 C   0  0  0  0  0  0  0  0  0  0  0  0
   -7.6991   10.5797  -13.0384 C   0  0  0  0  0  0  0  0  0  0  0  0
   -6.9626   11.7779  -13.1031 C   0  0  0  0  0  0  0  0  0  0  0  0
   -7.8238   10.0198  -11.7523 C   0  0  3  0  0  0  0  0  0  0  0  0
   -7.2557   10.6213  -10.5956 C   0  0  0  0  0  0  0  0  0  0  0  0
   -7.6268    9.7501   -9.5073 C   0  0  0  0  0  0  0  0  0  0  0  0
   -8.3057    8.7491   -9.9816 N   0  0  0  0  0  0  0  0  0  0  0  0
   -8.4330    8.8776  -11.2917 N   0  0  0  0  0  0  0  0  0  0  0  0
   -7.3352    9.8817   -8.0196 C   0  0  0  0  0  0  0  0  0  0  0  0
   -5.6205   13.5372  -12.2095 N   0  0  0  0  0  0  0  0  0  0  0  0
   -5.9727   10.4835   -7.7324 C   0  0  3  0  0  0  0  0  0  0  0  0
   -5.8611   11.7523   -7.1657 C   0  0  0  0  0  0  0  0  0  0  0  0
   -4.5946   12.2988   -6.9068 C   0  0  0  0  0  0  0  0  0  0  0  0
   -3.4432   11.5806   -7.2147 C   0  0  0  0  0  0  0  0  0  0  0  0
   -3.5570   10.3109   -7.7899 C   0  0  0  0  0  0  0  0  0  0  0  0
   -4.8253    9.7663   -8.0483 C   0  0  0  0  0  0  0  0  0  0  0  0
   -2.0926   12.1556   -6.9444 C   0  0  0  0  0  0  0  0  0  0  0  0
   -1.7338   13.4204   -6.4594 C   0  0  0  0  0  0  0  0  0  0  0  0
   -0.4064   13.4584   -6.4114 N   0  0  0  0  0  0  0  0  0  0  0  0
    0.1793   12.3493   -6.7865 N   0  0  0  0  0  0  0  0  0  0  0  0
   -0.7954   11.5387   -7.1512 C   0  0  0  0  0  0  0  0  0  0  0  0
    0.4205   14.5767   -6.0073 C   0  0  0  0  0  0  0  0  0  0  0  0
   -4.6894   13.8945  -11.1046 C   0  0  0  0  0  0  0  0  0  0  0  0
   -3.7822   15.1171  -11.3990 C   0  0  0  0  0  0  0  0  0  0  0  0
   -2.3310   14.9579  -11.2532 N   0  0  0  0  0  0  0  0  0  0  0  0
   -1.8099   14.4326  -10.1320 C   0  0  0  0  0  0  0  0  0  0  0  0
   -2.5019   14.0442   -9.2076 O   0  0  0  0  0  0  0  0  0  0  0  0
   -0.2869   14.3494  -10.0364 C   0  0  0  0  0  0  0  0  0  0  0  0
   -6.0716   12.2689   -9.8542 H   0  0  0  0  0  0  0  0  0  0  0  0
   -8.1374   10.1224  -13.9131 H   0  0  0  0  0  0  0  0  0  0  0  0
   -6.8466   12.2604  -14.0624 H   0  0  0  0  0  0  0  0  0  0  0  0
   -8.7543   10.5845  -11.5930 H   0  0  0  0  0  0  0  0  0  0  0  0
   -8.0269    9.5780   -7.2478 H   0  0  0  0  0  0  0  0  0  0  0  0
   -5.9820   10.0328   -6.7290 H   0  0  0  0  0  0  0  0  0  0  0  0
   -6.7507   12.3156   -6.9255 H   0  0  0  0  0  0  0  0  0  0  0  0
   -4.5132   13.2816   -6.4664 H   0  0  0  0  0  0  0  0  0  0  0  0
   -2.6683    9.7485   -8.0357 H   0  0  0  0  0  0  0  0  0  0  0  0
   -4.8817    8.8185   -7.4929 H   0  0  0  0  0  0  0  0  0  0  0  0
   -4.8676    9.5615   -9.1282 H   0  0  0  0  0  0  0  0  0  0  0  0
   -2.4090   14.2148   -6.1776 H   0  0  0  0  0  0  0  0  0  0  0  0
   -0.6475   10.5464   -7.5511 H   0  0  0  0  0  0  0  0  0  0  0  0
    1.4812   14.2962   -6.0855 H   0  0  0  0  0  0  0  0  0  0  0  0
    0.2196   15.4369   -6.6628 H   0  0  0  0  0  0  0  0  0  0  0  0
    0.1886   14.8468   -4.9665 H   0  0  0  0  0  0  0  0  0  0  0  0
   -5.2882   14.1185  -10.2095 H   0  0  0  0  0  0  0  0  0  0  0  0
   -4.0431   13.0269  -10.9057 H   0  0  0  0  0  0  0  0  0  0  0  0
   -3.9735   15.4217  -12.4385 H   0  0  0  0  0  0  0  0  0  0  0  0
   -4.0914   15.9235  -10.7178 H   0  0  0  0  0  0  0  0  0  0  0  0
   -1.7243   15.2430  -11.9952 H   0  0  0  0  0  0  0  0  0  0  0  0
   -0.0031   13.9147   -9.0666 H   0  0  0  0  0  0  0  0  0  0  0  0
    0.0973   13.7152  -10.8489 H   0  0  0  0  0  0  0  0  0  0  0  0
    0.1416   15.3586  -10.1252 H   0  0  0  0  0  0  0  0  0  0  0  0
  1  2  1  0  0  0  0
  1  4  1  0  0  0  0
  1 11  2  0  0  0  0
  2  6  2  0  0  0  0
  3  4  2  0  0  0  0
  3  5  1  0  0  0  0
  5  6  1  0  0  0  0
  5  9  1  0  0  0  0
  6  7  1  0  0  0  0
  7  8  1  0  0  0  0
  7 10  2  3  0  0  0
  8  9  2  0  0  0  0
 10 12  1  0  0  0  0
 11 24  1  0  0  0  0
 12 13  1  0  0  0  0
 12 17  1  0  0  0  0
 13 14  2  0  0  0  0
 14 15  1  0  0  0  0
 15 16  2  0  0  0  0
 15 18  1  0  0  0  0
 16 17  1  0  0  0  0
 18 19  2  0  0  0  0
 18 22  1  0  0  0  0
 19 20  1  0  0  0  0
 20 21  1  0  0  0  0
 20 23  1  0  0  0  0
 21 22  2  0  0  0  0
 24 25  1  0  0  0  0
 25 26  1  0  0  0  0
 26 27  1  0  0  0  0
 27 28  2  0  0  0  0
 27 29  1  0  0  0  0
  2 30  1  0  0  0  0
  3 31  1  0  0  0  0
  4 32  1  0  0  0  0
  5 33  1  0  0  0  0
 10 34  1  0  0  0  0
 12 35  1  0  0  0  0
 13 36  1  0  0  0  0
 14 37  1  0  0  0  0
 16 38  1  0  0  0  0
 17 39  1  0  0  0  0
 17 40  1  0  0  0  0
 19 41  1  0  0  0  0
 22 42  1  0  0  0  0
 23 43  1  0  0  0  0
 23 44  1  0  0  0  0
 23 45  1  0  0  0  0
 24 46  1  0  0  0  0
 24 47  1  0  0  0  0
 25 48  1  0  0  0  0
 25 49  1  0  0  0  0
 26 50  1  0  0  0  0
 29 51  1  0  0  0  0
 29 52  1  0  0  0  0
 29 53  1  0  0  0  0
M  END
> <Name>
27

> <IC50[uM]>
0.68

$$$$
27
  -OEChem-05192314333D
 Structure written by MMmdl.
 53 56  0     1  0  0  0  0  0999 V2000
   -6.3855   12.3606  -12.0031 C   0  0  0  0  0  0  0  0  0  0  0  0
   -6.5214   11.8004  -10.7171 C   0  0  0  0  0  0  0  0  0  0  0  0
   -7.6991   10.5797  -13.0384 C   0  0  0  0  0  0  0  0  0  0  0  0
   -6.9626   11.7779  -13.1031 C   0  0  0  0  0  0  0  0  0  0  0  0
   -7.8238   10.0198  -11.7523 C   0  0  3  0  0  0  0  0  0  0  0  0
   -7.2557   10.6213  -10.5956 C   0  0  0  0  0  0  0  0  0  0  0  0
   -7.6268    9.7501   -9.5073 C   0  0  3  0  0  0  0  0  0  0  0  0
   -8.3057    8.7491   -9.9816 N   0  0  0  0  0  0  0  0  0  0  0  0
   -8.4330    8.8776  -11.2917 N   0  0  0  0  0  0  0  0  0  0  0  0
   -7.3352    9.8817   -8.0196 C   0  0  0  0  0  0  0  0  0  0  0  0
   -5.6205   13.5372  -12.2095 N   0  0  0  0  0  0  0  0  0  0  0  0
   -5.9727   10.4835   -7.7324 C   0  0  0  0  0  0  0  0  0  0  0  0
   -5.8611   11.7523   -7.1657 C   0  0  0  0  0  0  0  0  0  0  0  0
   -4.5946   12.2988   -6.9068 C   0  0  0  0  0  0  0  0  0  0  0  0
   -3.4432   11.5806   -7.2147 C   0  0  0  0  0  0  0  0  0  0  0  0
   -3.5570   10.3109   -7.7899 C   0  0  0  0  0  0  0  0  0  0  0  0
   -4.8253    9.7663   -8.0483 C   0  0  0  0  0  0  0  0  0  0  0  0
   -2.0926   12.1556   -6.9444 C   0  0  0  0  0  0  0  0  0  0  0  0
   -1.7338   13.4204   -6.4594 C   0  0  0  0  0  0  0  0  0  0  0  0
   -0.4064   13.4584   -6.4114 N   0  0  0  0  0  0  0  0  0  0  0  0
    0.1793   12.3493   -6.7865 N   0  0  0  0  0  0  0  0  0  0  0  0
   -0.7954   11.5387   -7.1512 C   0  0  0  0  0  0  0  0  0  0  0  0
    0.4205   14.5767   -6.0073 C   0  0  0  0  0  0  0  0  0  0  0  0
   -4.6894   13.8945  -11.1046 C   0  0  0  0  0  0  0  0  0  0  0  0
   -3.7822   15.1171  -11.3990 C   0  0  0  0  0  0  0  0  0  0  0  0
   -2.3310   14.9579  -11.2532 N   0  0  0  0  0  0  0  0  0  0  0  0
   -1.8099   14.4326  -10.1320 C   0  0  0  0  0  0  0  0  0  0  0  0
   -2.5019   14.0442   -9.2076 O   0  0  0  0  0  0  0  0  0  0  0  0
   -0.2869   14.3494  -10.0364 C   0  0  0  0  0  0  0  0  0  0  0  0
   -6.0716   12.2689   -9.8542 H   0  0  0  0  0  0  0  0  0  0  0  0
   -8.1374   10.1224  -13.9131 H   0  0  0  0  0  0  0  0  0  0  0  0
   -6.8466   12.2604  -14.0624 H   0  0  0  0  0  0  0  0  0  0  0  0
   -8.7543   10.5845  -11.5930 H   0  0  0  0  0  0  0  0  0  0  0  0
   -6.6939    9.1829   -9.6414 H   0  0  0  0  0  0  0  0  0  0  0  0
   -8.0269    9.5780   -7.2478 H   0  0  0  0  0  0  0  0  0  0  0  0
   -6.7507   12.3156   -6.9255 H   0  0  0  0  0  0  0  0  0  0  0  0
   -4.5132   13.2816   -6.4664 H   0  0  0  0  0  0  0  0  0  0  0  0
   -2.6683    9.7485   -8.0357 H   0  0  0  0  0  0  0  0  0  0  0  0
   -4.8817    8.8185   -7.4929 H   0  0  0  0  0  0  0  0  0  0  0  0
   -4.8676    9.5615   -9.1282 H   0  0  0  0  0  0  0  0  0  0  0  0
   -2.4090   14.2148   -6.1776 H   0  0  0  0  0  0  0  0  0  0  0  0
   -0.6475   10.5464   -7.5511 H   0  0  0  0  0  0  0  0  0  0  0  0
    1.4812   14.2962   -6.0855 H   0  0  0  0  0  0  0  0  0  0  0  0
    0.2196   15.4369   -6.6628 H   0  0  0  0  0  0  0  0  0  0  0  0
    0.1886   14.8468   -4.9665 H   0  0  0  0  0  0  0  0  0  0  0  0
   -5.2882   14.1185  -10.2095 H   0  0  0  0  0  0  0  0  0  0  0  0
   -4.0431   13.0269  -10.9057 H   0  0  0  0  0  0  0  0  0  0  0  0
   -3.9735   15.4217  -12.4385 H   0  0  0  0  0  0  0  0  0  0  0  0
   -4.0914   15.9235  -10.7178 H   0  0  0  0  0  0  0  0  0  0  0  0
   -1.7243   15.2430  -11.9952 H   0  0  0  0  0  0  0  0  0  0  0  0
   -0.0031   13.9147   -9.0666 H   0  0  0  0  0  0  0  0  0  0  0  0
    0.0973   13.7152  -10.8489 H   0  0  0  0  0  0  0  0  0  0  0  0
    0.1416   15.3586  -10.1252 H   0  0  0  0  0  0  0  0  0  0  0  0
  1  2  1  0  0  0  0
  1  4  1  0  0  0  0
  1 11  2  0  0  0  0
  2  6  2  0  0  0  0
  3  4  2  0  0  0  0
  3  5  1  0  0  0  0
  5  6  1  0  0  0  0
  5  9  1  0  0  0  0
  6  7  1  0  0  0  0
  7  8  1  0  0  0  0
  7 10  1  0  0  0  0
  8  9  2  0  0  0  0
 10 12  2  3  0  0  0
 11 24  1  0  0  0  0
 12 13  1  0  0  0  0
 12 17  1  0  0  0  0
 13 14  2  0  0  0  0
 14 15  1  0  0  0  0
 15 16  2  0  0  0  0
 15 18  1  0  0  0  0
 16 17  1  0  0  0  0
 18 19  2  0  0  0  0
 18 22  1  0  0  0  0
 19 20  1  0  0  0  0
 20 21  1  0  0  0  0
 20 23  1  0  0  0  0
 21 22  2  0  0  0  0
 24 25  1  0  0  0  0
 25 26  1  0  0  0  0
 26 27  1  0  0  0  0
 27 28  2  0  0  0  0
 27 29  1  0  0  0  0
  2 30  1  0  0  0  0
  3 31  1  0  0  0  0
  4 32  1  0  0  0  0
  5 33  1  0  0  0  0
  7 34  1  0  0  0  0
 10 35  1  0  0  0  0
 13 36  1  0  0  0  0
 14 37  1  0  0  0  0
 16 38  1  0  0  0  0
 17 39  1  0  0  0  0
 17 40  1  0  0  0  0
 19 41  1  0  0  0  0
 22 42  1  0  0  0  0
 23 43  1  0  0  0  0
 23 44  1  0  0  0  0
 23 45  1  0  0  0  0
 24 46  1  0  0  0  0
 24 47  1  0  0  0  0
 25 48  1  0  0  0  0
 25 49  1  0  0  0  0
 26 50  1  0  0  0  0
 29 51  1  0  0  0  0
 29 52  1  0  0  0  0
 29 53  1  0  0  0  0
M  END
> <Name>
27

> <IC50[uM]>
0.68

$$$$
27
  -OEChem-05192314333D
 Structure written by MMmdl.
 53 56  0     1  0  0  0  0  0999 V2000
   -6.3855   12.3606  -12.0031 C   0  0  0  0  0  0  0  0  0  0  0  0
   -6.5214   11.8004  -10.7171 C   0  0  0  0  0  0  0  0  0  0  0  0
   -7.6991   10.5797  -13.0384 C   0  0  0  0  0  0  0  0  0  0  0  0
   -6.9626   11.7779  -13.1031 C   0  0  0  0  0  0  0  0  0  0  0  0
   -7.8238   10.0198  -11.7523 C   0  0  0  0  0  0  0  0  0  0  0  0
   -7.2557   10.6213  -10.5956 C   0  0  0  0  0  0  0  0  0  0  0  0
   -7.6268    9.7501   -9.5073 C   0  0  0  0  0  0  0  0  0  0  0  0
   -8.3057    8.7491   -9.9816 N   0  0  0  0  0  0  0  0  0  0  0  0
   -8.4330    8.8776  -11.2917 N   0  0  0  0  0  0  0  0  0  0  0  0
   -7.3352    9.8817   -8.0196 C   0  0  0  0  0  0  0  0  0  0  0  0
   -5.6205   13.5372  -12.2095 N   0  0  0  0  0  0  0  0  0  0  0  0
   -5.9727   10.4835   -7.7324 C   0  0  3  0  0  0  0  0  0  0  0  0
   -5.8611   11.7523   -7.1657 C   0  0  0  0  0  0  0  0  0  0  0  0
   -4.5946   12.2988   -6.9068 C   0  0  0  0  0  0  0  0  0  0  0  0
   -3.4432   11.5806   -7.2147 C   0  0  0  0  0  0  0  0  0  0  0  0
   -3.5570   10.3109   -7.7899 C   0  0  0  0  0  0  0  0  0  0  0  0
   -4.8253    9.7663   -8.0483 C   0  0  0  0  0  0  0  0  0  0  0  0
   -2.0926   12.1556   -6.9444 C   0  0  0  0  0  0  0  0  0  0  0  0
   -1.7338   13.4204   -6.4594 C   0  0  0  0  0  0  0  0  0  0  0  0
   -0.4064   13.4584   -6.4114 N   0  0  0  0  0  0  0  0  0  0  0  0
    0.1793   12.3493   -6.7865 N   0  0  0  0  0  0  0  0  0  0  0  0
   -0.7954   11.5387   -7.1512 C   0  0  0  0  0  0  0  0  0  0  0  0
    0.4205   14.5767   -6.0073 C   0  0  0  0  0  0  0  0  0  0  0  0
   -4.6894   13.8945  -11.1046 C   0  0  0  0  0  0  0  0  0  0  0  0
   -3.7822   15.1171  -11.3990 C   0  0  0  0  0  0  0  0  0  0  0  0
   -2.3310   14.9579  -11.2532 N   0  0  0  0  0  0  0  0  0  0  0  0
   -1.8099   14.4326  -10.1320 C   0  0  0  0  0  0  0  0  0  0  0  0
   -2.5019   14.0442   -9.2076 O   0  0  0  0  0  0  0  0  0  0  0  0
   -0.2869   14.3494  -10.0364 C   0  0  0  0  0  0  0  0  0  0  0  0
   -6.0716   12.2689   -9.8542 H   0  0  0  0  0  0  0  0  0  0  0  0
   -8.1374   10.1224  -13.9131 H   0  0  0  0  0  0  0  0  0  0  0  0
   -7.6459   12.5314  -13.5218 H   0  0  0  0  0  0  0  0  0  0  0  0
   -6.1429   11.5918  -13.8126 H   0  0  0  0  0  0  0  0  0  0  0  0
   -8.0269    9.5780   -7.2478 H   0  0  0  0  0  0  0  0  0  0  0  0
   -5.9820   10.0328   -6.7290 H   0  0  0  0  0  0  0  0  0  0  0  0
   -6.7507   12.3156   -6.9255 H   0  0  0  0  0  0  0  0  0  0  0  0
   -4.5132   13.2816   -6.4664 H   0  0  0  0  0  0  0  0  0  0  0  0
   -2.6683    9.7485   -8.0357 H   0  0  0  0  0  0  0  0  0  0  0  0
   -4.8817    8.8185   -7.4929 H   0  0  0  0  0  0  0  0  0  0  0  0
   -4.8676    9.5615   -9.1282 H   0  0  0  0  0  0  0  0  0  0  0  0
   -2.4090   14.2148   -6.1776 H   0  0  0  0  0  0  0  0  0  0  0  0
   -0.6475   10.5464   -7.5511 H   0  0  0  0  0  0  0  0  0  0  0  0
    1.4812   14.2962   -6.0855 H   0  0  0  0  0  0  0  0  0  0  0  0
    0.2196   15.4369   -6.6628 H   0  0  0  0  0  0  0  0  0  0  0  0
    0.1886   14.8468   -4.9665 H   0  0  0  0  0  0  0  0  0  0  0  0
   -5.2882   14.1185  -10.2095 H   0  0  0  0  0  0  0  0  0  0  0  0
   -4.0431   13.0269  -10.9057 H   0  0  0  0  0  0  0  0  0  0  0  0
   -3.9735   15.4217  -12.4385 H   0  0  0  0  0  0  0  0  0  0  0  0
   -4.0914   15.9235  -10.7178 H   0  0  0  0  0  0  0  0  0  0  0  0
   -1.7243   15.2430  -11.9952 H   0  0  0  0  0  0  0  0  0  0  0  0
   -0.0031   13.9147   -9.0666 H   0  0  0  0  0  0  0  0  0  0  0  0
    0.0973   13.7152  -10.8489 H   0  0  0  0  0  0  0  0  0  0  0  0
    0.1416   15.3586  -10.1252 H   0  0  0  0  0  0  0  0  0  0  0  0
  1  2  1  0  0  0  0
  1  4  1  0  0  0  0
  1 11  2  0  0  0  0
  2  6  2  0  0  0  0
  3  4  1  0  0  0  0
  3  5  2  0  0  0  0
  5  6  1  0  0  0  0
  5  9  1  0  0  0  0
  6  7  1  0  0  0  0
  7  8  1  0  0  0  0
  7 10  2  3  0  0  0
  8  9  2  0  0  0  0
 10 12  1  0  0  0  0
 11 24  1  0  0  0  0
 12 13  1  0  0  0  0
 12 17  1  0  0  0  0
 13 14  2  0  0  0  0
 14 15  1  0  0  0  0
 15 16  2  0  0  0  0
 15 18  1  0  0  0  0
 16 17  1  0  0  0  0
 18 19  2  0  0  0  0
 18 22  1  0  0  0  0
 19 20  1  0  0  0  0
 20 21  1  0  0  0  0
 20 23  1  0  0  0  0
 21 22  2  0  0  0  0
 24 25  1  0  0  0  0
 25 26  1  0  0  0  0
 26 27  1  0  0  0  0
 27 28  2  0  0  0  0
 27 29  1  0  0  0  0
  2 30  1  0  0  0  0
  3 31  1  0  0  0  0
  4 32  1  0  0  0  0
  4 33  1  0  0  0  0
 10 34  1  0  0  0  0
 12 35  1  0  0  0  0
 13 36  1  0  0  0  0
 14 37  1  0  0  0  0
 16 38  1  0  0  0  0
 17 39  1  0  0  0  0
 17 40  1  0  0  0  0
 19 41  1  0  0  0  0
 22 42  1  0  0  0  0
 23 43  1  0  0  0  0
 23 44  1  0  0  0  0
 23 45  1  0  0  0  0
 24 46  1  0  0  0  0
 24 47  1  0  0  0  0
 25 48  1  0  0  0  0
 25 49  1  0  0  0  0
 26 50  1  0  0  0  0
 29 51  1  0  0  0  0
 29 52  1  0  0  0  0
 29 53  1  0  0  0  0
M  END
> <Name>
27

> <IC50[uM]>
0.68

$$$$
27
  -OEChem-05192314333D
 Structure written by MMmdl.
 53 56  0     1  0  0  0  0  0999 V2000
   -6.3855   12.3606  -12.0031 C   0  0  0  0  0  0  0  0  0  0  0  0
   -6.5214   11.8004  -10.7171 C   0  0  0  0  0  0  0  0  0  0  0  0
   -7.6991   10.5797  -13.0384 C   0  0  0  0  0  0  0  0  0  0  0  0
   -6.9626   11.7779  -13.1031 C   0  0  0  0  0  0  0  0  0  0  0  0
   -7.8238   10.0198  -11.7523 C   0  0  0  0  0  0  0  0  0  0  0  0
   -7.2557   10.6213  -10.5956 C   0  0  0  0  0  0  0  0  0  0  0  0
   -7.6268    9.7501   -9.5073 C   0  0  3  0  0  0  0  0  0  0  0  0
   -8.3057    8.7491   -9.9816 N   0  0  0  0  0  0  0  0  0  0  0  0
   -8.4330    8.8776  -11.2917 N   0  0  0  0  0  0  0  0  0  0  0  0
   -7.3352    9.8817   -8.0196 C   0  0  0  0  0  0  0  0  0  0  0  0
   -5.6205   13.5372  -12.2095 N   0  0  0  0  0  0  0  0  0  0  0  0
   -5.9727   10.4835   -7.7324 C   0  0  0  0  0  0  0  0  0  0  0  0
   -5.8611   11.7523   -7.1657 C   0  0  0  0  0  0  0  0  0  0  0  0
   -4.5946   12.2988   -6.9068 C   0  0  0  0  0  0  0  0  0  0  0  0
   -3.4432   11.5806   -7.2147 C   0  0  0  0  0  0  0  0  0  0  0  0
   -3.5570   10.3109   -7.7899 C   0  0  0  0  0  0  0  0  0  0  0  0
   -4.8253    9.7663   -8.0483 C   0  0  0  0  0  0  0  0  0  0  0  0
   -2.0926   12.1556   -6.9444 C   0  0  0  0  0  0  0  0  0  0  0  0
   -1.7338   13.4204   -6.4594 C   0  0  0  0  0  0  0  0  0  0  0  0
   -0.4064   13.4584   -6.4114 N   0  0  0  0  0  0  0  0  0  0  0  0
    0.1793   12.3493   -6.7865 N   0  0  0  0  0  0  0  0  0  0  0  0
   -0.7954   11.5387   -7.1512 C   0  0  0  0  0  0  0  0  0  0  0  0
    0.4205   14.5767   -6.0073 C   0  0  0  0  0  0  0  0  0  0  0  0
   -4.6894   13.8945  -11.1046 C   0  0  0  0  0  0  0  0  0  0  0  0
   -3.7822   15.1171  -11.3990 C   0  0  0  0  0  0  0  0  0  0  0  0
   -2.3310   14.9579  -11.2532 N   0  0  0  0  0  0  0  0  0  0  0  0
   -1.8099   14.4326  -10.1320 C   0  0  0  0  0  0  0  0  0  0  0  0
   -2.5019   14.0442   -9.2076 O   0  0  0  0  0  0  0  0  0  0  0  0
   -0.2869   14.3494  -10.0364 C   0  0  0  0  0  0  0  0  0  0  0  0
   -6.0716   12.2689   -9.8542 H   0  0  0  0  0  0  0  0  0  0  0  0
   -8.1374   10.1224  -13.9131 H   0  0  0  0  0  0  0  0  0  0  0  0
   -7.6459   12.5314  -13.5218 H   0  0  0  0  0  0  0  0  0  0  0  0
   -6.1429   11.5918  -13.8126 H   0  0  0  0  0  0  0  0  0  0  0  0
   -6.6939    9.1829   -9.6414 H   0  0  0  0  0  0  0  0  0  0  0  0
   -8.0269    9.5780   -7.2478 H   0  0  0  0  0  0  0  0  0  0  0  0
   -6.7507   12.3156   -6.9255 H   0  0  0  0  0  0  0  0  0  0  0  0
   -4.5132   13.2816   -6.4664 H   0  0  0  0  0  0  0  0  0  0  0  0
   -2.6683    9.7485   -8.0357 H   0  0  0  0  0  0  0  0  0  0  0  0
   -4.8817    8.8185   -7.4929 H   0  0  0  0  0  0  0  0  0  0  0  0
   -4.8676    9.5615   -9.1282 H   0  0  0  0  0  0  0  0  0  0  0  0
   -2.4090   14.2148   -6.1776 H   0  0  0  0  0  0  0  0  0  0  0  0
   -0.6475   10.5464   -7.5511 H   0  0  0  0  0  0  0  0  0  0  0  0
    1.4812   14.2962   -6.0855 H   0  0  0  0  0  0  0  0  0  0  0  0
    0.2196   15.4369   -6.6628 H   0  0  0  0  0  0  0  0  0  0  0  0
    0.1886   14.8468   -4.9665 H   0  0  0  0  0  0  0  0  0  0  0  0
   -5.2882   14.1185  -10.2095 H   0  0  0  0  0  0  0  0  0  0  0  0
   -4.0431   13.0269  -10.9057 H   0  0  0  0  0  0  0  0  0  0  0  0
   -3.9735   15.4217  -12.4385 H   0  0  0  0  0  0  0  0  0  0  0  0
   -4.0914   15.9235  -10.7178 H   0  0  0  0  0  0  0  0  0  0  0  0
   -1.7243   15.2430  -11.9952 H   0  0  0  0  0  0  0  0  0  0  0  0
   -0.0031   13.9147   -9.0666 H   0  0  0  0  0  0  0  0  0  0  0  0
    0.0973   13.7152  -10.8489 H   0  0  0  0  0  0  0  0  0  0  0  0
    0.1416   15.3586  -10.1252 H   0  0  0  0  0  0  0  0  0  0  0  0
  1  2  1  0  0  0  0
  1  4  1  0  0  0  0
  1 11  2  0  0  0  0
  2  6  2  0  0  0  0
  3  4  1  0  0  0  0
  3  5  2  0  0  0  0
  5  6  1  0  0  0  0
  5  9  1  0  0  0  0
  6  7  1  0  0  0  0
  7  8  1  0  0  0  0
  7 10  1  0  0  0  0
  8  9  2  0  0  0  0
 10 12  2  3  0  0  0
 11 24  1  0  0  0  0
 12 13  1  0  0  0  0
 12 17  1  0  0  0  0
 13 14  2  0  0  0  0
 14 15  1  0  0  0  0
 15 16  2  0  0  0  0
 15 18  1  0  0  0  0
 16 17  1  0  0  0  0
 18 19  2  0  0  0  0
 18 22  1  0  0  0  0
 19 20  1  0  0  0  0
 20 21  1  0  0  0  0
 20 23  1  0  0  0  0
 21 22  2  0  0  0  0
 24 25  1  0  0  0  0
 25 26  1  0  0  0  0
 26 27  1  0  0  0  0
 27 28  2  0  0  0  0
 27 29  1  0  0  0  0
  2 30  1  0  0  0  0
  3 31  1  0  0  0  0
  4 32  1  0  0  0  0
  4 33  1  0  0  0  0
  7 34  1  0  0  0  0
 10 35  1  0  0  0  0
 13 36  1  0  0  0  0
 14 37  1  0  0  0  0
 16 38  1  0  0  0  0
 17 39  1  0  0  0  0
 17 40  1  0  0  0  0
 19 41  1  0  0  0  0
 22 42  1  0  0  0  0
 23 43  1  0  0  0  0
 23 44  1  0  0  0  0
 23 45  1  0  0  0  0
 24 46  1  0  0  0  0
 24 47  1  0  0  0  0
 25 48  1  0  0  0  0
 25 49  1  0  0  0  0
 26 50  1  0  0  0  0
 29 51  1  0  0  0  0
 29 52  1  0  0  0  0
 29 53  1  0  0  0  0
M  END
> <Name>
27

> <IC50[uM]>
0.68

$$$$
27
  -OEChem-05192314333D
 Structure written by MMmdl.
 53 56  0     1  0  0  0  0  0999 V2000
   -6.3855   12.3606  -12.0031 C   0  0  0  0  0  0  0  0  0  0  0  0
   -6.5214   11.8004  -10.7171 C   0  0  0  0  0  0  0  0  0  0  0  0
   -7.6991   10.5797  -13.0384 C   0  0  0  0  0  0  0  0  0  0  0  0
   -6.9626   11.7779  -13.1031 C   0  0  0  0  0  0  0  0  0  0  0  0
   -7.8238   10.0198  -11.7523 C   0  0  3  0  0  0  0  0  0  0  0  0
   -7.2557   10.6213  -10.5956 C   0  0  0  0  0  0  0  0  0  0  0  0
   -7.6268    9.7501   -9.5073 C   0  0  0  0  0  0  0  0  0  0  0  0
   -8.3057    8.7491   -9.9816 N   0  0  0  0  0  0  0  0  0  0  0  0
   -8.4330    8.8776  -11.2917 N   0  0  0  0  0  0  0  0  0  0  0  0
   -7.3352    9.8817   -8.0196 C   0  0  0  0  0  0  0  0  0  0  0  0
   -5.6205   13.5372  -12.2095 N   0  0  0  0  0  0  0  0  0  0  0  0
   -5.9727   10.4835   -7.7324 C   0  0  0  0  0  0  0  0  0  0  0  0
   -5.8611   11.7523   -7.1657 C   0  0  0  0  0  0  0  0  0  0  0  0
   -4.5946   12.2988   -6.9068 C   0  0  0  0  0  0  0  0  0  0  0  0
   -3.4432   11.5806   -7.2147 C   0  0  0  0  0  0  0  0  0  0  0  0
   -3.5570   10.3109   -7.7899 C   0  0  0  0  0  0  0  0  0  0  0  0
   -4.8253    9.7663   -8.0483 C   0  0  0  0  0  0  0  0  0  0  0  0
   -2.0926   12.1556   -6.9444 C   0  0  0  0  0  0  0  0  0  0  0  0
   -1.7338   13.4204   -6.4594 C   0  0  0  0  0  0  0  0  0  0  0  0
   -0.4064   13.4584   -6.4114 N   0  0  0  0  0  0  0  0  0  0  0  0
    0.1793   12.3493   -6.7865 N   0  0  0  0  0  0  0  0  0  0  0  0
   -0.7954   11.5387   -7.1512 C   0  0  0  0  0  0  0  0  0  0  0  0
    0.4205   14.5767   -6.0073 C   0  0  0  0  0  0  0  0  0  0  0  0
   -4.6894   13.8945  -11.1046 C   0  0  0  0  0  0  0  0  0  0  0  0
   -3.7822   15.1171  -11.3990 C   0  0  0  0  0  0  0  0  0  0  0  0
   -2.3310   14.9579  -11.2532 N   0  0  0  0  0  0  0  0  0  0  0  0
   -1.8099   14.4326  -10.1320 C   0  0  0  0  0  0  0  0  0  0  0  0
   -2.5019   14.0442   -9.2076 O   0  0  0  0  0  0  0  0  0  0  0  0
   -0.2869   14.3494  -10.0364 C   0  0  0  0  0  0  0  0  0  0  0  0
   -6.0716   12.2689   -9.8542 H   0  0  0  0  0  0  0  0  0  0  0  0
   -8.1374   10.1224  -13.9131 H   0  0  0  0  0  0  0  0  0  0  0  0
   -6.8466   12.2604  -14.0624 H   0  0  0  0  0  0  0  0  0  0  0  0
   -8.7543   10.5845  -11.5930 H   0  0  0  0  0  0  0  0  0  0  0  0
   -8.0269    9.5780   -7.2478 H   0  0  0  0  0  0  0  0  0  0  0  0
   -6.7507   12.3156   -6.9255 H   0  0  0  0  0  0  0  0  0  0  0  0
   -4.5373   13.2433   -7.4677 H   0  0  0  0  0  0  0  0  0  0  0  0
   -4.5562   12.5101   -5.8280 H   0  0  0  0  0  0  0  0  0  0  0  0
   -2.6683    9.7485   -8.0357 H   0  0  0  0  0  0  0  0  0  0  0  0
   -4.8817    8.8185   -7.4929 H   0  0  0  0  0  0  0  0  0  0  0  0
   -4.8676    9.5615   -9.1282 H   0  0  0  0  0  0  0  0  0  0  0  0
   -2.4090   14.2148   -6.1776 H   0  0  0  0  0  0  0  0  0  0  0  0
   -0.6475   10.5464   -7.5511 H   0  0  0  0  0  0  0  0  0  0  0  0
    1.4812   14.2962   -6.0855 H   0  0  0  0  0  0  0  0  0  0  0  0
    0.2196   15.4369   -6.6628 H   0  0  0  0  0  0  0  0  0  0  0  0
    0.1886   14.8468   -4.9665 H   0  0  0  0  0  0  0  0  0  0  0  0
   -5.2882   14.1185  -10.2095 H   0  0  0  0  0  0  0  0  0  0  0  0
   -4.0431   13.0269  -10.9057 H   0  0  0  0  0  0  0  0  0  0  0  0
   -3.9735   15.4217  -12.4385 H   0  0  0  0  0  0  0  0  0  0  0  0
   -4.0914   15.9235  -10.7178 H   0  0  0  0  0  0  0  0  0  0  0  0
   -1.7243   15.2430  -11.9952 H   0  0  0  0  0  0  0  0  0  0  0  0
   -0.0031   13.9147   -9.0666 H   0  0  0  0  0  0  0  0  0  0  0  0
    0.0973   13.7152  -10.8489 H   0  0  0  0  0  0  0  0  0  0  0  0
    0.1416   15.3586  -10.1252 H   0  0  0  0  0  0  0  0  0  0  0  0
  1  2  1  0  0  0  0
  1  4  1  0  0  0  0
  1 11  2  0  0  0  0
  2  6  2  0  0  0  0
  3  4  2  0  0  0  0
  3  5  1  0  0  0  0
  5  6  1  0  0  0  0
  5  9  1  0  0  0  0
  6  7  1  0  0  0  0
  7  8  1  0  0  0  0
  7 10  2  3  0  0  0
  8  9  2  0  0  0  0
 10 12  1  0  0  0  0
 11 24  1  0  0  0  0
 12 13  2  0  0  0  0
 12 17  1  0  0  0  0
 13 14  1  0  0  0  0
 14 15  1  0  0  0  0
 15 16  2  0  0  0  0
 15 18  1  0  0  0  0
 16 17  1  0  0  0  0
 18 19  2  0  0  0  0
 18 22  1  0  0  0  0
 19 20  1  0  0  0  0
 20 21  1  0  0  0  0
 20 23  1  0  0  0  0
 21 22  2  0  0  0  0
 24 25  1  0  0  0  0
 25 26  1  0  0  0  0
 26 27  1  0  0  0  0
 27 28  2  0  0  0  0
 27 29  1  0  0  0  0
  2 30  1  0  0  0  0
  3 31  1  0  0  0  0
  4 32  1  0  0  0  0
  5 33  1  0  0  0  0
 10 34  1  0  0  0  0
 13 35  1  0  0  0  0
 14 36  1  0  0  0  0
 14 37  1  0  0  0  0
 16 38  1  0  0  0  0
 17 39  1  0  0  0  0
 17 40  1  0  0  0  0
 19 41  1  0  0  0  0
 22 42  1  0  0  0  0
 23 43  1  0  0  0  0
 23 44  1  0  0  0  0
 23 45  1  0  0  0  0
 24 46  1  0  0  0  0
 24 47  1  0  0  0  0
 25 48  1  0  0  0  0
 25 49  1  0  0  0  0
 26 50  1  0  0  0  0
 29 51  1  0  0  0  0
 29 52  1  0  0  0  0
 29 53  1  0  0  0  0
M  END
> <Name>
27

> <IC50[uM]>
0.68

$$$$
27
  -OEChem-05192314333D
 Structure written by MMmdl.
 53 56  0     0  0  0  0  0  0999 V2000
   -6.3855   12.3606  -12.0031 C   0  0  0  0  0  0  0  0  0  0  0  0
   -6.5214   11.8004  -10.7171 C   0  0  0  0  0  0  0  0  0  0  0  0
   -7.6991   10.5797  -13.0384 C   0  0  0  0  0  0  0  0  0  0  0  0
   -6.9626   11.7779  -13.1031 C   0  0  0  0  0  0  0  0  0  0  0  0
   -7.8238   10.0198  -11.7523 C   0  0  0  0  0  0  0  0  0  0  0  0
   -7.2557   10.6213  -10.5956 C   0  0  0  0  0  0  0  0  0  0  0  0
   -7.6268    9.7501   -9.5073 C   0  0  0  0  0  0  0  0  0  0  0  0
   -8.3057    8.7491   -9.9816 N   0  0  0  0  0  0  0  0  0  0  0  0
   -8.4330    8.8776  -11.2917 N   0  0  0  0  0  0  0  0  0  0  0  0
   -7.3352    9.8817   -8.0196 C   0  0  0  0  0  0  0  0  0  0  0  0
   -5.6205   13.5372  -12.2095 N   0  0  0  0  0  0  0  0  0  0  0  0
   -5.9727   10.4835   -7.7324 C   0  0  0  0  0  0  0  0  0  0  0  0
   -5.8611   11.7523   -7.1657 C   0  0  0  0  0  0  0  0  0  0  0  0
   -4.5946   12.2988   -6.9068 C   0  0  0  0  0  0  0  0  0  0  0  0
   -3.4432   11.5806   -7.2147 C   0  0  0  0  0  0  0  0  0  0  0  0
   -3.5570   10.3109   -7.7899 C   0  0  0  0  0  0  0  0  0  0  0  0
   -4.8253    9.7663   -8.0483 C   0  0  0  0  0  0  0  0  0  0  0  0
   -2.0926   12.1556   -6.9444 C   0  0  0  0  0  0  0  0  0  0  0  0
   -1.7338   13.4204   -6.4594 C   0  0  0  0  0  0  0  0  0  0  0  0
   -0.4064   13.4584   -6.4114 N   0  0  0  0  0  0  0  0  0  0  0  0
    0.1793   12.3493   -6.7865 N   0  0  0  0  0  0  0  0  0  0  0  0
   -0.7954   11.5387   -7.1512 C   0  0  0  0  0  0  0  0  0  0  0  0
    0.4205   14.5767   -6.0073 C   0  0  0  0  0  0  0  0  0  0  0  0
   -4.6894   13.8945  -11.1046 C   0  0  0  0  0  0  0  0  0  0  0  0
   -3.7822   15.1171  -11.3990 C   0  0  0  0  0  0  0  0  0  0  0  0
   -2.3310   14.9579  -11.2532 N   0  0  0  0  0  0  0  0  0  0  0  0
   -1.8099   14.4326  -10.1320 C   0  0  0  0  0  0  0  0  0  0  0  0
   -2.5019   14.0442   -9.2076 O   0  0  0  0  0  0  0  0  0  0  0  0
   -0.2869   14.3494  -10.0364 C   0  0  0  0  0  0  0  0  0  0  0  0
   -6.0716   12.2689   -9.8542 H   0  0  0  0  0  0  0  0  0  0  0  0
   -8.1374   10.1224  -13.9131 H   0  0  0  0  0  0  0  0  0  0  0  0
   -7.6459   12.5314  -13.5218 H   0  0  0  0  0  0  0  0  0  0  0  0
   -6.1429   11.5918  -13.8126 H   0  0  0  0  0  0  0  0  0  0  0  0
   -8.0269    9.5780   -7.2478 H   0  0  0  0  0  0  0  0  0  0  0  0
   -6.7507   12.3156   -6.9255 H   0  0  0  0  0  0  0  0  0  0  0  0
   -4.5373   13.2433   -7.4677 H   0  0  0  0  0  0  0  0  0  0  0  0
   -4.5562   12.5101   -5.8280 H   0  0  0  0  0  0  0  0  0  0  0  0
   -2.6683    9.7485   -8.0357 H   0  0  0  0  0  0  0  0  0  0  0  0
   -4.8817    8.8185   -7.4929 H   0  0  0  0  0  0  0  0  0  0  0  0
   -4.8676    9.5615   -9.1282 H   0  0  0  0  0  0  0  0  0  0  0  0
   -2.4090   14.2148   -6.1776 H   0  0  0  0  0  0  0  0  0  0  0  0
   -0.6475   10.5464   -7.5511 H   0  0  0  0  0  0  0  0  0  0  0  0
    1.4812   14.2962   -6.0855 H   0  0  0  0  0  0  0  0  0  0  0  0
    0.2196   15.4369   -6.6628 H   0  0  0  0  0  0  0  0  0  0  0  0
    0.1886   14.8468   -4.9665 H   0  0  0  0  0  0  0  0  0  0  0  0
   -5.2882   14.1185  -10.2095 H   0  0  0  0  0  0  0  0  0  0  0  0
   -4.0431   13.0269  -10.9057 H   0  0  0  0  0  0  0  0  0  0  0  0
   -3.9735   15.4217  -12.4385 H   0  0  0  0  0  0  0  0  0  0  0  0
   -4.0914   15.9235  -10.7178 H   0  0  0  0  0  0  0  0  0  0  0  0
   -1.7243   15.2430  -11.9952 H   0  0  0  0  0  0  0  0  0  0  0  0
   -0.0031   13.9147   -9.0666 H   0  0  0  0  0  0  0  0  0  0  0  0
    0.0973   13.7152  -10.8489 H   0  0  0  0  0  0  0  0  0  0  0  0
    0.1416   15.3586  -10.1252 H   0  0  0  0  0  0  0  0  0  0  0  0
  1  2  1  0  0  0  0
  1  4  1  0  0  0  0
  1 11  2  0  0  0  0
  2  6  2  0  0  0  0
  3  4  1  0  0  0  0
  3  5  2  0  0  0  0
  5  6  1  0  0  0  0
  5  9  1  0  0  0  0
  6  7  1  0  0  0  0
  7  8  1  0  0  0  0
  7 10  2  3  0  0  0
  8  9  2  0  0  0  0
 10 12  1  0  0  0  0
 11 24  1  0  0  0  0
 12 13  2  0  0  0  0
 12 17  1  0  0  0  0
 13 14  1  0  0  0  0
 14 15  1  0  0  0  0
 15 16  2  0  0  0  0
 15 18  1  0  0  0  0
 16 17  1  0  0  0  0
 18 19  2  0  0  0  0
 18 22  1  0  0  0  0
 19 20  1  0  0  0  0
 20 21  1  0  0  0  0
 20 23  1  0  0  0  0
 21 22  2  0  0  0  0
 24 25  1  0  0  0  0
 25 26  1  0  0  0  0
 26 27  1  0  0  0  0
 27 28  2  0  0  0  0
 27 29  1  0  0  0  0
  2 30  1  0  0  0  0
  3 31  1  0  0  0  0
  4 32  1  0  0  0  0
  4 33  1  0  0  0  0
 10 34  1  0  0  0  0
 13 35  1  0  0  0  0
 14 36  1  0  0  0  0
 14 37  1  0  0  0  0
 16 38  1  0  0  0  0
 17 39  1  0  0  0  0
 17 40  1  0  0  0  0
 19 41  1  0  0  0  0
 22 42  1  0  0  0  0
 23 43  1  0  0  0  0
 23 44  1  0  0  0  0
 23 45  1  0  0  0  0
 24 46  1  0  0  0  0
 24 47  1  0  0  0  0
 25 48  1  0  0  0  0
 25 49  1  0  0  0  0
 26 50  1  0  0  0  0
 29 51  1  0  0  0  0
 29 52  1  0  0  0  0
 29 53  1  0  0  0  0
M  END
> <Name>
27

> <IC50[uM]>
0.68

$$$$
27
  -OEChem-05192314333D
 Structure written by MMmdl.
 53 56  0     1  0  0  0  0  0999 V2000
   -6.3855   12.3606  -12.0031 C   0  0  0  0  0  0  0  0  0  0  0  0
   -6.5214   11.8004  -10.7171 C   0  0  0  0  0  0  0  0  0  0  0  0
   -7.6991   10.5797  -13.0384 C   0  0  0  0  0  0  0  0  0  0  0  0
   -6.9626   11.7779  -13.1031 C   0  0  0  0  0  0  0  0  0  0  0  0
   -7.8238   10.0198  -11.7523 C   0  0  3  0  0  0  0  0  0  0  0  0
   -7.2557   10.6213  -10.5956 C   0  0  0  0  0  0  0  0  0  0  0  0
   -7.6268    9.7501   -9.5073 C   0  0  0  0  0  0  0  0  0  0  0  0
   -8.3057    8.7491   -9.9816 N   0  0  0  0  0  0  0  0  0  0  0  0
   -8.4330    8.8776  -11.2917 N   0  0  0  0  0  0  0  0  0  0  0  0
   -7.3352    9.8817   -8.0196 C   0  0  0  0  0  0  0  0  0  0  0  0
   -5.6205   13.5372  -12.2095 N   0  0  0  0  0  0  0  0  0  0  0  0
   -5.9727   10.4835   -7.7324 C   0  0  0  0  0  0  0  0  0  0  0  0
   -5.8611   11.7523   -7.1657 C   0  0  0  0  0  0  0  0  0  0  0  0
   -4.5946   12.2988   -6.9068 C   0  0  0  0  0  0  0  0  0  0  0  0
   -3.4432   11.5806   -7.2147 C   0  0  0  0  0  0  0  0  0  0  0  0
   -3.5570   10.3109   -7.7899 C   0  0  0  0  0  0  0  0  0  0  0  0
   -4.8253    9.7663   -8.0483 C   0  0  0  0  0  0  0  0  0  0  0  0
   -2.0926   12.1556   -6.9444 C   0  0  0  0  0  0  0  0  0  0  0  0
   -1.7338   13.4204   -6.4594 C   0  0  0  0  0  0  0  0  0  0  0  0
   -0.4064   13.4584   -6.4114 N   0  0  0  0  0  0  0  0  0  0  0  0
    0.1793   12.3493   -6.7865 N   0  0  0  0  0  0  0  0  0  0  0  0
   -0.7954   11.5387   -7.1512 C   0  0  0  0  0  0  0  0  0  0  0  0
    0.4205   14.5767   -6.0073 C   0  0  0  0  0  0  0  0  0  0  0  0
   -4.6894   13.8945  -11.1046 C   0  0  0  0  0  0  0  0  0  0  0  0
   -3.7822   15.1171  -11.3990 C   0  0  0  0  0  0  0  0  0  0  0  0
   -2.3310   14.9579  -11.2532 N   0  0  0  0  0  0  0  0  0  0  0  0
   -1.8099   14.4326  -10.1320 C   0  0  0  0  0  0  0  0  0  0  0  0
   -2.5019   14.0442   -9.2076 O   0  0  0  0  0  0  0  0  0  0  0  0
   -0.2869   14.3494  -10.0364 C   0  0  0  0  0  0  0  0  0  0  0  0
   -6.0716   12.2689   -9.8542 H   0  0  0  0  0  0  0  0  0  0  0  0
   -8.1374   10.1224  -13.9131 H   0  0  0  0  0  0  0  0  0  0  0  0
   -6.8466   12.2604  -14.0624 H   0  0  0  0  0  0  0  0  0  0  0  0
   -8.7543   10.5845  -11.5930 H   0  0  0  0  0  0  0  0  0  0  0  0
   -8.0269    9.5780   -7.2478 H   0  0  0  0  0  0  0  0  0  0  0  0
   -6.7507   12.3156   -6.9255 H   0  0  0  0  0  0  0  0  0  0  0  0
   -4.5132   13.2816   -6.4664 H   0  0  0  0  0  0  0  0  0  0  0  0
   -3.0266   10.3502   -8.7528 H   0  0  0  0  0  0  0  0  0  0  0  0
   -3.0423    9.6102   -7.1161 H   0  0  0  0  0  0  0  0  0  0  0  0
   -4.8817    8.8185   -7.4929 H   0  0  0  0  0  0  0  0  0  0  0  0
   -4.8676    9.5615   -9.1282 H   0  0  0  0  0  0  0  0  0  0  0  0
   -2.4090   14.2148   -6.1776 H   0  0  0  0  0  0  0  0  0  0  0  0
   -0.6475   10.5464   -7.5511 H   0  0  0  0  0  0  0  0  0  0  0  0
    1.4812   14.2962   -6.0855 H   0  0  0  0  0  0  0  0  0  0  0  0
    0.2196   15.4369   -6.6628 H   0  0  0  0  0  0  0  0  0  0  0  0
    0.1886   14.8468   -4.9665 H   0  0  0  0  0  0  0  0  0  0  0  0
   -5.2882   14.1185  -10.2095 H   0  0  0  0  0  0  0  0  0  0  0  0
   -4.0431   13.0269  -10.9057 H   0  0  0  0  0  0  0  0  0  0  0  0
   -3.9735   15.4217  -12.4385 H   0  0  0  0  0  0  0  0  0  0  0  0
   -4.0914   15.9235  -10.7178 H   0  0  0  0  0  0  0  0  0  0  0  0
   -1.7243   15.2430  -11.9952 H   0  0  0  0  0  0  0  0  0  0  0  0
   -0.0031   13.9147   -9.0666 H   0  0  0  0  0  0  0  0  0  0  0  0
    0.0973   13.7152  -10.8489 H   0  0  0  0  0  0  0  0  0  0  0  0
    0.1416   15.3586  -10.1252 H   0  0  0  0  0  0  0  0  0  0  0  0
  1  2  1  0  0  0  0
  1  4  1  0  0  0  0
  1 11  2  0  0  0  0
  2  6  2  0  0  0  0
  3  4  2  0  0  0  0
  3  5  1  0  0  0  0
  5  6  1  0  0  0  0
  5  9  1  0  0  0  0
  6  7  1  0  0  0  0
  7  8  1  0  0  0  0
  7 10  2  3  0  0  0
  8  9  2  0  0  0  0
 10 12  1  0  0  0  0
 11 24  1  0  0  0  0
 12 13  2  0  0  0  0
 12 17  1  0  0  0  0
 13 14  1  0  0  0  0
 14 15  2  0  0  0  0
 15 16  1  0  0  0  0
 15 18  1  0  0  0  0
 16 17  1  0  0  0  0
 18 19  2  0  0  0  0
 18 22  1  0  0  0  0
 19 20  1  0  0  0  0
 20 21  1  0  0  0  0
 20 23  1  0  0  0  0
 21 22  2  0  0  0  0
 24 25  1  0  0  0  0
 25 26  1  0  0  0  0
 26 27  1  0  0  0  0
 27 28  2  0  0  0  0
 27 29  1  0  0  0  0
  2 30  1  0  0  0  0
  3 31  1  0  0  0  0
  4 32  1  0  0  0  0
  5 33  1  0  0  0  0
 10 34  1  0  0  0  0
 13 35  1  0  0  0  0
 14 36  1  0  0  0  0
 16 37  1  0  0  0  0
 16 38  1  0  0  0  0
 17 39  1  0  0  0  0
 17 40  1  0  0  0  0
 19 41  1  0  0  0  0
 22 42  1  0  0  0  0
 23 43  1  0  0  0  0
 23 44  1  0  0  0  0
 23 45  1  0  0  0  0
 24 46  1  0  0  0  0
 24 47  1  0  0  0  0
 25 48  1  0  0  0  0
 25 49  1  0  0  0  0
 26 50  1  0  0  0  0
 29 51  1  0  0  0  0
 29 52  1  0  0  0  0
 29 53  1  0  0  0  0
M  END
> <Name>
27

> <IC50[uM]>
0.68

$$$$
27
  -OEChem-05192314333D
 Structure written by MMmdl.
 53 56  0     0  0  0  0  0  0999 V2000
   -6.3855   12.3606  -12.0031 C   0  0  0  0  0  0  0  0  0  0  0  0
   -6.5214   11.8004  -10.7171 C   0  0  0  0  0  0  0  0  0  0  0  0
   -7.6991   10.5797  -13.0384 C   0  0  0  0  0  0  0  0  0  0  0  0
   -6.9626   11.7779  -13.1031 C   0  0  0  0  0  0  0  0  0  0  0  0
   -7.8238   10.0198  -11.7523 C   0  0  0  0  0  0  0  0  0  0  0  0
   -7.2557   10.6213  -10.5956 C   0  0  0  0  0  0  0  0  0  0  0  0
   -7.6268    9.7501   -9.5073 C   0  0  0  0  0  0  0  0  0  0  0  0
   -8.3057    8.7491   -9.9816 N   0  0  0  0  0  0  0  0  0  0  0  0
   -8.4330    8.8776  -11.2917 N   0  0  0  0  0  0  0  0  0  0  0  0
   -7.3352    9.8817   -8.0196 C   0  0  0  0  0  0  0  0  0  0  0  0
   -5.6205   13.5372  -12.2095 N   0  0  0  0  0  0  0  0  0  0  0  0
   -5.9727   10.4835   -7.7324 C   0  0  0  0  0  0  0  0  0  0  0  0
   -5.8611   11.7523   -7.1657 C   0  0  0  0  0  0  0  0  0  0  0  0
   -4.5946   12.2988   -6.9068 C   0  0  0  0  0  0  0  0  0  0  0  0
   -3.4432   11.5806   -7.2147 C   0  0  0  0  0  0  0  0  0  0  0  0
   -3.5570   10.3109   -7.7899 C   0  0  0  0  0  0  0  0  0  0  0  0
   -4.8253    9.7663   -8.0483 C   0  0  0  0  0  0  0  0  0  0  0  0
   -2.0926   12.1556   -6.9444 C   0  0  0  0  0  0  0  0  0  0  0  0
   -1.7338   13.4204   -6.4594 C   0  0  0  0  0  0  0  0  0  0  0  0
   -0.4064   13.4584   -6.4114 N   0  0  0  0  0  0  0  0  0  0  0  0
    0.1793   12.3493   -6.7865 N   0  0  0  0  0  0  0  0  0  0  0  0
   -0.7954   11.5387   -7.1512 C   0  0  0  0  0  0  0  0  0  0  0  0
    0.4205   14.5767   -6.0073 C   0  0  0  0  0  0  0  0  0  0  0  0
   -4.6894   13.8945  -11.1046 C   0  0  0  0  0  0  0  0  0  0  0  0
   -3.7822   15.1171  -11.3990 C   0  0  0  0  0  0  0  0  0  0  0  0
   -2.3310   14.9579  -11.2532 N   0  0  0  0  0  0  0  0  0  0  0  0
   -1.8099   14.4326  -10.1320 C   0  0  0  0  0  0  0  0  0  0  0  0
   -2.5019   14.0442   -9.2076 O   0  0  0  0  0  0  0  0  0  0  0  0
   -0.2869   14.3494  -10.0364 C   0  0  0  0  0  0  0  0  0  0  0  0
   -6.0716   12.2689   -9.8542 H   0  0  0  0  0  0  0  0  0  0  0  0
   -8.1374   10.1224  -13.9131 H   0  0  0  0  0  0  0  0  0  0  0  0
   -7.6459   12.5314  -13.5218 H   0  0  0  0  0  0  0  0  0  0  0  0
   -6.1429   11.5918  -13.8126 H   0  0  0  0  0  0  0  0  0  0  0  0
   -8.0269    9.5780   -7.2478 H   0  0  0  0  0  0  0  0  0  0  0  0
   -6.7507   12.3156   -6.9255 H   0  0  0  0  0  0  0  0  0  0  0  0
   -4.5132   13.2816   -6.4664 H   0  0  0  0  0  0  0  0  0  0  0  0
   -3.0266   10.3502   -8.7528 H   0  0  0  0  0  0  0  0  0  0  0  0
   -3.0423    9.6102   -7.1161 H   0  0  0  0  0  0  0  0  0  0  0  0
   -4.8817    8.8185   -7.4929 H   0  0  0  0  0  0  0  0  0  0  0  0
   -4.8676    9.5615   -9.1282 H   0  0  0  0  0  0  0  0  0  0  0  0
   -2.4090   14.2148   -6.1776 H   0  0  0  0  0  0  0  0  0  0  0  0
   -0.6475   10.5464   -7.5511 H   0  0  0  0  0  0  0  0  0  0  0  0
    1.4812   14.2962   -6.0855 H   0  0  0  0  0  0  0  0  0  0  0  0
    0.2196   15.4369   -6.6628 H   0  0  0  0  0  0  0  0  0  0  0  0
    0.1886   14.8468   -4.9665 H   0  0  0  0  0  0  0  0  0  0  0  0
   -5.2882   14.1185  -10.2095 H   0  0  0  0  0  0  0  0  0  0  0  0
   -4.0431   13.0269  -10.9057 H   0  0  0  0  0  0  0  0  0  0  0  0
   -3.9735   15.4217  -12.4385 H   0  0  0  0  0  0  0  0  0  0  0  0
   -4.0914   15.9235  -10.7178 H   0  0  0  0  0  0  0  0  0  0  0  0
   -1.7243   15.2430  -11.9952 H   0  0  0  0  0  0  0  0  0  0  0  0
   -0.0031   13.9147   -9.0666 H   0  0  0  0  0  0  0  0  0  0  0  0
    0.0973   13.7152  -10.8489 H   0  0  0  0  0  0  0  0  0  0  0  0
    0.1416   15.3586  -10.1252 H   0  0  0  0  0  0  0  0  0  0  0  0
  1  2  1  0  0  0  0
  1  4  1  0  0  0  0
  1 11  2  0  0  0  0
  2  6  2  0  0  0  0
  3  4  1  0  0  0  0
  3  5  2  0  0  0  0
  5  6  1  0  0  0  0
  5  9  1  0  0  0  0
  6  7  1  0  0  0  0
  7  8  1  0  0  0  0
  7 10  2  3  0  0  0
  8  9  2  0  0  0  0
 10 12  1  0  0  0  0
 11 24  1  0  0  0  0
 12 13  2  0  0  0  0
 12 17  1  0  0  0  0
 13 14  1  0  0  0  0
 14 15  2  0  0  0  0
 15 16  1  0  0  0  0
 15 18  1  0  0  0  0
 16 17  1  0  0  0  0
 18 19  2  0  0  0  0
 18 22  1  0  0  0  0
 19 20  1  0  0  0  0
 20 21  1  0  0  0  0
 20 23  1  0  0  0  0
 21 22  2  0  0  0  0
 24 25  1  0  0  0  0
 25 26  1  0  0  0  0
 26 27  1  0  0  0  0
 27 28  2  0  0  0  0
 27 29  1  0  0  0  0
  2 30  1  0  0  0  0
  3 31  1  0  0  0  0
  4 32  1  0  0  0  0
  4 33  1  0  0  0  0
 10 34  1  0  0  0  0
 13 35  1  0  0  0  0
 14 36  1  0  0  0  0
 16 37  1  0  0  0  0
 16 38  1  0  0  0  0
 17 39  1  0  0  0  0
 17 40  1  0  0  0  0
 19 41  1  0  0  0  0
 22 42  1  0  0  0  0
 23 43  1  0  0  0  0
 23 44  1  0  0  0  0
 23 45  1  0  0  0  0
 24 46  1  0  0  0  0
 24 47  1  0  0  0  0
 25 48  1  0  0  0  0
 25 49  1  0  0  0  0
 26 50  1  0  0  0  0
 29 51  1  0  0  0  0
 29 52  1  0  0  0  0
 29 53  1  0  0  0  0
M  END
> <Name>
27

> <IC50[uM]>
0.68

$$$$
27
  -OEChem-05192314333D
 Structure written by MMmdl.
 53 56  0     0  0  0  0  0  0999 V2000
   -6.3855   12.3606  -12.0031 C   0  0  0  0  0  0  0  0  0  0  0  0
   -6.5214   11.8004  -10.7171 C   0  0  0  0  0  0  0  0  0  0  0  0
   -7.6991   10.5797  -13.0384 C   0  0  0  0  0  0  0  0  0  0  0  0
   -6.9626   11.7779  -13.1031 C   0  0  0  0  0  0  0  0  0  0  0  0
   -7.8238   10.0198  -11.7523 C   0  0  0  0  0  0  0  0  0  0  0  0
   -7.2557   10.6213  -10.5956 C   0  0  0  0  0  0  0  0  0  0  0  0
   -7.6268    9.7501   -9.5073 C   0  0  0  0  0  0  0  0  0  0  0  0
   -8.3057    8.7491   -9.9816 N   0  0  0  0  0  0  0  0  0  0  0  0
   -8.4330    8.8776  -11.2917 N   0  0  0  0  0  0  0  0  0  0  0  0
   -7.3352    9.8817   -8.0196 C   0  0  0  0  0  0  0  0  0  0  0  0
   -5.6205   13.5372  -12.2095 N   0  0  0  0  0  0  0  0  0  0  0  0
   -5.9727   10.4835   -7.7324 C   0  0  0  0  0  0  0  0  0  0  0  0
   -5.8611   11.7523   -7.1657 C   0  0  0  0  0  0  0  0  0  0  0  0
   -4.5946   12.2988   -6.9068 C   0  0  0  0  0  0  0  0  0  0  0  0
   -3.4432   11.5806   -7.2147 C   0  0  0  0  0  0  0  0  0  0  0  0
   -3.5570   10.3109   -7.7899 C   0  0  0  0  0  0  0  0  0  0  0  0
   -4.8253    9.7663   -8.0483 C   0  0  0  0  0  0  0  0  0  0  0  0
   -2.0926   12.1556   -6.9444 C   0  0  0  0  0  0  0  0  0  0  0  0
   -1.7338   13.4204   -6.4594 C   0  0  0  0  0  0  0  0  0  0  0  0
   -0.4064   13.4584   -6.4114 N   0  0  0  0  0  0  0  0  0  0  0  0
    0.1793   12.3493   -6.7865 N   0  0  0  0  0  0  0  0  0  0  0  0
   -0.7954   11.5387   -7.1512 C   0  0  0  0  0  0  0  0  0  0  0  0
    0.4205   14.5767   -6.0073 C   0  0  0  0  0  0  0  0  0  0  0  0
   -4.6894   13.8945  -11.1046 C   0  0  0  0  0  0  0  0  0  0  0  0
   -3.7822   15.1171  -11.3990 C   0  0  0  0  0  0  0  0  0  0  0  0
   -2.3310   14.9579  -11.2532 N   0  0  0  0  0  0  0  0  0  0  0  0
   -1.8099   14.4326  -10.1320 C   0  0  0  0  0  0  0  0  0  0  0  0
   -2.5019   14.0442   -9.2076 O   0  0  0  0  0  0  0  0  0  0  0  0
   -0.2869   14.3494  -10.0364 C   0  0  0  0  0  0  0  0  0  0  0  0
   -5.5086   11.5965  -10.3394 H   0  0  0  0  0  0  0  0  0  0  0  0
   -7.0053   12.5553  -10.0799 H   0  0  0  0  0  0  0  0  0  0  0  0
   -8.1374   10.1224  -13.9131 H   0  0  0  0  0  0  0  0  0  0  0  0
   -6.8466   12.2604  -14.0624 H   0  0  0  0  0  0  0  0  0  0  0  0
   -8.0269    9.5780   -7.2478 H   0  0  0  0  0  0  0  0  0  0  0  0
   -5.9820   10.0328   -6.7290 H   0  0  0  0  0  0  0  0  0  0  0  0
   -6.7507   12.3156   -6.9255 H   0  0  0  0  0  0  0  0  0  0  0  0
   -4.5132   13.2816   -6.4664 H   0  0  0  0  0  0  0  0  0  0  0  0
   -3.4540   11.1294   -6.2116 H   0  0  0  0  0  0  0  0  0  0  0  0
   -2.6683    9.7485   -8.0357 H   0  0  0  0  0  0  0  0  0  0  0  0
   -4.9092    8.7863   -8.4943 H   0  0  0  0  0  0  0  0  0  0  0  0
   -2.4090   14.2148   -6.1776 H   0  0  0  0  0  0  0  0  0  0  0  0
   -0.6475   10.5464   -7.5511 H   0  0  0  0  0  0  0  0  0  0  0  0
    1.4812   14.2962   -6.0855 H   0  0  0  0  0  0  0  0  0  0  0  0
    0.2196   15.4369   -6.6628 H   0  0  0  0  0  0  0  0  0  0  0  0
    0.1886   14.8468   -4.9665 H   0  0  0  0  0  0  0  0  0  0  0  0
   -5.2882   14.1185  -10.2095 H   0  0  0  0  0  0  0  0  0  0  0  0
   -4.0431   13.0269  -10.9057 H   0  0  0  0  0  0  0  0  0  0  0  0
   -3.9735   15.4217  -12.4385 H   0  0  0  0  0  0  0  0  0  0  0  0
   -4.0914   15.9235  -10.7178 H   0  0  0  0  0  0  0  0  0  0  0  0
   -1.7243   15.2430  -11.9952 H   0  0  0  0  0  0  0  0  0  0  0  0
   -0.0031   13.9147   -9.0666 H   0  0  0  0  0  0  0  0  0  0  0  0
    0.0973   13.7152  -10.8489 H   0  0  0  0  0  0  0  0  0  0  0  0
    0.1416   15.3586  -10.1252 H   0  0  0  0  0  0  0  0  0  0  0  0
  1  2  1  0  0  0  0
  1  4  1  0  0  0  0
  1 11  2  0  0  0  0
  2  6  1  0  0  0  0
  3  4  2  0  0  0  0
  3  5  1  0  0  0  0
  5  6  2  0  0  0  0
  5  9  1  0  0  0  0
  6  7  1  0  0  0  0
  7  8  1  0  0  0  0
  7 10  2  3  0  0  0
  8  9  2  0  0  0  0
 10 12  1  0  0  0  0
 11 24  1  0  0  0  0
 12 13  1  0  0  0  0
 12 17  1  0  0  0  0
 13 14  2  0  0  0  0
 14 15  1  0  0  0  0
 15 16  1  0  0  0  0
 15 18  1  0  0  0  0
 16 17  2  0  0  0  0
 18 19  2  0  0  0  0
 18 22  1  0  0  0  0
 19 20  1  0  0  0  0
 20 21  1  0  0  0  0
 20 23  1  0  0  0  0
 21 22  2  0  0  0  0
 24 25  1  0  0  0  0
 25 26  1  0  0  0  0
 26 27  1  0  0  0  0
 27 28  2  0  0  0  0
 27 29  1  0  0  0  0
  2 30  1  0  0  0  0
  2 31  1  0  0  0  0
  3 32  1  0  0  0  0
  4 33  1  0  0  0  0
 10 34  1  0  0  0  0
 12 35  1  0  0  0  0
 13 36  1  0  0  0  0
 14 37  1  0  0  0  0
 15 38  1  0  0  0  0
 16 39  1  0  0  0  0
 17 40  1  0  0  0  0
 19 41  1  0  0  0  0
 22 42  1  0  0  0  0
 23 43  1  0  0  0  0
 23 44  1  0  0  0  0
 23 45  1  0  0  0  0
 24 46  1  0  0  0  0
 24 47  1  0  0  0  0
 25 48  1  0  0  0  0
 25 49  1  0  0  0  0
 26 50  1  0  0  0  0
 29 51  1  0  0  0  0
 29 52  1  0  0  0  0
 29 53  1  0  0  0  0
M  END
> <Name>
27

> <IC50[uM]>
0.68

$$$$
27
  -OEChem-05192314333D
 Structure written by MMmdl.
 53 56  0     1  0  0  0  0  0999 V2000
   -6.3855   12.3606  -12.0031 C   0  0  0  0  0  0  0  0  0  0  0  0
   -6.5214   11.8004  -10.7171 C   0  0  0  0  0  0  0  0  0  0  0  0
   -7.6991   10.5797  -13.0384 C   0  0  0  0  0  0  0  0  0  0  0  0
   -6.9626   11.7779  -13.1031 C   0  0  0  0  0  0  0  0  0  0  0  0
   -7.8238   10.0198  -11.7523 C   0  0  0  0  0  0  0  0  0  0  0  0
   -7.2557   10.6213  -10.5956 C   0  0  0  0  0  0  0  0  0  0  0  0
   -7.6268    9.7501   -9.5073 C   0  0  3  0  0  0  0  0  0  0  0  0
   -8.3057    8.7491   -9.9816 N   0  0  0  0  0  0  0  0  0  0  0  0
   -8.4330    8.8776  -11.2917 N   0  0  0  0  0  0  0  0  0  0  0  0
   -7.3352    9.8817   -8.0196 C   0  0  0  0  0  0  0  0  0  0  0  0
   -5.6205   13.5372  -12.2095 N   0  0  0  0  0  0  0  0  0  0  0  0
   -5.9727   10.4835   -7.7324 C   0  0  0  0  0  0  0  0  0  0  0  0
   -5.8611   11.7523   -7.1657 C   0  0  0  0  0  0  0  0  0  0  0  0
   -4.5946   12.2988   -6.9068 C   0  0  0  0  0  0  0  0  0  0  0  0
   -3.4432   11.5806   -7.2147 C   0  0  0  0  0  0  0  0  0  0  0  0
   -3.5570   10.3109   -7.7899 C   0  0  0  0  0  0  0  0  0  0  0  0
   -4.8253    9.7663   -8.0483 C   0  0  0  0  0  0  0  0  0  0  0  0
   -2.0926   12.1556   -6.9444 C   0  0  0  0  0  0  0  0  0  0  0  0
   -1.7338   13.4204   -6.4594 C   0  0  0  0  0  0  0  0  0  0  0  0
   -0.4064   13.4584   -6.4114 N   0  0  0  0  0  0  0  0  0  0  0  0
    0.1793   12.3493   -6.7865 N   0  0  0  0  0  0  0  0  0  0  0  0
   -0.7954   11.5387   -7.1512 C   0  0  0  0  0  0  0  0  0  0  0  0
    0.4205   14.5767   -6.0073 C   0  0  0  0  0  0  0  0  0  0  0  0
   -4.6894   13.8945  -11.1046 C   0  0  0  0  0  0  0  0  0  0  0  0
   -3.7822   15.1171  -11.3990 C   0  0  0  0  0  0  0  0  0  0  0  0
   -2.3310   14.9579  -11.2532 N   0  0  0  0  0  0  0  0  0  0  0  0
   -1.8099   14.4326  -10.1320 C   0  0  0  0  0  0  0  0  0  0  0  0
   -2.5019   14.0442   -9.2076 O   0  0  0  0  0  0  0  0  0  0  0  0
   -0.2869   14.3494  -10.0364 C   0  0  0  0  0  0  0  0  0  0  0  0
   -5.5086   11.5965  -10.3394 H   0  0  0  0  0  0  0  0  0  0  0  0
   -7.0053   12.5553  -10.0799 H   0  0  0  0  0  0  0  0  0  0  0  0
   -8.1374   10.1224  -13.9131 H   0  0  0  0  0  0  0  0  0  0  0  0
   -6.8466   12.2604  -14.0624 H   0  0  0  0  0  0  0  0  0  0  0  0
   -6.6939    9.1829   -9.6414 H   0  0  0  0  0  0  0  0  0  0  0  0
   -8.0269    9.5780   -7.2478 H   0  0  0  0  0  0  0  0  0  0  0  0
   -6.7507   12.3156   -6.9255 H   0  0  0  0  0  0  0  0  0  0  0  0
   -4.5132   13.2816   -6.4664 H   0  0  0  0  0  0  0  0  0  0  0  0
   -3.4540   11.1294   -6.2116 H   0  0  0  0  0  0  0  0  0  0  0  0
   -2.6683    9.7485   -8.0357 H   0  0  0  0  0  0  0  0  0  0  0  0
   -4.9092    8.7863   -8.4943 H   0  0  0  0  0  0  0  0  0  0  0  0
   -2.4090   14.2148   -6.1776 H   0  0  0  0  0  0  0  0  0  0  0  0
   -0.6475   10.5464   -7.5511 H   0  0  0  0  0  0  0  0  0  0  0  0
    1.4812   14.2962   -6.0855 H   0  0  0  0  0  0  0  0  0  0  0  0
    0.2196   15.4369   -6.6628 H   0  0  0  0  0  0  0  0  0  0  0  0
    0.1886   14.8468   -4.9665 H   0  0  0  0  0  0  0  0  0  0  0  0
   -5.2882   14.1185  -10.2095 H   0  0  0  0  0  0  0  0  0  0  0  0
   -4.0431   13.0269  -10.9057 H   0  0  0  0  0  0  0  0  0  0  0  0
   -3.9735   15.4217  -12.4385 H   0  0  0  0  0  0  0  0  0  0  0  0
   -4.0914   15.9235  -10.7178 H   0  0  0  0  0  0  0  0  0  0  0  0
   -1.7243   15.2430  -11.9952 H   0  0  0  0  0  0  0  0  0  0  0  0
   -0.0031   13.9147   -9.0666 H   0  0  0  0  0  0  0  0  0  0  0  0
    0.0973   13.7152  -10.8489 H   0  0  0  0  0  0  0  0  0  0  0  0
    0.1416   15.3586  -10.1252 H   0  0  0  0  0  0  0  0  0  0  0  0
  1  2  1  0  0  0  0
  1  4  1  0  0  0  0
  1 11  2  0  0  0  0
  2  6  1  0  0  0  0
  3  4  2  0  0  0  0
  3  5  1  0  0  0  0
  5  6  2  0  0  0  0
  5  9  1  0  0  0  0
  6  7  1  0  0  0  0
  7  8  1  0  0  0  0
  7 10  1  0  0  0  0
  8  9  2  0  0  0  0
 10 12  2  0  0  0  0
 11 24  1  0  0  0  0
 12 13  1  0  0  0  0
 12 17  1  0  0  0  0
 13 14  2  0  0  0  0
 14 15  1  0  0  0  0
 15 16  1  0  0  0  0
 15 18  1  0  0  0  0
 16 17  2  0  0  0  0
 18 19  2  0  0  0  0
 18 22  1  0  0  0  0
 19 20  1  0  0  0  0
 20 21  1  0  0  0  0
 20 23  1  0  0  0  0
 21 22  2  0  0  0  0
 24 25  1  0  0  0  0
 25 26  1  0  0  0  0
 26 27  1  0  0  0  0
 27 28  2  0  0  0  0
 27 29  1  0  0  0  0
  2 30  1  0  0  0  0
  2 31  1  0  0  0  0
  3 32  1  0  0  0  0
  4 33  1  0  0  0  0
  7 34  1  0  0  0  0
 10 35  1  0  0  0  0
 13 36  1  0  0  0  0
 14 37  1  0  0  0  0
 15 38  1  0  0  0  0
 16 39  1  0  0  0  0
 17 40  1  0  0  0  0
 19 41  1  0  0  0  0
 22 42  1  0  0  0  0
 23 43  1  0  0  0  0
 23 44  1  0  0  0  0
 23 45  1  0  0  0  0
 24 46  1  0  0  0  0
 24 47  1  0  0  0  0
 25 48  1  0  0  0  0
 25 49  1  0  0  0  0
 26 50  1  0  0  0  0
 29 51  1  0  0  0  0
 29 52  1  0  0  0  0
 29 53  1  0  0  0  0
M  END
> <Name>
27

> <IC50[uM]>
0.68

$$$$
27
  -OEChem-05192314333D
 Structure written by MMmdl.
 53 56  0     1  0  0  0  0  0999 V2000
   -6.3855   12.3606  -12.0031 C   0  0  0  0  0  0  0  0  0  0  0  0
   -6.5214   11.8004  -10.7171 C   0  0  0  0  0  0  0  0  0  0  0  0
   -7.6991   10.5797  -13.0384 C   0  0  0  0  0  0  0  0  0  0  0  0
   -6.9626   11.7779  -13.1031 C   0  0  0  0  0  0  0  0  0  0  0  0
   -7.8238   10.0198  -11.7523 C   0  0  3  0  0  0  0  0  0  0  0  0
   -7.2557   10.6213  -10.5956 C   0  0  0  0  0  0  0  0  0  0  0  0
   -7.6268    9.7501   -9.5073 C   0  0  0  0  0  0  0  0  0  0  0  0
   -8.3057    8.7491   -9.9816 N   0  0  0  0  0  0  0  0  0  0  0  0
   -8.4330    8.8776  -11.2917 N   0  0  0  0  0  0  0  0  0  0  0  0
   -7.3352    9.8817   -8.0196 C   0  0  0  0  0  0  0  0  0  0  0  0
   -5.6205   13.5372  -12.2095 N   0  0  0  0  0  0  0  0  0  0  0  0
   -5.9727   10.4835   -7.7324 C   0  0  0  0  0  0  0  0  0  0  0  0
   -5.8611   11.7523   -7.1657 C   0  0  0  0  0  0  0  0  0  0  0  0
   -4.5946   12.2988   -6.9068 C   0  0  0  0  0  0  0  0  0  0  0  0
   -3.4432   11.5806   -7.2147 C   0  0  0  0  0  0  0  0  0  0  0  0
   -3.5570   10.3109   -7.7899 C   0  0  0  0  0  0  0  0  0  0  0  0
   -4.8253    9.7663   -8.0483 C   0  0  0  0  0  0  0  0  0  0  0  0
   -2.0926   12.1556   -6.9444 C   0  0  0  0  0  0  0  0  0  0  0  0
   -1.7338   13.4204   -6.4594 C   0  0  0  0  0  0  0  0  0  0  0  0
   -0.4064   13.4584   -6.4114 N   0  0  0  0  0  0  0  0  0  0  0  0
    0.1793   12.3493   -6.7865 N   0  0  0  0  0  0  0  0  0  0  0  0
   -0.7954   11.5387   -7.1512 C   0  0  0  0  0  0  0  0  0  0  0  0
    0.4205   14.5767   -6.0073 C   0  0  0  0  0  0  0  0  0  0  0  0
   -4.6894   13.8945  -11.1046 C   0  0  0  0  0  0  0  0  0  0  0  0
   -3.7822   15.1171  -11.3990 C   0  0  0  0  0  0  0  0  0  0  0  0
   -2.3310   14.9579  -11.2532 N   0  0  0  0  0  0  0  0  0  0  0  0
   -1.8099   14.4326  -10.1320 C   0  0  0  0  0  0  0  0  0  0  0  0
   -2.5019   14.0442   -9.2076 O   0  0  0  0  0  0  0  0  0  0  0  0
   -0.2869   14.3494  -10.0364 C   0  0  0  0  0  0  0  0  0  0  0  0
   -5.5086   11.5965  -10.3394 H   0  0  0  0  0  0  0  0  0  0  0  0
   -7.0053   12.5553  -10.0799 H   0  0  0  0  0  0  0  0  0  0  0  0
   -8.1374   10.1224  -13.9131 H   0  0  0  0  0  0  0  0  0  0  0  0
   -6.8466   12.2604  -14.0624 H   0  0  0  0  0  0  0  0  0  0  0  0
   -8.7543   10.5845  -11.5930 H   0  0  0  0  0  0  0  0  0  0  0  0
   -8.0269    9.5780   -7.2478 H   0  0  0  0  0  0  0  0  0  0  0  0
   -6.7507   12.3156   -6.9255 H   0  0  0  0  0  0  0  0  0  0  0  0
   -4.5132   13.2816   -6.4664 H   0  0  0  0  0  0  0  0  0  0  0  0
   -3.4540   11.1294   -6.2116 H   0  0  0  0  0  0  0  0  0  0  0  0
   -2.6683    9.7485   -8.0357 H   0  0  0  0  0  0  0  0  0  0  0  0
   -4.9092    8.7863   -8.4943 H   0  0  0  0  0  0  0  0  0  0  0  0
   -2.4090   14.2148   -6.1776 H   0  0  0  0  0  0  0  0  0  0  0  0
   -0.6475   10.5464   -7.5511 H   0  0  0  0  0  0  0  0  0  0  0  0
    1.4812   14.2962   -6.0855 H   0  0  0  0  0  0  0  0  0  0  0  0
    0.2196   15.4369   -6.6628 H   0  0  0  0  0  0  0  0  0  0  0  0
    0.1886   14.8468   -4.9665 H   0  0  0  0  0  0  0  0  0  0  0  0
   -5.2882   14.1185  -10.2095 H   0  0  0  0  0  0  0  0  0  0  0  0
   -4.0431   13.0269  -10.9057 H   0  0  0  0  0  0  0  0  0  0  0  0
   -3.9735   15.4217  -12.4385 H   0  0  0  0  0  0  0  0  0  0  0  0
   -4.0914   15.9235  -10.7178 H   0  0  0  0  0  0  0  0  0  0  0  0
   -1.7243   15.2430  -11.9952 H   0  0  0  0  0  0  0  0  0  0  0  0
   -0.0031   13.9147   -9.0666 H   0  0  0  0  0  0  0  0  0  0  0  0
    0.0973   13.7152  -10.8489 H   0  0  0  0  0  0  0  0  0  0  0  0
    0.1416   15.3586  -10.1252 H   0  0  0  0  0  0  0  0  0  0  0  0
  1  2  1  0  0  0  0
  1  4  1  0  0  0  0
  1 11  2  0  0  0  0
  2  6  1  0  0  0  0
  3  4  2  0  0  0  0
  3  5  1  0  0  0  0
  5  6  1  0  0  0  0
  5  9  1  0  0  0  0
  6  7  2  0  0  0  0
  7  8  1  0  0  0  0
  7 10  1  0  0  0  0
  8  9  2  0  0  0  0
 10 12  2  0  0  0  0
 11 24  1  0  0  0  0
 12 13  1  0  0  0  0
 12 17  1  0  0  0  0
 13 14  2  0  0  0  0
 14 15  1  0  0  0  0
 15 16  1  0  0  0  0
 15 18  1  0  0  0  0
 16 17  2  0  0  0  0
 18 19  2  0  0  0  0
 18 22  1  0  0  0  0
 19 20  1  0  0  0  0
 20 21  1  0  0  0  0
 20 23  1  0  0  0  0
 21 22  2  0  0  0  0
 24 25  1  0  0  0  0
 25 26  1  0  0  0  0
 26 27  1  0  0  0  0
 27 28  2  0  0  0  0
 27 29  1  0  0  0  0
  2 30  1  0  0  0  0
  2 31  1  0  0  0  0
  3 32  1  0  0  0  0
  4 33  1  0  0  0  0
  5 34  1  0  0  0  0
 10 35  1  0  0  0  0
 13 36  1  0  0  0  0
 14 37  1  0  0  0  0
 15 38  1  0  0  0  0
 16 39  1  0  0  0  0
 17 40  1  0  0  0  0
 19 41  1  0  0  0  0
 22 42  1  0  0  0  0
 23 43  1  0  0  0  0
 23 44  1  0  0  0  0
 23 45  1  0  0  0  0
 24 46  1  0  0  0  0
 24 47  1  0  0  0  0
 25 48  1  0  0  0  0
 25 49  1  0  0  0  0
 26 50  1  0  0  0  0
 29 51  1  0  0  0  0
 29 52  1  0  0  0  0
 29 53  1  0  0  0  0
M  END
> <Name>
27

> <IC50[uM]>
0.68

$$$$
27
  -OEChem-05192314333D
 Structure written by MMmdl.
 53 56  0     0  0  0  0  0  0999 V2000
   -6.3855   12.3606  -12.0031 C   0  0  0  0  0  0  0  0  0  0  0  0
   -6.5214   11.8004  -10.7171 C   0  0  0  0  0  0  0  0  0  0  0  0
   -7.6991   10.5797  -13.0384 C   0  0  0  0  0  0  0  0  0  0  0  0
   -6.9626   11.7779  -13.1031 C   0  0  0  0  0  0  0  0  0  0  0  0
   -7.8238   10.0198  -11.7523 C   0  0  0  0  0  0  0  0  0  0  0  0
   -7.2557   10.6213  -10.5956 C   0  0  0  0  0  0  0  0  0  0  0  0
   -7.6268    9.7501   -9.5073 C   0  0  0  0  0  0  0  0  0  0  0  0
   -8.3057    8.7491   -9.9816 N   0  0  0  0  0  0  0  0  0  0  0  0
   -8.4330    8.8776  -11.2917 N   0  0  0  0  0  0  0  0  0  0  0  0
   -7.3352    9.8817   -8.0196 C   0  0  0  0  0  0  0  0  0  0  0  0
   -5.6205   13.5372  -12.2095 N   0  0  0  0  0  0  0  0  0  0  0  0
   -5.9727   10.4835   -7.7324 C   0  0  0  0  0  0  0  0  0  0  0  0
   -5.8611   11.7523   -7.1657 C   0  0  0  0  0  0  0  0  0  0  0  0
   -4.5946   12.2988   -6.9068 C   0  0  0  0  0  0  0  0  0  0  0  0
   -3.4432   11.5806   -7.2147 C   0  0  0  0  0  0  0  0  0  0  0  0
   -3.5570   10.3109   -7.7899 C   0  0  0  0  0  0  0  0  0  0  0  0
   -4.8253    9.7663   -8.0483 C   0  0  0  0  0  0  0  0  0  0  0  0
   -2.0926   12.1556   -6.9444 C   0  0  0  0  0  0  0  0  0  0  0  0
   -1.7338   13.4204   -6.4594 C   0  0  0  0  0  0  0  0  0  0  0  0
   -0.4064   13.4584   -6.4114 N   0  0  0  0  0  0  0  0  0  0  0  0
    0.1793   12.3493   -6.7865 N   0  0  0  0  0  0  0  0  0  0  0  0
   -0.7954   11.5387   -7.1512 C   0  0  0  0  0  0  0  0  0  0  0  0
    0.4205   14.5767   -6.0073 C   0  0  0  0  0  0  0  0  0  0  0  0
   -4.6894   13.8945  -11.1046 C   0  0  0  0  0  0  0  0  0  0  0  0
   -3.7822   15.1171  -11.3990 C   0  0  0  0  0  0  0  0  0  0  0  0
   -2.3310   14.9579  -11.2532 N   0  0  0  0  0  0  0  0  0  0  0  0
   -1.8099   14.4326  -10.1320 C   0  0  0  0  0  0  0  0  0  0  0  0
   -2.5019   14.0442   -9.2076 O   0  0  0  0  0  0  0  0  0  0  0  0
   -0.2869   14.3494  -10.0364 C   0  0  0  0  0  0  0  0  0  0  0  0
   -5.5086   11.5965  -10.3394 H   0  0  0  0  0  0  0  0  0  0  0  0
   -7.0053   12.5553  -10.0799 H   0  0  0  0  0  0  0  0  0  0  0  0
   -8.1374   10.1224  -13.9131 H   0  0  0  0  0  0  0  0  0  0  0  0
   -7.6459   12.5314  -13.5218 H   0  0  0  0  0  0  0  0  0  0  0  0
   -6.1429   11.5918  -13.8126 H   0  0  0  0  0  0  0  0  0  0  0  0
   -8.0269    9.5780   -7.2478 H   0  0  0  0  0  0  0  0  0  0  0  0
   -6.7507   12.3156   -6.9255 H   0  0  0  0  0  0  0  0  0  0  0  0
   -4.5132   13.2816   -6.4664 H   0  0  0  0  0  0  0  0  0  0  0  0
   -3.4540   11.1294   -6.2116 H   0  0  0  0  0  0  0  0  0  0  0  0
   -2.6683    9.7485   -8.0357 H   0  0  0  0  0  0  0  0  0  0  0  0
   -4.9092    8.7863   -8.4943 H   0  0  0  0  0  0  0  0  0  0  0  0
   -2.4090   14.2148   -6.1776 H   0  0  0  0  0  0  0  0  0  0  0  0
   -0.6475   10.5464   -7.5511 H   0  0  0  0  0  0  0  0  0  0  0  0
    1.4812   14.2962   -6.0855 H   0  0  0  0  0  0  0  0  0  0  0  0
    0.2196   15.4369   -6.6628 H   0  0  0  0  0  0  0  0  0  0  0  0
    0.1886   14.8468   -4.9665 H   0  0  0  0  0  0  0  0  0  0  0  0
   -5.2882   14.1185  -10.2095 H   0  0  0  0  0  0  0  0  0  0  0  0
   -4.0431   13.0269  -10.9057 H   0  0  0  0  0  0  0  0  0  0  0  0
   -3.9735   15.4217  -12.4385 H   0  0  0  0  0  0  0  0  0  0  0  0
   -4.0914   15.9235  -10.7178 H   0  0  0  0  0  0  0  0  0  0  0  0
   -1.7243   15.2430  -11.9952 H   0  0  0  0  0  0  0  0  0  0  0  0
   -0.0031   13.9147   -9.0666 H   0  0  0  0  0  0  0  0  0  0  0  0
    0.0973   13.7152  -10.8489 H   0  0  0  0  0  0  0  0  0  0  0  0
    0.1416   15.3586  -10.1252 H   0  0  0  0  0  0  0  0  0  0  0  0
  1  2  1  0  0  0  0
  1  4  1  0  0  0  0
  1 11  2  0  0  0  0
  2  6  1  0  0  0  0
  3  4  1  0  0  0  0
  3  5  2  0  0  0  0
  5  6  1  0  0  0  0
  5  9  1  0  0  0  0
  6  7  2  0  0  0  0
  7  8  1  0  0  0  0
  7 10  1  0  0  0  0
  8  9  2  0  0  0  0
 10 12  2  0  0  0  0
 11 24  1  0  0  0  0
 12 13  1  0  0  0  0
 12 17  1  0  0  0  0
 13 14  2  0  0  0  0
 14 15  1  0  0  0  0
 15 16  1  0  0  0  0
 15 18  1  0  0  0  0
 16 17  2  0  0  0  0
 18 19  2  0  0  0  0
 18 22  1  0  0  0  0
 19 20  1  0  0  0  0
 20 21  1  0  0  0  0
 20 23  1  0  0  0  0
 21 22  2  0  0  0  0
 24 25  1  0  0  0  0
 25 26  1  0  0  0  0
 26 27  1  0  0  0  0
 27 28  2  0  0  0  0
 27 29  1  0  0  0  0
  2 30  1  0  0  0  0
  2 31  1  0  0  0  0
  3 32  1  0  0  0  0
  4 33  1  0  0  0  0
  4 34  1  0  0  0  0
 10 35  1  0  0  0  0
 13 36  1  0  0  0  0
 14 37  1  0  0  0  0
 15 38  1  0  0  0  0
 16 39  1  0  0  0  0
 17 40  1  0  0  0  0
 19 41  1  0  0  0  0
 22 42  1  0  0  0  0
 23 43  1  0  0  0  0
 23 44  1  0  0  0  0
 23 45  1  0  0  0  0
 24 46  1  0  0  0  0
 24 47  1  0  0  0  0
 25 48  1  0  0  0  0
 25 49  1  0  0  0  0
 26 50  1  0  0  0  0
 29 51  1  0  0  0  0
 29 52  1  0  0  0  0
 29 53  1  0  0  0  0
M  END
> <Name>
27

> <IC50[uM]>
0.68

$$$$
27
  -OEChem-05192314333D
 Structure written by MMmdl.
 53 56  0     1  0  0  0  0  0999 V2000
   -6.3855   12.3606  -12.0031 C   0  0  0  0  0  0  0  0  0  0  0  0
   -6.5214   11.8004  -10.7171 C   0  0  0  0  0  0  0  0  0  0  0  0
   -7.6991   10.5797  -13.0384 C   0  0  0  0  0  0  0  0  0  0  0  0
   -6.9626   11.7779  -13.1031 C   0  0  0  0  0  0  0  0  0  0  0  0
   -7.8238   10.0198  -11.7523 C   0  0  0  0  0  0  0  0  0  0  0  0
   -7.2557   10.6213  -10.5956 C   0  0  0  0  0  0  0  0  0  0  0  0
   -7.6268    9.7501   -9.5073 C   0  0  0  0  0  0  0  0  0  0  0  0
   -8.3057    8.7491   -9.9816 N   0  0  0  0  0  0  0  0  0  0  0  0
   -8.4330    8.8776  -11.2917 N   0  0  0  0  0  0  0  0  0  0  0  0
   -7.3352    9.8817   -8.0196 C   0  0  0  0  0  0  0  0  0  0  0  0
   -5.6205   13.5372  -12.2095 N   0  0  0  0  0  0  0  0  0  0  0  0
   -5.9727   10.4835   -7.7324 C   0  0  0  0  0  0  0  0  0  0  0  0
   -5.8611   11.7523   -7.1657 C   0  0  0  0  0  0  0  0  0  0  0  0
   -4.5946   12.2988   -6.9068 C   0  0  0  0  0  0  0  0  0  0  0  0
   -3.4432   11.5806   -7.2147 C   0  0  3  0  0  0  0  0  0  0  0  0
   -3.5570   10.3109   -7.7899 C   0  0  0  0  0  0  0  0  0  0  0  0
   -4.8253    9.7663   -8.0483 C   0  0  0  0  0  0  0  0  0  0  0  0
   -2.0926   12.1556   -6.9444 C   0  0  0  0  0  0  0  0  0  0  0  0
   -1.7338   13.4204   -6.4594 C   0  0  0  0  0  0  0  0  0  0  0  0
   -0.4064   13.4584   -6.4114 N   0  0  0  0  0  0  0  0  0  0  0  0
    0.1793   12.3493   -6.7865 N   0  0  0  0  0  0  0  0  0  0  0  0
   -0.7954   11.5387   -7.1512 C   0  0  0  0  0  0  0  0  0  0  0  0
    0.4205   14.5767   -6.0073 C   0  0  0  0  0  0  0  0  0  0  0  0
   -4.6894   13.8945  -11.1046 C   0  0  0  0  0  0  0  0  0  0  0  0
   -3.7822   15.1171  -11.3990 C   0  0  0  0  0  0  0  0  0  0  0  0
   -2.3310   14.9579  -11.2532 N   0  0  0  0  0  0  0  0  0  0  0  0
   -1.8099   14.4326  -10.1320 C   0  0  0  0  0  0  0  0  0  0  0  0
   -2.5019   14.0442   -9.2076 O   0  0  0  0  0  0  0  0  0  0  0  0
   -0.2869   14.3494  -10.0364 C   0  0  0  0  0  0  0  0  0  0  0  0
   -5.5086   11.5965  -10.3394 H   0  0  0  0  0  0  0  0  0  0  0  0
   -7.0053   12.5553  -10.0799 H   0  0  0  0  0  0  0  0  0  0  0  0
   -8.1374   10.1224  -13.9131 H   0  0  0  0  0  0  0  0  0  0  0  0
   -6.8466   12.2604  -14.0624 H   0  0  0  0  0  0  0  0  0  0  0  0
   -8.0269    9.5780   -7.2478 H   0  0  0  0  0  0  0  0  0  0  0  0
   -6.7507   12.3156   -6.9255 H   0  0  0  0  0  0  0  0  0  0  0  0
   -4.5373   13.2433   -7.4677 H   0  0  0  0  0  0  0  0  0  0  0  0
   -4.5562   12.5101   -5.8280 H   0  0  0  0  0  0  0  0  0  0  0  0
   -3.4540   11.1294   -6.2116 H   0  0  0  0  0  0  0  0  0  0  0  0
   -2.6683    9.7485   -8.0357 H   0  0  0  0  0  0  0  0  0  0  0  0
   -4.9092    8.7863   -8.4943 H   0  0  0  0  0  0  0  0  0  0  0  0
   -2.4090   14.2148   -6.1776 H   0  0  0  0  0  0  0  0  0  0  0  0
   -0.6475   10.5464   -7.5511 H   0  0  0  0  0  0  0  0  0  0  0  0
    1.4812   14.2962   -6.0855 H   0  0  0  0  0  0  0  0  0  0  0  0
    0.2196   15.4369   -6.6628 H   0  0  0  0  0  0  0  0  0  0  0  0
    0.1886   14.8468   -4.9665 H   0  0  0  0  0  0  0  0  0  0  0  0
   -5.2882   14.1185  -10.2095 H   0  0  0  0  0  0  0  0  0  0  0  0
   -4.0431   13.0269  -10.9057 H   0  0  0  0  0  0  0  0  0  0  0  0
   -3.9735   15.4217  -12.4385 H   0  0  0  0  0  0  0  0  0  0  0  0
   -4.0914   15.9235  -10.7178 H   0  0  0  0  0  0  0  0  0  0  0  0
   -1.7243   15.2430  -11.9952 H   0  0  0  0  0  0  0  0  0  0  0  0
   -0.0031   13.9147   -9.0666 H   0  0  0  0  0  0  0  0  0  0  0  0
    0.0973   13.7152  -10.8489 H   0  0  0  0  0  0  0  0  0  0  0  0
    0.1416   15.3586  -10.1252 H   0  0  0  0  0  0  0  0  0  0  0  0
  1  2  1  0  0  0  0
  1  4  1  0  0  0  0
  1 11  2  0  0  0  0
  2  6  1  0  0  0  0
  3  4  2  0  0  0  0
  3  5  1  0  0  0  0
  5  6  2  0  0  0  0
  5  9  1  0  0  0  0
  6  7  1  0  0  0  0
  7  8  1  0  0  0  0
  7 10  2  3  0  0  0
  8  9  2  0  0  0  0
 10 12  1  0  0  0  0
 11 24  1  0  0  0  0
 12 13  2  0  0  0  0
 12 17  1  0  0  0  0
 13 14  1  0  0  0  0
 14 15  1  0  0  0  0
 15 16  1  0  0  0  0
 15 18  1  0  0  0  0
 16 17  2  0  0  0  0
 18 19  2  0  0  0  0
 18 22  1  0  0  0  0
 19 20  1  0  0  0  0
 20 21  1  0  0  0  0
 20 23  1  0  0  0  0
 21 22  2  0  0  0  0
 24 25  1  0  0  0  0
 25 26  1  0  0  0  0
 26 27  1  0  0  0  0
 27 28  2  0  0  0  0
 27 29  1  0  0  0  0
  2 30  1  0  0  0  0
  2 31  1  0  0  0  0
  3 32  1  0  0  0  0
  4 33  1  0  0  0  0
 10 34  1  0  0  0  0
 13 35  1  0  0  0  0
 14 36  1  0  0  0  0
 14 37  1  0  0  0  0
 15 38  1  0  0  0  0
 16 39  1  0  0  0  0
 17 40  1  0  0  0  0
 19 41  1  0  0  0  0
 22 42  1  0  0  0  0
 23 43  1  0  0  0  0
 23 44  1  0  0  0  0
 23 45  1  0  0  0  0
 24 46  1  0  0  0  0
 24 47  1  0  0  0  0
 25 48  1  0  0  0  0
 25 49  1  0  0  0  0
 26 50  1  0  0  0  0
 29 51  1  0  0  0  0
 29 52  1  0  0  0  0
 29 53  1  0  0  0  0
M  END
> <Name>
27

> <IC50[uM]>
0.68

$$$$
27
  -OEChem-05192314333D
 Structure written by MMmdl.
 53 56  0     1  0  0  0  0  0999 V2000
   -6.3855   12.3606  -12.0031 C   0  0  0  0  0  0  0  0  0  0  0  0
   -6.5214   11.8004  -10.7171 C   0  0  0  0  0  0  0  0  0  0  0  0
   -7.6991   10.5797  -13.0384 C   0  0  0  0  0  0  0  0  0  0  0  0
   -6.9626   11.7779  -13.1031 C   0  0  0  0  0  0  0  0  0  0  0  0
   -7.8238   10.0198  -11.7523 C   0  0  0  0  0  0  0  0  0  0  0  0
   -7.2557   10.6213  -10.5956 C   0  0  0  0  0  0  0  0  0  0  0  0
   -7.6268    9.7501   -9.5073 C   0  0  0  0  0  0  0  0  0  0  0  0
   -8.3057    8.7491   -9.9816 N   0  0  0  0  0  0  0  0  0  0  0  0
   -8.4330    8.8776  -11.2917 N   0  0  0  0  0  0  0  0  0  0  0  0
   -7.3352    9.8817   -8.0196 C   0  0  0  0  0  0  0  0  0  0  0  0
   -5.6205   13.5372  -12.2095 N   0  0  0  0  0  0  0  0  0  0  0  0
   -5.9727   10.4835   -7.7324 C   0  0  3  0  0  0  0  0  0  0  0  0
   -5.8611   11.7523   -7.1657 C   0  0  0  0  0  0  0  0  0  0  0  0
   -4.5946   12.2988   -6.9068 C   0  0  0  0  0  0  0  0  0  0  0  0
   -3.4432   11.5806   -7.2147 C   0  0  0  0  0  0  0  0  0  0  0  0
   -3.5570   10.3109   -7.7899 C   0  0  0  0  0  0  0  0  0  0  0  0
   -4.8253    9.7663   -8.0483 C   0  0  0  0  0  0  0  0  0  0  0  0
   -2.0926   12.1556   -6.9444 C   0  0  0  0  0  0  0  0  0  0  0  0
   -1.7338   13.4204   -6.4594 C   0  0  0  0  0  0  0  0  0  0  0  0
   -0.4064   13.4584   -6.4114 N   0  0  0  0  0  0  0  0  0  0  0  0
    0.1793   12.3493   -6.7865 N   0  0  0  0  0  0  0  0  0  0  0  0
   -0.7954   11.5387   -7.1512 C   0  0  0  0  0  0  0  0  0  0  0  0
    0.4205   14.5767   -6.0073 C   0  0  0  0  0  0  0  0  0  0  0  0
   -4.6894   13.8945  -11.1046 C   0  0  0  0  0  0  0  0  0  0  0  0
   -3.7822   15.1171  -11.3990 C   0  0  0  0  0  0  0  0  0  0  0  0
   -2.3310   14.9579  -11.2532 N   0  0  0  0  0  0  0  0  0  0  0  0
   -1.8099   14.4326  -10.1320 C   0  0  0  0  0  0  0  0  0  0  0  0
   -2.5019   14.0442   -9.2076 O   0  0  0  0  0  0  0  0  0  0  0  0
   -0.2869   14.3494  -10.0364 C   0  0  0  0  0  0  0  0  0  0  0  0
   -5.5086   11.5965  -10.3394 H   0  0  0  0  0  0  0  0  0  0  0  0
   -7.0053   12.5553  -10.0799 H   0  0  0  0  0  0  0  0  0  0  0  0
   -8.1374   10.1224  -13.9131 H   0  0  0  0  0  0  0  0  0  0  0  0
   -6.8466   12.2604  -14.0624 H   0  0  0  0  0  0  0  0  0  0  0  0
   -8.0269    9.5780   -7.2478 H   0  0  0  0  0  0  0  0  0  0  0  0
   -5.9820   10.0328   -6.7290 H   0  0  0  0  0  0  0  0  0  0  0  0
   -6.7507   12.3156   -6.9255 H   0  0  0  0  0  0  0  0  0  0  0  0
   -4.5132   13.2816   -6.4664 H   0  0  0  0  0  0  0  0  0  0  0  0
   -2.6683    9.7485   -8.0357 H   0  0  0  0  0  0  0  0  0  0  0  0
   -4.8817    8.8185   -7.4929 H   0  0  0  0  0  0  0  0  0  0  0  0
   -4.8676    9.5615   -9.1282 H   0  0  0  0  0  0  0  0  0  0  0  0
   -2.4090   14.2148   -6.1776 H   0  0  0  0  0  0  0  0  0  0  0  0
   -0.6475   10.5464   -7.5511 H   0  0  0  0  0  0  0  0  0  0  0  0
    1.4812   14.2962   -6.0855 H   0  0  0  0  0  0  0  0  0  0  0  0
    0.2196   15.4369   -6.6628 H   0  0  0  0  0  0  0  0  0  0  0  0
    0.1886   14.8468   -4.9665 H   0  0  0  0  0  0  0  0  0  0  0  0
   -5.2882   14.1185  -10.2095 H   0  0  0  0  0  0  0  0  0  0  0  0
   -4.0431   13.0269  -10.9057 H   0  0  0  0  0  0  0  0  0  0  0  0
   -3.9735   15.4217  -12.4385 H   0  0  0  0  0  0  0  0  0  0  0  0
   -4.0914   15.9235  -10.7178 H   0  0  0  0  0  0  0  0  0  0  0  0
   -1.7243   15.2430  -11.9952 H   0  0  0  0  0  0  0  0  0  0  0  0
   -0.0031   13.9147   -9.0666 H   0  0  0  0  0  0  0  0  0  0  0  0
    0.0973   13.7152  -10.8489 H   0  0  0  0  0  0  0  0  0  0  0  0
    0.1416   15.3586  -10.1252 H   0  0  0  0  0  0  0  0  0  0  0  0
  1  2  1  0  0  0  0
  1  4  1  0  0  0  0
  1 11  2  0  0  0  0
  2  6  1  0  0  0  0
  3  4  2  0  0  0  0
  3  5  1  0  0  0  0
  5  6  2  0  0  0  0
  5  9  1  0  0  0  0
  6  7  1  0  0  0  0
  7  8  1  0  0  0  0
  7 10  2  3  0  0  0
  8  9  2  0  0  0  0
 10 12  1  0  0  0  0
 11 24  1  0  0  0  0
 12 13  1  0  0  0  0
 12 17  1  0  0  0  0
 13 14  2  0  0  0  0
 14 15  1  0  0  0  0
 15 16  2  0  0  0  0
 15 18  1  0  0  0  0
 16 17  1  0  0  0  0
 18 19  2  0  0  0  0
 18 22  1  0  0  0  0
 19 20  1  0  0  0  0
 20 21  1  0  0  0  0
 20 23  1  0  0  0  0
 21 22  2  0  0  0  0
 24 25  1  0  0  0  0
 25 26  1  0  0  0  0
 26 27  1  0  0  0  0
 27 28  2  0  0  0  0
 27 29  1  0  0  0  0
  2 30  1  0  0  0  0
  2 31  1  0  0  0  0
  3 32  1  0  0  0  0
  4 33  1  0  0  0  0
 10 34  1  0  0  0  0
 12 35  1  0  0  0  0
 13 36  1  0  0  0  0
 14 37  1  0  0  0  0
 16 38  1  0  0  0  0
 17 39  1  0  0  0  0
 17 40  1  0  0  0  0
 19 41  1  0  0  0  0
 22 42  1  0  0  0  0
 23 43  1  0  0  0  0
 23 44  1  0  0  0  0
 23 45  1  0  0  0  0
 24 46  1  0  0  0  0
 24 47  1  0  0  0  0
 25 48  1  0  0  0  0
 25 49  1  0  0  0  0
 26 50  1  0  0  0  0
 29 51  1  0  0  0  0
 29 52  1  0  0  0  0
 29 53  1  0  0  0  0
M  END
> <Name>
27

> <IC50[uM]>
0.68

$$$$
